
  -OEChem-05262217223D

 46 46  0     1  0  0  0  0  0999 V2000
   -3.0071    1.8561    3.6616 C   0  0  0  0  0  0  0  0  0  0  0  0
   -3.4340    0.7297    3.4601 O   0  0  0  0  0  0  0  0  0  0  0  0
   -3.3733    2.5945    4.9356 C   0  0  0  0  0  0  0  0  0  0  0  0
   -3.9244    3.5065    4.6933 H   0  0  0  0  0  0  0  0  0  0  0  0
   -3.9998    1.9620    5.5711 H   0  0  0  0  0  0  0  0  0  0  0  0
   -2.4681    2.8602    5.4873 H   0  0  0  0  0  0  0  0  0  0  0  0
   -2.1910    2.4584    2.7271 N   0  0  0  0  0  0  0  0  0  0  0  0
   -1.6553    1.7894    1.5323 C   0  0  2  0  0  0  0  0  0  0  0  0
   -0.2271    2.3274    1.1897 C   0  0  0  0  0  0  0  0  0  0  0  0
    0.0452    3.4413    1.6381 O   0  0  0  0  0  0  0  0  0  0  0  0
   -2.7076    1.9707    0.4284 C   0  0  0  0  0  0  0  0  0  0  0  0
   -1.7609    3.3474    2.9828 H   0  0  0  0  0  0  0  0  0  0  0  0
   -1.5510    0.7239    1.7565 H   0  0  0  0  0  0  0  0  0  0  0  0
   -2.8130    3.0299    0.1728 H   0  0  0  0  0  0  0  0  0  0  0  0
   -2.4372    1.4129   -0.4713 H   0  0  0  0  0  0  0  0  0  0  0  0
   -3.6803    1.6011    0.7690 H   0  0  0  0  0  0  0  0  0  0  0  0
    0.7318    1.6691    0.3576 N   0  0  0  0  0  0  0  0  0  0  0  0
    0.3584    0.3034   -0.2913 C   0  0  2  0  0  0  0  0  0  0  0  0
    1.0009   -0.8021   -1.1919 C   0  0  0  0  0  0  0  0  0  0  0  0
    2.2224   -0.9251   -1.2635 O   0  0  0  0  0  0  0  0  0  0  0  0
    0.4951    1.1260   -1.6507 C   0  0  0  0  0  0  0  0  0  0  0  0
    0.2062    2.5549   -1.3670 C   0  0  0  0  0  0  0  0  0  0  0  0
    1.4593    2.6811   -0.5855 C   0  0  0  0  0  0  0  0  0  0  0  0
   -0.6439   -0.0226   -0.0160 H   0  0  0  0  0  0  0  0  0  0  0  0
   -0.2939    0.7953   -2.3423 H   0  0  0  0  0  0  0  0  0  0  0  0
    1.4287    1.0778   -2.2492 H   0  0  0  0  0  0  0  0  0  0  0  0
    0.3165    3.1378   -2.2872 H   0  0  0  0  0  0  0  0  0  0  0  0
   -0.7780    2.8402   -0.9980 H   0  0  0  0  0  0  0  0  0  0  0  0
    2.4085    2.3330   -1.0152 H   0  0  0  0  0  0  0  0  0  0  0  0
    1.6135    3.6866   -0.1797 H   0  0  0  0  0  0  0  0  0  0  0  0
    0.2281   -1.9044   -1.5356 N   0  0  0  0  0  0  0  0  0  0  0  0
    0.6719   -3.1375   -2.2231 C   0  0  2  0  0  0  0  0  0  0  0  0
    1.5268   -4.1014   -1.3665 C   0  0  0  0  0  0  0  0  0  0  0  0
    1.2420   -5.2914   -1.3442 O   0  0  0  0  0  0  0  0  0  0  0  0
    1.3745   -2.8189   -3.5511 C   0  0  0  0  0  0  0  0  0  0  0  0
   -0.7525   -1.8607   -1.2728 H   0  0  0  0  0  0  0  0  0  0  0  0
   -0.2365   -3.6935   -2.4776 H   0  0  0  0  0  0  0  0  0  0  0  0
    2.3542   -2.3619   -3.3839 H   0  0  0  0  0  0  0  0  0  0  0  0
    1.5238   -3.7398   -4.1240 H   0  0  0  0  0  0  0  0  0  0  0  0
    0.7669   -2.1342   -4.1500 H   0  0  0  0  0  0  0  0  0  0  0  0
    2.6059   -3.6524   -0.6327 N   0  0  0  0  0  0  0  0  0  0  0  0
    3.4644   -4.5122    0.1698 C   0  0  0  0  0  0  0  0  0  0  0  0
    2.8188   -2.6541   -0.7059 H   0  0  0  0  0  0  0  0  0  0  0  0
    2.8780   -5.0336    0.9334 H   0  0  0  0  0  0  0  0  0  0  0  0
    3.9614   -5.2552   -0.4625 H   0  0  0  0  0  0  0  0  0  0  0  0
    4.2318   -3.9155    0.6723 H   0  0  0  0  0  0  0  0  0  0  0  0
  1  2  2  0  0  0  0
  1  3  1  0  0  0  0
  1  7  1  0  0  0  0
  3  4  1  0  0  0  0
  3  5  1  0  0  0  0
  3  6  1  0  0  0  0
  7  8  1  0  0  0  0
  7 12  1  0  0  0  0
  8  9  1  0  0  0  0
  8 11  1  0  0  0  0
  8 13  1  0  0  0  0
  9 10  2  0  0  0  0
  9 17  1  0  0  0  0
 11 14  1  0  0  0  0
 11 15  1  0  0  0  0
 11 16  1  0  0  0  0
 17 18  1  0  0  0  0
 17 23  1  0  0  0  0
 18 19  1  0  0  0  0
 18 21  1  0  0  0  0
 18 24  1  0  0  0  0
 19 20  2  0  0  0  0
 19 31  1  0  0  0  0
 21 22  1  0  0  0  0
 21 25  1  0  0  0  0
 21 26  1  0  0  0  0
 22 23  1  0  0  0  0
 22 27  1  0  0  0  0
 22 28  1  0  0  0  0
 23 29  1  0  0  0  0
 23 30  1  0  0  0  0
 31 32  1  0  0  0  0
 31 36  1  0  0  0  0
 32 33  1  0  0  0  0
 32 35  1  0  0  0  0
 32 37  1  0  0  0  0
 33 34  2  0  0  0  0
 33 41  1  0  0  0  0
 35 38  1  0  0  0  0
 35 39  1  0  0  0  0
 35 40  1  0  0  0  0
 41 42  1  0  0  0  0
 41 43  1  0  0  0  0
 42 44  1  0  0  0  0
 42 45  1  0  0  0  0
 42 46  1  0  0  0  0
M  END
$$$$

  -OEChem-05262217223D

 46 46  0     1  0  0  0  0  0999 V2000
   -2.1324    0.3510    2.2795 C   0  0  0  0  0  0  0  0  0  0  0  0
   -2.5838   -0.2086    1.2914 O   0  0  0  0  0  0  0  0  0  0  0  0
   -1.9968   -0.4088    3.5854 C   0  0  0  0  0  0  0  0  0  0  0  0
   -2.5382    0.1114    4.3796 H   0  0  0  0  0  0  0  0  0  0  0  0
   -2.4095   -1.4163    3.4808 H   0  0  0  0  0  0  0  0  0  0  0  0
   -0.9429   -0.4877    3.8630 H   0  0  0  0  0  0  0  0  0  0  0  0
   -1.7065    1.6622    2.2026 N   0  0  0  0  0  0  0  0  0  0  0  0
   -1.7590    2.5057    0.9961 C   0  0  2  0  0  0  0  0  0  0  0  0
   -0.3452    3.0174    0.5808 C   0  0  0  0  0  0  0  0  0  0  0  0
   -0.0718    4.1889    0.8311 O   0  0  0  0  0  0  0  0  0  0  0  0
   -2.7473    3.6417    1.2982 C   0  0  0  0  0  0  0  0  0  0  0  0
   -1.3128    2.0686    3.0482 H   0  0  0  0  0  0  0  0  0  0  0  0
   -2.1743    1.9533    0.1488 H   0  0  0  0  0  0  0  0  0  0  0  0
   -2.4073    4.2378    2.1513 H   0  0  0  0  0  0  0  0  0  0  0  0
   -2.8434    4.3018    0.4303 H   0  0  0  0  0  0  0  0  0  0  0  0
   -3.7353    3.2326    1.5310 H   0  0  0  0  0  0  0  0  0  0  0  0
    0.6303    2.2159   -0.0864 N   0  0  0  0  0  0  0  0  0  0  0  0
    0.2978    0.7325   -0.4434 C   0  0  2  0  0  0  0  0  0  0  0  0
    0.9741   -0.5147   -1.0906 C   0  0  0  0  0  0  0  0  0  0  0  0
    2.1920   -0.6601   -1.0290 O   0  0  0  0  0  0  0  0  0  0  0  0
    0.3861    1.2437   -1.9495 C   0  0  0  0  0  0  0  0  0  0  0  0
    0.0415    2.6838   -1.9523 C   0  0  0  0  0  0  0  0  0  0  0  0
    1.2972    3.0282   -1.2409 C   0  0  0  0  0  0  0  0  0  0  0  0
   -0.6852    0.4348   -0.0958 H   0  0  0  0  0  0  0  0  0  0  0  0
   -0.3956    0.7539   -2.5481 H   0  0  0  0  0  0  0  0  0  0  0  0
    1.3233    1.1010   -2.5279 H   0  0  0  0  0  0  0  0  0  0  0  0
    0.1099    3.0760   -2.9722 H   0  0  0  0  0  0  0  0  0  0  0  0
   -0.9672    2.9657   -1.6294 H   0  0  0  0  0  0  0  0  0  0  0  0
    2.2551    2.6345   -1.6061 H   0  0  0  0  0  0  0  0  0  0  0  0
    1.4112    4.1034   -1.0662 H   0  0  0  0  0  0  0  0  0  0  0  0
    0.1864   -1.5862   -1.4975 N   0  0  0  0  0  0  0  0  0  0  0  0
    0.6453   -2.8902   -2.0224 C   0  0  2  0  0  0  0  0  0  0  0  0
    1.3229   -3.8145   -0.9830 C   0  0  0  0  0  0  0  0  0  0  0  0
    0.9857   -4.9891   -0.9142 O   0  0  0  0  0  0  0  0  0  0  0  0
    1.5391   -2.7092   -3.2573 C   0  0  0  0  0  0  0  0  0  0  0  0
   -0.8138   -1.4826   -1.3375 H   0  0  0  0  0  0  0  0  0  0  0  0
   -0.2498   -3.4238   -2.3581 H   0  0  0  0  0  0  0  0  0  0  0  0
    2.5089   -2.2809   -2.9875 H   0  0  0  0  0  0  0  0  0  0  0  0
    1.7179   -3.6779   -3.7340 H   0  0  0  0  0  0  0  0  0  0  0  0
    1.0554   -2.0503   -3.9843 H   0  0  0  0  0  0  0  0  0  0  0  0
    2.3083   -3.3465   -0.1372 N   0  0  0  0  0  0  0  0  0  0  0  0
    3.0209   -4.1753    0.8242 C   0  0  0  0  0  0  0  0  0  0  0  0
    2.5890   -2.3711   -0.2681 H   0  0  0  0  0  0  0  0  0  0  0  0
    2.3202   -4.6269    1.5342 H   0  0  0  0  0  0  0  0  0  0  0  0
    3.5670   -4.9735    0.3109 H   0  0  0  0  0  0  0  0  0  0  0  0
    3.7383   -3.5685    1.3849 H   0  0  0  0  0  0  0  0  0  0  0  0
  1  2  2  0  0  0  0
  1  3  1  0  0  0  0
  1  7  1  0  0  0  0
  3  4  1  0  0  0  0
  3  5  1  0  0  0  0
  3  6  1  0  0  0  0
  7  8  1  0  0  0  0
  7 12  1  0  0  0  0
  8  9  1  0  0  0  0
  8 11  1  0  0  0  0
  8 13  1  0  0  0  0
  9 10  2  0  0  0  0
  9 17  1  0  0  0  0
 11 14  1  0  0  0  0
 11 15  1  0  0  0  0
 11 16  1  0  0  0  0
 17 18  1  0  0  0  0
 17 23  1  0  0  0  0
 18 19  1  0  0  0  0
 18 21  1  0  0  0  0
 18 24  1  0  0  0  0
 19 20  2  0  0  0  0
 19 31  1  0  0  0  0
 21 22  1  0  0  0  0
 21 25  1  0  0  0  0
 21 26  1  0  0  0  0
 22 23  1  0  0  0  0
 22 27  1  0  0  0  0
 22 28  1  0  0  0  0
 23 29  1  0  0  0  0
 23 30  1  0  0  0  0
 31 32  1  0  0  0  0
 31 36  1  0  0  0  0
 32 33  1  0  0  0  0
 32 35  1  0  0  0  0
 32 37  1  0  0  0  0
 33 34  2  0  0  0  0
 33 41  1  0  0  0  0
 35 38  1  0  0  0  0
 35 39  1  0  0  0  0
 35 40  1  0  0  0  0
 41 42  1  0  0  0  0
 41 43  1  0  0  0  0
 42 44  1  0  0  0  0
 42 45  1  0  0  0  0
 42 46  1  0  0  0  0
M  END
$$$$

  -OEChem-05262217223D

 46 46  0     1  0  0  0  0  0999 V2000
   -1.0338    1.1842    2.9870 C   0  0  0  0  0  0  0  0  0  0  0  0
   -1.2627    0.0872    2.5027 O   0  0  0  0  0  0  0  0  0  0  0  0
   -0.3273    1.2892    4.3248 C   0  0  0  0  0  0  0  0  0  0  0  0
   -0.9480    1.8453    5.0315 H   0  0  0  0  0  0  0  0  0  0  0  0
   -0.1393    0.2912    4.7315 H   0  0  0  0  0  0  0  0  0  0  0  0
    0.6277    1.8064    4.2033 H   0  0  0  0  0  0  0  0  0  0  0  0
   -1.3960    2.3325    2.3122 N   0  0  0  0  0  0  0  0  0  0  0  0
   -2.0608    2.3724    0.9991 C   0  0  2  0  0  0  0  0  0  0  0  0
   -1.2229    3.1667   -0.0479 C   0  0  0  0  0  0  0  0  0  0  0  0
   -1.5977    4.3054   -0.3192 O   0  0  0  0  0  0  0  0  0  0  0  0
   -3.4565    2.9682    1.2336 C   0  0  0  0  0  0  0  0  0  0  0  0
   -1.1563    3.2192    2.7493 H   0  0  0  0  0  0  0  0  0  0  0  0
   -2.2189    1.3647    0.6047 H   0  0  0  0  0  0  0  0  0  0  0  0
   -3.3841    3.9797    1.6459 H   0  0  0  0  0  0  0  0  0  0  0  0
   -4.0119    3.0166    0.2916 H   0  0  0  0  0  0  0  0  0  0  0  0
   -4.0203    2.3457    1.9351 H   0  0  0  0  0  0  0  0  0  0  0  0
   -0.0675    2.6531   -0.7097 N   0  0  0  0  0  0  0  0  0  0  0  0
    0.4180    1.2023   -0.3930 C   0  0  2  0  0  0  0  0  0  0  0  0
    1.5546    0.1900   -0.7519 C   0  0  0  0  0  0  0  0  0  0  0  0
    2.6968    0.5947   -0.9439 O   0  0  0  0  0  0  0  0  0  0  0  0
    0.0608    0.9680   -1.9302 C   0  0  0  0  0  0  0  0  0  0  0  0
   -0.9997    1.9296   -2.3224 C   0  0  0  0  0  0  0  0  0  0  0  0
   -0.0561    3.0639   -2.2106 C   0  0  0  0  0  0  0  0  0  0  0  0
   -0.2208    0.7093    0.3333 H   0  0  0  0  0  0  0  0  0  0  0  0
   -0.4121   -0.0161   -2.0599 H   0  0  0  0  0  0  0  0  0  0  0  0
    0.8804    0.9984   -2.6786 H   0  0  0  0  0  0  0  0  0  0  0  0
   -1.2533    1.7934   -3.3787 H   0  0  0  0  0  0  0  0  0  0  0  0
   -1.9631    1.8633   -1.8021 H   0  0  0  0  0  0  0  0  0  0  0  0
    0.9203    3.0135   -2.7110 H   0  0  0  0  0  0  0  0  0  0  0  0
   -0.5154    4.0294   -2.4480 H   0  0  0  0  0  0  0  0  0  0  0  0
    1.3482   -1.1828   -0.7402 N   0  0  0  0  0  0  0  0  0  0  0  0
    2.3331   -2.1834   -1.1680 C   0  0  2  0  0  0  0  0  0  0  0  0
    1.6510   -3.3786   -1.8685 C   0  0  0  0  0  0  0  0  0  0  0  0
    0.4276   -3.4666   -1.8872 O   0  0  0  0  0  0  0  0  0  0  0  0
    3.1146   -2.6402    0.0673 C   0  0  0  0  0  0  0  0  0  0  0  0
    0.3893   -1.5116   -0.6236 H   0  0  0  0  0  0  0  0  0  0  0  0
    3.0275   -1.7394   -1.8890 H   0  0  0  0  0  0  0  0  0  0  0  0
    2.4389   -3.0859    0.8045 H   0  0  0  0  0  0  0  0  0  0  0  0
    3.8722   -3.3809   -0.2055 H   0  0  0  0  0  0  0  0  0  0  0  0
    3.6200   -1.7859    0.5294 H   0  0  0  0  0  0  0  0  0  0  0  0
    2.4067   -4.3441   -2.5077 N   0  0  0  0  0  0  0  0  0  0  0  0
    1.8233   -5.4852   -3.2029 C   0  0  0  0  0  0  0  0  0  0  0  0
    3.4170   -4.2396   -2.4919 H   0  0  0  0  0  0  0  0  0  0  0  0
    1.2446   -6.1021   -2.5072 H   0  0  0  0  0  0  0  0  0  0  0  0
    1.1620   -5.1467   -4.0075 H   0  0  0  0  0  0  0  0  0  0  0  0
    2.6111   -6.1050   -3.6417 H   0  0  0  0  0  0  0  0  0  0  0  0
  1  2  2  0  0  0  0
  1  3  1  0  0  0  0
  1  7  1  0  0  0  0
  3  4  1  0  0  0  0
  3  5  1  0  0  0  0
  3  6  1  0  0  0  0
  7  8  1  0  0  0  0
  7 12  1  0  0  0  0
  8  9  1  0  0  0  0
  8 11  1  0  0  0  0
  8 13  1  0  0  0  0
  9 10  2  0  0  0  0
  9 17  1  0  0  0  0
 11 14  1  0  0  0  0
 11 15  1  0  0  0  0
 11 16  1  0  0  0  0
 17 18  1  0  0  0  0
 17 23  1  0  0  0  0
 18 19  1  0  0  0  0
 18 21  1  0  0  0  0
 18 24  1  0  0  0  0
 19 20  2  0  0  0  0
 19 31  1  0  0  0  0
 21 22  1  0  0  0  0
 21 25  1  0  0  0  0
 21 26  1  0  0  0  0
 22 23  1  0  0  0  0
 22 27  1  0  0  0  0
 22 28  1  0  0  0  0
 23 29  1  0  0  0  0
 23 30  1  0  0  0  0
 31 32  1  0  0  0  0
 31 36  1  0  0  0  0
 32 33  1  0  0  0  0
 32 35  1  0  0  0  0
 32 37  1  0  0  0  0
 33 34  2  0  0  0  0
 33 41  1  0  0  0  0
 35 38  1  0  0  0  0
 35 39  1  0  0  0  0
 35 40  1  0  0  0  0
 41 42  1  0  0  0  0
 41 43  1  0  0  0  0
 42 44  1  0  0  0  0
 42 45  1  0  0  0  0
 42 46  1  0  0  0  0
M  END
$$$$

  -OEChem-05262217223D

 46 46  0     1  0  0  0  0  0999 V2000
   -0.9508    1.1366    2.9448 C   0  0  0  0  0  0  0  0  0  0  0  0
   -1.2222    0.0446    2.4713 O   0  0  0  0  0  0  0  0  0  0  0  0
   -0.1791    1.2286    4.2472 C   0  0  0  0  0  0  0  0  0  0  0  0
   -0.7415    1.8187    4.9748 H   0  0  0  0  0  0  0  0  0  0  0  0
   -0.0130    0.2290    4.6587 H   0  0  0  0  0  0  0  0  0  0  0  0
    0.7898    1.7034    4.0737 H   0  0  0  0  0  0  0  0  0  0  0  0
   -1.3166    2.2915    2.2835 N   0  0  0  0  0  0  0  0  0  0  0  0
   -2.0489    2.3443    1.0065 C   0  0  2  0  0  0  0  0  0  0  0  0
   -1.2708    3.1536   -0.0747 C   0  0  0  0  0  0  0  0  0  0  0  0
   -1.7227    4.2547   -0.3812 O   0  0  0  0  0  0  0  0  0  0  0  0
   -3.4344    2.9260    1.3250 C   0  0  0  0  0  0  0  0  0  0  0  0
   -1.0389    3.1729    2.7082 H   0  0  0  0  0  0  0  0  0  0  0  0
   -2.2193    1.3415    0.6042 H   0  0  0  0  0  0  0  0  0  0  0  0
   -3.3463    3.9319    1.7478 H   0  0  0  0  0  0  0  0  0  0  0  0
   -4.0411    2.9843    0.4156 H   0  0  0  0  0  0  0  0  0  0  0  0
   -3.9558    2.2892    2.0462 H   0  0  0  0  0  0  0  0  0  0  0  0
   -0.0951    2.6902   -0.7373 N   0  0  0  0  0  0  0  0  0  0  0  0
    0.4677    1.2808   -0.3766 C   0  0  2  0  0  0  0  0  0  0  0  0
    1.6191    0.2532   -0.6587 C   0  0  0  0  0  0  0  0  0  0  0  0
    2.7755    0.6587   -0.6463 O   0  0  0  0  0  0  0  0  0  0  0  0
    0.2048    1.0721   -1.9376 C   0  0  0  0  0  0  0  0  0  0  0  0
   -0.8913    1.9737   -2.3963 C   0  0  0  0  0  0  0  0  0  0  0  0
   -0.0241    3.1499   -2.2143 C   0  0  0  0  0  0  0  0  0  0  0  0
   -0.2043    0.7603    0.2977 H   0  0  0  0  0  0  0  0  0  0  0  0
   -0.2248    0.0793   -2.1302 H   0  0  0  0  0  0  0  0  0  0  0  0
    1.0813    1.1527   -2.6126 H   0  0  0  0  0  0  0  0  0  0  0  0
   -1.0766    1.8318   -3.4660 H   0  0  0  0  0  0  0  0  0  0  0  0
   -1.8759    1.8621   -1.9223 H   0  0  0  0  0  0  0  0  0  0  0  0
    0.9764    3.1655   -2.6668 H   0  0  0  0  0  0  0  0  0  0  0  0
   -0.5254    4.0944   -2.4519 H   0  0  0  0  0  0  0  0  0  0  0  0
    1.4256   -1.1096   -0.8613 N   0  0  0  0  0  0  0  0  0  0  0  0
    2.4703   -2.0582   -1.2678 C   0  0  2  0  0  0  0  0  0  0  0  0
    1.9231   -3.1122   -2.2548 C   0  0  0  0  0  0  0  0  0  0  0  0
    0.7184   -3.1851   -2.4741 O   0  0  0  0  0  0  0  0  0  0  0  0
    3.0211   -2.7254   -0.0043 C   0  0  0  0  0  0  0  0  0  0  0  0
    0.4632   -1.4394   -0.9321 H   0  0  0  0  0  0  0  0  0  0  0  0
    3.2814   -1.5280   -1.7783 H   0  0  0  0  0  0  0  0  0  0  0  0
    2.2303   -3.2810    0.5104 H   0  0  0  0  0  0  0  0  0  0  0  0
    3.8291   -3.4191   -0.2549 H   0  0  0  0  0  0  0  0  0  0  0  0
    3.4172   -1.9686    0.6804 H   0  0  0  0  0  0  0  0  0  0  0  0
    2.7834   -3.9716   -2.9132 N   0  0  0  0  0  0  0  0  0  0  0  0
    2.3335   -4.9841   -3.8608 C   0  0  0  0  0  0  0  0  0  0  0  0
    3.7779   -3.8749   -2.7299 H   0  0  0  0  0  0  0  0  0  0  0  0
    1.6334   -5.6754   -3.3798 H   0  0  0  0  0  0  0  0  0  0  0  0
    1.8346   -4.5140   -4.7146 H   0  0  0  0  0  0  0  0  0  0  0  0
    3.1860   -5.5604   -4.2324 H   0  0  0  0  0  0  0  0  0  0  0  0
  1  2  2  0  0  0  0
  1  3  1  0  0  0  0
  1  7  1  0  0  0  0
  3  4  1  0  0  0  0
  3  5  1  0  0  0  0
  3  6  1  0  0  0  0
  7  8  1  0  0  0  0
  7 12  1  0  0  0  0
  8  9  1  0  0  0  0
  8 11  1  0  0  0  0
  8 13  1  0  0  0  0
  9 10  2  0  0  0  0
  9 17  1  0  0  0  0
 11 14  1  0  0  0  0
 11 15  1  0  0  0  0
 11 16  1  0  0  0  0
 17 18  1  0  0  0  0
 17 23  1  0  0  0  0
 18 19  1  0  0  0  0
 18 21  1  0  0  0  0
 18 24  1  0  0  0  0
 19 20  2  0  0  0  0
 19 31  1  0  0  0  0
 21 22  1  0  0  0  0
 21 25  1  0  0  0  0
 21 26  1  0  0  0  0
 22 23  1  0  0  0  0
 22 27  1  0  0  0  0
 22 28  1  0  0  0  0
 23 29  1  0  0  0  0
 23 30  1  0  0  0  0
 31 32  1  0  0  0  0
 31 36  1  0  0  0  0
 32 33  1  0  0  0  0
 32 35  1  0  0  0  0
 32 37  1  0  0  0  0
 33 34  2  0  0  0  0
 33 41  1  0  0  0  0
 35 38  1  0  0  0  0
 35 39  1  0  0  0  0
 35 40  1  0  0  0  0
 41 42  1  0  0  0  0
 41 43  1  0  0  0  0
 42 44  1  0  0  0  0
 42 45  1  0  0  0  0
 42 46  1  0  0  0  0
M  END
$$$$

  -OEChem-05262217223D

 46 46  0     1  0  0  0  0  0999 V2000
   -1.7002   -0.4081    1.6816 C   0  0  0  0  0  0  0  0  0  0  0  0
   -1.9819   -0.9057    0.6025 O   0  0  0  0  0  0  0  0  0  0  0  0
   -1.2587   -1.2908    2.8336 C   0  0  0  0  0  0  0  0  0  0  0  0
   -1.9178   -1.1425    3.6927 H   0  0  0  0  0  0  0  0  0  0  0  0
   -1.2969   -2.3437    2.5388 H   0  0  0  0  0  0  0  0  0  0  0  0
   -0.2337   -1.0437    3.1221 H   0  0  0  0  0  0  0  0  0  0  0  0
   -1.7368    0.9631    1.8435 N   0  0  0  0  0  0  0  0  0  0  0  0
   -2.1197    1.9348    0.8023 C   0  0  2  0  0  0  0  0  0  0  0  0
   -0.9861    2.9668    0.5086 C   0  0  0  0  0  0  0  0  0  0  0  0
   -1.2083    4.1366    0.8105 O   0  0  0  0  0  0  0  0  0  0  0  0
   -3.4276    2.5834    1.2807 C   0  0  0  0  0  0  0  0  0  0  0  0
   -1.4747    1.3241    2.7575 H   0  0  0  0  0  0  0  0  0  0  0  0
   -2.3520    1.4327   -0.1414 H   0  0  0  0  0  0  0  0  0  0  0  0
   -3.2787    3.1016    2.2335 H   0  0  0  0  0  0  0  0  0  0  0  0
   -3.7845    3.3095    0.5434 H   0  0  0  0  0  0  0  0  0  0  0  0
   -4.2017    1.8216    1.4149 H   0  0  0  0  0  0  0  0  0  0  0  0
    0.2579    2.6502   -0.1114 N   0  0  0  0  0  0  0  0  0  0  0  0
    0.5191    1.1777   -0.5350 C   0  0  2  0  0  0  0  0  0  0  0  0
    1.4822    0.1061   -1.1657 C   0  0  0  0  0  0  0  0  0  0  0  0
    2.5383   -0.0783   -0.5745 O   0  0  0  0  0  0  0  0  0  0  0  0
    0.8250    1.9648   -1.8894 C   0  0  0  0  0  0  0  0  0  0  0  0
    0.0586    3.2526   -1.9495 C   0  0  0  0  0  0  0  0  0  0  0  0
    0.8982    3.8132   -0.8908 C   0  0  0  0  0  0  0  0  0  0  0  0
   -0.4212    0.6410   -0.5051 H   0  0  0  0  0  0  0  0  0  0  0  0
    0.3977    1.4561   -2.7623 H   0  0  0  0  0  0  0  0  0  0  0  0
    1.8989    2.1115   -2.1188 H   0  0  0  0  0  0  0  0  0  0  0  0
    0.2588    3.7782   -2.8885 H   0  0  0  0  0  0  0  0  0  0  0  0
   -1.0378    3.2006   -1.8679 H   0  0  0  0  0  0  0  0  0  0  0  0
    1.9917    3.7887   -0.9919 H   0  0  0  0  0  0  0  0  0  0  0  0
    0.5985    4.8235   -0.5933 H   0  0  0  0  0  0  0  0  0  0  0  0
    1.2276   -0.6750   -2.2966 N   0  0  0  0  0  0  0  0  0  0  0  0
    2.1163   -1.6789   -2.9219 C   0  0  2  0  0  0  0  0  0  0  0  0
    2.3556   -2.9602   -2.0886 C   0  0  0  0  0  0  0  0  0  0  0  0
    2.2491   -4.0537   -2.6282 O   0  0  0  0  0  0  0  0  0  0  0  0
    3.4490   -1.0511   -3.3538 C   0  0  0  0  0  0  0  0  0  0  0  0
    0.2867   -0.6003   -2.6753 H   0  0  0  0  0  0  0  0  0  0  0  0
    1.6151   -2.0098   -3.8375 H   0  0  0  0  0  0  0  0  0  0  0  0
    4.0675   -0.7941   -2.4891 H   0  0  0  0  0  0  0  0  0  0  0  0
    4.0106   -1.7572   -3.9735 H   0  0  0  0  0  0  0  0  0  0  0  0
    3.2704   -0.1438   -3.9380 H   0  0  0  0  0  0  0  0  0  0  0  0
    2.7078   -2.8989   -0.7553 N   0  0  0  0  0  0  0  0  0  0  0  0
    3.0028   -4.0652    0.0648 C   0  0  0  0  0  0  0  0  0  0  0  0
    2.8358   -1.9612   -0.3664 H   0  0  0  0  0  0  0  0  0  0  0  0
    2.1434   -4.7430    0.0889 H   0  0  0  0  0  0  0  0  0  0  0  0
    3.8673   -4.6049   -0.3352 H   0  0  0  0  0  0  0  0  0  0  0  0
    3.2295   -3.7582    1.0900 H   0  0  0  0  0  0  0  0  0  0  0  0
  1  2  2  0  0  0  0
  1  3  1  0  0  0  0
  1  7  1  0  0  0  0
  3  4  1  0  0  0  0
  3  5  1  0  0  0  0
  3  6  1  0  0  0  0
  7  8  1  0  0  0  0
  7 12  1  0  0  0  0
  8  9  1  0  0  0  0
  8 11  1  0  0  0  0
  8 13  1  0  0  0  0
  9 10  2  0  0  0  0
  9 17  1  0  0  0  0
 11 14  1  0  0  0  0
 11 15  1  0  0  0  0
 11 16  1  0  0  0  0
 17 18  1  0  0  0  0
 17 23  1  0  0  0  0
 18 19  1  0  0  0  0
 18 21  1  0  0  0  0
 18 24  1  0  0  0  0
 19 20  2  0  0  0  0
 19 31  1  0  0  0  0
 21 22  1  0  0  0  0
 21 25  1  0  0  0  0
 21 26  1  0  0  0  0
 22 23  1  0  0  0  0
 22 27  1  0  0  0  0
 22 28  1  0  0  0  0
 23 29  1  0  0  0  0
 23 30  1  0  0  0  0
 31 32  1  0  0  0  0
 31 36  1  0  0  0  0
 32 33  1  0  0  0  0
 32 35  1  0  0  0  0
 32 37  1  0  0  0  0
 33 34  2  0  0  0  0
 33 41  1  0  0  0  0
 35 38  1  0  0  0  0
 35 39  1  0  0  0  0
 35 40  1  0  0  0  0
 41 42  1  0  0  0  0
 41 43  1  0  0  0  0
 42 44  1  0  0  0  0
 42 45  1  0  0  0  0
 42 46  1  0  0  0  0
M  END
$$$$

  -OEChem-05262217223D

 46 46  0     1  0  0  0  0  0999 V2000
   -1.4636   -0.4717    1.6053 C   0  0  0  0  0  0  0  0  0  0  0  0
   -1.7544   -0.9704    0.5295 O   0  0  0  0  0  0  0  0  0  0  0  0
   -0.8802   -1.3347    2.7079 C   0  0  0  0  0  0  0  0  0  0  0  0
   -1.5115   -1.2826    3.5982 H   0  0  0  0  0  0  0  0  0  0  0  0
   -0.8197   -2.3764    2.3797 H   0  0  0  0  0  0  0  0  0  0  0  0
    0.1250   -0.9882    2.9606 H   0  0  0  0  0  0  0  0  0  0  0  0
   -1.6128    0.8875    1.8010 N   0  0  0  0  0  0  0  0  0  0  0  0
   -2.1078    1.8443    0.7934 C   0  0  2  0  0  0  0  0  0  0  0  0
   -1.0766    2.9792    0.5012 C   0  0  0  0  0  0  0  0  0  0  0  0
   -1.4097    4.1225    0.8031 O   0  0  0  0  0  0  0  0  0  0  0  0
   -3.4551    2.3602    1.3220 C   0  0  0  0  0  0  0  0  0  0  0  0
   -1.3296    1.2545    2.7063 H   0  0  0  0  0  0  0  0  0  0  0  0
   -2.3167    1.3458   -0.1579 H   0  0  0  0  0  0  0  0  0  0  0  0
   -3.3242    2.8850    2.2740 H   0  0  0  0  0  0  0  0  0  0  0  0
   -3.9056    3.0522    0.6034 H   0  0  0  0  0  0  0  0  0  0  0  0
   -4.1467    1.5258    1.4757 H   0  0  0  0  0  0  0  0  0  0  0  0
    0.1924    2.7828   -0.1189 N   0  0  0  0  0  0  0  0  0  0  0  0
    0.5876    1.3409   -0.5434 C   0  0  2  0  0  0  0  0  0  0  0  0
    1.6330    0.3365   -1.1737 C   0  0  0  0  0  0  0  0  0  0  0  0
    2.5476    0.0408   -0.4169 O   0  0  0  0  0  0  0  0  0  0  0  0
    0.8324    2.1789   -1.8761 C   0  0  0  0  0  0  0  0  0  0  0  0
   -0.0380    3.4001   -1.9443 C   0  0  0  0  0  0  0  0  0  0  0  0
    0.7398    4.0100   -0.8678 C   0  0  0  0  0  0  0  0  0  0  0  0
   -0.3089    0.7321   -0.5369 H   0  0  0  0  0  0  0  0  0  0  0  0
    0.4389    1.6551   -2.7549 H   0  0  0  0  0  0  0  0  0  0  0  0
    1.8942    2.4058   -2.0941 H   0  0  0  0  0  0  0  0  0  0  0  0
    0.1325    3.9485   -2.8763 H   0  0  0  0  0  0  0  0  0  0  0  0
   -1.1277    3.2588   -1.8752 H   0  0  0  0  0  0  0  0  0  0  0  0
    1.8323    4.0799   -0.9567 H   0  0  0  0  0  0  0  0  0  0  0  0
    0.3520    4.9856   -0.5564 H   0  0  0  0  0  0  0  0  0  0  0  0
    1.6398   -0.2885   -2.4272 N   0  0  0  0  0  0  0  0  0  0  0  0
    2.6516   -1.2200   -2.9743 C   0  0  2  0  0  0  0  0  0  0  0  0
    2.6997   -2.6107   -2.2983 C   0  0  0  0  0  0  0  0  0  0  0  0
    2.7141   -3.6162   -2.9962 O   0  0  0  0  0  0  0  0  0  0  0  0
    4.0470   -0.5800   -3.0064 C   0  0  0  0  0  0  0  0  0  0  0  0
    0.8022   -0.1528   -2.9864 H   0  0  0  0  0  0  0  0  0  0  0  0
    2.3695   -1.4047   -4.0161 H   0  0  0  0  0  0  0  0  0  0  0  0
    4.4642   -0.4822   -2.0000 H   0  0  0  0  0  0  0  0  0  0  0  0
    4.7288   -1.2016   -3.5953 H   0  0  0  0  0  0  0  0  0  0  0  0
    4.0010    0.4130   -3.4634 H   0  0  0  0  0  0  0  0  0  0  0  0
    2.7384   -2.7424   -0.9251 N   0  0  0  0  0  0  0  0  0  0  0  0
    2.8157   -4.0186   -0.2289 C   0  0  0  0  0  0  0  0  0  0  0  0
    2.7709   -1.8708   -0.3905 H   0  0  0  0  0  0  0  0  0  0  0  0
    1.9580   -4.6482   -0.4880 H   0  0  0  0  0  0  0  0  0  0  0  0
    3.7362   -4.5466   -0.4985 H   0  0  0  0  0  0  0  0  0  0  0  0
    2.8123   -3.8586    0.8533 H   0  0  0  0  0  0  0  0  0  0  0  0
  1  2  2  0  0  0  0
  1  3  1  0  0  0  0
  1  7  1  0  0  0  0
  3  4  1  0  0  0  0
  3  5  1  0  0  0  0
  3  6  1  0  0  0  0
  7  8  1  0  0  0  0
  7 12  1  0  0  0  0
  8  9  1  0  0  0  0
  8 11  1  0  0  0  0
  8 13  1  0  0  0  0
  9 10  2  0  0  0  0
  9 17  1  0  0  0  0
 11 14  1  0  0  0  0
 11 15  1  0  0  0  0
 11 16  1  0  0  0  0
 17 18  1  0  0  0  0
 17 23  1  0  0  0  0
 18 19  1  0  0  0  0
 18 21  1  0  0  0  0
 18 24  1  0  0  0  0
 19 20  2  0  0  0  0
 19 31  1  0  0  0  0
 21 22  1  0  0  0  0
 21 25  1  0  0  0  0
 21 26  1  0  0  0  0
 22 23  1  0  0  0  0
 22 27  1  0  0  0  0
 22 28  1  0  0  0  0
 23 29  1  0  0  0  0
 23 30  1  0  0  0  0
 31 32  1  0  0  0  0
 31 36  1  0  0  0  0
 32 33  1  0  0  0  0
 32 35  1  0  0  0  0
 32 37  1  0  0  0  0
 33 34  2  0  0  0  0
 33 41  1  0  0  0  0
 35 38  1  0  0  0  0
 35 39  1  0  0  0  0
 35 40  1  0  0  0  0
 41 42  1  0  0  0  0
 41 43  1  0  0  0  0
 42 44  1  0  0  0  0
 42 45  1  0  0  0  0
 42 46  1  0  0  0  0
M  END
$$$$

  -OEChem-05262217223D

 46 46  0     1  0  0  0  0  0999 V2000
   -1.3211   -0.4778    1.7087 C   0  0  0  0  0  0  0  0  0  0  0  0
   -1.5703   -1.0291    0.6483 O   0  0  0  0  0  0  0  0  0  0  0  0
   -0.7075   -1.2661    2.8498 C   0  0  0  0  0  0  0  0  0  0  0  0
   -1.3214   -1.1656    3.7480 H   0  0  0  0  0  0  0  0  0  0  0  0
   -0.6426   -2.3252    2.5852 H   0  0  0  0  0  0  0  0  0  0  0  0
    0.2984   -0.8937    3.0595 H   0  0  0  0  0  0  0  0  0  0  0  0
   -1.5510    0.8758    1.8560 N   0  0  0  0  0  0  0  0  0  0  0  0
   -2.0788    1.7666    0.8066 C   0  0  2  0  0  0  0  0  0  0  0  0
   -1.1286    2.9733    0.5338 C   0  0  0  0  0  0  0  0  0  0  0  0
   -1.5396    4.0879    0.8477 O   0  0  0  0  0  0  0  0  0  0  0  0
   -3.4851    2.1836    1.2625 C   0  0  0  0  0  0  0  0  0  0  0  0
   -1.2970    1.2900    2.7497 H   0  0  0  0  0  0  0  0  0  0  0  0
   -2.2037    1.2332   -0.1405 H   0  0  0  0  0  0  0  0  0  0  0  0
   -3.4414    2.7189    2.2166 H   0  0  0  0  0  0  0  0  0  0  0  0
   -3.9483    2.8388    0.5179 H   0  0  0  0  0  0  0  0  0  0  0  0
   -4.1194    1.3003    1.3864 H   0  0  0  0  0  0  0  0  0  0  0  0
    0.1624    2.8713   -0.0699 N   0  0  0  0  0  0  0  0  0  0  0  0
    0.6670    1.4585   -0.4949 C   0  0  2  0  0  0  0  0  0  0  0  0
    1.8311    0.5724   -1.1198 C   0  0  0  0  0  0  0  0  0  0  0  0
    2.5738    0.1331   -0.2536 O   0  0  0  0  0  0  0  0  0  0  0  0
    0.7312    2.2671   -1.8592 C   0  0  0  0  0  0  0  0  0  0  0  0
   -0.2476    3.3975   -1.9188 C   0  0  0  0  0  0  0  0  0  0  0  0
    0.5445    4.1126   -0.9087 C   0  0  0  0  0  0  0  0  0  0  0  0
   -0.1464    0.7463   -0.4136 H   0  0  0  0  0  0  0  0  0  0  0  0
    0.3322    1.6412   -2.6678 H   0  0  0  0  0  0  0  0  0  0  0  0
    1.7415    2.5983   -2.1700 H   0  0  0  0  0  0  0  0  0  0  0  0
   -0.1755    3.9241   -2.8761 H   0  0  0  0  0  0  0  0  0  0  0  0
   -1.3145    3.1646   -1.7953 H   0  0  0  0  0  0  0  0  0  0  0  0
    1.6182    4.2788   -1.0703 H   0  0  0  0  0  0  0  0  0  0  0  0
    0.0926    5.0621   -0.6029 H   0  0  0  0  0  0  0  0  0  0  0  0
    2.1452    0.1662   -2.4279 N   0  0  0  0  0  0  0  0  0  0  0  0
    3.2697   -0.6860   -2.8769 C   0  0  2  0  0  0  0  0  0  0  0  0
    3.1689   -2.1704   -2.4545 C   0  0  0  0  0  0  0  0  0  0  0  0
    3.2737   -3.0444   -3.3053 O   0  0  0  0  0  0  0  0  0  0  0  0
    4.6307   -0.0923   -2.4844 C   0  0  0  0  0  0  0  0  0  0  0  0
    1.4717    0.4272   -3.1414 H   0  0  0  0  0  0  0  0  0  0  0  0
    3.2370   -0.6859   -3.9712 H   0  0  0  0  0  0  0  0  0  0  0  0
    4.8074   -0.1739   -1.4082 H   0  0  0  0  0  0  0  0  0  0  0  0
    5.4336   -0.6290   -2.9993 H   0  0  0  0  0  0  0  0  0  0  0  0
    4.6819    0.9629   -2.7682 H   0  0  0  0  0  0  0  0  0  0  0  0
    2.9454   -2.5298   -1.1411 N   0  0  0  0  0  0  0  0  0  0  0  0
    2.7691   -3.9018   -0.6873 C   0  0  0  0  0  0  0  0  0  0  0  0
    2.8447   -1.7593   -0.4757 H   0  0  0  0  0  0  0  0  0  0  0  0
    1.8749   -4.3426   -1.1403 H   0  0  0  0  0  0  0  0  0  0  0  0
    3.6386   -4.5099   -0.9577 H   0  0  0  0  0  0  0  0  0  0  0  0
    2.6555   -3.9264    0.4006 H   0  0  0  0  0  0  0  0  0  0  0  0
  1  2  2  0  0  0  0
  1  3  1  0  0  0  0
  1  7  1  0  0  0  0
  3  4  1  0  0  0  0
  3  5  1  0  0  0  0
  3  6  1  0  0  0  0
  7  8  1  0  0  0  0
  7 12  1  0  0  0  0
  8  9  1  0  0  0  0
  8 11  1  0  0  0  0
  8 13  1  0  0  0  0
  9 10  2  0  0  0  0
  9 17  1  0  0  0  0
 11 14  1  0  0  0  0
 11 15  1  0  0  0  0
 11 16  1  0  0  0  0
 17 18  1  0  0  0  0
 17 23  1  0  0  0  0
 18 19  1  0  0  0  0
 18 21  1  0  0  0  0
 18 24  1  0  0  0  0
 19 20  2  0  0  0  0
 19 31  1  0  0  0  0
 21 22  1  0  0  0  0
 21 25  1  0  0  0  0
 21 26  1  0  0  0  0
 22 23  1  0  0  0  0
 22 27  1  0  0  0  0
 22 28  1  0  0  0  0
 23 29  1  0  0  0  0
 23 30  1  0  0  0  0
 31 32  1  0  0  0  0
 31 36  1  0  0  0  0
 32 33  1  0  0  0  0
 32 35  1  0  0  0  0
 32 37  1  0  0  0  0
 33 34  2  0  0  0  0
 33 41  1  0  0  0  0
 35 38  1  0  0  0  0
 35 39  1  0  0  0  0
 35 40  1  0  0  0  0
 41 42  1  0  0  0  0
 41 43  1  0  0  0  0
 42 44  1  0  0  0  0
 42 45  1  0  0  0  0
 42 46  1  0  0  0  0
M  END
$$$$

  -OEChem-05262217223D

 46 46  0     1  0  0  0  0  0999 V2000
   -1.1566   -0.4850    1.7457 C   0  0  0  0  0  0  0  0  0  0  0  0
   -1.3840   -1.0757    0.7017 O   0  0  0  0  0  0  0  0  0  0  0  0
   -0.4788   -1.2065    2.8947 C   0  0  0  0  0  0  0  0  0  0  0  0
   -1.0977   -1.1452    3.7931 H   0  0  0  0  0  0  0  0  0  0  0  0
   -0.3289   -2.2600    2.6422 H   0  0  0  0  0  0  0  0  0  0  0  0
    0.4944   -0.7520    3.0968 H   0  0  0  0  0  0  0  0  0  0  0  0
   -1.4779    0.8528    1.8667 N   0  0  0  0  0  0  0  0  0  0  0  0
   -2.0946    1.6722    0.8072 C   0  0  2  0  0  0  0  0  0  0  0  0
   -1.2766    2.9662    0.5068 C   0  0  0  0  0  0  0  0  0  0  0  0
   -1.8189    4.0386    0.7630 O   0  0  0  0  0  0  0  0  0  0  0  0
   -3.5360    1.9492    1.2614 C   0  0  0  0  0  0  0  0  0  0  0  0
   -1.2493    1.3037    2.7492 H   0  0  0  0  0  0  0  0  0  0  0  0
   -2.1624    1.1150   -0.1321 H   0  0  0  0  0  0  0  0  0  0  0  0
   -3.5457    2.5099    2.2018 H   0  0  0  0  0  0  0  0  0  0  0  0
   -4.0684    2.5328    0.5038 H   0  0  0  0  0  0  0  0  0  0  0  0
   -4.0740    1.0080    1.4110 H   0  0  0  0  0  0  0  0  0  0  0  0
    0.0345    2.9879   -0.0633 N   0  0  0  0  0  0  0  0  0  0  0  0
    0.7068    1.6244   -0.4200 C   0  0  2  0  0  0  0  0  0  0  0  0
    1.9700    0.8265   -0.9791 C   0  0  0  0  0  0  0  0  0  0  0  0
    2.5574    0.2638   -0.0661 O   0  0  0  0  0  0  0  0  0  0  0  0
    0.7031    2.3679   -1.8190 C   0  0  0  0  0  0  0  0  0  0  0  0
   -0.3995    3.3704   -1.9433 C   0  0  0  0  0  0  0  0  0  0  0  0
    0.2791    4.2257   -0.9583 C   0  0  0  0  0  0  0  0  0  0  0  0
   -0.0275    0.8321   -0.3176 H   0  0  0  0  0  0  0  0  0  0  0  0
    0.4183    1.6518   -2.6028 H   0  0  0  0  0  0  0  0  0  0  0  0
    1.6680    2.8202   -2.1174 H   0  0  0  0  0  0  0  0  0  0  0  0
   -0.3717    3.8569   -2.9235 H   0  0  0  0  0  0  0  0  0  0  0  0
   -1.4327    3.0149   -1.8271 H   0  0  0  0  0  0  0  0  0  0  0  0
    1.3269    4.5167   -1.1123 H   0  0  0  0  0  0  0  0  0  0  0  0
   -0.2914    5.1263   -0.7084 H   0  0  0  0  0  0  0  0  0  0  0  0
    2.5299    0.5985   -2.2497 N   0  0  0  0  0  0  0  0  0  0  0  0
    3.7310   -0.1952   -2.5954 C   0  0  2  0  0  0  0  0  0  0  0  0
    3.5791   -1.7215   -2.3956 C   0  0  0  0  0  0  0  0  0  0  0  0
    3.7923   -2.4733   -3.3377 O   0  0  0  0  0  0  0  0  0  0  0  0
    4.9903    0.3337   -1.8925 C   0  0  0  0  0  0  0  0  0  0  0  0
    2.0152    0.9900   -3.0321 H   0  0  0  0  0  0  0  0  0  0  0  0
    3.8958   -0.0520   -3.6684 H   0  0  0  0  0  0  0  0  0  0  0  0
    4.9732    0.1142   -0.8212 H   0  0  0  0  0  0  0  0  0  0  0  0
    5.8807   -0.1387   -2.3194 H   0  0  0  0  0  0  0  0  0  0  0  0
    5.0756    1.4162   -2.0263 H   0  0  0  0  0  0  0  0  0  0  0  0
    3.1845   -2.2511   -1.1841 N   0  0  0  0  0  0  0  0  0  0  0  0
    2.9200   -3.6646   -0.9580 C   0  0  0  0  0  0  0  0  0  0  0  0
    2.9579   -1.5730   -0.4522 H   0  0  0  0  0  0  0  0  0  0  0  0
    2.0836   -4.0012   -1.5790 H   0  0  0  0  0  0  0  0  0  0  0  0
    3.8038   -4.2637   -1.2000 H   0  0  0  0  0  0  0  0  0  0  0  0
    2.6639   -3.8365    0.0917 H   0  0  0  0  0  0  0  0  0  0  0  0
  1  2  2  0  0  0  0
  1  3  1  0  0  0  0
  1  7  1  0  0  0  0
  3  4  1  0  0  0  0
  3  5  1  0  0  0  0
  3  6  1  0  0  0  0
  7  8  1  0  0  0  0
  7 12  1  0  0  0  0
  8  9  1  0  0  0  0
  8 11  1  0  0  0  0
  8 13  1  0  0  0  0
  9 10  2  0  0  0  0
  9 17  1  0  0  0  0
 11 14  1  0  0  0  0
 11 15  1  0  0  0  0
 11 16  1  0  0  0  0
 17 18  1  0  0  0  0
 17 23  1  0  0  0  0
 18 19  1  0  0  0  0
 18 21  1  0  0  0  0
 18 24  1  0  0  0  0
 19 20  2  0  0  0  0
 19 31  1  0  0  0  0
 21 22  1  0  0  0  0
 21 25  1  0  0  0  0
 21 26  1  0  0  0  0
 22 23  1  0  0  0  0
 22 27  1  0  0  0  0
 22 28  1  0  0  0  0
 23 29  1  0  0  0  0
 23 30  1  0  0  0  0
 31 32  1  0  0  0  0
 31 36  1  0  0  0  0
 32 33  1  0  0  0  0
 32 35  1  0  0  0  0
 32 37  1  0  0  0  0
 33 34  2  0  0  0  0
 33 41  1  0  0  0  0
 35 38  1  0  0  0  0
 35 39  1  0  0  0  0
 35 40  1  0  0  0  0
 41 42  1  0  0  0  0
 41 43  1  0  0  0  0
 42 44  1  0  0  0  0
 42 45  1  0  0  0  0
 42 46  1  0  0  0  0
M  END
$$$$

  -OEChem-05262217223D

 46 46  0     1  0  0  0  0  0999 V2000
   -2.6318    0.8226    3.4926 C   0  0  0  0  0  0  0  0  0  0  0  0
   -2.7183   -0.3073    3.0381 O   0  0  0  0  0  0  0  0  0  0  0  0
   -2.6883    1.0421    4.9925 C   0  0  0  0  0  0  0  0  0  0  0  0
   -3.5336    1.6876    5.2428 H   0  0  0  0  0  0  0  0  0  0  0  0
   -2.8086    0.0862    5.5102 H   0  0  0  0  0  0  0  0  0  0  0  0
   -1.7637    1.5131    5.3351 H   0  0  0  0  0  0  0  0  0  0  0  0
   -2.4650    1.9057    2.6537 N   0  0  0  0  0  0  0  0  0  0  0  0
   -2.1204    1.7913    1.2281 C   0  0  2  0  0  0  0  0  0  0  0  0
   -0.6330    2.2157    1.0005 C   0  0  0  0  0  0  0  0  0  0  0  0
   -0.2918    3.2335    1.6054 O   0  0  0  0  0  0  0  0  0  0  0  0
   -3.1099    2.6987    0.4821 C   0  0  0  0  0  0  0  0  0  0  0  0
   -2.2008    2.7777    3.1088 H   0  0  0  0  0  0  0  0  0  0  0  0
   -2.2608    0.7547    0.9107 H   0  0  0  0  0  0  0  0  0  0  0  0
   -2.9863    3.7397    0.7980 H   0  0  0  0  0  0  0  0  0  0  0  0
   -2.9621    2.6484   -0.5991 H   0  0  0  0  0  0  0  0  0  0  0  0
   -4.1375    2.3898    0.6991 H   0  0  0  0  0  0  0  0  0  0  0  0
    0.4375    1.5460    0.3243 N   0  0  0  0  0  0  0  0  0  0  0  0
    0.7662    0.2205   -0.4823 C   0  0  2  0  0  0  0  0  0  0  0  0
    2.2840    0.1276   -0.8916 C   0  0  0  0  0  0  0  0  0  0  0  0
    2.8212   -0.9201   -0.5593 O   0  0  0  0  0  0  0  0  0  0  0  0
    0.3223    0.5182   -1.9416 C   0  0  0  0  0  0  0  0  0  0  0  0
   -0.6334    1.4517   -1.4567 C   0  0  0  0  0  0  0  0  0  0  0  0
    0.2829    2.5070   -0.9442 C   0  0  0  0  0  0  0  0  0  0  0  0
    0.3614   -0.6955   -0.0382 H   0  0  0  0  0  0  0  0  0  0  0  0
   -0.1478   -0.3644   -2.3889 H   0  0  0  0  0  0  0  0  0  0  0  0
    0.9760    0.9549   -2.7044 H   0  0  0  0  0  0  0  0  0  0  0  0
   -1.1551    1.8823   -2.3183 H   0  0  0  0  0  0  0  0  0  0  0  0
   -1.4293    0.9555   -0.9073 H   0  0  0  0  0  0  0  0  0  0  0  0
    1.2030    2.7040   -1.4993 H   0  0  0  0  0  0  0  0  0  0  0  0
   -0.2222    3.4782   -0.8266 H   0  0  0  0  0  0  0  0  0  0  0  0
    3.0505    0.9914   -1.6772 N   0  0  0  0  0  0  0  0  0  0  0  0
    4.4513    0.8179   -2.1180 C   0  0  2  0  0  0  0  0  0  0  0  0
    4.6662   -0.3331   -3.1287 C   0  0  0  0  0  0  0  0  0  0  0  0
    5.0798   -0.0777   -4.2521 O   0  0  0  0  0  0  0  0  0  0  0  0
    5.4092    0.7003   -0.9235 C   0  0  0  0  0  0  0  0  0  0  0  0
    2.6045    1.8667   -1.9263 H   0  0  0  0  0  0  0  0  0  0  0  0
    4.7279    1.7352   -2.6480 H   0  0  0  0  0  0  0  0  0  0  0  0
    5.2679   -0.2428   -0.3881 H   0  0  0  0  0  0  0  0  0  0  0  0
    6.4465    0.7406   -1.2705 H   0  0  0  0  0  0  0  0  0  0  0  0
    5.2461    1.5254   -0.2236 H   0  0  0  0  0  0  0  0  0  0  0  0
    4.3637   -1.6395   -2.8015 N   0  0  0  0  0  0  0  0  0  0  0  0
    4.4460   -2.7547   -3.7335 C   0  0  0  0  0  0  0  0  0  0  0  0
    3.9138   -1.7768   -1.8924 H   0  0  0  0  0  0  0  0  0  0  0  0
    3.7528   -2.6083   -4.5682 H   0  0  0  0  0  0  0  0  0  0  0  0
    5.4624   -2.8481   -4.1297 H   0  0  0  0  0  0  0  0  0  0  0  0
    4.1869   -3.6888   -3.2259 H   0  0  0  0  0  0  0  0  0  0  0  0
  1  2  2  0  0  0  0
  1  3  1  0  0  0  0
  1  7  1  0  0  0  0
  3  4  1  0  0  0  0
  3  5  1  0  0  0  0
  3  6  1  0  0  0  0
  7  8  1  0  0  0  0
  7 12  1  0  0  0  0
  8  9  1  0  0  0  0
  8 11  1  0  0  0  0
  8 13  1  0  0  0  0
  9 10  2  0  0  0  0
  9 17  1  0  0  0  0
 11 14  1  0  0  0  0
 11 15  1  0  0  0  0
 11 16  1  0  0  0  0
 17 18  1  0  0  0  0
 17 23  1  0  0  0  0
 18 19  1  0  0  0  0
 18 21  1  0  0  0  0
 18 24  1  0  0  0  0
 19 20  2  0  0  0  0
 19 31  1  0  0  0  0
 21 22  1  0  0  0  0
 21 25  1  0  0  0  0
 21 26  1  0  0  0  0
 22 23  1  0  0  0  0
 22 27  1  0  0  0  0
 22 28  1  0  0  0  0
 23 29  1  0  0  0  0
 23 30  1  0  0  0  0
 31 32  1  0  0  0  0
 31 36  1  0  0  0  0
 32 33  1  0  0  0  0
 32 35  1  0  0  0  0
 32 37  1  0  0  0  0
 33 34  2  0  0  0  0
 33 41  1  0  0  0  0
 35 38  1  0  0  0  0
 35 39  1  0  0  0  0
 35 40  1  0  0  0  0
 41 42  1  0  0  0  0
 41 43  1  0  0  0  0
 42 44  1  0  0  0  0
 42 45  1  0  0  0  0
 42 46  1  0  0  0  0
M  END
$$$$

  -OEChem-05262217223D

 46 46  0     1  0  0  0  0  0999 V2000
   -2.6795    0.7788    3.4256 C   0  0  0  0  0  0  0  0  0  0  0  0
   -2.4871   -0.3625    3.0369 O   0  0  0  0  0  0  0  0  0  0  0  0
   -2.9044    1.0481    4.9020 C   0  0  0  0  0  0  0  0  0  0  0  0
   -3.8288    1.6134    5.0430 H   0  0  0  0  0  0  0  0  0  0  0  0
   -2.9831    0.1050    5.4502 H   0  0  0  0  0  0  0  0  0  0  0  0
   -2.0681    1.6233    5.3074 H   0  0  0  0  0  0  0  0  0  0  0  0
   -2.6755    1.8314    2.5325 N   0  0  0  0  0  0  0  0  0  0  0  0
   -2.2204    1.7150    1.1385 C   0  0  2  0  0  0  0  0  0  0  0  0
   -0.7739    2.2885    0.9907 C   0  0  0  0  0  0  0  0  0  0  0  0
   -0.5976    3.3832    1.5281 O   0  0  0  0  0  0  0  0  0  0  0  0
   -3.2413    2.4922    0.2936 C   0  0  0  0  0  0  0  0  0  0  0  0
   -2.6304    2.7601    2.9467 H   0  0  0  0  0  0  0  0  0  0  0  0
   -2.2331    0.6607    0.8483 H   0  0  0  0  0  0  0  0  0  0  0  0
   -3.2641    3.5448    0.5944 H   0  0  0  0  0  0  0  0  0  0  0  0
   -2.9968    2.4461   -0.7703 H   0  0  0  0  0  0  0  0  0  0  0  0
   -4.2414    2.0697    0.4320 H   0  0  0  0  0  0  0  0  0  0  0  0
    0.4126    1.6848    0.4603 N   0  0  0  0  0  0  0  0  0  0  0  0
    0.8824    0.3170   -0.1906 C   0  0  2  0  0  0  0  0  0  0  0  0
    2.4185    0.2397   -0.5143 C   0  0  0  0  0  0  0  0  0  0  0  0
    2.9198   -0.8665   -0.3623 O   0  0  0  0  0  0  0  0  0  0  0  0
    0.5753    0.5030   -1.7064 C   0  0  0  0  0  0  0  0  0  0  0  0
   -0.4692    1.4222   -1.4070 C   0  0  0  0  0  0  0  0  0  0  0  0
    0.3364    2.5553   -0.8803 C   0  0  0  0  0  0  0  0  0  0  0  0
    0.4696   -0.5828    0.2785 H   0  0  0  0  0  0  0  0  0  0  0  0
    0.1950   -0.4302   -2.1370 H   0  0  0  0  0  0  0  0  0  0  0  0
    1.2933    0.9170   -2.4268 H   0  0  0  0  0  0  0  0  0  0  0  0
   -0.9021    1.7641   -2.3536 H   0  0  0  0  0  0  0  0  0  0  0  0
   -1.3035    0.9291   -0.9195 H   0  0  0  0  0  0  0  0  0  0  0  0
    1.2880    2.7724   -1.3698 H   0  0  0  0  0  0  0  0  0  0  0  0
   -0.2299    3.4984   -0.8670 H   0  0  0  0  0  0  0  0  0  0  0  0
    3.2166    1.2155   -1.1122 N   0  0  0  0  0  0  0  0  0  0  0  0
    4.6310    1.1025   -1.5268 C   0  0  2  0  0  0  0  0  0  0  0  0
    4.8708    0.1589   -2.7285 C   0  0  0  0  0  0  0  0  0  0  0  0
    5.3633    0.6057   -3.7562 O   0  0  0  0  0  0  0  0  0  0  0  0
    5.5405    0.7407   -0.3432 C   0  0  0  0  0  0  0  0  0  0  0  0
    2.8092    2.1439   -1.1412 H   0  0  0  0  0  0  0  0  0  0  0  0
    4.9389    2.0980   -1.8628 H   0  0  0  0  0  0  0  0  0  0  0  0
    5.3763   -0.2886   -0.0114 H   0  0  0  0  0  0  0  0  0  0  0  0
    6.5906    0.8386   -0.6358 H   0  0  0  0  0  0  0  0  0  0  0  0
    5.3517    1.4121    0.4996 H   0  0  0  0  0  0  0  0  0  0  0  0
    4.5104   -1.1726   -2.6777 N   0  0  0  0  0  0  0  0  0  0  0  0
    4.6418   -2.0979   -3.7944 C   0  0  0  0  0  0  0  0  0  0  0  0
    4.0221   -1.4720   -1.8294 H   0  0  0  0  0  0  0  0  0  0  0  0
    4.0155   -1.7771   -4.6331 H   0  0  0  0  0  0  0  0  0  0  0  0
    5.6830   -2.1476   -4.1299 H   0  0  0  0  0  0  0  0  0  0  0  0
    4.3288   -3.1017   -3.4911 H   0  0  0  0  0  0  0  0  0  0  0  0
  1  2  2  0  0  0  0
  1  3  1  0  0  0  0
  1  7  1  0  0  0  0
  3  4  1  0  0  0  0
  3  5  1  0  0  0  0
  3  6  1  0  0  0  0
  7  8  1  0  0  0  0
  7 12  1  0  0  0  0
  8  9  1  0  0  0  0
  8 11  1  0  0  0  0
  8 13  1  0  0  0  0
  9 10  2  0  0  0  0
  9 17  1  0  0  0  0
 11 14  1  0  0  0  0
 11 15  1  0  0  0  0
 11 16  1  0  0  0  0
 17 18  1  0  0  0  0
 17 23  1  0  0  0  0
 18 19  1  0  0  0  0
 18 21  1  0  0  0  0
 18 24  1  0  0  0  0
 19 20  2  0  0  0  0
 19 31  1  0  0  0  0
 21 22  1  0  0  0  0
 21 25  1  0  0  0  0
 21 26  1  0  0  0  0
 22 23  1  0  0  0  0
 22 27  1  0  0  0  0
 22 28  1  0  0  0  0
 23 29  1  0  0  0  0
 23 30  1  0  0  0  0
 31 32  1  0  0  0  0
 31 36  1  0  0  0  0
 32 33  1  0  0  0  0
 32 35  1  0  0  0  0
 32 37  1  0  0  0  0
 33 34  2  0  0  0  0
 33 41  1  0  0  0  0
 35 38  1  0  0  0  0
 35 39  1  0  0  0  0
 35 40  1  0  0  0  0
 41 42  1  0  0  0  0
 41 43  1  0  0  0  0
 42 44  1  0  0  0  0
 42 45  1  0  0  0  0
 42 46  1  0  0  0  0
M  END
$$$$

  -OEChem-05262217223D

 46 46  0     1  0  0  0  0  0999 V2000
   -2.3570    0.5938    3.1508 C   0  0  0  0  0  0  0  0  0  0  0  0
   -1.6679   -0.3214    2.7274 O   0  0  0  0  0  0  0  0  0  0  0  0
   -2.6652    0.6936    4.6329 C   0  0  0  0  0  0  0  0  0  0  0  0
   -3.7462    0.7271    4.7886 H   0  0  0  0  0  0  0  0  0  0  0  0
   -2.2601   -0.1741    5.1614 H   0  0  0  0  0  0  0  0  0  0  0  0
   -2.2157    1.5995    5.0471 H   0  0  0  0  0  0  0  0  0  0  0  0
   -2.8283    1.5598    2.2849 N   0  0  0  0  0  0  0  0  0  0  0  0
   -2.3628    1.6677    0.8959 C   0  0  2  0  0  0  0  0  0  0  0  0
   -1.0483    2.5118    0.8332 C   0  0  0  0  0  0  0  0  0  0  0  0
   -1.1490    3.6811    1.2039 O   0  0  0  0  0  0  0  0  0  0  0  0
   -3.5083    2.3040    0.0937 C   0  0  0  0  0  0  0  0  0  0  0  0
   -3.2073    2.3992    2.7158 H   0  0  0  0  0  0  0  0  0  0  0  0
   -2.1810    0.6589    0.5131 H   0  0  0  0  0  0  0  0  0  0  0  0
   -3.7515    3.2958    0.4890 H   0  0  0  0  0  0  0  0  0  0  0  0
   -3.2369    2.4139   -0.9598 H   0  0  0  0  0  0  0  0  0  0  0  0
   -4.4038    1.6774    0.1533 H   0  0  0  0  0  0  0  0  0  0  0  0
    0.2712    2.0529    0.5163 N   0  0  0  0  0  0  0  0  0  0  0  0
    0.8165    0.6221    0.1285 C   0  0  2  0  0  0  0  0  0  0  0  0
    2.3648    0.4324   -0.0769 C   0  0  0  0  0  0  0  0  0  0  0  0
    2.7800   -0.7161    0.0207 O   0  0  0  0  0  0  0  0  0  0  0  0
    0.7536    0.7656   -1.4369 C   0  0  0  0  0  0  0  0  0  0  0  0
   -0.3076    1.7249   -1.4624 C   0  0  0  0  0  0  0  0  0  0  0  0
    0.4470    2.8598   -0.8552 C   0  0  0  0  0  0  0  0  0  0  0  0
    0.2908   -0.2302    0.5733 H   0  0  0  0  0  0  0  0  0  0  0  0
    0.4285   -0.1890   -1.8665 H   0  0  0  0  0  0  0  0  0  0  0  0
    1.5817    1.1050   -2.0784 H   0  0  0  0  0  0  0  0  0  0  0  0
   -0.4854    2.0039   -2.5064 H   0  0  0  0  0  0  0  0  0  0  0  0
   -1.2667    1.3251   -1.1726 H   0  0  0  0  0  0  0  0  0  0  0  0
    1.4742    3.0292   -1.1895 H   0  0  0  0  0  0  0  0  0  0  0  0
   -0.0863    3.8147   -0.9429 H   0  0  0  0  0  0  0  0  0  0  0  0
    3.2701    1.4025   -0.5137 N   0  0  0  0  0  0  0  0  0  0  0  0
    4.7015    1.2310   -0.8391 C   0  0  2  0  0  0  0  0  0  0  0  0
    4.9694    0.3883   -2.1077 C   0  0  0  0  0  0  0  0  0  0  0  0
    5.5855    0.8842   -3.0419 O   0  0  0  0  0  0  0  0  0  0  0  0
    5.4951    0.6972    0.3617 C   0  0  0  0  0  0  0  0  0  0  0  0
    2.9141    2.3535   -0.4982 H   0  0  0  0  0  0  0  0  0  0  0  0
    5.0956    2.2297   -1.0537 H   0  0  0  0  0  0  0  0  0  0  0  0
    5.2349   -0.3416    0.5840 H   0  0  0  0  0  0  0  0  0  0  0  0
    6.5676    0.7394    0.1479 H   0  0  0  0  0  0  0  0  0  0  0  0
    5.2946    1.3042    1.2494 H   0  0  0  0  0  0  0  0  0  0  0  0
    4.4947   -0.9027   -2.2237 N   0  0  0  0  0  0  0  0  0  0  0  0
    4.6554   -1.7291   -3.4117 C   0  0  0  0  0  0  0  0  0  0  0  0
    3.9284   -1.2448   -1.4424 H   0  0  0  0  0  0  0  0  0  0  0  0
    4.1561   -1.2677   -4.2700 H   0  0  0  0  0  0  0  0  0  0  0  0
    5.7168   -1.8583   -3.6480 H   0  0  0  0  0  0  0  0  0  0  0  0
    4.2163   -2.7173   -3.2448 H   0  0  0  0  0  0  0  0  0  0  0  0
  1  2  2  0  0  0  0
  1  3  1  0  0  0  0
  1  7  1  0  0  0  0
  3  4  1  0  0  0  0
  3  5  1  0  0  0  0
  3  6  1  0  0  0  0
  7  8  1  0  0  0  0
  7 12  1  0  0  0  0
  8  9  1  0  0  0  0
  8 11  1  0  0  0  0
  8 13  1  0  0  0  0
  9 10  2  0  0  0  0
  9 17  1  0  0  0  0
 11 14  1  0  0  0  0
 11 15  1  0  0  0  0
 11 16  1  0  0  0  0
 17 18  1  0  0  0  0
 17 23  1  0  0  0  0
 18 19  1  0  0  0  0
 18 21  1  0  0  0  0
 18 24  1  0  0  0  0
 19 20  2  0  0  0  0
 19 31  1  0  0  0  0
 21 22  1  0  0  0  0
 21 25  1  0  0  0  0
 21 26  1  0  0  0  0
 22 23  1  0  0  0  0
 22 27  1  0  0  0  0
 22 28  1  0  0  0  0
 23 29  1  0  0  0  0
 23 30  1  0  0  0  0
 31 32  1  0  0  0  0
 31 36  1  0  0  0  0
 32 33  1  0  0  0  0
 32 35  1  0  0  0  0
 32 37  1  0  0  0  0
 33 34  2  0  0  0  0
 33 41  1  0  0  0  0
 35 38  1  0  0  0  0
 35 39  1  0  0  0  0
 35 40  1  0  0  0  0
 41 42  1  0  0  0  0
 41 43  1  0  0  0  0
 42 44  1  0  0  0  0
 42 45  1  0  0  0  0
 42 46  1  0  0  0  0
M  END
$$$$

  -OEChem-05262217223D

 46 46  0     1  0  0  0  0  0999 V2000
   -2.4423    0.4591    2.9659 C   0  0  0  0  0  0  0  0  0  0  0  0
   -1.6952   -0.4061    2.5380 O   0  0  0  0  0  0  0  0  0  0  0  0
   -2.8533    0.4565    4.4262 C   0  0  0  0  0  0  0  0  0  0  0  0
   -3.9424    0.4205    4.5083 H   0  0  0  0  0  0  0  0  0  0  0  0
   -2.4337   -0.4166    4.9340 H   0  0  0  0  0  0  0  0  0  0  0  0
   -2.4867    1.3602    4.9191 H   0  0  0  0  0  0  0  0  0  0  0  0
   -2.8981    1.4543    2.1262 N   0  0  0  0  0  0  0  0  0  0  0  0
   -2.4055    1.6460    0.7554 C   0  0  2  0  0  0  0  0  0  0  0  0
   -1.1903    2.6265    0.7432 C   0  0  0  0  0  0  0  0  0  0  0  0
   -1.4355    3.8082    0.9793 O   0  0  0  0  0  0  0  0  0  0  0  0
   -3.5960    2.1710   -0.0620 C   0  0  0  0  0  0  0  0  0  0  0  0
   -3.3746    2.2369    2.5672 H   0  0  0  0  0  0  0  0  0  0  0  0
   -2.1025    0.6810    0.3381 H   0  0  0  0  0  0  0  0  0  0  0  0
   -3.9672    3.1120    0.3571 H   0  0  0  0  0  0  0  0  0  0  0  0
   -3.3099    2.3503   -1.1019 H   0  0  0  0  0  0  0  0  0  0  0  0
   -4.4114    1.4410   -0.0512 H   0  0  0  0  0  0  0  0  0  0  0  0
    0.1804    2.2557    0.5677 N   0  0  0  0  0  0  0  0  0  0  0  0
    0.7417    0.8024    0.3393 C   0  0  2  0  0  0  0  0  0  0  0  0
    2.2739    0.4861    0.2405 C   0  0  0  0  0  0  0  0  0  0  0  0
    2.6170   -0.6910    0.2344 O   0  0  0  0  0  0  0  0  0  0  0  0
    0.8590    0.9696   -1.2276 C   0  0  0  0  0  0  0  0  0  0  0  0
   -0.1713    1.9521   -1.4665 C   0  0  0  0  0  0  0  0  0  0  0  0
    0.5468    3.0592   -0.7634 C   0  0  0  0  0  0  0  0  0  0  0  0
    0.1235   -0.0221    0.7064 H   0  0  0  0  0  0  0  0  0  0  0  0
    0.5749    0.0175   -1.6919 H   0  0  0  0  0  0  0  0  0  0  0  0
    1.7748    1.2758   -1.7645 H   0  0  0  0  0  0  0  0  0  0  0  0
   -0.1639    2.2063   -2.5317 H   0  0  0  0  0  0  0  0  0  0  0  0
   -1.1910    1.6161   -1.3250 H   0  0  0  0  0  0  0  0  0  0  0  0
    1.6152    3.1967   -0.9630 H   0  0  0  0  0  0  0  0  0  0  0  0
    0.0562    4.0309   -0.8930 H   0  0  0  0  0  0  0  0  0  0  0  0
    3.2537    1.4620    0.0548 N   0  0  0  0  0  0  0  0  0  0  0  0
    4.7047    1.2636   -0.1406 C   0  0  2  0  0  0  0  0  0  0  0  0
    5.0761    0.5831   -1.4782 C   0  0  0  0  0  0  0  0  0  0  0  0
    5.7977    1.1697   -2.2739 O   0  0  0  0  0  0  0  0  0  0  0  0
    5.3391    0.5310    1.0503 C   0  0  0  0  0  0  0  0  0  0  0  0
    2.9236    2.4193    0.1451 H   0  0  0  0  0  0  0  0  0  0  0  0
    5.1570    2.2604   -0.1731 H   0  0  0  0  0  0  0  0  0  0  0  0
    5.0242   -0.5157    1.0905 H   0  0  0  0  0  0  0  0  0  0  0  0
    6.4301    0.5537    0.9642 H   0  0  0  0  0  0  0  0  0  0  0  0
    5.0562    1.0159    1.9894 H   0  0  0  0  0  0  0  0  0  0  0  0
    4.5747   -0.6591   -1.8113 N   0  0  0  0  0  0  0  0  0  0  0  0
    4.8227   -1.3276   -3.0807 C   0  0  0  0  0  0  0  0  0  0  0  0
    3.9157   -1.0705   -1.1446 H   0  0  0  0  0  0  0  0  0  0  0  0
    4.4047   -0.7456   -3.9085 H   0  0  0  0  0  0  0  0  0  0  0  0
    5.8982   -1.4523   -3.2444 H   0  0  0  0  0  0  0  0  0  0  0  0
    4.3566   -2.3177   -3.0811 H   0  0  0  0  0  0  0  0  0  0  0  0
  1  2  2  0  0  0  0
  1  3  1  0  0  0  0
  1  7  1  0  0  0  0
  3  4  1  0  0  0  0
  3  5  1  0  0  0  0
  3  6  1  0  0  0  0
  7  8  1  0  0  0  0
  7 12  1  0  0  0  0
  8  9  1  0  0  0  0
  8 11  1  0  0  0  0
  8 13  1  0  0  0  0
  9 10  2  0  0  0  0
  9 17  1  0  0  0  0
 11 14  1  0  0  0  0
 11 15  1  0  0  0  0
 11 16  1  0  0  0  0
 17 18  1  0  0  0  0
 17 23  1  0  0  0  0
 18 19  1  0  0  0  0
 18 21  1  0  0  0  0
 18 24  1  0  0  0  0
 19 20  2  0  0  0  0
 19 31  1  0  0  0  0
 21 22  1  0  0  0  0
 21 25  1  0  0  0  0
 21 26  1  0  0  0  0
 22 23  1  0  0  0  0
 22 27  1  0  0  0  0
 22 28  1  0  0  0  0
 23 29  1  0  0  0  0
 23 30  1  0  0  0  0
 31 32  1  0  0  0  0
 31 36  1  0  0  0  0
 32 33  1  0  0  0  0
 32 35  1  0  0  0  0
 32 37  1  0  0  0  0
 33 34  2  0  0  0  0
 33 41  1  0  0  0  0
 35 38  1  0  0  0  0
 35 39  1  0  0  0  0
 35 40  1  0  0  0  0
 41 42  1  0  0  0  0
 41 43  1  0  0  0  0
 42 44  1  0  0  0  0
 42 45  1  0  0  0  0
 42 46  1  0  0  0  0
M  END
$$$$

  -OEChem-05262217223D

 46 46  0     1  0  0  0  0  0999 V2000
   -2.7025    0.4133    2.7488 C   0  0  0  0  0  0  0  0  0  0  0  0
   -1.9933   -0.4736    2.3026 O   0  0  0  0  0  0  0  0  0  0  0  0
   -3.2132    0.3347    4.1750 C   0  0  0  0  0  0  0  0  0  0  0  0
   -4.3055    0.3674    4.1836 H   0  0  0  0  0  0  0  0  0  0  0  0
   -2.8856   -0.5987    4.6415 H   0  0  0  0  0  0  0  0  0  0  0  0
   -2.8253    1.1743    4.7572 H   0  0  0  0  0  0  0  0  0  0  0  0
   -3.0251    1.5013    1.9647 N   0  0  0  0  0  0  0  0  0  0  0  0
   -2.4467    1.7590    0.6385 C   0  0  2  0  0  0  0  0  0  0  0  0
   -1.2311    2.7289    0.7483 C   0  0  0  0  0  0  0  0  0  0  0  0
   -1.4832    3.9128    0.9629 O   0  0  0  0  0  0  0  0  0  0  0  0
   -3.5815    2.3329   -0.2233 C   0  0  0  0  0  0  0  0  0  0  0  0
   -3.4906    2.2758    2.4315 H   0  0  0  0  0  0  0  0  0  0  0  0
   -2.1237    0.8218    0.1774 H   0  0  0  0  0  0  0  0  0  0  0  0
   -3.9817    3.2493    0.2222 H   0  0  0  0  0  0  0  0  0  0  0  0
   -3.2257    2.5693   -1.2297 H   0  0  0  0  0  0  0  0  0  0  0  0
   -4.3947    1.6055   -0.3087 H   0  0  0  0  0  0  0  0  0  0  0  0
    0.1412    2.3350    0.6789 N   0  0  0  0  0  0  0  0  0  0  0  0
    0.6310    0.8561    0.4697 C   0  0  2  0  0  0  0  0  0  0  0  0
    2.1124    0.3656    0.4597 C   0  0  0  0  0  0  0  0  0  0  0  0
    2.3642   -0.8189    0.2596 O   0  0  0  0  0  0  0  0  0  0  0  0
    0.9451    1.1406   -1.0589 C   0  0  0  0  0  0  0  0  0  0  0  0
    0.0184    2.2101   -1.3883 C   0  0  0  0  0  0  0  0  0  0  0  0
    0.7175    3.2059   -0.5190 C   0  0  0  0  0  0  0  0  0  0  0  0
   -0.0945    0.0681    0.6871 H   0  0  0  0  0  0  0  0  0  0  0  0
    0.6707    0.2459   -1.6325 H   0  0  0  0  0  0  0  0  0  0  0  0
    1.9472    1.4178   -1.4438 H   0  0  0  0  0  0  0  0  0  0  0  0
    0.1899    2.5160   -2.4257 H   0  0  0  0  0  0  0  0  0  0  0  0
   -1.0383    1.9536   -1.3924 H   0  0  0  0  0  0  0  0  0  0  0  0
    1.8109    3.2785   -0.5720 H   0  0  0  0  0  0  0  0  0  0  0  0
    0.3078    4.2176   -0.6178 H   0  0  0  0  0  0  0  0  0  0  0  0
    3.1564    1.2658    0.6551 N   0  0  0  0  0  0  0  0  0  0  0  0
    4.6058    0.9882    0.6095 C   0  0  2  0  0  0  0  0  0  0  0  0
    5.1259    0.5829   -0.7889 C   0  0  0  0  0  0  0  0  0  0  0  0
    5.9906    1.2579   -1.3312 O   0  0  0  0  0  0  0  0  0  0  0  0
    5.0116   -0.0414    1.6731 C   0  0  0  0  0  0  0  0  0  0  0  0
    2.8667    2.2165    0.8731 H   0  0  0  0  0  0  0  0  0  0  0  0
    5.1160    1.9230    0.8639 H   0  0  0  0  0  0  0  0  0  0  0  0
    4.6296   -1.0374    1.4318 H   0  0  0  0  0  0  0  0  0  0  0  0
    6.1024   -0.1024    1.7369 H   0  0  0  0  0  0  0  0  0  0  0  0
    4.6234    0.2515    2.6532 H   0  0  0  0  0  0  0  0  0  0  0  0
    4.6013   -0.5051   -1.4574 N   0  0  0  0  0  0  0  0  0  0  0  0
    4.9979   -0.9095   -2.7983 C   0  0  0  0  0  0  0  0  0  0  0  0
    3.8353   -0.9957   -0.9877 H   0  0  0  0  0  0  0  0  0  0  0  0
    4.7530   -0.1254   -3.5221 H   0  0  0  0  0  0  0  0  0  0  0  0
    6.0751   -1.1029   -2.8371 H   0  0  0  0  0  0  0  0  0  0  0  0
    4.4721   -1.8251   -3.0860 H   0  0  0  0  0  0  0  0  0  0  0  0
  1  2  2  0  0  0  0
  1  3  1  0  0  0  0
  1  7  1  0  0  0  0
  3  4  1  0  0  0  0
  3  5  1  0  0  0  0
  3  6  1  0  0  0  0
  7  8  1  0  0  0  0
  7 12  1  0  0  0  0
  8  9  1  0  0  0  0
  8 11  1  0  0  0  0
  8 13  1  0  0  0  0
  9 10  2  0  0  0  0
  9 17  1  0  0  0  0
 11 14  1  0  0  0  0
 11 15  1  0  0  0  0
 11 16  1  0  0  0  0
 17 18  1  0  0  0  0
 17 23  1  0  0  0  0
 18 19  1  0  0  0  0
 18 21  1  0  0  0  0
 18 24  1  0  0  0  0
 19 20  2  0  0  0  0
 19 31  1  0  0  0  0
 21 22  1  0  0  0  0
 21 25  1  0  0  0  0
 21 26  1  0  0  0  0
 22 23  1  0  0  0  0
 22 27  1  0  0  0  0
 22 28  1  0  0  0  0
 23 29  1  0  0  0  0
 23 30  1  0  0  0  0
 31 32  1  0  0  0  0
 31 36  1  0  0  0  0
 32 33  1  0  0  0  0
 32 35  1  0  0  0  0
 32 37  1  0  0  0  0
 33 34  2  0  0  0  0
 33 41  1  0  0  0  0
 35 38  1  0  0  0  0
 35 39  1  0  0  0  0
 35 40  1  0  0  0  0
 41 42  1  0  0  0  0
 41 43  1  0  0  0  0
 42 44  1  0  0  0  0
 42 45  1  0  0  0  0
 42 46  1  0  0  0  0
M  END
$$$$

  -OEChem-05262217223D

 46 46  0     1  0  0  0  0  0999 V2000
   -2.3056    1.5924    3.3540 C   0  0  0  0  0  0  0  0  0  0  0  0
   -1.9677    0.4677    3.0242 O   0  0  0  0  0  0  0  0  0  0  0  0
   -2.2508    2.0066    4.8123 C   0  0  0  0  0  0  0  0  0  0  0  0
   -3.2386    2.3335    5.1460 H   0  0  0  0  0  0  0  0  0  0  0  0
   -1.9308    1.1642    5.4322 H   0  0  0  0  0  0  0  0  0  0  0  0
   -1.5406    2.8272    4.9403 H   0  0  0  0  0  0  0  0  0  0  0  0
   -2.7152    2.5009    2.4007 N   0  0  0  0  0  0  0  0  0  0  0  0
   -2.6069    2.2778    0.9524 C   0  0  2  0  0  0  0  0  0  0  0  0
   -1.2975    2.9134    0.3984 C   0  0  0  0  0  0  0  0  0  0  0  0
   -1.2924    4.1368    0.2732 O   0  0  0  0  0  0  0  0  0  0  0  0
   -3.8667    2.8886    0.3213 C   0  0  0  0  0  0  0  0  0  0  0  0
   -2.8404    3.4596    2.7156 H   0  0  0  0  0  0  0  0  0  0  0  0
   -2.6246    1.2106    0.7217 H   0  0  0  0  0  0  0  0  0  0  0  0
   -3.9414    3.9561    0.5532 H   0  0  0  0  0  0  0  0  0  0  0  0
   -3.8491    2.7740   -0.7662 H   0  0  0  0  0  0  0  0  0  0  0  0
   -4.7602    2.3871    0.7054 H   0  0  0  0  0  0  0  0  0  0  0  0
   -0.1122    2.1891    0.0623 N   0  0  0  0  0  0  0  0  0  0  0  0
   -0.0046    0.6308    0.2145 C   0  0  2  0  0  0  0  0  0  0  0  0
    1.1770   -0.3564   -0.0262 C   0  0  0  0  0  0  0  0  0  0  0  0
    1.0075   -1.5721    0.0122 O   0  0  0  0  0  0  0  0  0  0  0  0
   -0.0853    0.5298   -1.3702 C   0  0  0  0  0  0  0  0  0  0  0  0
   -0.8344    1.7136   -1.7974 C   0  0  0  0  0  0  0  0  0  0  0  0
    0.2748    2.6309   -1.4002 C   0  0  0  0  0  0  0  0  0  0  0  0
   -0.8087    0.1580    0.7805 H   0  0  0  0  0  0  0  0  0  0  0  0
   -0.6878   -0.3529   -1.6261 H   0  0  0  0  0  0  0  0  0  0  0  0
    0.8196    0.4457   -2.0088 H   0  0  0  0  0  0  0  0  0  0  0  0
   -0.8979    1.7257   -2.8903 H   0  0  0  0  0  0  0  0  0  0  0  0
   -1.8793    1.7746   -1.4878 H   0  0  0  0  0  0  0  0  0  0  0  0
    1.3030    2.3976   -1.7070 H   0  0  0  0  0  0  0  0  0  0  0  0
    0.0741    3.6779   -1.6533 H   0  0  0  0  0  0  0  0  0  0  0  0
    2.4709    0.1267   -0.1462 N   0  0  0  0  0  0  0  0  0  0  0  0
    3.6794   -0.7072   -0.1488 C   0  0  2  0  0  0  0  0  0  0  0  0
    4.9066    0.0706    0.3730 C   0  0  0  0  0  0  0  0  0  0  0  0
    4.8798    1.2948    0.4359 O   0  0  0  0  0  0  0  0  0  0  0  0
    3.9275   -1.2027   -1.5774 C   0  0  0  0  0  0  0  0  0  0  0  0
    2.6030    1.1278    0.0055 H   0  0  0  0  0  0  0  0  0  0  0  0
    3.5317   -1.5674    0.5127 H   0  0  0  0  0  0  0  0  0  0  0  0
    4.0723   -0.3554   -2.2550 H   0  0  0  0  0  0  0  0  0  0  0  0
    4.8183   -1.8366   -1.6158 H   0  0  0  0  0  0  0  0  0  0  0  0
    3.0736   -1.7896   -1.9303 H   0  0  0  0  0  0  0  0  0  0  0  0
    6.0433   -0.6030    0.7818 N   0  0  0  0  0  0  0  0  0  0  0  0
    7.2234    0.0684    1.3137 C   0  0  0  0  0  0  0  0  0  0  0  0
    6.0241   -1.6183    0.7557 H   0  0  0  0  0  0  0  0  0  0  0  0
    7.6357    0.7632    0.5743 H   0  0  0  0  0  0  0  0  0  0  0  0
    6.9696    0.6286    2.2200 H   0  0  0  0  0  0  0  0  0  0  0  0
    7.9952   -0.6654    1.5657 H   0  0  0  0  0  0  0  0  0  0  0  0
  1  2  2  0  0  0  0
  1  3  1  0  0  0  0
  1  7  1  0  0  0  0
  3  4  1  0  0  0  0
  3  5  1  0  0  0  0
  3  6  1  0  0  0  0
  7  8  1  0  0  0  0
  7 12  1  0  0  0  0
  8  9  1  0  0  0  0
  8 11  1  0  0  0  0
  8 13  1  0  0  0  0
  9 10  2  0  0  0  0
  9 17  1  0  0  0  0
 11 14  1  0  0  0  0
 11 15  1  0  0  0  0
 11 16  1  0  0  0  0
 17 18  1  0  0  0  0
 17 23  1  0  0  0  0
 18 19  1  0  0  0  0
 18 21  1  0  0  0  0
 18 24  1  0  0  0  0
 19 20  2  0  0  0  0
 19 31  1  0  0  0  0
 21 22  1  0  0  0  0
 21 25  1  0  0  0  0
 21 26  1  0  0  0  0
 22 23  1  0  0  0  0
 22 27  1  0  0  0  0
 22 28  1  0  0  0  0
 23 29  1  0  0  0  0
 23 30  1  0  0  0  0
 31 32  1  0  0  0  0
 31 36  1  0  0  0  0
 32 33  1  0  0  0  0
 32 35  1  0  0  0  0
 32 37  1  0  0  0  0
 33 34  2  0  0  0  0
 33 41  1  0  0  0  0
 35 38  1  0  0  0  0
 35 39  1  0  0  0  0
 35 40  1  0  0  0  0
 41 42  1  0  0  0  0
 41 43  1  0  0  0  0
 42 44  1  0  0  0  0
 42 45  1  0  0  0  0
 42 46  1  0  0  0  0
M  END
$$$$

  -OEChem-05262217223D

 46 46  0     1  0  0  0  0  0999 V2000
   -2.1174    0.2826    2.9459 C   0  0  0  0  0  0  0  0  0  0  0  0
   -1.6060   -0.5237    2.1865 O   0  0  0  0  0  0  0  0  0  0  0  0
   -2.2095   -0.0210    4.4292 C   0  0  0  0  0  0  0  0  0  0  0  0
   -3.2572   -0.0554    4.7383 H   0  0  0  0  0  0  0  0  0  0  0  0
   -1.7461   -0.9878    4.6456 H   0  0  0  0  0  0  0  0  0  0  0  0
   -1.6923    0.7525    5.0022 H   0  0  0  0  0  0  0  0  0  0  0  0
   -2.5824    1.4878    2.4621 N   0  0  0  0  0  0  0  0  0  0  0  0
   -2.3683    1.9429    1.0815 C   0  0  2  0  0  0  0  0  0  0  0  0
   -0.9308    2.5169    0.9000 C   0  0  0  0  0  0  0  0  0  0  0  0
   -0.7162    3.6116    1.4190 O   0  0  0  0  0  0  0  0  0  0  0  0
   -3.4507    2.9950    0.7992 C   0  0  0  0  0  0  0  0  0  0  0  0
   -2.8301    2.1881    3.1558 H   0  0  0  0  0  0  0  0  0  0  0  0
   -2.5414    1.1216    0.3851 H   0  0  0  0  0  0  0  0  0  0  0  0
   -3.3608    3.8410    1.4885 H   0  0  0  0  0  0  0  0  0  0  0  0
   -3.3639    3.3735   -0.2231 H   0  0  0  0  0  0  0  0  0  0  0  0
   -4.4457    2.5550    0.9186 H   0  0  0  0  0  0  0  0  0  0  0  0
    0.1464    1.8722    0.2172 N   0  0  0  0  0  0  0  0  0  0  0  0
   -0.0270    0.4613   -0.4502 C   0  0  2  0  0  0  0  0  0  0  0  0
    0.8990   -0.5438   -1.2107 C   0  0  0  0  0  0  0  0  0  0  0  0
    0.4666   -1.4178   -1.9542 O   0  0  0  0  0  0  0  0  0  0  0  0
    0.0999    1.2358   -1.8347 C   0  0  0  0  0  0  0  0  0  0  0  0
   -0.3753    2.6094   -1.6032 C   0  0  0  0  0  0  0  0  0  0  0  0
    0.7988    2.9228   -0.7487 C   0  0  0  0  0  0  0  0  0  0  0  0
   -0.9801   -0.0226   -0.2397 H   0  0  0  0  0  0  0  0  0  0  0  0
   -0.5995    0.7888   -2.5561 H   0  0  0  0  0  0  0  0  0  0  0  0
    1.0727    1.2817   -2.3701 H   0  0  0  0  0  0  0  0  0  0  0  0
   -0.2857    3.1884   -2.5279 H   0  0  0  0  0  0  0  0  0  0  0  0
   -1.4254    2.7289   -1.3234 H   0  0  0  0  0  0  0  0  0  0  0  0
    1.8064    2.6802   -1.1102 H   0  0  0  0  0  0  0  0  0  0  0  0
    0.8058    3.9606   -0.3981 H   0  0  0  0  0  0  0  0  0  0  0  0
    2.2512   -0.6439   -0.9571 N   0  0  0  0  0  0  0  0  0  0  0  0
    2.9532   -0.0346    0.1809 C   0  0  2  0  0  0  0  0  0  0  0  0
    4.4887   -0.0788    0.0164 C   0  0  0  0  0  0  0  0  0  0  0  0
    5.0083   -0.7901   -0.8346 O   0  0  0  0  0  0  0  0  0  0  0  0
    2.5472   -0.7729    1.4637 C   0  0  0  0  0  0  0  0  0  0  0  0
    2.7285   -1.3948   -1.4563 H   0  0  0  0  0  0  0  0  0  0  0  0
    2.6729    1.0173    0.2686 H   0  0  0  0  0  0  0  0  0  0  0  0
    2.8098   -1.8336    1.3908 H   0  0  0  0  0  0  0  0  0  0  0  0
    3.0593   -0.3468    2.3319 H   0  0  0  0  0  0  0  0  0  0  0  0
    1.4689   -0.6945    1.6339 H   0  0  0  0  0  0  0  0  0  0  0  0
    5.2956    0.6954    0.8303 N   0  0  0  0  0  0  0  0  0  0  0  0
    6.7511    0.6982    0.7447 C   0  0  0  0  0  0  0  0  0  0  0  0
    4.8428    1.2675    1.5368 H   0  0  0  0  0  0  0  0  0  0  0  0
    7.1477   -0.3055    0.9314 H   0  0  0  0  0  0  0  0  0  0  0  0
    7.0755    1.0271   -0.2484 H   0  0  0  0  0  0  0  0  0  0  0  0
    7.1727    1.3802    1.4893 H   0  0  0  0  0  0  0  0  0  0  0  0
  1  2  2  0  0  0  0
  1  3  1  0  0  0  0
  1  7  1  0  0  0  0
  3  4  1  0  0  0  0
  3  5  1  0  0  0  0
  3  6  1  0  0  0  0
  7  8  1  0  0  0  0
  7 12  1  0  0  0  0
  8  9  1  0  0  0  0
  8 11  1  0  0  0  0
  8 13  1  0  0  0  0
  9 10  2  0  0  0  0
  9 17  1  0  0  0  0
 11 14  1  0  0  0  0
 11 15  1  0  0  0  0
 11 16  1  0  0  0  0
 17 18  1  0  0  0  0
 17 23  1  0  0  0  0
 18 19  1  0  0  0  0
 18 21  1  0  0  0  0
 18 24  1  0  0  0  0
 19 20  2  0  0  0  0
 19 31  1  0  0  0  0
 21 22  1  0  0  0  0
 21 25  1  0  0  0  0
 21 26  1  0  0  0  0
 22 23  1  0  0  0  0
 22 27  1  0  0  0  0
 22 28  1  0  0  0  0
 23 29  1  0  0  0  0
 23 30  1  0  0  0  0
 31 32  1  0  0  0  0
 31 36  1  0  0  0  0
 32 33  1  0  0  0  0
 32 35  1  0  0  0  0
 32 37  1  0  0  0  0
 33 34  2  0  0  0  0
 33 41  1  0  0  0  0
 35 38  1  0  0  0  0
 35 39  1  0  0  0  0
 35 40  1  0  0  0  0
 41 42  1  0  0  0  0
 41 43  1  0  0  0  0
 42 44  1  0  0  0  0
 42 45  1  0  0  0  0
 42 46  1  0  0  0  0
M  END
$$$$

  -OEChem-05262217223D

 46 46  0     1  0  0  0  0  0999 V2000
   -2.4190    0.4346    2.8446 C   0  0  0  0  0  0  0  0  0  0  0  0
   -2.0163   -0.4331    2.0875 O   0  0  0  0  0  0  0  0  0  0  0  0
   -2.7156    0.1026    4.2944 C   0  0  0  0  0  0  0  0  0  0  0  0
   -3.7476    0.3693    4.5357 H   0  0  0  0  0  0  0  0  0  0  0  0
   -2.5788   -0.9680    4.4717 H   0  0  0  0  0  0  0  0  0  0  0  0
   -2.0400    0.6579    4.9495 H   0  0  0  0  0  0  0  0  0  0  0  0
   -2.5701    1.7289    2.3934 N   0  0  0  0  0  0  0  0  0  0  0  0
   -2.1470    2.1771    1.0598 C   0  0  2  0  0  0  0  0  0  0  0  0
   -0.6135    2.4539    1.0134 C   0  0  0  0  0  0  0  0  0  0  0  0
   -0.2320    3.4614    1.6079 O   0  0  0  0  0  0  0  0  0  0  0  0
   -2.9651    3.4367    0.7427 C   0  0  0  0  0  0  0  0  0  0  0  0
   -2.7372    2.4399    3.1000 H   0  0  0  0  0  0  0  0  0  0  0  0
   -2.4262    1.4359    0.3112 H   0  0  0  0  0  0  0  0  0  0  0  0
   -2.7808    4.2195    1.4857 H   0  0  0  0  0  0  0  0  0  0  0  0
   -2.6999    3.8285   -0.2435 H   0  0  0  0  0  0  0  0  0  0  0  0
   -4.0342    3.2027    0.7434 H   0  0  0  0  0  0  0  0  0  0  0  0
    0.3726    1.6295    0.3886 N   0  0  0  0  0  0  0  0  0  0  0  0
   -0.0296    0.3033   -0.3479 C   0  0  2  0  0  0  0  0  0  0  0  0
    0.6752   -0.8765   -1.0962 C   0  0  0  0  0  0  0  0  0  0  0  0
    0.1349   -1.5435   -1.9737 O   0  0  0  0  0  0  0  0  0  0  0  0
    0.4287    1.0817   -1.6592 C   0  0  0  0  0  0  0  0  0  0  0  0
    0.2443    2.5274   -1.4165 C   0  0  0  0  0  0  0  0  0  0  0  0
    1.3448    2.5459   -0.4275 C   0  0  0  0  0  0  0  0  0  0  0  0
   -1.0857    0.0555   -0.2610 H   0  0  0  0  0  0  0  0  0  0  0  0
   -0.2572    0.8385   -2.4839 H   0  0  0  0  0  0  0  0  0  0  0  0
    1.4481    0.9097   -2.0683 H   0  0  0  0  0  0  0  0  0  0  0  0
    0.5654    3.0923   -2.2975 H   0  0  0  0  0  0  0  0  0  0  0  0
   -0.7772    2.8763   -1.2370 H   0  0  0  0  0  0  0  0  0  0  0  0
    2.3126    2.1111   -0.7016 H   0  0  0  0  0  0  0  0  0  0  0  0
    1.5287    3.5427   -0.0127 H   0  0  0  0  0  0  0  0  0  0  0  0
    1.8019   -1.4843   -0.5887 N   0  0  0  0  0  0  0  0  0  0  0  0
    2.5390   -1.0479    0.6042 C   0  0  2  0  0  0  0  0  0  0  0  0
    3.6495   -0.0131    0.3181 C   0  0  0  0  0  0  0  0  0  0  0  0
    4.1852    0.0515   -0.7811 O   0  0  0  0  0  0  0  0  0  0  0  0
    3.1442   -2.2988    1.2447 C   0  0  0  0  0  0  0  0  0  0  0  0
    2.1769   -2.2365   -1.1604 H   0  0  0  0  0  0  0  0  0  0  0  0
    1.8415   -0.6045    1.3217 H   0  0  0  0  0  0  0  0  0  0  0  0
    3.8616   -2.7688    0.5639 H   0  0  0  0  0  0  0  0  0  0  0  0
    3.6645   -2.0410    2.1723 H   0  0  0  0  0  0  0  0  0  0  0  0
    2.3589   -3.0242    1.4796 H   0  0  0  0  0  0  0  0  0  0  0  0
    4.0407    0.8714    1.3068 N   0  0  0  0  0  0  0  0  0  0  0  0
    5.0501    1.9034    1.1032 C   0  0  0  0  0  0  0  0  0  0  0  0
    3.5132    0.8672    2.1753 H   0  0  0  0  0  0  0  0  0  0  0  0
    6.0099    1.4511    0.8324 H   0  0  0  0  0  0  0  0  0  0  0  0
    4.7450    2.5878    0.3049 H   0  0  0  0  0  0  0  0  0  0  0  0
    5.1891    2.4828    2.0208 H   0  0  0  0  0  0  0  0  0  0  0  0
  1  2  2  0  0  0  0
  1  3  1  0  0  0  0
  1  7  1  0  0  0  0
  3  4  1  0  0  0  0
  3  5  1  0  0  0  0
  3  6  1  0  0  0  0
  7  8  1  0  0  0  0
  7 12  1  0  0  0  0
  8  9  1  0  0  0  0
  8 11  1  0  0  0  0
  8 13  1  0  0  0  0
  9 10  2  0  0  0  0
  9 17  1  0  0  0  0
 11 14  1  0  0  0  0
 11 15  1  0  0  0  0
 11 16  1  0  0  0  0
 17 18  1  0  0  0  0
 17 23  1  0  0  0  0
 18 19  1  0  0  0  0
 18 21  1  0  0  0  0
 18 24  1  0  0  0  0
 19 20  2  0  0  0  0
 19 31  1  0  0  0  0
 21 22  1  0  0  0  0
 21 25  1  0  0  0  0
 21 26  1  0  0  0  0
 22 23  1  0  0  0  0
 22 27  1  0  0  0  0
 22 28  1  0  0  0  0
 23 29  1  0  0  0  0
 23 30  1  0  0  0  0
 31 32  1  0  0  0  0
 31 36  1  0  0  0  0
 32 33  1  0  0  0  0
 32 35  1  0  0  0  0
 32 37  1  0  0  0  0
 33 34  2  0  0  0  0
 33 41  1  0  0  0  0
 35 38  1  0  0  0  0
 35 39  1  0  0  0  0
 35 40  1  0  0  0  0
 41 42  1  0  0  0  0
 41 43  1  0  0  0  0
 42 44  1  0  0  0  0
 42 45  1  0  0  0  0
 42 46  1  0  0  0  0
M  END
$$$$

  -OEChem-05262217223D

 46 46  0     1  0  0  0  0  0999 V2000
   -1.0009    1.5934    3.2266 C   0  0  0  0  0  0  0  0  0  0  0  0
   -1.3173    0.4414    2.9805 O   0  0  0  0  0  0  0  0  0  0  0  0
   -0.1810    1.9040    4.4643 C   0  0  0  0  0  0  0  0  0  0  0  0
    0.0147    0.9871    5.0277 H   0  0  0  0  0  0  0  0  0  0  0  0
    0.7747    2.3502    4.1778 H   0  0  0  0  0  0  0  0  0  0  0  0
   -0.7243    2.6017    5.1064 H   0  0  0  0  0  0  0  0  0  0  0  0
   -1.3669    2.6151    2.3731 N   0  0  0  0  0  0  0  0  0  0  0  0
   -2.1423    2.4530    1.1309 C   0  0  2  0  0  0  0  0  0  0  0  0
   -1.3468    2.9616   -0.1094 C   0  0  0  0  0  0  0  0  0  0  0  0
   -1.6457    4.0671   -0.5546 O   0  0  0  0  0  0  0  0  0  0  0  0
   -3.4683    3.1988    1.3423 C   0  0  0  0  0  0  0  0  0  0  0  0
   -1.0748    3.5547    2.6299 H   0  0  0  0  0  0  0  0  0  0  0  0
   -2.4047    1.4056    0.9578 H   0  0  0  0  0  0  0  0  0  0  0  0
   -3.2910    4.2601    1.5452 H   0  0  0  0  0  0  0  0  0  0  0  0
   -4.0965    3.1167    0.4497 H   0  0  0  0  0  0  0  0  0  0  0  0
   -4.0138    2.7690    2.1883 H   0  0  0  0  0  0  0  0  0  0  0  0
   -0.2983    2.2387   -0.7541 N   0  0  0  0  0  0  0  0  0  0  0  0
    0.1012    0.8350   -0.2056 C   0  0  2  0  0  0  0  0  0  0  0  0
    1.1037   -0.3388   -0.4289 C   0  0  0  0  0  0  0  0  0  0  0  0
    0.8061   -1.5134   -0.2075 O   0  0  0  0  0  0  0  0  0  0  0  0
   -0.3607    0.3888   -1.6656 C   0  0  0  0  0  0  0  0  0  0  0  0
   -1.3715    1.3560   -2.1736 C   0  0  0  0  0  0  0  0  0  0  0  0
   -0.3469    2.4088   -2.2973 C   0  0  0  0  0  0  0  0  0  0  0  0
   -0.5375    0.5261    0.6172 H   0  0  0  0  0  0  0  0  0  0  0  0
   -0.9182   -0.5592   -1.6105 H   0  0  0  0  0  0  0  0  0  0  0  0
    0.4230    0.2256   -2.4351 H   0  0  0  0  0  0  0  0  0  0  0  0
   -1.6977    1.0636   -3.1768 H   0  0  0  0  0  0  0  0  0  0  0  0
   -2.3025    1.4646   -1.6024 H   0  0  0  0  0  0  0  0  0  0  0  0
    0.5868    2.1975   -2.8349 H   0  0  0  0  0  0  0  0  0  0  0  0
   -0.7501    3.3584   -2.6658 H   0  0  0  0  0  0  0  0  0  0  0  0
    2.4444   -0.0152   -0.3140 N   0  0  0  0  0  0  0  0  0  0  0  0
    3.4922   -0.9653    0.0935 C   0  0  2  0  0  0  0  0  0  0  0  0
    3.5000   -1.1794    1.6278 C   0  0  0  0  0  0  0  0  0  0  0  0
    4.4346   -0.8050    2.3264 O   0  0  0  0  0  0  0  0  0  0  0  0
    4.8272   -0.4360   -0.4440 C   0  0  0  0  0  0  0  0  0  0  0  0
    2.6542    0.9766   -0.2313 H   0  0  0  0  0  0  0  0  0  0  0  0
    3.3123   -1.9407   -0.3715 H   0  0  0  0  0  0  0  0  0  0  0  0
    5.0591    0.5416   -0.0090 H   0  0  0  0  0  0  0  0  0  0  0  0
    5.6371   -1.1277   -0.1910 H   0  0  0  0  0  0  0  0  0  0  0  0
    4.7869   -0.3349   -1.5329 H   0  0  0  0  0  0  0  0  0  0  0  0
    2.3917   -1.7390    2.2320 N   0  0  0  0  0  0  0  0  0  0  0  0
    2.2218   -1.8573    3.6730 C   0  0  0  0  0  0  0  0  0  0  0  0
    1.5991   -1.9435    1.6178 H   0  0  0  0  0  0  0  0  0  0  0  0
    3.0139   -2.4794    4.1024 H   0  0  0  0  0  0  0  0  0  0  0  0
    2.2532   -0.8695    4.1442 H   0  0  0  0  0  0  0  0  0  0  0  0
    1.2567   -2.3200    3.9014 H   0  0  0  0  0  0  0  0  0  0  0  0
  1  2  2  0  0  0  0
  1  3  1  0  0  0  0
  1  7  1  0  0  0  0
  3  4  1  0  0  0  0
  3  5  1  0  0  0  0
  3  6  1  0  0  0  0
  7  8  1  0  0  0  0
  7 12  1  0  0  0  0
  8  9  1  0  0  0  0
  8 11  1  0  0  0  0
  8 13  1  0  0  0  0
  9 10  2  0  0  0  0
  9 17  1  0  0  0  0
 11 14  1  0  0  0  0
 11 15  1  0  0  0  0
 11 16  1  0  0  0  0
 17 18  1  0  0  0  0
 17 23  1  0  0  0  0
 18 19  1  0  0  0  0
 18 21  1  0  0  0  0
 18 24  1  0  0  0  0
 19 20  2  0  0  0  0
 19 31  1  0  0  0  0
 21 22  1  0  0  0  0
 21 25  1  0  0  0  0
 21 26  1  0  0  0  0
 22 23  1  0  0  0  0
 22 27  1  0  0  0  0
 22 28  1  0  0  0  0
 23 29  1  0  0  0  0
 23 30  1  0  0  0  0
 31 32  1  0  0  0  0
 31 36  1  0  0  0  0
 32 33  1  0  0  0  0
 32 35  1  0  0  0  0
 32 37  1  0  0  0  0
 33 34  2  0  0  0  0
 33 41  1  0  0  0  0
 35 38  1  0  0  0  0
 35 39  1  0  0  0  0
 35 40  1  0  0  0  0
 41 42  1  0  0  0  0
 41 43  1  0  0  0  0
 42 44  1  0  0  0  0
 42 45  1  0  0  0  0
 42 46  1  0  0  0  0
M  END
$$$$

  -OEChem-05262217223D

 46 46  0     1  0  0  0  0  0999 V2000
   -1.6978    1.9225    3.1952 C   0  0  0  0  0  0  0  0  0  0  0  0
   -1.1505    0.9712    2.6670 O   0  0  0  0  0  0  0  0  0  0  0  0
   -1.4708    2.1853    4.6723 C   0  0  0  0  0  0  0  0  0  0  0  0
   -2.4263    2.1989    5.2024 H   0  0  0  0  0  0  0  0  0  0  0  0
   -0.8416    1.4008    5.1031 H   0  0  0  0  0  0  0  0  0  0  0  0
   -0.9723    3.1484    4.8071 H   0  0  0  0  0  0  0  0  0  0  0  0
   -2.5139    2.7753    2.4770 N   0  0  0  0  0  0  0  0  0  0  0  0
   -2.7352    2.7730    1.0175 C   0  0  2  0  0  0  0  0  0  0  0  0
   -1.5044    3.3081    0.2079 C   0  0  0  0  0  0  0  0  0  0  0  0
   -1.5428    4.5292    0.0666 O   0  0  0  0  0  0  0  0  0  0  0  0
   -3.4626    1.5004    0.5402 C   0  0  0  0  0  0  0  0  0  0  0  0
   -2.8332    3.5961    2.9840 H   0  0  0  0  0  0  0  0  0  0  0  0
   -3.4898    3.5494    0.8483 H   0  0  0  0  0  0  0  0  0  0  0  0
   -4.5206    1.5635    0.8122 H   0  0  0  0  0  0  0  0  0  0  0  0
   -3.3974    1.3993   -0.5465 H   0  0  0  0  0  0  0  0  0  0  0  0
   -3.0695    0.5938    1.0059 H   0  0  0  0  0  0  0  0  0  0  0  0
   -0.3801    2.6243   -0.3529 N   0  0  0  0  0  0  0  0  0  0  0  0
   -0.2508    1.0835   -0.2001 C   0  0  2  0  0  0  0  0  0  0  0  0
    0.6215   -0.1846   -0.4959 C   0  0  0  0  0  0  0  0  0  0  0  0
    0.1870   -1.2397   -0.9672 O   0  0  0  0  0  0  0  0  0  0  0  0
   -0.1870    1.2229   -1.7888 C   0  0  0  0  0  0  0  0  0  0  0  0
   -0.9089    2.4502   -2.2398 C   0  0  0  0  0  0  0  0  0  0  0  0
    0.1432    3.2889   -1.6492 C   0  0  0  0  0  0  0  0  0  0  0  0
   -1.1571    0.6750    0.2200 H   0  0  0  0  0  0  0  0  0  0  0  0
   -0.7839    0.4347   -2.2713 H   0  0  0  0  0  0  0  0  0  0  0  0
    0.8183    1.1587   -2.2528 H   0  0  0  0  0  0  0  0  0  0  0  0
   -0.8712    2.5374   -3.3302 H   0  0  0  0  0  0  0  0  0  0  0  0
   -1.9703    2.5489   -1.9777 H   0  0  0  0  0  0  0  0  0  0  0  0
    1.1969    3.1027   -1.8968 H   0  0  0  0  0  0  0  0  0  0  0  0
   -0.0501    4.3603   -1.7656 H   0  0  0  0  0  0  0  0  0  0  0  0
    1.7498   -0.3114    0.2929 N   0  0  0  0  0  0  0  0  0  0  0  0
    2.4820   -1.5586    0.5517 C   0  0  2  0  0  0  0  0  0  0  0  0
    3.3011   -1.4734    1.8583 C   0  0  0  0  0  0  0  0  0  0  0  0
    3.5155   -0.3885    2.3885 O   0  0  0  0  0  0  0  0  0  0  0  0
    3.4077   -1.8420   -0.6366 C   0  0  0  0  0  0  0  0  0  0  0  0
    1.9529    0.4683    0.9205 H   0  0  0  0  0  0  0  0  0  0  0  0
    1.7710   -2.3838    0.6649 H   0  0  0  0  0  0  0  0  0  0  0  0
    4.1264   -1.0258   -0.7623 H   0  0  0  0  0  0  0  0  0  0  0  0
    3.9603   -2.7731   -0.4800 H   0  0  0  0  0  0  0  0  0  0  0  0
    2.8261   -1.9394   -1.5585 H   0  0  0  0  0  0  0  0  0  0  0  0
    3.8076   -2.6204    2.4423 N   0  0  0  0  0  0  0  0  0  0  0  0
    4.5633   -2.6174    3.6893 C   0  0  0  0  0  0  0  0  0  0  0  0
    3.5803   -3.5088    2.0059 H   0  0  0  0  0  0  0  0  0  0  0  0
    5.4097   -1.9253    3.6248 H   0  0  0  0  0  0  0  0  0  0  0  0
    3.9227   -2.3139    4.5240 H   0  0  0  0  0  0  0  0  0  0  0  0
    4.9542   -3.6182    3.8969 H   0  0  0  0  0  0  0  0  0  0  0  0
  1  2  2  0  0  0  0
  1  3  1  0  0  0  0
  1  7  1  0  0  0  0
  3  4  1  0  0  0  0
  3  5  1  0  0  0  0
  3  6  1  0  0  0  0
  7  8  1  0  0  0  0
  7 12  1  0  0  0  0
  8  9  1  0  0  0  0
  8 11  1  0  0  0  0
  8 13  1  0  0  0  0
  9 10  2  0  0  0  0
  9 17  1  0  0  0  0
 11 14  1  0  0  0  0
 11 15  1  0  0  0  0
 11 16  1  0  0  0  0
 17 18  1  0  0  0  0
 17 23  1  0  0  0  0
 18 19  1  0  0  0  0
 18 21  1  0  0  0  0
 18 24  1  0  0  0  0
 19 20  2  0  0  0  0
 19 31  1  0  0  0  0
 21 22  1  0  0  0  0
 21 25  1  0  0  0  0
 21 26  1  0  0  0  0
 22 23  1  0  0  0  0
 22 27  1  0  0  0  0
 22 28  1  0  0  0  0
 23 29  1  0  0  0  0
 23 30  1  0  0  0  0
 31 32  1  0  0  0  0
 31 36  1  0  0  0  0
 32 33  1  0  0  0  0
 32 35  1  0  0  0  0
 32 37  1  0  0  0  0
 33 34  2  0  0  0  0
 33 41  1  0  0  0  0
 35 38  1  0  0  0  0
 35 39  1  0  0  0  0
 35 40  1  0  0  0  0
 41 42  1  0  0  0  0
 41 43  1  0  0  0  0
 42 44  1  0  0  0  0
 42 45  1  0  0  0  0
 42 46  1  0  0  0  0
M  END
$$$$

  -OEChem-05262217223D

 46 46  0     1  0  0  0  0  0999 V2000
   -0.5094    1.5960    3.1212 C   0  0  0  0  0  0  0  0  0  0  0  0
   -0.0264    0.6381    2.5354 O   0  0  0  0  0  0  0  0  0  0  0  0
    0.1322    2.0910    4.4033 C   0  0  0  0  0  0  0  0  0  0  0  0
   -0.6011    2.0899    5.2135 H   0  0  0  0  0  0  0  0  0  0  0  0
    0.9665    1.4417    4.6842 H   0  0  0  0  0  0  0  0  0  0  0  0
    0.5092    3.1073    4.2645 H   0  0  0  0  0  0  0  0  0  0  0  0
   -1.6108    2.2545    2.6116 N   0  0  0  0  0  0  0  0  0  0  0  0
   -2.2467    1.9617    1.3170 C   0  0  2  0  0  0  0  0  0  0  0  0
   -1.5300    2.7125    0.1482 C   0  0  0  0  0  0  0  0  0  0  0  0
   -1.8958    3.8708   -0.0404 O   0  0  0  0  0  0  0  0  0  0  0  0
   -3.7204    2.3739    1.4488 C   0  0  0  0  0  0  0  0  0  0  0  0
   -1.8781    3.1173    3.0788 H   0  0  0  0  0  0  0  0  0  0  0  0
   -2.2697    0.8873    1.1397 H   0  0  0  0  0  0  0  0  0  0  0  0
   -3.8112    3.4352    1.7023 H   0  0  0  0  0  0  0  0  0  0  0  0
   -4.2479    2.1980    0.5059 H   0  0  0  0  0  0  0  0  0  0  0  0
   -4.2100    1.7877    2.2326 H   0  0  0  0  0  0  0  0  0  0  0  0
   -0.4970    2.1932   -0.6878 N   0  0  0  0  0  0  0  0  0  0  0  0
   -0.0021    0.7378   -0.4574 C   0  0  2  0  0  0  0  0  0  0  0  0
    0.9678   -0.4291   -0.8528 C   0  0  0  0  0  0  0  0  0  0  0  0
    0.6253   -1.5623   -1.1950 O   0  0  0  0  0  0  0  0  0  0  0  0
   -0.3586    0.7095   -2.0126 C   0  0  0  0  0  0  0  0  0  0  0  0
   -1.4180    1.7178   -2.3389 C   0  0  0  0  0  0  0  0  0  0  0  0
   -0.4687    2.8056   -2.1020 C   0  0  0  0  0  0  0  0  0  0  0  0
   -0.6947    0.2192    0.1938 H   0  0  0  0  0  0  0  0  0  0  0  0
   -0.8812   -0.2181   -2.2884 H   0  0  0  0  0  0  0  0  0  0  0  0
    0.5071    0.7813   -2.6996 H   0  0  0  0  0  0  0  0  0  0  0  0
   -1.6709    1.6793   -3.4035 H   0  0  0  0  0  0  0  0  0  0  0  0
   -2.3769    1.6418   -1.8044 H   0  0  0  0  0  0  0  0  0  0  0  0
    0.5018    2.8017   -2.6162 H   0  0  0  0  0  0  0  0  0  0  0  0
   -0.9184    3.7977   -2.2145 H   0  0  0  0  0  0  0  0  0  0  0  0
    2.1546   -0.3865   -0.1410 N   0  0  0  0  0  0  0  0  0  0  0  0
    3.0134   -1.5503    0.1425 C   0  0  2  0  0  0  0  0  0  0  0  0
    2.6073   -2.3363    1.4130 C   0  0  0  0  0  0  0  0  0  0  0  0
    3.2444   -3.3308    1.7382 O   0  0  0  0  0  0  0  0  0  0  0  0
    4.4485   -1.0291    0.2611 C   0  0  0  0  0  0  0  0  0  0  0  0
    2.3175    0.4625    0.3947 H   0  0  0  0  0  0  0  0  0  0  0  0
    2.9766   -2.2526   -0.6975 H   0  0  0  0  0  0  0  0  0  0  0  0
    4.5423   -0.3498    1.1138 H   0  0  0  0  0  0  0  0  0  0  0  0
    5.1445   -1.8622    0.4039 H   0  0  0  0  0  0  0  0  0  0  0  0
    4.7359   -0.4946   -0.6494 H   0  0  0  0  0  0  0  0  0  0  0  0
    1.5989   -1.8922    2.2519 N   0  0  0  0  0  0  0  0  0  0  0  0
    1.1725   -2.6095    3.4450 C   0  0  0  0  0  0  0  0  0  0  0  0
    1.0782   -1.0593    1.9742 H   0  0  0  0  0  0  0  0  0  0  0  0
    0.7941   -3.6020    3.1788 H   0  0  0  0  0  0  0  0  0  0  0  0
    2.0081   -2.7247    4.1431 H   0  0  0  0  0  0  0  0  0  0  0  0
    0.3738   -2.0574    3.9495 H   0  0  0  0  0  0  0  0  0  0  0  0
  1  2  2  0  0  0  0
  1  3  1  0  0  0  0
  1  7  1  0  0  0  0
  3  4  1  0  0  0  0
  3  5  1  0  0  0  0
  3  6  1  0  0  0  0
  7  8  1  0  0  0  0
  7 12  1  0  0  0  0
  8  9  1  0  0  0  0
  8 11  1  0  0  0  0
  8 13  1  0  0  0  0
  9 10  2  0  0  0  0
  9 17  1  0  0  0  0
 11 14  1  0  0  0  0
 11 15  1  0  0  0  0
 11 16  1  0  0  0  0
 17 18  1  0  0  0  0
 17 23  1  0  0  0  0
 18 19  1  0  0  0  0
 18 21  1  0  0  0  0
 18 24  1  0  0  0  0
 19 20  2  0  0  0  0
 19 31  1  0  0  0  0
 21 22  1  0  0  0  0
 21 25  1  0  0  0  0
 21 26  1  0  0  0  0
 22 23  1  0  0  0  0
 22 27  1  0  0  0  0
 22 28  1  0  0  0  0
 23 29  1  0  0  0  0
 23 30  1  0  0  0  0
 31 32  1  0  0  0  0
 31 36  1  0  0  0  0
 32 33  1  0  0  0  0
 32 35  1  0  0  0  0
 32 37  1  0  0  0  0
 33 34  2  0  0  0  0
 33 41  1  0  0  0  0
 35 38  1  0  0  0  0
 35 39  1  0  0  0  0
 35 40  1  0  0  0  0
 41 42  1  0  0  0  0
 41 43  1  0  0  0  0
 42 44  1  0  0  0  0
 42 45  1  0  0  0  0
 42 46  1  0  0  0  0
M  END
$$$$

  -OEChem-05262217223D

 46 46  0     1  0  0  0  0  0999 V2000
   -0.8631    1.0659    3.0456 C   0  0  0  0  0  0  0  0  0  0  0  0
   -0.4153    0.1632    2.3520 O   0  0  0  0  0  0  0  0  0  0  0  0
   -0.3615    1.2369    4.4672 C   0  0  0  0  0  0  0  0  0  0  0  0
   -1.1800    1.0732    5.1729 H   0  0  0  0  0  0  0  0  0  0  0  0
    0.4349    0.5175    4.6780 H   0  0  0  0  0  0  0  0  0  0  0  0
    0.0330    2.2467    4.6061 H   0  0  0  0  0  0  0  0  0  0  0  0
   -1.8026    1.9466    2.5473 N   0  0  0  0  0  0  0  0  0  0  0  0
   -2.2947    1.9719    1.1603 C   0  0  2  0  0  0  0  0  0  0  0  0
   -1.3665    2.8279    0.2384 C   0  0  0  0  0  0  0  0  0  0  0  0
   -1.5890    4.0368    0.2406 O   0  0  0  0  0  0  0  0  0  0  0  0
   -3.7241    2.5318    1.2131 C   0  0  0  0  0  0  0  0  0  0  0  0
   -2.0349    2.7411    3.1382 H   0  0  0  0  0  0  0  0  0  0  0  0
   -2.4040    0.9587    0.7761 H   0  0  0  0  0  0  0  0  0  0  0  0
   -3.7385    3.5317    1.6592 H   0  0  0  0  0  0  0  0  0  0  0  0
   -4.1414    2.5987    0.2034 H   0  0  0  0  0  0  0  0  0  0  0  0
   -4.3670    1.8773    1.8095 H   0  0  0  0  0  0  0  0  0  0  0  0
   -0.2929    2.3458   -0.5714 N   0  0  0  0  0  0  0  0  0  0  0  0
    0.0183    0.8210   -0.5715 C   0  0  2  0  0  0  0  0  0  0  0  0
    0.9167   -0.3763   -1.0824 C   0  0  0  0  0  0  0  0  0  0  0  0
    0.6891   -1.2485   -1.9264 O   0  0  0  0  0  0  0  0  0  0  0  0
   -0.2131    1.1204   -2.1184 C   0  0  0  0  0  0  0  0  0  0  0  0
   -1.1175    2.2897   -2.3492 C   0  0  0  0  0  0  0  0  0  0  0  0
   -0.0657    3.1817   -1.8506 C   0  0  0  0  0  0  0  0  0  0  0  0
   -0.7800    0.2846   -0.0752 H   0  0  0  0  0  0  0  0  0  0  0  0
   -0.8263    0.3269   -2.5689 H   0  0  0  0  0  0  0  0  0  0  0  0
    0.7074    1.1811   -2.7311 H   0  0  0  0  0  0  0  0  0  0  0  0
   -1.2635    2.4591   -3.4208 H   0  0  0  0  0  0  0  0  0  0  0  0
   -2.1274    2.2517   -1.9164 H   0  0  0  0  0  0  0  0  0  0  0  0
    0.9404    3.1383   -2.2898 H   0  0  0  0  0  0  0  0  0  0  0  0
   -0.3782    4.2302   -1.8087 H   0  0  0  0  0  0  0  0  0  0  0  0
    1.7706   -0.7849   -0.0715 N   0  0  0  0  0  0  0  0  0  0  0  0
    2.4167   -2.1048    0.0551 C   0  0  2  0  0  0  0  0  0  0  0  0
    2.3680   -2.6459    1.5051 C   0  0  0  0  0  0  0  0  0  0  0  0
    3.1815   -3.4758    1.8913 O   0  0  0  0  0  0  0  0  0  0  0  0
    3.8517   -1.9625   -0.4653 C   0  0  0  0  0  0  0  0  0  0  0  0
    1.8321   -0.1571    0.7275 H   0  0  0  0  0  0  0  0  0  0  0  0
    1.8966   -2.8479   -0.5580 H   0  0  0  0  0  0  0  0  0  0  0  0
    4.4194   -1.2640    0.1572 H   0  0  0  0  0  0  0  0  0  0  0  0
    4.3600   -2.9318   -0.4533 H   0  0  0  0  0  0  0  0  0  0  0  0
    3.8460   -1.5917   -1.4948 H   0  0  0  0  0  0  0  0  0  0  0  0
    1.4317   -2.1730    2.4099 N   0  0  0  0  0  0  0  0  0  0  0  0
    1.3448   -2.6323    3.7896 C   0  0  0  0  0  0  0  0  0  0  0  0
    0.7443   -1.4935    2.0782 H   0  0  0  0  0  0  0  0  0  0  0  0
    1.2079   -3.7181    3.8251 H   0  0  0  0  0  0  0  0  0  0  0  0
    2.2567   -2.3729    4.3375 H   0  0  0  0  0  0  0  0  0  0  0  0
    0.4936   -2.1607    4.2898 H   0  0  0  0  0  0  0  0  0  0  0  0
  1  2  2  0  0  0  0
  1  3  1  0  0  0  0
  1  7  1  0  0  0  0
  3  4  1  0  0  0  0
  3  5  1  0  0  0  0
  3  6  1  0  0  0  0
  7  8  1  0  0  0  0
  7 12  1  0  0  0  0
  8  9  1  0  0  0  0
  8 11  1  0  0  0  0
  8 13  1  0  0  0  0
  9 10  2  0  0  0  0
  9 17  1  0  0  0  0
 11 14  1  0  0  0  0
 11 15  1  0  0  0  0
 11 16  1  0  0  0  0
 17 18  1  0  0  0  0
 17 23  1  0  0  0  0
 18 19  1  0  0  0  0
 18 21  1  0  0  0  0
 18 24  1  0  0  0  0
 19 20  2  0  0  0  0
 19 31  1  0  0  0  0
 21 22  1  0  0  0  0
 21 25  1  0  0  0  0
 21 26  1  0  0  0  0
 22 23  1  0  0  0  0
 22 27  1  0  0  0  0
 22 28  1  0  0  0  0
 23 29  1  0  0  0  0
 23 30  1  0  0  0  0
 31 32  1  0  0  0  0
 31 36  1  0  0  0  0
 32 33  1  0  0  0  0
 32 35  1  0  0  0  0
 32 37  1  0  0  0  0
 33 34  2  0  0  0  0
 33 41  1  0  0  0  0
 35 38  1  0  0  0  0
 35 39  1  0  0  0  0
 35 40  1  0  0  0  0
 41 42  1  0  0  0  0
 41 43  1  0  0  0  0
 42 44  1  0  0  0  0
 42 45  1  0  0  0  0
 42 46  1  0  0  0  0
M  END
$$$$

  -OEChem-05262217223D

 46 46  0     1  0  0  0  0  0999 V2000
   -1.4973    0.7616    2.6112 C   0  0  0  0  0  0  0  0  0  0  0  0
   -1.9899   -0.1593    1.9799 O   0  0  0  0  0  0  0  0  0  0  0  0
   -0.7531    0.4855    3.9037 C   0  0  0  0  0  0  0  0  0  0  0  0
   -1.2234    1.0234    4.7303 H   0  0  0  0  0  0  0  0  0  0  0  0
   -0.7681   -0.5858    4.1253 H   0  0  0  0  0  0  0  0  0  0  0  0
    0.2880    0.8055    3.8134 H   0  0  0  0  0  0  0  0  0  0  0  0
   -1.5885    2.0534    2.1285 N   0  0  0  0  0  0  0  0  0  0  0  0
   -2.3007    2.4534    0.8991 C   0  0  2  0  0  0  0  0  0  0  0  0
   -1.3770    3.2208   -0.0982 C   0  0  0  0  0  0  0  0  0  0  0  0
   -1.6007    4.4194   -0.2520 O   0  0  0  0  0  0  0  0  0  0  0  0
   -3.5189    3.2710    1.3553 C   0  0  0  0  0  0  0  0  0  0  0  0
   -1.1709    2.7860    2.6968 H   0  0  0  0  0  0  0  0  0  0  0  0
   -2.6959    1.5822    0.3680 H   0  0  0  0  0  0  0  0  0  0  0  0
   -3.2053    4.1611    1.9100 H   0  0  0  0  0  0  0  0  0  0  0  0
   -4.1077    3.5918    0.4901 H   0  0  0  0  0  0  0  0  0  0  0  0
   -4.1609    2.6651    2.0022 H   0  0  0  0  0  0  0  0  0  0  0  0
   -0.3012    2.6333   -0.8339 N   0  0  0  0  0  0  0  0  0  0  0  0
   -0.0209    1.1108   -0.6375 C   0  0  2  0  0  0  0  0  0  0  0  0
    0.8516   -0.1852   -0.9679 C   0  0  0  0  0  0  0  0  0  0  0  0
    0.9769   -0.9409   -1.9412 O   0  0  0  0  0  0  0  0  0  0  0  0
   -0.2908    1.2030   -2.1996 C   0  0  0  0  0  0  0  0  0  0  0  0
   -1.1801    2.3452   -2.5739 C   0  0  0  0  0  0  0  0  0  0  0  0
   -0.1012    3.2812   -2.2255 C   0  0  0  0  0  0  0  0  0  0  0  0
   -0.8289    0.6832   -0.0549 H   0  0  0  0  0  0  0  0  0  0  0  0
   -0.8986    0.3406   -2.5108 H   0  0  0  0  0  0  0  0  0  0  0  0
    0.6142    1.1900   -2.8359 H   0  0  0  0  0  0  0  0  0  0  0  0
   -1.3441    2.3662   -3.6559 H   0  0  0  0  0  0  0  0  0  0  0  0
   -2.1832    2.3831   -2.1282 H   0  0  0  0  0  0  0  0  0  0  0  0
    0.8921    3.1662   -2.6805 H   0  0  0  0  0  0  0  0  0  0  0  0
   -0.3996    4.3308   -2.3183 H   0  0  0  0  0  0  0  0  0  0  0  0
    1.4166   -0.6865    0.1910 N   0  0  0  0  0  0  0  0  0  0  0  0
    2.0075   -2.0176    0.3750 C   0  0  2  0  0  0  0  0  0  0  0  0
    1.8776   -2.4680    1.8465 C   0  0  0  0  0  0  0  0  0  0  0  0
    1.6645   -1.6392    2.7277 O   0  0  0  0  0  0  0  0  0  0  0  0
    3.4801   -1.9627   -0.0430 C   0  0  0  0  0  0  0  0  0  0  0  0
    1.2234   -0.1720    1.0498 H   0  0  0  0  0  0  0  0  0  0  0  0
    1.4785   -2.7496   -0.2445 H   0  0  0  0  0  0  0  0  0  0  0  0
    4.0271   -1.2461    0.5780 H   0  0  0  0  0  0  0  0  0  0  0  0
    3.9466   -2.9462    0.0650 H   0  0  0  0  0  0  0  0  0  0  0  0
    3.5667   -1.6533   -1.0895 H   0  0  0  0  0  0  0  0  0  0  0  0
    1.9966   -3.8030    2.1859 N   0  0  0  0  0  0  0  0  0  0  0  0
    1.8349   -4.2996    3.5470 C   0  0  0  0  0  0  0  0  0  0  0  0
    2.1334   -4.4697    1.4316 H   0  0  0  0  0  0  0  0  0  0  0  0
    1.9572   -5.3867    3.5704 H   0  0  0  0  0  0  0  0  0  0  0  0
    2.5842   -3.8533    4.2091 H   0  0  0  0  0  0  0  0  0  0  0  0
    0.8374   -4.0563    3.9279 H   0  0  0  0  0  0  0  0  0  0  0  0
  1  2  2  0  0  0  0
  1  3  1  0  0  0  0
  1  7  1  0  0  0  0
  3  4  1  0  0  0  0
  3  5  1  0  0  0  0
  3  6  1  0  0  0  0
  7  8  1  0  0  0  0
  7 12  1  0  0  0  0
  8  9  1  0  0  0  0
  8 11  1  0  0  0  0
  8 13  1  0  0  0  0
  9 10  2  0  0  0  0
  9 17  1  0  0  0  0
 11 14  1  0  0  0  0
 11 15  1  0  0  0  0
 11 16  1  0  0  0  0
 17 18  1  0  0  0  0
 17 23  1  0  0  0  0
 18 19  1  0  0  0  0
 18 21  1  0  0  0  0
 18 24  1  0  0  0  0
 19 20  2  0  0  0  0
 19 31  1  0  0  0  0
 21 22  1  0  0  0  0
 21 25  1  0  0  0  0
 21 26  1  0  0  0  0
 22 23  1  0  0  0  0
 22 27  1  0  0  0  0
 22 28  1  0  0  0  0
 23 29  1  0  0  0  0
 23 30  1  0  0  0  0
 31 32  1  0  0  0  0
 31 36  1  0  0  0  0
 32 33  1  0  0  0  0
 32 35  1  0  0  0  0
 32 37  1  0  0  0  0
 33 34  2  0  0  0  0
 33 41  1  0  0  0  0
 35 38  1  0  0  0  0
 35 39  1  0  0  0  0
 35 40  1  0  0  0  0
 41 42  1  0  0  0  0
 41 43  1  0  0  0  0
 42 44  1  0  0  0  0
 42 45  1  0  0  0  0
 42 46  1  0  0  0  0
M  END
$$$$

  -OEChem-05262217223D

 46 46  0     1  0  0  0  0  0999 V2000
   -2.8662    1.1311    2.6764 C   0  0  0  0  0  0  0  0  0  0  0  0
   -2.9357    0.2263    1.8578 O   0  0  0  0  0  0  0  0  0  0  0  0
   -3.1502    0.8526    4.1400 C   0  0  0  0  0  0  0  0  0  0  0  0
   -3.9192    1.5362    4.5081 H   0  0  0  0  0  0  0  0  0  0  0  0
   -3.5034   -0.1746    4.2675 H   0  0  0  0  0  0  0  0  0  0  0  0
   -2.2391    0.9882    4.7282 H   0  0  0  0  0  0  0  0  0  0  0  0
   -2.5116    2.4050    2.2813 N   0  0  0  0  0  0  0  0  0  0  0  0
   -2.0572    2.7603    0.9295 C   0  0  2  0  0  0  0  0  0  0  0  0
   -0.4979    2.8223    0.8692 C   0  0  0  0  0  0  0  0  0  0  0  0
    0.0369    3.8366    1.3116 O   0  0  0  0  0  0  0  0  0  0  0  0
   -2.7131    4.1054    0.5858 C   0  0  0  0  0  0  0  0  0  0  0  0
   -2.3416    3.0796    3.0236 H   0  0  0  0  0  0  0  0  0  0  0  0
   -2.4220    2.0254    0.2075 H   0  0  0  0  0  0  0  0  0  0  0  0
   -2.4319    4.8721    1.3149 H   0  0  0  0  0  0  0  0  0  0  0  0
   -2.4015    4.4450   -0.4061 H   0  0  0  0  0  0  0  0  0  0  0  0
   -3.8029    4.0064    0.5904 H   0  0  0  0  0  0  0  0  0  0  0  0
    0.3343    1.7696    0.3784 N   0  0  0  0  0  0  0  0  0  0  0  0
   -0.2096    0.4086   -0.1794 C   0  0  2  0  0  0  0  0  0  0  0  0
    0.6328   -0.8236   -0.6638 C   0  0  0  0  0  0  0  0  0  0  0  0
    1.8535   -0.7977   -0.8436 O   0  0  0  0  0  0  0  0  0  0  0  0
    0.0063    0.8934   -1.6721 C   0  0  0  0  0  0  0  0  0  0  0  0
   -0.1064    2.3385   -1.5734 C   0  0  0  0  0  0  0  0  0  0  0  0
    1.1679    2.4563   -0.7883 C   0  0  0  0  0  0  0  0  0  0  0  0
   -1.2339    0.1602    0.0968 H   0  0  0  0  0  0  0  0  0  0  0  0
   -0.8329    0.5155   -2.2683 H   0  0  0  0  0  0  0  0  0  0  0  0
    0.8963    0.6656   -2.2881 H   0  0  0  0  0  0  0  0  0  0  0  0
    0.0897    2.7724   -2.5593 H   0  0  0  0  0  0  0  0  0  0  0  0
   -1.0836    2.7498   -1.3339 H   0  0  0  0  0  0  0  0  0  0  0  0
    2.0542    1.8983   -1.1186 H   0  0  0  0  0  0  0  0  0  0  0  0
    1.4675    3.4955   -0.6128 H   0  0  0  0  0  0  0  0  0  0  0  0
    0.1535   -2.0422   -0.2012 N   0  0  0  0  0  0  0  0  0  0  0  0
    0.8400   -3.3549   -0.1776 C   0  0  2  0  0  0  0  0  0  0  0  0
    1.9450   -3.5113    0.8947 C   0  0  0  0  0  0  0  0  0  0  0  0
    2.0425   -4.5693    1.5029 O   0  0  0  0  0  0  0  0  0  0  0  0
    1.3731   -3.7396   -1.5652 C   0  0  0  0  0  0  0  0  0  0  0  0
   -0.7633   -2.0043    0.2399 H   0  0  0  0  0  0  0  0  0  0  0  0
    0.0754   -4.0956    0.0778 H   0  0  0  0  0  0  0  0  0  0  0  0
    2.2318   -3.1228   -1.8456 H   0  0  0  0  0  0  0  0  0  0  0  0
    1.6943   -4.7859   -1.5634 H   0  0  0  0  0  0  0  0  0  0  0  0
    0.5921   -3.6192   -2.3216 H   0  0  0  0  0  0  0  0  0  0  0  0
    2.8395   -2.4961    1.1658 N   0  0  0  0  0  0  0  0  0  0  0  0
    3.9666   -2.6229    2.0780 C   0  0  0  0  0  0  0  0  0  0  0  0
    2.7706   -1.6708    0.5644 H   0  0  0  0  0  0  0  0  0  0  0  0
    3.6144   -2.8138    3.0967 H   0  0  0  0  0  0  0  0  0  0  0  0
    4.6189   -3.4465    1.7694 H   0  0  0  0  0  0  0  0  0  0  0  0
    4.5527   -1.6989    2.0811 H   0  0  0  0  0  0  0  0  0  0  0  0
  1  2  2  0  0  0  0
  1  3  1  0  0  0  0
  1  7  1  0  0  0  0
  3  4  1  0  0  0  0
  3  5  1  0  0  0  0
  3  6  1  0  0  0  0
  7  8  1  0  0  0  0
  7 12  1  0  0  0  0
  8  9  1  0  0  0  0
  8 11  1  0  0  0  0
  8 13  1  0  0  0  0
  9 10  2  0  0  0  0
  9 17  1  0  0  0  0
 11 14  1  0  0  0  0
 11 15  1  0  0  0  0
 11 16  1  0  0  0  0
 17 18  1  0  0  0  0
 17 23  1  0  0  0  0
 18 19  1  0  0  0  0
 18 21  1  0  0  0  0
 18 24  1  0  0  0  0
 19 20  2  0  0  0  0
 19 31  1  0  0  0  0
 21 22  1  0  0  0  0
 21 25  1  0  0  0  0
 21 26  1  0  0  0  0
 22 23  1  0  0  0  0
 22 27  1  0  0  0  0
 22 28  1  0  0  0  0
 23 29  1  0  0  0  0
 23 30  1  0  0  0  0
 31 32  1  0  0  0  0
 31 36  1  0  0  0  0
 32 33  1  0  0  0  0
 32 35  1  0  0  0  0
 32 37  1  0  0  0  0
 33 34  2  0  0  0  0
 33 41  1  0  0  0  0
 35 38  1  0  0  0  0
 35 39  1  0  0  0  0
 35 40  1  0  0  0  0
 41 42  1  0  0  0  0
 41 43  1  0  0  0  0
 42 44  1  0  0  0  0
 42 45  1  0  0  0  0
 42 46  1  0  0  0  0
M  END
$$$$

  -OEChem-05262217223D

 46 46  0     1  0  0  0  0  0999 V2000
   -2.6560    0.9204    2.7818 C   0  0  0  0  0  0  0  0  0  0  0  0
   -2.8101    0.0751    1.9130 O   0  0  0  0  0  0  0  0  0  0  0  0
   -2.8226    0.5438    4.2421 C   0  0  0  0  0  0  0  0  0  0  0  0
   -1.9168    0.7946    4.7993 H   0  0  0  0  0  0  0  0  0  0  0  0
   -3.6684    1.0850    4.6727 H   0  0  0  0  0  0  0  0  0  0  0  0
   -3.0064   -0.5302    4.3369 H   0  0  0  0  0  0  0  0  0  0  0  0
   -2.3188    2.2157    2.4440 N   0  0  0  0  0  0  0  0  0  0  0  0
   -2.0008    2.6733    1.0830 C   0  0  2  0  0  0  0  0  0  0  0  0
   -0.4610    2.8429    0.8933 C   0  0  0  0  0  0  0  0  0  0  0  0
    0.0392    3.8942    1.2868 O   0  0  0  0  0  0  0  0  0  0  0  0
   -2.7653    3.9876    0.8674 C   0  0  0  0  0  0  0  0  0  0  0  0
   -2.0944    2.8432    3.2127 H   0  0  0  0  0  0  0  0  0  0  0  0
   -2.3797    1.9623    0.3454 H   0  0  0  0  0  0  0  0  0  0  0  0
   -2.4717    4.7358    1.6109 H   0  0  0  0  0  0  0  0  0  0  0  0
   -2.5592    4.3929   -0.1278 H   0  0  0  0  0  0  0  0  0  0  0  0
   -3.8428    3.8167    0.9545 H   0  0  0  0  0  0  0  0  0  0  0  0
    0.3919    1.8503    0.3214 N   0  0  0  0  0  0  0  0  0  0  0  0
   -0.1380    0.4684   -0.1921 C   0  0  2  0  0  0  0  0  0  0  0  0
    0.6460   -0.7520   -0.7774 C   0  0  0  0  0  0  0  0  0  0  0  0
    1.8692   -0.7460   -0.9304 O   0  0  0  0  0  0  0  0  0  0  0  0
   -0.0145    0.9819   -1.6877 C   0  0  0  0  0  0  0  0  0  0  0  0
   -0.1683    2.4298   -1.5838 C   0  0  0  0  0  0  0  0  0  0  0  0
    1.1409    2.5796   -0.8684 C   0  0  0  0  0  0  0  0  0  0  0  0
   -1.1395    0.2036    0.1420 H   0  0  0  0  0  0  0  0  0  0  0  0
   -0.8686    0.5848   -2.2510 H   0  0  0  0  0  0  0  0  0  0  0  0
    0.8590    0.7812   -2.3394 H   0  0  0  0  0  0  0  0  0  0  0  0
   -0.0426    2.8709   -2.5779 H   0  0  0  0  0  0  0  0  0  0  0  0
   -1.1415    2.8136   -1.2784 H   0  0  0  0  0  0  0  0  0  0  0  0
    2.0269    2.0560   -1.2526 H   0  0  0  0  0  0  0  0  0  0  0  0
    1.4147    3.6250   -0.6884 H   0  0  0  0  0  0  0  0  0  0  0  0
    0.0701   -1.9956   -0.5567 N   0  0  0  0  0  0  0  0  0  0  0  0
    0.6671   -3.3306   -0.7843 C   0  0  2  0  0  0  0  0  0  0  0  0
    1.7499   -3.7655    0.2328 C   0  0  0  0  0  0  0  0  0  0  0  0
    1.7812   -4.9306    0.6075 O   0  0  0  0  0  0  0  0  0  0  0  0
    1.1856   -3.4696   -2.2226 C   0  0  0  0  0  0  0  0  0  0  0  0
   -0.8661   -1.9775   -0.1573 H   0  0  0  0  0  0  0  0  0  0  0  0
   -0.1470   -4.0543   -0.6741 H   0  0  0  0  0  0  0  0  0  0  0  0
    2.0726   -2.8507   -2.3864 H   0  0  0  0  0  0  0  0  0  0  0  0
    1.4572   -4.5110   -2.4219 H   0  0  0  0  0  0  0  0  0  0  0  0
    0.4131   -3.1712   -2.9374 H   0  0  0  0  0  0  0  0  0  0  0  0
    2.6998   -2.8826    0.7057 N   0  0  0  0  0  0  0  0  0  0  0  0
    3.8124   -3.2660    1.5631 C   0  0  0  0  0  0  0  0  0  0  0  0
    2.6997   -1.9560    0.2713 H   0  0  0  0  0  0  0  0  0  0  0  0
    3.4459   -3.7427    2.4780 H   0  0  0  0  0  0  0  0  0  0  0  0
    4.4734   -3.9650    1.0408 H   0  0  0  0  0  0  0  0  0  0  0  0
    4.3928   -2.3821    1.8444 H   0  0  0  0  0  0  0  0  0  0  0  0
  1  2  2  0  0  0  0
  1  3  1  0  0  0  0
  1  7  1  0  0  0  0
  3  4  1  0  0  0  0
  3  5  1  0  0  0  0
  3  6  1  0  0  0  0
  7  8  1  0  0  0  0
  7 12  1  0  0  0  0
  8  9  1  0  0  0  0
  8 11  1  0  0  0  0
  8 13  1  0  0  0  0
  9 10  2  0  0  0  0
  9 17  1  0  0  0  0
 11 14  1  0  0  0  0
 11 15  1  0  0  0  0
 11 16  1  0  0  0  0
 17 18  1  0  0  0  0
 17 23  1  0  0  0  0
 18 19  1  0  0  0  0
 18 21  1  0  0  0  0
 18 24  1  0  0  0  0
 19 20  2  0  0  0  0
 19 31  1  0  0  0  0
 21 22  1  0  0  0  0
 21 25  1  0  0  0  0
 21 26  1  0  0  0  0
 22 23  1  0  0  0  0
 22 27  1  0  0  0  0
 22 28  1  0  0  0  0
 23 29  1  0  0  0  0
 23 30  1  0  0  0  0
 31 32  1  0  0  0  0
 31 36  1  0  0  0  0
 32 33  1  0  0  0  0
 32 35  1  0  0  0  0
 32 37  1  0  0  0  0
 33 34  2  0  0  0  0
 33 41  1  0  0  0  0
 35 38  1  0  0  0  0
 35 39  1  0  0  0  0
 35 40  1  0  0  0  0
 41 42  1  0  0  0  0
 41 43  1  0  0  0  0
 42 44  1  0  0  0  0
 42 45  1  0  0  0  0
 42 46  1  0  0  0  0
M  END
$$$$

  -OEChem-05262217223D

 46 46  0     1  0  0  0  0  0999 V2000
   -3.2252    1.9884    3.6335 C   0  0  0  0  0  0  0  0  0  0  0  0
   -3.6543    0.8583    3.4589 O   0  0  0  0  0  0  0  0  0  0  0  0
   -3.6277    2.7775    4.8648 C   0  0  0  0  0  0  0  0  0  0  0  0
   -4.1506    3.6899    4.5674 H   0  0  0  0  0  0  0  0  0  0  0  0
   -4.2921    2.1806    5.4960 H   0  0  0  0  0  0  0  0  0  0  0  0
   -2.7395    3.0456    5.4422 H   0  0  0  0  0  0  0  0  0  0  0  0
   -2.3785    2.5538    2.7032 N   0  0  0  0  0  0  0  0  0  0  0  0
   -1.8149    1.8409    1.5471 C   0  0  2  0  0  0  0  0  0  0  0  0
   -0.3631    2.3429    1.2421 C   0  0  0  0  0  0  0  0  0  0  0  0
   -0.0777    3.4560    1.6846 O   0  0  0  0  0  0  0  0  0  0  0  0
   -2.8397    1.9920    0.4127 C   0  0  0  0  0  0  0  0  0  0  0  0
   -1.9453    3.4456    2.9447 H   0  0  0  0  0  0  0  0  0  0  0  0
   -1.7309    0.7820    1.8084 H   0  0  0  0  0  0  0  0  0  0  0  0
   -2.9339    3.0427    0.1201 H   0  0  0  0  0  0  0  0  0  0  0  0
   -2.5529    1.4016   -0.4608 H   0  0  0  0  0  0  0  0  0  0  0  0
   -3.8227    1.6392    0.7416 H   0  0  0  0  0  0  0  0  0  0  0  0
    0.6081    1.6509    0.4504 N   0  0  0  0  0  0  0  0  0  0  0  0
    0.2260    0.2839   -0.1926 C   0  0  2  0  0  0  0  0  0  0  0  0
    0.9069   -0.8345   -1.0548 C   0  0  0  0  0  0  0  0  0  0  0  0
    2.1296   -0.8853   -1.1921 O   0  0  0  0  0  0  0  0  0  0  0  0
    0.3665    1.0853   -1.5635 C   0  0  0  0  0  0  0  0  0  0  0  0
    0.0877    2.5170   -1.3006 C   0  0  0  0  0  0  0  0  0  0  0  0
    1.3440    2.6406   -0.5176 C   0  0  0  0  0  0  0  0  0  0  0  0
   -0.7781   -0.0407    0.0797 H   0  0  0  0  0  0  0  0  0  0  0  0
   -0.4267    0.7402   -2.2422 H   0  0  0  0  0  0  0  0  0  0  0  0
    1.2903    1.0326   -2.1746 H   0  0  0  0  0  0  0  0  0  0  0  0
    0.2083    3.0834   -2.2297 H   0  0  0  0  0  0  0  0  0  0  0  0
   -0.8933    2.8233   -0.9464 H   0  0  0  0  0  0  0  0  0  0  0  0
    2.2904    2.2746   -0.9388 H   0  0  0  0  0  0  0  0  0  0  0  0
    1.5094    3.6513   -0.1297 H   0  0  0  0  0  0  0  0  0  0  0  0
    0.2459   -2.0530   -1.1473 N   0  0  0  0  0  0  0  0  0  0  0  0
    0.7561   -3.3191   -1.7228 C   0  0  2  0  0  0  0  0  0  0  0  0
    1.7720   -4.0893   -0.8462 C   0  0  0  0  0  0  0  0  0  0  0  0
    1.6979   -5.3093   -0.7806 O   0  0  0  0  0  0  0  0  0  0  0  0
    1.3126   -3.1106   -3.1392 C   0  0  0  0  0  0  0  0  0  0  0  0
   -0.7074   -2.0690   -0.7955 H   0  0  0  0  0  0  0  0  0  0  0  0
   -0.1091   -3.9824   -1.8220 H   0  0  0  0  0  0  0  0  0  0  0  0
    2.2625   -2.5683   -3.1175 H   0  0  0  0  0  0  0  0  0  0  0  0
    1.4880   -4.0799   -3.6163 H   0  0  0  0  0  0  0  0  0  0  0  0
    0.6021   -2.5473   -3.7509 H   0  0  0  0  0  0  0  0  0  0  0  0
    2.7676   -3.4354   -0.1495 N   0  0  0  0  0  0  0  0  0  0  0  0
    3.8157   -4.1145    0.5996 C   0  0  0  0  0  0  0  0  0  0  0  0
    2.8539   -2.4327   -0.3344 H   0  0  0  0  0  0  0  0  0  0  0  0
    3.3815   -4.8045    1.3307 H   0  0  0  0  0  0  0  0  0  0  0  0
    4.4635   -4.6802   -0.0778 H   0  0  0  0  0  0  0  0  0  0  0  0
    4.4269   -3.3841    1.1384 H   0  0  0  0  0  0  0  0  0  0  0  0
  1  2  2  0  0  0  0
  1  3  1  0  0  0  0
  1  7  1  0  0  0  0
  3  4  1  0  0  0  0
  3  5  1  0  0  0  0
  3  6  1  0  0  0  0
  7  8  1  0  0  0  0
  7 12  1  0  0  0  0
  8  9  1  0  0  0  0
  8 11  1  0  0  0  0
  8 13  1  0  0  0  0
  9 10  2  0  0  0  0
  9 17  1  0  0  0  0
 11 14  1  0  0  0  0
 11 15  1  0  0  0  0
 11 16  1  0  0  0  0
 17 18  1  0  0  0  0
 17 23  1  0  0  0  0
 18 19  1  0  0  0  0
 18 21  1  0  0  0  0
 18 24  1  0  0  0  0
 19 20  2  0  0  0  0
 19 31  1  0  0  0  0
 21 22  1  0  0  0  0
 21 25  1  0  0  0  0
 21 26  1  0  0  0  0
 22 23  1  0  0  0  0
 22 27  1  0  0  0  0
 22 28  1  0  0  0  0
 23 29  1  0  0  0  0
 23 30  1  0  0  0  0
 31 32  1  0  0  0  0
 31 36  1  0  0  0  0
 32 33  1  0  0  0  0
 32 35  1  0  0  0  0
 32 37  1  0  0  0  0
 33 34  2  0  0  0  0
 33 41  1  0  0  0  0
 35 38  1  0  0  0  0
 35 39  1  0  0  0  0
 35 40  1  0  0  0  0
 41 42  1  0  0  0  0
 41 43  1  0  0  0  0
 42 44  1  0  0  0  0
 42 45  1  0  0  0  0
 42 46  1  0  0  0  0
M  END
$$$$

  -OEChem-05262217223D

 46 46  0     1  0  0  0  0  0999 V2000
   -2.3621    0.7640    2.6825 C   0  0  0  0  0  0  0  0  0  0  0  0
   -2.6908    0.0450    1.7513 O   0  0  0  0  0  0  0  0  0  0  0  0
   -2.4123    0.2355    4.1037 C   0  0  0  0  0  0  0  0  0  0  0  0
   -3.0875    0.8480    4.7061 H   0  0  0  0  0  0  0  0  0  0  0  0
   -2.7743   -0.7965    4.1105 H   0  0  0  0  0  0  0  0  0  0  0  0
   -1.4141    0.2612    4.5480 H   0  0  0  0  0  0  0  0  0  0  0  0
   -1.9382    2.0566    2.4489 N   0  0  0  0  0  0  0  0  0  0  0  0
   -1.7390    2.6484    1.1175 C   0  0  2  0  0  0  0  0  0  0  0  0
   -0.2248    2.7823    0.7763 C   0  0  0  0  0  0  0  0  0  0  0  0
    0.3505    3.8017    1.1496 O   0  0  0  0  0  0  0  0  0  0  0  0
   -2.4595    4.0043    1.1186 C   0  0  0  0  0  0  0  0  0  0  0  0
   -1.5875    2.5750    3.2508 H   0  0  0  0  0  0  0  0  0  0  0  0
   -2.2230    2.0403    0.3501 H   0  0  0  0  0  0  0  0  0  0  0  0
   -2.0582    4.6590    1.8993 H   0  0  0  0  0  0  0  0  0  0  0  0
   -2.3340    4.5029    0.1526 H   0  0  0  0  0  0  0  0  0  0  0  0
   -3.5297    3.8641    1.2993 H   0  0  0  0  0  0  0  0  0  0  0  0
    0.5150    1.8096    0.0475 N   0  0  0  0  0  0  0  0  0  0  0  0
   -0.1301    0.4995   -0.4926 C   0  0  2  0  0  0  0  0  0  0  0  0
    0.7079   -0.7339   -0.9331 C   0  0  0  0  0  0  0  0  0  0  0  0
    1.9260   -0.7537   -0.7902 O   0  0  0  0  0  0  0  0  0  0  0  0
   -0.0238    0.9901   -1.9735 C   0  0  0  0  0  0  0  0  0  0  0  0
   -0.0685    2.4509   -1.7840 C   0  0  0  0  0  0  0  0  0  0  0  0
    1.2626    2.5336   -1.1274 C   0  0  0  0  0  0  0  0  0  0  0  0
   -1.1286    0.2540   -0.1340 H   0  0  0  0  0  0  0  0  0  0  0  0
   -0.9093    0.6592   -2.5285 H   0  0  0  0  0  0  0  0  0  0  0  0
    0.8441    0.7120   -2.6008 H   0  0  0  0  0  0  0  0  0  0  0  0
    0.0243    2.9324   -2.7627 H   0  0  0  0  0  0  0  0  0  0  0  0
   -0.9990    2.8710   -1.3908 H   0  0  0  0  0  0  0  0  0  0  0  0
    2.1025    1.9758   -1.5614 H   0  0  0  0  0  0  0  0  0  0  0  0
    1.5848    3.5614   -0.9287 H   0  0  0  0  0  0  0  0  0  0  0  0
    0.0590   -1.8677   -1.4042 N   0  0  0  0  0  0  0  0  0  0  0  0
    0.6793   -3.1194   -1.8898 C   0  0  2  0  0  0  0  0  0  0  0  0
    1.3871   -3.9760   -0.8126 C   0  0  0  0  0  0  0  0  0  0  0  0
    1.1926   -5.1844   -0.7875 O   0  0  0  0  0  0  0  0  0  0  0  0
    1.6241   -2.8462   -3.0688 C   0  0  0  0  0  0  0  0  0  0  0  0
   -0.9570   -1.8383   -1.3739 H   0  0  0  0  0  0  0  0  0  0  0  0
   -0.1356   -3.7410   -2.2752 H   0  0  0  0  0  0  0  0  0  0  0  0
    2.5229   -2.3149   -2.7427 H   0  0  0  0  0  0  0  0  0  0  0  0
    1.9362   -3.7912   -3.5245 H   0  0  0  0  0  0  0  0  0  0  0  0
    1.1196   -2.2451   -3.8309 H   0  0  0  0  0  0  0  0  0  0  0  0
    2.2569   -3.4155    0.1011 N   0  0  0  0  0  0  0  0  0  0  0  0
    3.0149   -4.1779    1.0829 C   0  0  0  0  0  0  0  0  0  0  0  0
    2.4338   -2.4126   -0.0023 H   0  0  0  0  0  0  0  0  0  0  0  0
    2.3392   -4.7350    1.7399 H   0  0  0  0  0  0  0  0  0  0  0  0
    3.6863   -4.8845    0.5839 H   0  0  0  0  0  0  0  0  0  0  0  0
    3.6170   -3.5036    1.6994 H   0  0  0  0  0  0  0  0  0  0  0  0
  1  2  2  0  0  0  0
  1  3  1  0  0  0  0
  1  7  1  0  0  0  0
  3  4  1  0  0  0  0
  3  5  1  0  0  0  0
  3  6  1  0  0  0  0
  7  8  1  0  0  0  0
  7 12  1  0  0  0  0
  8  9  1  0  0  0  0
  8 11  1  0  0  0  0
  8 13  1  0  0  0  0
  9 10  2  0  0  0  0
  9 17  1  0  0  0  0
 11 14  1  0  0  0  0
 11 15  1  0  0  0  0
 11 16  1  0  0  0  0
 17 18  1  0  0  0  0
 17 23  1  0  0  0  0
 18 19  1  0  0  0  0
 18 21  1  0  0  0  0
 18 24  1  0  0  0  0
 19 20  2  0  0  0  0
 19 31  1  0  0  0  0
 21 22  1  0  0  0  0
 21 25  1  0  0  0  0
 21 26  1  0  0  0  0
 22 23  1  0  0  0  0
 22 27  1  0  0  0  0
 22 28  1  0  0  0  0
 23 29  1  0  0  0  0
 23 30  1  0  0  0  0
 31 32  1  0  0  0  0
 31 36  1  0  0  0  0
 32 33  1  0  0  0  0
 32 35  1  0  0  0  0
 32 37  1  0  0  0  0
 33 34  2  0  0  0  0
 33 41  1  0  0  0  0
 35 38  1  0  0  0  0
 35 39  1  0  0  0  0
 35 40  1  0  0  0  0
 41 42  1  0  0  0  0
 41 43  1  0  0  0  0
 42 44  1  0  0  0  0
 42 45  1  0  0  0  0
 42 46  1  0  0  0  0
M  END
$$$$

  -OEChem-05262217223D

 46 46  0     1  0  0  0  0  0999 V2000
   -2.3315    0.5048    2.5311 C   0  0  0  0  0  0  0  0  0  0  0  0
   -2.6920   -0.1424    1.5601 O   0  0  0  0  0  0  0  0  0  0  0  0
   -2.3281   -0.1313    3.9084 C   0  0  0  0  0  0  0  0  0  0  0  0
   -2.9505    0.4519    4.5918 H   0  0  0  0  0  0  0  0  0  0  0  0
   -2.7248   -1.1492    3.8553 H   0  0  0  0  0  0  0  0  0  0  0  0
   -1.3082   -0.1715    4.2996 H   0  0  0  0  0  0  0  0  0  0  0  0
   -1.9197    1.8135    2.3817 N   0  0  0  0  0  0  0  0  0  0  0  0
   -1.7937    2.5182    1.0970 C   0  0  2  0  0  0  0  0  0  0  0  0
   -0.3019    2.7959    0.7452 C   0  0  0  0  0  0  0  0  0  0  0  0
    0.1817    3.8602    1.1236 O   0  0  0  0  0  0  0  0  0  0  0  0
   -2.6201    3.8062    1.2123 C   0  0  0  0  0  0  0  0  0  0  0  0
   -1.5632    2.2810    3.2121 H   0  0  0  0  0  0  0  0  0  0  0  0
   -2.2411    1.9355    0.2888 H   0  0  0  0  0  0  0  0  0  0  0  0
   -2.2622    4.4252    2.0415 H   0  0  0  0  0  0  0  0  0  0  0  0
   -2.5464    4.3887    0.2888 H   0  0  0  0  0  0  0  0  0  0  0  0
   -3.6735    3.5664    1.3872 H   0  0  0  0  0  0  0  0  0  0  0  0
    0.5137    1.9042   -0.0061 N   0  0  0  0  0  0  0  0  0  0  0  0
   -0.0358    0.5531   -0.5520 C   0  0  2  0  0  0  0  0  0  0  0  0
    0.8560   -0.6293   -1.0323 C   0  0  0  0  0  0  0  0  0  0  0  0
    2.0437   -0.6597   -0.7327 O   0  0  0  0  0  0  0  0  0  0  0  0
    0.0519    1.0964   -2.0190 C   0  0  0  0  0  0  0  0  0  0  0  0
   -0.0940    2.5520   -1.8228 C   0  0  0  0  0  0  0  0  0  0  0  0
    1.2233    2.7039   -1.1521 C   0  0  0  0  0  0  0  0  0  0  0  0
   -1.0213    0.2438   -0.2079 H   0  0  0  0  0  0  0  0  0  0  0  0
   -0.8038    0.7230   -2.5929 H   0  0  0  0  0  0  0  0  0  0  0  0
    0.9433    0.8840   -2.6396 H   0  0  0  0  0  0  0  0  0  0  0  0
   -0.0244    3.0485   -2.7961 H   0  0  0  0  0  0  0  0  0  0  0  0
   -1.0509    2.9086   -1.4285 H   0  0  0  0  0  0  0  0  0  0  0  0
    2.1031    2.2145   -1.5895 H   0  0  0  0  0  0  0  0  0  0  0  0
    1.4763    3.7450   -0.9229 H   0  0  0  0  0  0  0  0  0  0  0  0
    0.3160   -1.6699   -1.7821 N   0  0  0  0  0  0  0  0  0  0  0  0
    1.0319   -2.8309   -2.3533 C   0  0  2  0  0  0  0  0  0  0  0  0
    1.5882   -3.8387   -1.3196 C   0  0  0  0  0  0  0  0  0  0  0  0
    1.3390   -5.0299   -1.4511 O   0  0  0  0  0  0  0  0  0  0  0  0
    2.1343   -2.3790   -3.3215 C   0  0  0  0  0  0  0  0  0  0  0  0
   -0.6934   -1.6484   -1.9017 H   0  0  0  0  0  0  0  0  0  0  0  0
    0.3001   -3.3875   -2.9479 H   0  0  0  0  0  0  0  0  0  0  0  0
    2.9567   -1.8919   -2.7892 H   0  0  0  0  0  0  0  0  0  0  0  0
    2.5408   -3.2442   -3.8551 H   0  0  0  0  0  0  0  0  0  0  0  0
    1.7304   -1.6774   -4.0573 H   0  0  0  0  0  0  0  0  0  0  0  0
    2.3799   -3.4281   -0.2661 N   0  0  0  0  0  0  0  0  0  0  0  0
    2.9631   -4.3279    0.7185 C   0  0  0  0  0  0  0  0  0  0  0  0
    2.5610   -2.4225   -0.2012 H   0  0  0  0  0  0  0  0  0  0  0  0
    2.1763   -4.8398    1.2821 H   0  0  0  0  0  0  0  0  0  0  0  0
    3.5918   -5.0779    0.2271 H   0  0  0  0  0  0  0  0  0  0  0  0
    3.5837   -3.7643    1.4217 H   0  0  0  0  0  0  0  0  0  0  0  0
  1  2  2  0  0  0  0
  1  3  1  0  0  0  0
  1  7  1  0  0  0  0
  3  4  1  0  0  0  0
  3  5  1  0  0  0  0
  3  6  1  0  0  0  0
  7  8  1  0  0  0  0
  7 12  1  0  0  0  0
  8  9  1  0  0  0  0
  8 11  1  0  0  0  0
  8 13  1  0  0  0  0
  9 10  2  0  0  0  0
  9 17  1  0  0  0  0
 11 14  1  0  0  0  0
 11 15  1  0  0  0  0
 11 16  1  0  0  0  0
 17 18  1  0  0  0  0
 17 23  1  0  0  0  0
 18 19  1  0  0  0  0
 18 21  1  0  0  0  0
 18 24  1  0  0  0  0
 19 20  2  0  0  0  0
 19 31  1  0  0  0  0
 21 22  1  0  0  0  0
 21 25  1  0  0  0  0
 21 26  1  0  0  0  0
 22 23  1  0  0  0  0
 22 27  1  0  0  0  0
 22 28  1  0  0  0  0
 23 29  1  0  0  0  0
 23 30  1  0  0  0  0
 31 32  1  0  0  0  0
 31 36  1  0  0  0  0
 32 33  1  0  0  0  0
 32 35  1  0  0  0  0
 32 37  1  0  0  0  0
 33 34  2  0  0  0  0
 33 41  1  0  0  0  0
 35 38  1  0  0  0  0
 35 39  1  0  0  0  0
 35 40  1  0  0  0  0
 41 42  1  0  0  0  0
 41 43  1  0  0  0  0
 42 44  1  0  0  0  0
 42 45  1  0  0  0  0
 42 46  1  0  0  0  0
M  END
$$$$

  -OEChem-05262217223D

 46 46  0     1  0  0  0  0  0999 V2000
   -2.2151    0.2767    2.3928 C   0  0  0  0  0  0  0  0  0  0  0  0
   -2.6647   -0.2720    1.3988 O   0  0  0  0  0  0  0  0  0  0  0  0
   -2.1187   -0.4845    3.7013 C   0  0  0  0  0  0  0  0  0  0  0  0
   -2.6787    0.0385    4.4804 H   0  0  0  0  0  0  0  0  0  0  0  0
   -2.5337   -1.4899    3.5852 H   0  0  0  0  0  0  0  0  0  0  0  0
   -1.0733   -0.5690    4.0083 H   0  0  0  0  0  0  0  0  0  0  0  0
   -1.7839    1.5863    2.3292 N   0  0  0  0  0  0  0  0  0  0  0  0
   -1.7850    2.4214    1.1178 C   0  0  2  0  0  0  0  0  0  0  0  0
   -0.3411    2.8407    0.7100 C   0  0  0  0  0  0  0  0  0  0  0  0
    0.0578    3.9434    1.0767 O   0  0  0  0  0  0  0  0  0  0  0  0
   -2.6933    3.6239    1.4102 C   0  0  0  0  0  0  0  0  0  0  0  0
   -1.3715    1.9779    3.1729 H   0  0  0  0  0  0  0  0  0  0  0  0
   -2.2361    1.8887    0.2770 H   0  0  0  0  0  0  0  0  0  0  0  0
   -2.3207    4.1939    2.2674 H   0  0  0  0  0  0  0  0  0  0  0  0
   -2.7333    4.2898    0.5427 H   0  0  0  0  0  0  0  0  0  0  0  0
   -3.7097    3.2849    1.6330 H   0  0  0  0  0  0  0  0  0  0  0  0
    0.5222    2.0313   -0.0817 N   0  0  0  0  0  0  0  0  0  0  0  0
    0.0595    0.6394   -0.6078 C   0  0  2  0  0  0  0  0  0  0  0  0
    0.9910   -0.4952   -1.1438 C   0  0  0  0  0  0  0  0  0  0  0  0
    2.1312   -0.5673   -0.7044 O   0  0  0  0  0  0  0  0  0  0  0  0
    0.0738    1.2270   -2.0636 C   0  0  0  0  0  0  0  0  0  0  0  0
   -0.1717    2.6705   -1.8664 C   0  0  0  0  0  0  0  0  0  0  0  0
    1.1482    2.8982   -1.2247 C   0  0  0  0  0  0  0  0  0  0  0  0
   -0.8999    0.2725   -0.2478 H   0  0  0  0  0  0  0  0  0  0  0  0
   -0.7678    0.8079   -2.6270 H   0  0  0  0  0  0  0  0  0  0  0  0
    0.9638    1.0810   -2.7048 H   0  0  0  0  0  0  0  0  0  0  0  0
   -0.1572    3.1718   -2.8397 H   0  0  0  0  0  0  0  0  0  0  0  0
   -1.1392    2.9627   -1.4444 H   0  0  0  0  0  0  0  0  0  0  0  0
    2.0506    2.4808   -1.6899 H   0  0  0  0  0  0  0  0  0  0  0  0
    1.3329    3.9503   -0.9822 H   0  0  0  0  0  0  0  0  0  0  0  0
    0.5880   -1.4175   -2.1101 N   0  0  0  0  0  0  0  0  0  0  0  0
    1.4029   -2.4796   -2.7387 C   0  0  2  0  0  0  0  0  0  0  0  0
    1.8436   -3.6246   -1.7957 C   0  0  0  0  0  0  0  0  0  0  0  0
    1.6656   -4.7855   -2.1405 O   0  0  0  0  0  0  0  0  0  0  0  0
    2.6119   -1.8868   -3.4760 C   0  0  0  0  0  0  0  0  0  0  0  0
   -0.3937   -1.3788   -2.3705 H   0  0  0  0  0  0  0  0  0  0  0  0
    0.7699   -2.9486   -3.4992 H   0  0  0  0  0  0  0  0  0  0  0  0
    3.3455   -1.4790   -2.7746 H   0  0  0  0  0  0  0  0  0  0  0  0
    3.1049   -2.6636   -4.0692 H   0  0  0  0  0  0  0  0  0  0  0  0
    2.2919   -1.0877   -4.1508 H   0  0  0  0  0  0  0  0  0  0  0  0
    2.4523   -3.3675   -0.5840 N   0  0  0  0  0  0  0  0  0  0  0  0
    2.9303   -4.3976    0.3268 C   0  0  0  0  0  0  0  0  0  0  0  0
    2.6033   -2.3814   -0.3548 H   0  0  0  0  0  0  0  0  0  0  0  0
    2.1078   -5.0548    0.6279 H   0  0  0  0  0  0  0  0  0  0  0  0
    3.7076   -5.0010   -0.1534 H   0  0  0  0  0  0  0  0  0  0  0  0
    3.3531   -3.9385    1.2256 H   0  0  0  0  0  0  0  0  0  0  0  0
  1  2  2  0  0  0  0
  1  3  1  0  0  0  0
  1  7  1  0  0  0  0
  3  4  1  0  0  0  0
  3  5  1  0  0  0  0
  3  6  1  0  0  0  0
  7  8  1  0  0  0  0
  7 12  1  0  0  0  0
  8  9  1  0  0  0  0
  8 11  1  0  0  0  0
  8 13  1  0  0  0  0
  9 10  2  0  0  0  0
  9 17  1  0  0  0  0
 11 14  1  0  0  0  0
 11 15  1  0  0  0  0
 11 16  1  0  0  0  0
 17 18  1  0  0  0  0
 17 23  1  0  0  0  0
 18 19  1  0  0  0  0
 18 21  1  0  0  0  0
 18 24  1  0  0  0  0
 19 20  2  0  0  0  0
 19 31  1  0  0  0  0
 21 22  1  0  0  0  0
 21 25  1  0  0  0  0
 21 26  1  0  0  0  0
 22 23  1  0  0  0  0
 22 27  1  0  0  0  0
 22 28  1  0  0  0  0
 23 29  1  0  0  0  0
 23 30  1  0  0  0  0
 31 32  1  0  0  0  0
 31 36  1  0  0  0  0
 32 33  1  0  0  0  0
 32 35  1  0  0  0  0
 32 37  1  0  0  0  0
 33 34  2  0  0  0  0
 33 41  1  0  0  0  0
 35 38  1  0  0  0  0
 35 39  1  0  0  0  0
 35 40  1  0  0  0  0
 41 42  1  0  0  0  0
 41 43  1  0  0  0  0
 42 44  1  0  0  0  0
 42 45  1  0  0  0  0
 42 46  1  0  0  0  0
M  END
$$$$

  -OEChem-05262217223D

 46 46  0     1  0  0  0  0  0999 V2000
   -2.0627    0.0772    2.1941 C   0  0  0  0  0  0  0  0  0  0  0  0
   -2.6176   -0.3782    1.2062 O   0  0  0  0  0  0  0  0  0  0  0  0
   -1.7996   -0.8129    3.3939 C   0  0  0  0  0  0  0  0  0  0  0  0
   -2.2661   -0.3869    4.2855 H   0  0  0  0  0  0  0  0  0  0  0  0
   -2.2153   -1.8100    3.2227 H   0  0  0  0  0  0  0  0  0  0  0  0
   -0.7237   -0.9049    3.5617 H   0  0  0  0  0  0  0  0  0  0  0  0
   -1.6467    1.3933    2.2122 N   0  0  0  0  0  0  0  0  0  0  0  0
   -1.7954    2.3456    1.0993 C   0  0  2  0  0  0  0  0  0  0  0  0
   -0.4199    2.9220    0.6483 C   0  0  0  0  0  0  0  0  0  0  0  0
   -0.1329    4.0641    0.9984 O   0  0  0  0  0  0  0  0  0  0  0  0
   -2.7756    3.4294    1.5701 C   0  0  0  0  0  0  0  0  0  0  0  0
   -1.1595    1.7109    3.0468 H   0  0  0  0  0  0  0  0  0  0  0  0
   -2.2542    1.8621    0.2327 H   0  0  0  0  0  0  0  0  0  0  0  0
   -2.3919    3.9413    2.4588 H   0  0  0  0  0  0  0  0  0  0  0  0
   -2.9283    4.1725    0.7812 H   0  0  0  0  0  0  0  0  0  0  0  0
   -3.7439    2.9826    1.8160 H   0  0  0  0  0  0  0  0  0  0  0  0
    0.5009    2.2075   -0.1712 N   0  0  0  0  0  0  0  0  0  0  0  0
    0.1554    0.7718   -0.6723 C   0  0  2  0  0  0  0  0  0  0  0  0
    1.1448   -0.3055   -1.2443 C   0  0  0  0  0  0  0  0  0  0  0  0
    2.1956   -0.4535   -0.6357 O   0  0  0  0  0  0  0  0  0  0  0  0
    0.0778    1.3846   -2.1173 C   0  0  0  0  0  0  0  0  0  0  0  0
   -0.2936    2.8041   -1.9284 C   0  0  0  0  0  0  0  0  0  0  0  0
    1.0188    3.1374   -1.3182 C   0  0  0  0  0  0  0  0  0  0  0  0
   -0.7670    0.3336   -0.2966 H   0  0  0  0  0  0  0  0  0  0  0  0
   -0.7382    0.8962   -2.6628 H   0  0  0  0  0  0  0  0  0  0  0  0
    0.9623    1.3219   -2.7782 H   0  0  0  0  0  0  0  0  0  0  0  0
   -0.3447    3.2968   -2.9046 H   0  0  0  0  0  0  0  0  0  0  0  0
   -1.2706    3.0188   -1.4830 H   0  0  0  0  0  0  0  0  0  0  0  0
    1.9430    2.8090   -1.8112 H   0  0  0  0  0  0  0  0  0  0  0  0
    1.1184    4.1982   -1.0645 H   0  0  0  0  0  0  0  0  0  0  0  0
    0.9359   -1.0998   -2.3766 N   0  0  0  0  0  0  0  0  0  0  0  0
    1.8612   -2.0903   -2.9683 C   0  0  2  0  0  0  0  0  0  0  0  0
    2.1335   -3.3406   -2.0981 C   0  0  0  0  0  0  0  0  0  0  0  0
    1.9178   -4.4522   -2.5627 O   0  0  0  0  0  0  0  0  0  0  0  0
    3.1759   -1.4292   -3.4059 C   0  0  0  0  0  0  0  0  0  0  0  0
    0.0141   -1.0282   -2.7981 H   0  0  0  0  0  0  0  0  0  0  0  0
    1.3796   -2.4613   -3.8789 H   0  0  0  0  0  0  0  0  0  0  0  0
    3.7657   -1.1043   -2.5439 H   0  0  0  0  0  0  0  0  0  0  0  0
    3.7785   -2.1400   -3.9801 H   0  0  0  0  0  0  0  0  0  0  0  0
    2.9722   -0.5593   -4.0373 H   0  0  0  0  0  0  0  0  0  0  0  0
    2.6251   -3.2314   -0.8130 N   0  0  0  0  0  0  0  0  0  0  0  0
    2.8868   -4.3651    0.0624 C   0  0  0  0  0  0  0  0  0  0  0  0
    2.7366   -2.2794   -0.4534 H   0  0  0  0  0  0  0  0  0  0  0  0
    1.9580   -4.8998    0.2859 H   0  0  0  0  0  0  0  0  0  0  0  0
    3.5891   -5.0594   -0.4102 H   0  0  0  0  0  0  0  0  0  0  0  0
    3.3248   -4.0201    1.0038 H   0  0  0  0  0  0  0  0  0  0  0  0
  1  2  2  0  0  0  0
  1  3  1  0  0  0  0
  1  7  1  0  0  0  0
  3  4  1  0  0  0  0
  3  5  1  0  0  0  0
  3  6  1  0  0  0  0
  7  8  1  0  0  0  0
  7 12  1  0  0  0  0
  8  9  1  0  0  0  0
  8 11  1  0  0  0  0
  8 13  1  0  0  0  0
  9 10  2  0  0  0  0
  9 17  1  0  0  0  0
 11 14  1  0  0  0  0
 11 15  1  0  0  0  0
 11 16  1  0  0  0  0
 17 18  1  0  0  0  0
 17 23  1  0  0  0  0
 18 19  1  0  0  0  0
 18 21  1  0  0  0  0
 18 24  1  0  0  0  0
 19 20  2  0  0  0  0
 19 31  1  0  0  0  0
 21 22  1  0  0  0  0
 21 25  1  0  0  0  0
 21 26  1  0  0  0  0
 22 23  1  0  0  0  0
 22 27  1  0  0  0  0
 22 28  1  0  0  0  0
 23 29  1  0  0  0  0
 23 30  1  0  0  0  0
 31 32  1  0  0  0  0
 31 36  1  0  0  0  0
 32 33  1  0  0  0  0
 32 35  1  0  0  0  0
 32 37  1  0  0  0  0
 33 34  2  0  0  0  0
 33 41  1  0  0  0  0
 35 38  1  0  0  0  0
 35 39  1  0  0  0  0
 35 40  1  0  0  0  0
 41 42  1  0  0  0  0
 41 43  1  0  0  0  0
 42 44  1  0  0  0  0
 42 45  1  0  0  0  0
 42 46  1  0  0  0  0
M  END
$$$$

  -OEChem-05262217223D

 46 46  0     1  0  0  0  0  0999 V2000
   -1.8603   -0.0913    2.1261 C   0  0  0  0  0  0  0  0  0  0  0  0
   -2.4119   -0.5623    1.1438 O   0  0  0  0  0  0  0  0  0  0  0  0
   -1.4917   -0.9887    3.2921 C   0  0  0  0  0  0  0  0  0  0  0  0
   -2.0186   -0.6652    4.1932 H   0  0  0  0  0  0  0  0  0  0  0  0
   -1.7697   -2.0240    3.0743 H   0  0  0  0  0  0  0  0  0  0  0  0
   -0.4146   -0.9449    3.4717 H   0  0  0  0  0  0  0  0  0  0  0  0
   -1.5516    1.2537    2.1709 N   0  0  0  0  0  0  0  0  0  0  0  0
   -1.8354    2.2239    1.1000 C   0  0  2  0  0  0  0  0  0  0  0  0
   -0.5457    2.9641    0.6325 C   0  0  0  0  0  0  0  0  0  0  0  0
   -0.3954    4.1313    0.9861 O   0  0  0  0  0  0  0  0  0  0  0  0
   -2.9144    3.1735    1.6400 C   0  0  0  0  0  0  0  0  0  0  0  0
   -1.0678    1.5884    3.0008 H   0  0  0  0  0  0  0  0  0  0  0  0
   -2.2647    1.7241    0.2273 H   0  0  0  0  0  0  0  0  0  0  0  0
   -2.5585    3.6994    2.5320 H   0  0  0  0  0  0  0  0  0  0  0  0
   -3.1799    3.9170    0.8821 H   0  0  0  0  0  0  0  0  0  0  0  0
   -3.8158    2.6117    1.9033 H   0  0  0  0  0  0  0  0  0  0  0  0
    0.4440    2.3710   -0.2062 N   0  0  0  0  0  0  0  0  0  0  0  0
    0.2567    0.9041   -0.7077 C   0  0  2  0  0  0  0  0  0  0  0  0
    1.3204   -0.0952   -1.3088 C   0  0  0  0  0  0  0  0  0  0  0  0
    2.2540   -0.3449   -0.5595 O   0  0  0  0  0  0  0  0  0  0  0  0
    0.0940    1.5352   -2.1394 C   0  0  0  0  0  0  0  0  0  0  0  0
   -0.4316    2.9047   -1.9429 C   0  0  0  0  0  0  0  0  0  0  0  0
    0.8432    3.3721   -1.3396 C   0  0  0  0  0  0  0  0  0  0  0  0
   -0.6178    0.3791   -0.3288 H   0  0  0  0  0  0  0  0  0  0  0  0
   -0.6635    0.9635   -2.6883 H   0  0  0  0  0  0  0  0  0  0  0  0
    0.9752    1.5914   -2.8029 H   0  0  0  0  0  0  0  0  0  0  0  0
   -0.5430    3.3949   -2.9155 H   0  0  0  0  0  0  0  0  0  0  0  0
   -1.4225    3.0085   -1.4879 H   0  0  0  0  0  0  0  0  0  0  0  0
    1.7944    3.1605   -1.8453 H   0  0  0  0  0  0  0  0  0  0  0  0
    0.8260    4.4333   -1.0689 H   0  0  0  0  0  0  0  0  0  0  0  0
    1.3435   -0.7250   -2.5607 N   0  0  0  0  0  0  0  0  0  0  0  0
    2.3954   -1.6035   -3.1188 C   0  0  2  0  0  0  0  0  0  0  0  0
    2.5567   -2.9753   -2.4211 C   0  0  0  0  0  0  0  0  0  0  0  0
    2.5506   -3.9956   -3.0972 O   0  0  0  0  0  0  0  0  0  0  0  0
    3.7420   -0.8721   -3.2049 C   0  0  0  0  0  0  0  0  0  0  0  0
    0.5201   -0.5813   -3.1378 H   0  0  0  0  0  0  0  0  0  0  0  0
    2.0964   -1.8290   -4.1478 H   0  0  0  0  0  0  0  0  0  0  0  0
    4.1648   -0.6964   -2.2116 H   0  0  0  0  0  0  0  0  0  0  0  0
    4.4566   -1.4734   -3.7759 H   0  0  0  0  0  0  0  0  0  0  0  0
    3.6201    0.0916   -3.7081 H   0  0  0  0  0  0  0  0  0  0  0  0
    2.7250   -3.0744   -1.0550 N   0  0  0  0  0  0  0  0  0  0  0  0
    2.9148   -4.3286   -0.3405 C   0  0  0  0  0  0  0  0  0  0  0  0
    2.7276   -2.1915   -0.5371 H   0  0  0  0  0  0  0  0  0  0  0  0
    2.0612   -4.9952   -0.5020 H   0  0  0  0  0  0  0  0  0  0  0  0
    3.8255   -4.8303   -0.6842 H   0  0  0  0  0  0  0  0  0  0  0  0
    3.0076   -4.1391    0.7333 H   0  0  0  0  0  0  0  0  0  0  0  0
  1  2  2  0  0  0  0
  1  3  1  0  0  0  0
  1  7  1  0  0  0  0
  3  4  1  0  0  0  0
  3  5  1  0  0  0  0
  3  6  1  0  0  0  0
  7  8  1  0  0  0  0
  7 12  1  0  0  0  0
  8  9  1  0  0  0  0
  8 11  1  0  0  0  0
  8 13  1  0  0  0  0
  9 10  2  0  0  0  0
  9 17  1  0  0  0  0
 11 14  1  0  0  0  0
 11 15  1  0  0  0  0
 11 16  1  0  0  0  0
 17 18  1  0  0  0  0
 17 23  1  0  0  0  0
 18 19  1  0  0  0  0
 18 21  1  0  0  0  0
 18 24  1  0  0  0  0
 19 20  2  0  0  0  0
 19 31  1  0  0  0  0
 21 22  1  0  0  0  0
 21 25  1  0  0  0  0
 21 26  1  0  0  0  0
 22 23  1  0  0  0  0
 22 27  1  0  0  0  0
 22 28  1  0  0  0  0
 23 29  1  0  0  0  0
 23 30  1  0  0  0  0
 31 32  1  0  0  0  0
 31 36  1  0  0  0  0
 32 33  1  0  0  0  0
 32 35  1  0  0  0  0
 32 37  1  0  0  0  0
 33 34  2  0  0  0  0
 33 41  1  0  0  0  0
 35 38  1  0  0  0  0
 35 39  1  0  0  0  0
 35 40  1  0  0  0  0
 41 42  1  0  0  0  0
 41 43  1  0  0  0  0
 42 44  1  0  0  0  0
 42 45  1  0  0  0  0
 42 46  1  0  0  0  0
M  END
$$$$

  -OEChem-05262217223D

 46 46  0     1  0  0  0  0  0999 V2000
   -1.6383   -0.2175    2.0979 C   0  0  0  0  0  0  0  0  0  0  0  0
   -2.1176   -0.7604    1.1149 O   0  0  0  0  0  0  0  0  0  0  0  0
   -1.1612   -1.0519    3.2712 C   0  0  0  0  0  0  0  0  0  0  0  0
   -1.6716   -0.7383    4.1852 H   0  0  0  0  0  0  0  0  0  0  0  0
   -1.3754   -2.1098    3.0944 H   0  0  0  0  0  0  0  0  0  0  0  0
   -0.0833   -0.9278    3.4028 H   0  0  0  0  0  0  0  0  0  0  0  0
   -1.5118    1.1563    2.1397 N   0  0  0  0  0  0  0  0  0  0  0  0
   -1.8999    2.0763    1.0581 C   0  0  2  0  0  0  0  0  0  0  0  0
   -0.7067    2.9764    0.6159 C   0  0  0  0  0  0  0  0  0  0  0  0
   -0.7046    4.1473    0.9891 O   0  0  0  0  0  0  0  0  0  0  0  0
   -3.1045    2.8785    1.5702 C   0  0  0  0  0  0  0  0  0  0  0  0
   -1.0754    1.5532    2.9683 H   0  0  0  0  0  0  0  0  0  0  0  0
   -2.2420    1.5214    0.1804 H   0  0  0  0  0  0  0  0  0  0  0  0
   -2.8411    3.4435    2.4702 H   0  0  0  0  0  0  0  0  0  0  0  0
   -3.4448    3.5834    0.8052 H   0  0  0  0  0  0  0  0  0  0  0  0
   -3.9326    2.2047    1.8117 H   0  0  0  0  0  0  0  0  0  0  0  0
    0.3633    2.5210   -0.2121 N   0  0  0  0  0  0  0  0  0  0  0  0
    0.3717    1.0448   -0.7296 C   0  0  2  0  0  0  0  0  0  0  0  0
    1.5558    0.1756   -1.3232 C   0  0  0  0  0  0  0  0  0  0  0  0
    2.3236   -0.2156   -0.4557 O   0  0  0  0  0  0  0  0  0  0  0  0
    0.1206    1.6594   -2.1553 C   0  0  0  0  0  0  0  0  0  0  0  0
   -0.5840    2.9429   -1.9480 C   0  0  0  0  0  0  0  0  0  0  0  0
    0.6174    3.5770   -1.3403 C   0  0  0  0  0  0  0  0  0  0  0  0
   -0.4279    0.4105   -0.3512 H   0  0  0  0  0  0  0  0  0  0  0  0
   -0.5428    0.9858   -2.7109 H   0  0  0  0  0  0  0  0  0  0  0  0
    0.9773    1.8630   -2.8168 H   0  0  0  0  0  0  0  0  0  0  0  0
   -0.7592    3.4208   -2.9172 H   0  0  0  0  0  0  0  0  0  0  0  0
   -1.5821    2.9086   -1.4988 H   0  0  0  0  0  0  0  0  0  0  0  0
    1.5886    3.5038   -1.8467 H   0  0  0  0  0  0  0  0  0  0  0  0
    0.4546    4.6243   -1.0635 H   0  0  0  0  0  0  0  0  0  0  0  0
    1.8703   -0.2381   -2.6265 N   0  0  0  0  0  0  0  0  0  0  0  0
    3.0301   -1.0409   -3.0770 C   0  0  2  0  0  0  0  0  0  0  0  0
    3.0286   -2.5151   -2.6072 C   0  0  0  0  0  0  0  0  0  0  0  0
    3.1011   -3.4092   -3.4402 O   0  0  0  0  0  0  0  0  0  0  0  0
    4.3603   -0.3533   -2.7361 C   0  0  0  0  0  0  0  0  0  0  0  0
    1.1863    0.0019   -3.3376 H   0  0  0  0  0  0  0  0  0  0  0  0
    2.9736   -1.0790   -4.1698 H   0  0  0  0  0  0  0  0  0  0  0  0
    4.5539   -0.3677   -1.6597 H   0  0  0  0  0  0  0  0  0  0  0  0
    5.1860   -0.8702   -3.2354 H   0  0  0  0  0  0  0  0  0  0  0  0
    4.3481    0.6872   -3.0739 H   0  0  0  0  0  0  0  0  0  0  0  0
    2.9314   -2.8453   -1.2708 N   0  0  0  0  0  0  0  0  0  0  0  0
    2.8464   -4.2097   -0.7699 C   0  0  0  0  0  0  0  0  0  0  0  0
    2.8141   -2.0614   -0.6233 H   0  0  0  0  0  0  0  0  0  0  0  0
    1.9576   -4.7084   -1.1699 H   0  0  0  0  0  0  0  0  0  0  0  0
    3.7338   -4.7814   -1.0611 H   0  0  0  0  0  0  0  0  0  0  0  0
    2.7801   -4.2066    0.3224 H   0  0  0  0  0  0  0  0  0  0  0  0
  1  2  2  0  0  0  0
  1  3  1  0  0  0  0
  1  7  1  0  0  0  0
  3  4  1  0  0  0  0
  3  5  1  0  0  0  0
  3  6  1  0  0  0  0
  7  8  1  0  0  0  0
  7 12  1  0  0  0  0
  8  9  1  0  0  0  0
  8 11  1  0  0  0  0
  8 13  1  0  0  0  0
  9 10  2  0  0  0  0
  9 17  1  0  0  0  0
 11 14  1  0  0  0  0
 11 15  1  0  0  0  0
 11 16  1  0  0  0  0
 17 18  1  0  0  0  0
 17 23  1  0  0  0  0
 18 19  1  0  0  0  0
 18 21  1  0  0  0  0
 18 24  1  0  0  0  0
 19 20  2  0  0  0  0
 19 31  1  0  0  0  0
 21 22  1  0  0  0  0
 21 25  1  0  0  0  0
 21 26  1  0  0  0  0
 22 23  1  0  0  0  0
 22 27  1  0  0  0  0
 22 28  1  0  0  0  0
 23 29  1  0  0  0  0
 23 30  1  0  0  0  0
 31 32  1  0  0  0  0
 31 36  1  0  0  0  0
 32 33  1  0  0  0  0
 32 35  1  0  0  0  0
 32 37  1  0  0  0  0
 33 34  2  0  0  0  0
 33 41  1  0  0  0  0
 35 38  1  0  0  0  0
 35 39  1  0  0  0  0
 35 40  1  0  0  0  0
 41 42  1  0  0  0  0
 41 43  1  0  0  0  0
 42 44  1  0  0  0  0
 42 45  1  0  0  0  0
 42 46  1  0  0  0  0
M  END
$$$$

  -OEChem-05262217223D

 46 46  0     1  0  0  0  0  0999 V2000
   -1.5281   -0.1970    2.1822 C   0  0  0  0  0  0  0  0  0  0  0  0
   -1.9492   -0.8092    1.2132 O   0  0  0  0  0  0  0  0  0  0  0  0
   -0.9958   -0.9537    3.3843 C   0  0  0  0  0  0  0  0  0  0  0  0
   -1.5126   -0.6295    4.2908 H   0  0  0  0  0  0  0  0  0  0  0  0
   -1.1555   -2.0278    3.2543 H   0  0  0  0  0  0  0  0  0  0  0  0
    0.0753   -0.7682    3.4971 H   0  0  0  0  0  0  0  0  0  0  0  0
   -1.5192    1.1837    2.1804 N   0  0  0  0  0  0  0  0  0  0  0  0
   -1.9384    2.0280    1.0497 C   0  0  2  0  0  0  0  0  0  0  0  0
   -0.7947    2.9899    0.6022 C   0  0  0  0  0  0  0  0  0  0  0  0
   -0.8548    4.1626    0.9647 O   0  0  0  0  0  0  0  0  0  0  0  0
   -3.2092    2.7689    1.4887 C   0  0  0  0  0  0  0  0  0  0  0  0
   -1.1249    1.6434    2.9976 H   0  0  0  0  0  0  0  0  0  0  0  0
   -2.2149    1.4083    0.1930 H   0  0  0  0  0  0  0  0  0  0  0  0
   -3.0137    3.3892    2.3694 H   0  0  0  0  0  0  0  0  0  0  0  0
   -3.5697    3.4152    0.6824 H   0  0  0  0  0  0  0  0  0  0  0  0
   -3.9982    2.0520    1.7359 H   0  0  0  0  0  0  0  0  0  0  0  0
    0.3076    2.5839   -0.2097 N   0  0  0  0  0  0  0  0  0  0  0  0
    0.4215    1.1062   -0.7131 C   0  0  2  0  0  0  0  0  0  0  0  0
    1.7096    0.3677   -1.2701 C   0  0  0  0  0  0  0  0  0  0  0  0
    2.3294   -0.1703   -0.3634 O   0  0  0  0  0  0  0  0  0  0  0  0
    0.0709    1.6316   -2.1521 C   0  0  0  0  0  0  0  0  0  0  0  0
   -0.7345    2.8474   -1.9419 C   0  0  0  0  0  0  0  0  0  0  0  0
    0.4266    3.6105   -1.3948 C   0  0  0  0  0  0  0  0  0  0  0  0
   -0.2938    0.4040   -0.2853 H   0  0  0  0  0  0  0  0  0  0  0  0
   -0.5389    0.8722   -2.6553 H   0  0  0  0  0  0  0  0  0  0  0  0
    0.8554    1.9089   -2.8655 H   0  0  0  0  0  0  0  0  0  0  0  0
   -0.9819    3.2832   -2.9154 H   0  0  0  0  0  0  0  0  0  0  0  0
   -1.7150    2.7376   -1.4713 H   0  0  0  0  0  0  0  0  0  0  0  0
    1.3855    3.6013   -1.9290 H   0  0  0  0  0  0  0  0  0  0  0  0
    0.1798    4.6503   -1.1544 H   0  0  0  0  0  0  0  0  0  0  0  0
    2.2839    0.1983   -2.5382 N   0  0  0  0  0  0  0  0  0  0  0  0
    3.5435   -0.4967   -2.8892 C   0  0  2  0  0  0  0  0  0  0  0  0
    3.5192   -2.0311   -2.6934 C   0  0  0  0  0  0  0  0  0  0  0  0
    3.7308   -2.7614   -3.6528 O   0  0  0  0  0  0  0  0  0  0  0  0
    4.7550    0.1318   -2.1843 C   0  0  0  0  0  0  0  0  0  0  0  0
    1.7349    0.5440   -3.3184 H   0  0  0  0  0  0  0  0  0  0  0  0
    3.6950   -0.3371   -3.9617 H   0  0  0  0  0  0  0  0  0  0  0  0
    4.7504   -0.0839   -1.1121 H   0  0  0  0  0  0  0  0  0  0  0  0
    5.6819   -0.2701   -2.6051 H   0  0  0  0  0  0  0  0  0  0  0  0
    4.7546    1.2174   -2.3211 H   0  0  0  0  0  0  0  0  0  0  0  0
    3.2488   -2.5941   -1.4627 N   0  0  0  0  0  0  0  0  0  0  0  0
    3.1235   -4.0258   -1.2299 C   0  0  0  0  0  0  0  0  0  0  0  0
    2.9874   -1.9384   -0.7214 H   0  0  0  0  0  0  0  0  0  0  0  0
    2.2619   -4.4281   -1.7723 H   0  0  0  0  0  0  0  0  0  0  0  0
    4.0260   -4.5487   -1.5631 H   0  0  0  0  0  0  0  0  0  0  0  0
    2.9859   -4.2229   -0.1624 H   0  0  0  0  0  0  0  0  0  0  0  0
  1  2  2  0  0  0  0
  1  3  1  0  0  0  0
  1  7  1  0  0  0  0
  3  4  1  0  0  0  0
  3  5  1  0  0  0  0
  3  6  1  0  0  0  0
  7  8  1  0  0  0  0
  7 12  1  0  0  0  0
  8  9  1  0  0  0  0
  8 11  1  0  0  0  0
  8 13  1  0  0  0  0
  9 10  2  0  0  0  0
  9 17  1  0  0  0  0
 11 14  1  0  0  0  0
 11 15  1  0  0  0  0
 11 16  1  0  0  0  0
 17 18  1  0  0  0  0
 17 23  1  0  0  0  0
 18 19  1  0  0  0  0
 18 21  1  0  0  0  0
 18 24  1  0  0  0  0
 19 20  2  0  0  0  0
 19 31  1  0  0  0  0
 21 22  1  0  0  0  0
 21 25  1  0  0  0  0
 21 26  1  0  0  0  0
 22 23  1  0  0  0  0
 22 27  1  0  0  0  0
 22 28  1  0  0  0  0
 23 29  1  0  0  0  0
 23 30  1  0  0  0  0
 31 32  1  0  0  0  0
 31 36  1  0  0  0  0
 32 33  1  0  0  0  0
 32 35  1  0  0  0  0
 32 37  1  0  0  0  0
 33 34  2  0  0  0  0
 33 41  1  0  0  0  0
 35 38  1  0  0  0  0
 35 39  1  0  0  0  0
 35 40  1  0  0  0  0
 41 42  1  0  0  0  0
 41 43  1  0  0  0  0
 42 44  1  0  0  0  0
 42 45  1  0  0  0  0
 42 46  1  0  0  0  0
M  END
$$$$

  -OEChem-05262217223D

 46 46  0     1  0  0  0  0  0999 V2000
   -1.5894    0.1303    2.7219 C   0  0  0  0  0  0  0  0  0  0  0  0
   -1.5689   -0.7111    1.8376 O   0  0  0  0  0  0  0  0  0  0  0  0
   -1.2472   -0.2582    4.1477 C   0  0  0  0  0  0  0  0  0  0  0  0
   -2.0996   -0.0637    4.8030 H   0  0  0  0  0  0  0  0  0  0  0  0
   -0.9985   -1.3221    4.1992 H   0  0  0  0  0  0  0  0  0  0  0  0
   -0.3878    0.3203    4.4960 H   0  0  0  0  0  0  0  0  0  0  0  0
   -1.9107    1.4400    2.4267 N   0  0  0  0  0  0  0  0  0  0  0  0
   -2.0387    1.9636    1.0597 C   0  0  2  0  0  0  0  0  0  0  0  0
   -0.7665    2.7798    0.6727 C   0  0  0  0  0  0  0  0  0  0  0  0
   -0.6898    3.9338    1.0885 O   0  0  0  0  0  0  0  0  0  0  0  0
   -3.3182    2.8098    1.0170 C   0  0  0  0  0  0  0  0  0  0  0  0
   -1.7955    2.1165    3.1776 H   0  0  0  0  0  0  0  0  0  0  0  0
   -2.1681    1.1359    0.3577 H   0  0  0  0  0  0  0  0  0  0  0  0
   -3.2676    3.6278    1.7429 H   0  0  0  0  0  0  0  0  0  0  0  0
   -3.4606    3.2405    0.0216 H   0  0  0  0  0  0  0  0  0  0  0  0
   -4.1884    2.1898    1.2538 H   0  0  0  0  0  0  0  0  0  0  0  0
    0.3181    2.2729   -0.1031 N   0  0  0  0  0  0  0  0  0  0  0  0
    0.4027    0.8310   -0.6987 C   0  0  2  0  0  0  0  0  0  0  0  0
    1.8524    0.3600   -1.1180 C   0  0  0  0  0  0  0  0  0  0  0  0
    2.2922   -0.4972   -0.3652 O   0  0  0  0  0  0  0  0  0  0  0  0
    0.0122    1.2451   -2.1513 C   0  0  0  0  0  0  0  0  0  0  0  0
   -0.7765    2.4292   -1.8464 C   0  0  0  0  0  0  0  0  0  0  0  0
    0.3777    3.2443   -1.3577 C   0  0  0  0  0  0  0  0  0  0  0  0
   -0.2135    0.0619   -0.2242 H   0  0  0  0  0  0  0  0  0  0  0  0
   -0.6237    0.4596   -2.5744 H   0  0  0  0  0  0  0  0  0  0  0  0
    0.7243    1.4892   -2.9402 H   0  0  0  0  0  0  0  0  0  0  0  0
   -1.0902    2.8793   -2.7939 H   0  0  0  0  0  0  0  0  0  0  0  0
   -1.7316    2.2743   -1.3525 H   0  0  0  0  0  0  0  0  0  0  0  0
    1.3177    3.2161   -1.9225 H   0  0  0  0  0  0  0  0  0  0  0  0
    0.1158    4.2918   -1.1695 H   0  0  0  0  0  0  0  0  0  0  0  0
    2.6903    0.6741   -2.1938 N   0  0  0  0  0  0  0  0  0  0  0  0
    4.0571    0.1726   -2.4653 C   0  0  2  0  0  0  0  0  0  0  0  0
    4.1452   -1.3197   -2.8642 C   0  0  0  0  0  0  0  0  0  0  0  0
    4.7284   -1.6309   -3.8947 O   0  0  0  0  0  0  0  0  0  0  0  0
    5.0168    0.4905   -1.3093 C   0  0  0  0  0  0  0  0  0  0  0  0
    2.3606    1.4143   -2.8026 H   0  0  0  0  0  0  0  0  0  0  0  0
    4.4225    0.7317   -3.3328 H   0  0  0  0  0  0  0  0  0  0  0  0
    4.8045   -0.1273   -0.4323 H   0  0  0  0  0  0  0  0  0  0  0  0
    6.0490    0.2967   -1.6174 H   0  0  0  0  0  0  0  0  0  0  0  0
    4.9323    1.5429   -1.0227 H   0  0  0  0  0  0  0  0  0  0  0  0
    3.5825   -2.3095   -2.0844 N   0  0  0  0  0  0  0  0  0  0  0  0
    3.6384   -3.7308   -2.3945 C   0  0  0  0  0  0  0  0  0  0  0  0
    3.0986   -1.9947   -1.2389 H   0  0  0  0  0  0  0  0  0  0  0  0
    3.1501   -3.9333   -3.3533 H   0  0  0  0  0  0  0  0  0  0  0  0
    4.6784   -4.0696   -2.4479 H   0  0  0  0  0  0  0  0  0  0  0  0
    3.1264   -4.3058   -1.6170 H   0  0  0  0  0  0  0  0  0  0  0  0
  1  2  2  0  0  0  0
  1  3  1  0  0  0  0
  1  7  1  0  0  0  0
  3  4  1  0  0  0  0
  3  5  1  0  0  0  0
  3  6  1  0  0  0  0
  7  8  1  0  0  0  0
  7 12  1  0  0  0  0
  8  9  1  0  0  0  0
  8 11  1  0  0  0  0
  8 13  1  0  0  0  0
  9 10  2  0  0  0  0
  9 17  1  0  0  0  0
 11 14  1  0  0  0  0
 11 15  1  0  0  0  0
 11 16  1  0  0  0  0
 17 18  1  0  0  0  0
 17 23  1  0  0  0  0
 18 19  1  0  0  0  0
 18 21  1  0  0  0  0
 18 24  1  0  0  0  0
 19 20  2  0  0  0  0
 19 31  1  0  0  0  0
 21 22  1  0  0  0  0
 21 25  1  0  0  0  0
 21 26  1  0  0  0  0
 22 23  1  0  0  0  0
 22 27  1  0  0  0  0
 22 28  1  0  0  0  0
 23 29  1  0  0  0  0
 23 30  1  0  0  0  0
 31 32  1  0  0  0  0
 31 36  1  0  0  0  0
 32 33  1  0  0  0  0
 32 35  1  0  0  0  0
 32 37  1  0  0  0  0
 33 34  2  0  0  0  0
 33 41  1  0  0  0  0
 35 38  1  0  0  0  0
 35 39  1  0  0  0  0
 35 40  1  0  0  0  0
 41 42  1  0  0  0  0
 41 43  1  0  0  0  0
 42 44  1  0  0  0  0
 42 45  1  0  0  0  0
 42 46  1  0  0  0  0
M  END
$$$$

  -OEChem-05262217223D

 46 46  0     1  0  0  0  0  0999 V2000
   -1.6683    0.2640    2.9016 C   0  0  0  0  0  0  0  0  0  0  0  0
   -1.3920   -0.6309    2.1193 O   0  0  0  0  0  0  0  0  0  0  0  0
   -1.4792    0.0556    4.3924 C   0  0  0  0  0  0  0  0  0  0  0  0
   -2.4353    0.1666    4.9098 H   0  0  0  0  0  0  0  0  0  0  0  0
   -1.0875   -0.9471    4.5861 H   0  0  0  0  0  0  0  0  0  0  0  0
   -0.7715    0.7900    4.7854 H   0  0  0  0  0  0  0  0  0  0  0  0
   -2.1355    1.4745    2.4314 N   0  0  0  0  0  0  0  0  0  0  0  0
   -2.1379    1.8484    1.0103 C   0  0  2  0  0  0  0  0  0  0  0  0
   -0.8910    2.7248    0.6811 C   0  0  0  0  0  0  0  0  0  0  0  0
   -0.9182    3.8960    1.0528 O   0  0  0  0  0  0  0  0  0  0  0  0
   -3.4606    2.5802    0.7413 C   0  0  0  0  0  0  0  0  0  0  0  0
   -2.2116    2.2257    3.1129 H   0  0  0  0  0  0  0  0  0  0  0  0
   -2.1246    0.9482    0.3898 H   0  0  0  0  0  0  0  0  0  0  0  0
   -3.5529    3.4636    1.3815 H   0  0  0  0  0  0  0  0  0  0  0  0
   -3.5184    2.9044   -0.3017 H   0  0  0  0  0  0  0  0  0  0  0  0
   -4.3065    1.9156    0.9435 H   0  0  0  0  0  0  0  0  0  0  0  0
    0.2815    2.2634    0.0124 N   0  0  0  0  0  0  0  0  0  0  0  0
    0.5227    0.8132   -0.5179 C   0  0  2  0  0  0  0  0  0  0  0  0
    2.0310    0.4538   -0.8015 C   0  0  0  0  0  0  0  0  0  0  0  0
    2.4060   -0.5667   -0.2418 O   0  0  0  0  0  0  0  0  0  0  0  0
    0.2279    1.1124   -2.0186 C   0  0  0  0  0  0  0  0  0  0  0  0
   -0.6707    2.2376   -1.8148 C   0  0  0  0  0  0  0  0  0  0  0  0
    0.3551    3.1799   -1.2829 C   0  0  0  0  0  0  0  0  0  0  0  0
   -0.0626    0.0147   -0.0514 H   0  0  0  0  0  0  0  0  0  0  0  0
   -0.3115    0.2598   -2.4455 H   0  0  0  0  0  0  0  0  0  0  0  0
    0.9923    1.3666   -2.7574 H   0  0  0  0  0  0  0  0  0  0  0  0
   -0.9546    2.6217   -2.8001 H   0  0  0  0  0  0  0  0  0  0  0  0
   -1.6402    2.0092   -1.3814 H   0  0  0  0  0  0  0  0  0  0  0  0
    1.3308    3.2175   -1.7796 H   0  0  0  0  0  0  0  0  0  0  0  0
   -0.0185    4.2045   -1.1718 H   0  0  0  0  0  0  0  0  0  0  0  0
    2.9563    1.0414   -1.6685 N   0  0  0  0  0  0  0  0  0  0  0  0
    4.3568    0.6359   -1.9226 C   0  0  2  0  0  0  0  0  0  0  0  0
    4.5193   -0.6991   -2.6868 C   0  0  0  0  0  0  0  0  0  0  0  0
    5.1972   -0.7283   -3.7056 O   0  0  0  0  0  0  0  0  0  0  0  0
    5.1904    0.6389   -0.6329 C   0  0  0  0  0  0  0  0  0  0  0  0
    2.6494    1.9037   -2.1057 H   0  0  0  0  0  0  0  0  0  0  0  0
    4.7880    1.4042   -2.5730 H   0  0  0  0  0  0  0  0  0  0  0  0
    4.9029   -0.1812    0.0312 H   0  0  0  0  0  0  0  0  0  0  0  0
    6.2517    0.5222   -0.8741 H   0  0  0  0  0  0  0  0  0  0  0  0
    5.0584    1.5834   -0.0967 H   0  0  0  0  0  0  0  0  0  0  0  0
    3.9025   -1.8559   -2.2555 N   0  0  0  0  0  0  0  0  0  0  0  0
    4.0100   -3.1428   -2.9281 C   0  0  0  0  0  0  0  0  0  0  0  0
    3.3403   -1.7747   -1.4037 H   0  0  0  0  0  0  0  0  0  0  0  0
    3.6469   -3.0677   -3.9582 H   0  0  0  0  0  0  0  0  0  0  0  0
    5.0513   -3.4810   -2.9441 H   0  0  0  0  0  0  0  0  0  0  0  0
    3.4104   -3.8930   -2.4036 H   0  0  0  0  0  0  0  0  0  0  0  0
  1  2  2  0  0  0  0
  1  3  1  0  0  0  0
  1  7  1  0  0  0  0
  3  4  1  0  0  0  0
  3  5  1  0  0  0  0
  3  6  1  0  0  0  0
  7  8  1  0  0  0  0
  7 12  1  0  0  0  0
  8  9  1  0  0  0  0
  8 11  1  0  0  0  0
  8 13  1  0  0  0  0
  9 10  2  0  0  0  0
  9 17  1  0  0  0  0
 11 14  1  0  0  0  0
 11 15  1  0  0  0  0
 11 16  1  0  0  0  0
 17 18  1  0  0  0  0
 17 23  1  0  0  0  0
 18 19  1  0  0  0  0
 18 21  1  0  0  0  0
 18 24  1  0  0  0  0
 19 20  2  0  0  0  0
 19 31  1  0  0  0  0
 21 22  1  0  0  0  0
 21 25  1  0  0  0  0
 21 26  1  0  0  0  0
 22 23  1  0  0  0  0
 22 27  1  0  0  0  0
 22 28  1  0  0  0  0
 23 29  1  0  0  0  0
 23 30  1  0  0  0  0
 31 32  1  0  0  0  0
 31 36  1  0  0  0  0
 32 33  1  0  0  0  0
 32 35  1  0  0  0  0
 32 37  1  0  0  0  0
 33 34  2  0  0  0  0
 33 41  1  0  0  0  0
 35 38  1  0  0  0  0
 35 39  1  0  0  0  0
 35 40  1  0  0  0  0
 41 42  1  0  0  0  0
 41 43  1  0  0  0  0
 42 44  1  0  0  0  0
 42 45  1  0  0  0  0
 42 46  1  0  0  0  0
M  END
$$$$

  -OEChem-05262217223D

 46 46  0     1  0  0  0  0  0999 V2000
   -1.8019    0.3765    3.0113 C   0  0  0  0  0  0  0  0  0  0  0  0
   -1.3157   -0.5245    2.3475 O   0  0  0  0  0  0  0  0  0  0  0  0
   -1.8012    0.2937    4.5260 C   0  0  0  0  0  0  0  0  0  0  0  0
   -2.8251    0.3516    4.9037 H   0  0  0  0  0  0  0  0  0  0  0  0
   -1.3586   -0.6519    4.8518 H   0  0  0  0  0  0  0  0  0  0  0  0
   -1.2181    1.1177    4.9449 H   0  0  0  0  0  0  0  0  0  0  0  0
   -2.3401    1.4822    2.3858 N   0  0  0  0  0  0  0  0  0  0  0  0
   -2.2157    1.7436    0.9454 C   0  0  2  0  0  0  0  0  0  0  0  0
   -1.0080    2.6884    0.6652 C   0  0  0  0  0  0  0  0  0  0  0  0
   -1.1449    3.8734    0.9613 O   0  0  0  0  0  0  0  0  0  0  0  0
   -3.5530    2.3436    0.4880 C   0  0  0  0  0  0  0  0  0  0  0  0
   -2.5903    2.2653    2.9846 H   0  0  0  0  0  0  0  0  0  0  0  0
   -2.0740    0.8027    0.4070 H   0  0  0  0  0  0  0  0  0  0  0  0
   -3.7721    3.2658    1.0360 H   0  0  0  0  0  0  0  0  0  0  0  0
   -3.5294    2.5767   -0.5803 H   0  0  0  0  0  0  0  0  0  0  0  0
   -4.3651    1.6323    0.6670 H   0  0  0  0  0  0  0  0  0  0  0  0
    0.2452    2.2762    0.1235 N   0  0  0  0  0  0  0  0  0  0  0  0
    0.6203    0.8169   -0.2912 C   0  0  2  0  0  0  0  0  0  0  0  0
    2.1524    0.5129   -0.4421 C   0  0  0  0  0  0  0  0  0  0  0  0
    2.4958   -0.6090   -0.0965 O   0  0  0  0  0  0  0  0  0  0  0  0
    0.4598    1.0111   -1.8280 C   0  0  0  0  0  0  0  0  0  0  0  0
   -0.5210    2.0878   -1.7747 C   0  0  0  0  0  0  0  0  0  0  0  0
    0.3803    3.1272   -1.2098 C   0  0  0  0  0  0  0  0  0  0  0  0
    0.0378    0.0117    0.1669 H   0  0  0  0  0  0  0  0  0  0  0  0
    0.0178    0.1047   -2.2567 H   0  0  0  0  0  0  0  0  0  0  0  0
    1.2941    1.2701   -2.4902 H   0  0  0  0  0  0  0  0  0  0  0  0
   -0.7349    2.3956   -2.8038 H   0  0  0  0  0  0  0  0  0  0  0  0
   -1.5100    1.8167   -1.4132 H   0  0  0  0  0  0  0  0  0  0  0  0
    1.3890    3.2112   -1.6259 H   0  0  0  0  0  0  0  0  0  0  0  0
   -0.0718    4.1254   -1.1927 H   0  0  0  0  0  0  0  0  0  0  0  0
    3.1175    1.2991   -1.0737 N   0  0  0  0  0  0  0  0  0  0  0  0
    4.5399    0.9747   -1.3156 C   0  0  2  0  0  0  0  0  0  0  0  0
    4.7754   -0.1436   -2.3573 C   0  0  0  0  0  0  0  0  0  0  0  0
    5.4911    0.0761   -3.3257 O   0  0  0  0  0  0  0  0  0  0  0  0
    5.2833    0.6729   -0.0064 C   0  0  0  0  0  0  0  0  0  0  0  0
    2.8190    2.2413   -1.3031 H   0  0  0  0  0  0  0  0  0  0  0  0
    4.9988    1.8761   -1.7350 H   0  0  0  0  0  0  0  0  0  0  0  0
    4.9601   -0.2780    0.4267 H   0  0  0  0  0  0  0  0  0  0  0  0
    6.3597    0.6102   -0.1946 H   0  0  0  0  0  0  0  0  0  0  0  0
    5.1051    1.4672    0.7245 H   0  0  0  0  0  0  0  0  0  0  0  0
    4.1738   -1.3790   -2.2297 N   0  0  0  0  0  0  0  0  0  0  0  0
    4.3272   -2.4684   -3.1829 C   0  0  0  0  0  0  0  0  0  0  0  0
    3.5625   -1.4995   -1.4174 H   0  0  0  0  0  0  0  0  0  0  0  0
    3.9713   -2.1640   -4.1724 H   0  0  0  0  0  0  0  0  0  0  0  0
    5.3786   -2.7640   -3.2604 H   0  0  0  0  0  0  0  0  0  0  0  0
    3.7465   -3.3371   -2.8581 H   0  0  0  0  0  0  0  0  0  0  0  0
  1  2  2  0  0  0  0
  1  3  1  0  0  0  0
  1  7  1  0  0  0  0
  3  4  1  0  0  0  0
  3  5  1  0  0  0  0
  3  6  1  0  0  0  0
  7  8  1  0  0  0  0
  7 12  1  0  0  0  0
  8  9  1  0  0  0  0
  8 11  1  0  0  0  0
  8 13  1  0  0  0  0
  9 10  2  0  0  0  0
  9 17  1  0  0  0  0
 11 14  1  0  0  0  0
 11 15  1  0  0  0  0
 11 16  1  0  0  0  0
 17 18  1  0  0  0  0
 17 23  1  0  0  0  0
 18 19  1  0  0  0  0
 18 21  1  0  0  0  0
 18 24  1  0  0  0  0
 19 20  2  0  0  0  0
 19 31  1  0  0  0  0
 21 22  1  0  0  0  0
 21 25  1  0  0  0  0
 21 26  1  0  0  0  0
 22 23  1  0  0  0  0
 22 27  1  0  0  0  0
 22 28  1  0  0  0  0
 23 29  1  0  0  0  0
 23 30  1  0  0  0  0
 31 32  1  0  0  0  0
 31 36  1  0  0  0  0
 32 33  1  0  0  0  0
 32 35  1  0  0  0  0
 32 37  1  0  0  0  0
 33 34  2  0  0  0  0
 33 41  1  0  0  0  0
 35 38  1  0  0  0  0
 35 39  1  0  0  0  0
 35 40  1  0  0  0  0
 41 42  1  0  0  0  0
 41 43  1  0  0  0  0
 42 44  1  0  0  0  0
 42 45  1  0  0  0  0
 42 46  1  0  0  0  0
M  END
$$$$

  -OEChem-05262217223D

 46 46  0     1  0  0  0  0  0999 V2000
   -2.0199    0.4566    3.0372 C   0  0  0  0  0  0  0  0  0  0  0  0
   -1.4109   -0.4390    2.4750 O   0  0  0  0  0  0  0  0  0  0  0  0
   -2.1746    0.4446    4.5461 C   0  0  0  0  0  0  0  0  0  0  0  0
   -3.2340    0.4379    4.8129 H   0  0  0  0  0  0  0  0  0  0  0  0
   -1.7006   -0.4467    4.9667 H   0  0  0  0  0  0  0  0  0  0  0  0
   -1.7024    1.3310    4.9768 H   0  0  0  0  0  0  0  0  0  0  0  0
   -2.5514    1.4957    2.3020 N   0  0  0  0  0  0  0  0  0  0  0  0
   -2.2951    1.6923    0.8691 C   0  0  2  0  0  0  0  0  0  0  0  0
   -1.0843    2.6484    0.6525 C   0  0  0  0  0  0  0  0  0  0  0  0
   -1.2644    3.8407    0.8906 O   0  0  0  0  0  0  0  0  0  0  0  0
   -3.5937    2.2448    0.2645 C   0  0  0  0  0  0  0  0  0  0  0  0
   -2.9053    2.2902    2.8289 H   0  0  0  0  0  0  0  0  0  0  0  0
   -2.0899    0.7314    0.3892 H   0  0  0  0  0  0  0  0  0  0  0  0
   -3.8719    3.1903    0.7411 H   0  0  0  0  0  0  0  0  0  0  0  0
   -3.4778    2.4224   -0.8081 H   0  0  0  0  0  0  0  0  0  0  0  0
   -4.4099    1.5302    0.4089 H   0  0  0  0  0  0  0  0  0  0  0  0
    0.2150    2.2420    0.2299 N   0  0  0  0  0  0  0  0  0  0  0  0
    0.6379    0.7728   -0.0950 C   0  0  2  0  0  0  0  0  0  0  0  0
    2.1682    0.4591   -0.1222 C   0  0  0  0  0  0  0  0  0  0  0  0
    2.5004   -0.7134   -0.0036 O   0  0  0  0  0  0  0  0  0  0  0  0
    0.6323    0.9279   -1.6446 C   0  0  0  0  0  0  0  0  0  0  0  0
   -0.3577    1.9996   -1.7236 C   0  0  0  0  0  0  0  0  0  0  0  0
    0.4707    3.0627   -1.1027 C   0  0  0  0  0  0  0  0  0  0  0  0
    0.0177   -0.0247    0.3247 H   0  0  0  0  0  0  0  0  0  0  0  0
    0.2467    0.0083   -2.0981 H   0  0  0  0  0  0  0  0  0  0  0  0
    1.5420    1.1798   -2.2085 H   0  0  0  0  0  0  0  0  0  0  0  0
   -0.4721    2.2745   -2.7773 H   0  0  0  0  0  0  0  0  0  0  0  0
   -1.3751    1.7294   -1.4461 H   0  0  0  0  0  0  0  0  0  0  0  0
    1.5121    3.1508   -1.4280 H   0  0  0  0  0  0  0  0  0  0  0  0
    0.0068    4.0543   -1.1545 H   0  0  0  0  0  0  0  0  0  0  0  0
    3.1480    1.3887   -0.4624 N   0  0  0  0  0  0  0  0  0  0  0  0
    4.5975    1.1587   -0.6331 C   0  0  2  0  0  0  0  0  0  0  0  0
    4.9661    0.3060   -1.8694 C   0  0  0  0  0  0  0  0  0  0  0  0
    5.7213    0.7663   -2.7157 O   0  0  0  0  0  0  0  0  0  0  0  0
    5.2304    0.5893    0.6443 C   0  0  0  0  0  0  0  0  0  0  0  0
    2.8273    2.3525   -0.4823 H   0  0  0  0  0  0  0  0  0  0  0  0
    5.0535    2.1404   -0.7979 H   0  0  0  0  0  0  0  0  0  0  0  0
    4.9146   -0.4431    0.8200 H   0  0  0  0  0  0  0  0  0  0  0  0
    6.3214    0.6005    0.5572 H   0  0  0  0  0  0  0  0  0  0  0  0
    4.9464    1.1935    1.5111 H   0  0  0  0  0  0  0  0  0  0  0  0
    4.4300   -0.9520   -2.0579 N   0  0  0  0  0  0  0  0  0  0  0  0
    4.6767   -1.7792   -3.2302 C   0  0  0  0  0  0  0  0  0  0  0  0
    3.7581   -1.2649   -1.3515 H   0  0  0  0  0  0  0  0  0  0  0  0
    4.3048   -1.2845   -4.1331 H   0  0  0  0  0  0  0  0  0  0  0  0
    5.7487   -1.9685   -3.3470 H   0  0  0  0  0  0  0  0  0  0  0  0
    4.1655   -2.7408   -3.1256 H   0  0  0  0  0  0  0  0  0  0  0  0
  1  2  2  0  0  0  0
  1  3  1  0  0  0  0
  1  7  1  0  0  0  0
  3  4  1  0  0  0  0
  3  5  1  0  0  0  0
  3  6  1  0  0  0  0
  7  8  1  0  0  0  0
  7 12  1  0  0  0  0
  8  9  1  0  0  0  0
  8 11  1  0  0  0  0
  8 13  1  0  0  0  0
  9 10  2  0  0  0  0
  9 17  1  0  0  0  0
 11 14  1  0  0  0  0
 11 15  1  0  0  0  0
 11 16  1  0  0  0  0
 17 18  1  0  0  0  0
 17 23  1  0  0  0  0
 18 19  1  0  0  0  0
 18 21  1  0  0  0  0
 18 24  1  0  0  0  0
 19 20  2  0  0  0  0
 19 31  1  0  0  0  0
 21 22  1  0  0  0  0
 21 25  1  0  0  0  0
 21 26  1  0  0  0  0
 22 23  1  0  0  0  0
 22 27  1  0  0  0  0
 22 28  1  0  0  0  0
 23 29  1  0  0  0  0
 23 30  1  0  0  0  0
 31 32  1  0  0  0  0
 31 36  1  0  0  0  0
 32 33  1  0  0  0  0
 32 35  1  0  0  0  0
 32 37  1  0  0  0  0
 33 34  2  0  0  0  0
 33 41  1  0  0  0  0
 35 38  1  0  0  0  0
 35 39  1  0  0  0  0
 35 40  1  0  0  0  0
 41 42  1  0  0  0  0
 41 43  1  0  0  0  0
 42 44  1  0  0  0  0
 42 45  1  0  0  0  0
 42 46  1  0  0  0  0
M  END
$$$$

  -OEChem-05262217223D

 46 46  0     1  0  0  0  0  0999 V2000
   -2.2351    0.5150    3.0045 C   0  0  0  0  0  0  0  0  0  0  0  0
   -1.5404   -0.3644    2.5215 O   0  0  0  0  0  0  0  0  0  0  0  0
   -2.5189    0.5326    4.4953 C   0  0  0  0  0  0  0  0  0  0  0  0
   -3.5974    0.5267    4.6712 H   0  0  0  0  0  0  0  0  0  0  0  0
   -2.0800   -0.3480    4.9730 H   0  0  0  0  0  0  0  0  0  0  0  0
   -2.0884    1.4294    4.9477 H   0  0  0  0  0  0  0  0  0  0  0  0
   -2.7434    1.5111    2.1970 N   0  0  0  0  0  0  0  0  0  0  0  0
   -2.3744    1.6811    0.7851 C   0  0  2  0  0  0  0  0  0  0  0  0
   -1.1479    2.6291    0.6437 C   0  0  0  0  0  0  0  0  0  0  0  0
   -1.3408    3.8260    0.8453 O   0  0  0  0  0  0  0  0  0  0  0  0
   -3.6183    2.2272    0.0691 C   0  0  0  0  0  0  0  0  0  0  0  0
   -3.1733    2.3026    2.6690 H   0  0  0  0  0  0  0  0  0  0  0  0
   -2.1386    0.7120    0.3377 H   0  0  0  0  0  0  0  0  0  0  0  0
   -3.9272    3.1843    0.5017 H   0  0  0  0  0  0  0  0  0  0  0  0
   -3.4174    2.3811   -0.9946 H   0  0  0  0  0  0  0  0  0  0  0  0
   -4.4479    1.5199    0.1636 H   0  0  0  0  0  0  0  0  0  0  0  0
    0.1746    2.2094    0.3207 N   0  0  0  0  0  0  0  0  0  0  0  0
    0.5933    0.7280    0.0508 C   0  0  2  0  0  0  0  0  0  0  0  0
    2.1035    0.3616    0.1239 C   0  0  0  0  0  0  0  0  0  0  0  0
    2.4340   -0.8157    0.0417 O   0  0  0  0  0  0  0  0  0  0  0  0
    0.7366    0.8970   -1.4923 C   0  0  0  0  0  0  0  0  0  0  0  0
   -0.2185    1.9925   -1.6723 C   0  0  0  0  0  0  0  0  0  0  0  0
    0.5729    3.0316   -0.9701 C   0  0  0  0  0  0  0  0  0  0  0  0
   -0.0807   -0.0572    0.4043 H   0  0  0  0  0  0  0  0  0  0  0  0
    0.3832   -0.0117   -1.9927 H   0  0  0  0  0  0  0  0  0  0  0  0
    1.7097    1.1369   -1.9525 H   0  0  0  0  0  0  0  0  0  0  0  0
   -0.2244    2.2674   -2.7321 H   0  0  0  0  0  0  0  0  0  0  0  0
   -1.2646    1.7479   -1.4866 H   0  0  0  0  0  0  0  0  0  0  0  0
    1.6435    3.0959   -1.1937 H   0  0  0  0  0  0  0  0  0  0  0  0
    0.1384    4.0341   -1.0550 H   0  0  0  0  0  0  0  0  0  0  0  0
    3.0839    1.3466    0.1205 N   0  0  0  0  0  0  0  0  0  0  0  0
    4.5487    1.1652    0.0761 C   0  0  2  0  0  0  0  0  0  0  0  0
    5.0750    0.6058   -1.2653 C   0  0  0  0  0  0  0  0  0  0  0  0
    5.8951    1.2483   -1.9078 O   0  0  0  0  0  0  0  0  0  0  0  0
    5.0457    0.3251    1.2607 C   0  0  0  0  0  0  0  0  0  0  0  0
    2.7321    2.2937    0.2396 H   0  0  0  0  0  0  0  0  0  0  0  0
    4.9940    2.1594    0.1862 H   0  0  0  0  0  0  0  0  0  0  0  0
    4.7377   -0.7203    1.1659 H   0  0  0  0  0  0  0  0  0  0  0  0
    6.1387    0.3538    1.3071 H   0  0  0  0  0  0  0  0  0  0  0  0
    4.6490    0.7212    2.2001 H   0  0  0  0  0  0  0  0  0  0  0  0
    4.6071   -0.5895   -1.7731 N   0  0  0  0  0  0  0  0  0  0  0  0
    5.0062   -1.1428   -3.0593 C   0  0  0  0  0  0  0  0  0  0  0  0
    3.8743   -1.0532   -1.2290 H   0  0  0  0  0  0  0  0  0  0  0  0
    4.6940   -0.4810   -3.8738 H   0  0  0  0  0  0  0  0  0  0  0  0
    6.0933   -1.2675   -3.1026 H   0  0  0  0  0  0  0  0  0  0  0  0
    4.5408   -2.1218   -3.2079 H   0  0  0  0  0  0  0  0  0  0  0  0
  1  2  2  0  0  0  0
  1  3  1  0  0  0  0
  1  7  1  0  0  0  0
  3  4  1  0  0  0  0
  3  5  1  0  0  0  0
  3  6  1  0  0  0  0
  7  8  1  0  0  0  0
  7 12  1  0  0  0  0
  8  9  1  0  0  0  0
  8 11  1  0  0  0  0
  8 13  1  0  0  0  0
  9 10  2  0  0  0  0
  9 17  1  0  0  0  0
 11 14  1  0  0  0  0
 11 15  1  0  0  0  0
 11 16  1  0  0  0  0
 17 18  1  0  0  0  0
 17 23  1  0  0  0  0
 18 19  1  0  0  0  0
 18 21  1  0  0  0  0
 18 24  1  0  0  0  0
 19 20  2  0  0  0  0
 19 31  1  0  0  0  0
 21 22  1  0  0  0  0
 21 25  1  0  0  0  0
 21 26  1  0  0  0  0
 22 23  1  0  0  0  0
 22 27  1  0  0  0  0
 22 28  1  0  0  0  0
 23 29  1  0  0  0  0
 23 30  1  0  0  0  0
 31 32  1  0  0  0  0
 31 36  1  0  0  0  0
 32 33  1  0  0  0  0
 32 35  1  0  0  0  0
 32 37  1  0  0  0  0
 33 34  2  0  0  0  0
 33 41  1  0  0  0  0
 35 38  1  0  0  0  0
 35 39  1  0  0  0  0
 35 40  1  0  0  0  0
 41 42  1  0  0  0  0
 41 43  1  0  0  0  0
 42 44  1  0  0  0  0
 42 45  1  0  0  0  0
 42 46  1  0  0  0  0
M  END
$$$$

  -OEChem-05262217223D

 46 46  0     1  0  0  0  0  0999 V2000
   -2.4473    0.5333    2.8967 C   0  0  0  0  0  0  0  0  0  0  0  0
   -1.7117   -0.3290    2.4450 O   0  0  0  0  0  0  0  0  0  0  0  0
   -2.8186    0.5248    4.3675 C   0  0  0  0  0  0  0  0  0  0  0  0
   -3.9054    0.5094    4.4791 H   0  0  0  0  0  0  0  0  0  0  0  0
   -2.4027   -0.3611    4.8557 H   0  0  0  0  0  0  0  0  0  0  0  0
   -2.4213    1.4169    4.8581 H   0  0  0  0  0  0  0  0  0  0  0  0
   -2.9172    1.5360    2.0745 N   0  0  0  0  0  0  0  0  0  0  0  0
   -2.4558    1.7345    0.6940 C   0  0  2  0  0  0  0  0  0  0  0  0
   -1.1939    2.6455    0.6531 C   0  0  0  0  0  0  0  0  0  0  0  0
   -1.3623    3.8440    0.8664 O   0  0  0  0  0  0  0  0  0  0  0  0
   -3.6366    2.3407   -0.0779 C   0  0  0  0  0  0  0  0  0  0  0  0
   -3.3883    2.3135    2.5299 H   0  0  0  0  0  0  0  0  0  0  0  0
   -2.2260    0.7721    0.2305 H   0  0  0  0  0  0  0  0  0  0  0  0
   -3.9488    3.2887    0.3723 H   0  0  0  0  0  0  0  0  0  0  0  0
   -3.3628    2.5294   -1.1197 H   0  0  0  0  0  0  0  0  0  0  0  0
   -4.4886    1.6536   -0.0652 H   0  0  0  0  0  0  0  0  0  0  0  0
    0.1321    2.1895    0.4019 N   0  0  0  0  0  0  0  0  0  0  0  0
    0.5032    0.6980    0.1235 C   0  0  2  0  0  0  0  0  0  0  0  0
    1.9810    0.2446    0.2690 C   0  0  0  0  0  0  0  0  0  0  0  0
    2.3103   -0.9069    0.0010 O   0  0  0  0  0  0  0  0  0  0  0  0
    0.7818    0.9372   -1.3938 C   0  0  0  0  0  0  0  0  0  0  0  0
   -0.1024    2.0862   -1.6185 C   0  0  0  0  0  0  0  0  0  0  0  0
    0.6803    3.0468   -0.8024 C   0  0  0  0  0  0  0  0  0  0  0  0
   -0.2341   -0.0670    0.3784 H   0  0  0  0  0  0  0  0  0  0  0  0
    0.4381    0.0685   -1.9668 H   0  0  0  0  0  0  0  0  0  0  0  0
    1.8041    1.1519   -1.7543 H   0  0  0  0  0  0  0  0  0  0  0  0
   -0.0020    2.3994   -2.6627 H   0  0  0  0  0  0  0  0  0  0  0  0
   -1.1727    1.8921   -1.5261 H   0  0  0  0  0  0  0  0  0  0  0  0
    1.7703    3.0612   -0.9232 H   0  0  0  0  0  0  0  0  0  0  0  0
    0.3059    4.0741   -0.8715 H   0  0  0  0  0  0  0  0  0  0  0  0
    2.9395    1.1738    0.6462 N   0  0  0  0  0  0  0  0  0  0  0  0
    4.3968    0.9696    0.7674 C   0  0  2  0  0  0  0  0  0  0  0  0
    5.1110    0.6905   -0.5755 C   0  0  0  0  0  0  0  0  0  0  0  0
    6.0202    1.4238   -0.9413 O   0  0  0  0  0  0  0  0  0  0  0  0
    4.7214   -0.1141    1.8046 C   0  0  0  0  0  0  0  0  0  0  0  0
    2.5685    2.0909    0.8869 H   0  0  0  0  0  0  0  0  0  0  0  0
    4.8184    1.9064    1.1458 H   0  0  0  0  0  0  0  0  0  0  0  0
    4.4199   -1.1052    1.4534 H   0  0  0  0  0  0  0  0  0  0  0  0
    5.7982   -0.1352    1.9990 H   0  0  0  0  0  0  0  0  0  0  0  0
    4.2042    0.0942    2.7460 H   0  0  0  0  0  0  0  0  0  0  0  0
    4.7156   -0.3503   -1.3916 N   0  0  0  0  0  0  0  0  0  0  0  0
    5.2966   -0.6336   -2.6959 C   0  0  0  0  0  0  0  0  0  0  0  0
    3.9183   -0.9019   -1.0632 H   0  0  0  0  0  0  0  0  0  0  0  0
    5.1629    0.2204   -3.3680 H   0  0  0  0  0  0  0  0  0  0  0  0
    6.3668   -0.8444   -2.6006 H   0  0  0  0  0  0  0  0  0  0  0  0
    4.8104   -1.5061   -3.1428 H   0  0  0  0  0  0  0  0  0  0  0  0
  1  2  2  0  0  0  0
  1  3  1  0  0  0  0
  1  7  1  0  0  0  0
  3  4  1  0  0  0  0
  3  5  1  0  0  0  0
  3  6  1  0  0  0  0
  7  8  1  0  0  0  0
  7 12  1  0  0  0  0
  8  9  1  0  0  0  0
  8 11  1  0  0  0  0
  8 13  1  0  0  0  0
  9 10  2  0  0  0  0
  9 17  1  0  0  0  0
 11 14  1  0  0  0  0
 11 15  1  0  0  0  0
 11 16  1  0  0  0  0
 17 18  1  0  0  0  0
 17 23  1  0  0  0  0
 18 19  1  0  0  0  0
 18 21  1  0  0  0  0
 18 24  1  0  0  0  0
 19 20  2  0  0  0  0
 19 31  1  0  0  0  0
 21 22  1  0  0  0  0
 21 25  1  0  0  0  0
 21 26  1  0  0  0  0
 22 23  1  0  0  0  0
 22 27  1  0  0  0  0
 22 28  1  0  0  0  0
 23 29  1  0  0  0  0
 23 30  1  0  0  0  0
 31 32  1  0  0  0  0
 31 36  1  0  0  0  0
 32 33  1  0  0  0  0
 32 35  1  0  0  0  0
 32 37  1  0  0  0  0
 33 34  2  0  0  0  0
 33 41  1  0  0  0  0
 35 38  1  0  0  0  0
 35 39  1  0  0  0  0
 35 40  1  0  0  0  0
 41 42  1  0  0  0  0
 41 43  1  0  0  0  0
 42 44  1  0  0  0  0
 42 45  1  0  0  0  0
 42 46  1  0  0  0  0
M  END
$$$$

  -OEChem-05262217223D

 46 46  0     1  0  0  0  0  0999 V2000
   -2.6849    0.4816    2.7154 C   0  0  0  0  0  0  0  0  0  0  0  0
   -2.0101   -0.3841    2.1822 O   0  0  0  0  0  0  0  0  0  0  0  0
   -3.1271    0.3232    4.1579 C   0  0  0  0  0  0  0  0  0  0  0  0
   -4.2027    0.4962    4.2418 H   0  0  0  0  0  0  0  0  0  0  0  0
   -2.9060   -0.6884    4.5102 H   0  0  0  0  0  0  0  0  0  0  0  0
   -2.5995    1.0410    4.7909 H   0  0  0  0  0  0  0  0  0  0  0  0
   -3.0215    1.6216    2.0157 N   0  0  0  0  0  0  0  0  0  0  0  0
   -2.4952    1.9443    0.6826 C   0  0  2  0  0  0  0  0  0  0  0  0
   -1.1679    2.7492    0.7904 C   0  0  0  0  0  0  0  0  0  0  0  0
   -1.2521    3.9256    1.1352 O   0  0  0  0  0  0  0  0  0  0  0  0
   -3.5949    2.7303   -0.0457 C   0  0  0  0  0  0  0  0  0  0  0  0
   -3.4352    2.3788    2.5538 H   0  0  0  0  0  0  0  0  0  0  0  0
   -2.3226    1.0292    0.1113 H   0  0  0  0  0  0  0  0  0  0  0  0
   -3.8456    3.6458    0.5000 H   0  0  0  0  0  0  0  0  0  0  0  0
   -3.2690    3.0084   -1.0520 H   0  0  0  0  0  0  0  0  0  0  0  0
   -4.4994    2.1204   -0.1334 H   0  0  0  0  0  0  0  0  0  0  0  0
    0.1274    2.2171    0.5325 N   0  0  0  0  0  0  0  0  0  0  0  0
    0.3816    0.7401    0.0965 C   0  0  2  0  0  0  0  0  0  0  0  0
    1.8075    0.1441    0.2341 C   0  0  0  0  0  0  0  0  0  0  0  0
    2.1112   -0.9324   -0.2742 O   0  0  0  0  0  0  0  0  0  0  0  0
    0.7599    1.1486   -1.3636 C   0  0  0  0  0  0  0  0  0  0  0  0
   -0.0055    2.3950   -1.4887 C   0  0  0  0  0  0  0  0  0  0  0  0
    0.8174    3.1629   -0.5192 C   0  0  0  0  0  0  0  0  0  0  0  0
   -0.4292    0.0183    0.2184 H   0  0  0  0  0  0  0  0  0  0  0  0
    0.3747    0.3944   -2.0594 H   0  0  0  0  0  0  0  0  0  0  0  0
    1.8158    1.3101   -1.6492 H   0  0  0  0  0  0  0  0  0  0  0  0
    0.1836    2.8213   -2.4793 H   0  0  0  0  0  0  0  0  0  0  0  0
   -1.0931    2.2964   -1.4686 H   0  0  0  0  0  0  0  0  0  0  0  0
    1.9100    3.0841   -0.5833 H   0  0  0  0  0  0  0  0  0  0  0  0
    0.5439    4.2223   -0.4649 H   0  0  0  0  0  0  0  0  0  0  0  0
    2.7192    0.8279    1.0216 N   0  0  0  0  0  0  0  0  0  0  0  0
    4.1107    0.4457    1.3318 C   0  0  2  0  0  0  0  0  0  0  0  0
    5.0596    0.4531    0.1111 C   0  0  0  0  0  0  0  0  0  0  0  0
    6.0742    1.1372    0.1379 O   0  0  0  0  0  0  0  0  0  0  0  0
    4.1643   -0.9020    2.0647 C   0  0  0  0  0  0  0  0  0  0  0  0
    2.3625    1.6893    1.4317 H   0  0  0  0  0  0  0  0  0  0  0  0
    4.4994    1.1998    2.0244 H   0  0  0  0  0  0  0  0  0  0  0  0
    3.8844   -1.7267    1.4032 H   0  0  0  0  0  0  0  0  0  0  0  0
    5.1788   -1.0887    2.4303 H   0  0  0  0  0  0  0  0  0  0  0  0
    3.4828   -0.8957    2.9209 H   0  0  0  0  0  0  0  0  0  0  0  0
    4.7730   -0.2828   -1.0217 N   0  0  0  0  0  0  0  0  0  0  0  0
    5.6102   -0.3091   -2.2123 C   0  0  0  0  0  0  0  0  0  0  0  0
    3.8996   -0.8164   -1.0053 H   0  0  0  0  0  0  0  0  0  0  0  0
    5.7080    0.6968   -2.6341 H   0  0  0  0  0  0  0  0  0  0  0  0
    6.6078   -0.6896   -1.9696 H   0  0  0  0  0  0  0  0  0  0  0  0
    5.1660   -0.9611   -2.9703 H   0  0  0  0  0  0  0  0  0  0  0  0
  1  2  2  0  0  0  0
  1  3  1  0  0  0  0
  1  7  1  0  0  0  0
  3  4  1  0  0  0  0
  3  5  1  0  0  0  0
  3  6  1  0  0  0  0
  7  8  1  0  0  0  0
  7 12  1  0  0  0  0
  8  9  1  0  0  0  0
  8 11  1  0  0  0  0
  8 13  1  0  0  0  0
  9 10  2  0  0  0  0
  9 17  1  0  0  0  0
 11 14  1  0  0  0  0
 11 15  1  0  0  0  0
 11 16  1  0  0  0  0
 17 18  1  0  0  0  0
 17 23  1  0  0  0  0
 18 19  1  0  0  0  0
 18 21  1  0  0  0  0
 18 24  1  0  0  0  0
 19 20  2  0  0  0  0
 19 31  1  0  0  0  0
 21 22  1  0  0  0  0
 21 25  1  0  0  0  0
 21 26  1  0  0  0  0
 22 23  1  0  0  0  0
 22 27  1  0  0  0  0
 22 28  1  0  0  0  0
 23 29  1  0  0  0  0
 23 30  1  0  0  0  0
 31 32  1  0  0  0  0
 31 36  1  0  0  0  0
 32 33  1  0  0  0  0
 32 35  1  0  0  0  0
 32 37  1  0  0  0  0
 33 34  2  0  0  0  0
 33 41  1  0  0  0  0
 35 38  1  0  0  0  0
 35 39  1  0  0  0  0
 35 40  1  0  0  0  0
 41 42  1  0  0  0  0
 41 43  1  0  0  0  0
 42 44  1  0  0  0  0
 42 45  1  0  0  0  0
 42 46  1  0  0  0  0
M  END
$$$$

  -OEChem-05262217223D

 46 46  0     1  0  0  0  0  0999 V2000
   -1.9882    1.3216    3.3043 C   0  0  0  0  0  0  0  0  0  0  0  0
   -1.9644    0.2100    2.8021 O   0  0  0  0  0  0  0  0  0  0  0  0
   -1.6794    1.4935    4.7796 C   0  0  0  0  0  0  0  0  0  0  0  0
   -2.5413    1.9254    5.2939 H   0  0  0  0  0  0  0  0  0  0  0  0
   -1.4486    0.5248    5.2320 H   0  0  0  0  0  0  0  0  0  0  0  0
   -0.8184    2.1542    4.9071 H   0  0  0  0  0  0  0  0  0  0  0  0
   -2.2849    2.4257    2.5321 N   0  0  0  0  0  0  0  0  0  0  0  0
   -2.4460    2.3962    1.0712 C   0  0  2  0  0  0  0  0  0  0  0  0
   -1.1576    2.9008    0.3597 C   0  0  0  0  0  0  0  0  0  0  0  0
   -0.9933    4.1169    0.2913 O   0  0  0  0  0  0  0  0  0  0  0  0
   -3.6691    3.2629    0.7417 C   0  0  0  0  0  0  0  0  0  0  0  0
   -2.1692    3.3348    2.9730 H   0  0  0  0  0  0  0  0  0  0  0  0
   -2.6749    1.3848    0.7272 H   0  0  0  0  0  0  0  0  0  0  0  0
   -3.5315    4.2858    1.1075 H   0  0  0  0  0  0  0  0  0  0  0  0
   -3.8301    3.3021   -0.3399 H   0  0  0  0  0  0  0  0  0  0  0  0
   -4.5652    2.8442    1.2099 H   0  0  0  0  0  0  0  0  0  0  0  0
   -0.1704    2.0507   -0.2144 N   0  0  0  0  0  0  0  0  0  0  0  0
   -0.2801    0.4950   -0.1963 C   0  0  2  0  0  0  0  0  0  0  0  0
    0.9671   -0.3936   -0.4579 C   0  0  0  0  0  0  0  0  0  0  0  0
    0.8824   -1.5849   -0.7503 O   0  0  0  0  0  0  0  0  0  0  0  0
   -0.5541    0.4478   -1.7351 C   0  0  0  0  0  0  0  0  0  0  0  0
   -1.1705    1.7644   -1.9584 C   0  0  0  0  0  0  0  0  0  0  0  0
    0.0758    2.5289   -1.6909 C   0  0  0  0  0  0  0  0  0  0  0  0
   -1.0281    0.0399    0.4554 H   0  0  0  0  0  0  0  0  0  0  0  0
   -1.2816   -0.3456   -1.9423 H   0  0  0  0  0  0  0  0  0  0  0  0
    0.2758    0.2842   -2.4478 H   0  0  0  0  0  0  0  0  0  0  0  0
   -1.3938    1.8699   -3.0248 H   0  0  0  0  0  0  0  0  0  0  0  0
   -2.1408    1.9381   -1.4850 H   0  0  0  0  0  0  0  0  0  0  0  0
    1.0140    2.1869   -2.1461 H   0  0  0  0  0  0  0  0  0  0  0  0
   -0.0315    3.6041   -1.8713 H   0  0  0  0  0  0  0  0  0  0  0  0
    2.2015    0.1056   -0.0926 N   0  0  0  0  0  0  0  0  0  0  0  0
    3.4342   -0.6836    0.0159 C   0  0  2  0  0  0  0  0  0  0  0  0
    4.4146   -0.0723    1.0400 C   0  0  0  0  0  0  0  0  0  0  0  0
    4.2499    1.0711    1.4509 O   0  0  0  0  0  0  0  0  0  0  0  0
    4.0818   -0.7599   -1.3702 C   0  0  0  0  0  0  0  0  0  0  0  0
    2.2135    1.0432    0.3129 H   0  0  0  0  0  0  0  0  0  0  0  0
    3.1932   -1.6948    0.3598 H   0  0  0  0  0  0  0  0  0  0  0  0
    4.3220    0.2443   -1.7339 H   0  0  0  0  0  0  0  0  0  0  0  0
    5.0038   -1.3478   -1.3334 H   0  0  0  0  0  0  0  0  0  0  0  0
    3.3993   -1.2349   -2.0819 H   0  0  0  0  0  0  0  0  0  0  0  0
    5.4838   -0.8118    1.5113 N   0  0  0  0  0  0  0  0  0  0  0  0
    6.4326   -0.3083    2.4969 C   0  0  0  0  0  0  0  0  0  0  0  0
    5.5771   -1.7676    1.1800 H   0  0  0  0  0  0  0  0  0  0  0  0
    6.9189    0.6021    2.1304 H   0  0  0  0  0  0  0  0  0  0  0  0
    5.9224   -0.0808    3.4389 H   0  0  0  0  0  0  0  0  0  0  0  0
    7.2062   -1.0567    2.6942 H   0  0  0  0  0  0  0  0  0  0  0  0
  1  2  2  0  0  0  0
  1  3  1  0  0  0  0
  1  7  1  0  0  0  0
  3  4  1  0  0  0  0
  3  5  1  0  0  0  0
  3  6  1  0  0  0  0
  7  8  1  0  0  0  0
  7 12  1  0  0  0  0
  8  9  1  0  0  0  0
  8 11  1  0  0  0  0
  8 13  1  0  0  0  0
  9 10  2  0  0  0  0
  9 17  1  0  0  0  0
 11 14  1  0  0  0  0
 11 15  1  0  0  0  0
 11 16  1  0  0  0  0
 17 18  1  0  0  0  0
 17 23  1  0  0  0  0
 18 19  1  0  0  0  0
 18 21  1  0  0  0  0
 18 24  1  0  0  0  0
 19 20  2  0  0  0  0
 19 31  1  0  0  0  0
 21 22  1  0  0  0  0
 21 25  1  0  0  0  0
 21 26  1  0  0  0  0
 22 23  1  0  0  0  0
 22 27  1  0  0  0  0
 22 28  1  0  0  0  0
 23 29  1  0  0  0  0
 23 30  1  0  0  0  0
 31 32  1  0  0  0  0
 31 36  1  0  0  0  0
 32 33  1  0  0  0  0
 32 35  1  0  0  0  0
 32 37  1  0  0  0  0
 33 34  2  0  0  0  0
 33 41  1  0  0  0  0
 35 38  1  0  0  0  0
 35 39  1  0  0  0  0
 35 40  1  0  0  0  0
 41 42  1  0  0  0  0
 41 43  1  0  0  0  0
 42 44  1  0  0  0  0
 42 45  1  0  0  0  0
 42 46  1  0  0  0  0
M  END
$$$$

  -OEChem-05262217223D

 46 46  0     1  0  0  0  0  0999 V2000
   -2.1094   -0.0422    2.6966 C   0  0  0  0  0  0  0  0  0  0  0  0
   -1.8260   -0.8185    1.7996 O   0  0  0  0  0  0  0  0  0  0  0  0
   -2.1046   -0.5117    4.1390 C   0  0  0  0  0  0  0  0  0  0  0  0
   -3.0701   -0.2988    4.6045 H   0  0  0  0  0  0  0  0  0  0  0  0
   -1.9234   -1.5895    4.1841 H   0  0  0  0  0  0  0  0  0  0  0  0
   -1.3174    0.0017    4.6964 H   0  0  0  0  0  0  0  0  0  0  0  0
   -2.4024    1.2727    2.4018 N   0  0  0  0  0  0  0  0  0  0  0  0
   -2.2903    1.8537    1.0568 C   0  0  2  0  0  0  0  0  0  0  0  0
   -0.8682    2.4351    0.8079 C   0  0  0  0  0  0  0  0  0  0  0  0
   -0.5862    3.4828    1.3861 O   0  0  0  0  0  0  0  0  0  0  0  0
   -3.3795    2.9310    0.9530 C   0  0  0  0  0  0  0  0  0  0  0  0
   -2.4807    1.9123    3.1881 H   0  0  0  0  0  0  0  0  0  0  0  0
   -2.5185    1.1019    0.2986 H   0  0  0  0  0  0  0  0  0  0  0  0
   -3.2341    3.7067    1.7119 H   0  0  0  0  0  0  0  0  0  0  0  0
   -3.3589    3.4057   -0.0321 H   0  0  0  0  0  0  0  0  0  0  0  0
   -4.3682    2.4846    1.0985 H   0  0  0  0  0  0  0  0  0  0  0  0
    0.1312    1.8321   -0.0079 N   0  0  0  0  0  0  0  0  0  0  0  0
   -0.0952    0.4855   -0.7688 C   0  0  2  0  0  0  0  0  0  0  0  0
    1.0542   -0.4073   -1.3473 C   0  0  0  0  0  0  0  0  0  0  0  0
    0.8938   -1.1784   -2.2885 O   0  0  0  0  0  0  0  0  0  0  0  0
   -0.1012    1.2484   -2.1358 C   0  0  0  0  0  0  0  0  0  0  0  0
   -0.5692    2.5899   -1.7534 C   0  0  0  0  0  0  0  0  0  0  0  0
    0.6672    2.9221   -1.0006 C   0  0  0  0  0  0  0  0  0  0  0  0
   -0.9924   -0.0831   -0.5193 H   0  0  0  0  0  0  0  0  0  0  0  0
   -0.8382    0.7807   -2.7996 H   0  0  0  0  0  0  0  0  0  0  0  0
    0.8290    1.3202   -2.7295 H   0  0  0  0  0  0  0  0  0  0  0  0
   -0.5935    3.2252   -2.6446 H   0  0  0  0  0  0  0  0  0  0  0  0
   -1.5895    2.6575   -1.3663 H   0  0  0  0  0  0  0  0  0  0  0  0
    1.6416    2.7051   -1.4569 H   0  0  0  0  0  0  0  0  0  0  0  0
    0.6780    3.9509   -0.6242 H   0  0  0  0  0  0  0  0  0  0  0  0
    2.1999   -0.7032   -0.6423 N   0  0  0  0  0  0  0  0  0  0  0  0
    2.7004   -0.0323    0.5633 C   0  0  2  0  0  0  0  0  0  0  0  0
    4.2337   -0.1613    0.7035 C   0  0  0  0  0  0  0  0  0  0  0  0
    4.8649   -0.9311   -0.0104 O   0  0  0  0  0  0  0  0  0  0  0  0
    2.0021   -0.6379    1.7857 C   0  0  0  0  0  0  0  0  0  0  0  0
    2.8174   -1.3794   -1.0928 H   0  0  0  0  0  0  0  0  0  0  0  0
    2.4833    1.0368    0.5093 H   0  0  0  0  0  0  0  0  0  0  0  0
    2.2273   -1.7068    1.8611 H   0  0  0  0  0  0  0  0  0  0  0  0
    2.3353   -0.1452    2.7038 H   0  0  0  0  0  0  0  0  0  0  0  0
    0.9182   -0.5185    1.7078 H   0  0  0  0  0  0  0  0  0  0  0  0
    4.9174    0.6182    1.6193 N   0  0  0  0  0  0  0  0  0  0  0  0
    6.3655    0.5726    1.7851 C   0  0  0  0  0  0  0  0  0  0  0  0
    4.3764    1.2632    2.1877 H   0  0  0  0  0  0  0  0  0  0  0  0
    6.6899   -0.4402    2.0471 H   0  0  0  0  0  0  0  0  0  0  0  0
    6.8670    0.8747    0.8596 H   0  0  0  0  0  0  0  0  0  0  0  0
    6.6767    1.2520    2.5844 H   0  0  0  0  0  0  0  0  0  0  0  0
  1  2  2  0  0  0  0
  1  3  1  0  0  0  0
  1  7  1  0  0  0  0
  3  4  1  0  0  0  0
  3  5  1  0  0  0  0
  3  6  1  0  0  0  0
  7  8  1  0  0  0  0
  7 12  1  0  0  0  0
  8  9  1  0  0  0  0
  8 11  1  0  0  0  0
  8 13  1  0  0  0  0
  9 10  2  0  0  0  0
  9 17  1  0  0  0  0
 11 14  1  0  0  0  0
 11 15  1  0  0  0  0
 11 16  1  0  0  0  0
 17 18  1  0  0  0  0
 17 23  1  0  0  0  0
 18 19  1  0  0  0  0
 18 21  1  0  0  0  0
 18 24  1  0  0  0  0
 19 20  2  0  0  0  0
 19 31  1  0  0  0  0
 21 22  1  0  0  0  0
 21 25  1  0  0  0  0
 21 26  1  0  0  0  0
 22 23  1  0  0  0  0
 22 27  1  0  0  0  0
 22 28  1  0  0  0  0
 23 29  1  0  0  0  0
 23 30  1  0  0  0  0
 31 32  1  0  0  0  0
 31 36  1  0  0  0  0
 32 33  1  0  0  0  0
 32 35  1  0  0  0  0
 32 37  1  0  0  0  0
 33 34  2  0  0  0  0
 33 41  1  0  0  0  0
 35 38  1  0  0  0  0
 35 39  1  0  0  0  0
 35 40  1  0  0  0  0
 41 42  1  0  0  0  0
 41 43  1  0  0  0  0
 42 44  1  0  0  0  0
 42 45  1  0  0  0  0
 42 46  1  0  0  0  0
M  END
$$$$

  -OEChem-05262217223D

 46 46  0     1  0  0  0  0  0999 V2000
   -0.7258    1.4773    3.1806 C   0  0  0  0  0  0  0  0  0  0  0  0
   -1.2000    0.3680    2.9953 O   0  0  0  0  0  0  0  0  0  0  0  0
    0.2819    1.6944    4.2937 C   0  0  0  0  0  0  0  0  0  0  0  0
    0.0158    2.5796    4.8763 H   0  0  0  0  0  0  0  0  0  0  0  0
    0.2995    0.8282    4.9609 H   0  0  0  0  0  0  0  0  0  0  0  0
    1.2807    1.8310    3.8702 H   0  0  0  0  0  0  0  0  0  0  0  0
   -1.0684    2.5263    2.3501 N   0  0  0  0  0  0  0  0  0  0  0  0
   -1.9278    2.4242    1.1571 C   0  0  2  0  0  0  0  0  0  0  0  0
   -1.1513    2.8715   -0.1176 C   0  0  0  0  0  0  0  0  0  0  0  0
   -1.3419    4.0055   -0.5486 O   0  0  0  0  0  0  0  0  0  0  0  0
   -3.1777    3.2724    1.4279 C   0  0  0  0  0  0  0  0  0  0  0  0
   -0.6237    3.4217    2.5382 H   0  0  0  0  0  0  0  0  0  0  0  0
   -2.2681    1.3956    1.0085 H   0  0  0  0  0  0  0  0  0  0  0  0
   -2.9068    4.3156    1.6195 H   0  0  0  0  0  0  0  0  0  0  0  0
   -3.8518    3.2418    0.5663 H   0  0  0  0  0  0  0  0  0  0  0  0
   -3.7138    2.8866    2.3004 H   0  0  0  0  0  0  0  0  0  0  0  0
   -0.2362    2.0309   -0.8132 N   0  0  0  0  0  0  0  0  0  0  0  0
    0.0291    0.5800   -0.3189 C   0  0  2  0  0  0  0  0  0  0  0  0
    1.2540   -0.2874   -0.7303 C   0  0  0  0  0  0  0  0  0  0  0  0
    1.2244   -1.5198   -0.7625 O   0  0  0  0  0  0  0  0  0  0  0  0
   -0.6968    0.0443   -1.6028 C   0  0  0  0  0  0  0  0  0  0  0  0
   -1.6404    1.1253   -1.9551 C   0  0  0  0  0  0  0  0  0  0  0  0
   -0.5600    2.0634   -2.3478 C   0  0  0  0  0  0  0  0  0  0  0  0
   -0.4079    0.2855    0.6342 H   0  0  0  0  0  0  0  0  0  0  0  0
   -1.2683   -0.8523   -1.3338 H   0  0  0  0  0  0  0  0  0  0  0  0
   -0.1018   -0.2439   -2.4898 H   0  0  0  0  0  0  0  0  0  0  0  0
   -2.1801    0.8428   -2.8645 H   0  0  0  0  0  0  0  0  0  0  0  0
   -2.4446    1.3444   -1.2458 H   0  0  0  0  0  0  0  0  0  0  0  0
    0.2402    1.7064   -3.0088 H   0  0  0  0  0  0  0  0  0  0  0  0
   -0.9367    3.0169   -2.7345 H   0  0  0  0  0  0  0  0  0  0  0  0
    2.4654    0.2848   -0.3866 N   0  0  0  0  0  0  0  0  0  0  0  0
    3.5591   -0.4737    0.2360 C   0  0  2  0  0  0  0  0  0  0  0  0
    3.2080   -0.8185    1.7038 C   0  0  0  0  0  0  0  0  0  0  0  0
    3.5882   -0.1151    2.6331 O   0  0  0  0  0  0  0  0  0  0  0  0
    4.8370    0.3637    0.1138 C   0  0  0  0  0  0  0  0  0  0  0  0
    2.4056    1.2707   -0.1414 H   0  0  0  0  0  0  0  0  0  0  0  0
    3.7241   -1.4136   -0.3022 H   0  0  0  0  0  0  0  0  0  0  0  0
    4.7185    1.3295    0.6153 H   0  0  0  0  0  0  0  0  0  0  0  0
    5.6789   -0.1632    0.5736 H   0  0  0  0  0  0  0  0  0  0  0  0
    5.0733    0.5438   -0.9392 H   0  0  0  0  0  0  0  0  0  0  0  0
    2.3269   -1.8526    1.9516 N   0  0  0  0  0  0  0  0  0  0  0  0
    1.7175   -2.0898    3.2536 C   0  0  0  0  0  0  0  0  0  0  0  0
    1.8688   -2.2404    1.1238 H   0  0  0  0  0  0  0  0  0  0  0  0
    2.4858   -2.1876    4.0279 H   0  0  0  0  0  0  0  0  0  0  0  0
    1.0510   -1.2636    3.5195 H   0  0  0  0  0  0  0  0  0  0  0  0
    1.1326   -3.0145    3.2326 H   0  0  0  0  0  0  0  0  0  0  0  0
  1  2  2  0  0  0  0
  1  3  1  0  0  0  0
  1  7  1  0  0  0  0
  3  4  1  0  0  0  0
  3  5  1  0  0  0  0
  3  6  1  0  0  0  0
  7  8  1  0  0  0  0
  7 12  1  0  0  0  0
  8  9  1  0  0  0  0
  8 11  1  0  0  0  0
  8 13  1  0  0  0  0
  9 10  2  0  0  0  0
  9 17  1  0  0  0  0
 11 14  1  0  0  0  0
 11 15  1  0  0  0  0
 11 16  1  0  0  0  0
 17 18  1  0  0  0  0
 17 23  1  0  0  0  0
 18 19  1  0  0  0  0
 18 21  1  0  0  0  0
 18 24  1  0  0  0  0
 19 20  2  0  0  0  0
 19 31  1  0  0  0  0
 21 22  1  0  0  0  0
 21 25  1  0  0  0  0
 21 26  1  0  0  0  0
 22 23  1  0  0  0  0
 22 27  1  0  0  0  0
 22 28  1  0  0  0  0
 23 29  1  0  0  0  0
 23 30  1  0  0  0  0
 31 32  1  0  0  0  0
 31 36  1  0  0  0  0
 32 33  1  0  0  0  0
 32 35  1  0  0  0  0
 32 37  1  0  0  0  0
 33 34  2  0  0  0  0
 33 41  1  0  0  0  0
 35 38  1  0  0  0  0
 35 39  1  0  0  0  0
 35 40  1  0  0  0  0
 41 42  1  0  0  0  0
 41 43  1  0  0  0  0
 42 44  1  0  0  0  0
 42 45  1  0  0  0  0
 42 46  1  0  0  0  0
M  END
$$$$

  -OEChem-05262217223D

 46 46  0     1  0  0  0  0  0999 V2000
   -2.8658    1.2718    2.7701 C   0  0  0  0  0  0  0  0  0  0  0  0
   -1.9267    0.5538    2.4582 O   0  0  0  0  0  0  0  0  0  0  0  0
   -3.4647    1.1630    4.1597 C   0  0  0  0  0  0  0  0  0  0  0  0
   -4.5212    0.8924    4.0917 H   0  0  0  0  0  0  0  0  0  0  0  0
   -2.9415    0.3963    4.7380 H   0  0  0  0  0  0  0  0  0  0  0  0
   -3.3730    2.1190    4.6811 H   0  0  0  0  0  0  0  0  0  0  0  0
   -3.3782    2.2016    1.8829 N   0  0  0  0  0  0  0  0  0  0  0  0
   -2.7688    2.5458    0.5852 C   0  0  2  0  0  0  0  0  0  0  0  0
   -1.3152    3.1011    0.7907 C   0  0  0  0  0  0  0  0  0  0  0  0
   -1.3021    4.2629    1.1921 O   0  0  0  0  0  0  0  0  0  0  0  0
   -3.0832    1.4095   -0.4104 C   0  0  0  0  0  0  0  0  0  0  0  0
   -4.0513    2.8570    2.2706 H   0  0  0  0  0  0  0  0  0  0  0  0
   -3.3155    3.4082    0.1887 H   0  0  0  0  0  0  0  0  0  0  0  0
   -4.1435    1.4513   -0.6778 H   0  0  0  0  0  0  0  0  0  0  0  0
   -2.5062    1.4996   -1.3321 H   0  0  0  0  0  0  0  0  0  0  0  0
   -2.9057    0.4234    0.0255 H   0  0  0  0  0  0  0  0  0  0  0  0
   -0.0467    2.4685    0.6015 N   0  0  0  0  0  0  0  0  0  0  0  0
    0.0774    0.9984    0.1092 C   0  0  2  0  0  0  0  0  0  0  0  0
    1.3585    0.1029    0.2426 C   0  0  0  0  0  0  0  0  0  0  0  0
    1.8674   -0.5966   -0.6390 O   0  0  0  0  0  0  0  0  0  0  0  0
    0.6497    1.5701   -1.2375 C   0  0  0  0  0  0  0  0  0  0  0  0
    0.0733    2.9239   -1.3754 C   0  0  0  0  0  0  0  0  0  0  0  0
    0.8724    3.4366   -0.2295 C   0  0  0  0  0  0  0  0  0  0  0  0
   -0.8297    0.4071    0.0589 H   0  0  0  0  0  0  0  0  0  0  0  0
    0.2771    0.9463   -2.0586 H   0  0  0  0  0  0  0  0  0  0  0  0
    1.7432    1.6226   -1.3896 H   0  0  0  0  0  0  0  0  0  0  0  0
    0.4603    3.3863   -2.2892 H   0  0  0  0  0  0  0  0  0  0  0  0
   -1.0087    3.0240   -1.4809 H   0  0  0  0  0  0  0  0  0  0  0  0
    1.9488    3.2258   -0.1803 H   0  0  0  0  0  0  0  0  0  0  0  0
    0.7275    4.5079   -0.0538 H   0  0  0  0  0  0  0  0  0  0  0  0
    1.5461   -0.3366    1.5434 N   0  0  0  0  0  0  0  0  0  0  0  0
    2.2910   -1.5213    2.0237 C   0  0  2  0  0  0  0  0  0  0  0  0
    3.8198   -1.5067    1.7829 C   0  0  0  0  0  0  0  0  0  0  0  0
    4.5737   -1.8468    2.6860 O   0  0  0  0  0  0  0  0  0  0  0  0
    1.6652   -2.8154    1.4857 C   0  0  0  0  0  0  0  0  0  0  0  0
    0.9460    0.1289    2.2244 H   0  0  0  0  0  0  0  0  0  0  0  0
    2.1668   -1.5394    3.1113 H   0  0  0  0  0  0  0  0  0  0  0  0
    1.8449   -2.9275    0.4129 H   0  0  0  0  0  0  0  0  0  0  0  0
    2.0995   -3.6812    1.9947 H   0  0  0  0  0  0  0  0  0  0  0  0
    0.5852   -2.8166    1.6609 H   0  0  0  0  0  0  0  0  0  0  0  0
    4.3573   -1.1633    0.5586 N   0  0  0  0  0  0  0  0  0  0  0  0
    5.7778   -1.2236    0.2441 C   0  0  0  0  0  0  0  0  0  0  0  0
    3.6824   -0.9695   -0.1851 H   0  0  0  0  0  0  0  0  0  0  0  0
    6.3462   -0.5699    0.9137 H   0  0  0  0  0  0  0  0  0  0  0  0
    6.1502   -2.2479    0.3504 H   0  0  0  0  0  0  0  0  0  0  0  0
    5.9498   -0.8966   -0.7858 H   0  0  0  0  0  0  0  0  0  0  0  0
  1  2  2  0  0  0  0
  1  3  1  0  0  0  0
  1  7  1  0  0  0  0
  3  4  1  0  0  0  0
  3  5  1  0  0  0  0
  3  6  1  0  0  0  0
  7  8  1  0  0  0  0
  7 12  1  0  0  0  0
  8  9  1  0  0  0  0
  8 11  1  0  0  0  0
  8 13  1  0  0  0  0
  9 10  2  0  0  0  0
  9 17  1  0  0  0  0
 11 14  1  0  0  0  0
 11 15  1  0  0  0  0
 11 16  1  0  0  0  0
 17 18  1  0  0  0  0
 17 23  1  0  0  0  0
 18 19  1  0  0  0  0
 18 21  1  0  0  0  0
 18 24  1  0  0  0  0
 19 20  2  0  0  0  0
 19 31  1  0  0  0  0
 21 22  1  0  0  0  0
 21 25  1  0  0  0  0
 21 26  1  0  0  0  0
 22 23  1  0  0  0  0
 22 27  1  0  0  0  0
 22 28  1  0  0  0  0
 23 29  1  0  0  0  0
 23 30  1  0  0  0  0
 31 32  1  0  0  0  0
 31 36  1  0  0  0  0
 32 33  1  0  0  0  0
 32 35  1  0  0  0  0
 32 37  1  0  0  0  0
 33 34  2  0  0  0  0
 33 41  1  0  0  0  0
 35 38  1  0  0  0  0
 35 39  1  0  0  0  0
 35 40  1  0  0  0  0
 41 42  1  0  0  0  0
 41 43  1  0  0  0  0
 42 44  1  0  0  0  0
 42 45  1  0  0  0  0
 42 46  1  0  0  0  0
M  END
$$$$

  -OEChem-05262217223D

 46 46  0     1  0  0  0  0  0999 V2000
   -2.9602    0.9411    2.5484 C   0  0  0  0  0  0  0  0  0  0  0  0
   -2.1711    0.1007    2.1429 O   0  0  0  0  0  0  0  0  0  0  0  0
   -3.5291    0.8274    3.9496 C   0  0  0  0  0  0  0  0  0  0  0  0
   -4.6207    0.8009    3.9096 H   0  0  0  0  0  0  0  0  0  0  0  0
   -3.1725   -0.0881    4.4301 H   0  0  0  0  0  0  0  0  0  0  0  0
   -3.2139    1.6844    4.5500 H   0  0  0  0  0  0  0  0  0  0  0  0
   -3.3042    2.0201    1.7579 N   0  0  0  0  0  0  0  0  0  0  0  0
   -2.6372    2.3500    0.4889 C   0  0  2  0  0  0  0  0  0  0  0  0
   -1.2085    2.9189    0.7471 C   0  0  0  0  0  0  0  0  0  0  0  0
   -1.1418    4.0783    1.1508 O   0  0  0  0  0  0  0  0  0  0  0  0
   -3.5439    3.3592   -0.2318 C   0  0  0  0  0  0  0  0  0  0  0  0
   -3.8192    2.7646    2.2207 H   0  0  0  0  0  0  0  0  0  0  0  0
   -2.5812    1.4624   -0.1432 H   0  0  0  0  0  0  0  0  0  0  0  0
   -3.6788    4.2622    0.3727 H   0  0  0  0  0  0  0  0  0  0  0  0
   -3.1097    3.6518   -1.1921 H   0  0  0  0  0  0  0  0  0  0  0  0
   -4.5276    2.9179   -0.4196 H   0  0  0  0  0  0  0  0  0  0  0  0
    0.0029    2.1882    0.5529 N   0  0  0  0  0  0  0  0  0  0  0  0
    0.0099    0.7087    0.0389 C   0  0  2  0  0  0  0  0  0  0  0  0
    1.2292   -0.2842    0.1793 C   0  0  0  0  0  0  0  0  0  0  0  0
    1.9674   -0.8002   -0.6658 O   0  0  0  0  0  0  0  0  0  0  0  0
    0.5643    1.2246   -1.3388 C   0  0  0  0  0  0  0  0  0  0  0  0
    0.0681    2.6014   -1.4439 C   0  0  0  0  0  0  0  0  0  0  0  0
    0.9410    3.0856   -0.3344 C   0  0  0  0  0  0  0  0  0  0  0  0
   -0.9492    0.1926   -0.0044 H   0  0  0  0  0  0  0  0  0  0  0  0
    0.1295    0.6136   -2.1381 H   0  0  0  0  0  0  0  0  0  0  0  0
    1.6477    1.2420   -1.5382 H   0  0  0  0  0  0  0  0  0  0  0  0
    0.4402    3.0466   -2.3722 H   0  0  0  0  0  0  0  0  0  0  0  0
   -1.0134    2.7304   -1.5225 H   0  0  0  0  0  0  0  0  0  0  0  0
    2.0035    2.8099   -0.3222 H   0  0  0  0  0  0  0  0  0  0  0  0
    0.8667    4.1664   -0.1719 H   0  0  0  0  0  0  0  0  0  0  0  0
    1.1414   -0.9804    1.3755 N   0  0  0  0  0  0  0  0  0  0  0  0
    1.8863   -2.1813    1.8145 C   0  0  2  0  0  0  0  0  0  0  0  0
    3.4116   -1.9880    1.9882 C   0  0  0  0  0  0  0  0  0  0  0  0
    3.9622   -2.4051    2.9992 O   0  0  0  0  0  0  0  0  0  0  0  0
    1.5860   -3.3883    0.9146 C   0  0  0  0  0  0  0  0  0  0  0  0
    0.4119   -0.6414    2.0035 H   0  0  0  0  0  0  0  0  0  0  0  0
    1.5050   -2.4302    2.8102 H   0  0  0  0  0  0  0  0  0  0  0  0
    2.0471   -3.2750   -0.0706 H   0  0  0  0  0  0  0  0  0  0  0  0
    1.9816   -4.3009    1.3711 H   0  0  0  0  0  0  0  0  0  0  0  0
    0.5062   -3.5065    0.7839 H   0  0  0  0  0  0  0  0  0  0  0  0
    4.1741   -1.3739    1.0151 N   0  0  0  0  0  0  0  0  0  0  0  0
    5.6170   -1.1975    1.0951 C   0  0  0  0  0  0  0  0  0  0  0  0
    3.6753   -1.0949    0.1671 H   0  0  0  0  0  0  0  0  0  0  0  0
    5.8789   -0.5773    1.9586 H   0  0  0  0  0  0  0  0  0  0  0  0
    6.1162   -2.1672    1.1916 H   0  0  0  0  0  0  0  0  0  0  0  0
    5.9880   -0.7057    0.1909 H   0  0  0  0  0  0  0  0  0  0  0  0
  1  2  2  0  0  0  0
  1  3  1  0  0  0  0
  1  7  1  0  0  0  0
  3  4  1  0  0  0  0
  3  5  1  0  0  0  0
  3  6  1  0  0  0  0
  7  8  1  0  0  0  0
  7 12  1  0  0  0  0
  8  9  1  0  0  0  0
  8 11  1  0  0  0  0
  8 13  1  0  0  0  0
  9 10  2  0  0  0  0
  9 17  1  0  0  0  0
 11 14  1  0  0  0  0
 11 15  1  0  0  0  0
 11 16  1  0  0  0  0
 17 18  1  0  0  0  0
 17 23  1  0  0  0  0
 18 19  1  0  0  0  0
 18 21  1  0  0  0  0
 18 24  1  0  0  0  0
 19 20  2  0  0  0  0
 19 31  1  0  0  0  0
 21 22  1  0  0  0  0
 21 25  1  0  0  0  0
 21 26  1  0  0  0  0
 22 23  1  0  0  0  0
 22 27  1  0  0  0  0
 22 28  1  0  0  0  0
 23 29  1  0  0  0  0
 23 30  1  0  0  0  0
 31 32  1  0  0  0  0
 31 36  1  0  0  0  0
 32 33  1  0  0  0  0
 32 35  1  0  0  0  0
 32 37  1  0  0  0  0
 33 34  2  0  0  0  0
 33 41  1  0  0  0  0
 35 38  1  0  0  0  0
 35 39  1  0  0  0  0
 35 40  1  0  0  0  0
 41 42  1  0  0  0  0
 41 43  1  0  0  0  0
 42 44  1  0  0  0  0
 42 45  1  0  0  0  0
 42 46  1  0  0  0  0
M  END
$$$$

  -OEChem-05262217223D

 46 46  0     1  0  0  0  0  0999 V2000
   -2.8678    0.6042    2.6688 C   0  0  0  0  0  0  0  0  0  0  0  0
   -2.5677   -0.2582    1.8557 O   0  0  0  0  0  0  0  0  0  0  0  0
   -3.1695    0.2209    4.1052 C   0  0  0  0  0  0  0  0  0  0  0  0
   -4.1572    0.5901    4.3917 H   0  0  0  0  0  0  0  0  0  0  0  0
   -3.1548   -0.8667    4.2183 H   0  0  0  0  0  0  0  0  0  0  0  0
   -2.4189    0.6538    4.7711 H   0  0  0  0  0  0  0  0  0  0  0  0
   -2.8990    1.9336    2.2974 N   0  0  0  0  0  0  0  0  0  0  0  0
   -2.4026    2.4286    1.0055 C   0  0  2  0  0  0  0  0  0  0  0  0
   -0.8547    2.6130    1.0552 C   0  0  0  0  0  0  0  0  0  0  0  0
   -0.4288    3.5880    1.6703 O   0  0  0  0  0  0  0  0  0  0  0  0
   -3.1450    3.7428    0.7211 C   0  0  0  0  0  0  0  0  0  0  0  0
   -2.9731    2.6070    3.0560 H   0  0  0  0  0  0  0  0  0  0  0  0
   -2.6654    1.7191    0.2166 H   0  0  0  0  0  0  0  0  0  0  0  0
   -2.9582    4.4735    1.5151 H   0  0  0  0  0  0  0  0  0  0  0  0
   -2.8163    4.1773   -0.2272 H   0  0  0  0  0  0  0  0  0  0  0  0
   -4.2228    3.5626    0.6624 H   0  0  0  0  0  0  0  0  0  0  0  0
    0.0811    1.7275    0.4463 N   0  0  0  0  0  0  0  0  0  0  0  0
   -0.2900    0.4509   -0.3714 C   0  0  2  0  0  0  0  0  0  0  0  0
    0.8607   -0.6004   -0.5691 C   0  0  0  0  0  0  0  0  0  0  0  0
    2.0238   -0.3896   -0.9166 O   0  0  0  0  0  0  0  0  0  0  0  0
   -0.0280    1.0733   -1.7794 C   0  0  0  0  0  0  0  0  0  0  0  0
   -0.2889    2.4650   -1.4356 C   0  0  0  0  0  0  0  0  0  0  0  0
    0.9040    2.6377   -0.5563 C   0  0  0  0  0  0  0  0  0  0  0  0
   -1.2849    0.0288   -0.2209 H   0  0  0  0  0  0  0  0  0  0  0  0
   -0.7850    0.7014   -2.4778 H   0  0  0  0  0  0  0  0  0  0  0  0
    0.9266    0.9817   -2.3137 H   0  0  0  0  0  0  0  0  0  0  0  0
   -0.1041    3.0735   -2.3269 H   0  0  0  0  0  0  0  0  0  0  0  0
   -1.3197    2.7173   -1.1979 H   0  0  0  0  0  0  0  0  0  0  0  0
    1.8615    2.2212   -0.8922 H   0  0  0  0  0  0  0  0  0  0  0  0
    1.0648    3.6753   -0.2427 H   0  0  0  0  0  0  0  0  0  0  0  0
    0.6893   -1.7194    0.2337 N   0  0  0  0  0  0  0  0  0  0  0  0
    1.6672   -2.7828    0.5587 C   0  0  2  0  0  0  0  0  0  0  0  0
    2.7893   -2.3648    1.5387 C   0  0  0  0  0  0  0  0  0  0  0  0
    3.1425   -3.1443    2.4147 O   0  0  0  0  0  0  0  0  0  0  0  0
    2.2555   -3.4236   -0.7069 C   0  0  0  0  0  0  0  0  0  0  0  0
   -0.1880   -1.7380    0.7522 H   0  0  0  0  0  0  0  0  0  0  0  0
    1.1035   -3.5695    1.0710 H   0  0  0  0  0  0  0  0  0  0  0  0
    2.9429   -2.7419   -1.2159 H   0  0  0  0  0  0  0  0  0  0  0  0
    2.8115   -4.3283   -0.4417 H   0  0  0  0  0  0  0  0  0  0  0  0
    1.4566   -3.6988   -1.4015 H   0  0  0  0  0  0  0  0  0  0  0  0
    3.3990   -1.1297    1.4512 N   0  0  0  0  0  0  0  0  0  0  0  0
    4.4675   -0.6782    2.3306 C   0  0  0  0  0  0  0  0  0  0  0  0
    3.1180   -0.5482    0.6580 H   0  0  0  0  0  0  0  0  0  0  0  0
    5.3359   -1.3405    2.2504 H   0  0  0  0  0  0  0  0  0  0  0  0
    4.7771    0.3349    2.0565 H   0  0  0  0  0  0  0  0  0  0  0  0
    4.1266   -0.6657    3.3713 H   0  0  0  0  0  0  0  0  0  0  0  0
  1  2  2  0  0  0  0
  1  3  1  0  0  0  0
  1  7  1  0  0  0  0
  3  4  1  0  0  0  0
  3  5  1  0  0  0  0
  3  6  1  0  0  0  0
  7  8  1  0  0  0  0
  7 12  1  0  0  0  0
  8  9  1  0  0  0  0
  8 11  1  0  0  0  0
  8 13  1  0  0  0  0
  9 10  2  0  0  0  0
  9 17  1  0  0  0  0
 11 14  1  0  0  0  0
 11 15  1  0  0  0  0
 11 16  1  0  0  0  0
 17 18  1  0  0  0  0
 17 23  1  0  0  0  0
 18 19  1  0  0  0  0
 18 21  1  0  0  0  0
 18 24  1  0  0  0  0
 19 20  2  0  0  0  0
 19 31  1  0  0  0  0
 21 22  1  0  0  0  0
 21 25  1  0  0  0  0
 21 26  1  0  0  0  0
 22 23  1  0  0  0  0
 22 27  1  0  0  0  0
 22 28  1  0  0  0  0
 23 29  1  0  0  0  0
 23 30  1  0  0  0  0
 31 32  1  0  0  0  0
 31 36  1  0  0  0  0
 32 33  1  0  0  0  0
 32 35  1  0  0  0  0
 32 37  1  0  0  0  0
 33 34  2  0  0  0  0
 33 41  1  0  0  0  0
 35 38  1  0  0  0  0
 35 39  1  0  0  0  0
 35 40  1  0  0  0  0
 41 42  1  0  0  0  0
 41 43  1  0  0  0  0
 42 44  1  0  0  0  0
 42 45  1  0  0  0  0
 42 46  1  0  0  0  0
M  END
$$$$

  -OEChem-05262217223D

 46 46  0     1  0  0  0  0  0999 V2000
   -2.7931    0.9017    2.6269 C   0  0  0  0  0  0  0  0  0  0  0  0
   -2.6841   -0.0039    1.8134 O   0  0  0  0  0  0  0  0  0  0  0  0
   -3.0530    0.5815    4.0866 C   0  0  0  0  0  0  0  0  0  0  0  0
   -3.9898    1.0422    4.4092 H   0  0  0  0  0  0  0  0  0  0  0  0
   -3.1251   -0.5005    4.2297 H   0  0  0  0  0  0  0  0  0  0  0  0
   -2.2353    0.9635    4.7032 H   0  0  0  0  0  0  0  0  0  0  0  0
   -2.6516    2.2171    2.2322 N   0  0  0  0  0  0  0  0  0  0  0  0
   -2.1809    2.6270    0.9013 C   0  0  2  0  0  0  0  0  0  0  0  0
   -0.6243    2.7089    0.8737 C   0  0  0  0  0  0  0  0  0  0  0  0
   -0.1068    3.6949    1.3933 O   0  0  0  0  0  0  0  0  0  0  0  0
   -2.8434    3.9765    0.5897 C   0  0  0  0  0  0  0  0  0  0  0  0
   -2.5882    2.9041    2.9796 H   0  0  0  0  0  0  0  0  0  0  0  0
   -2.5263    1.9137    0.1491 H   0  0  0  0  0  0  0  0  0  0  0  0
   -2.5772    4.7235    1.3447 H   0  0  0  0  0  0  0  0  0  0  0  0
   -2.5212    4.3475   -0.3875 H   0  0  0  0  0  0  0  0  0  0  0  0
   -3.9323    3.8689    0.5768 H   0  0  0  0  0  0  0  0  0  0  0  0
    0.2204    1.7208    0.2917 N   0  0  0  0  0  0  0  0  0  0  0  0
   -0.2961    0.4261   -0.4079 C   0  0  2  0  0  0  0  0  0  0  0  0
    0.7087   -0.7564   -0.6166 C   0  0  0  0  0  0  0  0  0  0  0  0
    1.9155   -0.6377   -0.8325 O   0  0  0  0  0  0  0  0  0  0  0  0
   -0.0146    0.9282   -1.8591 C   0  0  0  0  0  0  0  0  0  0  0  0
   -0.1330    2.3658   -1.6193 C   0  0  0  0  0  0  0  0  0  0  0  0
    1.0943    2.4839   -0.7825 C   0  0  0  0  0  0  0  0  0  0  0  0
   -1.3244    0.1252   -0.2073 H   0  0  0  0  0  0  0  0  0  0  0  0
   -0.8188    0.5831   -2.5176 H   0  0  0  0  0  0  0  0  0  0  0  0
    0.9181    0.7006   -2.3957 H   0  0  0  0  0  0  0  0  0  0  0  0
    0.0810    2.8856   -2.5587 H   0  0  0  0  0  0  0  0  0  0  0  0
   -1.1268    2.7370   -1.3712 H   0  0  0  0  0  0  0  0  0  0  0  0
    2.0007    1.9611   -1.1112 H   0  0  0  0  0  0  0  0  0  0  0  0
    1.3550    3.5200   -0.5397 H   0  0  0  0  0  0  0  0  0  0  0  0
    0.3193   -1.9355    0.0033 N   0  0  0  0  0  0  0  0  0  0  0  0
    1.1415   -3.1318    0.2941 C   0  0  2  0  0  0  0  0  0  0  0  0
    2.1828   -2.9511    1.4248 C   0  0  0  0  0  0  0  0  0  0  0  0
    2.3446   -3.8497    2.2406 O   0  0  0  0  0  0  0  0  0  0  0  0
    1.8021   -3.6902   -0.9746 C   0  0  0  0  0  0  0  0  0  0  0  0
   -0.6029   -1.9056    0.4356 H   0  0  0  0  0  0  0  0  0  0  0  0
    0.4491   -3.9021    0.6485 H   0  0  0  0  0  0  0  0  0  0  0  0
    2.6082   -3.0383   -1.3238 H   0  0  0  0  0  0  0  0  0  0  0  0
    2.2295   -4.6766   -0.7689 H   0  0  0  0  0  0  0  0  0  0  0  0
    1.0634   -3.7940   -1.7747 H   0  0  0  0  0  0  0  0  0  0  0  0
    2.9369   -1.8000    1.5330 N   0  0  0  0  0  0  0  0  0  0  0  0
    3.9725   -1.5893    2.5340 C   0  0  0  0  0  0  0  0  0  0  0  0
    2.8239   -1.1202    0.7765 H   0  0  0  0  0  0  0  0  0  0  0  0
    3.5642   -1.7179    3.5418 H   0  0  0  0  0  0  0  0  0  0  0  0
    4.7927   -2.3002    2.3912 H   0  0  0  0  0  0  0  0  0  0  0  0
    4.3727   -0.5741    2.4517 H   0  0  0  0  0  0  0  0  0  0  0  0
  1  2  2  0  0  0  0
  1  3  1  0  0  0  0
  1  7  1  0  0  0  0
  3  4  1  0  0  0  0
  3  5  1  0  0  0  0
  3  6  1  0  0  0  0
  7  8  1  0  0  0  0
  7 12  1  0  0  0  0
  8  9  1  0  0  0  0
  8 11  1  0  0  0  0
  8 13  1  0  0  0  0
  9 10  2  0  0  0  0
  9 17  1  0  0  0  0
 11 14  1  0  0  0  0
 11 15  1  0  0  0  0
 11 16  1  0  0  0  0
 17 18  1  0  0  0  0
 17 23  1  0  0  0  0
 18 19  1  0  0  0  0
 18 21  1  0  0  0  0
 18 24  1  0  0  0  0
 19 20  2  0  0  0  0
 19 31  1  0  0  0  0
 21 22  1  0  0  0  0
 21 25  1  0  0  0  0
 21 26  1  0  0  0  0
 22 23  1  0  0  0  0
 22 27  1  0  0  0  0
 22 28  1  0  0  0  0
 23 29  1  0  0  0  0
 23 30  1  0  0  0  0
 31 32  1  0  0  0  0
 31 36  1  0  0  0  0
 32 33  1  0  0  0  0
 32 35  1  0  0  0  0
 32 37  1  0  0  0  0
 33 34  2  0  0  0  0
 33 41  1  0  0  0  0
 35 38  1  0  0  0  0
 35 39  1  0  0  0  0
 35 40  1  0  0  0  0
 41 42  1  0  0  0  0
 41 43  1  0  0  0  0
 42 44  1  0  0  0  0
 42 45  1  0  0  0  0
 42 46  1  0  0  0  0
M  END
$$$$

  -OEChem-05262217223D

 46 46  0     1  0  0  0  0  0999 V2000
   -2.7064    0.9221    2.6343 C   0  0  0  0  0  0  0  0  0  0  0  0
   -2.7466    0.0607    1.7684 O   0  0  0  0  0  0  0  0  0  0  0  0
   -2.9118    0.5457    4.0891 C   0  0  0  0  0  0  0  0  0  0  0  0
   -3.7722    1.0825    4.4960 H   0  0  0  0  0  0  0  0  0  0  0  0
   -3.0919   -0.5293    4.1793 H   0  0  0  0  0  0  0  0  0  0  0  0
   -2.0227    0.8028    4.6704 H   0  0  0  0  0  0  0  0  0  0  0  0
   -2.4520    2.2365    2.2991 N   0  0  0  0  0  0  0  0  0  0  0  0
   -2.0406    2.6815    0.9599 C   0  0  2  0  0  0  0  0  0  0  0  0
   -0.4871    2.7418    0.8526 C   0  0  0  0  0  0  0  0  0  0  0  0
    0.0709    3.7213    1.3415 O   0  0  0  0  0  0  0  0  0  0  0  0
   -2.6974    4.0483    0.7214 C   0  0  0  0  0  0  0  0  0  0  0  0
   -2.2904    2.8765    3.0732 H   0  0  0  0  0  0  0  0  0  0  0  0
   -2.4337    2.0018    0.2007 H   0  0  0  0  0  0  0  0  0  0  0  0
   -2.3877    4.7678    1.4864 H   0  0  0  0  0  0  0  0  0  0  0  0
   -2.4138    4.4444   -0.2580 H   0  0  0  0  0  0  0  0  0  0  0  0
   -3.7873    3.9548    0.7540 H   0  0  0  0  0  0  0  0  0  0  0  0
    0.3111    1.7419    0.2284 N   0  0  0  0  0  0  0  0  0  0  0  0
   -0.2726    0.4594   -0.4377 C   0  0  2  0  0  0  0  0  0  0  0  0
    0.6556   -0.7635   -0.7227 C   0  0  0  0  0  0  0  0  0  0  0  0
    1.8793   -0.6824   -0.8252 O   0  0  0  0  0  0  0  0  0  0  0  0
   -0.0193    0.9543   -1.8962 C   0  0  0  0  0  0  0  0  0  0  0  0
   -0.0819    2.4006   -1.6632 C   0  0  0  0  0  0  0  0  0  0  0  0
    1.1744    2.4776   -0.8684 C   0  0  0  0  0  0  0  0  0  0  0  0
   -1.3036    0.2008   -0.1981 H   0  0  0  0  0  0  0  0  0  0  0  0
   -0.8506    0.6345   -2.5339 H   0  0  0  0  0  0  0  0  0  0  0  0
    0.8962    0.6903   -2.4503 H   0  0  0  0  0  0  0  0  0  0  0  0
    0.1157    2.9090   -2.6121 H   0  0  0  0  0  0  0  0  0  0  0  0
   -1.0530    2.8072   -1.3765 H   0  0  0  0  0  0  0  0  0  0  0  0
    2.0527    1.9259   -1.2259 H   0  0  0  0  0  0  0  0  0  0  0  0
    1.4754    3.5040   -0.6315 H   0  0  0  0  0  0  0  0  0  0  0  0
    0.1336   -2.0030   -0.3815 N   0  0  0  0  0  0  0  0  0  0  0  0
    0.8518   -3.2924   -0.2683 C   0  0  2  0  0  0  0  0  0  0  0  0
    1.7909   -3.4109    0.9556 C   0  0  0  0  0  0  0  0  0  0  0  0
    1.8035   -4.4496    1.6035 O   0  0  0  0  0  0  0  0  0  0  0  0
    1.5985   -3.6450   -1.5630 C   0  0  0  0  0  0  0  0  0  0  0  0
   -0.8244   -1.9863   -0.0368 H   0  0  0  0  0  0  0  0  0  0  0  0
    0.0846   -4.0616   -0.1315 H   0  0  0  0  0  0  0  0  0  0  0  0
    2.4690   -2.9987   -1.7086 H   0  0  0  0  0  0  0  0  0  0  0  0
    1.9506   -4.6805   -1.5201 H   0  0  0  0  0  0  0  0  0  0  0  0
    0.9354   -3.5406   -2.4268 H   0  0  0  0  0  0  0  0  0  0  0  0
    2.6194   -2.3728    1.3317 N   0  0  0  0  0  0  0  0  0  0  0  0
    3.5593   -2.4374    2.4416 C   0  0  0  0  0  0  0  0  0  0  0  0
    2.6307   -1.5606    0.7093 H   0  0  0  0  0  0  0  0  0  0  0  0
    3.0400   -2.7031    3.3684 H   0  0  0  0  0  0  0  0  0  0  0  0
    4.3339   -3.1852    2.2438 H   0  0  0  0  0  0  0  0  0  0  0  0
    4.0413   -1.4652    2.5834 H   0  0  0  0  0  0  0  0  0  0  0  0
  1  2  2  0  0  0  0
  1  3  1  0  0  0  0
  1  7  1  0  0  0  0
  3  4  1  0  0  0  0
  3  5  1  0  0  0  0
  3  6  1  0  0  0  0
  7  8  1  0  0  0  0
  7 12  1  0  0  0  0
  8  9  1  0  0  0  0
  8 11  1  0  0  0  0
  8 13  1  0  0  0  0
  9 10  2  0  0  0  0
  9 17  1  0  0  0  0
 11 14  1  0  0  0  0
 11 15  1  0  0  0  0
 11 16  1  0  0  0  0
 17 18  1  0  0  0  0
 17 23  1  0  0  0  0
 18 19  1  0  0  0  0
 18 21  1  0  0  0  0
 18 24  1  0  0  0  0
 19 20  2  0  0  0  0
 19 31  1  0  0  0  0
 21 22  1  0  0  0  0
 21 25  1  0  0  0  0
 21 26  1  0  0  0  0
 22 23  1  0  0  0  0
 22 27  1  0  0  0  0
 22 28  1  0  0  0  0
 23 29  1  0  0  0  0
 23 30  1  0  0  0  0
 31 32  1  0  0  0  0
 31 36  1  0  0  0  0
 32 33  1  0  0  0  0
 32 35  1  0  0  0  0
 32 37  1  0  0  0  0
 33 34  2  0  0  0  0
 33 41  1  0  0  0  0
 35 38  1  0  0  0  0
 35 39  1  0  0  0  0
 35 40  1  0  0  0  0
 41 42  1  0  0  0  0
 41 43  1  0  0  0  0
 42 44  1  0  0  0  0
 42 45  1  0  0  0  0
 42 46  1  0  0  0  0
M  END
$$$$

  -OEChem-05262217223D

 46 46  0     1  0  0  0  0  0999 V2000
   -2.5496    0.8675    2.6929 C   0  0  0  0  0  0  0  0  0  0  0  0
   -2.7317    0.0778    1.7786 O   0  0  0  0  0  0  0  0  0  0  0  0
   -2.6488    0.3958    4.1314 C   0  0  0  0  0  0  0  0  0  0  0  0
   -1.6664    0.4483    4.6074 H   0  0  0  0  0  0  0  0  0  0  0  0
   -3.3492    1.0254    4.6858 H   0  0  0  0  0  0  0  0  0  0  0  0
   -3.0026   -0.6386    4.1666 H   0  0  0  0  0  0  0  0  0  0  0  0
   -2.2204    2.1810    2.4250 N   0  0  0  0  0  0  0  0  0  0  0  0
   -1.8955    2.7011    1.0885 C   0  0  2  0  0  0  0  0  0  0  0  0
   -0.3522    2.7665    0.8838 C   0  0  0  0  0  0  0  0  0  0  0  0
    0.2348    3.7449    1.3394 O   0  0  0  0  0  0  0  0  0  0  0  0
   -2.5606    4.0789    0.9659 C   0  0  0  0  0  0  0  0  0  0  0  0
   -1.9556    2.7526    3.2237 H   0  0  0  0  0  0  0  0  0  0  0  0
   -2.3391    2.0696    0.3155 H   0  0  0  0  0  0  0  0  0  0  0  0
   -2.1958    4.7582    1.7428 H   0  0  0  0  0  0  0  0  0  0  0  0
   -2.3425    4.5224   -0.0102 H   0  0  0  0  0  0  0  0  0  0  0  0
   -3.6461    3.9853    1.0683 H   0  0  0  0  0  0  0  0  0  0  0  0
    0.4028    1.7743    0.1980 N   0  0  0  0  0  0  0  0  0  0  0  0
   -0.2410    0.5060   -0.4360 C   0  0  2  0  0  0  0  0  0  0  0  0
    0.6157   -0.7378   -0.8138 C   0  0  0  0  0  0  0  0  0  0  0  0
    1.8444   -0.7119   -0.8464 O   0  0  0  0  0  0  0  0  0  0  0  0
   -0.0370    1.0157   -1.8981 C   0  0  0  0  0  0  0  0  0  0  0  0
   -0.0546    2.4658   -1.6593 C   0  0  0  0  0  0  0  0  0  0  0  0
    1.2359    2.5038   -0.9210 C   0  0  0  0  0  0  0  0  0  0  0  0
   -1.2668    0.2757   -0.1536 H   0  0  0  0  0  0  0  0  0  0  0  0
   -0.9002    0.7216   -2.5053 H   0  0  0  0  0  0  0  0  0  0  0  0
    0.8521    0.7332   -2.4888 H   0  0  0  0  0  0  0  0  0  0  0  0
    0.1128    2.9741   -2.6142 H   0  0  0  0  0  0  0  0  0  0  0  0
   -0.9993    2.8972   -1.3206 H   0  0  0  0  0  0  0  0  0  0  0  0
    2.0858    1.9361   -1.3204 H   0  0  0  0  0  0  0  0  0  0  0  0
    1.5696    3.5199   -0.6833 H   0  0  0  0  0  0  0  0  0  0  0  0
   -0.0120   -1.9735   -0.7582 N   0  0  0  0  0  0  0  0  0  0  0  0
    0.6104   -3.3086   -0.8925 C   0  0  2  0  0  0  0  0  0  0  0  0
    1.4898   -3.7480    0.3024 C   0  0  0  0  0  0  0  0  0  0  0  0
    1.4129   -4.8997    0.7105 O   0  0  0  0  0  0  0  0  0  0  0  0
    1.3835   -3.4367   -2.2127 C   0  0  0  0  0  0  0  0  0  0  0  0
   -0.9938   -1.9518   -0.4905 H   0  0  0  0  0  0  0  0  0  0  0  0
   -0.2119   -4.0300   -0.9397 H   0  0  0  0  0  0  0  0  0  0  0  0
    2.2996   -2.8392   -2.1960 H   0  0  0  0  0  0  0  0  0  0  0  0
    1.6637   -4.4813   -2.3808 H   0  0  0  0  0  0  0  0  0  0  0  0
    0.7643   -3.1054   -3.0515 H   0  0  0  0  0  0  0  0  0  0  0  0
    2.3666   -2.8740    0.9134 N   0  0  0  0  0  0  0  0  0  0  0  0
    3.2679   -3.2448    1.9949 C   0  0  0  0  0  0  0  0  0  0  0  0
    2.4567   -1.9521    0.4780 H   0  0  0  0  0  0  0  0  0  0  0  0
    2.7035   -3.6451    2.8436 H   0  0  0  0  0  0  0  0  0  0  0  0
    3.9815   -4.0028    1.6558 H   0  0  0  0  0  0  0  0  0  0  0  0
    3.8272   -2.3681    2.3353 H   0  0  0  0  0  0  0  0  0  0  0  0
  1  2  2  0  0  0  0
  1  3  1  0  0  0  0
  1  7  1  0  0  0  0
  3  4  1  0  0  0  0
  3  5  1  0  0  0  0
  3  6  1  0  0  0  0
  7  8  1  0  0  0  0
  7 12  1  0  0  0  0
  8  9  1  0  0  0  0
  8 11  1  0  0  0  0
  8 13  1  0  0  0  0
  9 10  2  0  0  0  0
  9 17  1  0  0  0  0
 11 14  1  0  0  0  0
 11 15  1  0  0  0  0
 11 16  1  0  0  0  0
 17 18  1  0  0  0  0
 17 23  1  0  0  0  0
 18 19  1  0  0  0  0
 18 21  1  0  0  0  0
 18 24  1  0  0  0  0
 19 20  2  0  0  0  0
 19 31  1  0  0  0  0
 21 22  1  0  0  0  0
 21 25  1  0  0  0  0
 21 26  1  0  0  0  0
 22 23  1  0  0  0  0
 22 27  1  0  0  0  0
 22 28  1  0  0  0  0
 23 29  1  0  0  0  0
 23 30  1  0  0  0  0
 31 32  1  0  0  0  0
 31 36  1  0  0  0  0
 32 33  1  0  0  0  0
 32 35  1  0  0  0  0
 32 37  1  0  0  0  0
 33 34  2  0  0  0  0
 33 41  1  0  0  0  0
 35 38  1  0  0  0  0
 35 39  1  0  0  0  0
 35 40  1  0  0  0  0
 41 42  1  0  0  0  0
 41 43  1  0  0  0  0
 42 44  1  0  0  0  0
 42 45  1  0  0  0  0
 42 46  1  0  0  0  0
M  END
$$$$

  -OEChem-05262217223D

 46 46  0     1  0  0  0  0  0999 V2000
   -2.4570    0.8494    2.6983 C   0  0  0  0  0  0  0  0  0  0  0  0
   -2.7809    0.1267    1.7680 O   0  0  0  0  0  0  0  0  0  0  0  0
   -2.5227    0.3271    4.1213 C   0  0  0  0  0  0  0  0  0  0  0  0
   -3.1921    0.9511    4.7184 H   0  0  0  0  0  0  0  0  0  0  0  0
   -2.8989   -0.6999    4.1302 H   0  0  0  0  0  0  0  0  0  0  0  0
   -1.5264    0.3401    4.5701 H   0  0  0  0  0  0  0  0  0  0  0  0
   -2.0135    2.1352    2.4619 N   0  0  0  0  0  0  0  0  0  0  0  0
   -1.7705    2.7087    1.1296 C   0  0  2  0  0  0  0  0  0  0  0  0
   -0.2454    2.7938    0.8210 C   0  0  0  0  0  0  0  0  0  0  0  0
    0.3557    3.7935    1.2066 O   0  0  0  0  0  0  0  0  0  0  0  0
   -2.4482    4.0854    1.1007 C   0  0  0  0  0  0  0  0  0  0  0  0
   -1.6657    2.6528    3.2656 H   0  0  0  0  0  0  0  0  0  0  0  0
   -2.2574    2.1065    0.3595 H   0  0  0  0  0  0  0  0  0  0  0  0
   -2.0464    4.7351    1.8853 H   0  0  0  0  0  0  0  0  0  0  0  0
   -2.2830    4.5704    0.1337 H   0  0  0  0  0  0  0  0  0  0  0  0
   -3.5264    3.9799    1.2554 H   0  0  0  0  0  0  0  0  0  0  0  0
    0.4769    1.7948    0.1107 N   0  0  0  0  0  0  0  0  0  0  0  0
   -0.1965    0.5043   -0.4412 C   0  0  2  0  0  0  0  0  0  0  0  0
    0.6256   -0.7493   -0.8542 C   0  0  0  0  0  0  0  0  0  0  0  0
    1.8534   -0.7531   -0.8352 O   0  0  0  0  0  0  0  0  0  0  0  0
   -0.0705    0.9802   -1.9237 C   0  0  0  0  0  0  0  0  0  0  0  0
   -0.0800    2.4400   -1.7319 C   0  0  0  0  0  0  0  0  0  0  0  0
    1.2481    2.4961   -1.0659 C   0  0  0  0  0  0  0  0  0  0  0  0
   -1.2030    0.2827   -0.0906 H   0  0  0  0  0  0  0  0  0  0  0  0
   -0.9617    0.6676   -2.4792 H   0  0  0  0  0  0  0  0  0  0  0  0
    0.7907    0.6811   -2.5484 H   0  0  0  0  0  0  0  0  0  0  0  0
    0.0322    2.9180   -2.7104 H   0  0  0  0  0  0  0  0  0  0  0  0
   -1.0033    2.8837   -1.3507 H   0  0  0  0  0  0  0  0  0  0  0  0
    2.0765    1.9184   -1.4946 H   0  0  0  0  0  0  0  0  0  0  0  0
    1.5925    3.5172   -0.8701 H   0  0  0  0  0  0  0  0  0  0  0  0
   -0.0472   -1.9493   -1.0338 N   0  0  0  0  0  0  0  0  0  0  0  0
    0.5382   -3.2668   -1.3653 C   0  0  2  0  0  0  0  0  0  0  0  0
    1.3810   -3.9269   -0.2469 C   0  0  0  0  0  0  0  0  0  0  0  0
    1.2653   -5.1287   -0.0439 O   0  0  0  0  0  0  0  0  0  0  0  0
    1.3353   -3.2025   -2.6754 C   0  0  0  0  0  0  0  0  0  0  0  0
   -1.0509   -1.9198   -0.8701 H   0  0  0  0  0  0  0  0  0  0  0  0
   -0.3031   -3.9453   -1.5409 H   0  0  0  0  0  0  0  0  0  0  0  0
    2.2572   -2.6271   -2.5512 H   0  0  0  0  0  0  0  0  0  0  0  0
    1.6070   -4.2131   -2.9966 H   0  0  0  0  0  0  0  0  0  0  0  0
    0.7367   -2.7383   -3.4646 H   0  0  0  0  0  0  0  0  0  0  0  0
    2.2820   -3.2019    0.5073 N   0  0  0  0  0  0  0  0  0  0  0  0
    3.1810   -3.7899    1.4902 C   0  0  0  0  0  0  0  0  0  0  0  0
    2.4150   -2.2260    0.2286 H   0  0  0  0  0  0  0  0  0  0  0  0
    2.6160   -4.3603    2.2346 H   0  0  0  0  0  0  0  0  0  0  0  0
    3.8971   -4.4582    1.0014 H   0  0  0  0  0  0  0  0  0  0  0  0
    3.7373   -3.0036    2.0093 H   0  0  0  0  0  0  0  0  0  0  0  0
  1  2  2  0  0  0  0
  1  3  1  0  0  0  0
  1  7  1  0  0  0  0
  3  4  1  0  0  0  0
  3  5  1  0  0  0  0
  3  6  1  0  0  0  0
  7  8  1  0  0  0  0
  7 12  1  0  0  0  0
  8  9  1  0  0  0  0
  8 11  1  0  0  0  0
  8 13  1  0  0  0  0
  9 10  2  0  0  0  0
  9 17  1  0  0  0  0
 11 14  1  0  0  0  0
 11 15  1  0  0  0  0
 11 16  1  0  0  0  0
 17 18  1  0  0  0  0
 17 23  1  0  0  0  0
 18 19  1  0  0  0  0
 18 21  1  0  0  0  0
 18 24  1  0  0  0  0
 19 20  2  0  0  0  0
 19 31  1  0  0  0  0
 21 22  1  0  0  0  0
 21 25  1  0  0  0  0
 21 26  1  0  0  0  0
 22 23  1  0  0  0  0
 22 27  1  0  0  0  0
 22 28  1  0  0  0  0
 23 29  1  0  0  0  0
 23 30  1  0  0  0  0
 31 32  1  0  0  0  0
 31 36  1  0  0  0  0
 32 33  1  0  0  0  0
 32 35  1  0  0  0  0
 32 37  1  0  0  0  0
 33 34  2  0  0  0  0
 33 41  1  0  0  0  0
 35 38  1  0  0  0  0
 35 39  1  0  0  0  0
 35 40  1  0  0  0  0
 41 42  1  0  0  0  0
 41 43  1  0  0  0  0
 42 44  1  0  0  0  0
 42 45  1  0  0  0  0
 42 46  1  0  0  0  0
M  END
$$$$

  -OEChem-05262217223D

 46 46  0     1  0  0  0  0  0999 V2000
   -2.8054    1.6123    3.7731 C   0  0  0  0  0  0  0  0  0  0  0  0
   -3.4016    0.6029    3.4307 O   0  0  0  0  0  0  0  0  0  0  0  0
   -2.9221    2.1235    5.1968 C   0  0  0  0  0  0  0  0  0  0  0  0
   -3.3626    3.1235    5.1987 H   0  0  0  0  0  0  0  0  0  0  0  0
   -3.5572    1.4568    5.7870 H   0  0  0  0  0  0  0  0  0  0  0  0
   -1.9329    2.1681    5.6591 H   0  0  0  0  0  0  0  0  0  0  0  0
   -2.0189    2.2890    2.8648 N   0  0  0  0  0  0  0  0  0  0  0  0
   -1.6903    1.7977    1.5190 C   0  0  2  0  0  0  0  0  0  0  0  0
   -0.2194    2.1663    1.1518 C   0  0  0  0  0  0  0  0  0  0  0  0
    0.2504    3.1584    1.7074 O   0  0  0  0  0  0  0  0  0  0  0  0
   -2.7609    2.3629    0.5760 C   0  0  0  0  0  0  0  0  0  0  0  0
   -1.4479    3.0556    3.2207 H   0  0  0  0  0  0  0  0  0  0  0  0
   -1.7578    0.7057    1.5200 H   0  0  0  0  0  0  0  0  0  0  0  0
   -2.6503    3.4475    0.4776 H   0  0  0  0  0  0  0  0  0  0  0  0
   -2.6931    1.9046   -0.4138 H   0  0  0  0  0  0  0  0  0  0  0  0
   -3.7605    2.1523    0.9702 H   0  0  0  0  0  0  0  0  0  0  0  0
    0.5489    1.5184    0.1501 N   0  0  0  0  0  0  0  0  0  0  0  0
   -0.0529    0.3675   -0.6812 C   0  0  2  0  0  0  0  0  0  0  0  0
    0.8417   -0.7906   -1.1992 C   0  0  0  0  0  0  0  0  0  0  0  0
    2.0290   -0.8460   -0.9028 O   0  0  0  0  0  0  0  0  0  0  0  0
    0.1617    1.1607   -1.9949 C   0  0  0  0  0  0  0  0  0  0  0  0
    0.1065    2.5593   -1.4774 C   0  0  0  0  0  0  0  0  0  0  0  0
    1.3774    2.4942   -0.7361 C   0  0  0  0  0  0  0  0  0  0  0  0
   -1.0823    0.0782   -0.4596 H   0  0  0  0  0  0  0  0  0  0  0  0
   -0.6743    0.9766   -2.6782 H   0  0  0  0  0  0  0  0  0  0  0  0
    1.0818    0.9827   -2.5773 H   0  0  0  0  0  0  0  0  0  0  0  0
    0.2498    3.2448   -2.3186 H   0  0  0  0  0  0  0  0  0  0  0  0
   -0.8220    2.9065   -1.0213 H   0  0  0  0  0  0  0  0  0  0  0  0
    2.2524    2.0554   -1.2318 H   0  0  0  0  0  0  0  0  0  0  0  0
    1.6598    3.4431   -0.2675 H   0  0  0  0  0  0  0  0  0  0  0  0
    0.2748   -1.8146   -1.9457 N   0  0  0  0  0  0  0  0  0  0  0  0
    0.9707   -2.9813   -2.5303 C   0  0  2  0  0  0  0  0  0  0  0  0
    1.4924   -4.0108   -1.5009 C   0  0  0  0  0  0  0  0  0  0  0  0
    1.1585   -5.1834   -1.6064 O   0  0  0  0  0  0  0  0  0  0  0  0
    2.0919   -2.5434   -3.4839 C   0  0  0  0  0  0  0  0  0  0  0  0
   -0.7307   -1.7644   -2.0838 H   0  0  0  0  0  0  0  0  0  0  0  0
    0.2330   -3.5139   -3.1393 H   0  0  0  0  0  0  0  0  0  0  0  0
    2.9286   -2.0976   -2.9382 H   0  0  0  0  0  0  0  0  0  0  0  0
    2.4714   -3.4090   -4.0359 H   0  0  0  0  0  0  0  0  0  0  0  0
    1.7150   -1.8116   -4.2045 H   0  0  0  0  0  0  0  0  0  0  0  0
    2.3185   -3.6334   -0.4615 N   0  0  0  0  0  0  0  0  0  0  0  0
    2.8038   -4.5432    0.5668 C   0  0  0  0  0  0  0  0  0  0  0  0
    2.5266   -2.6336   -0.3885 H   0  0  0  0  0  0  0  0  0  0  0  0
    1.9742   -4.8904    1.1914 H   0  0  0  0  0  0  0  0  0  0  0  0
    3.2913   -5.4120    0.1121 H   0  0  0  0  0  0  0  0  0  0  0  0
    3.5330   -4.0352    1.2054 H   0  0  0  0  0  0  0  0  0  0  0  0
  1  2  2  0  0  0  0
  1  3  1  0  0  0  0
  1  7  1  0  0  0  0
  3  4  1  0  0  0  0
  3  5  1  0  0  0  0
  3  6  1  0  0  0  0
  7  8  1  0  0  0  0
  7 12  1  0  0  0  0
  8  9  1  0  0  0  0
  8 11  1  0  0  0  0
  8 13  1  0  0  0  0
  9 10  2  0  0  0  0
  9 17  1  0  0  0  0
 11 14  1  0  0  0  0
 11 15  1  0  0  0  0
 11 16  1  0  0  0  0
 17 18  1  0  0  0  0
 17 23  1  0  0  0  0
 18 19  1  0  0  0  0
 18 21  1  0  0  0  0
 18 24  1  0  0  0  0
 19 20  2  0  0  0  0
 19 31  1  0  0  0  0
 21 22  1  0  0  0  0
 21 25  1  0  0  0  0
 21 26  1  0  0  0  0
 22 23  1  0  0  0  0
 22 27  1  0  0  0  0
 22 28  1  0  0  0  0
 23 29  1  0  0  0  0
 23 30  1  0  0  0  0
 31 32  1  0  0  0  0
 31 36  1  0  0  0  0
 32 33  1  0  0  0  0
 32 35  1  0  0  0  0
 32 37  1  0  0  0  0
 33 34  2  0  0  0  0
 33 41  1  0  0  0  0
 35 38  1  0  0  0  0
 35 39  1  0  0  0  0
 35 40  1  0  0  0  0
 41 42  1  0  0  0  0
 41 43  1  0  0  0  0
 42 44  1  0  0  0  0
 42 45  1  0  0  0  0
 42 46  1  0  0  0  0
M  END
$$$$

  -OEChem-05262217223D

 46 46  0     1  0  0  0  0  0999 V2000
   -2.6501    1.4204    3.7847 C   0  0  0  0  0  0  0  0  0  0  0  0
   -3.1980    0.3830    3.4460 O   0  0  0  0  0  0  0  0  0  0  0  0
   -2.7484    1.9041    5.2190 C   0  0  0  0  0  0  0  0  0  0  0  0
   -3.1965    2.9001    5.2473 H   0  0  0  0  0  0  0  0  0  0  0  0
   -3.3690    1.2215    5.8060 H   0  0  0  0  0  0  0  0  0  0  0  0
   -1.7525    1.9477    5.6665 H   0  0  0  0  0  0  0  0  0  0  0  0
   -1.9357    2.1553    2.8624 N   0  0  0  0  0  0  0  0  0  0  0  0
   -1.6234    1.7026    1.4991 C   0  0  2  0  0  0  0  0  0  0  0  0
   -0.1869    2.1549    1.0922 C   0  0  0  0  0  0  0  0  0  0  0  0
    0.2445    3.1655    1.6458 O   0  0  0  0  0  0  0  0  0  0  0  0
   -2.7493    2.2265    0.5977 C   0  0  0  0  0  0  0  0  0  0  0  0
   -1.3976    2.9480    3.2125 H   0  0  0  0  0  0  0  0  0  0  0  0
   -1.6338    0.6086    1.4828 H   0  0  0  0  0  0  0  0  0  0  0  0
   -2.7067    3.3181    0.5278 H   0  0  0  0  0  0  0  0  0  0  0  0
   -2.6788    1.8003   -0.4059 H   0  0  0  0  0  0  0  0  0  0  0  0
   -3.7241    1.9442    1.0088 H   0  0  0  0  0  0  0  0  0  0  0  0
    0.5831    1.5618    0.0578 N   0  0  0  0  0  0  0  0  0  0  0  0
    0.0140    0.3901   -0.7688 C   0  0  2  0  0  0  0  0  0  0  0  0
    0.9462   -0.7174   -1.3340 C   0  0  0  0  0  0  0  0  0  0  0  0
    2.0751   -0.8539   -0.8822 O   0  0  0  0  0  0  0  0  0  0  0  0
    0.1540    1.2229   -2.0697 C   0  0  0  0  0  0  0  0  0  0  0  0
    0.0462    2.6119   -1.5346 C   0  0  0  0  0  0  0  0  0  0  0  0
    1.3403    2.5902   -0.8312 C   0  0  0  0  0  0  0  0  0  0  0  0
   -0.9941    0.0487   -0.5258 H   0  0  0  0  0  0  0  0  0  0  0  0
   -0.6907    1.0129   -2.7345 H   0  0  0  0  0  0  0  0  0  0  0  0
    1.0651    1.0960   -2.6791 H   0  0  0  0  0  0  0  0  0  0  0  0
    0.1318    3.3150   -2.3692 H   0  0  0  0  0  0  0  0  0  0  0  0
   -0.8833    2.9084   -1.0453 H   0  0  0  0  0  0  0  0  0  0  0  0
    2.2205    2.2016   -1.3589 H   0  0  0  0  0  0  0  0  0  0  0  0
    1.5932    3.5420   -0.3519 H   0  0  0  0  0  0  0  0  0  0  0  0
    0.4967   -1.5890   -2.3194 N   0  0  0  0  0  0  0  0  0  0  0  0
    1.2646   -2.6702   -2.9738 C   0  0  2  0  0  0  0  0  0  0  0  0
    1.6108   -3.8690   -2.0601 C   0  0  0  0  0  0  0  0  0  0  0  0
    1.3049   -4.9996   -2.4151 O   0  0  0  0  0  0  0  0  0  0  0  0
    2.5250   -2.1256   -3.6620 C   0  0  0  0  0  0  0  0  0  0  0  0
   -0.4737   -1.4820   -2.6003 H   0  0  0  0  0  0  0  0  0  0  0  0
    0.6254   -3.0730   -3.7663 H   0  0  0  0  0  0  0  0  0  0  0  0
    3.2671   -1.7922   -2.9308 H   0  0  0  0  0  0  0  0  0  0  0  0
    2.9831   -2.9080   -4.2752 H   0  0  0  0  0  0  0  0  0  0  0  0
    2.2712   -1.2822   -4.3107 H   0  0  0  0  0  0  0  0  0  0  0  0
    2.2567   -3.6905   -0.8535 N   0  0  0  0  0  0  0  0  0  0  0  0
    2.6074   -4.7743    0.0527 C   0  0  0  0  0  0  0  0  0  0  0  0
    2.4693   -2.7244   -0.5908 H   0  0  0  0  0  0  0  0  0  0  0  0
    1.7045   -5.2711    0.4221 H   0  0  0  0  0  0  0  0  0  0  0  0
    3.2338   -5.5129   -0.4583 H   0  0  0  0  0  0  0  0  0  0  0  0
    3.1643   -4.3839    0.9098 H   0  0  0  0  0  0  0  0  0  0  0  0
  1  2  2  0  0  0  0
  1  3  1  0  0  0  0
  1  7  1  0  0  0  0
  3  4  1  0  0  0  0
  3  5  1  0  0  0  0
  3  6  1  0  0  0  0
  7  8  1  0  0  0  0
  7 12  1  0  0  0  0
  8  9  1  0  0  0  0
  8 11  1  0  0  0  0
  8 13  1  0  0  0  0
  9 10  2  0  0  0  0
  9 17  1  0  0  0  0
 11 14  1  0  0  0  0
 11 15  1  0  0  0  0
 11 16  1  0  0  0  0
 17 18  1  0  0  0  0
 17 23  1  0  0  0  0
 18 19  1  0  0  0  0
 18 21  1  0  0  0  0
 18 24  1  0  0  0  0
 19 20  2  0  0  0  0
 19 31  1  0  0  0  0
 21 22  1  0  0  0  0
 21 25  1  0  0  0  0
 21 26  1  0  0  0  0
 22 23  1  0  0  0  0
 22 27  1  0  0  0  0
 22 28  1  0  0  0  0
 23 29  1  0  0  0  0
 23 30  1  0  0  0  0
 31 32  1  0  0  0  0
 31 36  1  0  0  0  0
 32 33  1  0  0  0  0
 32 35  1  0  0  0  0
 32 37  1  0  0  0  0
 33 34  2  0  0  0  0
 33 41  1  0  0  0  0
 35 38  1  0  0  0  0
 35 39  1  0  0  0  0
 35 40  1  0  0  0  0
 41 42  1  0  0  0  0
 41 43  1  0  0  0  0
 42 44  1  0  0  0  0
 42 45  1  0  0  0  0
 42 46  1  0  0  0  0
M  END
$$$$

  -OEChem-05262217223D

 46 46  0     1  0  0  0  0  0999 V2000
   -2.5013    1.1545    3.7743 C   0  0  0  0  0  0  0  0  0  0  0  0
   -2.9682    0.0820    3.4237 O   0  0  0  0  0  0  0  0  0  0  0  0
   -2.6039    1.5936    5.2230 C   0  0  0  0  0  0  0  0  0  0  0  0
   -3.1211    2.5542    5.2862 H   0  0  0  0  0  0  0  0  0  0  0  0
   -3.1625    0.8536    5.8035 H   0  0  0  0  0  0  0  0  0  0  0  0
   -1.6042    1.6968    5.6523 H   0  0  0  0  0  0  0  0  0  0  0  0
   -1.8732    1.9676    2.8544 N   0  0  0  0  0  0  0  0  0  0  0  0
   -1.5506    1.5697    1.4764 C   0  0  2  0  0  0  0  0  0  0  0  0
   -0.1701    2.1572    1.0475 C   0  0  0  0  0  0  0  0  0  0  0  0
    0.1833    3.1897    1.6161 O   0  0  0  0  0  0  0  0  0  0  0  0
   -2.7382    2.0033    0.6071 C   0  0  0  0  0  0  0  0  0  0  0  0
   -1.3965    2.7952    3.2123 H   0  0  0  0  0  0  0  0  0  0  0  0
   -1.4613    0.4798    1.4405 H   0  0  0  0  0  0  0  0  0  0  0  0
   -2.8030    3.0951    0.5662 H   0  0  0  0  0  0  0  0  0  0  0  0
   -2.6452    1.6122   -0.4088 H   0  0  0  0  0  0  0  0  0  0  0  0
   -3.6729    1.6169    1.0261 H   0  0  0  0  0  0  0  0  0  0  0  0
    0.6231    1.6589   -0.0201 N   0  0  0  0  0  0  0  0  0  0  0  0
    0.1264    0.4596   -0.8558 C   0  0  2  0  0  0  0  0  0  0  0  0
    1.1161   -0.5690   -1.4805 C   0  0  0  0  0  0  0  0  0  0  0  0
    2.1577   -0.8132   -0.8887 O   0  0  0  0  0  0  0  0  0  0  0  0
    0.1679    1.3516   -2.1280 C   0  0  0  0  0  0  0  0  0  0  0  0
   -0.0346    2.7171   -1.5605 C   0  0  0  0  0  0  0  0  0  0  0  0
    1.2762    2.7706   -0.8902 C   0  0  0  0  0  0  0  0  0  0  0  0
   -0.8487    0.0398   -0.6018 H   0  0  0  0  0  0  0  0  0  0  0  0
   -0.6742    1.0987   -2.7811 H   0  0  0  0  0  0  0  0  0  0  0  0
    1.0717    1.3148   -2.7600 H   0  0  0  0  0  0  0  0  0  0  0  0
   -0.0218    3.4438   -2.3791 H   0  0  0  0  0  0  0  0  0  0  0  0
   -0.9708    2.9304   -1.0406 H   0  0  0  0  0  0  0  0  0  0  0  0
    2.1706    2.4690   -1.4499 H   0  0  0  0  0  0  0  0  0  0  0  0
    1.4695    3.7226   -0.3839 H   0  0  0  0  0  0  0  0  0  0  0  0
    0.8377   -1.2551   -2.6605 N   0  0  0  0  0  0  0  0  0  0  0  0
    1.6889   -2.2585   -3.3360 C   0  0  2  0  0  0  0  0  0  0  0  0
    1.8580   -3.5928   -2.5702 C   0  0  0  0  0  0  0  0  0  0  0  0
    1.6189   -4.6463   -3.1453 O   0  0  0  0  0  0  0  0  0  0  0  0
    3.0532   -1.6684   -3.7206 C   0  0  0  0  0  0  0  0  0  0  0  0
   -0.0718   -1.0742   -3.0750 H   0  0  0  0  0  0  0  0  0  0  0  0
    1.1841   -2.5144   -4.2735 H   0  0  0  0  0  0  0  0  0  0  0  0
    3.6733   -1.4871   -2.8378 H   0  0  0  0  0  0  0  0  0  0  0  0
    3.5896   -2.3639   -4.3739 H   0  0  0  0  0  0  0  0  0  0  0  0
    2.9222   -0.7231   -4.2554 H   0  0  0  0  0  0  0  0  0  0  0  0
    2.2525   -3.6209   -1.2475 N   0  0  0  0  0  0  0  0  0  0  0  0
    2.4036   -4.8392   -0.4641 C   0  0  0  0  0  0  0  0  0  0  0  0
    2.4393   -2.7141   -0.8108 H   0  0  0  0  0  0  0  0  0  0  0  0
    1.4616   -5.3967   -0.4357 H   0  0  0  0  0  0  0  0  0  0  0  0
    3.1795   -5.4781   -0.8982 H   0  0  0  0  0  0  0  0  0  0  0  0
    2.6905   -4.5938    0.5629 H   0  0  0  0  0  0  0  0  0  0  0  0
  1  2  2  0  0  0  0
  1  3  1  0  0  0  0
  1  7  1  0  0  0  0
  3  4  1  0  0  0  0
  3  5  1  0  0  0  0
  3  6  1  0  0  0  0
  7  8  1  0  0  0  0
  7 12  1  0  0  0  0
  8  9  1  0  0  0  0
  8 11  1  0  0  0  0
  8 13  1  0  0  0  0
  9 10  2  0  0  0  0
  9 17  1  0  0  0  0
 11 14  1  0  0  0  0
 11 15  1  0  0  0  0
 11 16  1  0  0  0  0
 17 18  1  0  0  0  0
 17 23  1  0  0  0  0
 18 19  1  0  0  0  0
 18 21  1  0  0  0  0
 18 24  1  0  0  0  0
 19 20  2  0  0  0  0
 19 31  1  0  0  0  0
 21 22  1  0  0  0  0
 21 25  1  0  0  0  0
 21 26  1  0  0  0  0
 22 23  1  0  0  0  0
 22 27  1  0  0  0  0
 22 28  1  0  0  0  0
 23 29  1  0  0  0  0
 23 30  1  0  0  0  0
 31 32  1  0  0  0  0
 31 36  1  0  0  0  0
 32 33  1  0  0  0  0
 32 35  1  0  0  0  0
 32 37  1  0  0  0  0
 33 34  2  0  0  0  0
 33 41  1  0  0  0  0
 35 38  1  0  0  0  0
 35 39  1  0  0  0  0
 35 40  1  0  0  0  0
 41 42  1  0  0  0  0
 41 43  1  0  0  0  0
 42 44  1  0  0  0  0
 42 45  1  0  0  0  0
 42 46  1  0  0  0  0
M  END
$$$$

  -OEChem-05262217223D

 46 46  0     1  0  0  0  0  0999 V2000
   -1.8280   -0.0213    2.1882 C   0  0  0  0  0  0  0  0  0  0  0  0
   -2.3916   -0.5294    1.2316 O   0  0  0  0  0  0  0  0  0  0  0  0
   -1.3875   -0.8839    3.3560 C   0  0  0  0  0  0  0  0  0  0  0  0
   -1.8445   -0.5239    4.2813 H   0  0  0  0  0  0  0  0  0  0  0  0
   -1.6916   -1.9223    3.1948 H   0  0  0  0  0  0  0  0  0  0  0  0
   -0.2995   -0.8474    3.4565 H   0  0  0  0  0  0  0  0  0  0  0  0
   -1.5649    1.3332    2.2025 N   0  0  0  0  0  0  0  0  0  0  0  0
   -1.8106    2.2566    1.0836 C   0  0  2  0  0  0  0  0  0  0  0  0
   -0.4736    2.8511    0.5527 C   0  0  0  0  0  0  0  0  0  0  0  0
   -0.1584    3.9790    0.9235 O   0  0  0  0  0  0  0  0  0  0  0  0
   -2.7836    3.3278    1.5945 C   0  0  0  0  0  0  0  0  0  0  0  0
   -1.0383    1.6875    2.9973 H   0  0  0  0  0  0  0  0  0  0  0  0
   -2.3123    1.7474    0.2569 H   0  0  0  0  0  0  0  0  0  0  0  0
   -2.3547    3.8709    2.4430 H   0  0  0  0  0  0  0  0  0  0  0  0
   -3.0082    4.0466    0.8002 H   0  0  0  0  0  0  0  0  0  0  0  0
   -3.7206    2.8637    1.9169 H   0  0  0  0  0  0  0  0  0  0  0  0
    0.3630    2.1853   -0.3816 N   0  0  0  0  0  0  0  0  0  0  0  0
   -0.0131    0.7925   -0.9523 C   0  0  2  0  0  0  0  0  0  0  0  0
    1.1220   -0.2161   -1.3215 C   0  0  0  0  0  0  0  0  0  0  0  0
    2.0002   -0.3887   -0.4873 O   0  0  0  0  0  0  0  0  0  0  0  0
   -0.1507    1.3748   -2.3832 C   0  0  0  0  0  0  0  0  0  0  0  0
   -0.5104    2.7814   -2.0748 C   0  0  0  0  0  0  0  0  0  0  0  0
    0.8098    3.1505   -1.5207 C   0  0  0  0  0  0  0  0  0  0  0  0
   -0.9081    0.3139   -0.5581 H   0  0  0  0  0  0  0  0  0  0  0  0
   -0.9730    0.8791   -2.9103 H   0  0  0  0  0  0  0  0  0  0  0  0
    0.7259    1.3358   -3.0478 H   0  0  0  0  0  0  0  0  0  0  0  0
   -0.6352    3.3265   -3.0157 H   0  0  0  0  0  0  0  0  0  0  0  0
   -1.4626    2.9465   -1.5558 H   0  0  0  0  0  0  0  0  0  0  0  0
    1.7139    2.8508   -2.0648 H   0  0  0  0  0  0  0  0  0  0  0  0
    0.8876    4.2092   -1.2508 H   0  0  0  0  0  0  0  0  0  0  0  0
    1.1742   -0.9782   -2.4891 N   0  0  0  0  0  0  0  0  0  0  0  0
    2.2139   -1.9529   -2.8845 C   0  0  2  0  0  0  0  0  0  0  0  0
    2.2449   -3.2475   -2.0394 C   0  0  0  0  0  0  0  0  0  0  0  0
    2.2138   -4.3335   -2.6033 O   0  0  0  0  0  0  0  0  0  0  0  0
    3.6028   -1.3010   -2.9400 C   0  0  0  0  0  0  0  0  0  0  0  0
    0.3726   -0.8900   -3.1068 H   0  0  0  0  0  0  0  0  0  0  0  0
    1.9750   -2.2669   -3.9059 H   0  0  0  0  0  0  0  0  0  0  0  0
    3.9734   -1.0664   -1.9380 H   0  0  0  0  0  0  0  0  0  0  0  0
    4.3164   -1.9826   -3.4134 H   0  0  0  0  0  0  0  0  0  0  0  0
    3.5666   -0.3767   -3.5238 H   0  0  0  0  0  0  0  0  0  0  0  0
    2.2983   -3.2029   -0.6610 N   0  0  0  0  0  0  0  0  0  0  0  0
    2.3106   -4.3803    0.1946 C   0  0  0  0  0  0  0  0  0  0  0  0
    2.3186   -2.2702   -0.2400 H   0  0  0  0  0  0  0  0  0  0  0  0
    1.4095   -4.9808    0.0318 H   0  0  0  0  0  0  0  0  0  0  0  0
    3.1898   -4.9973   -0.0180 H   0  0  0  0  0  0  0  0  0  0  0  0
    2.3425   -4.0815    1.2467 H   0  0  0  0  0  0  0  0  0  0  0  0
  1  2  2  0  0  0  0
  1  3  1  0  0  0  0
  1  7  1  0  0  0  0
  3  4  1  0  0  0  0
  3  5  1  0  0  0  0
  3  6  1  0  0  0  0
  7  8  1  0  0  0  0
  7 12  1  0  0  0  0
  8  9  1  0  0  0  0
  8 11  1  0  0  0  0
  8 13  1  0  0  0  0
  9 10  2  0  0  0  0
  9 17  1  0  0  0  0
 11 14  1  0  0  0  0
 11 15  1  0  0  0  0
 11 16  1  0  0  0  0
 17 18  1  0  0  0  0
 17 23  1  0  0  0  0
 18 19  1  0  0  0  0
 18 21  1  0  0  0  0
 18 24  1  0  0  0  0
 19 20  2  0  0  0  0
 19 31  1  0  0  0  0
 21 22  1  0  0  0  0
 21 25  1  0  0  0  0
 21 26  1  0  0  0  0
 22 23  1  0  0  0  0
 22 27  1  0  0  0  0
 22 28  1  0  0  0  0
 23 29  1  0  0  0  0
 23 30  1  0  0  0  0
 31 32  1  0  0  0  0
 31 36  1  0  0  0  0
 32 33  1  0  0  0  0
 32 35  1  0  0  0  0
 32 37  1  0  0  0  0
 33 34  2  0  0  0  0
 33 41  1  0  0  0  0
 35 38  1  0  0  0  0
 35 39  1  0  0  0  0
 35 40  1  0  0  0  0
 41 42  1  0  0  0  0
 41 43  1  0  0  0  0
 42 44  1  0  0  0  0
 42 45  1  0  0  0  0
 42 46  1  0  0  0  0
M  END
$$$$

  -OEChem-05262217223D

 46 46  0     1  0  0  0  0  0999 V2000
   -1.6676   -0.0642    2.1920 C   0  0  0  0  0  0  0  0  0  0  0  0
   -2.2738   -0.5723    1.2617 O   0  0  0  0  0  0  0  0  0  0  0  0
   -1.1593   -0.9282    3.3305 C   0  0  0  0  0  0  0  0  0  0  0  0
   -1.6240   -0.6197    4.2701 H   0  0  0  0  0  0  0  0  0  0  0  0
   -1.4028   -1.9782    3.1461 H   0  0  0  0  0  0  0  0  0  0  0  0
   -0.0743   -0.8293    3.4179 H   0  0  0  0  0  0  0  0  0  0  0  0
   -1.4278    1.2949    2.2087 N   0  0  0  0  0  0  0  0  0  0  0  0
   -1.7649    2.2285    1.1223 C   0  0  2  0  0  0  0  0  0  0  0  0
   -0.4830    2.8986    0.5463 C   0  0  0  0  0  0  0  0  0  0  0  0
   -0.2183    4.0428    0.9066 O   0  0  0  0  0  0  0  0  0  0  0  0
   -2.7661    3.2410    1.6954 C   0  0  0  0  0  0  0  0  0  0  0  0
   -0.8699    1.6511    2.9810 H   0  0  0  0  0  0  0  0  0  0  0  0
   -2.2747    1.7097    0.3066 H   0  0  0  0  0  0  0  0  0  0  0  0
   -2.3321    3.7802    2.5438 H   0  0  0  0  0  0  0  0  0  0  0  0
   -3.0497    3.9693    0.9290 H   0  0  0  0  0  0  0  0  0  0  0  0
   -3.6704    2.7274    2.0360 H   0  0  0  0  0  0  0  0  0  0  0  0
    0.3593    2.2787   -0.4158 N   0  0  0  0  0  0  0  0  0  0  0  0
    0.0440    0.8633   -0.9721 C   0  0  2  0  0  0  0  0  0  0  0  0
    1.2330   -0.0771   -1.3738 C   0  0  0  0  0  0  0  0  0  0  0  0
    1.9864   -0.3793   -0.4585 O   0  0  0  0  0  0  0  0  0  0  0  0
   -0.2146    1.4355   -2.3925 C   0  0  0  0  0  0  0  0  0  0  0  0
   -0.6493    2.8134   -2.0617 C   0  0  0  0  0  0  0  0  0  0  0  0
    0.6754    3.2689   -1.5802 C   0  0  0  0  0  0  0  0  0  0  0  0
   -0.7952    0.3293   -0.5284 H   0  0  0  0  0  0  0  0  0  0  0  0
   -1.0277    0.8801   -2.8723 H   0  0  0  0  0  0  0  0  0  0  0  0
    0.6149    1.4750   -3.1111 H   0  0  0  0  0  0  0  0  0  0  0  0
   -0.8596    3.3483   -2.9935 H   0  0  0  0  0  0  0  0  0  0  0  0
   -1.5832    2.9175   -1.4974 H   0  0  0  0  0  0  0  0  0  0  0  0
    1.5668    3.0282   -2.1726 H   0  0  0  0  0  0  0  0  0  0  0  0
    0.6992    4.3313   -1.3145 H   0  0  0  0  0  0  0  0  0  0  0  0
    1.5048   -0.6370   -2.6239 N   0  0  0  0  0  0  0  0  0  0  0  0
    2.6493   -1.4942   -3.0054 C   0  0  2  0  0  0  0  0  0  0  0  0
    2.6438   -2.9123   -2.3873 C   0  0  0  0  0  0  0  0  0  0  0  0
    2.8021   -3.8837   -3.1149 O   0  0  0  0  0  0  0  0  0  0  0  0
    3.9897   -0.7908   -2.7464 C   0  0  0  0  0  0  0  0  0  0  0  0
    0.8120   -0.4578   -3.3444 H   0  0  0  0  0  0  0  0  0  0  0  0
    2.5783   -1.6419   -4.0881 H   0  0  0  0  0  0  0  0  0  0  0  0
    4.1994   -0.7133   -1.6758 H   0  0  0  0  0  0  0  0  0  0  0  0
    4.8038   -1.3567   -3.2101 H   0  0  0  0  0  0  0  0  0  0  0  0
    3.9813    0.2160   -3.1737 H   0  0  0  0  0  0  0  0  0  0  0  0
    2.4695   -3.1063   -1.0323 N   0  0  0  0  0  0  0  0  0  0  0  0
    2.4853   -4.4093   -0.3831 C   0  0  0  0  0  0  0  0  0  0  0  0
    2.3656   -2.2597   -0.4668 H   0  0  0  0  0  0  0  0  0  0  0  0
    1.7319   -5.0685   -0.8267 H   0  0  0  0  0  0  0  0  0  0  0  0
    3.4696   -4.8773   -0.4887 H   0  0  0  0  0  0  0  0  0  0  0  0
    2.2641   -4.3016    0.6830 H   0  0  0  0  0  0  0  0  0  0  0  0
  1  2  2  0  0  0  0
  1  3  1  0  0  0  0
  1  7  1  0  0  0  0
  3  4  1  0  0  0  0
  3  5  1  0  0  0  0
  3  6  1  0  0  0  0
  7  8  1  0  0  0  0
  7 12  1  0  0  0  0
  8  9  1  0  0  0  0
  8 11  1  0  0  0  0
  8 13  1  0  0  0  0
  9 10  2  0  0  0  0
  9 17  1  0  0  0  0
 11 14  1  0  0  0  0
 11 15  1  0  0  0  0
 11 16  1  0  0  0  0
 17 18  1  0  0  0  0
 17 23  1  0  0  0  0
 18 19  1  0  0  0  0
 18 21  1  0  0  0  0
 18 24  1  0  0  0  0
 19 20  2  0  0  0  0
 19 31  1  0  0  0  0
 21 22  1  0  0  0  0
 21 25  1  0  0  0  0
 21 26  1  0  0  0  0
 22 23  1  0  0  0  0
 22 27  1  0  0  0  0
 22 28  1  0  0  0  0
 23 29  1  0  0  0  0
 23 30  1  0  0  0  0
 31 32  1  0  0  0  0
 31 36  1  0  0  0  0
 32 33  1  0  0  0  0
 32 35  1  0  0  0  0
 32 37  1  0  0  0  0
 33 34  2  0  0  0  0
 33 41  1  0  0  0  0
 35 38  1  0  0  0  0
 35 39  1  0  0  0  0
 35 40  1  0  0  0  0
 41 42  1  0  0  0  0
 41 43  1  0  0  0  0
 42 44  1  0  0  0  0
 42 45  1  0  0  0  0
 42 46  1  0  0  0  0
M  END
$$$$

  -OEChem-05262217223D

 46 46  0     1  0  0  0  0  0999 V2000
   -1.6027   -0.1473    2.1185 C   0  0  0  0  0  0  0  0  0  0  0  0
   -2.2462   -0.6376    1.2038 O   0  0  0  0  0  0  0  0  0  0  0  0
   -1.0382   -1.0359    3.2108 C   0  0  0  0  0  0  0  0  0  0  0  0
   -1.4183   -0.7190    4.1850 H   0  0  0  0  0  0  0  0  0  0  0  0
   -1.3315   -2.0755    3.0400 H   0  0  0  0  0  0  0  0  0  0  0  0
    0.0530   -0.9746    3.2148 H   0  0  0  0  0  0  0  0  0  0  0  0
   -1.3721    1.2133    2.1539 N   0  0  0  0  0  0  0  0  0  0  0  0
   -1.7920    2.1687    1.1157 C   0  0  2  0  0  0  0  0  0  0  0  0
   -0.5709    2.9409    0.5325 C   0  0  0  0  0  0  0  0  0  0  0  0
   -0.3977    4.1052    0.8835 O   0  0  0  0  0  0  0  0  0  0  0  0
   -2.8401    3.0907    1.7540 C   0  0  0  0  0  0  0  0  0  0  0  0
   -0.7893    1.5606    2.9118 H   0  0  0  0  0  0  0  0  0  0  0  0
   -2.2870    1.6476    0.2919 H   0  0  0  0  0  0  0  0  0  0  0  0
   -2.4161    3.6278    2.6084 H   0  0  0  0  0  0  0  0  0  0  0  0
   -3.1953    3.8250    1.0243 H   0  0  0  0  0  0  0  0  0  0  0  0
   -3.6977    2.5061    2.1012 H   0  0  0  0  0  0  0  0  0  0  0  0
    0.3179    2.3844   -0.4278 N   0  0  0  0  0  0  0  0  0  0  0  0
    0.1184    0.9436   -0.9728 C   0  0  2  0  0  0  0  0  0  0  0  0
    1.3979    0.1193   -1.3604 C   0  0  0  0  0  0  0  0  0  0  0  0
    2.0130   -0.3132   -0.3951 O   0  0  0  0  0  0  0  0  0  0  0  0
   -0.2293    1.4660   -2.3941 C   0  0  0  0  0  0  0  0  0  0  0  0
   -0.7796    2.7982   -2.0599 C   0  0  0  0  0  0  0  0  0  0  0  0
    0.5087    3.3830   -1.6165 C   0  0  0  0  0  0  0  0  0  0  0  0
   -0.6562    0.3390   -0.5009 H   0  0  0  0  0  0  0  0  0  0  0  0
   -0.9987    0.8274   -2.8415 H   0  0  0  0  0  0  0  0  0  0  0  0
    0.5576    1.5869   -3.1455 H   0  0  0  0  0  0  0  0  0  0  0  0
   -1.0581    3.3009   -2.9917 H   0  0  0  0  0  0  0  0  0  0  0  0
   -1.7083    2.8244   -1.4810 H   0  0  0  0  0  0  0  0  0  0  0  0
    1.4038    3.2179   -2.2289 H   0  0  0  0  0  0  0  0  0  0  0  0
    0.4388    4.4471   -1.3658 H   0  0  0  0  0  0  0  0  0  0  0  0
    1.9187   -0.2006   -2.6160 N   0  0  0  0  0  0  0  0  0  0  0  0
    3.1596   -0.9452   -2.9240 C   0  0  2  0  0  0  0  0  0  0  0  0
    3.1333   -2.4452   -2.5468 C   0  0  0  0  0  0  0  0  0  0  0  0
    3.3416   -3.2853   -3.4123 O   0  0  0  0  0  0  0  0  0  0  0  0
    4.3939   -0.2498   -2.3318 C   0  0  0  0  0  0  0  0  0  0  0  0
    1.3483    0.0706   -3.4103 H   0  0  0  0  0  0  0  0  0  0  0  0
    3.2779   -0.9133   -4.0122 H   0  0  0  0  0  0  0  0  0  0  0  0
    4.4187   -0.3397   -1.2422 H   0  0  0  0  0  0  0  0  0  0  0  0
    5.3056   -0.7060   -2.7302 H   0  0  0  0  0  0  0  0  0  0  0  0
    4.3950    0.8124   -2.5936 H   0  0  0  0  0  0  0  0  0  0  0  0
    2.8750   -2.8561   -1.2550 N   0  0  0  0  0  0  0  0  0  0  0  0
    2.7864   -4.2492   -0.8420 C   0  0  0  0  0  0  0  0  0  0  0  0
    2.6400   -2.1157   -0.5886 H   0  0  0  0  0  0  0  0  0  0  0  0
    1.9553   -4.7475   -1.3516 H   0  0  0  0  0  0  0  0  0  0  0  0
    3.7152   -4.7786   -1.0790 H   0  0  0  0  0  0  0  0  0  0  0  0
    2.6198   -4.3113    0.2378 H   0  0  0  0  0  0  0  0  0  0  0  0
  1  2  2  0  0  0  0
  1  3  1  0  0  0  0
  1  7  1  0  0  0  0
  3  4  1  0  0  0  0
  3  5  1  0  0  0  0
  3  6  1  0  0  0  0
  7  8  1  0  0  0  0
  7 12  1  0  0  0  0
  8  9  1  0  0  0  0
  8 11  1  0  0  0  0
  8 13  1  0  0  0  0
  9 10  2  0  0  0  0
  9 17  1  0  0  0  0
 11 14  1  0  0  0  0
 11 15  1  0  0  0  0
 11 16  1  0  0  0  0
 17 18  1  0  0  0  0
 17 23  1  0  0  0  0
 18 19  1  0  0  0  0
 18 21  1  0  0  0  0
 18 24  1  0  0  0  0
 19 20  2  0  0  0  0
 19 31  1  0  0  0  0
 21 22  1  0  0  0  0
 21 25  1  0  0  0  0
 21 26  1  0  0  0  0
 22 23  1  0  0  0  0
 22 27  1  0  0  0  0
 22 28  1  0  0  0  0
 23 29  1  0  0  0  0
 23 30  1  0  0  0  0
 31 32  1  0  0  0  0
 31 36  1  0  0  0  0
 32 33  1  0  0  0  0
 32 35  1  0  0  0  0
 32 37  1  0  0  0  0
 33 34  2  0  0  0  0
 33 41  1  0  0  0  0
 35 38  1  0  0  0  0
 35 39  1  0  0  0  0
 35 40  1  0  0  0  0
 41 42  1  0  0  0  0
 41 43  1  0  0  0  0
 42 44  1  0  0  0  0
 42 45  1  0  0  0  0
 42 46  1  0  0  0  0
M  END
$$$$

  -OEChem-05262217223D

 46 46  0     1  0  0  0  0  0999 V2000
   -1.4782   -0.1227    2.2020 C   0  0  0  0  0  0  0  0  0  0  0  0
   -2.0210   -0.7314    1.2932 O   0  0  0  0  0  0  0  0  0  0  0  0
   -0.8321   -0.8822    3.3451 C   0  0  0  0  0  0  0  0  0  0  0  0
   -1.2813   -0.5829    4.2950 H   0  0  0  0  0  0  0  0  0  0  0  0
   -0.9745   -1.9583    3.2121 H   0  0  0  0  0  0  0  0  0  0  0  0
    0.2398   -0.6709    3.3726 H   0  0  0  0  0  0  0  0  0  0  0  0
   -1.4320    1.2570    2.1843 N   0  0  0  0  0  0  0  0  0  0  0  0
   -1.8866    2.1008    1.0673 C   0  0  2  0  0  0  0  0  0  0  0  0
   -0.7073    2.9460    0.4987 C   0  0  0  0  0  0  0  0  0  0  0  0
   -0.6266    4.1273    0.8255 O   0  0  0  0  0  0  0  0  0  0  0  0
   -3.0453    2.9613    1.5895 C   0  0  0  0  0  0  0  0  0  0  0  0
   -0.9207    1.7068    2.9400 H   0  0  0  0  0  0  0  0  0  0  0  0
   -2.2879    1.4819    0.2609 H   0  0  0  0  0  0  0  0  0  0  0  0
   -2.7194    3.5848    2.4284 H   0  0  0  0  0  0  0  0  0  0  0  0
   -3.4199    3.6156    0.7962 H   0  0  0  0  0  0  0  0  0  0  0  0
   -3.8674    2.3236    1.9287 H   0  0  0  0  0  0  0  0  0  0  0  0
    0.2520    2.4345   -0.4176 N   0  0  0  0  0  0  0  0  0  0  0  0
    0.1958    0.9741   -0.9400 C   0  0  2  0  0  0  0  0  0  0  0  0
    1.5859    0.3092   -1.2441 C   0  0  0  0  0  0  0  0  0  0  0  0
    2.0411   -0.3082   -0.2905 O   0  0  0  0  0  0  0  0  0  0  0  0
   -0.1874    1.3949   -2.3822 C   0  0  0  0  0  0  0  0  0  0  0  0
   -0.8662    2.6717   -2.0802 C   0  0  0  0  0  0  0  0  0  0  0  0
    0.3524    3.4005   -1.6490 C   0  0  0  0  0  0  0  0  0  0  0  0
   -0.5095    0.3009   -0.4507 H   0  0  0  0  0  0  0  0  0  0  0  0
   -0.8920    0.6662   -2.7974 H   0  0  0  0  0  0  0  0  0  0  0  0
    0.5730    1.5591   -3.1471 H   0  0  0  0  0  0  0  0  0  0  0  0
   -1.1872    3.1204   -3.0258 H   0  0  0  0  0  0  0  0  0  0  0  0
   -1.8003    2.6194   -1.5137 H   0  0  0  0  0  0  0  0  0  0  0  0
    1.2643    3.2996   -2.2499 H   0  0  0  0  0  0  0  0  0  0  0  0
    0.1743    4.4617   -1.4426 H   0  0  0  0  0  0  0  0  0  0  0  0
    2.3515    0.2770   -2.4112 N   0  0  0  0  0  0  0  0  0  0  0  0
    3.6737   -0.3564   -2.6137 C   0  0  2  0  0  0  0  0  0  0  0  0
    3.6653   -1.9032   -2.5924 C   0  0  0  0  0  0  0  0  0  0  0  0
    4.1255   -2.5183   -3.5456 O   0  0  0  0  0  0  0  0  0  0  0  0
    4.7276    0.2063   -1.6480 C   0  0  0  0  0  0  0  0  0  0  0  0
    1.9522    0.7393   -3.2194 H   0  0  0  0  0  0  0  0  0  0  0  0
    3.9983   -0.0764   -3.6210 H   0  0  0  0  0  0  0  0  0  0  0  0
    4.5487   -0.1260   -0.6213 H   0  0  0  0  0  0  0  0  0  0  0  0
    5.7249   -0.1341   -1.9440 H   0  0  0  0  0  0  0  0  0  0  0  0
    4.7158    1.3002   -1.6671 H   0  0  0  0  0  0  0  0  0  0  0  0
    3.1324   -2.6063   -1.5312 N   0  0  0  0  0  0  0  0  0  0  0  0
    3.0480   -4.0589   -1.4731 C   0  0  0  0  0  0  0  0  0  0  0  0
    2.7266   -2.0448   -0.7780 H   0  0  0  0  0  0  0  0  0  0  0  0
    2.4318   -4.4402   -2.2940 H   0  0  0  0  0  0  0  0  0  0  0  0
    4.0462   -4.5033   -1.5452 H   0  0  0  0  0  0  0  0  0  0  0  0
    2.5969   -4.3723   -0.5269 H   0  0  0  0  0  0  0  0  0  0  0  0
  1  2  2  0  0  0  0
  1  3  1  0  0  0  0
  1  7  1  0  0  0  0
  3  4  1  0  0  0  0
  3  5  1  0  0  0  0
  3  6  1  0  0  0  0
  7  8  1  0  0  0  0
  7 12  1  0  0  0  0
  8  9  1  0  0  0  0
  8 11  1  0  0  0  0
  8 13  1  0  0  0  0
  9 10  2  0  0  0  0
  9 17  1  0  0  0  0
 11 14  1  0  0  0  0
 11 15  1  0  0  0  0
 11 16  1  0  0  0  0
 17 18  1  0  0  0  0
 17 23  1  0  0  0  0
 18 19  1  0  0  0  0
 18 21  1  0  0  0  0
 18 24  1  0  0  0  0
 19 20  2  0  0  0  0
 19 31  1  0  0  0  0
 21 22  1  0  0  0  0
 21 25  1  0  0  0  0
 21 26  1  0  0  0  0
 22 23  1  0  0  0  0
 22 27  1  0  0  0  0
 22 28  1  0  0  0  0
 23 29  1  0  0  0  0
 23 30  1  0  0  0  0
 31 32  1  0  0  0  0
 31 36  1  0  0  0  0
 32 33  1  0  0  0  0
 32 35  1  0  0  0  0
 32 37  1  0  0  0  0
 33 34  2  0  0  0  0
 33 41  1  0  0  0  0
 35 38  1  0  0  0  0
 35 39  1  0  0  0  0
 35 40  1  0  0  0  0
 41 42  1  0  0  0  0
 41 43  1  0  0  0  0
 42 44  1  0  0  0  0
 42 45  1  0  0  0  0
 42 46  1  0  0  0  0
M  END
$$$$

  -OEChem-05262217223D

 46 46  0     1  0  0  0  0  0999 V2000
   -1.4881   -0.0952    2.2686 C   0  0  0  0  0  0  0  0  0  0  0  0
   -1.9519   -0.7721    1.3645 O   0  0  0  0  0  0  0  0  0  0  0  0
   -0.8713   -0.7667    3.4806 C   0  0  0  0  0  0  0  0  0  0  0  0
   -1.4022   -0.4647    4.3864 H   0  0  0  0  0  0  0  0  0  0  0  0
   -0.9333   -1.8541    3.3819 H   0  0  0  0  0  0  0  0  0  0  0  0
    0.1800   -0.4819    3.5694 H   0  0  0  0  0  0  0  0  0  0  0  0
   -1.5095    1.2829    2.1867 N   0  0  0  0  0  0  0  0  0  0  0  0
   -1.9719    2.0499    1.0191 C   0  0  2  0  0  0  0  0  0  0  0  0
   -0.8319    2.9548    0.4597 C   0  0  0  0  0  0  0  0  0  0  0  0
   -0.8515    4.1540    0.7233 O   0  0  0  0  0  0  0  0  0  0  0  0
   -3.2073    2.8446    1.4617 C   0  0  0  0  0  0  0  0  0  0  0  0
   -1.0780    1.7948    2.9523 H   0  0  0  0  0  0  0  0  0  0  0  0
   -2.2962    1.3718    0.2261 H   0  0  0  0  0  0  0  0  0  0  0  0
   -2.9589    3.5205    2.2862 H   0  0  0  0  0  0  0  0  0  0  0  0
   -3.5945    3.4401    0.6291 H   0  0  0  0  0  0  0  0  0  0  0  0
   -3.9956    2.1628    1.7957 H   0  0  0  0  0  0  0  0  0  0  0  0
    0.2075    2.4749   -0.3821 N   0  0  0  0  0  0  0  0  0  0  0  0
    0.2939    0.9946   -0.8301 C   0  0  2  0  0  0  0  0  0  0  0  0
    1.7595    0.4739   -1.0211 C   0  0  0  0  0  0  0  0  0  0  0  0
    2.1188   -0.3173   -0.1598 O   0  0  0  0  0  0  0  0  0  0  0  0
   -0.0572    1.2753   -2.3112 C   0  0  0  0  0  0  0  0  0  0  0  0
   -0.8511    2.5027   -2.1025 C   0  0  0  0  0  0  0  0  0  0  0  0
    0.2752    3.3660   -1.6747 C   0  0  0  0  0  0  0  0  0  0  0  0
   -0.3620    0.2854   -0.3216 H   0  0  0  0  0  0  0  0  0  0  0  0
   -0.6872    0.4641   -2.6918 H   0  0  0  0  0  0  0  0  0  0  0  0
    0.7163    1.4348   -3.0647 H   0  0  0  0  0  0  0  0  0  0  0  0
   -1.1728    2.8672   -3.0834 H   0  0  0  0  0  0  0  0  0  0  0  0
   -1.8001    2.4009   -1.5704 H   0  0  0  0  0  0  0  0  0  0  0  0
    1.2150    3.3088   -2.2365 H   0  0  0  0  0  0  0  0  0  0  0  0
   -0.0060    4.4173   -1.5470 H   0  0  0  0  0  0  0  0  0  0  0  0
    2.6685    0.7307   -2.0473 N   0  0  0  0  0  0  0  0  0  0  0  0
    4.0419    0.2010   -2.1989 C   0  0  2  0  0  0  0  0  0  0  0  0
    4.1224   -1.3140   -2.5012 C   0  0  0  0  0  0  0  0  0  0  0  0
    4.7381   -1.6972   -3.4874 O   0  0  0  0  0  0  0  0  0  0  0  0
    4.9286    0.5764   -1.0025 C   0  0  0  0  0  0  0  0  0  0  0  0
    2.3721    1.4162   -2.7332 H   0  0  0  0  0  0  0  0  0  0  0  0
    4.4725    0.7010   -3.0727 H   0  0  0  0  0  0  0  0  0  0  0  0
    4.6403    0.0255   -0.1028 H   0  0  0  0  0  0  0  0  0  0  0  0
    5.9743    0.3400   -1.2239 H   0  0  0  0  0  0  0  0  0  0  0  0
    4.8525    1.6479   -0.7947 H   0  0  0  0  0  0  0  0  0  0  0  0
    3.4918   -2.2430   -1.6985 N   0  0  0  0  0  0  0  0  0  0  0  0
    3.4621   -3.6733   -1.9694 C   0  0  0  0  0  0  0  0  0  0  0  0
    2.9528   -1.8667   -0.9140 H   0  0  0  0  0  0  0  0  0  0  0  0
    2.9617   -3.8705   -2.9229 H   0  0  0  0  0  0  0  0  0  0  0  0
    4.4791   -4.0769   -2.0129 H   0  0  0  0  0  0  0  0  0  0  0  0
    2.9170   -4.1959   -1.1775 H   0  0  0  0  0  0  0  0  0  0  0  0
  1  2  2  0  0  0  0
  1  3  1  0  0  0  0
  1  7  1  0  0  0  0
  3  4  1  0  0  0  0
  3  5  1  0  0  0  0
  3  6  1  0  0  0  0
  7  8  1  0  0  0  0
  7 12  1  0  0  0  0
  8  9  1  0  0  0  0
  8 11  1  0  0  0  0
  8 13  1  0  0  0  0
  9 10  2  0  0  0  0
  9 17  1  0  0  0  0
 11 14  1  0  0  0  0
 11 15  1  0  0  0  0
 11 16  1  0  0  0  0
 17 18  1  0  0  0  0
 17 23  1  0  0  0  0
 18 19  1  0  0  0  0
 18 21  1  0  0  0  0
 18 24  1  0  0  0  0
 19 20  2  0  0  0  0
 19 31  1  0  0  0  0
 21 22  1  0  0  0  0
 21 25  1  0  0  0  0
 21 26  1  0  0  0  0
 22 23  1  0  0  0  0
 22 27  1  0  0  0  0
 22 28  1  0  0  0  0
 23 29  1  0  0  0  0
 23 30  1  0  0  0  0
 31 32  1  0  0  0  0
 31 36  1  0  0  0  0
 32 33  1  0  0  0  0
 32 35  1  0  0  0  0
 32 37  1  0  0  0  0
 33 34  2  0  0  0  0
 33 41  1  0  0  0  0
 35 38  1  0  0  0  0
 35 39  1  0  0  0  0
 35 40  1  0  0  0  0
 41 42  1  0  0  0  0
 41 43  1  0  0  0  0
 42 44  1  0  0  0  0
 42 45  1  0  0  0  0
 42 46  1  0  0  0  0
M  END
$$$$

  -OEChem-05262217223D

 46 46  0     1  0  0  0  0  0999 V2000
   -1.5501   -0.0074    2.4275 C   0  0  0  0  0  0  0  0  0  0  0  0
   -1.8643   -0.7823    1.5383 O   0  0  0  0  0  0  0  0  0  0  0  0
   -0.9968   -0.5346    3.7373 C   0  0  0  0  0  0  0  0  0  0  0  0
   -1.6273   -0.2093    4.5685 H   0  0  0  0  0  0  0  0  0  0  0  0
   -0.9690   -1.6280    3.7224 H   0  0  0  0  0  0  0  0  0  0  0  0
    0.0185   -0.1598    3.8894 H   0  0  0  0  0  0  0  0  0  0  0  0
   -1.6802    1.3540    2.2405 N   0  0  0  0  0  0  0  0  0  0  0  0
   -2.0723    1.9924    0.9749 C   0  0  2  0  0  0  0  0  0  0  0  0
   -0.9412    2.9284    0.4542 C   0  0  0  0  0  0  0  0  0  0  0  0
   -1.0265    4.1323    0.6800 O   0  0  0  0  0  0  0  0  0  0  0  0
   -3.3925    2.7317    1.2288 C   0  0  0  0  0  0  0  0  0  0  0  0
   -1.3680    1.9544    2.9998 H   0  0  0  0  0  0  0  0  0  0  0  0
   -2.2733    1.2346    0.2137 H   0  0  0  0  0  0  0  0  0  0  0  0
   -3.2695    3.4958    2.0034 H   0  0  0  0  0  0  0  0  0  0  0  0
   -3.7359    3.2193    0.3114 H   0  0  0  0  0  0  0  0  0  0  0  0
   -4.1634    2.0269    1.5558 H   0  0  0  0  0  0  0  0  0  0  0  0
    0.1741    2.4720   -0.2972 N   0  0  0  0  0  0  0  0  0  0  0  0
    0.3723    0.9849   -0.6835 C   0  0  2  0  0  0  0  0  0  0  0  0
    1.8702    0.5446   -0.7596 C   0  0  0  0  0  0  0  0  0  0  0  0
    2.1692   -0.4175   -0.0660 O   0  0  0  0  0  0  0  0  0  0  0  0
    0.1212    1.1799   -2.1957 C   0  0  0  0  0  0  0  0  0  0  0  0
   -0.7521    2.3671   -2.0864 C   0  0  0  0  0  0  0  0  0  0  0  0
    0.2801    3.3173   -1.6177 C   0  0  0  0  0  0  0  0  0  0  0  0
   -0.2767    0.2580   -0.1896 H   0  0  0  0  0  0  0  0  0  0  0  0
   -0.4343    0.3207   -2.5872 H   0  0  0  0  0  0  0  0  0  0  0  0
    0.9501    1.3466   -2.8891 H   0  0  0  0  0  0  0  0  0  0  0  0
   -1.0258    2.6762   -3.1006 H   0  0  0  0  0  0  0  0  0  0  0  0
   -1.7278    2.2238   -1.6140 H   0  0  0  0  0  0  0  0  0  0  0  0
    1.2563    3.3019   -2.1149 H   0  0  0  0  0  0  0  0  0  0  0  0
   -0.0773    4.3512   -1.5545 H   0  0  0  0  0  0  0  0  0  0  0  0
    2.8623    1.0698   -1.5850 N   0  0  0  0  0  0  0  0  0  0  0  0
    4.2762    0.6488   -1.6870 C   0  0  2  0  0  0  0  0  0  0  0  0
    4.4863   -0.7413   -2.3304 C   0  0  0  0  0  0  0  0  0  0  0  0
    5.2239   -0.8491   -3.3014 O   0  0  0  0  0  0  0  0  0  0  0  0
    4.9965    0.7478   -0.3343 C   0  0  0  0  0  0  0  0  0  0  0  0
    2.5908    1.8886   -2.1191 H   0  0  0  0  0  0  0  0  0  0  0  0
    4.7670    1.3648   -2.3541 H   0  0  0  0  0  0  0  0  0  0  0  0
    4.6516   -0.0241    0.3596 H   0  0  0  0  0  0  0  0  0  0  0  0
    6.0743    0.6192   -0.4749 H   0  0  0  0  0  0  0  0  0  0  0  0
    4.8212    1.7280    0.1192 H   0  0  0  0  0  0  0  0  0  0  0  0
    3.8364   -1.8596   -1.8490 N   0  0  0  0  0  0  0  0  0  0  0  0
    3.9440   -3.1859   -2.4397 C   0  0  0  0  0  0  0  0  0  0  0  0
    3.2005   -1.7070   -1.0615 H   0  0  0  0  0  0  0  0  0  0  0  0
    3.5601   -3.1799   -3.4651 H   0  0  0  0  0  0  0  0  0  0  0  0
    4.9881   -3.5158   -2.4549 H   0  0  0  0  0  0  0  0  0  0  0  0
    3.3631   -3.9058   -1.8553 H   0  0  0  0  0  0  0  0  0  0  0  0
  1  2  2  0  0  0  0
  1  3  1  0  0  0  0
  1  7  1  0  0  0  0
  3  4  1  0  0  0  0
  3  5  1  0  0  0  0
  3  6  1  0  0  0  0
  7  8  1  0  0  0  0
  7 12  1  0  0  0  0
  8  9  1  0  0  0  0
  8 11  1  0  0  0  0
  8 13  1  0  0  0  0
  9 10  2  0  0  0  0
  9 17  1  0  0  0  0
 11 14  1  0  0  0  0
 11 15  1  0  0  0  0
 11 16  1  0  0  0  0
 17 18  1  0  0  0  0
 17 23  1  0  0  0  0
 18 19  1  0  0  0  0
 18 21  1  0  0  0  0
 18 24  1  0  0  0  0
 19 20  2  0  0  0  0
 19 31  1  0  0  0  0
 21 22  1  0  0  0  0
 21 25  1  0  0  0  0
 21 26  1  0  0  0  0
 22 23  1  0  0  0  0
 22 27  1  0  0  0  0
 22 28  1  0  0  0  0
 23 29  1  0  0  0  0
 23 30  1  0  0  0  0
 31 32  1  0  0  0  0
 31 36  1  0  0  0  0
 32 33  1  0  0  0  0
 32 35  1  0  0  0  0
 32 37  1  0  0  0  0
 33 34  2  0  0  0  0
 33 41  1  0  0  0  0
 35 38  1  0  0  0  0
 35 39  1  0  0  0  0
 35 40  1  0  0  0  0
 41 42  1  0  0  0  0
 41 43  1  0  0  0  0
 42 44  1  0  0  0  0
 42 45  1  0  0  0  0
 42 46  1  0  0  0  0
M  END
$$$$

  -OEChem-05262217223D

 46 46  0     1  0  0  0  0  0999 V2000
   -1.6262    0.2219    2.8014 C   0  0  0  0  0  0  0  0  0  0  0  0
   -1.4550   -0.6874    2.0065 O   0  0  0  0  0  0  0  0  0  0  0  0
   -1.3650    0.0013    4.2795 C   0  0  0  0  0  0  0  0  0  0  0  0
   -2.2634    0.2306    4.8578 H   0  0  0  0  0  0  0  0  0  0  0  0
   -1.0865   -1.0403    4.4619 H   0  0  0  0  0  0  0  0  0  0  0  0
   -0.5498    0.6469    4.6148 H   0  0  0  0  0  0  0  0  0  0  0  0
   -2.0426    1.4599    2.3563 N   0  0  0  0  0  0  0  0  0  0  0  0
   -2.1724    1.8325    0.9405 C   0  0  2  0  0  0  0  0  0  0  0  0
   -1.0217    2.7852    0.5076 C   0  0  0  0  0  0  0  0  0  0  0  0
   -1.1532    3.9842    0.7400 O   0  0  0  0  0  0  0  0  0  0  0  0
   -3.5548    2.4756    0.7677 C   0  0  0  0  0  0  0  0  0  0  0  0
   -2.0811    2.2062    3.0463 H   0  0  0  0  0  0  0  0  0  0  0  0
   -2.1566    0.9445    0.3041 H   0  0  0  0  0  0  0  0  0  0  0  0
   -3.6603    3.3531    1.4141 H   0  0  0  0  0  0  0  0  0  0  0  0
   -3.7011    2.7907   -0.2701 H   0  0  0  0  0  0  0  0  0  0  0  0
   -4.3400    1.7582    1.0257 H   0  0  0  0  0  0  0  0  0  0  0  0
    0.1649    2.3638   -0.1483 N   0  0  0  0  0  0  0  0  0  0  0  0
    0.4622    0.8881   -0.5235 C   0  0  2  0  0  0  0  0  0  0  0  0
    1.9703    0.4997   -0.4858 C   0  0  0  0  0  0  0  0  0  0  0  0
    2.2435   -0.6297   -0.1041 O   0  0  0  0  0  0  0  0  0  0  0  0
    0.3466    1.0698   -2.0498 C   0  0  0  0  0  0  0  0  0  0  0  0
   -0.5865    2.2164   -2.0108 C   0  0  0  0  0  0  0  0  0  0  0  0
    0.3437    3.2184   -1.4540 C   0  0  0  0  0  0  0  0  0  0  0  0
   -0.1918    0.1298   -0.0856 H   0  0  0  0  0  0  0  0  0  0  0  0
   -0.1266    0.1885   -2.4959 H   0  0  0  0  0  0  0  0  0  0  0  0
    1.2446    1.2761   -2.6441 H   0  0  0  0  0  0  0  0  0  0  0  0
   -0.7913    2.5171   -3.0435 H   0  0  0  0  0  0  0  0  0  0  0  0
   -1.5882    2.0153   -1.6167 H   0  0  0  0  0  0  0  0  0  0  0  0
    1.3559    3.2585   -1.8699 H   0  0  0  0  0  0  0  0  0  0  0  0
   -0.0749    4.2308   -1.4271 H   0  0  0  0  0  0  0  0  0  0  0  0
    2.9947    1.2793   -1.0143 N   0  0  0  0  0  0  0  0  0  0  0  0
    4.4326    0.9484   -1.1006 C   0  0  2  0  0  0  0  0  0  0  0  0
    4.7746   -0.1771   -2.1048 C   0  0  0  0  0  0  0  0  0  0  0  0
    5.6004    0.0319   -2.9839 O   0  0  0  0  0  0  0  0  0  0  0  0
    5.0260    0.6526    0.2841 C   0  0  0  0  0  0  0  0  0  0  0  0
    2.7242    2.2248   -1.2664 H   0  0  0  0  0  0  0  0  0  0  0  0
    4.9377    1.8456   -1.4729 H   0  0  0  0  0  0  0  0  0  0  0  0
    4.6570   -0.2973    0.6817 H   0  0  0  0  0  0  0  0  0  0  0  0
    6.1168    0.5912    0.2172 H   0  0  0  0  0  0  0  0  0  0  0  0
    4.7670    1.4497    0.9876 H   0  0  0  0  0  0  0  0  0  0  0  0
    4.1518   -1.4074   -2.0441 N   0  0  0  0  0  0  0  0  0  0  0  0
    4.3974   -2.4967   -2.9781 C   0  0  0  0  0  0  0  0  0  0  0  0
    3.4496   -1.5217   -1.3080 H   0  0  0  0  0  0  0  0  0  0  0  0
    4.1578   -2.1854   -4.0000 H   0  0  0  0  0  0  0  0  0  0  0  0
    5.4472   -2.8051   -2.9387 H   0  0  0  0  0  0  0  0  0  0  0  0
    3.7734   -3.3587   -2.7238 H   0  0  0  0  0  0  0  0  0  0  0  0
  1  2  2  0  0  0  0
  1  3  1  0  0  0  0
  1  7  1  0  0  0  0
  3  4  1  0  0  0  0
  3  5  1  0  0  0  0
  3  6  1  0  0  0  0
  7  8  1  0  0  0  0
  7 12  1  0  0  0  0
  8  9  1  0  0  0  0
  8 11  1  0  0  0  0
  8 13  1  0  0  0  0
  9 10  2  0  0  0  0
  9 17  1  0  0  0  0
 11 14  1  0  0  0  0
 11 15  1  0  0  0  0
 11 16  1  0  0  0  0
 17 18  1  0  0  0  0
 17 23  1  0  0  0  0
 18 19  1  0  0  0  0
 18 21  1  0  0  0  0
 18 24  1  0  0  0  0
 19 20  2  0  0  0  0
 19 31  1  0  0  0  0
 21 22  1  0  0  0  0
 21 25  1  0  0  0  0
 21 26  1  0  0  0  0
 22 23  1  0  0  0  0
 22 27  1  0  0  0  0
 22 28  1  0  0  0  0
 23 29  1  0  0  0  0
 23 30  1  0  0  0  0
 31 32  1  0  0  0  0
 31 36  1  0  0  0  0
 32 33  1  0  0  0  0
 32 35  1  0  0  0  0
 32 37  1  0  0  0  0
 33 34  2  0  0  0  0
 33 41  1  0  0  0  0
 35 38  1  0  0  0  0
 35 39  1  0  0  0  0
 35 40  1  0  0  0  0
 41 42  1  0  0  0  0
 41 43  1  0  0  0  0
 42 44  1  0  0  0  0
 42 45  1  0  0  0  0
 42 46  1  0  0  0  0
M  END
$$$$

  -OEChem-05262217223D

 46 46  0     1  0  0  0  0  0999 V2000
   -1.7496    0.4757    3.0065 C   0  0  0  0  0  0  0  0  0  0  0  0
   -1.1410   -0.3759    2.3798 O   0  0  0  0  0  0  0  0  0  0  0  0
   -1.7887    0.4267    4.5223 C   0  0  0  0  0  0  0  0  0  0  0  0
   -2.8241    0.4514    4.8708 H   0  0  0  0  0  0  0  0  0  0  0  0
   -1.3192   -0.4934    4.8819 H   0  0  0  0  0  0  0  0  0  0  0  0
   -1.2508    1.2825    4.9376 H   0  0  0  0  0  0  0  0  0  0  0  0
   -2.3874    1.4975    2.3343 N   0  0  0  0  0  0  0  0  0  0  0  0
   -2.2693    1.7133    0.8861 C   0  0  2  0  0  0  0  0  0  0  0  0
   -1.0820    2.6606    0.5544 C   0  0  0  0  0  0  0  0  0  0  0  0
   -1.2388    3.8579    0.7807 O   0  0  0  0  0  0  0  0  0  0  0  0
   -3.6112    2.2843    0.4086 C   0  0  0  0  0  0  0  0  0  0  0  0
   -2.7435    2.2640    2.8996 H   0  0  0  0  0  0  0  0  0  0  0  0
   -2.1321    0.7600    0.3717 H   0  0  0  0  0  0  0  0  0  0  0  0
   -3.8317    3.2318    0.9109 H   0  0  0  0  0  0  0  0  0  0  0  0
   -3.5896    2.4629   -0.6705 H   0  0  0  0  0  0  0  0  0  0  0  0
   -4.4203    1.5800    0.6256 H   0  0  0  0  0  0  0  0  0  0  0  0
    0.1543    2.2475   -0.0082 N   0  0  0  0  0  0  0  0  0  0  0  0
    0.4893    0.7769   -0.3767 C   0  0  2  0  0  0  0  0  0  0  0  0
    1.9817    0.3783   -0.2314 C   0  0  0  0  0  0  0  0  0  0  0  0
    2.2616   -0.8120   -0.1769 O   0  0  0  0  0  0  0  0  0  0  0  0
    0.5294    0.9899   -1.9012 C   0  0  0  0  0  0  0  0  0  0  0  0
   -0.4053    2.1375   -1.9340 C   0  0  0  0  0  0  0  0  0  0  0  0
    0.4600    3.1289   -1.2689 C   0  0  0  0  0  0  0  0  0  0  0  0
   -0.1983    0.0070   -0.0188 H   0  0  0  0  0  0  0  0  0  0  0  0
    0.1123    0.1187   -2.4173 H   0  0  0  0  0  0  0  0  0  0  0  0
    1.4935    1.2106   -2.3797 H   0  0  0  0  0  0  0  0  0  0  0  0
   -0.5122    2.4568   -2.9759 H   0  0  0  0  0  0  0  0  0  0  0  0
   -1.4375    1.9240   -1.6351 H   0  0  0  0  0  0  0  0  0  0  0  0
    1.5079    3.1781   -1.5841 H   0  0  0  0  0  0  0  0  0  0  0  0
    0.0369    4.1395   -1.2645 H   0  0  0  0  0  0  0  0  0  0  0  0
    3.0032    1.3046   -0.4002 N   0  0  0  0  0  0  0  0  0  0  0  0
    4.4587    1.0542   -0.4074 C   0  0  2  0  0  0  0  0  0  0  0  0
    4.9675    0.2814   -1.6461 C   0  0  0  0  0  0  0  0  0  0  0  0
    5.8553    0.7650   -2.3364 O   0  0  0  0  0  0  0  0  0  0  0  0
    4.9173    0.3788    0.8929 C   0  0  0  0  0  0  0  0  0  0  0  0
    2.6972    2.2741   -0.3953 H   0  0  0  0  0  0  0  0  0  0  0  0
    4.9460    2.0339   -0.4416 H   0  0  0  0  0  0  0  0  0  0  0  0
    4.5525   -0.6503    0.9577 H   0  0  0  0  0  0  0  0  0  0  0  0
    6.0107    0.3547    0.9362 H   0  0  0  0  0  0  0  0  0  0  0  0
    4.5485    0.9339    1.7606 H   0  0  0  0  0  0  0  0  0  0  0  0
    4.4231   -0.9355   -2.0036 N   0  0  0  0  0  0  0  0  0  0  0  0
    4.8301   -1.7030   -3.1717 C   0  0  0  0  0  0  0  0  0  0  0  0
    3.6597   -1.2779   -1.4137 H   0  0  0  0  0  0  0  0  0  0  0  0
    4.6229   -1.1427   -4.0890 H   0  0  0  0  0  0  0  0  0  0  0  0
    5.9010   -1.9270   -3.1285 H   0  0  0  0  0  0  0  0  0  0  0  0
    4.2810   -2.6485   -3.2107 H   0  0  0  0  0  0  0  0  0  0  0  0
  1  2  2  0  0  0  0
  1  3  1  0  0  0  0
  1  7  1  0  0  0  0
  3  4  1  0  0  0  0
  3  5  1  0  0  0  0
  3  6  1  0  0  0  0
  7  8  1  0  0  0  0
  7 12  1  0  0  0  0
  8  9  1  0  0  0  0
  8 11  1  0  0  0  0
  8 13  1  0  0  0  0
  9 10  2  0  0  0  0
  9 17  1  0  0  0  0
 11 14  1  0  0  0  0
 11 15  1  0  0  0  0
 11 16  1  0  0  0  0
 17 18  1  0  0  0  0
 17 23  1  0  0  0  0
 18 19  1  0  0  0  0
 18 21  1  0  0  0  0
 18 24  1  0  0  0  0
 19 20  2  0  0  0  0
 19 31  1  0  0  0  0
 21 22  1  0  0  0  0
 21 25  1  0  0  0  0
 21 26  1  0  0  0  0
 22 23  1  0  0  0  0
 22 27  1  0  0  0  0
 22 28  1  0  0  0  0
 23 29  1  0  0  0  0
 23 30  1  0  0  0  0
 31 32  1  0  0  0  0
 31 36  1  0  0  0  0
 32 33  1  0  0  0  0
 32 35  1  0  0  0  0
 32 37  1  0  0  0  0
 33 34  2  0  0  0  0
 33 41  1  0  0  0  0
 35 38  1  0  0  0  0
 35 39  1  0  0  0  0
 35 40  1  0  0  0  0
 41 42  1  0  0  0  0
 41 43  1  0  0  0  0
 42 44  1  0  0  0  0
 42 45  1  0  0  0  0
 42 46  1  0  0  0  0
M  END
$$$$

  -OEChem-05262217223D

 46 46  0     1  0  0  0  0  0999 V2000
   -1.9485    0.5547    2.9836 C   0  0  0  0  0  0  0  0  0  0  0  0
   -1.2227   -0.2569    2.4327 O   0  0  0  0  0  0  0  0  0  0  0  0
   -2.1269    0.5213    4.4899 C   0  0  0  0  0  0  0  0  0  0  0  0
   -3.1880    0.4421    4.7384 H   0  0  0  0  0  0  0  0  0  0  0  0
   -1.6020   -0.3402    4.9126 H   0  0  0  0  0  0  0  0  0  0  0  0
   -1.7221    1.4336    4.9348 H   0  0  0  0  0  0  0  0  0  0  0  0
   -2.5914    1.5184    2.2348 N   0  0  0  0  0  0  0  0  0  0  0  0
   -2.3513    1.7178    0.7995 C   0  0  2  0  0  0  0  0  0  0  0  0
   -1.1235    2.6406    0.5570 C   0  0  0  0  0  0  0  0  0  0  0  0
   -1.2752    3.8422    0.7633 O   0  0  0  0  0  0  0  0  0  0  0  0
   -3.6366    2.3087    0.2053 C   0  0  0  0  0  0  0  0  0  0  0  0
   -3.0447    2.2689    2.7492 H   0  0  0  0  0  0  0  0  0  0  0  0
   -2.1927    0.7552    0.3097 H   0  0  0  0  0  0  0  0  0  0  0  0
   -3.8792    3.2671    0.6763 H   0  0  0  0  0  0  0  0  0  0  0  0
   -3.5200    2.4733   -0.8700 H   0  0  0  0  0  0  0  0  0  0  0  0
   -4.4756    1.6234    0.3604 H   0  0  0  0  0  0  0  0  0  0  0  0
    0.1421    2.2018    0.0884 N   0  0  0  0  0  0  0  0  0  0  0  0
    0.4646    0.7218   -0.2511 C   0  0  2  0  0  0  0  0  0  0  0  0
    1.9250    0.2727   -0.0033 C   0  0  0  0  0  0  0  0  0  0  0  0
    2.2309   -0.9019   -0.1710 O   0  0  0  0  0  0  0  0  0  0  0  0
    0.6569    0.9562   -1.7612 C   0  0  0  0  0  0  0  0  0  0  0  0
   -0.2340    2.1353   -1.8777 C   0  0  0  0  0  0  0  0  0  0  0  0
    0.5966    3.0879   -1.1191 C   0  0  0  0  0  0  0  0  0  0  0  0
   -0.2739   -0.0324    0.0286 H   0  0  0  0  0  0  0  0  0  0  0  0
    0.2696    0.1048   -2.3307 H   0  0  0  0  0  0  0  0  0  0  0  0
    1.6744    1.1532   -2.1324 H   0  0  0  0  0  0  0  0  0  0  0  0
   -0.2282    2.4652   -2.9215 H   0  0  0  0  0  0  0  0  0  0  0  0
   -1.2972    1.9571   -1.6776 H   0  0  0  0  0  0  0  0  0  0  0  0
    1.6727    3.1033   -1.3266 H   0  0  0  0  0  0  0  0  0  0  0  0
    0.2098    4.1130   -1.1387 H   0  0  0  0  0  0  0  0  0  0  0  0
    2.9146    1.2241    0.1951 N   0  0  0  0  0  0  0  0  0  0  0  0
    4.3708    1.0069    0.2998 C   0  0  2  0  0  0  0  0  0  0  0  0
    5.0388    0.5519   -1.0180 C   0  0  0  0  0  0  0  0  0  0  0  0
    5.9523    1.2147   -1.4920 O   0  0  0  0  0  0  0  0  0  0  0  0
    4.7128    0.0528    1.4524 C   0  0  0  0  0  0  0  0  0  0  0  0
    2.5667    2.1696    0.3402 H   0  0  0  0  0  0  0  0  0  0  0  0
    4.8178    1.9751    0.5477 H   0  0  0  0  0  0  0  0  0  0  0  0
    4.3753   -0.9660    1.2406 H   0  0  0  0  0  0  0  0  0  0  0  0
    5.7962    0.0266    1.6067 H   0  0  0  0  0  0  0  0  0  0  0  0
    4.2389    0.3913    2.3786 H   0  0  0  0  0  0  0  0  0  0  0  0
    4.6006   -0.5706   -1.6917 N   0  0  0  0  0  0  0  0  0  0  0  0
    5.1314   -1.0126   -2.9730 C   0  0  0  0  0  0  0  0  0  0  0  0
    3.7961   -1.0549   -1.2839 H   0  0  0  0  0  0  0  0  0  0  0  0
    4.9384   -0.2615   -3.7458 H   0  0  0  0  0  0  0  0  0  0  0  0
    6.2115   -1.1784   -2.9033 H   0  0  0  0  0  0  0  0  0  0  0  0
    4.6567   -1.9511   -3.2742 H   0  0  0  0  0  0  0  0  0  0  0  0
  1  2  2  0  0  0  0
  1  3  1  0  0  0  0
  1  7  1  0  0  0  0
  3  4  1  0  0  0  0
  3  5  1  0  0  0  0
  3  6  1  0  0  0  0
  7  8  1  0  0  0  0
  7 12  1  0  0  0  0
  8  9  1  0  0  0  0
  8 11  1  0  0  0  0
  8 13  1  0  0  0  0
  9 10  2  0  0  0  0
  9 17  1  0  0  0  0
 11 14  1  0  0  0  0
 11 15  1  0  0  0  0
 11 16  1  0  0  0  0
 17 18  1  0  0  0  0
 17 23  1  0  0  0  0
 18 19  1  0  0  0  0
 18 21  1  0  0  0  0
 18 24  1  0  0  0  0
 19 20  2  0  0  0  0
 19 31  1  0  0  0  0
 21 22  1  0  0  0  0
 21 25  1  0  0  0  0
 21 26  1  0  0  0  0
 22 23  1  0  0  0  0
 22 27  1  0  0  0  0
 22 28  1  0  0  0  0
 23 29  1  0  0  0  0
 23 30  1  0  0  0  0
 31 32  1  0  0  0  0
 31 36  1  0  0  0  0
 32 33  1  0  0  0  0
 32 35  1  0  0  0  0
 32 37  1  0  0  0  0
 33 34  2  0  0  0  0
 33 41  1  0  0  0  0
 35 38  1  0  0  0  0
 35 39  1  0  0  0  0
 35 40  1  0  0  0  0
 41 42  1  0  0  0  0
 41 43  1  0  0  0  0
 42 44  1  0  0  0  0
 42 45  1  0  0  0  0
 42 46  1  0  0  0  0
M  END
$$$$

  -OEChem-05262217223D

 46 46  0     1  0  0  0  0  0999 V2000
   -2.0971    0.5329    2.8916 C   0  0  0  0  0  0  0  0  0  0  0  0
   -1.3502   -0.2593    2.3407 O   0  0  0  0  0  0  0  0  0  0  0  0
   -2.3059    0.4680    4.3927 C   0  0  0  0  0  0  0  0  0  0  0  0
   -3.3571    0.2689    4.6148 H   0  0  0  0  0  0  0  0  0  0  0  0
   -1.6969   -0.3317    4.8239 H   0  0  0  0  0  0  0  0  0  0  0  0
   -2.0162    1.4163    4.8522 H   0  0  0  0  0  0  0  0  0  0  0  0
   -2.7273    1.5110    2.1507 N   0  0  0  0  0  0  0  0  0  0  0  0
   -2.4361    1.7606    0.7328 C   0  0  2  0  0  0  0  0  0  0  0  0
   -1.1750    2.6548    0.5668 C   0  0  0  0  0  0  0  0  0  0  0  0
   -1.2999    3.8529    0.8077 O   0  0  0  0  0  0  0  0  0  0  0  0
   -3.6853    2.4142    0.1267 C   0  0  0  0  0  0  0  0  0  0  0  0
   -3.1999    2.2439    2.6731 H   0  0  0  0  0  0  0  0  0  0  0  0
   -2.2900    0.8144    0.2087 H   0  0  0  0  0  0  0  0  0  0  0  0
   -3.9192    3.3548    0.6361 H   0  0  0  0  0  0  0  0  0  0  0  0
   -3.5289    2.6273   -0.9348 H   0  0  0  0  0  0  0  0  0  0  0  0
   -4.5460    1.7451    0.2215 H   0  0  0  0  0  0  0  0  0  0  0  0
    0.0947    2.1934    0.1336 N   0  0  0  0  0  0  0  0  0  0  0  0
    0.3831    0.7145   -0.2383 C   0  0  2  0  0  0  0  0  0  0  0  0
    1.8176    0.2121    0.0495 C   0  0  0  0  0  0  0  0  0  0  0  0
    2.1638   -0.9129   -0.2947 O   0  0  0  0  0  0  0  0  0  0  0  0
    0.6600    1.0080   -1.7255 C   0  0  0  0  0  0  0  0  0  0  0  0
   -0.1819    2.2236   -1.8465 C   0  0  0  0  0  0  0  0  0  0  0  0
    0.6455    3.1093   -1.0061 C   0  0  0  0  0  0  0  0  0  0  0  0
   -0.3907   -0.0269   -0.0293 H   0  0  0  0  0  0  0  0  0  0  0  0
    0.2763    0.1939   -2.3500 H   0  0  0  0  0  0  0  0  0  0  0  0
    1.7029    1.1835   -2.0335 H   0  0  0  0  0  0  0  0  0  0  0  0
   -0.1082    2.5911   -2.8751 H   0  0  0  0  0  0  0  0  0  0  0  0
   -1.2604    2.0814   -1.7051 H   0  0  0  0  0  0  0  0  0  0  0  0
    1.7323    3.0886   -1.1512 H   0  0  0  0  0  0  0  0  0  0  0  0
    0.2996    4.1486   -0.9991 H   0  0  0  0  0  0  0  0  0  0  0  0
    2.7337    1.0885    0.6088 N   0  0  0  0  0  0  0  0  0  0  0  0
    4.1505    0.8309    0.9333 C   0  0  2  0  0  0  0  0  0  0  0  0
    5.0619    0.6246   -0.2988 C   0  0  0  0  0  0  0  0  0  0  0  0
    6.0616    1.3179   -0.4347 O   0  0  0  0  0  0  0  0  0  0  0  0
    4.2872   -0.3326    1.9247 C   0  0  0  0  0  0  0  0  0  0  0  0
    2.3445    1.9923    0.8718 H   0  0  0  0  0  0  0  0  0  0  0  0
    4.5262    1.7252    1.4411 H   0  0  0  0  0  0  0  0  0  0  0  0
    4.0181   -1.2860    1.4605 H   0  0  0  0  0  0  0  0  0  0  0  0
    5.3213   -0.4056    2.2756 H   0  0  0  0  0  0  0  0  0  0  0  0
    3.6385   -0.1716    2.7910 H   0  0  0  0  0  0  0  0  0  0  0  0
    4.7577   -0.3134   -1.2648 N   0  0  0  0  0  0  0  0  0  0  0  0
    5.5416   -0.5300   -2.4723 C   0  0  0  0  0  0  0  0  0  0  0  0
    3.8975   -0.8484   -1.1176 H   0  0  0  0  0  0  0  0  0  0  0  0
    5.5768    0.3833   -3.0753 H   0  0  0  0  0  0  0  0  0  0  0  0
    6.5648   -0.8253   -2.2174 H   0  0  0  0  0  0  0  0  0  0  0  0
    5.0920   -1.3252   -3.0745 H   0  0  0  0  0  0  0  0  0  0  0  0
  1  2  2  0  0  0  0
  1  3  1  0  0  0  0
  1  7  1  0  0  0  0
  3  4  1  0  0  0  0
  3  5  1  0  0  0  0
  3  6  1  0  0  0  0
  7  8  1  0  0  0  0
  7 12  1  0  0  0  0
  8  9  1  0  0  0  0
  8 11  1  0  0  0  0
  8 13  1  0  0  0  0
  9 10  2  0  0  0  0
  9 17  1  0  0  0  0
 11 14  1  0  0  0  0
 11 15  1  0  0  0  0
 11 16  1  0  0  0  0
 17 18  1  0  0  0  0
 17 23  1  0  0  0  0
 18 19  1  0  0  0  0
 18 21  1  0  0  0  0
 18 24  1  0  0  0  0
 19 20  2  0  0  0  0
 19 31  1  0  0  0  0
 21 22  1  0  0  0  0
 21 25  1  0  0  0  0
 21 26  1  0  0  0  0
 22 23  1  0  0  0  0
 22 27  1  0  0  0  0
 22 28  1  0  0  0  0
 23 29  1  0  0  0  0
 23 30  1  0  0  0  0
 31 32  1  0  0  0  0
 31 36  1  0  0  0  0
 32 33  1  0  0  0  0
 32 35  1  0  0  0  0
 32 37  1  0  0  0  0
 33 34  2  0  0  0  0
 33 41  1  0  0  0  0
 35 38  1  0  0  0  0
 35 39  1  0  0  0  0
 35 40  1  0  0  0  0
 41 42  1  0  0  0  0
 41 43  1  0  0  0  0
 42 44  1  0  0  0  0
 42 45  1  0  0  0  0
 42 46  1  0  0  0  0
M  END
$$$$

  -OEChem-05262217223D

 46 46  0     1  0  0  0  0  0999 V2000
   -2.3001    0.5559    2.8271 C   0  0  0  0  0  0  0  0  0  0  0  0
   -1.5460   -0.2419    2.2938 O   0  0  0  0  0  0  0  0  0  0  0  0
   -2.5849    0.4605    4.3140 C   0  0  0  0  0  0  0  0  0  0  0  0
   -3.6634    0.4420    4.4893 H   0  0  0  0  0  0  0  0  0  0  0  0
   -2.1474   -0.4545    4.7235 H   0  0  0  0  0  0  0  0  0  0  0  0
   -2.1532    1.3209    4.8315 H   0  0  0  0  0  0  0  0  0  0  0  0
   -2.8614    1.5720    2.0819 N   0  0  0  0  0  0  0  0  0  0  0  0
   -2.4895    1.8457    0.6873 C   0  0  2  0  0  0  0  0  0  0  0  0
   -1.1831    2.6856    0.6087 C   0  0  0  0  0  0  0  0  0  0  0  0
   -1.2675    3.8800    0.8834 O   0  0  0  0  0  0  0  0  0  0  0  0
   -3.6762    2.5687    0.0370 C   0  0  0  0  0  0  0  0  0  0  0  0
   -3.3336    2.3082    2.6001 H   0  0  0  0  0  0  0  0  0  0  0  0
   -2.3612    0.9077    0.1448 H   0  0  0  0  0  0  0  0  0  0  0  0
   -3.8952    3.5063    0.5586 H   0  0  0  0  0  0  0  0  0  0  0  0
   -3.4553    2.7997   -1.0094 H   0  0  0  0  0  0  0  0  0  0  0  0
   -4.5686    1.9361    0.0699 H   0  0  0  0  0  0  0  0  0  0  0  0
    0.0824    2.1798    0.2132 N   0  0  0  0  0  0  0  0  0  0  0  0
    0.3123    0.7022   -0.1992 C   0  0  2  0  0  0  0  0  0  0  0  0
    1.7074    0.1199    0.1310 C   0  0  0  0  0  0  0  0  0  0  0  0
    2.0962   -0.9301   -0.3727 O   0  0  0  0  0  0  0  0  0  0  0  0
    0.6761    1.0499   -1.6576 C   0  0  0  0  0  0  0  0  0  0  0  0
   -0.0932    2.3134   -1.7726 C   0  0  0  0  0  0  0  0  0  0  0  0
    0.7406    3.1115   -0.8520 C   0  0  0  0  0  0  0  0  0  0  0  0
   -0.5051   -0.0072   -0.0581 H   0  0  0  0  0  0  0  0  0  0  0  0
    0.2832    0.2850   -2.3360 H   0  0  0  0  0  0  0  0  0  0  0  0
    1.7405    1.1819   -1.9100 H   0  0  0  0  0  0  0  0  0  0  0  0
    0.0555    2.7177   -2.7791 H   0  0  0  0  0  0  0  0  0  0  0  0
   -1.1838    2.2280   -1.6905 H   0  0  0  0  0  0  0  0  0  0  0  0
    1.8312    3.0334   -0.9409 H   0  0  0  0  0  0  0  0  0  0  0  0
    0.4540    4.1680   -0.8103 H   0  0  0  0  0  0  0  0  0  0  0  0
    2.5107    0.8127    1.0212 N   0  0  0  0  0  0  0  0  0  0  0  0
    3.8724    0.4621    1.4705 C   0  0  2  0  0  0  0  0  0  0  0  0
    4.9453    0.5268    0.3589 C   0  0  0  0  0  0  0  0  0  0  0  0
    5.9468    1.2115    0.5215 O   0  0  0  0  0  0  0  0  0  0  0  0
    3.8870   -0.9019    2.1737 C   0  0  0  0  0  0  0  0  0  0  0  0
    2.0966    1.6695    1.3848 H   0  0  0  0  0  0  0  0  0  0  0  0
    4.1622    1.2077    2.2181 H   0  0  0  0  0  0  0  0  0  0  0  0
    3.7073   -1.7160    1.4656 H   0  0  0  0  0  0  0  0  0  0  0  0
    4.8602   -1.0693    2.6454 H   0  0  0  0  0  0  0  0  0  0  0  0
    3.1154   -0.9378    2.9487 H   0  0  0  0  0  0  0  0  0  0  0  0
    4.7834   -0.1568   -0.8296 N   0  0  0  0  0  0  0  0  0  0  0  0
    5.7285   -0.1136   -1.9356 C   0  0  0  0  0  0  0  0  0  0  0  0
    3.9243   -0.7059   -0.9194 H   0  0  0  0  0  0  0  0  0  0  0  0
    5.8746    0.9173   -2.2741 H   0  0  0  0  0  0  0  0  0  0  0  0
    6.6950   -0.5255   -1.6282 H   0  0  0  0  0  0  0  0  0  0  0  0
    5.3518   -0.7037   -2.7766 H   0  0  0  0  0  0  0  0  0  0  0  0
  1  2  2  0  0  0  0
  1  3  1  0  0  0  0
  1  7  1  0  0  0  0
  3  4  1  0  0  0  0
  3  5  1  0  0  0  0
  3  6  1  0  0  0  0
  7  8  1  0  0  0  0
  7 12  1  0  0  0  0
  8  9  1  0  0  0  0
  8 11  1  0  0  0  0
  8 13  1  0  0  0  0
  9 10  2  0  0  0  0
  9 17  1  0  0  0  0
 11 14  1  0  0  0  0
 11 15  1  0  0  0  0
 11 16  1  0  0  0  0
 17 18  1  0  0  0  0
 17 23  1  0  0  0  0
 18 19  1  0  0  0  0
 18 21  1  0  0  0  0
 18 24  1  0  0  0  0
 19 20  2  0  0  0  0
 19 31  1  0  0  0  0
 21 22  1  0  0  0  0
 21 25  1  0  0  0  0
 21 26  1  0  0  0  0
 22 23  1  0  0  0  0
 22 27  1  0  0  0  0
 22 28  1  0  0  0  0
 23 29  1  0  0  0  0
 23 30  1  0  0  0  0
 31 32  1  0  0  0  0
 31 36  1  0  0  0  0
 32 33  1  0  0  0  0
 32 35  1  0  0  0  0
 32 37  1  0  0  0  0
 33 34  2  0  0  0  0
 33 41  1  0  0  0  0
 35 38  1  0  0  0  0
 35 39  1  0  0  0  0
 35 40  1  0  0  0  0
 41 42  1  0  0  0  0
 41 43  1  0  0  0  0
 42 44  1  0  0  0  0
 42 45  1  0  0  0  0
 42 46  1  0  0  0  0
M  END
$$$$

  -OEChem-05262217223D

 46 46  0     1  0  0  0  0  0999 V2000
   -2.4076    0.5470    2.7404 C   0  0  0  0  0  0  0  0  0  0  0  0
   -1.6395   -0.2207    2.1831 O   0  0  0  0  0  0  0  0  0  0  0  0
   -2.7166    0.3771    4.2156 C   0  0  0  0  0  0  0  0  0  0  0  0
   -3.7972    0.3202    4.3688 H   0  0  0  0  0  0  0  0  0  0  0  0
   -2.2600   -0.5426    4.5924 H   0  0  0  0  0  0  0  0  0  0  0  0
   -2.3185    1.2245    4.7795 H   0  0  0  0  0  0  0  0  0  0  0  0
   -2.9576    1.5991    2.0374 N   0  0  0  0  0  0  0  0  0  0  0  0
   -2.5473    1.9532    0.6719 C   0  0  2  0  0  0  0  0  0  0  0  0
   -1.2099    2.7471    0.6782 C   0  0  0  0  0  0  0  0  0  0  0  0
   -1.2581    3.9215    1.0350 O   0  0  0  0  0  0  0  0  0  0  0  0
   -3.6925    2.7643    0.0504 C   0  0  0  0  0  0  0  0  0  0  0  0
   -3.4394    2.3073    2.5848 H   0  0  0  0  0  0  0  0  0  0  0  0
   -2.4409    1.0491    0.0702 H   0  0  0  0  0  0  0  0  0  0  0  0
   -3.8899    3.6701    0.6330 H   0  0  0  0  0  0  0  0  0  0  0  0
   -3.4398    3.0605   -0.9722 H   0  0  0  0  0  0  0  0  0  0  0  0
   -4.6077    2.1649    0.0204 H   0  0  0  0  0  0  0  0  0  0  0  0
    0.0455    2.2211    0.2754 N   0  0  0  0  0  0  0  0  0  0  0  0
    0.2288    0.7662   -0.2319 C   0  0  2  0  0  0  0  0  0  0  0  0
    1.5952    0.1071    0.0885 C   0  0  0  0  0  0  0  0  0  0  0  0
    2.0415   -0.8308   -0.5686 O   0  0  0  0  0  0  0  0  0  0  0  0
    0.6310    1.2060   -1.6561 C   0  0  0  0  0  0  0  0  0  0  0  0
   -0.0879    2.5021   -1.6991 C   0  0  0  0  0  0  0  0  0  0  0  0
    0.7592    3.1989   -0.7093 C   0  0  0  0  0  0  0  0  0  0  0  0
   -0.6183    0.0822   -0.1570 H   0  0  0  0  0  0  0  0  0  0  0  0
    0.2250    0.5059   -2.3942 H   0  0  0  0  0  0  0  0  0  0  0  0
    1.7037    1.3168   -1.8804 H   0  0  0  0  0  0  0  0  0  0  0  0
    0.0966    2.9688   -2.6720 H   0  0  0  0  0  0  0  0  0  0  0  0
   -1.1821    2.4535   -1.6429 H   0  0  0  0  0  0  0  0  0  0  0  0
    1.8478    3.0840   -0.7832 H   0  0  0  0  0  0  0  0  0  0  0  0
    0.5133    4.2604   -0.5968 H   0  0  0  0  0  0  0  0  0  0  0  0
    2.2449    0.5149    1.2406 N   0  0  0  0  0  0  0  0  0  0  0  0
    3.4821   -0.0361    1.8293 C   0  0  2  0  0  0  0  0  0  0  0  0
    4.7546    0.1824    0.9788 C   0  0  0  0  0  0  0  0  0  0  0  0
    5.7459    0.6868    1.4901 O   0  0  0  0  0  0  0  0  0  0  0  0
    3.3110   -1.5183    2.1891 C   0  0  0  0  0  0  0  0  0  0  0  0
    1.7831    1.2743    1.7377 H   0  0  0  0  0  0  0  0  0  0  0  0
    3.6501    0.5015    2.7679 H   0  0  0  0  0  0  0  0  0  0  0  0
    3.2459   -2.1406    1.2918 H   0  0  0  0  0  0  0  0  0  0  0  0
    4.1665   -1.8610    2.7794 H   0  0  0  0  0  0  0  0  0  0  0  0
    2.4019   -1.6631    2.7808 H   0  0  0  0  0  0  0  0  0  0  0  0
    4.7968   -0.1819   -0.3521 N   0  0  0  0  0  0  0  0  0  0  0  0
    5.9606   -0.0119   -1.2099 C   0  0  0  0  0  0  0  0  0  0  0  0
    3.9472   -0.6104   -0.7289 H   0  0  0  0  0  0  0  0  0  0  0  0
    6.2454    1.0439   -1.2626 H   0  0  0  0  0  0  0  0  0  0  0  0
    6.8078   -0.5880   -0.8238 H   0  0  0  0  0  0  0  0  0  0  0  0
    5.7366   -0.3603   -2.2226 H   0  0  0  0  0  0  0  0  0  0  0  0
  1  2  2  0  0  0  0
  1  3  1  0  0  0  0
  1  7  1  0  0  0  0
  3  4  1  0  0  0  0
  3  5  1  0  0  0  0
  3  6  1  0  0  0  0
  7  8  1  0  0  0  0
  7 12  1  0  0  0  0
  8  9  1  0  0  0  0
  8 11  1  0  0  0  0
  8 13  1  0  0  0  0
  9 10  2  0  0  0  0
  9 17  1  0  0  0  0
 11 14  1  0  0  0  0
 11 15  1  0  0  0  0
 11 16  1  0  0  0  0
 17 18  1  0  0  0  0
 17 23  1  0  0  0  0
 18 19  1  0  0  0  0
 18 21  1  0  0  0  0
 18 24  1  0  0  0  0
 19 20  2  0  0  0  0
 19 31  1  0  0  0  0
 21 22  1  0  0  0  0
 21 25  1  0  0  0  0
 21 26  1  0  0  0  0
 22 23  1  0  0  0  0
 22 27  1  0  0  0  0
 22 28  1  0  0  0  0
 23 29  1  0  0  0  0
 23 30  1  0  0  0  0
 31 32  1  0  0  0  0
 31 36  1  0  0  0  0
 32 33  1  0  0  0  0
 32 35  1  0  0  0  0
 32 37  1  0  0  0  0
 33 34  2  0  0  0  0
 33 41  1  0  0  0  0
 35 38  1  0  0  0  0
 35 39  1  0  0  0  0
 35 40  1  0  0  0  0
 41 42  1  0  0  0  0
 41 43  1  0  0  0  0
 42 44  1  0  0  0  0
 42 45  1  0  0  0  0
 42 46  1  0  0  0  0
M  END
$$$$

  -OEChem-05262217223D

 46 46  0     1  0  0  0  0  0999 V2000
   -2.4189    0.5832    2.7303 C   0  0  0  0  0  0  0  0  0  0  0  0
   -1.5325   -0.0810    2.2159 O   0  0  0  0  0  0  0  0  0  0  0  0
   -2.8067    0.3432    4.1771 C   0  0  0  0  0  0  0  0  0  0  0  0
   -3.8797    0.1491    4.2495 H   0  0  0  0  0  0  0  0  0  0  0  0
   -2.2660   -0.5209    4.5738 H   0  0  0  0  0  0  0  0  0  0  0  0
   -2.5601    1.2198    4.7813 H   0  0  0  0  0  0  0  0  0  0  0  0
   -3.0405    1.5802    2.0063 N   0  0  0  0  0  0  0  0  0  0  0  0
   -2.5999    1.9960    0.6674 C   0  0  2  0  0  0  0  0  0  0  0  0
   -1.2574    2.7805    0.7339 C   0  0  0  0  0  0  0  0  0  0  0  0
   -1.3073    3.9386    1.1408 O   0  0  0  0  0  0  0  0  0  0  0  0
   -3.7293    2.8423    0.0635 C   0  0  0  0  0  0  0  0  0  0  0  0
   -3.6367    2.2164    2.5289 H   0  0  0  0  0  0  0  0  0  0  0  0
   -2.4884    1.1179    0.0302 H   0  0  0  0  0  0  0  0  0  0  0  0
   -3.9316    3.7218    0.6836 H   0  0  0  0  0  0  0  0  0  0  0  0
   -3.4577    3.1839   -0.9396 H   0  0  0  0  0  0  0  0  0  0  0  0
   -4.6473    2.2512   -0.0113 H   0  0  0  0  0  0  0  0  0  0  0  0
   -0.0001    2.2634    0.3223 N   0  0  0  0  0  0  0  0  0  0  0  0
    0.1756    0.8334   -0.2557 C   0  0  2  0  0  0  0  0  0  0  0  0
    1.5320    0.1424    0.0527 C   0  0  0  0  0  0  0  0  0  0  0  0
    2.0684   -0.6632   -0.7068 O   0  0  0  0  0  0  0  0  0  0  0  0
    0.5921    1.3490   -1.6523 C   0  0  0  0  0  0  0  0  0  0  0  0
   -0.1146    2.6511   -1.6370 C   0  0  0  0  0  0  0  0  0  0  0  0
    0.7317    3.2849   -0.6034 C   0  0  0  0  0  0  0  0  0  0  0  0
   -0.6779    0.1544   -0.2226 H   0  0  0  0  0  0  0  0  0  0  0  0
    0.1889    0.6915   -2.4299 H   0  0  0  0  0  0  0  0  0  0  0  0
    1.6663    1.4671   -1.8631 H   0  0  0  0  0  0  0  0  0  0  0  0
    0.0858    3.1657   -2.5821 H   0  0  0  0  0  0  0  0  0  0  0  0
   -1.2093    2.6096   -1.5955 H   0  0  0  0  0  0  0  0  0  0  0  0
    1.8197    3.1637   -0.6727 H   0  0  0  0  0  0  0  0  0  0  0  0
    0.4966    4.3415   -0.4354 H   0  0  0  0  0  0  0  0  0  0  0  0
    1.9840    0.2475    1.3562 N   0  0  0  0  0  0  0  0  0  0  0  0
    3.0645   -0.5164    2.0118 C   0  0  2  0  0  0  0  0  0  0  0  0
    4.4852   -0.2641    1.4542 C   0  0  0  0  0  0  0  0  0  0  0  0
    5.3960    0.0144    2.2236 O   0  0  0  0  0  0  0  0  0  0  0  0
    2.7390   -2.0154    2.0263 C   0  0  0  0  0  0  0  0  0  0  0  0
    1.4044    0.8382    1.9501 H   0  0  0  0  0  0  0  0  0  0  0  0
    3.0904   -0.1861    3.0554 H   0  0  0  0  0  0  0  0  0  0  0  0
    2.7884   -2.4418    1.0203 H   0  0  0  0  0  0  0  0  0  0  0  0
    3.4564   -2.5480    2.6585 H   0  0  0  0  0  0  0  0  0  0  0  0
    1.7342   -2.1815    2.4266 H   0  0  0  0  0  0  0  0  0  0  0  0
    4.7568   -0.3684    0.1048 N   0  0  0  0  0  0  0  0  0  0  0  0
    6.0678   -0.1463   -0.4872 C   0  0  0  0  0  0  0  0  0  0  0  0
    3.9627   -0.6037   -0.4960 H   0  0  0  0  0  0  0  0  0  0  0  0
    6.3858    0.8900   -0.3332 H   0  0  0  0  0  0  0  0  0  0  0  0
    6.8099   -0.8144   -0.0378 H   0  0  0  0  0  0  0  0  0  0  0  0
    6.0326   -0.3430   -1.5629 H   0  0  0  0  0  0  0  0  0  0  0  0
  1  2  2  0  0  0  0
  1  3  1  0  0  0  0
  1  7  1  0  0  0  0
  3  4  1  0  0  0  0
  3  5  1  0  0  0  0
  3  6  1  0  0  0  0
  7  8  1  0  0  0  0
  7 12  1  0  0  0  0
  8  9  1  0  0  0  0
  8 11  1  0  0  0  0
  8 13  1  0  0  0  0
  9 10  2  0  0  0  0
  9 17  1  0  0  0  0
 11 14  1  0  0  0  0
 11 15  1  0  0  0  0
 11 16  1  0  0  0  0
 17 18  1  0  0  0  0
 17 23  1  0  0  0  0
 18 19  1  0  0  0  0
 18 21  1  0  0  0  0
 18 24  1  0  0  0  0
 19 20  2  0  0  0  0
 19 31  1  0  0  0  0
 21 22  1  0  0  0  0
 21 25  1  0  0  0  0
 21 26  1  0  0  0  0
 22 23  1  0  0  0  0
 22 27  1  0  0  0  0
 22 28  1  0  0  0  0
 23 29  1  0  0  0  0
 23 30  1  0  0  0  0
 31 32  1  0  0  0  0
 31 36  1  0  0  0  0
 32 33  1  0  0  0  0
 32 35  1  0  0  0  0
 32 37  1  0  0  0  0
 33 34  2  0  0  0  0
 33 41  1  0  0  0  0
 35 38  1  0  0  0  0
 35 39  1  0  0  0  0
 35 40  1  0  0  0  0
 41 42  1  0  0  0  0
 41 43  1  0  0  0  0
 42 44  1  0  0  0  0
 42 45  1  0  0  0  0
 42 46  1  0  0  0  0
M  END
$$$$

  -OEChem-05262217223D

 46 46  0     1  0  0  0  0  0999 V2000
   -2.4171    0.6616    2.7082 C   0  0  0  0  0  0  0  0  0  0  0  0
   -1.4517    0.0681    2.2497 O   0  0  0  0  0  0  0  0  0  0  0  0
   -2.8472    0.4121    4.1411 C   0  0  0  0  0  0  0  0  0  0  0  0
   -3.8852    0.0718    4.1658 H   0  0  0  0  0  0  0  0  0  0  0  0
   -2.2148   -0.3547    4.5975 H   0  0  0  0  0  0  0  0  0  0  0  0
   -2.7584    1.3327    4.7234 H   0  0  0  0  0  0  0  0  0  0  0  0
   -3.0960    1.5889    1.9415 N   0  0  0  0  0  0  0  0  0  0  0  0
   -2.6388    2.0399    0.6184 C   0  0  2  0  0  0  0  0  0  0  0  0
   -1.2891    2.8094    0.7235 C   0  0  0  0  0  0  0  0  0  0  0  0
   -1.3363    3.9672    1.1321 O   0  0  0  0  0  0  0  0  0  0  0  0
   -3.7540    2.9155    0.0298 C   0  0  0  0  0  0  0  0  0  0  0  0
   -3.7648    2.1744    2.4341 H   0  0  0  0  0  0  0  0  0  0  0  0
   -2.5310    1.1788   -0.0417 H   0  0  0  0  0  0  0  0  0  0  0  0
   -3.9556    3.7762    0.6759 H   0  0  0  0  0  0  0  0  0  0  0  0
   -3.4672    3.2875   -0.9583 H   0  0  0  0  0  0  0  0  0  0  0  0
   -4.6764    2.3361   -0.0747 H   0  0  0  0  0  0  0  0  0  0  0  0
   -0.0321    2.2762    0.3307 N   0  0  0  0  0  0  0  0  0  0  0  0
    0.1261    0.8489   -0.2619 C   0  0  2  0  0  0  0  0  0  0  0  0
    1.4619    0.1197    0.0662 C   0  0  0  0  0  0  0  0  0  0  0  0
    2.1240   -0.5417   -0.7334 O   0  0  0  0  0  0  0  0  0  0  0  0
    0.5606    1.3824   -1.6489 C   0  0  0  0  0  0  0  0  0  0  0  0
   -0.1248    2.6944   -1.6272 C   0  0  0  0  0  0  0  0  0  0  0  0
    0.7243    3.2984   -0.5757 C   0  0  0  0  0  0  0  0  0  0  0  0
   -0.7413    0.1875   -0.2493 H   0  0  0  0  0  0  0  0  0  0  0  0
    0.1579    0.7397   -2.4388 H   0  0  0  0  0  0  0  0  0  0  0  0
    1.6357    1.4963   -1.8529 H   0  0  0  0  0  0  0  0  0  0  0  0
    0.0947    3.2171   -2.5636 H   0  0  0  0  0  0  0  0  0  0  0  0
   -1.2200    2.6711   -1.6005 H   0  0  0  0  0  0  0  0  0  0  0  0
    1.8108    3.1598   -0.6361 H   0  0  0  0  0  0  0  0  0  0  0  0
    0.5062    4.3565   -0.3940 H   0  0  0  0  0  0  0  0  0  0  0  0
    1.6869   -0.0641    1.4195 N   0  0  0  0  0  0  0  0  0  0  0  0
    2.5975   -1.0293    2.0705 C   0  0  2  0  0  0  0  0  0  0  0  0
    4.1104   -0.7988    1.8412 C   0  0  0  0  0  0  0  0  0  0  0  0
    4.8866   -0.9245    2.7802 O   0  0  0  0  0  0  0  0  0  0  0  0
    2.2065   -2.4695    1.7138 C   0  0  0  0  0  0  0  0  0  0  0  0
    0.9580    0.3418    2.0082 H   0  0  0  0  0  0  0  0  0  0  0  0
    2.4438   -0.9158    3.1487 H   0  0  0  0  0  0  0  0  0  0  0  0
    2.4239   -2.6914    0.6652 H   0  0  0  0  0  0  0  0  0  0  0  0
    2.7685   -3.1738    2.3351 H   0  0  0  0  0  0  0  0  0  0  0  0
    1.1382   -2.6273    1.8907 H   0  0  0  0  0  0  0  0  0  0  0  0
    4.6172   -0.5018    0.5920 N   0  0  0  0  0  0  0  0  0  0  0  0
    6.0367   -0.3709    0.2970 C   0  0  0  0  0  0  0  0  0  0  0  0
    3.9404   -0.5031   -0.1749 H   0  0  0  0  0  0  0  0  0  0  0  0
    6.4821    0.4235    0.9048 H   0  0  0  0  0  0  0  0  0  0  0  0
    6.5592   -1.3103    0.5056 H   0  0  0  0  0  0  0  0  0  0  0  0
    6.1807   -0.1203   -0.7583 H   0  0  0  0  0  0  0  0  0  0  0  0
  1  2  2  0  0  0  0
  1  3  1  0  0  0  0
  1  7  1  0  0  0  0
  3  4  1  0  0  0  0
  3  5  1  0  0  0  0
  3  6  1  0  0  0  0
  7  8  1  0  0  0  0
  7 12  1  0  0  0  0
  8  9  1  0  0  0  0
  8 11  1  0  0  0  0
  8 13  1  0  0  0  0
  9 10  2  0  0  0  0
  9 17  1  0  0  0  0
 11 14  1  0  0  0  0
 11 15  1  0  0  0  0
 11 16  1  0  0  0  0
 17 18  1  0  0  0  0
 17 23  1  0  0  0  0
 18 19  1  0  0  0  0
 18 21  1  0  0  0  0
 18 24  1  0  0  0  0
 19 20  2  0  0  0  0
 19 31  1  0  0  0  0
 21 22  1  0  0  0  0
 21 25  1  0  0  0  0
 21 26  1  0  0  0  0
 22 23  1  0  0  0  0
 22 27  1  0  0  0  0
 22 28  1  0  0  0  0
 23 29  1  0  0  0  0
 23 30  1  0  0  0  0
 31 32  1  0  0  0  0
 31 36  1  0  0  0  0
 32 33  1  0  0  0  0
 32 35  1  0  0  0  0
 32 37  1  0  0  0  0
 33 34  2  0  0  0  0
 33 41  1  0  0  0  0
 35 38  1  0  0  0  0
 35 39  1  0  0  0  0
 35 40  1  0  0  0  0
 41 42  1  0  0  0  0
 41 43  1  0  0  0  0
 42 44  1  0  0  0  0
 42 45  1  0  0  0  0
 42 46  1  0  0  0  0
M  END
$$$$

  -OEChem-05262217223D

 46 46  0     1  0  0  0  0  0999 V2000
   -2.4909    1.2473    2.7907 C   0  0  0  0  0  0  0  0  0  0  0  0
   -1.6227    0.5127    2.3368 O   0  0  0  0  0  0  0  0  0  0  0  0
   -2.9086    1.1036    4.2420 C   0  0  0  0  0  0  0  0  0  0  0  0
   -3.9718    0.8589    4.3023 H   0  0  0  0  0  0  0  0  0  0  0  0
   -2.3362    0.3059    4.7243 H   0  0  0  0  0  0  0  0  0  0  0  0
   -2.7255    2.0387    4.7774 H   0  0  0  0  0  0  0  0  0  0  0  0
   -3.0833    2.2261    2.0107 N   0  0  0  0  0  0  0  0  0  0  0  0
   -2.6420    2.6011    0.6538 C   0  0  2  0  0  0  0  0  0  0  0  0
   -1.1397    3.0477    0.6856 C   0  0  0  0  0  0  0  0  0  0  0  0
   -0.9844    4.1924    1.1035 O   0  0  0  0  0  0  0  0  0  0  0  0
   -3.1632    1.5277   -0.3229 C   0  0  0  0  0  0  0  0  0  0  0  0
   -3.6793    2.8841    2.5060 H   0  0  0  0  0  0  0  0  0  0  0  0
   -3.1778    3.5135    0.3710 H   0  0  0  0  0  0  0  0  0  0  0  0
   -4.2466    1.6378   -0.4306 H   0  0  0  0  0  0  0  0  0  0  0  0
   -2.7215    1.6256   -1.3157 H   0  0  0  0  0  0  0  0  0  0  0  0
   -2.9830    0.5168    0.0511 H   0  0  0  0  0  0  0  0  0  0  0  0
    0.0332    2.3379    0.3000 N   0  0  0  0  0  0  0  0  0  0  0  0
    0.0017    0.8997   -0.2670 C   0  0  2  0  0  0  0  0  0  0  0  0
    1.2286   -0.0006    0.0789 C   0  0  0  0  0  0  0  0  0  0  0  0
    1.9671   -0.5988   -0.7042 O   0  0  0  0  0  0  0  0  0  0  0  0
    0.5082    1.3764   -1.6537 C   0  0  0  0  0  0  0  0  0  0  0  0
    0.0111    2.7740   -1.6595 C   0  0  0  0  0  0  0  0  0  0  0  0
    0.9363    3.2436   -0.6031 C   0  0  0  0  0  0  0  0  0  0  0  0
   -0.9370    0.3570   -0.2520 H   0  0  0  0  0  0  0  0  0  0  0  0
    0.0243    0.7886   -2.4403 H   0  0  0  0  0  0  0  0  0  0  0  0
    1.5855    1.3509   -1.8707 H   0  0  0  0  0  0  0  0  0  0  0  0
    0.3175    3.2463   -2.5983 H   0  0  0  0  0  0  0  0  0  0  0  0
   -1.0693    2.9364   -1.6379 H   0  0  0  0  0  0  0  0  0  0  0  0
    1.9929    2.9526   -0.6554 H   0  0  0  0  0  0  0  0  0  0  0  0
    0.8749    4.3223   -0.4230 H   0  0  0  0  0  0  0  0  0  0  0  0
    1.2009   -0.4389    1.3925 N   0  0  0  0  0  0  0  0  0  0  0  0
    1.9511   -1.5524    2.0100 C   0  0  2  0  0  0  0  0  0  0  0  0
    3.4864   -1.3748    2.0760 C   0  0  0  0  0  0  0  0  0  0  0  0
    4.0864   -1.6949    3.0947 O   0  0  0  0  0  0  0  0  0  0  0  0
    1.5864   -2.8894    1.3515 C   0  0  0  0  0  0  0  0  0  0  0  0
    0.4429   -0.0312    1.9475 H   0  0  0  0  0  0  0  0  0  0  0  0
    1.6158   -1.6079    3.0509 H   0  0  0  0  0  0  0  0  0  0  0  0
    1.9866   -2.9537    0.3357 H   0  0  0  0  0  0  0  0  0  0  0  0
    2.0016   -3.7179    1.9338 H   0  0  0  0  0  0  0  0  0  0  0  0
    0.4996   -3.0066    1.3074 H   0  0  0  0  0  0  0  0  0  0  0  0
    4.2068   -0.9143    0.9922 N   0  0  0  0  0  0  0  0  0  0  0  0
    5.6596   -0.8287    0.9555 C   0  0  0  0  0  0  0  0  0  0  0  0
    3.6696   -0.7535    0.1367 H   0  0  0  0  0  0  0  0  0  0  0  0
    6.0228   -0.1528    1.7367 H   0  0  0  0  0  0  0  0  0  0  0  0
    6.1048   -1.8174    1.1081 H   0  0  0  0  0  0  0  0  0  0  0  0
    5.9899   -0.4451   -0.0146 H   0  0  0  0  0  0  0  0  0  0  0  0
  1  2  2  0  0  0  0
  1  3  1  0  0  0  0
  1  7  1  0  0  0  0
  3  4  1  0  0  0  0
  3  5  1  0  0  0  0
  3  6  1  0  0  0  0
  7  8  1  0  0  0  0
  7 12  1  0  0  0  0
  8  9  1  0  0  0  0
  8 11  1  0  0  0  0
  8 13  1  0  0  0  0
  9 10  2  0  0  0  0
  9 17  1  0  0  0  0
 11 14  1  0  0  0  0
 11 15  1  0  0  0  0
 11 16  1  0  0  0  0
 17 18  1  0  0  0  0
 17 23  1  0  0  0  0
 18 19  1  0  0  0  0
 18 21  1  0  0  0  0
 18 24  1  0  0  0  0
 19 20  2  0  0  0  0
 19 31  1  0  0  0  0
 21 22  1  0  0  0  0
 21 25  1  0  0  0  0
 21 26  1  0  0  0  0
 22 23  1  0  0  0  0
 22 27  1  0  0  0  0
 22 28  1  0  0  0  0
 23 29  1  0  0  0  0
 23 30  1  0  0  0  0
 31 32  1  0  0  0  0
 31 36  1  0  0  0  0
 32 33  1  0  0  0  0
 32 35  1  0  0  0  0
 32 37  1  0  0  0  0
 33 34  2  0  0  0  0
 33 41  1  0  0  0  0
 35 38  1  0  0  0  0
 35 39  1  0  0  0  0
 35 40  1  0  0  0  0
 41 42  1  0  0  0  0
 41 43  1  0  0  0  0
 42 44  1  0  0  0  0
 42 45  1  0  0  0  0
 42 46  1  0  0  0  0
M  END
$$$$

  -OEChem-05262217223D

 46 46  0     1  0  0  0  0  0999 V2000
   -2.5488    0.7461    2.5985 C   0  0  0  0  0  0  0  0  0  0  0  0
   -1.9383   -0.0969    1.9548 O   0  0  0  0  0  0  0  0  0  0  0  0
   -2.9017    0.4748    4.0488 C   0  0  0  0  0  0  0  0  0  0  0  0
   -3.9794    0.5781    4.1981 H   0  0  0  0  0  0  0  0  0  0  0  0
   -2.6040   -0.5402    4.3273 H   0  0  0  0  0  0  0  0  0  0  0  0
   -2.3816    1.1838    4.6979 H   0  0  0  0  0  0  0  0  0  0  0  0
   -2.8893    1.9594    2.0307 N   0  0  0  0  0  0  0  0  0  0  0  0
   -2.4133    2.4117    0.7141 C   0  0  2  0  0  0  0  0  0  0  0  0
   -0.8958    2.7583    0.7678 C   0  0  0  0  0  0  0  0  0  0  0  0
   -0.5818    3.8411    1.2561 O   0  0  0  0  0  0  0  0  0  0  0  0
   -3.2701    3.6210    0.3143 C   0  0  0  0  0  0  0  0  0  0  0  0
   -3.2279    2.6706    2.6736 H   0  0  0  0  0  0  0  0  0  0  0  0
   -2.5946    1.6327   -0.0277 H   0  0  0  0  0  0  0  0  0  0  0  0
   -3.1809    4.4229    1.0547 H   0  0  0  0  0  0  0  0  0  0  0  0
   -2.9515    4.0130   -0.6561 H   0  0  0  0  0  0  0  0  0  0  0  0
   -4.3229    3.3319    0.2405 H   0  0  0  0  0  0  0  0  0  0  0  0
    0.1251    1.9212    0.2441 N   0  0  0  0  0  0  0  0  0  0  0  0
   -0.1586    0.5646   -0.4539 C   0  0  2  0  0  0  0  0  0  0  0  0
    0.9674   -0.4960   -0.2273 C   0  0  0  0  0  0  0  0  0  0  0  0
    2.0415   -0.6381   -0.8090 O   0  0  0  0  0  0  0  0  0  0  0  0
    0.2431    1.0472   -1.8714 C   0  0  0  0  0  0  0  0  0  0  0  0
   -0.0664    2.4763   -1.6863 C   0  0  0  0  0  0  0  0  0  0  0  0
    1.0252    2.7649   -0.7235 C   0  0  0  0  0  0  0  0  0  0  0  0
   -1.1664    0.1543   -0.3819 H   0  0  0  0  0  0  0  0  0  0  0  0
   -0.4176    0.5921   -2.6159 H   0  0  0  0  0  0  0  0  0  0  0  0
    1.2637    0.9157   -2.2472 H   0  0  0  0  0  0  0  0  0  0  0  0
    0.1825    3.0010   -2.6143 H   0  0  0  0  0  0  0  0  0  0  0  0
   -1.1199    2.7306   -1.5383 H   0  0  0  0  0  0  0  0  0  0  0  0
    2.0190    2.3449   -0.9231 H   0  0  0  0  0  0  0  0  0  0  0  0
    1.1243    3.8287   -0.4818 H   0  0  0  0  0  0  0  0  0  0  0  0
    0.7402   -1.2679    0.9006 N   0  0  0  0  0  0  0  0  0  0  0  0
    1.5977   -2.3223    1.4812 C   0  0  2  0  0  0  0  0  0  0  0  0
    2.9161   -1.8224    2.1169 C   0  0  0  0  0  0  0  0  0  0  0  0
    3.2981   -2.3120    3.1726 O   0  0  0  0  0  0  0  0  0  0  0  0
    1.8730   -3.4395    0.4654 C   0  0  0  0  0  0  0  0  0  0  0  0
   -0.1102   -1.0229    1.4170 H   0  0  0  0  0  0  0  0  0  0  0  0
    1.0235   -2.7713    2.2981 H   0  0  0  0  0  0  0  0  0  0  0  0
    2.5494   -3.0991   -0.3238 H   0  0  0  0  0  0  0  0  0  0  0  0
    2.3386   -4.2937    0.9668 H   0  0  0  0  0  0  0  0  0  0  0  0
    0.9388   -3.7745    0.0054 H   0  0  0  0  0  0  0  0  0  0  0  0
    3.6903   -0.8584    1.5026 N   0  0  0  0  0  0  0  0  0  0  0  0
    4.9863   -0.4150    1.9964 C   0  0  0  0  0  0  0  0  0  0  0  0
    3.3783   -0.5642    0.5740 H   0  0  0  0  0  0  0  0  0  0  0  0
    5.3427    0.4362    1.4084 H   0  0  0  0  0  0  0  0  0  0  0  0
    4.9126   -0.1020    3.0433 H   0  0  0  0  0  0  0  0  0  0  0  0
    5.7203   -1.2235    1.9204 H   0  0  0  0  0  0  0  0  0  0  0  0
  1  2  2  0  0  0  0
  1  3  1  0  0  0  0
  1  7  1  0  0  0  0
  3  4  1  0  0  0  0
  3  5  1  0  0  0  0
  3  6  1  0  0  0  0
  7  8  1  0  0  0  0
  7 12  1  0  0  0  0
  8  9  1  0  0  0  0
  8 11  1  0  0  0  0
  8 13  1  0  0  0  0
  9 10  2  0  0  0  0
  9 17  1  0  0  0  0
 11 14  1  0  0  0  0
 11 15  1  0  0  0  0
 11 16  1  0  0  0  0
 17 18  1  0  0  0  0
 17 23  1  0  0  0  0
 18 19  1  0  0  0  0
 18 21  1  0  0  0  0
 18 24  1  0  0  0  0
 19 20  2  0  0  0  0
 19 31  1  0  0  0  0
 21 22  1  0  0  0  0
 21 25  1  0  0  0  0
 21 26  1  0  0  0  0
 22 23  1  0  0  0  0
 22 27  1  0  0  0  0
 22 28  1  0  0  0  0
 23 29  1  0  0  0  0
 23 30  1  0  0  0  0
 31 32  1  0  0  0  0
 31 36  1  0  0  0  0
 32 33  1  0  0  0  0
 32 35  1  0  0  0  0
 32 37  1  0  0  0  0
 33 34  2  0  0  0  0
 33 41  1  0  0  0  0
 35 38  1  0  0  0  0
 35 39  1  0  0  0  0
 35 40  1  0  0  0  0
 41 42  1  0  0  0  0
 41 43  1  0  0  0  0
 42 44  1  0  0  0  0
 42 45  1  0  0  0  0
 42 46  1  0  0  0  0
M  END
$$$$

  -OEChem-05262217223D

 46 46  0     1  0  0  0  0  0999 V2000
   -2.4678    0.6295    2.5844 C   0  0  0  0  0  0  0  0  0  0  0  0
   -2.0979   -0.2218    1.7870 O   0  0  0  0  0  0  0  0  0  0  0  0
   -2.7050    0.2500    4.0340 C   0  0  0  0  0  0  0  0  0  0  0  0
   -3.7405    0.4623    4.3108 H   0  0  0  0  0  0  0  0  0  0  0  0
   -2.5124   -0.8162    4.1834 H   0  0  0  0  0  0  0  0  0  0  0  0
   -2.0366    0.8209    4.6834 H   0  0  0  0  0  0  0  0  0  0  0  0
   -2.6477    1.9414    2.1874 N   0  0  0  0  0  0  0  0  0  0  0  0
   -2.2544    2.4693    0.8713 C   0  0  2  0  0  0  0  0  0  0  0  0
   -0.7163    2.7066    0.8133 C   0  0  0  0  0  0  0  0  0  0  0  0
   -0.2841    3.7395    1.3188 O   0  0  0  0  0  0  0  0  0  0  0  0
   -3.0495    3.7621    0.6439 C   0  0  0  0  0  0  0  0  0  0  0  0
   -2.7905    2.6161    2.9349 H   0  0  0  0  0  0  0  0  0  0  0  0
   -2.5568    1.7729    0.0882 H   0  0  0  0  0  0  0  0  0  0  0  0
   -2.8339    4.4958    1.4279 H   0  0  0  0  0  0  0  0  0  0  0  0
   -2.7893    4.2051   -0.3222 H   0  0  0  0  0  0  0  0  0  0  0  0
   -4.1237    3.5531    0.6504 H   0  0  0  0  0  0  0  0  0  0  0  0
    0.1934    1.8311    0.1654 N   0  0  0  0  0  0  0  0  0  0  0  0
   -0.2555    0.5418   -0.5669 C   0  0  2  0  0  0  0  0  0  0  0  0
    0.7766   -0.6244   -0.5100 C   0  0  0  0  0  0  0  0  0  0  0  0
    1.9495   -0.5921   -0.8794 O   0  0  0  0  0  0  0  0  0  0  0  0
    0.0896    1.0523   -1.9864 C   0  0  0  0  0  0  0  0  0  0  0  0
   -0.0794    2.4950   -1.7145 C   0  0  0  0  0  0  0  0  0  0  0  0
    1.0941    2.6471   -0.8232 C   0  0  0  0  0  0  0  0  0  0  0  0
   -1.2898    0.2205   -0.4515 H   0  0  0  0  0  0  0  0  0  0  0  0
   -0.6602    0.6965   -2.7002 H   0  0  0  0  0  0  0  0  0  0  0  0
    1.0660    0.8349   -2.4357 H   0  0  0  0  0  0  0  0  0  0  0  0
    0.1480    3.0430   -2.6343 H   0  0  0  0  0  0  0  0  0  0  0  0
   -1.0937    2.8307   -1.4745 H   0  0  0  0  0  0  0  0  0  0  0  0
    2.0325    2.1595   -1.1148 H   0  0  0  0  0  0  0  0  0  0  0  0
    1.2974    3.6857   -0.5407 H   0  0  0  0  0  0  0  0  0  0  0  0
    0.4058   -1.6286    0.3710 N   0  0  0  0  0  0  0  0  0  0  0  0
    1.2344   -2.7383    0.8878 C   0  0  2  0  0  0  0  0  0  0  0  0
    2.3479   -2.3114    1.8729 C   0  0  0  0  0  0  0  0  0  0  0  0
    2.5353   -2.9657    2.8910 O   0  0  0  0  0  0  0  0  0  0  0  0
    1.8094   -3.5956   -0.2485 C   0  0  0  0  0  0  0  0  0  0  0  0
   -0.4753   -1.4513    0.8610 H   0  0  0  0  0  0  0  0  0  0  0  0
    0.5602   -3.3854    1.4582 H   0  0  0  0  0  0  0  0  0  0  0  0
    2.5859   -3.0575   -0.7994 H   0  0  0  0  0  0  0  0  0  0  0  0
    2.2558   -4.5065    0.1623 H   0  0  0  0  0  0  0  0  0  0  0  0
    1.0184   -3.8818   -0.9481 H   0  0  0  0  0  0  0  0  0  0  0  0
    3.1435   -1.2111    1.6250 N   0  0  0  0  0  0  0  0  0  0  0  0
    4.2243   -0.7698    2.4942 C   0  0  0  0  0  0  0  0  0  0  0  0
    2.9867   -0.7359    0.7325 H   0  0  0  0  0  0  0  0  0  0  0  0
    4.6683    0.1509    2.1045 H   0  0  0  0  0  0  0  0  0  0  0  0
    3.8471   -0.5707    3.5025 H   0  0  0  0  0  0  0  0  0  0  0  0
    5.0050   -1.5349    2.5530 H   0  0  0  0  0  0  0  0  0  0  0  0
  1  2  2  0  0  0  0
  1  3  1  0  0  0  0
  1  7  1  0  0  0  0
  3  4  1  0  0  0  0
  3  5  1  0  0  0  0
  3  6  1  0  0  0  0
  7  8  1  0  0  0  0
  7 12  1  0  0  0  0
  8  9  1  0  0  0  0
  8 11  1  0  0  0  0
  8 13  1  0  0  0  0
  9 10  2  0  0  0  0
  9 17  1  0  0  0  0
 11 14  1  0  0  0  0
 11 15  1  0  0  0  0
 11 16  1  0  0  0  0
 17 18  1  0  0  0  0
 17 23  1  0  0  0  0
 18 19  1  0  0  0  0
 18 21  1  0  0  0  0
 18 24  1  0  0  0  0
 19 20  2  0  0  0  0
 19 31  1  0  0  0  0
 21 22  1  0  0  0  0
 21 25  1  0  0  0  0
 21 26  1  0  0  0  0
 22 23  1  0  0  0  0
 22 27  1  0  0  0  0
 22 28  1  0  0  0  0
 23 29  1  0  0  0  0
 23 30  1  0  0  0  0
 31 32  1  0  0  0  0
 31 36  1  0  0  0  0
 32 33  1  0  0  0  0
 32 35  1  0  0  0  0
 32 37  1  0  0  0  0
 33 34  2  0  0  0  0
 33 41  1  0  0  0  0
 35 38  1  0  0  0  0
 35 39  1  0  0  0  0
 35 40  1  0  0  0  0
 41 42  1  0  0  0  0
 41 43  1  0  0  0  0
 42 44  1  0  0  0  0
 42 45  1  0  0  0  0
 42 46  1  0  0  0  0
M  END
$$$$

  -OEChem-05262217223D

 46 46  0     1  0  0  0  0  0999 V2000
   -2.4482    0.6576    2.5469 C   0  0  0  0  0  0  0  0  0  0  0  0
   -2.2532   -0.1916    1.6885 O   0  0  0  0  0  0  0  0  0  0  0  0
   -2.6018    0.2403    3.9973 C   0  0  0  0  0  0  0  0  0  0  0  0
   -3.6050    0.4872    4.3530 H   0  0  0  0  0  0  0  0  0  0  0  0
   -2.4474   -0.8377    4.0993 H   0  0  0  0  0  0  0  0  0  0  0  0
   -1.8654    0.7591    4.6163 H   0  0  0  0  0  0  0  0  0  0  0  0
   -2.5010    1.9980    2.2147 N   0  0  0  0  0  0  0  0  0  0  0  0
   -2.1503    2.5391    0.8918 C   0  0  2  0  0  0  0  0  0  0  0  0
   -0.6095    2.7287    0.7665 C   0  0  0  0  0  0  0  0  0  0  0  0
   -0.1246    3.7484    1.2500 O   0  0  0  0  0  0  0  0  0  0  0  0
   -2.9122    3.8607    0.7230 C   0  0  0  0  0  0  0  0  0  0  0  0
   -2.5117    2.6503    2.9950 H   0  0  0  0  0  0  0  0  0  0  0  0
   -2.5104    1.8720    0.1072 H   0  0  0  0  0  0  0  0  0  0  0  0
   -2.6439    4.5705    1.5126 H   0  0  0  0  0  0  0  0  0  0  0  0
   -2.6748    4.3158   -0.2435 H   0  0  0  0  0  0  0  0  0  0  0  0
   -3.9913    3.6846    0.7671 H   0  0  0  0  0  0  0  0  0  0  0  0
    0.2471    1.8242    0.0879 N   0  0  0  0  0  0  0  0  0  0  0  0
   -0.2757    0.5462   -0.6121 C   0  0  2  0  0  0  0  0  0  0  0  0
    0.6909   -0.6717   -0.6166 C   0  0  0  0  0  0  0  0  0  0  0  0
    1.9008   -0.6119   -0.8274 O   0  0  0  0  0  0  0  0  0  0  0  0
    0.0580    1.0298   -2.0421 C   0  0  0  0  0  0  0  0  0  0  0  0
   -0.0422    2.4848   -1.7843 C   0  0  0  0  0  0  0  0  0  0  0  0
    1.1566    2.5962   -0.9240 C   0  0  0  0  0  0  0  0  0  0  0  0
   -1.3211    0.2780   -0.4730 H   0  0  0  0  0  0  0  0  0  0  0  0
   -0.7210    0.7016   -2.7378 H   0  0  0  0  0  0  0  0  0  0  0  0
    1.0170    0.7561   -2.5018 H   0  0  0  0  0  0  0  0  0  0  0  0
    0.1836    3.0138   -2.7158 H   0  0  0  0  0  0  0  0  0  0  0  0
   -1.0337    2.8671   -1.5172 H   0  0  0  0  0  0  0  0  0  0  0  0
    2.0673    2.0702   -1.2358 H   0  0  0  0  0  0  0  0  0  0  0  0
    1.4067    3.6275   -0.6523 H   0  0  0  0  0  0  0  0  0  0  0  0
    0.1887   -1.8024    0.0089 N   0  0  0  0  0  0  0  0  0  0  0  0
    0.9287   -3.0187    0.4074 C   0  0  2  0  0  0  0  0  0  0  0  0
    1.9167   -2.8230    1.5819 C   0  0  0  0  0  0  0  0  0  0  0  0
    1.9582   -3.6560    2.4785 O   0  0  0  0  0  0  0  0  0  0  0  0
    1.6282   -3.6729   -0.7921 C   0  0  0  0  0  0  0  0  0  0  0  0
   -0.7329   -1.6737    0.4309 H   0  0  0  0  0  0  0  0  0  0  0  0
    0.1792   -3.7342    0.7613 H   0  0  0  0  0  0  0  0  0  0  0  0
    2.4727   -3.0701   -1.1376 H   0  0  0  0  0  0  0  0  0  0  0  0
    2.0097   -4.6588   -0.5092 H   0  0  0  0  0  0  0  0  0  0  0  0
    0.9250   -3.7978   -1.6208 H   0  0  0  0  0  0  0  0  0  0  0  0
    2.7590   -1.7308    1.6393 N   0  0  0  0  0  0  0  0  0  0  0  0
    3.7337   -1.5032    2.6961 C   0  0  0  0  0  0  0  0  0  0  0  0
    2.7303   -1.0984    0.8352 H   0  0  0  0  0  0  0  0  0  0  0  0
    3.2359   -1.4448    3.6695 H   0  0  0  0  0  0  0  0  0  0  0  0
    4.4680   -2.3150    2.7222 H   0  0  0  0  0  0  0  0  0  0  0  0
    4.2633   -0.5616    2.5225 H   0  0  0  0  0  0  0  0  0  0  0  0
  1  2  2  0  0  0  0
  1  3  1  0  0  0  0
  1  7  1  0  0  0  0
  3  4  1  0  0  0  0
  3  5  1  0  0  0  0
  3  6  1  0  0  0  0
  7  8  1  0  0  0  0
  7 12  1  0  0  0  0
  8  9  1  0  0  0  0
  8 11  1  0  0  0  0
  8 13  1  0  0  0  0
  9 10  2  0  0  0  0
  9 17  1  0  0  0  0
 11 14  1  0  0  0  0
 11 15  1  0  0  0  0
 11 16  1  0  0  0  0
 17 18  1  0  0  0  0
 17 23  1  0  0  0  0
 18 19  1  0  0  0  0
 18 21  1  0  0  0  0
 18 24  1  0  0  0  0
 19 20  2  0  0  0  0
 19 31  1  0  0  0  0
 21 22  1  0  0  0  0
 21 25  1  0  0  0  0
 21 26  1  0  0  0  0
 22 23  1  0  0  0  0
 22 27  1  0  0  0  0
 22 28  1  0  0  0  0
 23 29  1  0  0  0  0
 23 30  1  0  0  0  0
 31 32  1  0  0  0  0
 31 36  1  0  0  0  0
 32 33  1  0  0  0  0
 32 35  1  0  0  0  0
 32 37  1  0  0  0  0
 33 34  2  0  0  0  0
 33 41  1  0  0  0  0
 35 38  1  0  0  0  0
 35 39  1  0  0  0  0
 35 40  1  0  0  0  0
 41 42  1  0  0  0  0
 41 43  1  0  0  0  0
 42 44  1  0  0  0  0
 42 45  1  0  0  0  0
 42 46  1  0  0  0  0
M  END
$$$$

  -OEChem-05262217223D

 46 46  0     1  0  0  0  0  0999 V2000
   -2.4033    0.7213    2.6545 C   0  0  0  0  0  0  0  0  0  0  0  0
   -2.3892   -0.1135    1.7613 O   0  0  0  0  0  0  0  0  0  0  0  0
   -2.4856    0.2780    4.1029 C   0  0  0  0  0  0  0  0  0  0  0  0
   -1.5545    0.5212    4.6213 H   0  0  0  0  0  0  0  0  0  0  0  0
   -3.3155    0.7840    4.6025 H   0  0  0  0  0  0  0  0  0  0  0  0
   -2.6482   -0.8021    4.1595 H   0  0  0  0  0  0  0  0  0  0  0  0
   -2.3213    2.0678    2.3589 N   0  0  0  0  0  0  0  0  0  0  0  0
   -2.0548    2.6101    1.0183 C   0  0  2  0  0  0  0  0  0  0  0  0
   -0.5249    2.7788    0.7793 C   0  0  0  0  0  0  0  0  0  0  0  0
    0.0035    3.8006    1.2103 O   0  0  0  0  0  0  0  0  0  0  0  0
   -2.8097    3.9418    0.9093 C   0  0  0  0  0  0  0  0  0  0  0  0
   -2.1939    2.6950    3.1494 H   0  0  0  0  0  0  0  0  0  0  0  0
   -2.4783    1.9568    0.2543 H   0  0  0  0  0  0  0  0  0  0  0  0
   -2.4804    4.6428    1.6835 H   0  0  0  0  0  0  0  0  0  0  0  0
   -2.6323    4.3999   -0.0687 H   0  0  0  0  0  0  0  0  0  0  0  0
   -3.8857    3.7781    1.0244 H   0  0  0  0  0  0  0  0  0  0  0  0
    0.2728    1.8554    0.0551 N   0  0  0  0  0  0  0  0  0  0  0  0
   -0.3107    0.5721   -0.5846 C   0  0  2  0  0  0  0  0  0  0  0  0
    0.6131   -0.6752   -0.6629 C   0  0  0  0  0  0  0  0  0  0  0  0
    1.8327   -0.6152   -0.8024 O   0  0  0  0  0  0  0  0  0  0  0  0
   -0.0498    1.0241   -2.0379 C   0  0  0  0  0  0  0  0  0  0  0  0
   -0.1116    2.4872   -1.8047 C   0  0  0  0  0  0  0  0  0  0  0  0
    1.1346    2.5963   -1.0169 C   0  0  0  0  0  0  0  0  0  0  0  0
   -1.3505    0.3342   -0.3722 H   0  0  0  0  0  0  0  0  0  0  0  0
   -0.8690    0.6949   -2.6852 H   0  0  0  0  0  0  0  0  0  0  0  0
    0.8823    0.7215   -2.5362 H   0  0  0  0  0  0  0  0  0  0  0  0
    0.0665    2.9936   -2.7588 H   0  0  0  0  0  0  0  0  0  0  0  0
   -1.0791    2.8918   -1.4840 H   0  0  0  0  0  0  0  0  0  0  0  0
    2.0191    2.0522   -1.3696 H   0  0  0  0  0  0  0  0  0  0  0  0
    1.4128    3.6283   -0.7776 H   0  0  0  0  0  0  0  0  0  0  0  0
    0.0452   -1.8846   -0.2948 N   0  0  0  0  0  0  0  0  0  0  0  0
    0.7162   -3.1963   -0.1700 C   0  0  2  0  0  0  0  0  0  0  0  0
    1.6982   -3.3276    1.0183 C   0  0  0  0  0  0  0  0  0  0  0  0
    1.7122   -4.3634    1.6712 O   0  0  0  0  0  0  0  0  0  0  0  0
    1.3974   -3.6015   -1.4847 C   0  0  0  0  0  0  0  0  0  0  0  0
   -0.9086   -1.8210    0.0596 H   0  0  0  0  0  0  0  0  0  0  0  0
   -0.0738   -3.9317    0.0140 H   0  0  0  0  0  0  0  0  0  0  0  0
    2.2779   -2.9832   -1.6831 H   0  0  0  0  0  0  0  0  0  0  0  0
    1.7214   -4.6458   -1.4300 H   0  0  0  0  0  0  0  0  0  0  0  0
    0.7011   -3.4987   -2.3223 H   0  0  0  0  0  0  0  0  0  0  0  0
    2.5736   -2.3129    1.3493 N   0  0  0  0  0  0  0  0  0  0  0  0
    3.5752   -2.4122    2.4014 C   0  0  0  0  0  0  0  0  0  0  0  0
    2.5897   -1.5108    0.7138 H   0  0  0  0  0  0  0  0  0  0  0  0
    3.1041   -2.6647    3.3570 H   0  0  0  0  0  0  0  0  0  0  0  0
    4.3115   -3.1842    2.1562 H   0  0  0  0  0  0  0  0  0  0  0  0
    4.0964   -1.4572    2.5166 H   0  0  0  0  0  0  0  0  0  0  0  0
  1  2  2  0  0  0  0
  1  3  1  0  0  0  0
  1  7  1  0  0  0  0
  3  4  1  0  0  0  0
  3  5  1  0  0  0  0
  3  6  1  0  0  0  0
  7  8  1  0  0  0  0
  7 12  1  0  0  0  0
  8  9  1  0  0  0  0
  8 11  1  0  0  0  0
  8 13  1  0  0  0  0
  9 10  2  0  0  0  0
  9 17  1  0  0  0  0
 11 14  1  0  0  0  0
 11 15  1  0  0  0  0
 11 16  1  0  0  0  0
 17 18  1  0  0  0  0
 17 23  1  0  0  0  0
 18 19  1  0  0  0  0
 18 21  1  0  0  0  0
 18 24  1  0  0  0  0
 19 20  2  0  0  0  0
 19 31  1  0  0  0  0
 21 22  1  0  0  0  0
 21 25  1  0  0  0  0
 21 26  1  0  0  0  0
 22 23  1  0  0  0  0
 22 27  1  0  0  0  0
 22 28  1  0  0  0  0
 23 29  1  0  0  0  0
 23 30  1  0  0  0  0
 31 32  1  0  0  0  0
 31 36  1  0  0  0  0
 32 33  1  0  0  0  0
 32 35  1  0  0  0  0
 32 37  1  0  0  0  0
 33 34  2  0  0  0  0
 33 41  1  0  0  0  0
 35 38  1  0  0  0  0
 35 39  1  0  0  0  0
 35 40  1  0  0  0  0
 41 42  1  0  0  0  0
 41 43  1  0  0  0  0
 42 44  1  0  0  0  0
 42 45  1  0  0  0  0
 42 46  1  0  0  0  0
M  END
$$$$

  -OEChem-05262217223D

 46 46  0     1  0  0  0  0  0999 V2000
   -3.1590    1.9005    3.6750 C   0  0  0  0  0  0  0  0  0  0  0  0
   -3.7781    0.9114    3.3141 O   0  0  0  0  0  0  0  0  0  0  0  0
   -3.3638    2.4626    5.0699 C   0  0  0  0  0  0  0  0  0  0  0  0
   -3.6893    3.5040    5.0097 H   0  0  0  0  0  0  0  0  0  0  0  0
   -4.1265    1.8861    5.6007 H   0  0  0  0  0  0  0  0  0  0  0  0
   -2.4289    2.4127    5.6336 H   0  0  0  0  0  0  0  0  0  0  0  0
   -2.2675    2.5056    2.8136 N   0  0  0  0  0  0  0  0  0  0  0  0
   -1.8677    1.9582    1.5087 C   0  0  2  0  0  0  0  0  0  0  0  0
   -0.3572    2.2494    1.2359 C   0  0  0  0  0  0  0  0  0  0  0  0
    0.1211    3.2315    1.8013 O   0  0  0  0  0  0  0  0  0  0  0  0
   -2.8535    2.5259    0.4781 C   0  0  0  0  0  0  0  0  0  0  0  0
   -1.6868    3.2543    3.1914 H   0  0  0  0  0  0  0  0  0  0  0  0
   -1.9803    0.8706    1.5415 H   0  0  0  0  0  0  0  0  0  0  0  0
   -2.6878    3.5989    0.3396 H   0  0  0  0  0  0  0  0  0  0  0  0
   -2.7478    2.0182   -0.4839 H   0  0  0  0  0  0  0  0  0  0  0  0
   -3.8840    2.3772    0.8165 H   0  0  0  0  0  0  0  0  0  0  0  0
    0.4524    1.5394    0.3096 N   0  0  0  0  0  0  0  0  0  0  0  0
   -0.1360    0.3910   -0.5349 C   0  0  2  0  0  0  0  0  0  0  0  0
    0.7646   -0.8120   -0.9407 C   0  0  0  0  0  0  0  0  0  0  0  0
    1.9903   -0.7555   -0.9005 O   0  0  0  0  0  0  0  0  0  0  0  0
    0.1618    1.1381   -1.8595 C   0  0  0  0  0  0  0  0  0  0  0  0
    0.1187    2.5455   -1.3729 C   0  0  0  0  0  0  0  0  0  0  0  0
    1.3495    2.4689   -0.5659 C   0  0  0  0  0  0  0  0  0  0  0  0
   -1.1836    0.1361   -0.3622 H   0  0  0  0  0  0  0  0  0  0  0  0
   -0.6481    0.9560   -2.5734 H   0  0  0  0  0  0  0  0  0  0  0  0
    1.0976    0.9287   -2.4011 H   0  0  0  0  0  0  0  0  0  0  0  0
    0.3237    3.2064   -2.2210 H   0  0  0  0  0  0  0  0  0  0  0  0
   -0.8206    2.9310   -0.9795 H   0  0  0  0  0  0  0  0  0  0  0  0
    2.2348    1.9942   -1.0061 H   0  0  0  0  0  0  0  0  0  0  0  0
    1.6349    3.4235   -0.1114 H   0  0  0  0  0  0  0  0  0  0  0  0
    0.1633   -2.0503   -1.1135 N   0  0  0  0  0  0  0  0  0  0  0  0
    0.8272   -3.3355   -1.4239 C   0  0  2  0  0  0  0  0  0  0  0  0
    1.6796   -3.9350   -0.2798 C   0  0  0  0  0  0  0  0  0  0  0  0
    1.5302   -5.1115    0.0226 O   0  0  0  0  0  0  0  0  0  0  0  0
    1.6443   -3.2392   -2.7198 C   0  0  0  0  0  0  0  0  0  0  0  0
   -0.8463   -2.0754   -1.0018 H   0  0  0  0  0  0  0  0  0  0  0  0
    0.0286   -4.0612   -1.6105 H   0  0  0  0  0  0  0  0  0  0  0  0
    2.5351   -2.6191   -2.5833 H   0  0  0  0  0  0  0  0  0  0  0  0
    1.9704   -4.2368   -3.0310 H   0  0  0  0  0  0  0  0  0  0  0  0
    1.0374   -2.8083   -3.5214 H   0  0  0  0  0  0  0  0  0  0  0  0
    2.6143   -3.1792    0.3984 N   0  0  0  0  0  0  0  0  0  0  0  0
    3.4644   -3.6900    1.4643 C   0  0  0  0  0  0  0  0  0  0  0  0
    2.7119   -2.2051    0.0995 H   0  0  0  0  0  0  0  0  0  0  0  0
    2.8577   -4.0137    2.3161 H   0  0  0  0  0  0  0  0  0  0  0  0
    4.0558   -4.5398    1.1083 H   0  0  0  0  0  0  0  0  0  0  0  0
    4.1517   -2.9094    1.8044 H   0  0  0  0  0  0  0  0  0  0  0  0
  1  2  2  0  0  0  0
  1  3  1  0  0  0  0
  1  7  1  0  0  0  0
  3  4  1  0  0  0  0
  3  5  1  0  0  0  0
  3  6  1  0  0  0  0
  7  8  1  0  0  0  0
  7 12  1  0  0  0  0
  8  9  1  0  0  0  0
  8 11  1  0  0  0  0
  8 13  1  0  0  0  0
  9 10  2  0  0  0  0
  9 17  1  0  0  0  0
 11 14  1  0  0  0  0
 11 15  1  0  0  0  0
 11 16  1  0  0  0  0
 17 18  1  0  0  0  0
 17 23  1  0  0  0  0
 18 19  1  0  0  0  0
 18 21  1  0  0  0  0
 18 24  1  0  0  0  0
 19 20  2  0  0  0  0
 19 31  1  0  0  0  0
 21 22  1  0  0  0  0
 21 25  1  0  0  0  0
 21 26  1  0  0  0  0
 22 23  1  0  0  0  0
 22 27  1  0  0  0  0
 22 28  1  0  0  0  0
 23 29  1  0  0  0  0
 23 30  1  0  0  0  0
 31 32  1  0  0  0  0
 31 36  1  0  0  0  0
 32 33  1  0  0  0  0
 32 35  1  0  0  0  0
 32 37  1  0  0  0  0
 33 34  2  0  0  0  0
 33 41  1  0  0  0  0
 35 38  1  0  0  0  0
 35 39  1  0  0  0  0
 35 40  1  0  0  0  0
 41 42  1  0  0  0  0
 41 43  1  0  0  0  0
 42 44  1  0  0  0  0
 42 45  1  0  0  0  0
 42 46  1  0  0  0  0
M  END
$$$$

  -OEChem-05262217223D

 46 46  0     1  0  0  0  0  0999 V2000
   -2.9347    1.7655    3.7410 C   0  0  0  0  0  0  0  0  0  0  0  0
   -3.5358    0.7575    3.4033 O   0  0  0  0  0  0  0  0  0  0  0  0
   -3.0974    2.3154    5.1458 C   0  0  0  0  0  0  0  0  0  0  0  0
   -3.4822    3.3374    5.1047 H   0  0  0  0  0  0  0  0  0  0  0  0
   -3.7983    1.6976    5.7145 H   0  0  0  0  0  0  0  0  0  0  0  0
   -2.1332    2.3170    5.6598 H   0  0  0  0  0  0  0  0  0  0  0  0
   -2.1074    2.4063    2.8424 N   0  0  0  0  0  0  0  0  0  0  0  0
   -1.7613    1.8862    1.5115 C   0  0  2  0  0  0  0  0  0  0  0  0
   -0.2762    2.2185    1.1643 C   0  0  0  0  0  0  0  0  0  0  0  0
    0.2004    3.2169    1.7022 O   0  0  0  0  0  0  0  0  0  0  0  0
   -2.8071    2.4508    0.5409 C   0  0  0  0  0  0  0  0  0  0  0  0
   -1.5410    3.1786    3.1932 H   0  0  0  0  0  0  0  0  0  0  0  0
   -1.8485    0.7962    1.5312 H   0  0  0  0  0  0  0  0  0  0  0  0
   -2.6732    3.5305    0.4185 H   0  0  0  0  0  0  0  0  0  0  0  0
   -2.7354    1.9668   -0.4361 H   0  0  0  0  0  0  0  0  0  0  0  0
   -3.8165    2.2699    0.9247 H   0  0  0  0  0  0  0  0  0  0  0  0
    0.5004    1.5317    0.1945 N   0  0  0  0  0  0  0  0  0  0  0  0
   -0.1027    0.3710   -0.6223 C   0  0  2  0  0  0  0  0  0  0  0  0
    0.7902   -0.8119   -1.0880 C   0  0  0  0  0  0  0  0  0  0  0  0
    2.0060   -0.7966   -0.9294 O   0  0  0  0  0  0  0  0  0  0  0  0
    0.1332    1.1248   -1.9544 C   0  0  0  0  0  0  0  0  0  0  0  0
    0.0862    2.5340   -1.4679 C   0  0  0  0  0  0  0  0  0  0  0  0
    1.3483    2.4759   -0.7099 C   0  0  0  0  0  0  0  0  0  0  0  0
   -1.1383    0.0994   -0.4084 H   0  0  0  0  0  0  0  0  0  0  0  0
   -0.6981    0.9298   -2.6398 H   0  0  0  0  0  0  0  0  0  0  0  0
    1.0550    0.9257   -2.5259 H   0  0  0  0  0  0  0  0  0  0  0  0
    0.2461    3.1988   -2.3228 H   0  0  0  0  0  0  0  0  0  0  0  0
   -0.8438    2.9021   -1.0330 H   0  0  0  0  0  0  0  0  0  0  0  0
    2.2238    2.0153   -1.1842 H   0  0  0  0  0  0  0  0  0  0  0  0
    1.6361    3.4336   -0.2630 H   0  0  0  0  0  0  0  0  0  0  0  0
    0.1807   -1.9738   -1.5387 N   0  0  0  0  0  0  0  0  0  0  0  0
    0.8452   -3.2192   -1.9812 C   0  0  2  0  0  0  0  0  0  0  0  0
    1.5268   -4.0339   -0.8566 C   0  0  0  0  0  0  0  0  0  0  0  0
    1.3216   -5.2382   -0.7827 O   0  0  0  0  0  0  0  0  0  0  0  0
    1.8271   -2.9537   -3.1319 C   0  0  0  0  0  0  0  0  0  0  0  0
   -0.8354   -1.9732   -1.5391 H   0  0  0  0  0  0  0  0  0  0  0  0
    0.0584   -3.8654   -2.3840 H   0  0  0  0  0  0  0  0  0  0  0  0
    2.7090   -2.4070   -2.7858 H   0  0  0  0  0  0  0  0  0  0  0  0
    2.1649   -3.9027   -3.5605 H   0  0  0  0  0  0  0  0  0  0  0  0
    1.3421   -2.3714   -3.9208 H   0  0  0  0  0  0  0  0  0  0  0  0
    2.3647   -3.4340    0.0618 N   0  0  0  0  0  0  0  0  0  0  0  0
    3.0656   -4.1510    1.1176 C   0  0  0  0  0  0  0  0  0  0  0  0
    2.5362   -2.4333   -0.0676 H   0  0  0  0  0  0  0  0  0  0  0  0
    2.3536   -4.6833    1.7570 H   0  0  0  0  0  0  0  0  0  0  0  0
    3.7653   -4.8757    0.6887 H   0  0  0  0  0  0  0  0  0  0  0  0
    3.6295   -3.4492    1.7390 H   0  0  0  0  0  0  0  0  0  0  0  0
  1  2  2  0  0  0  0
  1  3  1  0  0  0  0
  1  7  1  0  0  0  0
  3  4  1  0  0  0  0
  3  5  1  0  0  0  0
  3  6  1  0  0  0  0
  7  8  1  0  0  0  0
  7 12  1  0  0  0  0
  8  9  1  0  0  0  0
  8 11  1  0  0  0  0
  8 13  1  0  0  0  0
  9 10  2  0  0  0  0
  9 17  1  0  0  0  0
 11 14  1  0  0  0  0
 11 15  1  0  0  0  0
 11 16  1  0  0  0  0
 17 18  1  0  0  0  0
 17 23  1  0  0  0  0
 18 19  1  0  0  0  0
 18 21  1  0  0  0  0
 18 24  1  0  0  0  0
 19 20  2  0  0  0  0
 19 31  1  0  0  0  0
 21 22  1  0  0  0  0
 21 25  1  0  0  0  0
 21 26  1  0  0  0  0
 22 23  1  0  0  0  0
 22 27  1  0  0  0  0
 22 28  1  0  0  0  0
 23 29  1  0  0  0  0
 23 30  1  0  0  0  0
 31 32  1  0  0  0  0
 31 36  1  0  0  0  0
 32 33  1  0  0  0  0
 32 35  1  0  0  0  0
 32 37  1  0  0  0  0
 33 34  2  0  0  0  0
 33 41  1  0  0  0  0
 35 38  1  0  0  0  0
 35 39  1  0  0  0  0
 35 40  1  0  0  0  0
 41 42  1  0  0  0  0
 41 43  1  0  0  0  0
 42 44  1  0  0  0  0
 42 45  1  0  0  0  0
 42 46  1  0  0  0  0
M  END
$$$$

  -OEChem-05262217223D

 46 46  0     1  0  0  0  0  0999 V2000
   -2.6219    1.3029    3.7513 C   0  0  0  0  0  0  0  0  0  0  0  0
   -3.2058    0.3078    3.3509 O   0  0  0  0  0  0  0  0  0  0  0  0
   -2.7025    1.6987    5.2137 C   0  0  0  0  0  0  0  0  0  0  0  0
   -3.1249    2.7021    5.3063 H   0  0  0  0  0  0  0  0  0  0  0  0
   -3.3384    0.9962    5.7599 H   0  0  0  0  0  0  0  0  0  0  0  0
   -1.7042    1.6896    5.6577 H   0  0  0  0  0  0  0  0  0  0  0  0
   -1.8872    2.0695    2.8713 N   0  0  0  0  0  0  0  0  0  0  0  0
   -1.6277    1.7094    1.4704 C   0  0  2  0  0  0  0  0  0  0  0  0
   -0.2185    2.1925    1.0243 C   0  0  0  0  0  0  0  0  0  0  0  0
    0.2302    3.1863    1.5926 O   0  0  0  0  0  0  0  0  0  0  0  0
   -2.7659    2.3118    0.6366 C   0  0  0  0  0  0  0  0  0  0  0  0
   -1.3390    2.8379    3.2576 H   0  0  0  0  0  0  0  0  0  0  0  0
   -1.6470    0.6193    1.3803 H   0  0  0  0  0  0  0  0  0  0  0  0
   -2.7062    3.4049    0.6438 H   0  0  0  0  0  0  0  0  0  0  0  0
   -2.7235    1.9609   -0.3971 H   0  0  0  0  0  0  0  0  0  0  0  0
   -3.7352    2.0150    1.0498 H   0  0  0  0  0  0  0  0  0  0  0  0
    0.4945    1.6498   -0.0673 N   0  0  0  0  0  0  0  0  0  0  0  0
   -0.0902    0.5157   -0.9230 C   0  0  2  0  0  0  0  0  0  0  0  0
    0.8199   -0.6894   -1.2639 C   0  0  0  0  0  0  0  0  0  0  0  0
    1.9698   -0.7452   -0.8482 O   0  0  0  0  0  0  0  0  0  0  0  0
    0.1241    1.2929   -2.2268 C   0  0  0  0  0  0  0  0  0  0  0  0
    0.0484    2.6840   -1.6656 C   0  0  0  0  0  0  0  0  0  0  0  0
    1.3080    2.6537   -0.9160 C   0  0  0  0  0  0  0  0  0  0  0  0
   -1.1261    0.2374   -0.7183 H   0  0  0  0  0  0  0  0  0  0  0  0
   -0.6950    1.1054   -2.9283 H   0  0  0  0  0  0  0  0  0  0  0  0
    1.0650    1.0991   -2.7642 H   0  0  0  0  0  0  0  0  0  0  0  0
    0.1677    3.3964   -2.4880 H   0  0  0  0  0  0  0  0  0  0  0  0
   -0.8917    2.9876   -1.1871 H   0  0  0  0  0  0  0  0  0  0  0  0
    2.1968    2.2437   -1.4105 H   0  0  0  0  0  0  0  0  0  0  0  0
    1.5539    3.6042   -0.4305 H   0  0  0  0  0  0  0  0  0  0  0  0
    0.3146   -1.7267   -2.0348 N   0  0  0  0  0  0  0  0  0  0  0  0
    1.0332   -2.9403   -2.4786 C   0  0  2  0  0  0  0  0  0  0  0  0
    1.4128   -3.9225   -1.3456 C   0  0  0  0  0  0  0  0  0  0  0  0
    1.0465   -5.0881   -1.4166 O   0  0  0  0  0  0  0  0  0  0  0  0
    2.2608   -2.5812   -3.3278 C   0  0  0  0  0  0  0  0  0  0  0  0
   -0.6658   -1.6553   -2.2918 H   0  0  0  0  0  0  0  0  0  0  0  0
    0.3481   -3.4890   -3.1335 H   0  0  0  0  0  0  0  0  0  0  0  0
    3.0450   -2.1193   -2.7210 H   0  0  0  0  0  0  0  0  0  0  0  0
    2.6746   -3.4852   -3.7855 H   0  0  0  0  0  0  0  0  0  0  0  0
    1.9819   -1.8864   -4.1253 H   0  0  0  0  0  0  0  0  0  0  0  0
    2.1463   -3.5089   -0.2520 N   0  0  0  0  0  0  0  0  0  0  0  0
    2.4814   -4.3648    0.8768 C   0  0  0  0  0  0  0  0  0  0  0  0
    2.3812   -2.5131   -0.2153 H   0  0  0  0  0  0  0  0  0  0  0  0
    1.5717   -4.6970    1.3875 H   0  0  0  0  0  0  0  0  0  0  0  0
    3.0386   -5.2447    0.5388 H   0  0  0  0  0  0  0  0  0  0  0  0
    3.1014   -3.8172    1.5932 H   0  0  0  0  0  0  0  0  0  0  0  0
  1  2  2  0  0  0  0
  1  3  1  0  0  0  0
  1  7  1  0  0  0  0
  3  4  1  0  0  0  0
  3  5  1  0  0  0  0
  3  6  1  0  0  0  0
  7  8  1  0  0  0  0
  7 12  1  0  0  0  0
  8  9  1  0  0  0  0
  8 11  1  0  0  0  0
  8 13  1  0  0  0  0
  9 10  2  0  0  0  0
  9 17  1  0  0  0  0
 11 14  1  0  0  0  0
 11 15  1  0  0  0  0
 11 16  1  0  0  0  0
 17 18  1  0  0  0  0
 17 23  1  0  0  0  0
 18 19  1  0  0  0  0
 18 21  1  0  0  0  0
 18 24  1  0  0  0  0
 19 20  2  0  0  0  0
 19 31  1  0  0  0  0
 21 22  1  0  0  0  0
 21 25  1  0  0  0  0
 21 26  1  0  0  0  0
 22 23  1  0  0  0  0
 22 27  1  0  0  0  0
 22 28  1  0  0  0  0
 23 29  1  0  0  0  0
 23 30  1  0  0  0  0
 31 32  1  0  0  0  0
 31 36  1  0  0  0  0
 32 33  1  0  0  0  0
 32 35  1  0  0  0  0
 32 37  1  0  0  0  0
 33 34  2  0  0  0  0
 33 41  1  0  0  0  0
 35 38  1  0  0  0  0
 35 39  1  0  0  0  0
 35 40  1  0  0  0  0
 41 42  1  0  0  0  0
 41 43  1  0  0  0  0
 42 44  1  0  0  0  0
 42 45  1  0  0  0  0
 42 46  1  0  0  0  0
M  END
$$$$

  -OEChem-05262217223D

 46 46  0     1  0  0  0  0  0999 V2000
   -2.3873    0.9940    3.7257 C   0  0  0  0  0  0  0  0  0  0  0  0
   -2.8636   -0.0570    3.3260 O   0  0  0  0  0  0  0  0  0  0  0  0
   -2.4154    1.3290    5.2050 C   0  0  0  0  0  0  0  0  0  0  0  0
   -2.9796    2.2502    5.3684 H   0  0  0  0  0  0  0  0  0  0  0  0
   -2.8921    0.5201    5.7656 H   0  0  0  0  0  0  0  0  0  0  0  0
   -1.3965    1.4622    5.5771 H   0  0  0  0  0  0  0  0  0  0  0  0
   -1.8175    1.8766    2.8322 N   0  0  0  0  0  0  0  0  0  0  0  0
   -1.5733    1.5777    1.4141 C   0  0  2  0  0  0  0  0  0  0  0  0
   -0.2191    2.1819    0.9456 C   0  0  0  0  0  0  0  0  0  0  0  0
    0.1684    3.1916    1.5310 O   0  0  0  0  0  0  0  0  0  0  0  0
   -2.7809    2.1074    0.6310 C   0  0  0  0  0  0  0  0  0  0  0  0
   -1.3303    2.6848    3.2188 H   0  0  0  0  0  0  0  0  0  0  0  0
   -1.5075    0.4929    1.2892 H   0  0  0  0  0  0  0  0  0  0  0  0
   -2.8138    3.2007    0.6732 H   0  0  0  0  0  0  0  0  0  0  0  0
   -2.7379    1.7951   -0.4150 H   0  0  0  0  0  0  0  0  0  0  0  0
   -3.7091    1.7148    1.0588 H   0  0  0  0  0  0  0  0  0  0  0  0
    0.4999    1.7279   -0.1823 N   0  0  0  0  0  0  0  0  0  0  0  0
   -0.0276    0.5776   -1.0535 C   0  0  2  0  0  0  0  0  0  0  0  0
    0.9664   -0.5422   -1.4508 C   0  0  0  0  0  0  0  0  0  0  0  0
    2.0066   -0.6900   -0.8243 O   0  0  0  0  0  0  0  0  0  0  0  0
    0.0833    1.4154   -2.3344 C   0  0  0  0  0  0  0  0  0  0  0  0
   -0.0764    2.7797   -1.7268 C   0  0  0  0  0  0  0  0  0  0  0  0
    1.2080    2.8168   -1.0205 C   0  0  0  0  0  0  0  0  0  0  0  0
   -1.0311    0.2109   -0.8283 H   0  0  0  0  0  0  0  0  0  0  0  0
   -0.7442    1.1927   -3.0156 H   0  0  0  0  0  0  0  0  0  0  0  0
    1.0160    1.3094   -2.9087 H   0  0  0  0  0  0  0  0  0  0  0  0
   -0.0382    3.5246   -2.5279 H   0  0  0  0  0  0  0  0  0  0  0  0
   -1.0191    2.9986   -1.2089 H   0  0  0  0  0  0  0  0  0  0  0  0
    2.1066    2.4901   -1.5573 H   0  0  0  0  0  0  0  0  0  0  0  0
    1.4019    3.7659   -0.5096 H   0  0  0  0  0  0  0  0  0  0  0  0
    0.6491   -1.4296   -2.4708 N   0  0  0  0  0  0  0  0  0  0  0  0
    1.4443   -2.5934   -2.9167 C   0  0  2  0  0  0  0  0  0  0  0  0
    1.5419   -3.7381   -1.8805 C   0  0  0  0  0  0  0  0  0  0  0  0
    1.1608   -4.8590   -2.1900 O   0  0  0  0  0  0  0  0  0  0  0  0
    2.8381   -2.1720   -3.4055 C   0  0  0  0  0  0  0  0  0  0  0  0
   -0.2639   -1.3074   -2.8992 H   0  0  0  0  0  0  0  0  0  0  0  0
    0.9245   -3.0152   -3.7833 H   0  0  0  0  0  0  0  0  0  0  0  0
    3.4664   -1.8294   -2.5782 H   0  0  0  0  0  0  0  0  0  0  0  0
    3.3388   -3.0217   -3.8804 H   0  0  0  0  0  0  0  0  0  0  0  0
    2.7569   -1.3643   -4.1390 H   0  0  0  0  0  0  0  0  0  0  0  0
    2.0265   -3.5165   -0.6067 N   0  0  0  0  0  0  0  0  0  0  0  0
    2.0773   -4.5324    0.4353 C   0  0  0  0  0  0  0  0  0  0  0  0
    2.2716   -2.5492   -0.3776 H   0  0  0  0  0  0  0  0  0  0  0  0
    2.5274   -4.1189    1.3429 H   0  0  0  0  0  0  0  0  0  0  0  0
    1.0687   -4.8836    0.6769 H   0  0  0  0  0  0  0  0  0  0  0  0
    2.6807   -5.3859    0.1089 H   0  0  0  0  0  0  0  0  0  0  0  0
  1  2  2  0  0  0  0
  1  3  1  0  0  0  0
  1  7  1  0  0  0  0
  3  4  1  0  0  0  0
  3  5  1  0  0  0  0
  3  6  1  0  0  0  0
  7  8  1  0  0  0  0
  7 12  1  0  0  0  0
  8  9  1  0  0  0  0
  8 11  1  0  0  0  0
  8 13  1  0  0  0  0
  9 10  2  0  0  0  0
  9 17  1  0  0  0  0
 11 14  1  0  0  0  0
 11 15  1  0  0  0  0
 11 16  1  0  0  0  0
 17 18  1  0  0  0  0
 17 23  1  0  0  0  0
 18 19  1  0  0  0  0
 18 21  1  0  0  0  0
 18 24  1  0  0  0  0
 19 20  2  0  0  0  0
 19 31  1  0  0  0  0
 21 22  1  0  0  0  0
 21 25  1  0  0  0  0
 21 26  1  0  0  0  0
 22 23  1  0  0  0  0
 22 27  1  0  0  0  0
 22 28  1  0  0  0  0
 23 29  1  0  0  0  0
 23 30  1  0  0  0  0
 31 32  1  0  0  0  0
 31 36  1  0  0  0  0
 32 33  1  0  0  0  0
 32 35  1  0  0  0  0
 32 37  1  0  0  0  0
 33 34  2  0  0  0  0
 33 41  1  0  0  0  0
 35 38  1  0  0  0  0
 35 39  1  0  0  0  0
 35 40  1  0  0  0  0
 41 42  1  0  0  0  0
 41 43  1  0  0  0  0
 42 44  1  0  0  0  0
 42 45  1  0  0  0  0
 42 46  1  0  0  0  0
M  END
$$$$

  -OEChem-05262217223D

 46 46  0     1  0  0  0  0  0999 V2000
   -2.2940    0.8925    3.7311 C   0  0  0  0  0  0  0  0  0  0  0  0
   -2.7544   -0.1683    3.3387 O   0  0  0  0  0  0  0  0  0  0  0  0
   -2.3491    1.2513    5.2041 C   0  0  0  0  0  0  0  0  0  0  0  0
   -2.9793    2.1319    5.3505 H   0  0  0  0  0  0  0  0  0  0  0  0
   -2.7652    0.4198    5.7798 H   0  0  0  0  0  0  0  0  0  0  0  0
   -1.3434    1.4668    5.5734 H   0  0  0  0  0  0  0  0  0  0  0  0
   -1.7266    1.7715    2.8333 N   0  0  0  0  0  0  0  0  0  0  0  0
   -1.4902    1.4765    1.4134 C   0  0  2  0  0  0  0  0  0  0  0  0
   -0.1881    2.1690    0.9174 C   0  0  0  0  0  0  0  0  0  0  0  0
    0.1505    3.1943    1.5067 O   0  0  0  0  0  0  0  0  0  0  0  0
   -2.7487    1.9167    0.6542 C   0  0  0  0  0  0  0  0  0  0  0  0
   -1.2627    2.5969    3.2121 H   0  0  0  0  0  0  0  0  0  0  0  0
   -1.3523    0.3972    1.2961 H   0  0  0  0  0  0  0  0  0  0  0  0
   -2.8602    3.0045    0.7001 H   0  0  0  0  0  0  0  0  0  0  0  0
   -2.7052    1.6087   -0.3930 H   0  0  0  0  0  0  0  0  0  0  0  0
   -3.6376    1.4581    1.0994 H   0  0  0  0  0  0  0  0  0  0  0  0
    0.5300    1.7780   -0.2358 N   0  0  0  0  0  0  0  0  0  0  0  0
    0.0496    0.6085   -1.1102 C   0  0  2  0  0  0  0  0  0  0  0  0
    1.1073   -0.4411   -1.5454 C   0  0  0  0  0  0  0  0  0  0  0  0
    2.0164   -0.7199   -0.7767 O   0  0  0  0  0  0  0  0  0  0  0  0
    0.0601    1.4827   -2.3738 C   0  0  0  0  0  0  0  0  0  0  0  0
   -0.1683    2.8229   -1.7370 C   0  0  0  0  0  0  0  0  0  0  0  0
    1.1359    2.9283   -1.0741 C   0  0  0  0  0  0  0  0  0  0  0  0
   -0.9197    0.1717   -0.8607 H   0  0  0  0  0  0  0  0  0  0  0  0
   -0.7750    1.2192   -3.0311 H   0  0  0  0  0  0  0  0  0  0  0  0
    0.9767    1.4553   -2.9814 H   0  0  0  0  0  0  0  0  0  0  0  0
   -0.2050    3.5825   -2.5243 H   0  0  0  0  0  0  0  0  0  0  0  0
   -1.1050    2.9708   -1.1853 H   0  0  0  0  0  0  0  0  0  0  0  0
    2.0345    2.6739   -1.6490 H   0  0  0  0  0  0  0  0  0  0  0  0
    1.2868    3.8773   -0.5487 H   0  0  0  0  0  0  0  0  0  0  0  0
    0.9959   -1.1401   -2.7425 N   0  0  0  0  0  0  0  0  0  0  0  0
    1.8980   -2.1974   -3.2463 C   0  0  2  0  0  0  0  0  0  0  0  0
    1.8456   -3.5181   -2.4435 C   0  0  0  0  0  0  0  0  0  0  0  0
    1.5469   -4.5567   -3.0178 O   0  0  0  0  0  0  0  0  0  0  0  0
    3.3412   -1.6898   -3.3835 C   0  0  0  0  0  0  0  0  0  0  0  0
    0.1709   -0.9384   -3.2996 H   0  0  0  0  0  0  0  0  0  0  0  0
    1.5577   -2.4453   -4.2570 H   0  0  0  0  0  0  0  0  0  0  0  0
    3.8024   -1.5254   -2.4054 H   0  0  0  0  0  0  0  0  0  0  0  0
    3.9459   -2.4258   -3.9226 H   0  0  0  0  0  0  0  0  0  0  0  0
    3.3631   -0.7490   -3.9412 H   0  0  0  0  0  0  0  0  0  0  0  0
    2.0940   -3.5412   -1.0858 N   0  0  0  0  0  0  0  0  0  0  0  0
    1.9685   -4.7298   -0.2543 C   0  0  0  0  0  0  0  0  0  0  0  0
    2.2620   -2.6336   -0.6431 H   0  0  0  0  0  0  0  0  0  0  0  0
    2.2783   -4.5059    0.7709 H   0  0  0  0  0  0  0  0  0  0  0  0
    0.9300   -5.0759   -0.2357 H   0  0  0  0  0  0  0  0  0  0  0  0
    2.6030   -5.5355   -0.6383 H   0  0  0  0  0  0  0  0  0  0  0  0
  1  2  2  0  0  0  0
  1  3  1  0  0  0  0
  1  7  1  0  0  0  0
  3  4  1  0  0  0  0
  3  5  1  0  0  0  0
  3  6  1  0  0  0  0
  7  8  1  0  0  0  0
  7 12  1  0  0  0  0
  8  9  1  0  0  0  0
  8 11  1  0  0  0  0
  8 13  1  0  0  0  0
  9 10  2  0  0  0  0
  9 17  1  0  0  0  0
 11 14  1  0  0  0  0
 11 15  1  0  0  0  0
 11 16  1  0  0  0  0
 17 18  1  0  0  0  0
 17 23  1  0  0  0  0
 18 19  1  0  0  0  0
 18 21  1  0  0  0  0
 18 24  1  0  0  0  0
 19 20  2  0  0  0  0
 19 31  1  0  0  0  0
 21 22  1  0  0  0  0
 21 25  1  0  0  0  0
 21 26  1  0  0  0  0
 22 23  1  0  0  0  0
 22 27  1  0  0  0  0
 22 28  1  0  0  0  0
 23 29  1  0  0  0  0
 23 30  1  0  0  0  0
 31 32  1  0  0  0  0
 31 36  1  0  0  0  0
 32 33  1  0  0  0  0
 32 35  1  0  0  0  0
 32 37  1  0  0  0  0
 33 34  2  0  0  0  0
 33 41  1  0  0  0  0
 35 38  1  0  0  0  0
 35 39  1  0  0  0  0
 35 40  1  0  0  0  0
 41 42  1  0  0  0  0
 41 43  1  0  0  0  0
 42 44  1  0  0  0  0
 42 45  1  0  0  0  0
 42 46  1  0  0  0  0
M  END
$$$$

  -OEChem-05262217223D

 46 46  0     1  0  0  0  0  0999 V2000
   -2.1780    0.7515    3.7078 C   0  0  0  0  0  0  0  0  0  0  0  0
   -2.5734   -0.3317    3.3058 O   0  0  0  0  0  0  0  0  0  0  0  0
   -2.2261    1.0784    5.1885 C   0  0  0  0  0  0  0  0  0  0  0  0
   -2.8811    1.9359    5.3589 H   0  0  0  0  0  0  0  0  0  0  0  0
   -2.6103    0.2230    5.7512 H   0  0  0  0  0  0  0  0  0  0  0  0
   -1.2234    1.3166    5.5514 H   0  0  0  0  0  0  0  0  0  0  0  0
   -1.6925    1.6834    2.8148 N   0  0  0  0  0  0  0  0  0  0  0  0
   -1.4582    1.4244    1.3871 C   0  0  2  0  0  0  0  0  0  0  0  0
   -0.2061    2.1999    0.8831 C   0  0  0  0  0  0  0  0  0  0  0  0
    0.0772    3.2373    1.4807 O   0  0  0  0  0  0  0  0  0  0  0  0
   -2.7522    1.7971    0.6519 C   0  0  0  0  0  0  0  0  0  0  0  0
   -1.2798    2.5327    3.1997 H   0  0  0  0  0  0  0  0  0  0  0  0
   -1.2582    0.3570    1.2525 H   0  0  0  0  0  0  0  0  0  0  0  0
   -2.9207    2.8776    0.7009 H   0  0  0  0  0  0  0  0  0  0  0  0
   -2.7111    1.4911   -0.3961 H   0  0  0  0  0  0  0  0  0  0  0  0
   -3.6072    1.2919    1.1126 H   0  0  0  0  0  0  0  0  0  0  0  0
    0.5259    1.8635   -0.2803 N   0  0  0  0  0  0  0  0  0  0  0  0
    0.1063    0.6699   -1.1562 C   0  0  2  0  0  0  0  0  0  0  0  0
    1.2259   -0.3138   -1.6063 C   0  0  0  0  0  0  0  0  0  0  0  0
    1.9886   -0.7308   -0.7467 O   0  0  0  0  0  0  0  0  0  0  0  0
    0.0262    1.5643   -2.4069 C   0  0  0  0  0  0  0  0  0  0  0  0
   -0.2791    2.8782   -1.7524 C   0  0  0  0  0  0  0  0  0  0  0  0
    1.0305    3.0643   -1.1172 C   0  0  0  0  0  0  0  0  0  0  0  0
   -0.8272    0.1684   -0.8932 H   0  0  0  0  0  0  0  0  0  0  0  0
   -0.8015    1.2486   -3.0506 H   0  0  0  0  0  0  0  0  0  0  0  0
    0.9270    1.6227   -3.0338 H   0  0  0  0  0  0  0  0  0  0  0  0
   -0.3830    3.6399   -2.5317 H   0  0  0  0  0  0  0  0  0  0  0  0
   -1.2111    2.9593   -1.1813 H   0  0  0  0  0  0  0  0  0  0  0  0
    1.9323    2.8811   -1.7139 H   0  0  0  0  0  0  0  0  0  0  0  0
    1.1266    4.0158   -0.5833 H   0  0  0  0  0  0  0  0  0  0  0  0
    1.3541   -0.8071   -2.9023 N   0  0  0  0  0  0  0  0  0  0  0  0
    2.3741   -1.7518   -3.4066 C   0  0  2  0  0  0  0  0  0  0  0  0
    2.2518   -3.1961   -2.8656 C   0  0  0  0  0  0  0  0  0  0  0  0
    2.2365   -4.1309   -3.6554 O   0  0  0  0  0  0  0  0  0  0  0  0
    3.7941   -1.2065   -3.1981 C   0  0  0  0  0  0  0  0  0  0  0  0
    0.6501   -0.4978   -3.5656 H   0  0  0  0  0  0  0  0  0  0  0  0
    2.2233   -1.8247   -4.4886 H   0  0  0  0  0  0  0  0  0  0  0  0
    4.0728   -1.2135   -2.1405 H   0  0  0  0  0  0  0  0  0  0  0  0
    4.5151   -1.8254   -3.7413 H   0  0  0  0  0  0  0  0  0  0  0  0
    3.8673   -0.1809   -3.5717 H   0  0  0  0  0  0  0  0  0  0  0  0
    2.1546   -3.4537   -1.5130 N   0  0  0  0  0  0  0  0  0  0  0  0
    2.0764   -4.7892   -0.9377 C   0  0  0  0  0  0  0  0  0  0  0  0
    2.2009   -2.6402   -0.8934 H   0  0  0  0  0  0  0  0  0  0  0  0
    1.9524   -4.7241    0.1473 H   0  0  0  0  0  0  0  0  0  0  0  0
    1.2223   -5.3365   -1.3499 H   0  0  0  0  0  0  0  0  0  0  0  0
    2.9921   -5.3503   -1.1501 H   0  0  0  0  0  0  0  0  0  0  0  0
  1  2  2  0  0  0  0
  1  3  1  0  0  0  0
  1  7  1  0  0  0  0
  3  4  1  0  0  0  0
  3  5  1  0  0  0  0
  3  6  1  0  0  0  0
  7  8  1  0  0  0  0
  7 12  1  0  0  0  0
  8  9  1  0  0  0  0
  8 11  1  0  0  0  0
  8 13  1  0  0  0  0
  9 10  2  0  0  0  0
  9 17  1  0  0  0  0
 11 14  1  0  0  0  0
 11 15  1  0  0  0  0
 11 16  1  0  0  0  0
 17 18  1  0  0  0  0
 17 23  1  0  0  0  0
 18 19  1  0  0  0  0
 18 21  1  0  0  0  0
 18 24  1  0  0  0  0
 19 20  2  0  0  0  0
 19 31  1  0  0  0  0
 21 22  1  0  0  0  0
 21 25  1  0  0  0  0
 21 26  1  0  0  0  0
 22 23  1  0  0  0  0
 22 27  1  0  0  0  0
 22 28  1  0  0  0  0
 23 29  1  0  0  0  0
 23 30  1  0  0  0  0
 31 32  1  0  0  0  0
 31 36  1  0  0  0  0
 32 33  1  0  0  0  0
 32 35  1  0  0  0  0
 32 37  1  0  0  0  0
 33 34  2  0  0  0  0
 33 41  1  0  0  0  0
 35 38  1  0  0  0  0
 35 39  1  0  0  0  0
 35 40  1  0  0  0  0
 41 42  1  0  0  0  0
 41 43  1  0  0  0  0
 42 44  1  0  0  0  0
 42 45  1  0  0  0  0
 42 46  1  0  0  0  0
M  END
$$$$

  -OEChem-05262217223D

 46 46  0     1  0  0  0  0  0999 V2000
   -2.1391    0.6666    3.6824 C   0  0  0  0  0  0  0  0  0  0  0  0
   -2.5083   -0.4243    3.2767 O   0  0  0  0  0  0  0  0  0  0  0  0
   -2.1834    0.9846    5.1653 C   0  0  0  0  0  0  0  0  0  0  0  0
   -2.8370    1.8417    5.3437 H   0  0  0  0  0  0  0  0  0  0  0  0
   -2.5665    0.1265    5.7245 H   0  0  0  0  0  0  0  0  0  0  0  0
   -1.1793    1.2199    5.5261 H   0  0  0  0  0  0  0  0  0  0  0  0
   -1.6815    1.6153    2.7924 N   0  0  0  0  0  0  0  0  0  0  0  0
   -1.4420    1.3727    1.3623 C   0  0  2  0  0  0  0  0  0  0  0  0
   -0.2356    2.2204    0.8588 C   0  0  0  0  0  0  0  0  0  0  0  0
   -0.0097    3.2674    1.4640 O   0  0  0  0  0  0  0  0  0  0  0  0
   -2.7599    1.6723    0.6358 C   0  0  0  0  0  0  0  0  0  0  0  0
   -1.2954    2.4757    3.1804 H   0  0  0  0  0  0  0  0  0  0  0  0
   -1.1832    0.3181    1.2249 H   0  0  0  0  0  0  0  0  0  0  0  0
   -2.9851    2.7426    0.6801 H   0  0  0  0  0  0  0  0  0  0  0  0
   -2.7108    1.3620   -0.4106 H   0  0  0  0  0  0  0  0  0  0  0  0
   -3.5841    1.1256    1.1052 H   0  0  0  0  0  0  0  0  0  0  0  0
    0.5169    1.9369   -0.3075 N   0  0  0  0  0  0  0  0  0  0  0  0
    0.1676    0.7267   -1.1925 C   0  0  2  0  0  0  0  0  0  0  0  0
    1.3542   -0.1836   -1.6417 C   0  0  0  0  0  0  0  0  0  0  0  0
    1.9664   -0.7494   -0.7475 O   0  0  0  0  0  0  0  0  0  0  0  0
    0.0008    1.6297   -2.4324 C   0  0  0  0  0  0  0  0  0  0  0  0
   -0.3852    2.9093   -1.7572 C   0  0  0  0  0  0  0  0  0  0  0  0
    0.9208    3.1792   -1.1412 C   0  0  0  0  0  0  0  0  0  0  0  0
   -0.7262    0.1609   -0.9210 H   0  0  0  0  0  0  0  0  0  0  0  0
   -0.8131    1.2591   -3.0642 H   0  0  0  0  0  0  0  0  0  0  0  0
    0.8751    1.7787   -3.0782 H   0  0  0  0  0  0  0  0  0  0  0  0
   -0.5539    3.6703   -2.5257 H   0  0  0  0  0  0  0  0  0  0  0  0
   -1.3121    2.9203   -1.1744 H   0  0  0  0  0  0  0  0  0  0  0  0
    1.8230    3.0654   -1.7541 H   0  0  0  0  0  0  0  0  0  0  0  0
    0.9611    4.1297   -0.5984 H   0  0  0  0  0  0  0  0  0  0  0  0
    1.7363   -0.4481   -2.9552 N   0  0  0  0  0  0  0  0  0  0  0  0
    2.8762   -1.2705   -3.4159 C   0  0  2  0  0  0  0  0  0  0  0  0
    2.7334   -2.7893   -3.1602 C   0  0  0  0  0  0  0  0  0  0  0  0
    2.8509   -3.5672   -4.0979 O   0  0  0  0  0  0  0  0  0  0  0  0
    4.2081   -0.7437   -2.8629 C   0  0  0  0  0  0  0  0  0  0  0  0
    1.1552   -0.0326   -3.6765 H   0  0  0  0  0  0  0  0  0  0  0  0
    2.9235   -1.1544   -4.5036 H   0  0  0  0  0  0  0  0  0  0  0  0
    4.2953   -0.9307   -1.7888 H   0  0  0  0  0  0  0  0  0  0  0  0
    5.0432   -1.2444   -3.3629 H   0  0  0  0  0  0  0  0  0  0  0  0
    4.2951    0.3326   -3.0382 H   0  0  0  0  0  0  0  0  0  0  0  0
    2.4724   -3.2863   -1.8992 N   0  0  0  0  0  0  0  0  0  0  0  0
    2.3472   -4.7032   -1.5876 C   0  0  0  0  0  0  0  0  0  0  0  0
    2.3690   -2.5937   -1.1526 H   0  0  0  0  0  0  0  0  0  0  0  0
    2.0803   -4.8353   -0.5347 H   0  0  0  0  0  0  0  0  0  0  0  0
    1.5666   -5.1631   -2.2024 H   0  0  0  0  0  0  0  0  0  0  0  0
    3.2944   -5.2203   -1.7724 H   0  0  0  0  0  0  0  0  0  0  0  0
  1  2  2  0  0  0  0
  1  3  1  0  0  0  0
  1  7  1  0  0  0  0
  3  4  1  0  0  0  0
  3  5  1  0  0  0  0
  3  6  1  0  0  0  0
  7  8  1  0  0  0  0
  7 12  1  0  0  0  0
  8  9  1  0  0  0  0
  8 11  1  0  0  0  0
  8 13  1  0  0  0  0
  9 10  2  0  0  0  0
  9 17  1  0  0  0  0
 11 14  1  0  0  0  0
 11 15  1  0  0  0  0
 11 16  1  0  0  0  0
 17 18  1  0  0  0  0
 17 23  1  0  0  0  0
 18 19  1  0  0  0  0
 18 21  1  0  0  0  0
 18 24  1  0  0  0  0
 19 20  2  0  0  0  0
 19 31  1  0  0  0  0
 21 22  1  0  0  0  0
 21 25  1  0  0  0  0
 21 26  1  0  0  0  0
 22 23  1  0  0  0  0
 22 27  1  0  0  0  0
 22 28  1  0  0  0  0
 23 29  1  0  0  0  0
 23 30  1  0  0  0  0
 31 32  1  0  0  0  0
 31 36  1  0  0  0  0
 32 33  1  0  0  0  0
 32 35  1  0  0  0  0
 32 37  1  0  0  0  0
 33 34  2  0  0  0  0
 33 41  1  0  0  0  0
 35 38  1  0  0  0  0
 35 39  1  0  0  0  0
 35 40  1  0  0  0  0
 41 42  1  0  0  0  0
 41 43  1  0  0  0  0
 42 44  1  0  0  0  0
 42 45  1  0  0  0  0
 42 46  1  0  0  0  0
M  END
$$$$

  -OEChem-05262217223D

 46 46  0     1  0  0  0  0  0999 V2000
   -2.0598    0.5836    3.6816 C   0  0  0  0  0  0  0  0  0  0  0  0
   -2.3435   -0.5376    3.2901 O   0  0  0  0  0  0  0  0  0  0  0  0
   -2.1515    0.9226    5.1574 C   0  0  0  0  0  0  0  0  0  0  0  0
   -2.8649    1.7363    5.3089 H   0  0  0  0  0  0  0  0  0  0  0  0
   -2.4855    0.0499    5.7255 H   0  0  0  0  0  0  0  0  0  0  0  0
   -1.1721    1.2316    5.5307 H   0  0  0  0  0  0  0  0  0  0  0  0
   -1.6601    1.5493    2.7823 N   0  0  0  0  0  0  0  0  0  0  0  0
   -1.3922    1.3066    1.3575 C   0  0  2  0  0  0  0  0  0  0  0  0
   -0.2694    2.2611    0.8467 C   0  0  0  0  0  0  0  0  0  0  0  0
   -0.1374    3.3268    1.4476 O   0  0  0  0  0  0  0  0  0  0  0  0
   -2.7335    1.4550    0.6252 C   0  0  0  0  0  0  0  0  0  0  0  0
   -1.3454    2.4426    3.1604 H   0  0  0  0  0  0  0  0  0  0  0  0
   -1.0288    0.2804    1.2404 H   0  0  0  0  0  0  0  0  0  0  0  0
   -3.0669    2.4974    0.6462 H   0  0  0  0  0  0  0  0  0  0  0  0
   -2.6524    1.1268   -0.4138 H   0  0  0  0  0  0  0  0  0  0  0  0
   -3.4987    0.8378    1.1069 H   0  0  0  0  0  0  0  0  0  0  0  0
    0.5088    2.0448   -0.3183 N   0  0  0  0  0  0  0  0  0  0  0  0
    0.2745    0.8020   -1.1956 C   0  0  2  0  0  0  0  0  0  0  0  0
    1.5499    0.0109   -1.6314 C   0  0  0  0  0  0  0  0  0  0  0  0
    2.0371   -0.6968   -0.7618 O   0  0  0  0  0  0  0  0  0  0  0  0
   -0.0088    1.6712   -2.4397 C   0  0  0  0  0  0  0  0  0  0  0  0
   -0.5167    2.9047   -1.7623 C   0  0  0  0  0  0  0  0  0  0  0  0
    0.7634    3.3173   -1.1689 C   0  0  0  0  0  0  0  0  0  0  0  0
   -0.5498    0.1464   -0.9061 H   0  0  0  0  0  0  0  0  0  0  0  0
   -0.7889    1.2072   -3.0528 H   0  0  0  0  0  0  0  0  0  0  0  0
    0.8226    1.9206   -3.1064 H   0  0  0  0  0  0  0  0  0  0  0  0
   -0.7768    3.6397   -2.5308 H   0  0  0  0  0  0  0  0  0  0  0  0
   -1.4313    2.8221   -1.1685 H   0  0  0  0  0  0  0  0  0  0  0  0
    1.6631    3.2958   -1.7956 H   0  0  0  0  0  0  0  0  0  0  0  0
    0.7102    4.2714   -0.6334 H   0  0  0  0  0  0  0  0  0  0  0  0
    2.1588   -0.0086   -2.8848 N   0  0  0  0  0  0  0  0  0  0  0  0
    3.3673   -0.7582   -3.2905 C   0  0  2  0  0  0  0  0  0  0  0  0
    3.1987   -2.2959   -3.3143 C   0  0  0  0  0  0  0  0  0  0  0  0
    3.3540   -2.8989   -4.3680 O   0  0  0  0  0  0  0  0  0  0  0  0
    4.5899   -0.3440   -2.4592 C   0  0  0  0  0  0  0  0  0  0  0  0
    1.6852    0.5124   -3.6152 H   0  0  0  0  0  0  0  0  0  0  0  0
    3.5836   -0.4665   -4.3237 H   0  0  0  0  0  0  0  0  0  0  0  0
    4.5023   -0.6803   -1.4223 H   0  0  0  0  0  0  0  0  0  0  0  0
    5.4967   -0.7862   -2.8837 H   0  0  0  0  0  0  0  0  0  0  0  0
    4.7007    0.7444   -2.4635 H   0  0  0  0  0  0  0  0  0  0  0  0
    2.8500   -2.9994   -2.1789 N   0  0  0  0  0  0  0  0  0  0  0  0
    2.5890   -4.4317   -2.1557 C   0  0  0  0  0  0  0  0  0  0  0  0
    2.6344   -2.4361   -1.3518 H   0  0  0  0  0  0  0  0  0  0  0  0
    1.7458   -4.6775   -2.8095 H   0  0  0  0  0  0  0  0  0  0  0  0
    3.4709   -4.9867   -2.4922 H   0  0  0  0  0  0  0  0  0  0  0  0
    2.3455   -4.7542   -1.1386 H   0  0  0  0  0  0  0  0  0  0  0  0
  1  2  2  0  0  0  0
  1  3  1  0  0  0  0
  1  7  1  0  0  0  0
  3  4  1  0  0  0  0
  3  5  1  0  0  0  0
  3  6  1  0  0  0  0
  7  8  1  0  0  0  0
  7 12  1  0  0  0  0
  8  9  1  0  0  0  0
  8 11  1  0  0  0  0
  8 13  1  0  0  0  0
  9 10  2  0  0  0  0
  9 17  1  0  0  0  0
 11 14  1  0  0  0  0
 11 15  1  0  0  0  0
 11 16  1  0  0  0  0
 17 18  1  0  0  0  0
 17 23  1  0  0  0  0
 18 19  1  0  0  0  0
 18 21  1  0  0  0  0
 18 24  1  0  0  0  0
 19 20  2  0  0  0  0
 19 31  1  0  0  0  0
 21 22  1  0  0  0  0
 21 25  1  0  0  0  0
 21 26  1  0  0  0  0
 22 23  1  0  0  0  0
 22 27  1  0  0  0  0
 22 28  1  0  0  0  0
 23 29  1  0  0  0  0
 23 30  1  0  0  0  0
 31 32  1  0  0  0  0
 31 36  1  0  0  0  0
 32 33  1  0  0  0  0
 32 35  1  0  0  0  0
 32 37  1  0  0  0  0
 33 34  2  0  0  0  0
 33 41  1  0  0  0  0
 35 38  1  0  0  0  0
 35 39  1  0  0  0  0
 35 40  1  0  0  0  0
 41 42  1  0  0  0  0
 41 43  1  0  0  0  0
 42 44  1  0  0  0  0
 42 45  1  0  0  0  0
 42 46  1  0  0  0  0
M  END
$$$$

  -OEChem-05262217223D

 46 46  0     1  0  0  0  0  0999 V2000
   -2.0682    0.5872    3.6887 C   0  0  0  0  0  0  0  0  0  0  0  0
   -2.2339   -0.5698    3.3364 O   0  0  0  0  0  0  0  0  0  0  0  0
   -2.2377    0.9725    5.1462 C   0  0  0  0  0  0  0  0  0  0  0  0
   -3.0249    1.7237    5.2442 H   0  0  0  0  0  0  0  0  0  0  0  0
   -2.5120    0.0954    5.7391 H   0  0  0  0  0  0  0  0  0  0  0  0
   -1.3021    1.3821    5.5349 H   0  0  0  0  0  0  0  0  0  0  0  0
   -1.7326    1.5507    2.7611 N   0  0  0  0  0  0  0  0  0  0  0  0
   -1.3985    1.2796    1.3553 C   0  0  2  0  0  0  0  0  0  0  0  0
   -0.3410    2.3066    0.8438 C   0  0  0  0  0  0  0  0  0  0  0  0
   -0.3065    3.3953    1.4160 O   0  0  0  0  0  0  0  0  0  0  0  0
   -2.7242    1.2749    0.5810 C   0  0  0  0  0  0  0  0  0  0  0  0
   -1.5084    2.4817    3.1115 H   0  0  0  0  0  0  0  0  0  0  0  0
   -0.9427    0.2864    1.2900 H   0  0  0  0  0  0  0  0  0  0  0  0
   -3.1555    2.2805    0.5549 H   0  0  0  0  0  0  0  0  0  0  0  0
   -2.5799    0.9200   -0.4422 H   0  0  0  0  0  0  0  0  0  0  0  0
   -3.4418    0.6034    1.0630 H   0  0  0  0  0  0  0  0  0  0  0  0
    0.4821    2.1245   -0.2964 N   0  0  0  0  0  0  0  0  0  0  0  0
    0.3739    0.8497   -1.1494 C   0  0  2  0  0  0  0  0  0  0  0  0
    1.7383    0.1811   -1.5128 C   0  0  0  0  0  0  0  0  0  0  0  0
    2.0889   -0.6992   -0.7401 O   0  0  0  0  0  0  0  0  0  0  0  0
    0.0262    1.6415   -2.4263 C   0  0  0  0  0  0  0  0  0  0  0  0
   -0.6016    2.8370   -1.7849 C   0  0  0  0  0  0  0  0  0  0  0  0
    0.6264    3.3871   -1.1917 C   0  0  0  0  0  0  0  0  0  0  0  0
   -0.3851    0.1237   -0.8476 H   0  0  0  0  0  0  0  0  0  0  0  0
   -0.7045    1.0841   -3.0217 H   0  0  0  0  0  0  0  0  0  0  0  0
    0.8245    1.9434   -3.1073 H   0  0  0  0  0  0  0  0  0  0  0  0
   -0.9199    3.5230   -2.5763 H   0  0  0  0  0  0  0  0  0  0  0  0
   -1.5132    2.6881   -1.2013 H   0  0  0  0  0  0  0  0  0  0  0  0
    1.5308    3.4273   -1.8103 H   0  0  0  0  0  0  0  0  0  0  0  0
    0.4776    4.3496   -0.6906 H   0  0  0  0  0  0  0  0  0  0  0  0
    2.5507    0.4122   -2.6209 N   0  0  0  0  0  0  0  0  0  0  0  0
    3.8323   -0.2471   -2.9521 C   0  0  2  0  0  0  0  0  0  0  0  0
    3.7087   -1.7430   -3.3249 C   0  0  0  0  0  0  0  0  0  0  0  0
    4.0322   -2.1093   -4.4472 O   0  0  0  0  0  0  0  0  0  0  0  0
    4.8794   -0.0299   -1.8500 C   0  0  0  0  0  0  0  0  0  0  0  0
    2.2343    1.1276   -3.2654 H   0  0  0  0  0  0  0  0  0  0  0  0
    4.2179    0.2516   -3.8474 H   0  0  0  0  0  0  0  0  0  0  0  0
    4.6230   -0.5780   -0.9389 H   0  0  0  0  0  0  0  0  0  0  0  0
    5.8588   -0.3800   -2.1910 H   0  0  0  0  0  0  0  0  0  0  0  0
    4.9580    1.0336   -1.6059 H   0  0  0  0  0  0  0  0  0  0  0  0
    3.2121   -2.6681   -2.4289 N   0  0  0  0  0  0  0  0  0  0  0  0
    2.9751   -4.0675   -2.7544 C   0  0  0  0  0  0  0  0  0  0  0  0
    2.8443   -2.2872   -1.5529 H   0  0  0  0  0  0  0  0  0  0  0  0
    2.1755   -4.1564   -3.4972 H   0  0  0  0  0  0  0  0  0  0  0  0
    3.8838   -4.5270   -3.1574 H   0  0  0  0  0  0  0  0  0  0  0  0
    2.6807   -4.6192   -1.8563 H   0  0  0  0  0  0  0  0  0  0  0  0
  1  2  2  0  0  0  0
  1  3  1  0  0  0  0
  1  7  1  0  0  0  0
  3  4  1  0  0  0  0
  3  5  1  0  0  0  0
  3  6  1  0  0  0  0
  7  8  1  0  0  0  0
  7 12  1  0  0  0  0
  8  9  1  0  0  0  0
  8 11  1  0  0  0  0
  8 13  1  0  0  0  0
  9 10  2  0  0  0  0
  9 17  1  0  0  0  0
 11 14  1  0  0  0  0
 11 15  1  0  0  0  0
 11 16  1  0  0  0  0
 17 18  1  0  0  0  0
 17 23  1  0  0  0  0
 18 19  1  0  0  0  0
 18 21  1  0  0  0  0
 18 24  1  0  0  0  0
 19 20  2  0  0  0  0
 19 31  1  0  0  0  0
 21 22  1  0  0  0  0
 21 25  1  0  0  0  0
 21 26  1  0  0  0  0
 22 23  1  0  0  0  0
 22 27  1  0  0  0  0
 22 28  1  0  0  0  0
 23 29  1  0  0  0  0
 23 30  1  0  0  0  0
 31 32  1  0  0  0  0
 31 36  1  0  0  0  0
 32 33  1  0  0  0  0
 32 35  1  0  0  0  0
 32 37  1  0  0  0  0
 33 34  2  0  0  0  0
 33 41  1  0  0  0  0
 35 38  1  0  0  0  0
 35 39  1  0  0  0  0
 35 40  1  0  0  0  0
 41 42  1  0  0  0  0
 41 43  1  0  0  0  0
 42 44  1  0  0  0  0
 42 45  1  0  0  0  0
 42 46  1  0  0  0  0
M  END
$$$$

  -OEChem-05262217223D

 46 46  0     1  0  0  0  0  0999 V2000
   -2.1614    0.6416    3.7136 C   0  0  0  0  0  0  0  0  0  0  0  0
   -2.2308   -0.5390    3.4112 O   0  0  0  0  0  0  0  0  0  0  0  0
   -2.4234    1.0786    5.1428 C   0  0  0  0  0  0  0  0  0  0  0  0
   -3.2724    1.7658    5.1733 H   0  0  0  0  0  0  0  0  0  0  0  0
   -2.6506    0.2098    5.7670 H   0  0  0  0  0  0  0  0  0  0  0  0
   -1.5412    1.5811    5.5470 H   0  0  0  0  0  0  0  0  0  0  0  0
   -1.8465    1.5822    2.7557 N   0  0  0  0  0  0  0  0  0  0  0  0
   -1.4358    1.2709    1.3786 C   0  0  2  0  0  0  0  0  0  0  0  0
   -0.4193    2.3383    0.8654 C   0  0  0  0  0  0  0  0  0  0  0  0
   -0.4644    3.4471    1.3962 O   0  0  0  0  0  0  0  0  0  0  0  0
   -2.7252    1.1493    0.5544 C   0  0  0  0  0  0  0  0  0  0  0  0
   -1.7028    2.5418    3.0695 H   0  0  0  0  0  0  0  0  0  0  0  0
   -0.9190    0.3058    1.3763 H   0  0  0  0  0  0  0  0  0  0  0  0
   -3.2111    2.1252    0.4568 H   0  0  0  0  0  0  0  0  0  0  0  0
   -2.5184    0.7502   -0.4416 H   0  0  0  0  0  0  0  0  0  0  0  0
   -3.4245    0.4636    1.0436 H   0  0  0  0  0  0  0  0  0  0  0  0
    0.4578    2.1648   -0.2346 N   0  0  0  0  0  0  0  0  0  0  0  0
    0.4651    0.8600   -1.0455 C   0  0  2  0  0  0  0  0  0  0  0  0
    1.8892    0.2855   -1.3192 C   0  0  0  0  0  0  0  0  0  0  0  0
    2.1555   -0.7450   -0.7172 O   0  0  0  0  0  0  0  0  0  0  0  0
    0.1180    1.5640   -2.3707 C   0  0  0  0  0  0  0  0  0  0  0  0
   -0.6102    2.7359   -1.7954 C   0  0  0  0  0  0  0  0  0  0  0  0
    0.5495    3.3966   -1.1815 C   0  0  0  0  0  0  0  0  0  0  0  0
   -0.2513    0.0931   -0.7393 H   0  0  0  0  0  0  0  0  0  0  0  0
   -0.5564    0.9333   -2.9595 H   0  0  0  0  0  0  0  0  0  0  0  0
    0.9196    1.8763   -3.0444 H   0  0  0  0  0  0  0  0  0  0  0  0
   -0.9453    3.3682   -2.6240 H   0  0  0  0  0  0  0  0  0  0  0  0
   -1.5313    2.5449   -1.2403 H   0  0  0  0  0  0  0  0  0  0  0  0
    1.4705    3.4750   -1.7705 H   0  0  0  0  0  0  0  0  0  0  0  0
    0.3138    4.3668   -0.7302 H   0  0  0  0  0  0  0  0  0  0  0  0
    2.8291    0.7624   -2.2283 N   0  0  0  0  0  0  0  0  0  0  0  0
    4.1733    0.2138   -2.5072 C   0  0  2  0  0  0  0  0  0  0  0  0
    4.1716   -1.1637   -3.2108 C   0  0  0  0  0  0  0  0  0  0  0  0
    4.6712   -1.2705   -4.3233 O   0  0  0  0  0  0  0  0  0  0  0  0
    5.0464    0.1925   -1.2436 C   0  0  0  0  0  0  0  0  0  0  0  0
    2.5884    1.6313   -2.6929 H   0  0  0  0  0  0  0  0  0  0  0  0
    4.6550    0.9057   -3.2061 H   0  0  0  0  0  0  0  0  0  0  0  0
    4.6907   -0.5500   -0.5233 H   0  0  0  0  0  0  0  0  0  0  0  0
    6.0785   -0.0591   -1.5077 H   0  0  0  0  0  0  0  0  0  0  0  0
    5.0422    1.1749   -0.7618 H   0  0  0  0  0  0  0  0  0  0  0  0
    3.5942   -2.2693   -2.6191 N   0  0  0  0  0  0  0  0  0  0  0  0
    3.4806   -3.5716   -3.2603 C   0  0  0  0  0  0  0  0  0  0  0  0
    3.0928   -2.0955   -1.7440 H   0  0  0  0  0  0  0  0  0  0  0  0
    2.8153   -3.5142   -4.1279 H   0  0  0  0  0  0  0  0  0  0  0  0
    4.4636   -3.9239   -3.5904 H   0  0  0  0  0  0  0  0  0  0  0  0
    3.0729   -4.3033   -2.5561 H   0  0  0  0  0  0  0  0  0  0  0  0
  1  2  2  0  0  0  0
  1  3  1  0  0  0  0
  1  7  1  0  0  0  0
  3  4  1  0  0  0  0
  3  5  1  0  0  0  0
  3  6  1  0  0  0  0
  7  8  1  0  0  0  0
  7 12  1  0  0  0  0
  8  9  1  0  0  0  0
  8 11  1  0  0  0  0
  8 13  1  0  0  0  0
  9 10  2  0  0  0  0
  9 17  1  0  0  0  0
 11 14  1  0  0  0  0
 11 15  1  0  0  0  0
 11 16  1  0  0  0  0
 17 18  1  0  0  0  0
 17 23  1  0  0  0  0
 18 19  1  0  0  0  0
 18 21  1  0  0  0  0
 18 24  1  0  0  0  0
 19 20  2  0  0  0  0
 19 31  1  0  0  0  0
 21 22  1  0  0  0  0
 21 25  1  0  0  0  0
 21 26  1  0  0  0  0
 22 23  1  0  0  0  0
 22 27  1  0  0  0  0
 22 28  1  0  0  0  0
 23 29  1  0  0  0  0
 23 30  1  0  0  0  0
 31 32  1  0  0  0  0
 31 36  1  0  0  0  0
 32 33  1  0  0  0  0
 32 35  1  0  0  0  0
 32 37  1  0  0  0  0
 33 34  2  0  0  0  0
 33 41  1  0  0  0  0
 35 38  1  0  0  0  0
 35 39  1  0  0  0  0
 35 40  1  0  0  0  0
 41 42  1  0  0  0  0
 41 43  1  0  0  0  0
 42 44  1  0  0  0  0
 42 45  1  0  0  0  0
 42 46  1  0  0  0  0
M  END
$$$$

  -OEChem-05262217223D

 46 46  0     1  0  0  0  0  0999 V2000
   -2.2739    0.6949    3.7318 C   0  0  0  0  0  0  0  0  0  0  0  0
   -2.2644   -0.4976    3.4710 O   0  0  0  0  0  0  0  0  0  0  0  0
   -2.6141    1.1657    5.1336 C   0  0  0  0  0  0  0  0  0  0  0  0
   -3.4666    1.8487    5.1021 H   0  0  0  0  0  0  0  0  0  0  0  0
   -2.8709    0.3118    5.7669 H   0  0  0  0  0  0  0  0  0  0  0  0
   -1.7567    1.6838    5.5707 H   0  0  0  0  0  0  0  0  0  0  0  0
   -1.9773    1.6184    2.7513 N   0  0  0  0  0  0  0  0  0  0  0  0
   -1.5056    1.2830    1.3994 C   0  0  2  0  0  0  0  0  0  0  0  0
   -0.5160    2.3735    0.8840 C   0  0  0  0  0  0  0  0  0  0  0  0
   -0.6336    3.5010    1.3612 O   0  0  0  0  0  0  0  0  0  0  0  0
   -2.7586    1.0888    0.5351 C   0  0  0  0  0  0  0  0  0  0  0  0
   -1.9064    2.5960    3.0322 H   0  0  0  0  0  0  0  0  0  0  0  0
   -0.9539    0.3387    1.4446 H   0  0  0  0  0  0  0  0  0  0  0  0
   -3.2668    2.0453    0.3775 H   0  0  0  0  0  0  0  0  0  0  0  0
   -2.5027    0.6538   -0.4341 H   0  0  0  0  0  0  0  0  0  0  0  0
   -3.4563    0.4040    1.0283 H   0  0  0  0  0  0  0  0  0  0  0  0
    0.4194    2.1927   -0.1649 N   0  0  0  0  0  0  0  0  0  0  0  0
    0.5278    0.8559   -0.9135 C   0  0  2  0  0  0  0  0  0  0  0  0
    1.9831    0.3379   -1.0985 C   0  0  0  0  0  0  0  0  0  0  0  0
    2.2057   -0.7946   -0.6951 O   0  0  0  0  0  0  0  0  0  0  0  0
    0.2314    1.4747   -2.2894 C   0  0  0  0  0  0  0  0  0  0  0  0
   -0.5784    2.6371   -1.8086 C   0  0  0  0  0  0  0  0  0  0  0  0
    0.5084    3.3830   -1.1638 C   0  0  0  0  0  0  0  0  0  0  0  0
   -0.1707    0.0712   -0.6103 H   0  0  0  0  0  0  0  0  0  0  0  0
   -0.3802    0.7878   -2.8836 H   0  0  0  0  0  0  0  0  0  0  0  0
    1.0666    1.7812   -2.9267 H   0  0  0  0  0  0  0  0  0  0  0  0
   -0.8957    3.2139   -2.6832 H   0  0  0  0  0  0  0  0  0  0  0  0
   -1.5194    2.4263   -1.2944 H   0  0  0  0  0  0  0  0  0  0  0  0
    1.4556    3.4811   -1.7062 H   0  0  0  0  0  0  0  0  0  0  0  0
    0.2001    4.3596   -0.7745 H   0  0  0  0  0  0  0  0  0  0  0  0
    2.9981    1.0123   -1.7690 N   0  0  0  0  0  0  0  0  0  0  0  0
    4.3979    0.5769   -1.9623 C   0  0  2  0  0  0  0  0  0  0  0  0
    4.5825   -0.6229   -2.9201 C   0  0  0  0  0  0  0  0  0  0  0  0
    5.3676   -0.5291   -3.8544 O   0  0  0  0  0  0  0  0  0  0  0  0
    5.0935    0.3176   -0.6187 C   0  0  0  0  0  0  0  0  0  0  0  0
    2.7730    1.9615   -2.0489 H   0  0  0  0  0  0  0  0  0  0  0  0
    4.9240    1.4151   -2.4309 H   0  0  0  0  0  0  0  0  0  0  0  0
    4.6924   -0.5735   -0.1274 H   0  0  0  0  0  0  0  0  0  0  0  0
    6.1655    0.1639   -0.7768 H   0  0  0  0  0  0  0  0  0  0  0  0
    4.9616    1.1737    0.0499 H   0  0  0  0  0  0  0  0  0  0  0  0
    3.8806   -1.7983   -2.7452 N   0  0  0  0  0  0  0  0  0  0  0  0
    4.0281   -2.9723   -3.5936 C   0  0  0  0  0  0  0  0  0  0  0  0
    3.2411   -1.8280   -1.9467 H   0  0  0  0  0  0  0  0  0  0  0  0
    3.7852   -2.7269   -4.6328 H   0  0  0  0  0  0  0  0  0  0  0  0
    5.0556   -3.3484   -3.5501 H   0  0  0  0  0  0  0  0  0  0  0  0
    3.3535   -3.7660   -3.2587 H   0  0  0  0  0  0  0  0  0  0  0  0
  1  2  2  0  0  0  0
  1  3  1  0  0  0  0
  1  7  1  0  0  0  0
  3  4  1  0  0  0  0
  3  5  1  0  0  0  0
  3  6  1  0  0  0  0
  7  8  1  0  0  0  0
  7 12  1  0  0  0  0
  8  9  1  0  0  0  0
  8 11  1  0  0  0  0
  8 13  1  0  0  0  0
  9 10  2  0  0  0  0
  9 17  1  0  0  0  0
 11 14  1  0  0  0  0
 11 15  1  0  0  0  0
 11 16  1  0  0  0  0
 17 18  1  0  0  0  0
 17 23  1  0  0  0  0
 18 19  1  0  0  0  0
 18 21  1  0  0  0  0
 18 24  1  0  0  0  0
 19 20  2  0  0  0  0
 19 31  1  0  0  0  0
 21 22  1  0  0  0  0
 21 25  1  0  0  0  0
 21 26  1  0  0  0  0
 22 23  1  0  0  0  0
 22 27  1  0  0  0  0
 22 28  1  0  0  0  0
 23 29  1  0  0  0  0
 23 30  1  0  0  0  0
 31 32  1  0  0  0  0
 31 36  1  0  0  0  0
 32 33  1  0  0  0  0
 32 35  1  0  0  0  0
 32 37  1  0  0  0  0
 33 34  2  0  0  0  0
 33 41  1  0  0  0  0
 35 38  1  0  0  0  0
 35 39  1  0  0  0  0
 35 40  1  0  0  0  0
 41 42  1  0  0  0  0
 41 43  1  0  0  0  0
 42 44  1  0  0  0  0
 42 45  1  0  0  0  0
 42 46  1  0  0  0  0
M  END
$$$$

  -OEChem-05262217223D

 46 46  0     1  0  0  0  0  0999 V2000
   -1.5339   -0.1226    2.1605 C   0  0  0  0  0  0  0  0  0  0  0  0
   -2.1643   -0.7843    1.3517 O   0  0  0  0  0  0  0  0  0  0  0  0
   -0.7797   -0.8112    3.2814 C   0  0  0  0  0  0  0  0  0  0  0  0
   -1.0537   -0.3736    4.2445 H   0  0  0  0  0  0  0  0  0  0  0  0
   -1.0218   -1.8777    3.2982 H   0  0  0  0  0  0  0  0  0  0  0  0
    0.2966   -0.6983    3.1282 H   0  0  0  0  0  0  0  0  0  0  0  0
   -1.4720    1.2513    2.0300 N   0  0  0  0  0  0  0  0  0  0  0  0
   -2.1084    2.0200    0.9448 C   0  0  2  0  0  0  0  0  0  0  0  0
   -1.1055    2.9785    0.2408 C   0  0  0  0  0  0  0  0  0  0  0  0
   -1.2984    4.1890    0.2980 O   0  0  0  0  0  0  0  0  0  0  0  0
   -3.3094    2.7507    1.5614 C   0  0  0  0  0  0  0  0  0  0  0  0
   -0.9309    1.7568    2.7271 H   0  0  0  0  0  0  0  0  0  0  0  0
   -2.4980    1.3474    0.1745 H   0  0  0  0  0  0  0  0  0  0  0  0
   -2.9807    3.4509    2.3362 H   0  0  0  0  0  0  0  0  0  0  0  0
   -3.8486    3.3130    0.7924 H   0  0  0  0  0  0  0  0  0  0  0  0
   -4.0015    2.0314    2.0100 H   0  0  0  0  0  0  0  0  0  0  0  0
   -0.0151    2.5231   -0.5361 N   0  0  0  0  0  0  0  0  0  0  0  0
    0.2605    1.0234   -0.7504 C   0  0  2  0  0  0  0  0  0  0  0  0
    1.7396    0.6172   -0.5469 C   0  0  0  0  0  0  0  0  0  0  0  0
    1.9686   -0.4187    0.0624 O   0  0  0  0  0  0  0  0  0  0  0  0
    0.1520    1.0713   -2.2767 C   0  0  0  0  0  0  0  0  0  0  0  0
   -0.7750    2.2436   -2.3351 C   0  0  0  0  0  0  0  0  0  0  0  0
    0.1524    3.2844   -1.8811 C   0  0  0  0  0  0  0  0  0  0  0  0
   -0.4415    0.3282   -0.2872 H   0  0  0  0  0  0  0  0  0  0  0  0
   -0.3256    0.1624   -2.6580 H   0  0  0  0  0  0  0  0  0  0  0  0
    1.0764    1.2183   -2.8478 H   0  0  0  0  0  0  0  0  0  0  0  0
   -0.9994    2.4463   -3.3873 H   0  0  0  0  0  0  0  0  0  0  0  0
   -1.7688    2.1057   -1.8846 H   0  0  0  0  0  0  0  0  0  0  0  0
    1.1599    3.2873   -2.3106 H   0  0  0  0  0  0  0  0  0  0  0  0
   -0.2712    4.2940   -1.9183 H   0  0  0  0  0  0  0  0  0  0  0  0
    2.7950    1.3521   -1.0710 N   0  0  0  0  0  0  0  0  0  0  0  0
    4.2411    1.0904   -0.9174 C   0  0  2  0  0  0  0  0  0  0  0  0
    4.7572   -0.1745   -1.6422 C   0  0  0  0  0  0  0  0  0  0  0  0
    5.7518   -0.0954   -2.3509 O   0  0  0  0  0  0  0  0  0  0  0  0
    4.6483    1.0775    0.5620 C   0  0  0  0  0  0  0  0  0  0  0  0
    2.5293    2.2395   -1.4878 H   0  0  0  0  0  0  0  0  0  0  0  0
    4.7626    1.9343   -1.3811 H   0  0  0  0  0  0  0  0  0  0  0  0
    4.2533    0.1965    1.0760 H   0  0  0  0  0  0  0  0  0  0  0  0
    5.7393    1.0603    0.6481 H   0  0  0  0  0  0  0  0  0  0  0  0
    4.2752    1.9732    1.0674 H   0  0  0  0  0  0  0  0  0  0  0  0
    4.1224   -1.3926   -1.5054 N   0  0  0  0  0  0  0  0  0  0  0  0
    4.5769   -2.6259   -2.1317 C   0  0  0  0  0  0  0  0  0  0  0  0
    3.3165   -1.4138   -0.8752 H   0  0  0  0  0  0  0  0  0  0  0  0
    4.6185   -2.5103   -3.2197 H   0  0  0  0  0  0  0  0  0  0  0  0
    5.5732   -2.8959   -1.7665 H   0  0  0  0  0  0  0  0  0  0  0  0
    3.8884   -3.4433   -1.8972 H   0  0  0  0  0  0  0  0  0  0  0  0
  1  2  2  0  0  0  0
  1  3  1  0  0  0  0
  1  7  1  0  0  0  0
  3  4  1  0  0  0  0
  3  5  1  0  0  0  0
  3  6  1  0  0  0  0
  7  8  1  0  0  0  0
  7 12  1  0  0  0  0
  8  9  1  0  0  0  0
  8 11  1  0  0  0  0
  8 13  1  0  0  0  0
  9 10  2  0  0  0  0
  9 17  1  0  0  0  0
 11 14  1  0  0  0  0
 11 15  1  0  0  0  0
 11 16  1  0  0  0  0
 17 18  1  0  0  0  0
 17 23  1  0  0  0  0
 18 19  1  0  0  0  0
 18 21  1  0  0  0  0
 18 24  1  0  0  0  0
 19 20  2  0  0  0  0
 19 31  1  0  0  0  0
 21 22  1  0  0  0  0
 21 25  1  0  0  0  0
 21 26  1  0  0  0  0
 22 23  1  0  0  0  0
 22 27  1  0  0  0  0
 22 28  1  0  0  0  0
 23 29  1  0  0  0  0
 23 30  1  0  0  0  0
 31 32  1  0  0  0  0
 31 36  1  0  0  0  0
 32 33  1  0  0  0  0
 32 35  1  0  0  0  0
 32 37  1  0  0  0  0
 33 34  2  0  0  0  0
 33 41  1  0  0  0  0
 35 38  1  0  0  0  0
 35 39  1  0  0  0  0
 35 40  1  0  0  0  0
 41 42  1  0  0  0  0
 41 43  1  0  0  0  0
 42 44  1  0  0  0  0
 42 45  1  0  0  0  0
 42 46  1  0  0  0  0
M  END
$$$$

  -OEChem-05262217223D

 46 46  0     1  0  0  0  0  0999 V2000
   -1.3858    0.5587    2.9525 C   0  0  0  0  0  0  0  0  0  0  0  0
   -0.6676   -0.1592    2.2759 O   0  0  0  0  0  0  0  0  0  0  0  0
   -1.2857    0.5322    4.4660 C   0  0  0  0  0  0  0  0  0  0  0  0
   -2.2680    0.3367    4.9030 H   0  0  0  0  0  0  0  0  0  0  0  0
   -0.5967   -0.2556    4.7837 H   0  0  0  0  0  0  0  0  0  0  0  0
   -0.9154    1.4928    4.8327 H   0  0  0  0  0  0  0  0  0  0  0  0
   -2.2630    1.4241    2.3324 N   0  0  0  0  0  0  0  0  0  0  0  0
   -2.2701    1.6405    0.8800 C   0  0  2  0  0  0  0  0  0  0  0  0
   -1.1361    2.6138    0.4519 C   0  0  0  0  0  0  0  0  0  0  0  0
   -1.3062    3.8073    0.6883 O   0  0  0  0  0  0  0  0  0  0  0  0
   -3.6557    2.1791    0.5020 C   0  0  0  0  0  0  0  0  0  0  0  0
   -2.7030    2.1268    2.9205 H   0  0  0  0  0  0  0  0  0  0  0  0
   -2.1600    0.6855    0.3656 H   0  0  0  0  0  0  0  0  0  0  0  0
   -3.8636    3.1201    1.0214 H   0  0  0  0  0  0  0  0  0  0  0  0
   -3.7114    2.3596   -0.5756 H   0  0  0  0  0  0  0  0  0  0  0  0
   -4.4305    1.4549    0.7717 H   0  0  0  0  0  0  0  0  0  0  0  0
    0.0426    2.2393   -0.2353 N   0  0  0  0  0  0  0  0  0  0  0  0
    0.3575    0.7885   -0.6588 C   0  0  2  0  0  0  0  0  0  0  0  0
    1.7927    0.3141   -0.3403 C   0  0  0  0  0  0  0  0  0  0  0  0
    2.0384   -0.8848   -0.3777 O   0  0  0  0  0  0  0  0  0  0  0  0
    0.4771    1.0901   -2.1517 C   0  0  0  0  0  0  0  0  0  0  0  0
   -0.4385    2.2729   -2.1471 C   0  0  0  0  0  0  0  0  0  0  0  0
    0.4073    3.2054   -1.3953 C   0  0  0  0  0  0  0  0  0  0  0  0
   -0.3855    0.0300   -0.4066 H   0  0  0  0  0  0  0  0  0  0  0  0
    0.0735    0.2663   -2.7494 H   0  0  0  0  0  0  0  0  0  0  0  0
    1.4837    1.3123   -2.5307 H   0  0  0  0  0  0  0  0  0  0  0  0
   -0.5110    2.6514   -3.1716 H   0  0  0  0  0  0  0  0  0  0  0  0
   -1.4848    2.0776   -1.8666 H   0  0  0  0  0  0  0  0  0  0  0  0
    1.4686    3.2564   -1.6637 H   0  0  0  0  0  0  0  0  0  0  0  0
   -0.0087    4.2169   -1.3310 H   0  0  0  0  0  0  0  0  0  0  0  0
    2.8381    1.2258   -0.3121 N   0  0  0  0  0  0  0  0  0  0  0  0
    4.2788    0.9423   -0.1505 C   0  0  2  0  0  0  0  0  0  0  0  0
    4.9431    0.2641   -1.3710 C   0  0  0  0  0  0  0  0  0  0  0  0
    5.9791    0.7275   -1.8302 O   0  0  0  0  0  0  0  0  0  0  0  0
    4.5479    0.1439    1.1322 C   0  0  0  0  0  0  0  0  0  0  0  0
    2.5434    2.1981   -0.2649 H   0  0  0  0  0  0  0  0  0  0  0  0
    4.7784    1.9093   -0.0322 H   0  0  0  0  0  0  0  0  0  0  0  0
    4.1838   -0.8840    1.0445 H   0  0  0  0  0  0  0  0  0  0  0  0
    5.6236    0.1078    1.3306 H   0  0  0  0  0  0  0  0  0  0  0  0
    4.0534    0.6166    1.9861 H   0  0  0  0  0  0  0  0  0  0  0  0
    4.3873   -0.8550   -1.9576 N   0  0  0  0  0  0  0  0  0  0  0  0
    4.9796   -1.5750   -3.0757 C   0  0  0  0  0  0  0  0  0  0  0  0
    3.5428   -1.2225   -1.5105 H   0  0  0  0  0  0  0  0  0  0  0  0
    5.1185   -0.9072   -3.9323 H   0  0  0  0  0  0  0  0  0  0  0  0
    5.9512   -1.9911   -2.7900 H   0  0  0  0  0  0  0  0  0  0  0  0
    4.3259   -2.3974   -3.3819 H   0  0  0  0  0  0  0  0  0  0  0  0
  1  2  2  0  0  0  0
  1  3  1  0  0  0  0
  1  7  1  0  0  0  0
  3  4  1  0  0  0  0
  3  5  1  0  0  0  0
  3  6  1  0  0  0  0
  7  8  1  0  0  0  0
  7 12  1  0  0  0  0
  8  9  1  0  0  0  0
  8 11  1  0  0  0  0
  8 13  1  0  0  0  0
  9 10  2  0  0  0  0
  9 17  1  0  0  0  0
 11 14  1  0  0  0  0
 11 15  1  0  0  0  0
 11 16  1  0  0  0  0
 17 18  1  0  0  0  0
 17 23  1  0  0  0  0
 18 19  1  0  0  0  0
 18 21  1  0  0  0  0
 18 24  1  0  0  0  0
 19 20  2  0  0  0  0
 19 31  1  0  0  0  0
 21 22  1  0  0  0  0
 21 25  1  0  0  0  0
 21 26  1  0  0  0  0
 22 23  1  0  0  0  0
 22 27  1  0  0  0  0
 22 28  1  0  0  0  0
 23 29  1  0  0  0  0
 23 30  1  0  0  0  0
 31 32  1  0  0  0  0
 31 36  1  0  0  0  0
 32 33  1  0  0  0  0
 32 35  1  0  0  0  0
 32 37  1  0  0  0  0
 33 34  2  0  0  0  0
 33 41  1  0  0  0  0
 35 38  1  0  0  0  0
 35 39  1  0  0  0  0
 35 40  1  0  0  0  0
 41 42  1  0  0  0  0
 41 43  1  0  0  0  0
 42 44  1  0  0  0  0
 42 45  1  0  0  0  0
 42 46  1  0  0  0  0
M  END
$$$$

  -OEChem-05262217223D

 46 46  0     1  0  0  0  0  0999 V2000
   -1.5420    0.5915    2.9301 C   0  0  0  0  0  0  0  0  0  0  0  0
   -0.7776   -0.1093    2.2865 O   0  0  0  0  0  0  0  0  0  0  0  0
   -1.5305    0.5430    4.4462 C   0  0  0  0  0  0  0  0  0  0  0  0
   -2.5212    0.2712    4.8189 H   0  0  0  0  0  0  0  0  0  0  0  0
   -0.8077   -0.2005    4.7944 H   0  0  0  0  0  0  0  0  0  0  0  0
   -1.2518    1.5197    4.8495 H   0  0  0  0  0  0  0  0  0  0  0  0
   -2.3937    1.4560    2.2737 N   0  0  0  0  0  0  0  0  0  0  0  0
   -2.3340    1.6853    0.8245 C   0  0  2  0  0  0  0  0  0  0  0  0
   -1.1583    2.6318    0.4525 C   0  0  0  0  0  0  0  0  0  0  0  0
   -1.3128    3.8300    0.6739 O   0  0  0  0  0  0  0  0  0  0  0  0
   -3.6880    2.2620    0.3923 C   0  0  0  0  0  0  0  0  0  0  0  0
   -2.8772    2.1434    2.8454 H   0  0  0  0  0  0  0  0  0  0  0  0
   -2.2274    0.7315    0.3074 H   0  0  0  0  0  0  0  0  0  0  0  0
   -3.8974    3.2014    0.9143 H   0  0  0  0  0  0  0  0  0  0  0  0
   -3.6902    2.4572   -0.6844 H   0  0  0  0  0  0  0  0  0  0  0  0
   -4.4907    1.5528    0.6171 H   0  0  0  0  0  0  0  0  0  0  0  0
    0.0430    2.2262   -0.1733 N   0  0  0  0  0  0  0  0  0  0  0  0
    0.3364    0.7652   -0.5745 C   0  0  2  0  0  0  0  0  0  0  0  0
    1.7375    0.2510   -0.1857 C   0  0  0  0  0  0  0  0  0  0  0  0
    2.0350   -0.9153   -0.4134 O   0  0  0  0  0  0  0  0  0  0  0  0
    0.5654    1.0747   -2.0526 C   0  0  0  0  0  0  0  0  0  0  0  0
   -0.3079    2.2899   -2.1087 C   0  0  0  0  0  0  0  0  0  0  0  0
    0.5202    3.1857   -1.2943 C   0  0  0  0  0  0  0  0  0  0  0  0
   -0.4419    0.0267   -0.3776 H   0  0  0  0  0  0  0  0  0  0  0  0
    0.1792    0.2681   -2.6844 H   0  0  0  0  0  0  0  0  0  0  0  0
    1.6049    1.2643   -2.3549 H   0  0  0  0  0  0  0  0  0  0  0  0
   -0.2963    2.6739   -3.1338 H   0  0  0  0  0  0  0  0  0  0  0  0
   -1.3772    2.1332   -1.8975 H   0  0  0  0  0  0  0  0  0  0  0  0
    1.5994    3.1973   -1.4876 H   0  0  0  0  0  0  0  0  0  0  0  0
    0.1393    4.2117   -1.2466 H   0  0  0  0  0  0  0  0  0  0  0  0
    2.7139    1.1614    0.1863 N   0  0  0  0  0  0  0  0  0  0  0  0
    4.1342    0.8923    0.4858 C   0  0  2  0  0  0  0  0  0  0  0  0
    4.9828    0.4870   -0.7414 C   0  0  0  0  0  0  0  0  0  0  0  0
    6.0263    1.0817   -0.9783 O   0  0  0  0  0  0  0  0  0  0  0  0
    4.2773   -0.1365    1.6158 C   0  0  0  0  0  0  0  0  0  0  0  0
    2.3670    2.1044    0.3493 H   0  0  0  0  0  0  0  0  0  0  0  0
    4.5628    1.8303    0.8537 H   0  0  0  0  0  0  0  0  0  0  0  0
    3.9591   -1.1312    1.2904 H   0  0  0  0  0  0  0  0  0  0  0  0
    5.3231   -0.2006    1.9320 H   0  0  0  0  0  0  0  0  0  0  0  0
    3.6717    0.1581    2.4782 H   0  0  0  0  0  0  0  0  0  0  0  0
    4.5799   -0.5275   -1.5862 N   0  0  0  0  0  0  0  0  0  0  0  0
    5.3274   -0.9666   -2.7554 C   0  0  0  0  0  0  0  0  0  0  0  0
    3.7028   -0.9950   -1.3411 H   0  0  0  0  0  0  0  0  0  0  0  0
    5.4328   -0.1461   -3.4729 H   0  0  0  0  0  0  0  0  0  0  0  0
    6.3248   -1.3117   -2.4640 H   0  0  0  0  0  0  0  0  0  0  0  0
    4.8049   -1.7931   -3.2470 H   0  0  0  0  0  0  0  0  0  0  0  0
  1  2  2  0  0  0  0
  1  3  1  0  0  0  0
  1  7  1  0  0  0  0
  3  4  1  0  0  0  0
  3  5  1  0  0  0  0
  3  6  1  0  0  0  0
  7  8  1  0  0  0  0
  7 12  1  0  0  0  0
  8  9  1  0  0  0  0
  8 11  1  0  0  0  0
  8 13  1  0  0  0  0
  9 10  2  0  0  0  0
  9 17  1  0  0  0  0
 11 14  1  0  0  0  0
 11 15  1  0  0  0  0
 11 16  1  0  0  0  0
 17 18  1  0  0  0  0
 17 23  1  0  0  0  0
 18 19  1  0  0  0  0
 18 21  1  0  0  0  0
 18 24  1  0  0  0  0
 19 20  2  0  0  0  0
 19 31  1  0  0  0  0
 21 22  1  0  0  0  0
 21 25  1  0  0  0  0
 21 26  1  0  0  0  0
 22 23  1  0  0  0  0
 22 27  1  0  0  0  0
 22 28  1  0  0  0  0
 23 29  1  0  0  0  0
 23 30  1  0  0  0  0
 31 32  1  0  0  0  0
 31 36  1  0  0  0  0
 32 33  1  0  0  0  0
 32 35  1  0  0  0  0
 32 37  1  0  0  0  0
 33 34  2  0  0  0  0
 33 41  1  0  0  0  0
 35 38  1  0  0  0  0
 35 39  1  0  0  0  0
 35 40  1  0  0  0  0
 41 42  1  0  0  0  0
 41 43  1  0  0  0  0
 42 44  1  0  0  0  0
 42 45  1  0  0  0  0
 42 46  1  0  0  0  0
M  END
$$$$

  -OEChem-05262217223D

 46 46  0     1  0  0  0  0  0999 V2000
   -1.6878    0.5977    2.8879 C   0  0  0  0  0  0  0  0  0  0  0  0
   -0.9112   -0.1032    2.2589 O   0  0  0  0  0  0  0  0  0  0  0  0
   -1.7156    0.5396    4.4034 C   0  0  0  0  0  0  0  0  0  0  0  0
   -2.7246    0.3038    4.7504 H   0  0  0  0  0  0  0  0  0  0  0  0
   -1.0304   -0.2328    4.7637 H   0  0  0  0  0  0  0  0  0  0  0  0
   -1.4098    1.5025    4.8199 H   0  0  0  0  0  0  0  0  0  0  0  0
   -2.5108    1.4782    2.2166 N   0  0  0  0  0  0  0  0  0  0  0  0
   -2.3984    1.7325    0.7746 C   0  0  2  0  0  0  0  0  0  0  0  0
   -1.1865    2.6535    0.4583 C   0  0  0  0  0  0  0  0  0  0  0  0
   -1.3145    3.8510    0.6985 O   0  0  0  0  0  0  0  0  0  0  0  0
   -3.7215    2.3554    0.3119 C   0  0  0  0  0  0  0  0  0  0  0  0
   -3.0081    2.1601    2.7830 H   0  0  0  0  0  0  0  0  0  0  0  0
   -2.3010    0.7863    0.2423 H   0  0  0  0  0  0  0  0  0  0  0  0
   -3.9250    3.2859    0.8520 H   0  0  0  0  0  0  0  0  0  0  0  0
   -3.6815    2.5794   -0.7585 H   0  0  0  0  0  0  0  0  0  0  0  0
   -4.5492    1.6619    0.4892 H   0  0  0  0  0  0  0  0  0  0  0  0
    0.0249    2.2250   -0.1315 N   0  0  0  0  0  0  0  0  0  0  0  0
    0.2912    0.7617   -0.5433 C   0  0  2  0  0  0  0  0  0  0  0  0
    1.6634    0.2032   -0.1142 C   0  0  0  0  0  0  0  0  0  0  0  0
    2.0296   -0.8978   -0.5101 O   0  0  0  0  0  0  0  0  0  0  0  0
    0.5917    1.0960   -2.0035 C   0  0  0  0  0  0  0  0  0  0  0  0
   -0.2406    2.3384   -2.0761 C   0  0  0  0  0  0  0  0  0  0  0  0
    0.5799    3.1907   -1.2085 C   0  0  0  0  0  0  0  0  0  0  0  0
   -0.5147    0.0420   -0.3940 H   0  0  0  0  0  0  0  0  0  0  0  0
    0.2106    0.3136   -2.6680 H   0  0  0  0  0  0  0  0  0  0  0  0
    1.6492    1.2595   -2.2557 H   0  0  0  0  0  0  0  0  0  0  0  0
   -0.1721    2.7396   -3.0923 H   0  0  0  0  0  0  0  0  0  0  0  0
   -1.3223    2.2128   -1.9133 H   0  0  0  0  0  0  0  0  0  0  0  0
    1.6670    3.1713   -1.3508 H   0  0  0  0  0  0  0  0  0  0  0  0
    0.2288    4.2269   -1.1553 H   0  0  0  0  0  0  0  0  0  0  0  0
    2.5305    1.0239    0.5875 N   0  0  0  0  0  0  0  0  0  0  0  0
    3.8871    0.7000    1.0717 C   0  0  2  0  0  0  0  0  0  0  0  0
    4.9495    0.5392   -0.0404 C   0  0  0  0  0  0  0  0  0  0  0  0
    6.0250    1.1146    0.0635 O   0  0  0  0  0  0  0  0  0  0  0  0
    3.8628   -0.5303    1.9888 C   0  0  0  0  0  0  0  0  0  0  0  0
    2.1292    1.9183    0.8633 H   0  0  0  0  0  0  0  0  0  0  0  0
    4.2148    1.5470    1.6831 H   0  0  0  0  0  0  0  0  0  0  0  0
    3.6454   -1.4421    1.4247 H   0  0  0  0  0  0  0  0  0  0  0  0
    4.8354   -0.6547    2.4749 H   0  0  0  0  0  0  0  0  0  0  0  0
    3.1001   -0.4110    2.7642 H   0  0  0  0  0  0  0  0  0  0  0  0
    4.7099   -0.2412   -1.1537 N   0  0  0  0  0  0  0  0  0  0  0  0
    5.6773   -0.4678   -2.2175 C   0  0  0  0  0  0  0  0  0  0  0  0
    3.8160   -0.7397   -1.1688 H   0  0  0  0  0  0  0  0  0  0  0  0
    5.9871    0.4835   -2.6622 H   0  0  0  0  0  0  0  0  0  0  0  0
    6.5626   -0.9799   -1.8269 H   0  0  0  0  0  0  0  0  0  0  0  0
    5.2342   -1.0882   -3.0023 H   0  0  0  0  0  0  0  0  0  0  0  0
  1  2  2  0  0  0  0
  1  3  1  0  0  0  0
  1  7  1  0  0  0  0
  3  4  1  0  0  0  0
  3  5  1  0  0  0  0
  3  6  1  0  0  0  0
  7  8  1  0  0  0  0
  7 12  1  0  0  0  0
  8  9  1  0  0  0  0
  8 11  1  0  0  0  0
  8 13  1  0  0  0  0
  9 10  2  0  0  0  0
  9 17  1  0  0  0  0
 11 14  1  0  0  0  0
 11 15  1  0  0  0  0
 11 16  1  0  0  0  0
 17 18  1  0  0  0  0
 17 23  1  0  0  0  0
 18 19  1  0  0  0  0
 18 21  1  0  0  0  0
 18 24  1  0  0  0  0
 19 20  2  0  0  0  0
 19 31  1  0  0  0  0
 21 22  1  0  0  0  0
 21 25  1  0  0  0  0
 21 26  1  0  0  0  0
 22 23  1  0  0  0  0
 22 27  1  0  0  0  0
 22 28  1  0  0  0  0
 23 29  1  0  0  0  0
 23 30  1  0  0  0  0
 31 32  1  0  0  0  0
 31 36  1  0  0  0  0
 32 33  1  0  0  0  0
 32 35  1  0  0  0  0
 32 37  1  0  0  0  0
 33 34  2  0  0  0  0
 33 41  1  0  0  0  0
 35 38  1  0  0  0  0
 35 39  1  0  0  0  0
 35 40  1  0  0  0  0
 41 42  1  0  0  0  0
 41 43  1  0  0  0  0
 42 44  1  0  0  0  0
 42 45  1  0  0  0  0
 42 46  1  0  0  0  0
M  END
$$$$

  -OEChem-05262217223D

 46 46  0     1  0  0  0  0  0999 V2000
   -1.8309    0.5988    2.8487 C   0  0  0  0  0  0  0  0  0  0  0  0
   -1.0315   -0.0876    2.2315 O   0  0  0  0  0  0  0  0  0  0  0  0
   -1.9212    0.4949    4.3596 C   0  0  0  0  0  0  0  0  0  0  0  0
   -2.9525    0.2939    4.6601 H   0  0  0  0  0  0  0  0  0  0  0  0
   -1.2853   -0.3187    4.7201 H   0  0  0  0  0  0  0  0  0  0  0  0
   -1.5909    1.4303    4.8183 H   0  0  0  0  0  0  0  0  0  0  0  0
   -2.6197    1.5055    2.1711 N   0  0  0  0  0  0  0  0  0  0  0  0
   -2.4519    1.7952    0.7411 C   0  0  2  0  0  0  0  0  0  0  0  0
   -1.2022    2.6847    0.4896 C   0  0  0  0  0  0  0  0  0  0  0  0
   -1.2991    3.8772    0.7666 O   0  0  0  0  0  0  0  0  0  0  0  0
   -3.7376    2.4745    0.2534 C   0  0  0  0  0  0  0  0  0  0  0  0
   -3.1294    2.1789    2.7368 H   0  0  0  0  0  0  0  0  0  0  0  0
   -2.3670    0.8604    0.1869 H   0  0  0  0  0  0  0  0  0  0  0  0
   -3.9246    3.4012    0.8059 H   0  0  0  0  0  0  0  0  0  0  0  0
   -3.6573    2.7177   -0.8105 H   0  0  0  0  0  0  0  0  0  0  0  0
   -4.5944    1.8081    0.3921 H   0  0  0  0  0  0  0  0  0  0  0  0
    0.0119    2.2339   -0.0778 N   0  0  0  0  0  0  0  0  0  0  0  0
    0.2439    0.7759   -0.5275 C   0  0  2  0  0  0  0  0  0  0  0  0
    1.5869    0.1653   -0.0725 C   0  0  0  0  0  0  0  0  0  0  0  0
    2.0320   -0.8438   -0.6101 O   0  0  0  0  0  0  0  0  0  0  0  0
    0.5971    1.1529   -1.9668 C   0  0  0  0  0  0  0  0  0  0  0  0
   -0.1923    2.4238   -2.0237 C   0  0  0  0  0  0  0  0  0  0  0  0
    0.6326    3.2152   -1.1022 C   0  0  0  0  0  0  0  0  0  0  0  0
   -0.5869    0.0771   -0.4242 H   0  0  0  0  0  0  0  0  0  0  0  0
    0.2135    0.4057   -2.6693 H   0  0  0  0  0  0  0  0  0  0  0  0
    1.6658    1.2919   -2.1830 H   0  0  0  0  0  0  0  0  0  0  0  0
   -0.0801    2.8568   -3.0227 H   0  0  0  0  0  0  0  0  0  0  0  0
   -1.2821    2.3294   -1.8961 H   0  0  0  0  0  0  0  0  0  0  0  0
    1.7225    3.1604   -1.2111 H   0  0  0  0  0  0  0  0  0  0  0  0
    0.3180    4.2613   -1.0216 H   0  0  0  0  0  0  0  0  0  0  0  0
    2.3026    0.8083    0.9223 N   0  0  0  0  0  0  0  0  0  0  0  0
    3.5709    0.3796    1.5445 C   0  0  2  0  0  0  0  0  0  0  0  0
    4.8039    0.4349    0.6122 C   0  0  0  0  0  0  0  0  0  0  0  0
    5.8356    0.9643    1.0051 O   0  0  0  0  0  0  0  0  0  0  0  0
    3.4246   -1.0091    2.1814 C   0  0  0  0  0  0  0  0  0  0  0  0
    1.8357    1.6251    1.3118 H   0  0  0  0  0  0  0  0  0  0  0  0
    3.7763    1.0831    2.3577 H   0  0  0  0  0  0  0  0  0  0  0  0
    3.3221   -1.7866    1.4187 H   0  0  0  0  0  0  0  0  0  0  0  0
    4.3072   -1.2391    2.7860 H   0  0  0  0  0  0  0  0  0  0  0  0
    2.5431   -1.0383    2.8292 H   0  0  0  0  0  0  0  0  0  0  0  0
    4.7684   -0.1057   -0.6576 N   0  0  0  0  0  0  0  0  0  0  0  0
    5.9023   -0.1281   -1.5704 C   0  0  0  0  0  0  0  0  0  0  0  0
    3.9002   -0.5807   -0.9180 H   0  0  0  0  0  0  0  0  0  0  0  0
    6.2609    0.8886   -1.7619 H   0  0  0  0  0  0  0  0  0  0  0  0
    6.7221   -0.7179   -1.1476 H   0  0  0  0  0  0  0  0  0  0  0  0
    5.6085   -0.5758   -2.5245 H   0  0  0  0  0  0  0  0  0  0  0  0
  1  2  2  0  0  0  0
  1  3  1  0  0  0  0
  1  7  1  0  0  0  0
  3  4  1  0  0  0  0
  3  5  1  0  0  0  0
  3  6  1  0  0  0  0
  7  8  1  0  0  0  0
  7 12  1  0  0  0  0
  8  9  1  0  0  0  0
  8 11  1  0  0  0  0
  8 13  1  0  0  0  0
  9 10  2  0  0  0  0
  9 17  1  0  0  0  0
 11 14  1  0  0  0  0
 11 15  1  0  0  0  0
 11 16  1  0  0  0  0
 17 18  1  0  0  0  0
 17 23  1  0  0  0  0
 18 19  1  0  0  0  0
 18 21  1  0  0  0  0
 18 24  1  0  0  0  0
 19 20  2  0  0  0  0
 19 31  1  0  0  0  0
 21 22  1  0  0  0  0
 21 25  1  0  0  0  0
 21 26  1  0  0  0  0
 22 23  1  0  0  0  0
 22 27  1  0  0  0  0
 22 28  1  0  0  0  0
 23 29  1  0  0  0  0
 23 30  1  0  0  0  0
 31 32  1  0  0  0  0
 31 36  1  0  0  0  0
 32 33  1  0  0  0  0
 32 35  1  0  0  0  0
 32 37  1  0  0  0  0
 33 34  2  0  0  0  0
 33 41  1  0  0  0  0
 35 38  1  0  0  0  0
 35 39  1  0  0  0  0
 35 40  1  0  0  0  0
 41 42  1  0  0  0  0
 41 43  1  0  0  0  0
 42 44  1  0  0  0  0
 42 45  1  0  0  0  0
 42 46  1  0  0  0  0
M  END
$$$$

  -OEChem-05262217223D

 46 46  0     1  0  0  0  0  0999 V2000
   -1.9184    0.6247    2.8292 C   0  0  0  0  0  0  0  0  0  0  0  0
   -1.0710   -0.0207    2.2318 O   0  0  0  0  0  0  0  0  0  0  0  0
   -2.0816    0.4694    4.3292 C   0  0  0  0  0  0  0  0  0  0  0  0
   -3.1174    0.2159    4.5681 H   0  0  0  0  0  0  0  0  0  0  0  0
   -1.4316   -0.3283    4.6999 H   0  0  0  0  0  0  0  0  0  0  0  0
   -1.8169    1.4026    4.8327 H   0  0  0  0  0  0  0  0  0  0  0  0
   -2.7008    1.5293    2.1416 N   0  0  0  0  0  0  0  0  0  0  0  0
   -2.4942    1.8510    0.7231 C   0  0  2  0  0  0  0  0  0  0  0  0
   -1.2196    2.7180    0.5183 C   0  0  0  0  0  0  0  0  0  0  0  0
   -1.2955    3.9037    0.8283 O   0  0  0  0  0  0  0  0  0  0  0  0
   -3.7551    2.5706    0.2264 C   0  0  0  0  0  0  0  0  0  0  0  0
   -3.2535    2.1729    2.7015 H   0  0  0  0  0  0  0  0  0  0  0  0
   -2.4183    0.9273    0.1499 H   0  0  0  0  0  0  0  0  0  0  0  0
   -3.9283    3.4910    0.7938 H   0  0  0  0  0  0  0  0  0  0  0  0
   -3.6510    2.8320   -0.8310 H   0  0  0  0  0  0  0  0  0  0  0  0
   -4.6306    1.9237    0.3378 H   0  0  0  0  0  0  0  0  0  0  0  0
   -0.0070    2.2542   -0.0431 N   0  0  0  0  0  0  0  0  0  0  0  0
    0.1973    0.8047   -0.5326 C   0  0  2  0  0  0  0  0  0  0  0  0
    1.5215    0.1546   -0.0677 C   0  0  0  0  0  0  0  0  0  0  0  0
    2.0633   -0.7375   -0.7145 O   0  0  0  0  0  0  0  0  0  0  0  0
    0.5719    1.2194   -1.9575 C   0  0  0  0  0  0  0  0  0  0  0  0
   -0.1875    2.5081   -1.9855 C   0  0  0  0  0  0  0  0  0  0  0  0
    0.6477    3.2506   -1.0316 C   0  0  0  0  0  0  0  0  0  0  0  0
   -0.6500    0.1222   -0.4580 H   0  0  0  0  0  0  0  0  0  0  0  0
    0.1787    0.5029   -2.6860 H   0  0  0  0  0  0  0  0  0  0  0  0
    1.6450    1.3425   -2.1622 H   0  0  0  0  0  0  0  0  0  0  0  0
   -0.0524    2.9670   -2.9701 H   0  0  0  0  0  0  0  0  0  0  0  0
   -1.2802    2.4358   -1.8734 H   0  0  0  0  0  0  0  0  0  0  0  0
    1.7373    3.1730   -1.1296 H   0  0  0  0  0  0  0  0  0  0  0  0
    0.3580    4.3011   -0.9218 H   0  0  0  0  0  0  0  0  0  0  0  0
    2.0549    0.5642    1.1414 N   0  0  0  0  0  0  0  0  0  0  0  0
    3.1917   -0.0254    1.8760 C   0  0  2  0  0  0  0  0  0  0  0  0
    4.5736    0.1600    1.2069 C   0  0  0  0  0  0  0  0  0  0  0  0
    5.5208    0.5536    1.8757 O   0  0  0  0  0  0  0  0  0  0  0  0
    2.9287   -1.5036    2.1925 C   0  0  0  0  0  0  0  0  0  0  0  0
    1.4858    1.2504    1.6333 H   0  0  0  0  0  0  0  0  0  0  0  0
    3.2501    0.4996    2.8347 H   0  0  0  0  0  0  0  0  0  0  0  0
    2.9543   -2.1147    1.2856 H   0  0  0  0  0  0  0  0  0  0  0  0
    3.6928   -1.8810    2.8790 H   0  0  0  0  0  0  0  0  0  0  0  0
    1.9486   -1.6216    2.6650 H   0  0  0  0  0  0  0  0  0  0  0  0
    4.7686   -0.1225   -0.1302 N   0  0  0  0  0  0  0  0  0  0  0  0
    6.0437    0.0139   -0.8191 C   0  0  0  0  0  0  0  0  0  0  0  0
    3.9562   -0.4851   -0.6356 H   0  0  0  0  0  0  0  0  0  0  0  0
    6.3933    1.0505   -0.7740 H   0  0  0  0  0  0  0  0  0  0  0  0
    6.7983   -0.6339   -0.3613 H   0  0  0  0  0  0  0  0  0  0  0  0
    5.9356   -0.2693   -1.8703 H   0  0  0  0  0  0  0  0  0  0  0  0
  1  2  2  0  0  0  0
  1  3  1  0  0  0  0
  1  7  1  0  0  0  0
  3  4  1  0  0  0  0
  3  5  1  0  0  0  0
  3  6  1  0  0  0  0
  7  8  1  0  0  0  0
  7 12  1  0  0  0  0
  8  9  1  0  0  0  0
  8 11  1  0  0  0  0
  8 13  1  0  0  0  0
  9 10  2  0  0  0  0
  9 17  1  0  0  0  0
 11 14  1  0  0  0  0
 11 15  1  0  0  0  0
 11 16  1  0  0  0  0
 17 18  1  0  0  0  0
 17 23  1  0  0  0  0
 18 19  1  0  0  0  0
 18 21  1  0  0  0  0
 18 24  1  0  0  0  0
 19 20  2  0  0  0  0
 19 31  1  0  0  0  0
 21 22  1  0  0  0  0
 21 25  1  0  0  0  0
 21 26  1  0  0  0  0
 22 23  1  0  0  0  0
 22 27  1  0  0  0  0
 22 28  1  0  0  0  0
 23 29  1  0  0  0  0
 23 30  1  0  0  0  0
 31 32  1  0  0  0  0
 31 36  1  0  0  0  0
 32 33  1  0  0  0  0
 32 35  1  0  0  0  0
 32 37  1  0  0  0  0
 33 34  2  0  0  0  0
 33 41  1  0  0  0  0
 35 38  1  0  0  0  0
 35 39  1  0  0  0  0
 35 40  1  0  0  0  0
 41 42  1  0  0  0  0
 41 43  1  0  0  0  0
 42 44  1  0  0  0  0
 42 45  1  0  0  0  0
 42 46  1  0  0  0  0
M  END
$$$$

  -OEChem-05262217223D

 46 46  0     1  0  0  0  0  0999 V2000
   -1.9996    0.7136    2.8478 C   0  0  0  0  0  0  0  0  0  0  0  0
   -1.0415    0.1652    2.3224 O   0  0  0  0  0  0  0  0  0  0  0  0
   -2.2400    0.5604    4.3375 C   0  0  0  0  0  0  0  0  0  0  0  0
   -3.2441    0.1681    4.5169 H   0  0  0  0  0  0  0  0  0  0  0  0
   -1.5105   -0.1309    4.7687 H   0  0  0  0  0  0  0  0  0  0  0  0
   -2.1404    1.5295    4.8326 H   0  0  0  0  0  0  0  0  0  0  0  0
   -2.8336    1.5135    2.0922 N   0  0  0  0  0  0  0  0  0  0  0  0
   -2.5482    1.8694    0.6948 C   0  0  2  0  0  0  0  0  0  0  0  0
   -1.2524    2.7238    0.5823 C   0  0  0  0  0  0  0  0  0  0  0  0
   -1.3294    3.8958    0.9417 O   0  0  0  0  0  0  0  0  0  0  0  0
   -3.7694    2.6241    0.1526 C   0  0  0  0  0  0  0  0  0  0  0  0
   -3.4967    2.0888    2.6044 H   0  0  0  0  0  0  0  0  0  0  0  0
   -2.4550    0.9574    0.1071 H   0  0  0  0  0  0  0  0  0  0  0  0
   -3.9655    3.5244    0.7443 H   0  0  0  0  0  0  0  0  0  0  0  0
   -3.6003    2.9251   -0.8859 H   0  0  0  0  0  0  0  0  0  0  0  0
   -4.6577    1.9859    0.1865 H   0  0  0  0  0  0  0  0  0  0  0  0
   -0.0304    2.2678    0.0325 N   0  0  0  0  0  0  0  0  0  0  0  0
    0.1641    0.8449   -0.5365 C   0  0  2  0  0  0  0  0  0  0  0  0
    1.4609    0.1346   -0.0684 C   0  0  0  0  0  0  0  0  0  0  0  0
    2.1272   -0.5867   -0.8069 O   0  0  0  0  0  0  0  0  0  0  0  0
    0.5776    1.3441   -1.9260 C   0  0  0  0  0  0  0  0  0  0  0  0
   -0.1607    2.6436   -1.8967 C   0  0  0  0  0  0  0  0  0  0  0  0
    0.6647    3.3100   -0.8789 C   0  0  0  0  0  0  0  0  0  0  0  0
   -0.6972    0.1769   -0.5266 H   0  0  0  0  0  0  0  0  0  0  0  0
    0.1936    0.6796   -2.7064 H   0  0  0  0  0  0  0  0  0  0  0  0
    1.6553    1.4685   -2.1011 H   0  0  0  0  0  0  0  0  0  0  0  0
    0.0061    3.1598   -2.8476 H   0  0  0  0  0  0  0  0  0  0  0  0
   -1.2565    2.5825   -1.8161 H   0  0  0  0  0  0  0  0  0  0  0  0
    1.7549    3.2192   -0.9560 H   0  0  0  0  0  0  0  0  0  0  0  0
    0.3918    4.3575   -0.7124 H   0  0  0  0  0  0  0  0  0  0  0  0
    1.7714    0.2161    1.2774 N   0  0  0  0  0  0  0  0  0  0  0  0
    2.7742   -0.5705    2.0244 C   0  0  2  0  0  0  0  0  0  0  0  0
    4.2536   -0.2933    1.6665 C   0  0  0  0  0  0  0  0  0  0  0  0
    5.0838   -0.2077    2.5630 O   0  0  0  0  0  0  0  0  0  0  0  0
    2.4648   -2.0705    1.9352 C   0  0  0  0  0  0  0  0  0  0  0  0
    1.0340    0.6551    1.8320 H   0  0  0  0  0  0  0  0  0  0  0  0
    2.6670   -0.2851    3.0756 H   0  0  0  0  0  0  0  0  0  0  0  0
    2.6446   -2.4521    0.9259 H   0  0  0  0  0  0  0  0  0  0  0  0
    3.1034   -2.6263    2.6291 H   0  0  0  0  0  0  0  0  0  0  0  0
    1.4199   -2.2582    2.2002 H   0  0  0  0  0  0  0  0  0  0  0  0
    4.6733   -0.1860    0.3556 N   0  0  0  0  0  0  0  0  0  0  0  0
    6.0629   -0.0201   -0.0461 C   0  0  0  0  0  0  0  0  0  0  0  0
    3.9580   -0.3515   -0.3567 H   0  0  0  0  0  0  0  0  0  0  0  0
    6.4767    0.8991    0.3812 H   0  0  0  0  0  0  0  0  0  0  0  0
    6.6637   -0.8698    0.2942 H   0  0  0  0  0  0  0  0  0  0  0  0
    6.1351    0.0421   -1.1360 H   0  0  0  0  0  0  0  0  0  0  0  0
  1  2  2  0  0  0  0
  1  3  1  0  0  0  0
  1  7  1  0  0  0  0
  3  4  1  0  0  0  0
  3  5  1  0  0  0  0
  3  6  1  0  0  0  0
  7  8  1  0  0  0  0
  7 12  1  0  0  0  0
  8  9  1  0  0  0  0
  8 11  1  0  0  0  0
  8 13  1  0  0  0  0
  9 10  2  0  0  0  0
  9 17  1  0  0  0  0
 11 14  1  0  0  0  0
 11 15  1  0  0  0  0
 11 16  1  0  0  0  0
 17 18  1  0  0  0  0
 17 23  1  0  0  0  0
 18 19  1  0  0  0  0
 18 21  1  0  0  0  0
 18 24  1  0  0  0  0
 19 20  2  0  0  0  0
 19 31  1  0  0  0  0
 21 22  1  0  0  0  0
 21 25  1  0  0  0  0
 21 26  1  0  0  0  0
 22 23  1  0  0  0  0
 22 27  1  0  0  0  0
 22 28  1  0  0  0  0
 23 29  1  0  0  0  0
 23 30  1  0  0  0  0
 31 32  1  0  0  0  0
 31 36  1  0  0  0  0
 32 33  1  0  0  0  0
 32 35  1  0  0  0  0
 32 37  1  0  0  0  0
 33 34  2  0  0  0  0
 33 41  1  0  0  0  0
 35 38  1  0  0  0  0
 35 39  1  0  0  0  0
 35 40  1  0  0  0  0
 41 42  1  0  0  0  0
 41 43  1  0  0  0  0
 42 44  1  0  0  0  0
 42 45  1  0  0  0  0
 42 46  1  0  0  0  0
M  END
$$$$

  -OEChem-05262217223D

 46 46  0     1  0  0  0  0  0999 V2000
   -2.1941    0.7651    2.8188 C   0  0  0  0  0  0  0  0  0  0  0  0
   -1.3005    0.1060    2.3058 O   0  0  0  0  0  0  0  0  0  0  0  0
   -2.4665    0.6516    4.3067 C   0  0  0  0  0  0  0  0  0  0  0  0
   -3.5058    0.3597    4.4758 H   0  0  0  0  0  0  0  0  0  0  0  0
   -1.8124   -0.1023    4.7542 H   0  0  0  0  0  0  0  0  0  0  0  0
   -2.2816    1.6121    4.7943 H   0  0  0  0  0  0  0  0  0  0  0  0
   -2.9217    1.6500    2.0492 N   0  0  0  0  0  0  0  0  0  0  0  0
   -2.5728    1.9636    0.6567 C   0  0  2  0  0  0  0  0  0  0  0  0
   -1.2256    2.7384    0.5798 C   0  0  0  0  0  0  0  0  0  0  0  0
   -1.2441    3.9113    0.9448 O   0  0  0  0  0  0  0  0  0  0  0  0
   -3.7306    2.7750    0.0611 C   0  0  0  0  0  0  0  0  0  0  0  0
   -3.5056    2.3126    2.5529 H   0  0  0  0  0  0  0  0  0  0  0  0
   -2.5143    1.0378    0.0863 H   0  0  0  0  0  0  0  0  0  0  0  0
   -3.8854    3.7032    0.6210 H   0  0  0  0  0  0  0  0  0  0  0  0
   -3.5183    3.0325   -0.9807 H   0  0  0  0  0  0  0  0  0  0  0  0
   -4.6565    2.1925    0.0914 H   0  0  0  0  0  0  0  0  0  0  0  0
   -0.0192    2.2123    0.0566 N   0  0  0  0  0  0  0  0  0  0  0  0
    0.1047    0.7823   -0.5160 C   0  0  2  0  0  0  0  0  0  0  0  0
    1.3497   -0.0026   -0.0148 C   0  0  0  0  0  0  0  0  0  0  0  0
    2.1403   -0.5857   -0.7535 O   0  0  0  0  0  0  0  0  0  0  0  0
    0.5571    1.2656   -1.9022 C   0  0  0  0  0  0  0  0  0  0  0  0
   -0.1105    2.6009   -1.8750 C   0  0  0  0  0  0  0  0  0  0  0  0
    0.7413    3.2172   -0.8457 C   0  0  0  0  0  0  0  0  0  0  0  0
   -0.7932    0.1644   -0.5215 H   0  0  0  0  0  0  0  0  0  0  0  0
    0.1454    0.6238   -2.6874 H   0  0  0  0  0  0  0  0  0  0  0  0
    1.6388    1.3433   -2.0767 H   0  0  0  0  0  0  0  0  0  0  0  0
    0.0950    3.1106   -2.8214 H   0  0  0  0  0  0  0  0  0  0  0  0
   -1.2082    2.5978   -1.8087 H   0  0  0  0  0  0  0  0  0  0  0  0
    1.8257    3.0661   -0.9101 H   0  0  0  0  0  0  0  0  0  0  0  0
    0.5260    4.2780   -0.6779 H   0  0  0  0  0  0  0  0  0  0  0  0
    1.4388   -0.2023    1.3518 N   0  0  0  0  0  0  0  0  0  0  0  0
    2.3599   -1.0953    2.0844 C   0  0  2  0  0  0  0  0  0  0  0  0
    3.8582   -0.7137    2.0234 C   0  0  0  0  0  0  0  0  0  0  0  0
    4.5374   -0.7753    3.0408 O   0  0  0  0  0  0  0  0  0  0  0  0
    2.1534   -2.5565    1.6640 C   0  0  0  0  0  0  0  0  0  0  0  0
    0.6256    0.1401    1.8717 H   0  0  0  0  0  0  0  0  0  0  0  0
    2.0801   -1.0243    3.1406 H   0  0  0  0  0  0  0  0  0  0  0  0
    2.5056   -2.7288    0.6429 H   0  0  0  0  0  0  0  0  0  0  0  0
    2.7103   -3.2200    2.3330 H   0  0  0  0  0  0  0  0  0  0  0  0
    1.0929   -2.8205    1.7181 H   0  0  0  0  0  0  0  0  0  0  0  0
    4.4655   -0.3590    0.8356 N   0  0  0  0  0  0  0  0  0  0  0  0
    5.8901   -0.0970    0.6924 C   0  0  0  0  0  0  0  0  0  0  0  0
    3.8759   -0.4112    0.0015 H   0  0  0  0  0  0  0  0  0  0  0  0
    6.1937    0.7320    1.3397 H   0  0  0  0  0  0  0  0  0  0  0  0
    6.4715   -0.9853    0.9595 H   0  0  0  0  0  0  0  0  0  0  0  0
    6.1209    0.1704   -0.3431 H   0  0  0  0  0  0  0  0  0  0  0  0
  1  2  2  0  0  0  0
  1  3  1  0  0  0  0
  1  7  1  0  0  0  0
  3  4  1  0  0  0  0
  3  5  1  0  0  0  0
  3  6  1  0  0  0  0
  7  8  1  0  0  0  0
  7 12  1  0  0  0  0
  8  9  1  0  0  0  0
  8 11  1  0  0  0  0
  8 13  1  0  0  0  0
  9 10  2  0  0  0  0
  9 17  1  0  0  0  0
 11 14  1  0  0  0  0
 11 15  1  0  0  0  0
 11 16  1  0  0  0  0
 17 18  1  0  0  0  0
 17 23  1  0  0  0  0
 18 19  1  0  0  0  0
 18 21  1  0  0  0  0
 18 24  1  0  0  0  0
 19 20  2  0  0  0  0
 19 31  1  0  0  0  0
 21 22  1  0  0  0  0
 21 25  1  0  0  0  0
 21 26  1  0  0  0  0
 22 23  1  0  0  0  0
 22 27  1  0  0  0  0
 22 28  1  0  0  0  0
 23 29  1  0  0  0  0
 23 30  1  0  0  0  0
 31 32  1  0  0  0  0
 31 36  1  0  0  0  0
 32 33  1  0  0  0  0
 32 35  1  0  0  0  0
 32 37  1  0  0  0  0
 33 34  2  0  0  0  0
 33 41  1  0  0  0  0
 35 38  1  0  0  0  0
 35 39  1  0  0  0  0
 35 40  1  0  0  0  0
 41 42  1  0  0  0  0
 41 43  1  0  0  0  0
 42 44  1  0  0  0  0
 42 45  1  0  0  0  0
 42 46  1  0  0  0  0
M  END
$$$$

  -OEChem-05262217223D

 46 46  0     1  0  0  0  0  0999 V2000
   -2.2603    1.2846    2.8490 C   0  0  0  0  0  0  0  0  0  0  0  0
   -1.5431    0.4632    2.2962 O   0  0  0  0  0  0  0  0  0  0  0  0
   -2.5119    1.1814    4.3413 C   0  0  0  0  0  0  0  0  0  0  0  0
   -3.5759    1.0204    4.5314 H   0  0  0  0  0  0  0  0  0  0  0  0
   -1.9483    0.3444    4.7633 H   0  0  0  0  0  0  0  0  0  0  0  0
   -2.1952    2.1023    4.8375 H   0  0  0  0  0  0  0  0  0  0  0  0
   -2.8222    2.3228    2.1314 N   0  0  0  0  0  0  0  0  0  0  0  0
   -2.5021    2.6442    0.7288 C   0  0  2  0  0  0  0  0  0  0  0  0
   -0.9917    3.0205    0.5605 C   0  0  0  0  0  0  0  0  0  0  0  0
   -0.7393    4.1605    0.9411 O   0  0  0  0  0  0  0  0  0  0  0  0
   -3.1665    1.6050   -0.1917 C   0  0  0  0  0  0  0  0  0  0  0  0
   -3.2723    3.0479    2.6836 H   0  0  0  0  0  0  0  0  0  0  0  0
   -3.0232    3.5782    0.4921 H   0  0  0  0  0  0  0  0  0  0  0  0
   -4.2517    1.7426   -0.1669 H   0  0  0  0  0  0  0  0  0  0  0  0
   -2.8396    1.7232   -1.2269 H   0  0  0  0  0  0  0  0  0  0  0  0
   -2.9671    0.5819    0.1355 H   0  0  0  0  0  0  0  0  0  0  0  0
    0.0924    2.2720    0.0284 N   0  0  0  0  0  0  0  0  0  0  0  0
   -0.0211    0.8413   -0.5315 C   0  0  2  0  0  0  0  0  0  0  0  0
    1.0925   -0.1217   -0.0162 C   0  0  0  0  0  0  0  0  0  0  0  0
    1.9672   -0.6414   -0.7054 O   0  0  0  0  0  0  0  0  0  0  0  0
    0.4763    1.2353   -1.9324 C   0  0  0  0  0  0  0  0  0  0  0  0
    0.0346    2.6604   -1.9116 C   0  0  0  0  0  0  0  0  0  0  0  0
    1.0002    3.1254   -0.9016 C   0  0  0  0  0  0  0  0  0  0  0  0
   -0.9989    0.3731   -0.5134 H   0  0  0  0  0  0  0  0  0  0  0  0
   -0.0537    0.6617   -2.6993 H   0  0  0  0  0  0  0  0  0  0  0  0
    1.5484    1.1426   -2.1459 H   0  0  0  0  0  0  0  0  0  0  0  0
    0.3065    3.1204   -2.8670 H   0  0  0  0  0  0  0  0  0  0  0  0
   -1.0427    2.8518   -1.8251 H   0  0  0  0  0  0  0  0  0  0  0  0
    2.0416    2.7898   -0.9800 H   0  0  0  0  0  0  0  0  0  0  0  0
    0.9777    4.2094   -0.7465 H   0  0  0  0  0  0  0  0  0  0  0  0
    0.9498   -0.5584    1.2894 N   0  0  0  0  0  0  0  0  0  0  0  0
    1.6977   -1.6203    1.9936 C   0  0  2  0  0  0  0  0  0  0  0  0
    3.1970   -1.3333    2.2438 C   0  0  0  0  0  0  0  0  0  0  0  0
    3.6976   -1.6411    3.3186 O   0  0  0  0  0  0  0  0  0  0  0  0
    1.5139   -2.9751    1.2973 C   0  0  0  0  0  0  0  0  0  0  0  0
    0.1525   -0.1492    1.7869 H   0  0  0  0  0  0  0  0  0  0  0  0
    1.2437   -1.7080    2.9858 H   0  0  0  0  0  0  0  0  0  0  0  0
    2.0267   -2.9972    0.3315 H   0  0  0  0  0  0  0  0  0  0  0  0
    1.9269   -3.7745    1.9202 H   0  0  0  0  0  0  0  0  0  0  0  0
    0.4513   -3.1772    1.1342 H   0  0  0  0  0  0  0  0  0  0  0  0
    4.0003   -0.7903    1.2612 N   0  0  0  0  0  0  0  0  0  0  0  0
    5.4399   -0.6158    1.3877 C   0  0  0  0  0  0  0  0  0  0  0  0
    3.5541   -0.6503    0.3515 H   0  0  0  0  0  0  0  0  0  0  0  0
    5.6765   -0.0039    2.2646 H   0  0  0  0  0  0  0  0  0  0  0  0
    5.9349   -1.5871    1.4898 H   0  0  0  0  0  0  0  0  0  0  0  0
    5.8366   -0.1148    0.4996 H   0  0  0  0  0  0  0  0  0  0  0  0
  1  2  2  0  0  0  0
  1  3  1  0  0  0  0
  1  7  1  0  0  0  0
  3  4  1  0  0  0  0
  3  5  1  0  0  0  0
  3  6  1  0  0  0  0
  7  8  1  0  0  0  0
  7 12  1  0  0  0  0
  8  9  1  0  0  0  0
  8 11  1  0  0  0  0
  8 13  1  0  0  0  0
  9 10  2  0  0  0  0
  9 17  1  0  0  0  0
 11 14  1  0  0  0  0
 11 15  1  0  0  0  0
 11 16  1  0  0  0  0
 17 18  1  0  0  0  0
 17 23  1  0  0  0  0
 18 19  1  0  0  0  0
 18 21  1  0  0  0  0
 18 24  1  0  0  0  0
 19 20  2  0  0  0  0
 19 31  1  0  0  0  0
 21 22  1  0  0  0  0
 21 25  1  0  0  0  0
 21 26  1  0  0  0  0
 22 23  1  0  0  0  0
 22 27  1  0  0  0  0
 22 28  1  0  0  0  0
 23 29  1  0  0  0  0
 23 30  1  0  0  0  0
 31 32  1  0  0  0  0
 31 36  1  0  0  0  0
 32 33  1  0  0  0  0
 32 35  1  0  0  0  0
 32 37  1  0  0  0  0
 33 34  2  0  0  0  0
 33 41  1  0  0  0  0
 35 38  1  0  0  0  0
 35 39  1  0  0  0  0
 35 40  1  0  0  0  0
 41 42  1  0  0  0  0
 41 43  1  0  0  0  0
 42 44  1  0  0  0  0
 42 45  1  0  0  0  0
 42 46  1  0  0  0  0
M  END
$$$$

  -OEChem-05262217223D

 46 46  0     1  0  0  0  0  0999 V2000
   -2.3582    0.5609    2.5950 C   0  0  0  0  0  0  0  0  0  0  0  0
   -1.9358   -0.2668    1.7998 O   0  0  0  0  0  0  0  0  0  0  0  0
   -2.5090    0.1971    4.0599 C   0  0  0  0  0  0  0  0  0  0  0  0
   -3.5588    0.2651    4.3558 H   0  0  0  0  0  0  0  0  0  0  0  0
   -2.1602   -0.8251    4.2333 H   0  0  0  0  0  0  0  0  0  0  0  0
   -1.9180    0.8777    4.6782 H   0  0  0  0  0  0  0  0  0  0  0  0
   -2.6604    1.8365    2.1645 N   0  0  0  0  0  0  0  0  0  0  0  0
   -2.3533    2.3299    0.8143 C   0  0  2  0  0  0  0  0  0  0  0  0
   -0.8609    2.7531    0.7024 C   0  0  0  0  0  0  0  0  0  0  0  0
   -0.5564    3.8460    1.1726 O   0  0  0  0  0  0  0  0  0  0  0  0
   -3.3066    3.4985    0.5293 C   0  0  0  0  0  0  0  0  0  0  0  0
   -2.8316    2.5290    2.8896 H   0  0  0  0  0  0  0  0  0  0  0  0
   -2.5802    1.5607    0.0756 H   0  0  0  0  0  0  0  0  0  0  0  0
   -3.1796    4.2957    1.2691 H   0  0  0  0  0  0  0  0  0  0  0  0
   -3.1106    3.9153   -0.4634 H   0  0  0  0  0  0  0  0  0  0  0  0
   -4.3458    3.1570    0.5630 H   0  0  0  0  0  0  0  0  0  0  0  0
    0.1414    2.0002    0.0436 N   0  0  0  0  0  0  0  0  0  0  0  0
   -0.1275    0.6520   -0.6588 C   0  0  2  0  0  0  0  0  0  0  0  0
    0.9239   -0.4405   -0.2983 C   0  0  0  0  0  0  0  0  0  0  0  0
    2.0262   -0.5862   -0.8202 O   0  0  0  0  0  0  0  0  0  0  0  0
    0.2951    1.1359   -2.0562 C   0  0  0  0  0  0  0  0  0  0  0  0
   -0.0321    2.5743   -1.8437 C   0  0  0  0  0  0  0  0  0  0  0  0
    1.0354    2.8782   -0.8740 C   0  0  0  0  0  0  0  0  0  0  0  0
   -1.1475    0.2688   -0.6189 H   0  0  0  0  0  0  0  0  0  0  0  0
   -0.3405    0.6878   -2.8262 H   0  0  0  0  0  0  0  0  0  0  0  0
    1.3342    0.9892   -2.3719 H   0  0  0  0  0  0  0  0  0  0  0  0
    0.1994    3.1186   -2.7649 H   0  0  0  0  0  0  0  0  0  0  0  0
   -1.0897    2.8132   -1.6616 H   0  0  0  0  0  0  0  0  0  0  0  0
    2.0394    2.4818   -1.0692 H   0  0  0  0  0  0  0  0  0  0  0  0
    1.1005    3.9399   -0.6129 H   0  0  0  0  0  0  0  0  0  0  0  0
    0.6131   -1.2183    0.8043 N   0  0  0  0  0  0  0  0  0  0  0  0
    1.4316   -2.2638    1.4506 C   0  0  2  0  0  0  0  0  0  0  0  0
    2.6853   -1.7346    2.1830 C   0  0  0  0  0  0  0  0  0  0  0  0
    2.8904   -2.0627    3.3450 O   0  0  0  0  0  0  0  0  0  0  0  0
    1.7989   -3.3824    0.4656 C   0  0  0  0  0  0  0  0  0  0  0  0
   -0.2813   -0.9901    1.2498 H   0  0  0  0  0  0  0  0  0  0  0  0
    0.8006   -2.7185    2.2211 H   0  0  0  0  0  0  0  0  0  0  0  0
    2.5159   -3.0342   -0.2832 H   0  0  0  0  0  0  0  0  0  0  0  0
    2.2507   -4.2208    1.0047 H   0  0  0  0  0  0  0  0  0  0  0  0
    0.9037   -3.7441   -0.0489 H   0  0  0  0  0  0  0  0  0  0  0  0
    3.5817   -0.8980    1.5494 N   0  0  0  0  0  0  0  0  0  0  0  0
    4.7483   -0.3118    2.1931 C   0  0  0  0  0  0  0  0  0  0  0  0
    3.3429   -0.6287    0.5915 H   0  0  0  0  0  0  0  0  0  0  0  0
    4.4405    0.3601    3.0010 H   0  0  0  0  0  0  0  0  0  0  0  0
    5.3906   -1.0946    2.6098 H   0  0  0  0  0  0  0  0  0  0  0  0
    5.3311    0.2621    1.4662 H   0  0  0  0  0  0  0  0  0  0  0  0
  1  2  2  0  0  0  0
  1  3  1  0  0  0  0
  1  7  1  0  0  0  0
  3  4  1  0  0  0  0
  3  5  1  0  0  0  0
  3  6  1  0  0  0  0
  7  8  1  0  0  0  0
  7 12  1  0  0  0  0
  8  9  1  0  0  0  0
  8 11  1  0  0  0  0
  8 13  1  0  0  0  0
  9 10  2  0  0  0  0
  9 17  1  0  0  0  0
 11 14  1  0  0  0  0
 11 15  1  0  0  0  0
 11 16  1  0  0  0  0
 17 18  1  0  0  0  0
 17 23  1  0  0  0  0
 18 19  1  0  0  0  0
 18 21  1  0  0  0  0
 18 24  1  0  0  0  0
 19 20  2  0  0  0  0
 19 31  1  0  0  0  0
 21 22  1  0  0  0  0
 21 25  1  0  0  0  0
 21 26  1  0  0  0  0
 22 23  1  0  0  0  0
 22 27  1  0  0  0  0
 22 28  1  0  0  0  0
 23 29  1  0  0  0  0
 23 30  1  0  0  0  0
 31 32  1  0  0  0  0
 31 36  1  0  0  0  0
 32 33  1  0  0  0  0
 32 35  1  0  0  0  0
 32 37  1  0  0  0  0
 33 34  2  0  0  0  0
 33 41  1  0  0  0  0
 35 38  1  0  0  0  0
 35 39  1  0  0  0  0
 35 40  1  0  0  0  0
 41 42  1  0  0  0  0
 41 43  1  0  0  0  0
 42 44  1  0  0  0  0
 42 45  1  0  0  0  0
 42 46  1  0  0  0  0
M  END
$$$$

  -OEChem-05262217223D

 46 46  0     1  0  0  0  0  0999 V2000
   -2.1811    0.3129    2.3995 C   0  0  0  0  0  0  0  0  0  0  0  0
   -2.1701   -0.4177    1.4186 O   0  0  0  0  0  0  0  0  0  0  0  0
   -2.0914   -0.2911    3.7877 C   0  0  0  0  0  0  0  0  0  0  0  0
   -2.8991    0.0898    4.4172 H   0  0  0  0  0  0  0  0  0  0  0  0
   -2.1731   -1.3803    3.7320 H   0  0  0  0  0  0  0  0  0  0  0  0
   -1.1306   -0.0367    4.2432 H   0  0  0  0  0  0  0  0  0  0  0  0
   -2.2198    1.6849    2.2452 N   0  0  0  0  0  0  0  0  0  0  0  0
   -2.0193    2.3771    0.9615 C   0  0  2  0  0  0  0  0  0  0  0  0
   -0.5017    2.6102    0.7136 C   0  0  0  0  0  0  0  0  0  0  0  0
    0.0059    3.6105    1.2136 O   0  0  0  0  0  0  0  0  0  0  0  0
   -2.8119    3.6892    1.0228 C   0  0  0  0  0  0  0  0  0  0  0  0
   -2.0774    2.2303    3.0922 H   0  0  0  0  0  0  0  0  0  0  0  0
   -2.4474    1.7989    0.1417 H   0  0  0  0  0  0  0  0  0  0  0  0
   -2.4765    4.3100    1.8603 H   0  0  0  0  0  0  0  0  0  0  0  0
   -2.6777    4.2569    0.0969 H   0  0  0  0  0  0  0  0  0  0  0  0
   -3.8787    3.4816    1.1507 H   0  0  0  0  0  0  0  0  0  0  0  0
    0.3053    1.7838   -0.1018 N   0  0  0  0  0  0  0  0  0  0  0  0
   -0.2406    0.5521   -0.8494 C   0  0  2  0  0  0  0  0  0  0  0  0
    0.6542   -0.7051   -0.6883 C   0  0  0  0  0  0  0  0  0  0  0  0
    1.8464   -0.7464   -0.9833 O   0  0  0  0  0  0  0  0  0  0  0  0
    0.1388    1.0567   -2.2473 C   0  0  0  0  0  0  0  0  0  0  0  0
    0.0735    2.5133   -1.9204 C   0  0  0  0  0  0  0  0  0  0  0  0
    1.2508    2.5784   -1.0403 C   0  0  0  0  0  0  0  0  0  0  0  0
   -1.3036    0.3364   -0.7516 H   0  0  0  0  0  0  0  0  0  0  0  0
   -0.6249    0.7746   -2.9788 H   0  0  0  0  0  0  0  0  0  0  0  0
    1.1083    0.7527   -2.6599 H   0  0  0  0  0  0  0  0  0  0  0  0
    0.3130    3.0790   -2.8263 H   0  0  0  0  0  0  0  0  0  0  0  0
   -0.9106    2.9047   -1.6217 H   0  0  0  0  0  0  0  0  0  0  0  0
    2.1580    2.0486   -1.3552 H   0  0  0  0  0  0  0  0  0  0  0  0
    1.5045    3.5944   -0.7200 H   0  0  0  0  0  0  0  0  0  0  0  0
    0.1442   -1.6623    0.1740 N   0  0  0  0  0  0  0  0  0  0  0  0
    0.9174   -2.6199    0.9861 C   0  0  2  0  0  0  0  0  0  0  0  0
    1.7640   -1.9187    2.0721 C   0  0  0  0  0  0  0  0  0  0  0  0
    1.4717   -2.0598    3.2535 O   0  0  0  0  0  0  0  0  0  0  0  0
    1.7582   -3.5771    0.1286 C   0  0  0  0  0  0  0  0  0  0  0  0
   -0.7801   -1.4225    0.5471 H   0  0  0  0  0  0  0  0  0  0  0  0
    0.1883   -3.2410    1.5167 H   0  0  0  0  0  0  0  0  0  0  0  0
    2.6068   -3.0649   -0.3332 H   0  0  0  0  0  0  0  0  0  0  0  0
    2.1505   -4.3872    0.7508 H   0  0  0  0  0  0  0  0  0  0  0  0
    1.1419   -4.0148   -0.6622 H   0  0  0  0  0  0  0  0  0  0  0  0
    2.7741   -1.0453    1.7208 N   0  0  0  0  0  0  0  0  0  0  0  0
    3.4466   -0.1707    2.6705 C   0  0  0  0  0  0  0  0  0  0  0  0
    2.8328   -0.8272    0.7225 H   0  0  0  0  0  0  0  0  0  0  0  0
    2.7436    0.5650    3.0747 H   0  0  0  0  0  0  0  0  0  0  0  0
    3.8664   -0.7512    3.4986 H   0  0  0  0  0  0  0  0  0  0  0  0
    4.2648    0.3624    2.1774 H   0  0  0  0  0  0  0  0  0  0  0  0
  1  2  2  0  0  0  0
  1  3  1  0  0  0  0
  1  7  1  0  0  0  0
  3  4  1  0  0  0  0
  3  5  1  0  0  0  0
  3  6  1  0  0  0  0
  7  8  1  0  0  0  0
  7 12  1  0  0  0  0
  8  9  1  0  0  0  0
  8 11  1  0  0  0  0
  8 13  1  0  0  0  0
  9 10  2  0  0  0  0
  9 17  1  0  0  0  0
 11 14  1  0  0  0  0
 11 15  1  0  0  0  0
 11 16  1  0  0  0  0
 17 18  1  0  0  0  0
 17 23  1  0  0  0  0
 18 19  1  0  0  0  0
 18 21  1  0  0  0  0
 18 24  1  0  0  0  0
 19 20  2  0  0  0  0
 19 31  1  0  0  0  0
 21 22  1  0  0  0  0
 21 25  1  0  0  0  0
 21 26  1  0  0  0  0
 22 23  1  0  0  0  0
 22 27  1  0  0  0  0
 22 28  1  0  0  0  0
 23 29  1  0  0  0  0
 23 30  1  0  0  0  0
 31 32  1  0  0  0  0
 31 36  1  0  0  0  0
 32 33  1  0  0  0  0
 32 35  1  0  0  0  0
 32 37  1  0  0  0  0
 33 34  2  0  0  0  0
 33 41  1  0  0  0  0
 35 38  1  0  0  0  0
 35 39  1  0  0  0  0
 35 40  1  0  0  0  0
 41 42  1  0  0  0  0
 41 43  1  0  0  0  0
 42 44  1  0  0  0  0
 42 45  1  0  0  0  0
 42 46  1  0  0  0  0
M  END
$$$$

  -OEChem-05262217223D

 46 46  0     1  0  0  0  0  0999 V2000
   -2.1679    0.3378    2.3839 C   0  0  0  0  0  0  0  0  0  0  0  0
   -2.2023   -0.3814    1.3952 O   0  0  0  0  0  0  0  0  0  0  0  0
   -2.0841   -0.2867    3.7635 C   0  0  0  0  0  0  0  0  0  0  0  0
   -1.1681    0.0350    4.2659 H   0  0  0  0  0  0  0  0  0  0  0  0
   -2.9464    0.0142    4.3633 H   0  0  0  0  0  0  0  0  0  0  0  0
   -2.0732   -1.3777    3.6856 H   0  0  0  0  0  0  0  0  0  0  0  0
   -2.1679    1.7136    2.2554 N   0  0  0  0  0  0  0  0  0  0  0  0
   -2.0308    2.4434    0.9836 C   0  0  2  0  0  0  0  0  0  0  0  0
   -0.5303    2.7192    0.6719 C   0  0  0  0  0  0  0  0  0  0  0  0
   -0.0367    3.7518    1.1165 O   0  0  0  0  0  0  0  0  0  0  0  0
   -2.8490    3.7350    1.1153 C   0  0  0  0  0  0  0  0  0  0  0  0
   -2.0079    2.2407    3.1105 H   0  0  0  0  0  0  0  0  0  0  0  0
   -2.4844    1.8805    0.1667 H   0  0  0  0  0  0  0  0  0  0  0  0
   -2.4911    4.3404    1.9546 H   0  0  0  0  0  0  0  0  0  0  0  0
   -2.7669    4.3300    0.2004 H   0  0  0  0  0  0  0  0  0  0  0  0
   -3.9047    3.4996    1.2817 H   0  0  0  0  0  0  0  0  0  0  0  0
    0.2697    1.8936   -0.1499 N   0  0  0  0  0  0  0  0  0  0  0  0
   -0.2873    0.6300   -0.8276 C   0  0  2  0  0  0  0  0  0  0  0  0
    0.6049   -0.6294   -0.6949 C   0  0  0  0  0  0  0  0  0  0  0  0
    1.8158   -0.6349   -0.9024 O   0  0  0  0  0  0  0  0  0  0  0  0
    0.0540    1.0935   -2.2493 C   0  0  0  0  0  0  0  0  0  0  0  0
   -0.0140    2.5636   -1.9784 C   0  0  0  0  0  0  0  0  0  0  0  0
    1.1834    2.6685   -1.1325 C   0  0  0  0  0  0  0  0  0  0  0  0
   -1.3476    0.4205   -0.7078 H   0  0  0  0  0  0  0  0  0  0  0  0
   -0.7230    0.7805   -2.9537 H   0  0  0  0  0  0  0  0  0  0  0  0
    1.0176    0.7781   -2.6696 H   0  0  0  0  0  0  0  0  0  0  0  0
    0.1965    3.0959   -2.9114 H   0  0  0  0  0  0  0  0  0  0  0  0
   -0.9913    2.9614   -1.6652 H   0  0  0  0  0  0  0  0  0  0  0  0
    2.0885    2.1392   -1.4540 H   0  0  0  0  0  0  0  0  0  0  0  0
    1.4325    3.6961   -0.8467 H   0  0  0  0  0  0  0  0  0  0  0  0
    0.0158   -1.7084   -0.0557 N   0  0  0  0  0  0  0  0  0  0  0  0
    0.7032   -2.8749    0.5321 C   0  0  2  0  0  0  0  0  0  0  0  0
    1.5831   -2.5259    1.7554 C   0  0  0  0  0  0  0  0  0  0  0  0
    1.3448   -3.0415    2.8405 O   0  0  0  0  0  0  0  0  0  0  0  0
    1.4938   -3.6653   -0.5205 C   0  0  0  0  0  0  0  0  0  0  0  0
   -0.9160   -1.5050    0.3194 H   0  0  0  0  0  0  0  0  0  0  0  0
   -0.0796   -3.5456    0.9009 H   0  0  0  0  0  0  0  0  0  0  0  0
    2.3748   -3.1126   -0.8585 H   0  0  0  0  0  0  0  0  0  0  0  0
    1.8326   -4.6159   -0.0968 H   0  0  0  0  0  0  0  0  0  0  0  0
    0.8618   -3.8787   -1.3874 H   0  0  0  0  0  0  0  0  0  0  0  0
    2.6074   -1.6053    1.6560 N   0  0  0  0  0  0  0  0  0  0  0  0
    3.4039   -1.1447    2.7843 C   0  0  0  0  0  0  0  0  0  0  0  0
    2.6904   -1.1265    0.7550 H   0  0  0  0  0  0  0  0  0  0  0  0
    2.7791   -0.5929    3.4940 H   0  0  0  0  0  0  0  0  0  0  0  0
    3.8627   -1.9934    3.3024 H   0  0  0  0  0  0  0  0  0  0  0  0
    4.2021   -0.4824    2.4359 H   0  0  0  0  0  0  0  0  0  0  0  0
  1  2  2  0  0  0  0
  1  3  1  0  0  0  0
  1  7  1  0  0  0  0
  3  4  1  0  0  0  0
  3  5  1  0  0  0  0
  3  6  1  0  0  0  0
  7  8  1  0  0  0  0
  7 12  1  0  0  0  0
  8  9  1  0  0  0  0
  8 11  1  0  0  0  0
  8 13  1  0  0  0  0
  9 10  2  0  0  0  0
  9 17  1  0  0  0  0
 11 14  1  0  0  0  0
 11 15  1  0  0  0  0
 11 16  1  0  0  0  0
 17 18  1  0  0  0  0
 17 23  1  0  0  0  0
 18 19  1  0  0  0  0
 18 21  1  0  0  0  0
 18 24  1  0  0  0  0
 19 20  2  0  0  0  0
 19 31  1  0  0  0  0
 21 22  1  0  0  0  0
 21 25  1  0  0  0  0
 21 26  1  0  0  0  0
 22 23  1  0  0  0  0
 22 27  1  0  0  0  0
 22 28  1  0  0  0  0
 23 29  1  0  0  0  0
 23 30  1  0  0  0  0
 31 32  1  0  0  0  0
 31 36  1  0  0  0  0
 32 33  1  0  0  0  0
 32 35  1  0  0  0  0
 32 37  1  0  0  0  0
 33 34  2  0  0  0  0
 33 41  1  0  0  0  0
 35 38  1  0  0  0  0
 35 39  1  0  0  0  0
 35 40  1  0  0  0  0
 41 42  1  0  0  0  0
 41 43  1  0  0  0  0
 42 44  1  0  0  0  0
 42 45  1  0  0  0  0
 42 46  1  0  0  0  0
M  END
$$$$

  -OEChem-05262217223D

 46 46  0     1  0  0  0  0  0999 V2000
   -3.1614    1.6162    3.6486 C   0  0  0  0  0  0  0  0  0  0  0  0
   -3.6715    0.5697    3.2791 O   0  0  0  0  0  0  0  0  0  0  0  0
   -3.3971    2.1257    5.0580 C   0  0  0  0  0  0  0  0  0  0  0  0
   -3.8467    3.1212    5.0254 H   0  0  0  0  0  0  0  0  0  0  0  0
   -4.0711    1.4524    5.5949 H   0  0  0  0  0  0  0  0  0  0  0  0
   -2.4487    2.1793    5.5981 H   0  0  0  0  0  0  0  0  0  0  0  0
   -2.3655    2.3351    2.7818 N   0  0  0  0  0  0  0  0  0  0  0  0
   -1.9515    1.8668    1.4518 C   0  0  2  0  0  0  0  0  0  0  0  0
   -0.4947    2.3156    1.1341 C   0  0  0  0  0  0  0  0  0  0  0  0
   -0.0953    3.3359    1.6919 O   0  0  0  0  0  0  0  0  0  0  0  0
   -2.9966    2.3861    0.4555 C   0  0  0  0  0  0  0  0  0  0  0  0
   -1.8710    3.1440    3.1579 H   0  0  0  0  0  0  0  0  0  0  0  0
   -1.9621    0.7731    1.4467 H   0  0  0  0  0  0  0  0  0  0  0  0
   -2.9285    3.4748    0.3631 H   0  0  0  0  0  0  0  0  0  0  0  0
   -2.8574    1.9366   -0.5307 H   0  0  0  0  0  0  0  0  0  0  0  0
   -4.0047    2.1292    0.7971 H   0  0  0  0  0  0  0  0  0  0  0  0
    0.3302    1.7036    0.1621 N   0  0  0  0  0  0  0  0  0  0  0  0
   -0.1694    0.5224   -0.6825 C   0  0  2  0  0  0  0  0  0  0  0  0
    0.7916   -0.6905   -0.8186 C   0  0  0  0  0  0  0  0  0  0  0  0
    2.0092   -0.5623   -0.8990 O   0  0  0  0  0  0  0  0  0  0  0  0
    0.1316    1.2274   -2.0129 C   0  0  0  0  0  0  0  0  0  0  0  0
   -0.0050    2.6410   -1.5306 C   0  0  0  0  0  0  0  0  0  0  0  0
    1.1950    2.6711   -0.6863 C   0  0  0  0  0  0  0  0  0  0  0  0
   -1.2159    0.2403   -0.5513 H   0  0  0  0  0  0  0  0  0  0  0  0
   -0.6377    0.9884   -2.7544 H   0  0  0  0  0  0  0  0  0  0  0  0
    1.1034    1.0295   -2.4852 H   0  0  0  0  0  0  0  0  0  0  0  0
    0.1728    3.3110   -2.3777 H   0  0  0  0  0  0  0  0  0  0  0  0
   -0.9821    2.9583   -1.1504 H   0  0  0  0  0  0  0  0  0  0  0  0
    2.1219    2.2472   -1.0910 H   0  0  0  0  0  0  0  0  0  0  0  0
    1.3953    3.6505   -0.2393 H   0  0  0  0  0  0  0  0  0  0  0  0
    0.2624   -1.9634   -0.6664 N   0  0  0  0  0  0  0  0  0  0  0  0
    0.9877   -3.2513   -0.7335 C   0  0  2  0  0  0  0  0  0  0  0  0
    1.9610   -3.5340    0.4367 C   0  0  0  0  0  0  0  0  0  0  0  0
    1.9644   -4.6432    0.9539 O   0  0  0  0  0  0  0  0  0  0  0  0
    1.6987   -3.4149   -2.0840 C   0  0  0  0  0  0  0  0  0  0  0  0
   -0.7343   -2.0122   -0.4732 H   0  0  0  0  0  0  0  0  0  0  0  0
    0.2274   -4.0378   -0.6818 H   0  0  0  0  0  0  0  0  0  0  0  0
    2.5459   -2.7287   -2.1729 H   0  0  0  0  0  0  0  0  0  0  0  0
    2.0776   -4.4369   -2.1841 H   0  0  0  0  0  0  0  0  0  0  0  0
    1.0039   -3.2219   -2.9069 H   0  0  0  0  0  0  0  0  0  0  0  0
    2.8380   -2.5739    0.8993 N   0  0  0  0  0  0  0  0  0  0  0  0
    3.8163   -2.8005    1.9535 C   0  0  0  0  0  0  0  0  0  0  0  0
    2.8415   -1.6847    0.3926 H   0  0  0  0  0  0  0  0  0  0  0  0
    3.3159   -3.0767    2.8874 H   0  0  0  0  0  0  0  0  0  0  0  0
    4.5050   -3.6032    1.6702 H   0  0  0  0  0  0  0  0  0  0  0  0
    4.3981   -1.8903    2.1286 H   0  0  0  0  0  0  0  0  0  0  0  0
  1  2  2  0  0  0  0
  1  3  1  0  0  0  0
  1  7  1  0  0  0  0
  3  4  1  0  0  0  0
  3  5  1  0  0  0  0
  3  6  1  0  0  0  0
  7  8  1  0  0  0  0
  7 12  1  0  0  0  0
  8  9  1  0  0  0  0
  8 11  1  0  0  0  0
  8 13  1  0  0  0  0
  9 10  2  0  0  0  0
  9 17  1  0  0  0  0
 11 14  1  0  0  0  0
 11 15  1  0  0  0  0
 11 16  1  0  0  0  0
 17 18  1  0  0  0  0
 17 23  1  0  0  0  0
 18 19  1  0  0  0  0
 18 21  1  0  0  0  0
 18 24  1  0  0  0  0
 19 20  2  0  0  0  0
 19 31  1  0  0  0  0
 21 22  1  0  0  0  0
 21 25  1  0  0  0  0
 21 26  1  0  0  0  0
 22 23  1  0  0  0  0
 22 27  1  0  0  0  0
 22 28  1  0  0  0  0
 23 29  1  0  0  0  0
 23 30  1  0  0  0  0
 31 32  1  0  0  0  0
 31 36  1  0  0  0  0
 32 33  1  0  0  0  0
 32 35  1  0  0  0  0
 32 37  1  0  0  0  0
 33 34  2  0  0  0  0
 33 41  1  0  0  0  0
 35 38  1  0  0  0  0
 35 39  1  0  0  0  0
 35 40  1  0  0  0  0
 41 42  1  0  0  0  0
 41 43  1  0  0  0  0
 42 44  1  0  0  0  0
 42 45  1  0  0  0  0
 42 46  1  0  0  0  0
M  END
$$$$

  -OEChem-05262217223D

 46 46  0     1  0  0  0  0  0999 V2000
   -3.0067    1.6071    3.7147 C   0  0  0  0  0  0  0  0  0  0  0  0
   -3.5746    0.5883    3.3525 O   0  0  0  0  0  0  0  0  0  0  0  0
   -3.1932    2.1246    5.1290 C   0  0  0  0  0  0  0  0  0  0  0  0
   -2.2297    2.1629    5.6431 H   0  0  0  0  0  0  0  0  0  0  0  0
   -3.6256    3.1281    5.1058 H   0  0  0  0  0  0  0  0  0  0  0  0
   -3.8641    1.4649    5.6866 H   0  0  0  0  0  0  0  0  0  0  0  0
   -2.1967    2.2911    2.8330 N   0  0  0  0  0  0  0  0  0  0  0  0
   -1.8505    1.8231    1.4836 C   0  0  2  0  0  0  0  0  0  0  0  0
   -0.4093    2.2654    1.0974 C   0  0  0  0  0  0  0  0  0  0  0  0
    0.0226    3.2799    1.6416 O   0  0  0  0  0  0  0  0  0  0  0  0
   -2.9332    2.3576    0.5361 C   0  0  0  0  0  0  0  0  0  0  0  0
   -1.6626    3.0801    3.1969 H   0  0  0  0  0  0  0  0  0  0  0  0
   -1.8700    0.7293    1.4764 H   0  0  0  0  0  0  0  0  0  0  0  0
   -2.8678    3.4476    0.4581 H   0  0  0  0  0  0  0  0  0  0  0  0
   -2.8315    1.9242   -0.4616 H   0  0  0  0  0  0  0  0  0  0  0  0
   -3.9282    2.0964    0.9109 H   0  0  0  0  0  0  0  0  0  0  0  0
    0.3626    1.6565    0.0823 N   0  0  0  0  0  0  0  0  0  0  0  0
   -0.1802    0.4834   -0.7474 C   0  0  2  0  0  0  0  0  0  0  0  0
    0.7550   -0.7369   -0.9505 C   0  0  0  0  0  0  0  0  0  0  0  0
    1.9744   -0.6324   -0.8799 O   0  0  0  0  0  0  0  0  0  0  0  0
    0.0860    1.1895   -2.0822 C   0  0  0  0  0  0  0  0  0  0  0  0
   -0.0171    2.6040   -1.5911 C   0  0  0  0  0  0  0  0  0  0  0  0
    1.2095    2.6188   -0.7871 C   0  0  0  0  0  0  0  0  0  0  0  0
   -1.2241    0.2130   -0.5766 H   0  0  0  0  0  0  0  0  0  0  0  0
   -0.7055    0.9632   -2.8036 H   0  0  0  0  0  0  0  0  0  0  0  0
    1.0446    0.9770   -2.5769 H   0  0  0  0  0  0  0  0  0  0  0  0
    0.1383    3.2751   -2.4417 H   0  0  0  0  0  0  0  0  0  0  0  0
   -0.9770    2.9303   -1.1737 H   0  0  0  0  0  0  0  0  0  0  0  0
    2.1188    2.1882   -1.2235 H   0  0  0  0  0  0  0  0  0  0  0  0
    1.4326    3.5951   -0.3436 H   0  0  0  0  0  0  0  0  0  0  0  0
    0.1903   -1.9943   -1.1036 N   0  0  0  0  0  0  0  0  0  0  0  0
    0.9002   -3.2739   -1.3231 C   0  0  2  0  0  0  0  0  0  0  0  0
    1.7200   -3.7963   -0.1187 C   0  0  0  0  0  0  0  0  0  0  0  0
    1.6219   -4.9730    0.2037 O   0  0  0  0  0  0  0  0  0  0  0  0
    1.7687   -3.2150   -2.5878 C   0  0  0  0  0  0  0  0  0  0  0  0
   -0.8241   -2.0365   -1.0641 H   0  0  0  0  0  0  0  0  0  0  0  0
    0.1294   -4.0299   -1.5064 H   0  0  0  0  0  0  0  0  0  0  0  0
    2.6291   -2.5539   -2.4490 H   0  0  0  0  0  0  0  0  0  0  0  0
    2.1450   -4.2141   -2.8297 H   0  0  0  0  0  0  0  0  0  0  0  0
    1.1819   -2.8519   -3.4367 H   0  0  0  0  0  0  0  0  0  0  0  0
    2.5722   -2.9727    0.5892 N   0  0  0  0  0  0  0  0  0  0  0  0
    3.4138   -3.4205    1.6896 C   0  0  0  0  0  0  0  0  0  0  0  0
    2.6579   -2.0107    0.2499 H   0  0  0  0  0  0  0  0  0  0  0  0
    2.8010   -3.8287    2.4998 H   0  0  0  0  0  0  0  0  0  0  0  0
    4.1103   -4.1936    1.3490 H   0  0  0  0  0  0  0  0  0  0  0  0
    3.9940   -2.5810    2.0843 H   0  0  0  0  0  0  0  0  0  0  0  0
  1  2  2  0  0  0  0
  1  3  1  0  0  0  0
  1  7  1  0  0  0  0
  3  4  1  0  0  0  0
  3  5  1  0  0  0  0
  3  6  1  0  0  0  0
  7  8  1  0  0  0  0
  7 12  1  0  0  0  0
  8  9  1  0  0  0  0
  8 11  1  0  0  0  0
  8 13  1  0  0  0  0
  9 10  2  0  0  0  0
  9 17  1  0  0  0  0
 11 14  1  0  0  0  0
 11 15  1  0  0  0  0
 11 16  1  0  0  0  0
 17 18  1  0  0  0  0
 17 23  1  0  0  0  0
 18 19  1  0  0  0  0
 18 21  1  0  0  0  0
 18 24  1  0  0  0  0
 19 20  2  0  0  0  0
 19 31  1  0  0  0  0
 21 22  1  0  0  0  0
 21 25  1  0  0  0  0
 21 26  1  0  0  0  0
 22 23  1  0  0  0  0
 22 27  1  0  0  0  0
 22 28  1  0  0  0  0
 23 29  1  0  0  0  0
 23 30  1  0  0  0  0
 31 32  1  0  0  0  0
 31 36  1  0  0  0  0
 32 33  1  0  0  0  0
 32 35  1  0  0  0  0
 32 37  1  0  0  0  0
 33 34  2  0  0  0  0
 33 41  1  0  0  0  0
 35 38  1  0  0  0  0
 35 39  1  0  0  0  0
 35 40  1  0  0  0  0
 41 42  1  0  0  0  0
 41 43  1  0  0  0  0
 42 44  1  0  0  0  0
 42 45  1  0  0  0  0
 42 46  1  0  0  0  0
M  END
$$$$

  -OEChem-05262217223D

 46 46  0     1  0  0  0  0  0999 V2000
   -2.8503    1.5610    3.7432 C   0  0  0  0  0  0  0  0  0  0  0  0
   -3.4798    0.5871    3.3601 O   0  0  0  0  0  0  0  0  0  0  0  0
   -2.9969    2.0525    5.1709 C   0  0  0  0  0  0  0  0  0  0  0  0
   -3.2583    3.1137    5.1769 H   0  0  0  0  0  0  0  0  0  0  0  0
   -3.7852    1.4929    5.6823 H   0  0  0  0  0  0  0  0  0  0  0  0
   -2.0572    1.9125    5.7108 H   0  0  0  0  0  0  0  0  0  0  0  0
   -2.0081    2.2194    2.8726 N   0  0  0  0  0  0  0  0  0  0  0  0
   -1.7158    1.7829    1.5004 C   0  0  2  0  0  0  0  0  0  0  0  0
   -0.2806    2.2107    1.0793 C   0  0  0  0  0  0  0  0  0  0  0  0
    0.1844    3.2041    1.6352 O   0  0  0  0  0  0  0  0  0  0  0  0
   -2.8131    2.3714    0.6028 C   0  0  0  0  0  0  0  0  0  0  0  0
   -1.4377    2.9779    3.2461 H   0  0  0  0  0  0  0  0  0  0  0  0
   -1.7606    0.6902    1.4633 H   0  0  0  0  0  0  0  0  0  0  0  0
   -2.7249    3.4618    0.5577 H   0  0  0  0  0  0  0  0  0  0  0  0
   -2.7496    1.9686   -0.4106 H   0  0  0  0  0  0  0  0  0  0  0  0
   -3.8024    2.1202    0.9987 H   0  0  0  0  0  0  0  0  0  0  0  0
    0.4477    1.6186    0.0237 N   0  0  0  0  0  0  0  0  0  0  0  0
   -0.1393    0.4784   -0.8215 C   0  0  2  0  0  0  0  0  0  0  0  0
    0.7610   -0.7521   -1.0951 C   0  0  0  0  0  0  0  0  0  0  0  0
    1.9609   -0.7271   -0.8498 O   0  0  0  0  0  0  0  0  0  0  0  0
    0.1155    1.2140   -2.1415 C   0  0  0  0  0  0  0  0  0  0  0  0
    0.0544    2.6182   -1.6131 C   0  0  0  0  0  0  0  0  0  0  0  0
    1.2975    2.5844   -0.8362 C   0  0  0  0  0  0  0  0  0  0  0  0
   -1.1840    0.2245   -0.6308 H   0  0  0  0  0  0  0  0  0  0  0  0
   -0.6940    1.0240   -2.8535 H   0  0  0  0  0  0  0  0  0  0  0  0
    1.0616    0.9906   -2.6568 H   0  0  0  0  0  0  0  0  0  0  0  0
    0.2054    3.3082   -2.4491 H   0  0  0  0  0  0  0  0  0  0  0  0
   -0.8898    2.9518   -1.1647 H   0  0  0  0  0  0  0  0  0  0  0  0
    2.1879    2.1459   -1.3030 H   0  0  0  0  0  0  0  0  0  0  0  0
    1.5521    3.5428   -0.3715 H   0  0  0  0  0  0  0  0  0  0  0  0
    0.1849   -1.9193   -1.5740 N   0  0  0  0  0  0  0  0  0  0  0  0
    0.8811   -3.1716   -1.9415 C   0  0  2  0  0  0  0  0  0  0  0  0
    1.4894   -3.9614   -0.7582 C   0  0  0  0  0  0  0  0  0  0  0  0
    1.2779   -5.1638   -0.6719 O   0  0  0  0  0  0  0  0  0  0  0  0
    1.9380   -2.9228   -3.0270 C   0  0  0  0  0  0  0  0  0  0  0  0
   -0.8245   -1.9058   -1.6892 H   0  0  0  0  0  0  0  0  0  0  0  0
    0.1260   -3.8302   -2.3833 H   0  0  0  0  0  0  0  0  0  0  0  0
    2.7923   -2.3665   -2.6303 H   0  0  0  0  0  0  0  0  0  0  0  0
    2.3066   -3.8781   -3.4140 H   0  0  0  0  0  0  0  0  0  0  0  0
    1.5070   -2.3557   -3.8573 H   0  0  0  0  0  0  0  0  0  0  0  0
    2.2744   -3.3443    0.1951 N   0  0  0  0  0  0  0  0  0  0  0  0
    2.9098   -4.0411    1.3045 C   0  0  0  0  0  0  0  0  0  0  0  0
    2.4560   -2.3464    0.0560 H   0  0  0  0  0  0  0  0  0  0  0  0
    2.1599   -4.5577    1.9124 H   0  0  0  0  0  0  0  0  0  0  0  0
    3.6303   -4.7762    0.9313 H   0  0  0  0  0  0  0  0  0  0  0  0
    3.4399   -3.3283    1.9434 H   0  0  0  0  0  0  0  0  0  0  0  0
  1  2  2  0  0  0  0
  1  3  1  0  0  0  0
  1  7  1  0  0  0  0
  3  4  1  0  0  0  0
  3  5  1  0  0  0  0
  3  6  1  0  0  0  0
  7  8  1  0  0  0  0
  7 12  1  0  0  0  0
  8  9  1  0  0  0  0
  8 11  1  0  0  0  0
  8 13  1  0  0  0  0
  9 10  2  0  0  0  0
  9 17  1  0  0  0  0
 11 14  1  0  0  0  0
 11 15  1  0  0  0  0
 11 16  1  0  0  0  0
 17 18  1  0  0  0  0
 17 23  1  0  0  0  0
 18 19  1  0  0  0  0
 18 21  1  0  0  0  0
 18 24  1  0  0  0  0
 19 20  2  0  0  0  0
 19 31  1  0  0  0  0
 21 22  1  0  0  0  0
 21 25  1  0  0  0  0
 21 26  1  0  0  0  0
 22 23  1  0  0  0  0
 22 27  1  0  0  0  0
 22 28  1  0  0  0  0
 23 29  1  0  0  0  0
 23 30  1  0  0  0  0
 31 32  1  0  0  0  0
 31 36  1  0  0  0  0
 32 33  1  0  0  0  0
 32 35  1  0  0  0  0
 32 37  1  0  0  0  0
 33 34  2  0  0  0  0
 33 41  1  0  0  0  0
 35 38  1  0  0  0  0
 35 39  1  0  0  0  0
 35 40  1  0  0  0  0
 41 42  1  0  0  0  0
 41 43  1  0  0  0  0
 42 44  1  0  0  0  0
 42 45  1  0  0  0  0
 42 46  1  0  0  0  0
M  END
$$$$

  -OEChem-05262217223D

 46 46  0     1  0  0  0  0  0999 V2000
   -2.2458    0.8204    3.6748 C   0  0  0  0  0  0  0  0  0  0  0  0
   -2.6900   -0.2319    3.2429 O   0  0  0  0  0  0  0  0  0  0  0  0
   -2.2066    1.0750    5.1696 C   0  0  0  0  0  0  0  0  0  0  0  0
   -2.7764    1.9757    5.4106 H   0  0  0  0  0  0  0  0  0  0  0  0
   -2.6415    0.2282    5.7080 H   0  0  0  0  0  0  0  0  0  0  0  0
   -1.1728    1.2073    5.4980 H   0  0  0  0  0  0  0  0  0  0  0  0
   -1.7718    1.7777    2.8031 N   0  0  0  0  0  0  0  0  0  0  0  0
   -1.5934    1.5683    1.3601 C   0  0  2  0  0  0  0  0  0  0  0  0
   -0.2979    2.2522    0.8512 C   0  0  0  0  0  0  0  0  0  0  0  0
    0.0655    3.2703    1.4365 O   0  0  0  0  0  0  0  0  0  0  0  0
   -2.8440    2.1176    0.6642 C   0  0  0  0  0  0  0  0  0  0  0  0
   -1.3127    2.5932    3.2075 H   0  0  0  0  0  0  0  0  0  0  0  0
   -1.5038    0.4960    1.1626 H   0  0  0  0  0  0  0  0  0  0  0  0
   -2.9262    3.1976    0.8241 H   0  0  0  0  0  0  0  0  0  0  0  0
   -2.8116    1.9256   -0.4107 H   0  0  0  0  0  0  0  0  0  0  0  0
   -3.7406    1.6357    1.0671 H   0  0  0  0  0  0  0  0  0  0  0  0
    0.3824    1.8517   -0.3122 N   0  0  0  0  0  0  0  0  0  0  0  0
   -0.1116    0.6952   -1.1858 C   0  0  2  0  0  0  0  0  0  0  0  0
    0.8335   -0.5150   -1.3547 C   0  0  0  0  0  0  0  0  0  0  0  0
    1.9033   -0.5616   -0.7632 O   0  0  0  0  0  0  0  0  0  0  0  0
    0.0950    1.4679   -2.4807 C   0  0  0  0  0  0  0  0  0  0  0  0
   -0.0810    2.8512   -1.9004 C   0  0  0  0  0  0  0  0  0  0  0  0
    1.1478    2.9160   -1.1144 C   0  0  0  0  0  0  0  0  0  0  0  0
   -1.1476    0.3944   -1.0183 H   0  0  0  0  0  0  0  0  0  0  0  0
   -0.6855    1.2360   -3.2124 H   0  0  0  0  0  0  0  0  0  0  0  0
    1.0698    1.3135   -2.9635 H   0  0  0  0  0  0  0  0  0  0  0  0
    0.0037    3.5809   -2.7119 H   0  0  0  0  0  0  0  0  0  0  0  0
   -1.0534    3.0788   -1.4318 H   0  0  0  0  0  0  0  0  0  0  0  0
    2.0782    2.5770   -1.5847 H   0  0  0  0  0  0  0  0  0  0  0  0
    1.3001    3.8780   -0.6140 H   0  0  0  0  0  0  0  0  0  0  0  0
    0.4282   -1.5864   -2.1370 N   0  0  0  0  0  0  0  0  0  0  0  0
    1.1678   -2.8431   -2.3821 C   0  0  2  0  0  0  0  0  0  0  0  0
    1.3141   -3.7598   -1.1448 C   0  0  0  0  0  0  0  0  0  0  0  0
    0.9511   -4.9262   -1.2200 O   0  0  0  0  0  0  0  0  0  0  0  0
    2.5319   -2.5752   -3.0332 C   0  0  0  0  0  0  0  0  0  0  0  0
   -0.5027   -1.5183   -2.5382 H   0  0  0  0  0  0  0  0  0  0  0  0
    0.5821   -3.4144   -3.1098 H   0  0  0  0  0  0  0  0  0  0  0  0
    3.2204   -2.0923   -2.3337 H   0  0  0  0  0  0  0  0  0  0  0  0
    2.9830   -3.5195   -3.3550 H   0  0  0  0  0  0  0  0  0  0  0  0
    2.4153   -1.9311   -3.9100 H   0  0  0  0  0  0  0  0  0  0  0  0
    1.8215   -3.2853    0.0482 N   0  0  0  0  0  0  0  0  0  0  0  0
    1.9158   -4.0776    1.2663 C   0  0  0  0  0  0  0  0  0  0  0  0
    2.0821   -2.2957    0.0693 H   0  0  0  0  0  0  0  0  0  0  0  0
    2.3625   -3.4833    2.0693 H   0  0  0  0  0  0  0  0  0  0  0  0
    0.9212   -4.4033    1.5881 H   0  0  0  0  0  0  0  0  0  0  0  0
    2.5405   -4.9616    1.1008 H   0  0  0  0  0  0  0  0  0  0  0  0
  1  2  2  0  0  0  0
  1  3  1  0  0  0  0
  1  7  1  0  0  0  0
  3  4  1  0  0  0  0
  3  5  1  0  0  0  0
  3  6  1  0  0  0  0
  7  8  1  0  0  0  0
  7 12  1  0  0  0  0
  8  9  1  0  0  0  0
  8 11  1  0  0  0  0
  8 13  1  0  0  0  0
  9 10  2  0  0  0  0
  9 17  1  0  0  0  0
 11 14  1  0  0  0  0
 11 15  1  0  0  0  0
 11 16  1  0  0  0  0
 17 18  1  0  0  0  0
 17 23  1  0  0  0  0
 18 19  1  0  0  0  0
 18 21  1  0  0  0  0
 18 24  1  0  0  0  0
 19 20  2  0  0  0  0
 19 31  1  0  0  0  0
 21 22  1  0  0  0  0
 21 25  1  0  0  0  0
 21 26  1  0  0  0  0
 22 23  1  0  0  0  0
 22 27  1  0  0  0  0
 22 28  1  0  0  0  0
 23 29  1  0  0  0  0
 23 30  1  0  0  0  0
 31 32  1  0  0  0  0
 31 36  1  0  0  0  0
 32 33  1  0  0  0  0
 32 35  1  0  0  0  0
 32 37  1  0  0  0  0
 33 34  2  0  0  0  0
 33 41  1  0  0  0  0
 35 38  1  0  0  0  0
 35 39  1  0  0  0  0
 35 40  1  0  0  0  0
 41 42  1  0  0  0  0
 41 43  1  0  0  0  0
 42 44  1  0  0  0  0
 42 45  1  0  0  0  0
 42 46  1  0  0  0  0
M  END
$$$$

  -OEChem-05262217223D

 46 46  0     1  0  0  0  0  0999 V2000
   -2.1523    0.6898    3.6391 C   0  0  0  0  0  0  0  0  0  0  0  0
   -2.5862   -0.3641    3.2003 O   0  0  0  0  0  0  0  0  0  0  0  0
   -2.0924    0.9266    5.1361 C   0  0  0  0  0  0  0  0  0  0  0  0
   -2.6859    1.8056    5.3980 H   0  0  0  0  0  0  0  0  0  0  0  0
   -2.4895    0.0602    5.6720 H   0  0  0  0  0  0  0  0  0  0  0  0
   -1.0574    1.0887    5.4468 H   0  0  0  0  0  0  0  0  0  0  0  0
   -1.7118    1.6686    2.7740 N   0  0  0  0  0  0  0  0  0  0  0  0
   -1.5557    1.4845    1.3250 C   0  0  2  0  0  0  0  0  0  0  0  0
   -0.3056    2.2377    0.7999 C   0  0  0  0  0  0  0  0  0  0  0  0
    0.0197    3.2643    1.3932 O   0  0  0  0  0  0  0  0  0  0  0  0
   -2.8456    1.9803    0.6605 C   0  0  0  0  0  0  0  0  0  0  0  0
   -1.2612    2.4871    3.1825 H   0  0  0  0  0  0  0  0  0  0  0  0
   -1.4182    0.4200    1.1130 H   0  0  0  0  0  0  0  0  0  0  0  0
   -2.9773    3.0530    0.8353 H   0  0  0  0  0  0  0  0  0  0  0  0
   -2.8245    1.8020   -0.4172 H   0  0  0  0  0  0  0  0  0  0  0  0
   -3.7103    1.4518    1.0748 H   0  0  0  0  0  0  0  0  0  0  0  0
    0.3717    1.8882   -0.3820 N   0  0  0  0  0  0  0  0  0  0  0  0
   -0.0797    0.7209   -1.2645 C   0  0  2  0  0  0  0  0  0  0  0  0
    0.9328   -0.4305   -1.4594 C   0  0  0  0  0  0  0  0  0  0  0  0
    1.8612   -0.5723   -0.6760 O   0  0  0  0  0  0  0  0  0  0  0  0
    0.0581    1.5271   -2.5499 C   0  0  0  0  0  0  0  0  0  0  0  0
   -0.1776    2.8891   -1.9424 C   0  0  0  0  0  0  0  0  0  0  0  0
    1.0633    3.0044   -1.1813 C   0  0  0  0  0  0  0  0  0  0  0  0
   -1.0935    0.3578   -1.0816 H   0  0  0  0  0  0  0  0  0  0  0  0
   -0.7254    1.2669   -3.2687 H   0  0  0  0  0  0  0  0  0  0  0  0
    1.0292    1.4335   -3.0557 H   0  0  0  0  0  0  0  0  0  0  0  0
   -0.1496    3.6355   -2.7423 H   0  0  0  0  0  0  0  0  0  0  0  0
   -1.1499    3.0566   -1.4494 H   0  0  0  0  0  0  0  0  0  0  0  0
    1.9998    2.7223   -1.6766 H   0  0  0  0  0  0  0  0  0  0  0  0
    1.1774    3.9648   -0.6672 H   0  0  0  0  0  0  0  0  0  0  0  0
    0.7388   -1.3599   -2.4717 N   0  0  0  0  0  0  0  0  0  0  0  0
    1.5857   -2.5323   -2.7809 C   0  0  2  0  0  0  0  0  0  0  0  0
    1.5482   -3.6581   -1.7207 C   0  0  0  0  0  0  0  0  0  0  0  0
    1.2999   -4.8038   -2.0730 O   0  0  0  0  0  0  0  0  0  0  0  0
    3.0324   -2.1163   -3.0841 C   0  0  0  0  0  0  0  0  0  0  0  0
   -0.0936   -1.2326   -3.0400 H   0  0  0  0  0  0  0  0  0  0  0  0
    1.1871   -2.9729   -3.7007 H   0  0  0  0  0  0  0  0  0  0  0  0
    3.5438   -1.7659   -2.1827 H   0  0  0  0  0  0  0  0  0  0  0  0
    3.5909   -2.9708   -3.4793 H   0  0  0  0  0  0  0  0  0  0  0  0
    3.0512   -1.3161   -3.8297 H   0  0  0  0  0  0  0  0  0  0  0  0
    1.7791   -3.3950   -0.3856 N   0  0  0  0  0  0  0  0  0  0  0  0
    1.7349   -4.4025    0.6643 C   0  0  0  0  0  0  0  0  0  0  0  0
    1.9711   -2.4197   -0.1412 H   0  0  0  0  0  0  0  0  0  0  0  0
    2.4644   -5.1945    0.4654 H   0  0  0  0  0  0  0  0  0  0  0  0
    1.9714   -3.9489    1.6315 H   0  0  0  0  0  0  0  0  0  0  0  0
    0.7368   -4.8481    0.7252 H   0  0  0  0  0  0  0  0  0  0  0  0
  1  2  2  0  0  0  0
  1  3  1  0  0  0  0
  1  7  1  0  0  0  0
  3  4  1  0  0  0  0
  3  5  1  0  0  0  0
  3  6  1  0  0  0  0
  7  8  1  0  0  0  0
  7 12  1  0  0  0  0
  8  9  1  0  0  0  0
  8 11  1  0  0  0  0
  8 13  1  0  0  0  0
  9 10  2  0  0  0  0
  9 17  1  0  0  0  0
 11 14  1  0  0  0  0
 11 15  1  0  0  0  0
 11 16  1  0  0  0  0
 17 18  1  0  0  0  0
 17 23  1  0  0  0  0
 18 19  1  0  0  0  0
 18 21  1  0  0  0  0
 18 24  1  0  0  0  0
 19 20  2  0  0  0  0
 19 31  1  0  0  0  0
 21 22  1  0  0  0  0
 21 25  1  0  0  0  0
 21 26  1  0  0  0  0
 22 23  1  0  0  0  0
 22 27  1  0  0  0  0
 22 28  1  0  0  0  0
 23 29  1  0  0  0  0
 23 30  1  0  0  0  0
 31 32  1  0  0  0  0
 31 36  1  0  0  0  0
 32 33  1  0  0  0  0
 32 35  1  0  0  0  0
 32 37  1  0  0  0  0
 33 34  2  0  0  0  0
 33 41  1  0  0  0  0
 35 38  1  0  0  0  0
 35 39  1  0  0  0  0
 35 40  1  0  0  0  0
 41 42  1  0  0  0  0
 41 43  1  0  0  0  0
 42 44  1  0  0  0  0
 42 45  1  0  0  0  0
 42 46  1  0  0  0  0
M  END
$$$$

  -OEChem-05262217223D

 46 46  0     1  0  0  0  0  0999 V2000
   -2.0218    0.5624    3.6211 C   0  0  0  0  0  0  0  0  0  0  0  0
   -2.4543   -0.4849    3.1657 O   0  0  0  0  0  0  0  0  0  0  0  0
   -1.9884    0.7857    5.1211 C   0  0  0  0  0  0  0  0  0  0  0  0
   -2.5824    1.6655    5.3801 H   0  0  0  0  0  0  0  0  0  0  0  0
   -2.3999   -0.0838    5.6415 H   0  0  0  0  0  0  0  0  0  0  0  0
   -0.9583    0.9393    5.4521 H   0  0  0  0  0  0  0  0  0  0  0  0
   -1.5655    1.5477    2.7716 N   0  0  0  0  0  0  0  0  0  0  0  0
   -1.4321    1.3951    1.3168 C   0  0  2  0  0  0  0  0  0  0  0  0
   -0.2447    2.2319    0.7707 C   0  0  0  0  0  0  0  0  0  0  0  0
    0.0406    3.2630    1.3769 O   0  0  0  0  0  0  0  0  0  0  0  0
   -2.7667    1.8179    0.6898 C   0  0  0  0  0  0  0  0  0  0  0  0
   -1.1362    2.3723    3.1900 H   0  0  0  0  0  0  0  0  0  0  0  0
   -1.2331    0.3432    1.0892 H   0  0  0  0  0  0  0  0  0  0  0  0
   -2.9590    2.8780    0.8833 H   0  0  0  0  0  0  0  0  0  0  0  0
   -2.7632    1.6552   -0.3906 H   0  0  0  0  0  0  0  0  0  0  0  0
   -3.5868    1.2320    1.1169 H   0  0  0  0  0  0  0  0  0  0  0  0
    0.4121    1.9493   -0.4414 N   0  0  0  0  0  0  0  0  0  0  0  0
   -0.0098    0.7755   -1.3299 C   0  0  2  0  0  0  0  0  0  0  0  0
    1.0630   -0.3112   -1.5774 C   0  0  0  0  0  0  0  0  0  0  0  0
    1.8538   -0.5836   -0.6853 O   0  0  0  0  0  0  0  0  0  0  0  0
    0.0188    1.6239   -2.5976 C   0  0  0  0  0  0  0  0  0  0  0  0
   -0.2690    2.9554   -1.9471 C   0  0  0  0  0  0  0  0  0  0  0  0
    0.9976    3.1254   -1.2407 C   0  0  0  0  0  0  0  0  0  0  0  0
   -0.9911    0.3471   -1.1152 H   0  0  0  0  0  0  0  0  0  0  0  0
   -0.7803    1.3347   -3.2871 H   0  0  0  0  0  0  0  0  0  0  0  0
    0.9677    1.6064   -3.1507 H   0  0  0  0  0  0  0  0  0  0  0  0
   -0.3213    3.7196   -2.7289 H   0  0  0  0  0  0  0  0  0  0  0  0
   -1.2250    3.0549   -1.4069 H   0  0  0  0  0  0  0  0  0  0  0  0
    1.9244    2.9140   -1.7868 H   0  0  0  0  0  0  0  0  0  0  0  0
    1.0791    4.0773   -0.7052 H   0  0  0  0  0  0  0  0  0  0  0  0
    1.0808   -1.0452   -2.7565 N   0  0  0  0  0  0  0  0  0  0  0  0
    1.9837   -2.1656   -3.0950 C   0  0  2  0  0  0  0  0  0  0  0  0
    1.7788   -3.4377   -2.2386 C   0  0  0  0  0  0  0  0  0  0  0  0
    1.4664   -4.4855   -2.7884 O   0  0  0  0  0  0  0  0  0  0  0  0
    3.4537   -1.7236   -3.0847 C   0  0  0  0  0  0  0  0  0  0  0  0
    0.3440   -0.8337   -3.4230 H   0  0  0  0  0  0  0  0  0  0  0  0
    1.7520   -2.4562   -4.1250 H   0  0  0  0  0  0  0  0  0  0  0  0
    3.7986   -1.5046   -2.0702 H   0  0  0  0  0  0  0  0  0  0  0  0
    4.0841   -2.5197   -3.4927 H   0  0  0  0  0  0  0  0  0  0  0  0
    3.5869   -0.8280   -3.6985 H   0  0  0  0  0  0  0  0  0  0  0  0
    1.9139   -3.4061   -0.8650 N   0  0  0  0  0  0  0  0  0  0  0  0
    1.6366   -4.5372    0.0092 C   0  0  0  0  0  0  0  0  0  0  0  0
    2.0766   -2.4836   -0.4519 H   0  0  0  0  0  0  0  0  0  0  0  0
    1.8783   -4.2794    1.0449 H   0  0  0  0  0  0  0  0  0  0  0  0
    0.5777   -4.8103   -0.0428 H   0  0  0  0  0  0  0  0  0  0  0  0
    2.2408   -5.4037   -0.2794 H   0  0  0  0  0  0  0  0  0  0  0  0
  1  2  2  0  0  0  0
  1  3  1  0  0  0  0
  1  7  1  0  0  0  0
  3  4  1  0  0  0  0
  3  5  1  0  0  0  0
  3  6  1  0  0  0  0
  7  8  1  0  0  0  0
  7 12  1  0  0  0  0
  8  9  1  0  0  0  0
  8 11  1  0  0  0  0
  8 13  1  0  0  0  0
  9 10  2  0  0  0  0
  9 17  1  0  0  0  0
 11 14  1  0  0  0  0
 11 15  1  0  0  0  0
 11 16  1  0  0  0  0
 17 18  1  0  0  0  0
 17 23  1  0  0  0  0
 18 19  1  0  0  0  0
 18 21  1  0  0  0  0
 18 24  1  0  0  0  0
 19 20  2  0  0  0  0
 19 31  1  0  0  0  0
 21 22  1  0  0  0  0
 21 25  1  0  0  0  0
 21 26  1  0  0  0  0
 22 23  1  0  0  0  0
 22 27  1  0  0  0  0
 22 28  1  0  0  0  0
 23 29  1  0  0  0  0
 23 30  1  0  0  0  0
 31 32  1  0  0  0  0
 31 36  1  0  0  0  0
 32 33  1  0  0  0  0
 32 35  1  0  0  0  0
 32 37  1  0  0  0  0
 33 34  2  0  0  0  0
 33 41  1  0  0  0  0
 35 38  1  0  0  0  0
 35 39  1  0  0  0  0
 35 40  1  0  0  0  0
 41 42  1  0  0  0  0
 41 43  1  0  0  0  0
 42 44  1  0  0  0  0
 42 45  1  0  0  0  0
 42 46  1  0  0  0  0
M  END
$$$$

  -OEChem-05262217223D

 46 46  0     1  0  0  0  0  0999 V2000
   -1.9547    0.5165    3.6092 C   0  0  0  0  0  0  0  0  0  0  0  0
   -2.3781   -0.5376    3.1610 O   0  0  0  0  0  0  0  0  0  0  0  0
   -1.9125    0.7479    5.1078 C   0  0  0  0  0  0  0  0  0  0  0  0
   -2.5135    1.6229    5.3670 H   0  0  0  0  0  0  0  0  0  0  0  0
   -2.3114   -0.1228    5.6356 H   0  0  0  0  0  0  0  0  0  0  0  0
   -0.8817    0.9139    5.4306 H   0  0  0  0  0  0  0  0  0  0  0  0
   -1.5168    1.5043    2.7533 N   0  0  0  0  0  0  0  0  0  0  0  0
   -1.3933    1.3533    1.2975 C   0  0  2  0  0  0  0  0  0  0  0  0
   -0.2494    2.2437    0.7431 C   0  0  0  0  0  0  0  0  0  0  0  0
   -0.0026    3.2823    1.3534 O   0  0  0  0  0  0  0  0  0  0  0  0
   -2.7531    1.7137    0.6853 C   0  0  0  0  0  0  0  0  0  0  0  0
   -1.0999    2.3381    3.1662 H   0  0  0  0  0  0  0  0  0  0  0  0
   -1.1482    0.3111    1.0699 H   0  0  0  0  0  0  0  0  0  0  0  0
   -2.9928    2.7632    0.8834 H   0  0  0  0  0  0  0  0  0  0  0  0
   -2.7538    1.5525   -0.3950 H   0  0  0  0  0  0  0  0  0  0  0  0
   -3.5407    1.0895    1.1196 H   0  0  0  0  0  0  0  0  0  0  0  0
    0.4102    1.9996   -0.4766 N   0  0  0  0  0  0  0  0  0  0  0  0
    0.0335    0.8127   -1.3696 C   0  0  2  0  0  0  0  0  0  0  0  0
    1.1628   -0.2176   -1.6239 C   0  0  0  0  0  0  0  0  0  0  0  0
    1.7898   -0.6354   -0.6608 O   0  0  0  0  0  0  0  0  0  0  0  0
   -0.0125    1.6789   -2.6281 C   0  0  0  0  0  0  0  0  0  0  0  0
   -0.3583    2.9845   -1.9566 C   0  0  0  0  0  0  0  0  0  0  0  0
    0.9131    3.2148   -1.2748 C   0  0  0  0  0  0  0  0  0  0  0  0
   -0.9198    0.3297   -1.1424 H   0  0  0  0  0  0  0  0  0  0  0  0
   -0.8088    1.3515   -3.3043 H   0  0  0  0  0  0  0  0  0  0  0  0
    0.9216    1.7325   -3.2024 H   0  0  0  0  0  0  0  0  0  0  0  0
   -0.4680    3.7536   -2.7279 H   0  0  0  0  0  0  0  0  0  0  0  0
   -1.3072    3.0258   -1.3979 H   0  0  0  0  0  0  0  0  0  0  0  0
    1.8382    3.0609   -1.8421 H   0  0  0  0  0  0  0  0  0  0  0  0
    0.9545    4.1644   -0.7306 H   0  0  0  0  0  0  0  0  0  0  0  0
    1.4312   -0.7383   -2.8843 N   0  0  0  0  0  0  0  0  0  0  0  0
    2.4682   -1.7295   -3.2400 C   0  0  2  0  0  0  0  0  0  0  0  0
    2.2250   -3.1502   -2.6783 C   0  0  0  0  0  0  0  0  0  0  0  0
    2.1375   -4.0932   -3.4534 O   0  0  0  0  0  0  0  0  0  0  0  0
    3.8719   -1.2247   -2.8752 C   0  0  0  0  0  0  0  0  0  0  0  0
    0.8251   -0.4197   -3.6344 H   0  0  0  0  0  0  0  0  0  0  0  0
    2.4458   -1.8296   -4.3302 H   0  0  0  0  0  0  0  0  0  0  0  0
    4.0173   -1.1961   -1.7914 H   0  0  0  0  0  0  0  0  0  0  0  0
    4.6299   -1.8897   -3.3010 H   0  0  0  0  0  0  0  0  0  0  0  0
    4.0304   -0.2185   -3.2745 H   0  0  0  0  0  0  0  0  0  0  0  0
    2.0812   -3.3719   -1.3234 N   0  0  0  0  0  0  0  0  0  0  0  0
    1.7685   -4.6669   -0.7355 C   0  0  0  0  0  0  0  0  0  0  0  0
    2.0843   -2.5388   -0.7284 H   0  0  0  0  0  0  0  0  0  0  0  0
    1.7510   -4.5890    0.3558 H   0  0  0  0  0  0  0  0  0  0  0  0
    0.7874   -5.0144   -1.0751 H   0  0  0  0  0  0  0  0  0  0  0  0
    2.5231   -5.4093   -1.0158 H   0  0  0  0  0  0  0  0  0  0  0  0
  1  2  2  0  0  0  0
  1  3  1  0  0  0  0
  1  7  1  0  0  0  0
  3  4  1  0  0  0  0
  3  5  1  0  0  0  0
  3  6  1  0  0  0  0
  7  8  1  0  0  0  0
  7 12  1  0  0  0  0
  8  9  1  0  0  0  0
  8 11  1  0  0  0  0
  8 13  1  0  0  0  0
  9 10  2  0  0  0  0
  9 17  1  0  0  0  0
 11 14  1  0  0  0  0
 11 15  1  0  0  0  0
 11 16  1  0  0  0  0
 17 18  1  0  0  0  0
 17 23  1  0  0  0  0
 18 19  1  0  0  0  0
 18 21  1  0  0  0  0
 18 24  1  0  0  0  0
 19 20  2  0  0  0  0
 19 31  1  0  0  0  0
 21 22  1  0  0  0  0
 21 25  1  0  0  0  0
 21 26  1  0  0  0  0
 22 23  1  0  0  0  0
 22 27  1  0  0  0  0
 22 28  1  0  0  0  0
 23 29  1  0  0  0  0
 23 30  1  0  0  0  0
 31 32  1  0  0  0  0
 31 36  1  0  0  0  0
 32 33  1  0  0  0  0
 32 35  1  0  0  0  0
 32 37  1  0  0  0  0
 33 34  2  0  0  0  0
 33 41  1  0  0  0  0
 35 38  1  0  0  0  0
 35 39  1  0  0  0  0
 35 40  1  0  0  0  0
 41 42  1  0  0  0  0
 41 43  1  0  0  0  0
 42 44  1  0  0  0  0
 42 45  1  0  0  0  0
 42 46  1  0  0  0  0
M  END
$$$$

  -OEChem-05262217223D

 46 46  0     1  0  0  0  0  0999 V2000
   -1.8762    0.4519    3.5966 C   0  0  0  0  0  0  0  0  0  0  0  0
   -2.2281   -0.6309    3.1556 O   0  0  0  0  0  0  0  0  0  0  0  0
   -1.8893    0.7054    5.0924 C   0  0  0  0  0  0  0  0  0  0  0  0
   -2.5169    1.5709    5.3185 H   0  0  0  0  0  0  0  0  0  0  0  0
   -2.2882   -0.1660    5.6194 H   0  0  0  0  0  0  0  0  0  0  0  0
   -0.8739    0.8974    5.4477 H   0  0  0  0  0  0  0  0  0  0  0  0
   -1.4798    1.4527    2.7349 N   0  0  0  0  0  0  0  0  0  0  0  0
   -1.3394    1.2974    1.2803 C   0  0  2  0  0  0  0  0  0  0  0  0
   -0.2650    2.2681    0.7179 C   0  0  0  0  0  0  0  0  0  0  0  0
   -0.0849    3.3191    1.3306 O   0  0  0  0  0  0  0  0  0  0  0  0
   -2.7231    1.5430    0.6623 C   0  0  0  0  0  0  0  0  0  0  0  0
   -1.1268    2.3179    3.1426 H   0  0  0  0  0  0  0  0  0  0  0  0
   -1.0129    0.2746    1.0656 H   0  0  0  0  0  0  0  0  0  0  0  0
   -3.0345    2.5794    0.8272 H   0  0  0  0  0  0  0  0  0  0  0  0
   -2.7156    1.3461   -0.4119 H   0  0  0  0  0  0  0  0  0  0  0  0
   -3.4657    0.8808    1.1187 H   0  0  0  0  0  0  0  0  0  0  0  0
    0.4042    2.0768   -0.5077 N   0  0  0  0  0  0  0  0  0  0  0  0
    0.1074    0.8678   -1.4008 C   0  0  2  0  0  0  0  0  0  0  0  0
    1.3180   -0.0691   -1.6537 C   0  0  0  0  0  0  0  0  0  0  0  0
    1.7974   -0.6289   -0.6782 O   0  0  0  0  0  0  0  0  0  0  0  0
   -0.0460    1.7330   -2.6546 C   0  0  0  0  0  0  0  0  0  0  0  0
   -0.4845    2.9991   -1.9649 C   0  0  0  0  0  0  0  0  0  0  0  0
    0.7805    3.3338   -1.3136 C   0  0  0  0  0  0  0  0  0  0  0  0
   -0.7957    0.3051   -1.1542 H   0  0  0  0  0  0  0  0  0  0  0  0
   -0.8290    1.3384   -3.3105 H   0  0  0  0  0  0  0  0  0  0  0  0
    0.8577    1.8835   -3.2571 H   0  0  0  0  0  0  0  0  0  0  0  0
   -0.6778    3.7601   -2.7275 H   0  0  0  0  0  0  0  0  0  0  0  0
   -1.4198    2.9577   -1.3853 H   0  0  0  0  0  0  0  0  0  0  0  0
    1.7013    3.2610   -1.9042 H   0  0  0  0  0  0  0  0  0  0  0  0
    0.7551    4.2824   -0.7666 H   0  0  0  0  0  0  0  0  0  0  0  0
    1.8419   -0.3496   -2.9106 N   0  0  0  0  0  0  0  0  0  0  0  0
    2.9747   -1.2439   -3.2296 C   0  0  2  0  0  0  0  0  0  0  0  0
    2.7052   -2.7440   -2.9646 C   0  0  0  0  0  0  0  0  0  0  0  0
    2.7753   -3.5380   -3.8934 O   0  0  0  0  0  0  0  0  0  0  0  0
    4.2652   -0.7812   -2.5382 C   0  0  0  0  0  0  0  0  0  0  0  0
    1.3610    0.0769   -3.6965 H   0  0  0  0  0  0  0  0  0  0  0  0
    3.1498   -1.1560   -4.3067 H   0  0  0  0  0  0  0  0  0  0  0  0
    4.2170   -0.9353   -1.4563 H   0  0  0  0  0  0  0  0  0  0  0  0
    5.1185   -1.3480   -2.9235 H   0  0  0  0  0  0  0  0  0  0  0  0
    4.4406    0.2812   -2.7309 H   0  0  0  0  0  0  0  0  0  0  0  0
    2.3581   -3.2011   -1.7090 N   0  0  0  0  0  0  0  0  0  0  0  0
    2.0090   -4.5832   -1.4118 C   0  0  0  0  0  0  0  0  0  0  0  0
    2.2239   -2.4842   -0.9907 H   0  0  0  0  0  0  0  0  0  0  0  0
    1.7861   -4.6943   -0.3462 H   0  0  0  0  0  0  0  0  0  0  0  0
    1.1265   -4.8869   -1.9844 H   0  0  0  0  0  0  0  0  0  0  0  0
    2.8401   -5.2507   -1.6623 H   0  0  0  0  0  0  0  0  0  0  0  0
  1  2  2  0  0  0  0
  1  3  1  0  0  0  0
  1  7  1  0  0  0  0
  3  4  1  0  0  0  0
  3  5  1  0  0  0  0
  3  6  1  0  0  0  0
  7  8  1  0  0  0  0
  7 12  1  0  0  0  0
  8  9  1  0  0  0  0
  8 11  1  0  0  0  0
  8 13  1  0  0  0  0
  9 10  2  0  0  0  0
  9 17  1  0  0  0  0
 11 14  1  0  0  0  0
 11 15  1  0  0  0  0
 11 16  1  0  0  0  0
 17 18  1  0  0  0  0
 17 23  1  0  0  0  0
 18 19  1  0  0  0  0
 18 21  1  0  0  0  0
 18 24  1  0  0  0  0
 19 20  2  0  0  0  0
 19 31  1  0  0  0  0
 21 22  1  0  0  0  0
 21 25  1  0  0  0  0
 21 26  1  0  0  0  0
 22 23  1  0  0  0  0
 22 27  1  0  0  0  0
 22 28  1  0  0  0  0
 23 29  1  0  0  0  0
 23 30  1  0  0  0  0
 31 32  1  0  0  0  0
 31 36  1  0  0  0  0
 32 33  1  0  0  0  0
 32 35  1  0  0  0  0
 32 37  1  0  0  0  0
 33 34  2  0  0  0  0
 33 41  1  0  0  0  0
 35 38  1  0  0  0  0
 35 39  1  0  0  0  0
 35 40  1  0  0  0  0
 41 42  1  0  0  0  0
 41 43  1  0  0  0  0
 42 44  1  0  0  0  0
 42 45  1  0  0  0  0
 42 46  1  0  0  0  0
M  END
$$$$

  -OEChem-05262217223D

 46 46  0     1  0  0  0  0  0999 V2000
   -1.8224    0.4354    3.5907 C   0  0  0  0  0  0  0  0  0  0  0  0
   -2.0823   -0.6814    3.1715 O   0  0  0  0  0  0  0  0  0  0  0  0
   -1.8503    0.7164    5.0812 C   0  0  0  0  0  0  0  0  0  0  0  0
   -2.5471    1.5304    5.2954 H   0  0  0  0  0  0  0  0  0  0  0  0
   -2.1716   -0.1753    5.6266 H   0  0  0  0  0  0  0  0  0  0  0  0
   -0.8527    1.0006    5.4250 H   0  0  0  0  0  0  0  0  0  0  0  0
   -1.5079    1.4482    2.7097 N   0  0  0  0  0  0  0  0  0  0  0  0
   -1.3354    1.2730    1.2610 C   0  0  2  0  0  0  0  0  0  0  0  0
   -0.3286    2.3131    0.6962 C   0  0  0  0  0  0  0  0  0  0  0  0
   -0.2316    3.3812    1.2980 O   0  0  0  0  0  0  0  0  0  0  0  0
   -2.7260    1.3943    0.6229 C   0  0  0  0  0  0  0  0  0  0  0  0
   -1.2212    2.3449    3.1016 H   0  0  0  0  0  0  0  0  0  0  0  0
   -0.9278    0.2744    1.0718 H   0  0  0  0  0  0  0  0  0  0  0  0
   -3.1173    2.4086    0.7511 H   0  0  0  0  0  0  0  0  0  0  0  0
   -2.6905    1.1628   -0.4439 H   0  0  0  0  0  0  0  0  0  0  0  0
   -3.4220    0.6927    1.0942 H   0  0  0  0  0  0  0  0  0  0  0  0
    0.3724    2.1594   -0.5176 N   0  0  0  0  0  0  0  0  0  0  0  0
    0.1831    0.9213   -1.4002 C   0  0  2  0  0  0  0  0  0  0  0  0
    1.4733    0.0836   -1.6156 C   0  0  0  0  0  0  0  0  0  0  0  0
    1.8062   -0.6362   -0.6850 O   0  0  0  0  0  0  0  0  0  0  0  0
   -0.0484    1.7524   -2.6665 C   0  0  0  0  0  0  0  0  0  0  0  0
   -0.5969    2.9796   -1.9880 C   0  0  0  0  0  0  0  0  0  0  0  0
    0.6337    3.4347   -1.3421 C   0  0  0  0  0  0  0  0  0  0  0  0
   -0.6689    0.2865   -1.1460 H   0  0  0  0  0  0  0  0  0  0  0  0
   -0.7952    1.2794   -3.3128 H   0  0  0  0  0  0  0  0  0  0  0  0
    0.8286    1.9836   -3.2793 H   0  0  0  0  0  0  0  0  0  0  0  0
   -0.8580    3.7125   -2.7579 H   0  0  0  0  0  0  0  0  0  0  0  0
   -1.5253    2.8615   -1.4090 H   0  0  0  0  0  0  0  0  0  0  0  0
    1.5578    3.4358   -1.9317 H   0  0  0  0  0  0  0  0  0  0  0  0
    0.5228    4.3849   -0.8087 H   0  0  0  0  0  0  0  0  0  0  0  0
    2.2324    0.0531   -2.7806 N   0  0  0  0  0  0  0  0  0  0  0  0
    3.4555   -0.7389   -3.0340 C   0  0  2  0  0  0  0  0  0  0  0  0
    3.2298   -2.2677   -3.1063 C   0  0  0  0  0  0  0  0  0  0  0  0
    3.5329   -2.8709   -4.1274 O   0  0  0  0  0  0  0  0  0  0  0  0
    4.5682   -0.3915   -2.0340 C   0  0  0  0  0  0  0  0  0  0  0  0
    1.8833    0.6105   -3.5533 H   0  0  0  0  0  0  0  0  0  0  0  0
    3.8215   -0.4426   -4.0226 H   0  0  0  0  0  0  0  0  0  0  0  0
    4.3344   -0.7616   -1.0317 H   0  0  0  0  0  0  0  0  0  0  0  0
    5.5110   -0.8476   -2.3516 H   0  0  0  0  0  0  0  0  0  0  0  0
    4.7088    0.6922   -1.9811 H   0  0  0  0  0  0  0  0  0  0  0  0
    2.6696   -2.9611   -2.0519 N   0  0  0  0  0  0  0  0  0  0  0  0
    2.3813   -4.3883   -2.0727 C   0  0  0  0  0  0  0  0  0  0  0  0
    2.3726   -2.3988   -1.2496 H   0  0  0  0  0  0  0  0  0  0  0  0
    1.9515   -4.7002   -1.1160 H   0  0  0  0  0  0  0  0  0  0  0  0
    1.6661   -4.6234   -2.8676 H   0  0  0  0  0  0  0  0  0  0  0  0
    3.2987   -4.9615   -2.2417 H   0  0  0  0  0  0  0  0  0  0  0  0
  1  2  2  0  0  0  0
  1  3  1  0  0  0  0
  1  7  1  0  0  0  0
  3  4  1  0  0  0  0
  3  5  1  0  0  0  0
  3  6  1  0  0  0  0
  7  8  1  0  0  0  0
  7 12  1  0  0  0  0
  8  9  1  0  0  0  0
  8 11  1  0  0  0  0
  8 13  1  0  0  0  0
  9 10  2  0  0  0  0
  9 17  1  0  0  0  0
 11 14  1  0  0  0  0
 11 15  1  0  0  0  0
 11 16  1  0  0  0  0
 17 18  1  0  0  0  0
 17 23  1  0  0  0  0
 18 19  1  0  0  0  0
 18 21  1  0  0  0  0
 18 24  1  0  0  0  0
 19 20  2  0  0  0  0
 19 31  1  0  0  0  0
 21 22  1  0  0  0  0
 21 25  1  0  0  0  0
 21 26  1  0  0  0  0
 22 23  1  0  0  0  0
 22 27  1  0  0  0  0
 22 28  1  0  0  0  0
 23 29  1  0  0  0  0
 23 30  1  0  0  0  0
 31 32  1  0  0  0  0
 31 36  1  0  0  0  0
 32 33  1  0  0  0  0
 32 35  1  0  0  0  0
 32 37  1  0  0  0  0
 33 34  2  0  0  0  0
 33 41  1  0  0  0  0
 35 38  1  0  0  0  0
 35 39  1  0  0  0  0
 35 40  1  0  0  0  0
 41 42  1  0  0  0  0
 41 43  1  0  0  0  0
 42 44  1  0  0  0  0
 42 45  1  0  0  0  0
 42 46  1  0  0  0  0
M  END
$$$$

  -OEChem-05262217223D

 46 46  0     1  0  0  0  0  0999 V2000
   -1.7751    0.4574    3.6282 C   0  0  0  0  0  0  0  0  0  0  0  0
   -1.9470   -0.6864    3.2380 O   0  0  0  0  0  0  0  0  0  0  0  0
   -1.8258    0.7727    5.1109 C   0  0  0  0  0  0  0  0  0  0  0  0
   -2.6230    1.4925    5.3114 H   0  0  0  0  0  0  0  0  0  0  0  0
   -2.0206   -0.1385    5.6832 H   0  0  0  0  0  0  0  0  0  0  0  0
   -0.8717    1.1952    5.4357 H   0  0  0  0  0  0  0  0  0  0  0  0
   -1.5398    1.4685    2.7211 N   0  0  0  0  0  0  0  0  0  0  0  0
   -1.3342    1.2661    1.2804 C   0  0  2  0  0  0  0  0  0  0  0  0
   -0.3882    2.3557    0.7034 C   0  0  0  0  0  0  0  0  0  0  0  0
   -0.3680    3.4423    1.2788 O   0  0  0  0  0  0  0  0  0  0  0  0
   -2.7202    1.2724    0.6210 C   0  0  0  0  0  0  0  0  0  0  0  0
   -1.3266    2.3946    3.0902 H   0  0  0  0  0  0  0  0  0  0  0  0
   -0.8576    0.2927    1.1241 H   0  0  0  0  0  0  0  0  0  0  0  0
   -3.1779    2.2632    0.7037 H   0  0  0  0  0  0  0  0  0  0  0  0
   -2.6547    1.0012   -0.4351 H   0  0  0  0  0  0  0  0  0  0  0  0
   -3.3761    0.5461    1.1117 H   0  0  0  0  0  0  0  0  0  0  0  0
    0.3430    2.2197   -0.4948 N   0  0  0  0  0  0  0  0  0  0  0  0
    0.2554    0.9535   -1.3516 C   0  0  2  0  0  0  0  0  0  0  0  0
    1.6108    0.2141   -1.5141 C   0  0  0  0  0  0  0  0  0  0  0  0
    1.8315   -0.6793   -0.7092 O   0  0  0  0  0  0  0  0  0  0  0  0
   -0.0268    1.7238   -2.6447 C   0  0  0  0  0  0  0  0  0  0  0  0
   -0.6723    2.9208   -1.9993 C   0  0  0  0  0  0  0  0  0  0  0  0
    0.5137    3.4875   -1.3572 C   0  0  0  0  0  0  0  0  0  0  0  0
   -0.5484    0.2618   -1.0870 H   0  0  0  0  0  0  0  0  0  0  0  0
   -0.7324    1.1746   -3.2769 H   0  0  0  0  0  0  0  0  0  0  0  0
    0.8281    2.0014   -3.2671 H   0  0  0  0  0  0  0  0  0  0  0  0
   -0.9826    3.6116   -2.7897 H   0  0  0  0  0  0  0  0  0  0  0  0
   -1.5947    2.7462   -1.4255 H   0  0  0  0  0  0  0  0  0  0  0  0
    1.4391    3.5419   -1.9422 H   0  0  0  0  0  0  0  0  0  0  0  0
    0.3277    4.4419   -0.8525 H   0  0  0  0  0  0  0  0  0  0  0  0
    2.5398    0.4404   -2.5230 N   0  0  0  0  0  0  0  0  0  0  0  0
    3.8316   -0.2490   -2.7235 C   0  0  2  0  0  0  0  0  0  0  0  0
    3.7087   -1.7356   -3.1330 C   0  0  0  0  0  0  0  0  0  0  0  0
    4.1521   -2.0980   -4.2149 O   0  0  0  0  0  0  0  0  0  0  0  0
    4.7527   -0.0799   -1.5062 C   0  0  0  0  0  0  0  0  0  0  0  0
    2.3143    1.1822   -3.1767 H   0  0  0  0  0  0  0  0  0  0  0  0
    4.3270    0.2520   -3.5617 H   0  0  0  0  0  0  0  0  0  0  0  0
    4.3846   -0.6440   -0.6445 H   0  0  0  0  0  0  0  0  0  0  0  0
    5.7574   -0.4427   -1.7447 H   0  0  0  0  0  0  0  0  0  0  0  0
    4.8230    0.9754   -1.2266 H   0  0  0  0  0  0  0  0  0  0  0  0
    3.0773   -2.6542   -2.3182 N   0  0  0  0  0  0  0  0  0  0  0  0
    2.8291   -4.0390   -2.6943 C   0  0  0  0  0  0  0  0  0  0  0  0
    2.6266   -2.2737   -1.4815 H   0  0  0  0  0  0  0  0  0  0  0  0
    2.1229   -4.0877   -3.5293 H   0  0  0  0  0  0  0  0  0  0  0  0
    3.7620   -4.5290   -2.9921 H   0  0  0  0  0  0  0  0  0  0  0  0
    2.4064   -4.5890   -1.8481 H   0  0  0  0  0  0  0  0  0  0  0  0
  1  2  2  0  0  0  0
  1  3  1  0  0  0  0
  1  7  1  0  0  0  0
  3  4  1  0  0  0  0
  3  5  1  0  0  0  0
  3  6  1  0  0  0  0
  7  8  1  0  0  0  0
  7 12  1  0  0  0  0
  8  9  1  0  0  0  0
  8 11  1  0  0  0  0
  8 13  1  0  0  0  0
  9 10  2  0  0  0  0
  9 17  1  0  0  0  0
 11 14  1  0  0  0  0
 11 15  1  0  0  0  0
 11 16  1  0  0  0  0
 17 18  1  0  0  0  0
 17 23  1  0  0  0  0
 18 19  1  0  0  0  0
 18 21  1  0  0  0  0
 18 24  1  0  0  0  0
 19 20  2  0  0  0  0
 19 31  1  0  0  0  0
 21 22  1  0  0  0  0
 21 25  1  0  0  0  0
 21 26  1  0  0  0  0
 22 23  1  0  0  0  0
 22 27  1  0  0  0  0
 22 28  1  0  0  0  0
 23 29  1  0  0  0  0
 23 30  1  0  0  0  0
 31 32  1  0  0  0  0
 31 36  1  0  0  0  0
 32 33  1  0  0  0  0
 32 35  1  0  0  0  0
 32 37  1  0  0  0  0
 33 34  2  0  0  0  0
 33 41  1  0  0  0  0
 35 38  1  0  0  0  0
 35 39  1  0  0  0  0
 35 40  1  0  0  0  0
 41 42  1  0  0  0  0
 41 43  1  0  0  0  0
 42 44  1  0  0  0  0
 42 45  1  0  0  0  0
 42 46  1  0  0  0  0
M  END
$$$$

  -OEChem-05262217223D

 46 46  0     1  0  0  0  0  0999 V2000
   -1.8466    0.5253    3.6726 C   0  0  0  0  0  0  0  0  0  0  0  0
   -1.8937   -0.6468    3.3353 O   0  0  0  0  0  0  0  0  0  0  0  0
   -2.0042    0.9052    5.1332 C   0  0  0  0  0  0  0  0  0  0  0  0
   -2.8868    1.5365    5.2608 H   0  0  0  0  0  0  0  0  0  0  0  0
   -2.1214    0.0072    5.7464 H   0  0  0  0  0  0  0  0  0  0  0  0
   -1.1217    1.4516    5.4750 H   0  0  0  0  0  0  0  0  0  0  0  0
   -1.6564    1.5095    2.7259 N   0  0  0  0  0  0  0  0  0  0  0  0
   -1.3705    1.2620    1.3054 C   0  0  2  0  0  0  0  0  0  0  0  0
   -0.4707    2.3867    0.7208 C   0  0  0  0  0  0  0  0  0  0  0  0
   -0.5344    3.4914    1.2568 O   0  0  0  0  0  0  0  0  0  0  0  0
   -2.7230    1.1511    0.5888 C   0  0  0  0  0  0  0  0  0  0  0  0
   -1.5457    2.4673    3.0570 H   0  0  0  0  0  0  0  0  0  0  0  0
   -0.8265    0.3162    1.2107 H   0  0  0  0  0  0  0  0  0  0  0  0
   -3.2496    2.1103    0.6168 H   0  0  0  0  0  0  0  0  0  0  0  0
   -2.5928    0.8515   -0.4536 H   0  0  0  0  0  0  0  0  0  0  0  0
   -3.3488    0.3970    1.0771 H   0  0  0  0  0  0  0  0  0  0  0  0
    0.3087    2.2571   -0.4475 N   0  0  0  0  0  0  0  0  0  0  0  0
    0.3279    0.9627   -1.2637 C   0  0  2  0  0  0  0  0  0  0  0  0
    1.7273    0.3017   -1.3594 C   0  0  0  0  0  0  0  0  0  0  0  0
    1.8833   -0.7366   -0.7333 O   0  0  0  0  0  0  0  0  0  0  0  0
    0.0528    1.6668   -2.5941 C   0  0  0  0  0  0  0  0  0  0  0  0
   -0.6859    2.8439   -2.0139 C   0  0  0  0  0  0  0  0  0  0  0  0
    0.4365    3.5035   -1.3491 C   0  0  0  0  0  0  0  0  0  0  0  0
   -0.4435    0.2336   -1.0021 H   0  0  0  0  0  0  0  0  0  0  0  0
   -0.5983    1.0554   -3.2276 H   0  0  0  0  0  0  0  0  0  0  0  0
    0.9153    1.9630   -3.1986 H   0  0  0  0  0  0  0  0  0  0  0  0
   -1.0053    3.4884   -2.8391 H   0  0  0  0  0  0  0  0  0  0  0  0
   -1.6179    2.6340   -1.4682 H   0  0  0  0  0  0  0  0  0  0  0  0
    1.3778    3.5959   -1.9027 H   0  0  0  0  0  0  0  0  0  0  0  0
    0.1726    4.4607   -0.8864 H   0  0  0  0  0  0  0  0  0  0  0  0
    2.7655    0.7664   -2.1570 N   0  0  0  0  0  0  0  0  0  0  0  0
    4.1208    0.1930   -2.2938 C   0  0  2  0  0  0  0  0  0  0  0  0
    4.1764   -1.1815   -3.0015 C   0  0  0  0  0  0  0  0  0  0  0  0
    4.8783   -1.3173   -3.9950 O   0  0  0  0  0  0  0  0  0  0  0  0
    4.8459    0.1459   -0.9413 C   0  0  0  0  0  0  0  0  0  0  0  0
    2.5932    1.6470   -2.6304 H   0  0  0  0  0  0  0  0  0  0  0  0
    4.6885    0.8801   -2.9300 H   0  0  0  0  0  0  0  0  0  0  0  0
    4.4033   -0.6024   -0.2776 H   0  0  0  0  0  0  0  0  0  0  0  0
    5.8987   -0.1138   -1.0911 H   0  0  0  0  0  0  0  0  0  0  0  0
    4.7966    1.1213   -0.4479 H   0  0  0  0  0  0  0  0  0  0  0  0
    3.4484   -2.2588   -2.5376 N   0  0  0  0  0  0  0  0  0  0  0  0
    3.4591   -3.5795   -3.1511 C   0  0  0  0  0  0  0  0  0  0  0  0
    2.8480   -2.0830   -1.7274 H   0  0  0  0  0  0  0  0  0  0  0  0
    3.0843   -3.5286   -4.1785 H   0  0  0  0  0  0  0  0  0  0  0  0
    4.4758   -3.9859   -3.1657 H   0  0  0  0  0  0  0  0  0  0  0  0
    2.8219   -4.2637   -2.5828 H   0  0  0  0  0  0  0  0  0  0  0  0
  1  2  2  0  0  0  0
  1  3  1  0  0  0  0
  1  7  1  0  0  0  0
  3  4  1  0  0  0  0
  3  5  1  0  0  0  0
  3  6  1  0  0  0  0
  7  8  1  0  0  0  0
  7 12  1  0  0  0  0
  8  9  1  0  0  0  0
  8 11  1  0  0  0  0
  8 13  1  0  0  0  0
  9 10  2  0  0  0  0
  9 17  1  0  0  0  0
 11 14  1  0  0  0  0
 11 15  1  0  0  0  0
 11 16  1  0  0  0  0
 17 18  1  0  0  0  0
 17 23  1  0  0  0  0
 18 19  1  0  0  0  0
 18 21  1  0  0  0  0
 18 24  1  0  0  0  0
 19 20  2  0  0  0  0
 19 31  1  0  0  0  0
 21 22  1  0  0  0  0
 21 25  1  0  0  0  0
 21 26  1  0  0  0  0
 22 23  1  0  0  0  0
 22 27  1  0  0  0  0
 22 28  1  0  0  0  0
 23 29  1  0  0  0  0
 23 30  1  0  0  0  0
 31 32  1  0  0  0  0
 31 36  1  0  0  0  0
 32 33  1  0  0  0  0
 32 35  1  0  0  0  0
 32 37  1  0  0  0  0
 33 34  2  0  0  0  0
 33 41  1  0  0  0  0
 35 38  1  0  0  0  0
 35 39  1  0  0  0  0
 35 40  1  0  0  0  0
 41 42  1  0  0  0  0
 41 43  1  0  0  0  0
 42 44  1  0  0  0  0
 42 45  1  0  0  0  0
 42 46  1  0  0  0  0
M  END
$$$$

  -OEChem-05262217223D

 46 46  0     1  0  0  0  0  0999 V2000
   -1.9715    0.6317    3.7260 C   0  0  0  0  0  0  0  0  0  0  0  0
   -1.9381   -0.5571    3.4516 O   0  0  0  0  0  0  0  0  0  0  0  0
   -2.2333    1.0797    5.1516 C   0  0  0  0  0  0  0  0  0  0  0  0
   -3.1623    1.6531    5.1970 H   0  0  0  0  0  0  0  0  0  0  0  0
   -2.3225    0.2108    5.8094 H   0  0  0  0  0  0  0  0  0  0  0  0
   -1.4099    1.7056    5.5040 H   0  0  0  0  0  0  0  0  0  0  0  0
   -1.7782    1.5737    2.7383 N   0  0  0  0  0  0  0  0  0  0  0  0
   -1.4201    1.2686    1.3460 C   0  0  2  0  0  0  0  0  0  0  0  0
   -0.5525    2.4065    0.7404 C   0  0  0  0  0  0  0  0  0  0  0  0
   -0.6832    3.5312    1.2197 O   0  0  0  0  0  0  0  0  0  0  0  0
   -2.7337    1.0559    0.5818 C   0  0  0  0  0  0  0  0  0  0  0  0
   -1.7346    2.5523    3.0211 H   0  0  0  0  0  0  0  0  0  0  0  0
   -0.8286    0.3475    1.3226 H   0  0  0  0  0  0  0  0  0  0  0  0
   -3.3099    1.9860    0.5466 H   0  0  0  0  0  0  0  0  0  0  0  0
   -2.5453    0.7199   -0.4403 H   0  0  0  0  0  0  0  0  0  0  0  0
   -3.3392    0.2909    1.0782 H   0  0  0  0  0  0  0  0  0  0  0  0
    0.2793    2.2571   -0.3875 N   0  0  0  0  0  0  0  0  0  0  0  0
    0.3999    0.9291   -1.1386 C   0  0  2  0  0  0  0  0  0  0  0  0
    1.8304    0.3398   -1.1478 C   0  0  0  0  0  0  0  0  0  0  0  0
    1.9686   -0.8087   -0.7524 O   0  0  0  0  0  0  0  0  0  0  0  0
    0.1658    1.5466   -2.5151 C   0  0  0  0  0  0  0  0  0  0  0  0
   -0.6564    2.7130   -2.0303 C   0  0  0  0  0  0  0  0  0  0  0  0
    0.3922    3.4630   -1.3448 C   0  0  0  0  0  0  0  0  0  0  0  0
   -0.3466    0.1746   -0.8762 H   0  0  0  0  0  0  0  0  0  0  0  0
   -0.4207    0.8733   -3.1490 H   0  0  0  0  0  0  0  0  0  0  0  0
    1.0535    1.8457   -3.0828 H   0  0  0  0  0  0  0  0  0  0  0  0
   -0.9652    3.2992   -2.9017 H   0  0  0  0  0  0  0  0  0  0  0  0
   -1.6041    2.4816   -1.5201 H   0  0  0  0  0  0  0  0  0  0  0  0
    1.3538    3.5784   -1.8568 H   0  0  0  0  0  0  0  0  0  0  0  0
    0.0542    4.4262   -0.9475 H   0  0  0  0  0  0  0  0  0  0  0  0
    2.9186    1.0106   -1.6894 N   0  0  0  0  0  0  0  0  0  0  0  0
    4.3218    0.5497   -1.7433 C   0  0  2  0  0  0  0  0  0  0  0  0
    4.5808   -0.6286   -2.7108 C   0  0  0  0  0  0  0  0  0  0  0  0
    5.4346   -0.5147   -3.5803 O   0  0  0  0  0  0  0  0  0  0  0  0
    4.8614    0.2387   -0.3401 C   0  0  0  0  0  0  0  0  0  0  0  0
    2.7406    1.9730   -1.9600 H   0  0  0  0  0  0  0  0  0  0  0  0
    4.9124    1.3877   -2.1284 H   0  0  0  0  0  0  0  0  0  0  0  0
    4.3902   -0.6547    0.0796 H   0  0  0  0  0  0  0  0  0  0  0  0
    5.9407    0.0627   -0.3852 H   0  0  0  0  0  0  0  0  0  0  0  0
    4.6758    1.0803    0.3340 H   0  0  0  0  0  0  0  0  0  0  0  0
    3.8613   -1.8033   -2.6225 N   0  0  0  0  0  0  0  0  0  0  0  0
    4.0431   -2.9415   -3.5126 C   0  0  0  0  0  0  0  0  0  0  0  0
    3.1410   -1.8391   -1.8962 H   0  0  0  0  0  0  0  0  0  0  0  0
    3.8223   -2.6580   -4.5468 H   0  0  0  0  0  0  0  0  0  0  0  0
    5.0731   -3.3094   -3.4587 H   0  0  0  0  0  0  0  0  0  0  0  0
    3.3705   -3.7552   -3.2256 H   0  0  0  0  0  0  0  0  0  0  0  0
  1  2  2  0  0  0  0
  1  3  1  0  0  0  0
  1  7  1  0  0  0  0
  3  4  1  0  0  0  0
  3  5  1  0  0  0  0
  3  6  1  0  0  0  0
  7  8  1  0  0  0  0
  7 12  1  0  0  0  0
  8  9  1  0  0  0  0
  8 11  1  0  0  0  0
  8 13  1  0  0  0  0
  9 10  2  0  0  0  0
  9 17  1  0  0  0  0
 11 14  1  0  0  0  0
 11 15  1  0  0  0  0
 11 16  1  0  0  0  0
 17 18  1  0  0  0  0
 17 23  1  0  0  0  0
 18 19  1  0  0  0  0
 18 21  1  0  0  0  0
 18 24  1  0  0  0  0
 19 20  2  0  0  0  0
 19 31  1  0  0  0  0
 21 22  1  0  0  0  0
 21 25  1  0  0  0  0
 21 26  1  0  0  0  0
 22 23  1  0  0  0  0
 22 27  1  0  0  0  0
 22 28  1  0  0  0  0
 23 29  1  0  0  0  0
 23 30  1  0  0  0  0
 31 32  1  0  0  0  0
 31 36  1  0  0  0  0
 32 33  1  0  0  0  0
 32 35  1  0  0  0  0
 32 37  1  0  0  0  0
 33 34  2  0  0  0  0
 33 41  1  0  0  0  0
 35 38  1  0  0  0  0
 35 39  1  0  0  0  0
 35 40  1  0  0  0  0
 41 42  1  0  0  0  0
 41 43  1  0  0  0  0
 42 44  1  0  0  0  0
 42 45  1  0  0  0  0
 42 46  1  0  0  0  0
M  END
$$$$

  -OEChem-05262217223D

 46 46  0     1  0  0  0  0  0999 V2000
   -1.8367    0.7460    3.7167 C   0  0  0  0  0  0  0  0  0  0  0  0
   -1.3239   -0.3529    3.5800 O   0  0  0  0  0  0  0  0  0  0  0  0
   -2.1452    1.2692    5.1071 C   0  0  0  0  0  0  0  0  0  0  0  0
   -3.2174    1.4533    5.2069 H   0  0  0  0  0  0  0  0  0  0  0  0
   -1.8421    0.5373    5.8612 H   0  0  0  0  0  0  0  0  0  0  0  0
   -1.6036    2.2018    5.2843 H   0  0  0  0  0  0  0  0  0  0  0  0
   -2.1306    1.5231    2.6151 N   0  0  0  0  0  0  0  0  0  0  0  0
   -1.6563    1.2368    1.2519 C   0  0  2  0  0  0  0  0  0  0  0  0
   -0.7589    2.3881    0.7228 C   0  0  0  0  0  0  0  0  0  0  0  0
   -0.9815    3.5182    1.1516 O   0  0  0  0  0  0  0  0  0  0  0  0
   -2.9052    1.0288    0.3894 C   0  0  0  0  0  0  0  0  0  0  0  0
   -2.3858    2.4902    2.8073 H   0  0  0  0  0  0  0  0  0  0  0  0
   -1.0627    0.3177    1.2474 H   0  0  0  0  0  0  0  0  0  0  0  0
   -3.4765    1.9593    0.3127 H   0  0  0  0  0  0  0  0  0  0  0  0
   -2.6351    0.6988   -0.6166 H   0  0  0  0  0  0  0  0  0  0  0  0
   -3.5462    0.2617    0.8353 H   0  0  0  0  0  0  0  0  0  0  0  0
    0.1881    2.2405   -0.3096 N   0  0  0  0  0  0  0  0  0  0  0  0
    0.4151    0.9033   -1.0196 C   0  0  2  0  0  0  0  0  0  0  0  0
    1.8427    0.3332   -0.8832 C   0  0  0  0  0  0  0  0  0  0  0  0
    1.9706   -0.8786   -0.7842 O   0  0  0  0  0  0  0  0  0  0  0  0
    0.3416    1.4960   -2.4216 C   0  0  0  0  0  0  0  0  0  0  0  0
   -0.5490    2.6575   -2.0583 C   0  0  0  0  0  0  0  0  0  0  0  0
    0.3957    3.4355   -1.2642 C   0  0  0  0  0  0  0  0  0  0  0  0
   -0.3475    0.1412   -0.8375 H   0  0  0  0  0  0  0  0  0  0  0  0
   -0.1518    0.8061   -3.1144 H   0  0  0  0  0  0  0  0  0  0  0  0
    1.2964    1.7949   -2.8711 H   0  0  0  0  0  0  0  0  0  0  0  0
   -0.7602    3.2248   -2.9703 H   0  0  0  0  0  0  0  0  0  0  0  0
   -1.5472    2.4163   -1.6601 H   0  0  0  0  0  0  0  0  0  0  0  0
    1.4086    3.5625   -1.6626 H   0  0  0  0  0  0  0  0  0  0  0  0
   -0.0035    4.3976   -0.9249 H   0  0  0  0  0  0  0  0  0  0  0  0
    2.9607    1.1379   -1.0465 N   0  0  0  0  0  0  0  0  0  0  0  0
    4.3788    0.7267   -0.9895 C   0  0  2  0  0  0  0  0  0  0  0  0
    4.8483   -0.1484   -2.1748 C   0  0  0  0  0  0  0  0  0  0  0  0
    5.8507    0.1718   -2.7999 O   0  0  0  0  0  0  0  0  0  0  0  0
    4.7108    0.0546    0.3501 C   0  0  0  0  0  0  0  0  0  0  0  0
    2.7685    2.1353   -1.0749 H   0  0  0  0  0  0  0  0  0  0  0  0
    4.9739    1.6445   -1.0388 H   0  0  0  0  0  0  0  0  0  0  0  0
    4.2378   -0.9285    0.4301 H   0  0  0  0  0  0  0  0  0  0  0  0
    5.7932   -0.0815    0.4408 H   0  0  0  0  0  0  0  0  0  0  0  0
    4.3686    0.6752    1.1837 H   0  0  0  0  0  0  0  0  0  0  0  0
    4.1582   -1.2856   -2.5432 N   0  0  0  0  0  0  0  0  0  0  0  0
    4.5652   -2.1769   -3.6197 C   0  0  0  0  0  0  0  0  0  0  0  0
    3.3373   -1.5178   -1.9779 H   0  0  0  0  0  0  0  0  0  0  0  0
    4.6052   -1.6362   -4.5707 H   0  0  0  0  0  0  0  0  0  0  0  0
    5.5529   -2.6007   -3.4120 H   0  0  0  0  0  0  0  0  0  0  0  0
    3.8493   -2.9984   -3.7185 H   0  0  0  0  0  0  0  0  0  0  0  0
  1  2  2  0  0  0  0
  1  3  1  0  0  0  0
  1  7  1  0  0  0  0
  3  4  1  0  0  0  0
  3  5  1  0  0  0  0
  3  6  1  0  0  0  0
  7  8  1  0  0  0  0
  7 12  1  0  0  0  0
  8  9  1  0  0  0  0
  8 11  1  0  0  0  0
  8 13  1  0  0  0  0
  9 10  2  0  0  0  0
  9 17  1  0  0  0  0
 11 14  1  0  0  0  0
 11 15  1  0  0  0  0
 11 16  1  0  0  0  0
 17 18  1  0  0  0  0
 17 23  1  0  0  0  0
 18 19  1  0  0  0  0
 18 21  1  0  0  0  0
 18 24  1  0  0  0  0
 19 20  2  0  0  0  0
 19 31  1  0  0  0  0
 21 22  1  0  0  0  0
 21 25  1  0  0  0  0
 21 26  1  0  0  0  0
 22 23  1  0  0  0  0
 22 27  1  0  0  0  0
 22 28  1  0  0  0  0
 23 29  1  0  0  0  0
 23 30  1  0  0  0  0
 31 32  1  0  0  0  0
 31 36  1  0  0  0  0
 32 33  1  0  0  0  0
 32 35  1  0  0  0  0
 32 37  1  0  0  0  0
 33 34  2  0  0  0  0
 33 41  1  0  0  0  0
 35 38  1  0  0  0  0
 35 39  1  0  0  0  0
 35 40  1  0  0  0  0
 41 42  1  0  0  0  0
 41 43  1  0  0  0  0
 42 44  1  0  0  0  0
 42 45  1  0  0  0  0
 42 46  1  0  0  0  0
M  END
$$$$

  -OEChem-05262217223D

 46 46  0     1  0  0  0  0  0999 V2000
   -1.8262    0.9942    3.6771 C   0  0  0  0  0  0  0  0  0  0  0  0
   -0.9245    0.1722    3.6337 O   0  0  0  0  0  0  0  0  0  0  0  0
   -2.2882    1.5469    5.0124 C   0  0  0  0  0  0  0  0  0  0  0  0
   -3.3543    1.3505    5.1489 H   0  0  0  0  0  0  0  0  0  0  0  0
   -1.7360    1.0734    5.8288 H   0  0  0  0  0  0  0  0  0  0  0  0
   -2.1154    2.6254    5.0494 H   0  0  0  0  0  0  0  0  0  0  0  0
   -2.4088    1.4521    2.5129 N   0  0  0  0  0  0  0  0  0  0  0  0
   -1.8328    1.1997    1.1831 C   0  0  2  0  0  0  0  0  0  0  0  0
   -0.8736    2.3437    0.7556 C   0  0  0  0  0  0  0  0  0  0  0  0
   -1.1344    3.4770    1.1526 O   0  0  0  0  0  0  0  0  0  0  0  0
   -3.0093    1.0431    0.2143 C   0  0  0  0  0  0  0  0  0  0  0  0
   -2.9649    2.2979    2.6126 H   0  0  0  0  0  0  0  0  0  0  0  0
   -1.2715    0.2609    1.2007 H   0  0  0  0  0  0  0  0  0  0  0  0
   -3.5578    1.9861    0.1210 H   0  0  0  0  0  0  0  0  0  0  0  0
   -2.6602    0.7422   -0.7769 H   0  0  0  0  0  0  0  0  0  0  0  0
   -3.6977    0.2735    0.5780 H   0  0  0  0  0  0  0  0  0  0  0  0
    0.1632    2.1876   -0.1844 N   0  0  0  0  0  0  0  0  0  0  0  0
    0.4325    0.8512   -0.8821 C   0  0  2  0  0  0  0  0  0  0  0  0
    1.8244    0.2424   -0.6305 C   0  0  0  0  0  0  0  0  0  0  0  0
    1.9873   -0.9520   -0.8388 O   0  0  0  0  0  0  0  0  0  0  0  0
    0.5333    1.4656   -2.2707 C   0  0  0  0  0  0  0  0  0  0  0  0
   -0.3613    2.6493   -1.9945 C   0  0  0  0  0  0  0  0  0  0  0  0
    0.5083    3.3891   -1.0879 C   0  0  0  0  0  0  0  0  0  0  0  0
   -0.3630    0.1067   -0.7968 H   0  0  0  0  0  0  0  0  0  0  0  0
    0.1069    0.8000   -3.0280 H   0  0  0  0  0  0  0  0  0  0  0  0
    1.5460    1.7395   -2.5947 H   0  0  0  0  0  0  0  0  0  0  0  0
   -0.4515    3.2326   -2.9163 H   0  0  0  0  0  0  0  0  0  0  0  0
   -1.4042    2.4327   -1.7115 H   0  0  0  0  0  0  0  0  0  0  0  0
    1.5626    3.4922   -1.3688 H   0  0  0  0  0  0  0  0  0  0  0  0
    0.0994    4.3574   -0.7796 H   0  0  0  0  0  0  0  0  0  0  0  0
    2.9086    1.0696   -0.3858 N   0  0  0  0  0  0  0  0  0  0  0  0
    4.3261    0.6789   -0.2549 C   0  0  2  0  0  0  0  0  0  0  0  0
    4.9741    0.1842   -1.5687 C   0  0  0  0  0  0  0  0  0  0  0  0
    5.9751    0.7438   -1.9965 O   0  0  0  0  0  0  0  0  0  0  0  0
    4.5199   -0.3421    0.8750 C   0  0  0  0  0  0  0  0  0  0  0  0
    2.6712    2.0418   -0.2035 H   0  0  0  0  0  0  0  0  0  0  0  0
    4.8773    1.5795    0.0347 H   0  0  0  0  0  0  0  0  0  0  0  0
    4.0879   -1.3128    0.6138 H   0  0  0  0  0  0  0  0  0  0  0  0
    5.5875   -0.4864    1.0687 H   0  0  0  0  0  0  0  0  0  0  0  0
    4.0461    0.0137    1.7950 H   0  0  0  0  0  0  0  0  0  0  0  0
    4.4302   -0.8637   -2.2842 N   0  0  0  0  0  0  0  0  0  0  0  0
    4.9643   -1.3565   -3.5457 C   0  0  0  0  0  0  0  0  0  0  0  0
    3.5648   -1.2631   -1.9114 H   0  0  0  0  0  0  0  0  0  0  0  0
    4.9025   -0.5813   -4.3163 H   0  0  0  0  0  0  0  0  0  0  0  0
    6.0113   -1.6545   -3.4272 H   0  0  0  0  0  0  0  0  0  0  0  0
    4.3938   -2.2275   -3.8820 H   0  0  0  0  0  0  0  0  0  0  0  0
  1  2  2  0  0  0  0
  1  3  1  0  0  0  0
  1  7  1  0  0  0  0
  3  4  1  0  0  0  0
  3  5  1  0  0  0  0
  3  6  1  0  0  0  0
  7  8  1  0  0  0  0
  7 12  1  0  0  0  0
  8  9  1  0  0  0  0
  8 11  1  0  0  0  0
  8 13  1  0  0  0  0
  9 10  2  0  0  0  0
  9 17  1  0  0  0  0
 11 14  1  0  0  0  0
 11 15  1  0  0  0  0
 11 16  1  0  0  0  0
 17 18  1  0  0  0  0
 17 23  1  0  0  0  0
 18 19  1  0  0  0  0
 18 21  1  0  0  0  0
 18 24  1  0  0  0  0
 19 20  2  0  0  0  0
 19 31  1  0  0  0  0
 21 22  1  0  0  0  0
 21 25  1  0  0  0  0
 21 26  1  0  0  0  0
 22 23  1  0  0  0  0
 22 27  1  0  0  0  0
 22 28  1  0  0  0  0
 23 29  1  0  0  0  0
 23 30  1  0  0  0  0
 31 32  1  0  0  0  0
 31 36  1  0  0  0  0
 32 33  1  0  0  0  0
 32 35  1  0  0  0  0
 32 37  1  0  0  0  0
 33 34  2  0  0  0  0
 33 41  1  0  0  0  0
 35 38  1  0  0  0  0
 35 39  1  0  0  0  0
 35 40  1  0  0  0  0
 41 42  1  0  0  0  0
 41 43  1  0  0  0  0
 42 44  1  0  0  0  0
 42 45  1  0  0  0  0
 42 46  1  0  0  0  0
M  END
$$$$

  -OEChem-05262217223D

 46 46  0     1  0  0  0  0  0999 V2000
   -1.9556    1.0357    3.6255 C   0  0  0  0  0  0  0  0  0  0  0  0
   -1.0346    0.2350    3.5846 O   0  0  0  0  0  0  0  0  0  0  0  0
   -2.4316    1.5795    4.9595 C   0  0  0  0  0  0  0  0  0  0  0  0
   -3.5090    1.4292    5.0621 H   0  0  0  0  0  0  0  0  0  0  0  0
   -1.9254    1.0634    5.7802 H   0  0  0  0  0  0  0  0  0  0  0  0
   -2.2112    2.6479    5.0255 H   0  0  0  0  0  0  0  0  0  0  0  0
   -2.5409    1.4815    2.4580 N   0  0  0  0  0  0  0  0  0  0  0  0
   -1.9445    1.2392    1.1356 C   0  0  2  0  0  0  0  0  0  0  0  0
   -0.9396    2.3588    0.7529 C   0  0  0  0  0  0  0  0  0  0  0  0
   -1.1876    3.4974    1.1421 O   0  0  0  0  0  0  0  0  0  0  0  0
   -3.0998    1.1428    0.1348 C   0  0  0  0  0  0  0  0  0  0  0  0
   -3.1162    2.3145    2.5534 H   0  0  0  0  0  0  0  0  0  0  0  0
   -1.4173    0.2807    1.1477 H   0  0  0  0  0  0  0  0  0  0  0  0
   -3.6180    2.1037    0.0528 H   0  0  0  0  0  0  0  0  0  0  0  0
   -2.7332    0.8582   -0.8550 H   0  0  0  0  0  0  0  0  0  0  0  0
   -3.8194    0.3849    0.4609 H   0  0  0  0  0  0  0  0  0  0  0  0
    0.1376    2.1759   -0.1342 N   0  0  0  0  0  0  0  0  0  0  0  0
    0.4131    0.8323   -0.8160 C   0  0  2  0  0  0  0  0  0  0  0  0
    1.7772    0.1946   -0.4963 C   0  0  0  0  0  0  0  0  0  0  0  0
    2.0195   -0.9309   -0.9113 O   0  0  0  0  0  0  0  0  0  0  0  0
    0.6179    1.4494   -2.1914 C   0  0  0  0  0  0  0  0  0  0  0  0
   -0.2590    2.6579   -1.9692 C   0  0  0  0  0  0  0  0  0  0  0  0
    0.5733    3.3693   -1.0063 C   0  0  0  0  0  0  0  0  0  0  0  0
   -0.4039    0.1071   -0.7832 H   0  0  0  0  0  0  0  0  0  0  0  0
    0.2258    0.7982   -2.9795 H   0  0  0  0  0  0  0  0  0  0  0  0
    1.6583    1.6955   -2.4435 H   0  0  0  0  0  0  0  0  0  0  0  0
   -0.2744    3.2451   -2.8928 H   0  0  0  0  0  0  0  0  0  0  0  0
   -1.3232    2.4695   -1.7516 H   0  0  0  0  0  0  0  0  0  0  0  0
    1.6465    3.4423   -1.2178 H   0  0  0  0  0  0  0  0  0  0  0  0
    0.1736    4.3476   -0.7182 H   0  0  0  0  0  0  0  0  0  0  0  0
    2.7663    0.9630    0.0941 N   0  0  0  0  0  0  0  0  0  0  0  0
    4.1615    0.5724    0.3761 C   0  0  2  0  0  0  0  0  0  0  0  0
    5.0316    0.3687   -0.8859 C   0  0  0  0  0  0  0  0  0  0  0  0
    6.0535    1.0272   -1.0283 O   0  0  0  0  0  0  0  0  0  0  0  0
    4.2176   -0.6575    1.2930 C   0  0  0  0  0  0  0  0  0  0  0  0
    2.4635    1.8847    0.4028 H   0  0  0  0  0  0  0  0  0  0  0  0
    4.6172    1.4001    0.9295 H   0  0  0  0  0  0  0  0  0  0  0  0
    3.8688   -1.5566    0.7769 H   0  0  0  0  0  0  0  0  0  0  0  0
    5.2470   -0.8319    1.6216 H   0  0  0  0  0  0  0  0  0  0  0  0
    3.5935   -0.5001    2.1779 H   0  0  0  0  0  0  0  0  0  0  0  0
    4.6576   -0.5173   -1.8767 N   0  0  0  0  0  0  0  0  0  0  0  0
    5.3818   -0.6978   -3.1266 C   0  0  0  0  0  0  0  0  0  0  0  0
    3.7619   -0.9929   -1.7395 H   0  0  0  0  0  0  0  0  0  0  0  0
    5.3828    0.2317   -3.7048 H   0  0  0  0  0  0  0  0  0  0  0  0
    6.4174   -0.9937   -2.9302 H   0  0  0  0  0  0  0  0  0  0  0  0
    4.9076   -1.4800   -3.7269 H   0  0  0  0  0  0  0  0  0  0  0  0
  1  2  2  0  0  0  0
  1  3  1  0  0  0  0
  1  7  1  0  0  0  0
  3  4  1  0  0  0  0
  3  5  1  0  0  0  0
  3  6  1  0  0  0  0
  7  8  1  0  0  0  0
  7 12  1  0  0  0  0
  8  9  1  0  0  0  0
  8 11  1  0  0  0  0
  8 13  1  0  0  0  0
  9 10  2  0  0  0  0
  9 17  1  0  0  0  0
 11 14  1  0  0  0  0
 11 15  1  0  0  0  0
 11 16  1  0  0  0  0
 17 18  1  0  0  0  0
 17 23  1  0  0  0  0
 18 19  1  0  0  0  0
 18 21  1  0  0  0  0
 18 24  1  0  0  0  0
 19 20  2  0  0  0  0
 19 31  1  0  0  0  0
 21 22  1  0  0  0  0
 21 25  1  0  0  0  0
 21 26  1  0  0  0  0
 22 23  1  0  0  0  0
 22 27  1  0  0  0  0
 22 28  1  0  0  0  0
 23 29  1  0  0  0  0
 23 30  1  0  0  0  0
 31 32  1  0  0  0  0
 31 36  1  0  0  0  0
 32 33  1  0  0  0  0
 32 35  1  0  0  0  0
 32 37  1  0  0  0  0
 33 34  2  0  0  0  0
 33 41  1  0  0  0  0
 35 38  1  0  0  0  0
 35 39  1  0  0  0  0
 35 40  1  0  0  0  0
 41 42  1  0  0  0  0
 41 43  1  0  0  0  0
 42 44  1  0  0  0  0
 42 45  1  0  0  0  0
 42 46  1  0  0  0  0
M  END
$$$$

  -OEChem-05262217223D

 46 46  0     1  0  0  0  0  0999 V2000
   -1.9490    1.0479    3.5419 C   0  0  0  0  0  0  0  0  0  0  0  0
   -0.9480    0.3537    3.4459 O   0  0  0  0  0  0  0  0  0  0  0  0
   -2.4142    1.5312    4.9026 C   0  0  0  0  0  0  0  0  0  0  0  0
   -3.4309    1.1808    5.0968 H   0  0  0  0  0  0  0  0  0  0  0  0
   -1.7535    1.1478    5.6854 H   0  0  0  0  0  0  0  0  0  0  0  0
   -2.3996    2.6236    4.9344 H   0  0  0  0  0  0  0  0  0  0  0  0
   -2.6326    1.4343    2.4065 N   0  0  0  0  0  0  0  0  0  0  0  0
   -2.0561    1.2602    1.0658 C   0  0  2  0  0  0  0  0  0  0  0  0
   -1.0325    2.3813    0.7402 C   0  0  0  0  0  0  0  0  0  0  0  0
   -1.2876    3.5132    1.1435 O   0  0  0  0  0  0  0  0  0  0  0  0
   -3.2143    1.2400    0.0645 C   0  0  0  0  0  0  0  0  0  0  0  0
   -3.2830    2.2055    2.5326 H   0  0  0  0  0  0  0  0  0  0  0  0
   -1.5509    0.2910    1.0266 H   0  0  0  0  0  0  0  0  0  0  0  0
   -3.7154    2.2130    0.0360 H   0  0  0  0  0  0  0  0  0  0  0  0
   -2.8511    1.0046   -0.9398 H   0  0  0  0  0  0  0  0  0  0  0  0
   -3.9468    0.4778    0.3489 H   0  0  0  0  0  0  0  0  0  0  0  0
    0.0713    2.2081   -0.1153 N   0  0  0  0  0  0  0  0  0  0  0  0
    0.3570    0.8760   -0.8149 C   0  0  2  0  0  0  0  0  0  0  0  0
    1.7053    0.2223   -0.4626 C   0  0  0  0  0  0  0  0  0  0  0  0
    2.0455   -0.8043   -1.0364 O   0  0  0  0  0  0  0  0  0  0  0  0
    0.6161    1.5250   -2.1663 C   0  0  0  0  0  0  0  0  0  0  0  0
   -0.2550    2.7390   -1.9494 C   0  0  0  0  0  0  0  0  0  0  0  0
    0.5535    3.4154   -0.9406 C   0  0  0  0  0  0  0  0  0  0  0  0
   -0.4661    0.1577   -0.8316 H   0  0  0  0  0  0  0  0  0  0  0  0
    0.2454    0.8972   -2.9828 H   0  0  0  0  0  0  0  0  0  0  0  0
    1.6681    1.7632   -2.3752 H   0  0  0  0  0  0  0  0  0  0  0  0
   -0.2322    3.3476   -2.8587 H   0  0  0  0  0  0  0  0  0  0  0  0
   -1.3283    2.5580   -1.7720 H   0  0  0  0  0  0  0  0  0  0  0  0
    1.6351    3.4762   -1.1108 H   0  0  0  0  0  0  0  0  0  0  0  0
    0.1587    4.3925   -0.6414 H   0  0  0  0  0  0  0  0  0  0  0  0
    2.5504    0.8527    0.4340 N   0  0  0  0  0  0  0  0  0  0  0  0
    3.8627    0.3808    0.9190 C   0  0  2  0  0  0  0  0  0  0  0  0
    4.9843    0.3712   -0.1453 C   0  0  0  0  0  0  0  0  0  0  0  0
    6.0546    0.9122    0.0992 O   0  0  0  0  0  0  0  0  0  0  0  0
    3.7373   -0.9915    1.5946 C   0  0  0  0  0  0  0  0  0  0  0  0
    2.1659    1.6934    0.8618 H   0  0  0  0  0  0  0  0  0  0  0  0
    4.1857    1.0871    1.6907 H   0  0  0  0  0  0  0  0  0  0  0  0
    3.4963   -1.7726    0.8679 H   0  0  0  0  0  0  0  0  0  0  0  0
    4.6819   -1.2574    2.0791 H   0  0  0  0  0  0  0  0  0  0  0  0
    2.9520   -0.9691    2.3564 H   0  0  0  0  0  0  0  0  0  0  0  0
    4.8057   -0.2391   -1.3706 N   0  0  0  0  0  0  0  0  0  0  0  0
    5.8245   -0.3000   -2.4086 C   0  0  0  0  0  0  0  0  0  0  0  0
    3.8999   -0.6903   -1.5224 H   0  0  0  0  0  0  0  0  0  0  0  0
    6.1373    0.7088   -2.6972 H   0  0  0  0  0  0  0  0  0  0  0  0
    6.7000   -0.8529   -2.0526 H   0  0  0  0  0  0  0  0  0  0  0  0
    5.4300   -0.8064   -3.2947 H   0  0  0  0  0  0  0  0  0  0  0  0
  1  2  2  0  0  0  0
  1  3  1  0  0  0  0
  1  7  1  0  0  0  0
  3  4  1  0  0  0  0
  3  5  1  0  0  0  0
  3  6  1  0  0  0  0
  7  8  1  0  0  0  0
  7 12  1  0  0  0  0
  8  9  1  0  0  0  0
  8 11  1  0  0  0  0
  8 13  1  0  0  0  0
  9 10  2  0  0  0  0
  9 17  1  0  0  0  0
 11 14  1  0  0  0  0
 11 15  1  0  0  0  0
 11 16  1  0  0  0  0
 17 18  1  0  0  0  0
 17 23  1  0  0  0  0
 18 19  1  0  0  0  0
 18 21  1  0  0  0  0
 18 24  1  0  0  0  0
 19 20  2  0  0  0  0
 19 31  1  0  0  0  0
 21 22  1  0  0  0  0
 21 25  1  0  0  0  0
 21 26  1  0  0  0  0
 22 23  1  0  0  0  0
 22 27  1  0  0  0  0
 22 28  1  0  0  0  0
 23 29  1  0  0  0  0
 23 30  1  0  0  0  0
 31 32  1  0  0  0  0
 31 36  1  0  0  0  0
 32 33  1  0  0  0  0
 32 35  1  0  0  0  0
 32 37  1  0  0  0  0
 33 34  2  0  0  0  0
 33 41  1  0  0  0  0
 35 38  1  0  0  0  0
 35 39  1  0  0  0  0
 35 40  1  0  0  0  0
 41 42  1  0  0  0  0
 41 43  1  0  0  0  0
 42 44  1  0  0  0  0
 42 45  1  0  0  0  0
 42 46  1  0  0  0  0
M  END
$$$$

  -OEChem-05262217223D

 46 46  0     1  0  0  0  0  0999 V2000
   -1.4348    0.7734    3.0211 C   0  0  0  0  0  0  0  0  0  0  0  0
   -0.4860    0.2567    2.4490 O   0  0  0  0  0  0  0  0  0  0  0  0
   -1.4722    0.8343    4.5361 C   0  0  0  0  0  0  0  0  0  0  0  0
   -2.3697    0.3342    4.9085 H   0  0  0  0  0  0  0  0  0  0  0  0
   -0.5926    0.3373    4.9550 H   0  0  0  0  0  0  0  0  0  0  0  0
   -1.4786    1.8756    4.8678 H   0  0  0  0  0  0  0  0  0  0  0  0
   -2.4448    1.3510    2.2782 N   0  0  0  0  0  0  0  0  0  0  0  0
   -2.3388    1.5104    0.8221 C   0  0  2  0  0  0  0  0  0  0  0  0
   -1.2524    2.5595    0.4569 C   0  0  0  0  0  0  0  0  0  0  0  0
   -1.4640    3.7196    0.7995 O   0  0  0  0  0  0  0  0  0  0  0  0
   -3.7136    1.9183    0.2827 C   0  0  0  0  0  0  0  0  0  0  0  0
   -3.0879    1.9576    2.7798 H   0  0  0  0  0  0  0  0  0  0  0  0
   -2.0975    0.5407    0.3892 H   0  0  0  0  0  0  0  0  0  0  0  0
   -4.0357    2.8701    0.7179 H   0  0  0  0  0  0  0  0  0  0  0  0
   -3.6760    2.0303   -0.8053 H   0  0  0  0  0  0  0  0  0  0  0  0
   -4.4582    1.1540    0.5262 H   0  0  0  0  0  0  0  0  0  0  0  0
   -0.0932    2.2888   -0.2958 N   0  0  0  0  0  0  0  0  0  0  0  0
    0.2453    0.9024   -0.8633 C   0  0  2  0  0  0  0  0  0  0  0  0
    1.5632    0.2877   -0.3496 C   0  0  0  0  0  0  0  0  0  0  0  0
    2.0834   -0.6423   -0.9559 O   0  0  0  0  0  0  0  0  0  0  0  0
    0.5918    1.4343   -2.2463 C   0  0  0  0  0  0  0  0  0  0  0  0
   -0.2962    2.6517   -2.1903 C   0  0  0  0  0  0  0  0  0  0  0  0
    0.4442    3.4186   -1.1919 C   0  0  0  0  0  0  0  0  0  0  0  0
   -0.5631    0.1710   -0.8813 H   0  0  0  0  0  0  0  0  0  0  0  0
    0.2790    0.7354   -3.0291 H   0  0  0  0  0  0  0  0  0  0  0  0
    1.6546    1.6640   -2.4032 H   0  0  0  0  0  0  0  0  0  0  0  0
   -0.2179    3.1813   -3.1448 H   0  0  0  0  0  0  0  0  0  0  0  0
   -1.3785    2.4687   -2.0665 H   0  0  0  0  0  0  0  0  0  0  0  0
    1.5350    3.4697   -1.2912 H   0  0  0  0  0  0  0  0  0  0  0  0
    0.0307    4.4169   -1.0128 H   0  0  0  0  0  0  0  0  0  0  0  0
    2.1664    0.8311    0.7707 N   0  0  0  0  0  0  0  0  0  0  0  0
    3.3033    0.2755    1.5318 C   0  0  2  0  0  0  0  0  0  0  0  0
    4.6747    0.3245    0.8185 C   0  0  0  0  0  0  0  0  0  0  0  0
    5.6711    0.6521    1.4508 O   0  0  0  0  0  0  0  0  0  0  0  0
    2.9910   -1.1485    2.0110 C   0  0  0  0  0  0  0  0  0  0  0  0
    1.5846    1.5151    1.2521 H   0  0  0  0  0  0  0  0  0  0  0  0
    3.4110    0.8969    2.4267 H   0  0  0  0  0  0  0  0  0  0  0  0
    2.9637   -1.8509    1.1729 H   0  0  0  0  0  0  0  0  0  0  0  0
    3.7600   -1.4848    2.7135 H   0  0  0  0  0  0  0  0  0  0  0  0
    2.0223   -1.1741    2.5195 H   0  0  0  0  0  0  0  0  0  0  0  0
    4.8121   -0.0372   -0.5065 N   0  0  0  0  0  0  0  0  0  0  0  0
    6.0920   -0.1421   -1.1920 C   0  0  0  0  0  0  0  0  0  0  0  0
    3.9676   -0.3952   -0.9595 H   0  0  0  0  0  0  0  0  0  0  0  0
    6.6123    0.8212   -1.1816 H   0  0  0  0  0  0  0  0  0  0  0  0
    6.7258   -0.8907   -0.7057 H   0  0  0  0  0  0  0  0  0  0  0  0
    5.9383   -0.4407   -2.2332 H   0  0  0  0  0  0  0  0  0  0  0  0
  1  2  2  0  0  0  0
  1  3  1  0  0  0  0
  1  7  1  0  0  0  0
  3  4  1  0  0  0  0
  3  5  1  0  0  0  0
  3  6  1  0  0  0  0
  7  8  1  0  0  0  0
  7 12  1  0  0  0  0
  8  9  1  0  0  0  0
  8 11  1  0  0  0  0
  8 13  1  0  0  0  0
  9 10  2  0  0  0  0
  9 17  1  0  0  0  0
 11 14  1  0  0  0  0
 11 15  1  0  0  0  0
 11 16  1  0  0  0  0
 17 18  1  0  0  0  0
 17 23  1  0  0  0  0
 18 19  1  0  0  0  0
 18 21  1  0  0  0  0
 18 24  1  0  0  0  0
 19 20  2  0  0  0  0
 19 31  1  0  0  0  0
 21 22  1  0  0  0  0
 21 25  1  0  0  0  0
 21 26  1  0  0  0  0
 22 23  1  0  0  0  0
 22 27  1  0  0  0  0
 22 28  1  0  0  0  0
 23 29  1  0  0  0  0
 23 30  1  0  0  0  0
 31 32  1  0  0  0  0
 31 36  1  0  0  0  0
 32 33  1  0  0  0  0
 32 35  1  0  0  0  0
 32 37  1  0  0  0  0
 33 34  2  0  0  0  0
 33 41  1  0  0  0  0
 35 38  1  0  0  0  0
 35 39  1  0  0  0  0
 35 40  1  0  0  0  0
 41 42  1  0  0  0  0
 41 43  1  0  0  0  0
 42 44  1  0  0  0  0
 42 45  1  0  0  0  0
 42 46  1  0  0  0  0
M  END
$$$$

  -OEChem-05262217223D

 46 46  0     1  0  0  0  0  0999 V2000
   -1.6427    0.9250    3.0924 C   0  0  0  0  0  0  0  0  0  0  0  0
   -0.6418    0.4046    2.6178 O   0  0  0  0  0  0  0  0  0  0  0  0
   -1.7940    1.0575    4.5956 C   0  0  0  0  0  0  0  0  0  0  0  0
   -2.7003    0.5449    4.9270 H   0  0  0  0  0  0  0  0  0  0  0  0
   -0.9326    0.6121    5.1015 H   0  0  0  0  0  0  0  0  0  0  0  0
   -1.8578    2.1127    4.8729 H   0  0  0  0  0  0  0  0  0  0  0  0
   -2.6071    1.4428    2.2501 N   0  0  0  0  0  0  0  0  0  0  0  0
   -2.3802    1.5561    0.8033 C   0  0  2  0  0  0  0  0  0  0  0  0
   -1.2323    2.5600    0.5076 C   0  0  0  0  0  0  0  0  0  0  0  0
   -1.4122    3.7221    0.8614 O   0  0  0  0  0  0  0  0  0  0  0  0
   -3.6890    1.9940    0.1387 C   0  0  0  0  0  0  0  0  0  0  0  0
   -3.2856    2.0692    2.6752 H   0  0  0  0  0  0  0  0  0  0  0  0
   -2.1330    0.5654    0.4239 H   0  0  0  0  0  0  0  0  0  0  0  0
   -4.0073    2.9713    0.5160 H   0  0  0  0  0  0  0  0  0  0  0  0
   -3.5584    2.0673   -0.9452 H   0  0  0  0  0  0  0  0  0  0  0  0
   -4.4806    1.2667    0.3432 H   0  0  0  0  0  0  0  0  0  0  0  0
   -0.0621    2.2483   -0.2111 N   0  0  0  0  0  0  0  0  0  0  0  0
    0.2253    0.8619   -0.8053 C   0  0  2  0  0  0  0  0  0  0  0  0
    1.4919    0.1667   -0.2576 C   0  0  0  0  0  0  0  0  0  0  0  0
    2.1352   -0.6088   -0.9570 O   0  0  0  0  0  0  0  0  0  0  0  0
    0.6393    1.4181   -2.1624 C   0  0  0  0  0  0  0  0  0  0  0  0
   -0.1883    2.6757   -2.0999 C   0  0  0  0  0  0  0  0  0  0  0  0
    0.5605    3.3734   -1.0566 C   0  0  0  0  0  0  0  0  0  0  0  0
   -0.6198    0.1764   -0.8728 H   0  0  0  0  0  0  0  0  0  0  0  0
    0.3191    0.7580   -2.9750 H   0  0  0  0  0  0  0  0  0  0  0  0
    1.7152    1.6026   -2.2832 H   0  0  0  0  0  0  0  0  0  0  0  0
   -0.0535    3.2276   -3.0355 H   0  0  0  0  0  0  0  0  0  0  0  0
   -1.2812    2.5446   -2.0144 H   0  0  0  0  0  0  0  0  0  0  0  0
    1.6552    3.3695   -1.1199 H   0  0  0  0  0  0  0  0  0  0  0  0
    0.1956    4.3872   -0.8596 H   0  0  0  0  0  0  0  0  0  0  0  0
    1.8901    0.4360    1.0397 N   0  0  0  0  0  0  0  0  0  0  0  0
    2.9445   -0.2500    1.8135 C   0  0  2  0  0  0  0  0  0  0  0  0
    4.3962    0.0008    1.3415 C   0  0  0  0  0  0  0  0  0  0  0  0
    5.2888    0.1131    2.1727 O   0  0  0  0  0  0  0  0  0  0  0  0
    2.6542   -1.7532    1.9137 C   0  0  0  0  0  0  0  0  0  0  0  0
    1.1855    0.9355    1.5868 H   0  0  0  0  0  0  0  0  0  0  0  0
    2.8907    0.1533    2.8297 H   0  0  0  0  0  0  0  0  0  0  0  0
    2.7838   -2.2465    0.9461 H   0  0  0  0  0  0  0  0  0  0  0  0
    3.3390   -2.2200    2.6288 H   0  0  0  0  0  0  0  0  0  0  0  0
    1.6283   -1.9195    2.2570 H   0  0  0  0  0  0  0  0  0  0  0  0
    4.7203    0.0620    0.0006 N   0  0  0  0  0  0  0  0  0  0  0  0
    6.0818    0.1791   -0.5017 C   0  0  0  0  0  0  0  0  0  0  0  0
    3.9660   -0.1785   -0.6468 H   0  0  0  0  0  0  0  0  0  0  0  0
    6.5762    1.0558   -0.0700 H   0  0  0  0  0  0  0  0  0  0  0  0
    6.6614   -0.7136   -0.2460 H   0  0  0  0  0  0  0  0  0  0  0  0
    6.0727    0.2898   -1.5902 H   0  0  0  0  0  0  0  0  0  0  0  0
  1  2  2  0  0  0  0
  1  3  1  0  0  0  0
  1  7  1  0  0  0  0
  3  4  1  0  0  0  0
  3  5  1  0  0  0  0
  3  6  1  0  0  0  0
  7  8  1  0  0  0  0
  7 12  1  0  0  0  0
  8  9  1  0  0  0  0
  8 11  1  0  0  0  0
  8 13  1  0  0  0  0
  9 10  2  0  0  0  0
  9 17  1  0  0  0  0
 11 14  1  0  0  0  0
 11 15  1  0  0  0  0
 11 16  1  0  0  0  0
 17 18  1  0  0  0  0
 17 23  1  0  0  0  0
 18 19  1  0  0  0  0
 18 21  1  0  0  0  0
 18 24  1  0  0  0  0
 19 20  2  0  0  0  0
 19 31  1  0  0  0  0
 21 22  1  0  0  0  0
 21 25  1  0  0  0  0
 21 26  1  0  0  0  0
 22 23  1  0  0  0  0
 22 27  1  0  0  0  0
 22 28  1  0  0  0  0
 23 29  1  0  0  0  0
 23 30  1  0  0  0  0
 31 32  1  0  0  0  0
 31 36  1  0  0  0  0
 32 33  1  0  0  0  0
 32 35  1  0  0  0  0
 32 37  1  0  0  0  0
 33 34  2  0  0  0  0
 33 41  1  0  0  0  0
 35 38  1  0  0  0  0
 35 39  1  0  0  0  0
 35 40  1  0  0  0  0
 41 42  1  0  0  0  0
 41 43  1  0  0  0  0
 42 44  1  0  0  0  0
 42 45  1  0  0  0  0
 42 46  1  0  0  0  0
M  END
$$$$

  -OEChem-05262217223D

 46 46  0     1  0  0  0  0  0999 V2000
   -1.8542    0.9656    3.1255 C   0  0  0  0  0  0  0  0  0  0  0  0
   -0.8894    0.3459    2.6973 O   0  0  0  0  0  0  0  0  0  0  0  0
   -2.0530    1.1374    4.6190 C   0  0  0  0  0  0  0  0  0  0  0  0
   -3.0303    0.7476    4.9139 H   0  0  0  0  0  0  0  0  0  0  0  0
   -1.2782    0.5950    5.1681 H   0  0  0  0  0  0  0  0  0  0  0  0
   -1.9955    2.1964    4.8828 H   0  0  0  0  0  0  0  0  0  0  0  0
   -2.7291    1.5594    2.2377 N   0  0  0  0  0  0  0  0  0  0  0  0
   -2.4244    1.6397    0.8033 C   0  0  2  0  0  0  0  0  0  0  0  0
   -1.2244    2.5939    0.5522 C   0  0  0  0  0  0  0  0  0  0  0  0
   -1.3662    3.7588    0.9148 O   0  0  0  0  0  0  0  0  0  0  0  0
   -3.6817    2.1176    0.0703 C   0  0  0  0  0  0  0  0  0  0  0  0
   -3.3548    2.2594    2.6278 H   0  0  0  0  0  0  0  0  0  0  0  0
   -2.1979    0.6342    0.4501 H   0  0  0  0  0  0  0  0  0  0  0  0
   -3.9747    3.1154    0.4130 H   0  0  0  0  0  0  0  0  0  0  0  0
   -3.5001    2.1617   -1.0077 H   0  0  0  0  0  0  0  0  0  0  0  0
   -4.5121    1.4287    0.2533 H   0  0  0  0  0  0  0  0  0  0  0  0
   -0.0521    2.2418   -0.1451 N   0  0  0  0  0  0  0  0  0  0  0  0
    0.1808    0.8526   -0.7555 C   0  0  2  0  0  0  0  0  0  0  0  0
    1.4024    0.0895   -0.1884 C   0  0  0  0  0  0  0  0  0  0  0  0
    2.1448   -0.5634   -0.9156 O   0  0  0  0  0  0  0  0  0  0  0  0
    0.6398    1.4167   -2.0976 C   0  0  0  0  0  0  0  0  0  0  0  0
   -0.1297    2.7095   -2.0276 C   0  0  0  0  0  0  0  0  0  0  0  0
    0.6347    3.3524   -0.9602 C   0  0  0  0  0  0  0  0  0  0  0  0
   -0.6945    0.2094   -0.8495 H   0  0  0  0  0  0  0  0  0  0  0  0
    0.3033    0.7858   -2.9266 H   0  0  0  0  0  0  0  0  0  0  0  0
    1.7235    1.5592   -2.2033 H   0  0  0  0  0  0  0  0  0  0  0  0
    0.0478    3.2692   -2.9512 H   0  0  0  0  0  0  0  0  0  0  0  0
   -1.2282    2.6292   -1.9626 H   0  0  0  0  0  0  0  0  0  0  0  0
    1.7288    3.2996   -1.0065 H   0  0  0  0  0  0  0  0  0  0  0  0
    0.3143    4.3781   -0.7480 H   0  0  0  0  0  0  0  0  0  0  0  0
    1.5934    0.0765    1.1827 N   0  0  0  0  0  0  0  0  0  0  0  0
    2.5737   -0.7176    1.9507 C   0  0  2  0  0  0  0  0  0  0  0  0
    4.0596   -0.3470    1.7307 C   0  0  0  0  0  0  0  0  0  0  0  0
    4.8127   -0.2757    2.6939 O   0  0  0  0  0  0  0  0  0  0  0  0
    2.3501   -2.2188    1.7316 C   0  0  0  0  0  0  0  0  0  0  0  0
    0.8284    0.4912    1.7232 H   0  0  0  0  0  0  0  0  0  0  0  0
    2.3711   -0.5162    3.0077 H   0  0  0  0  0  0  0  0  0  0  0  0
    2.6131   -2.5144    0.7117 H   0  0  0  0  0  0  0  0  0  0  0  0
    2.9720   -2.7935    2.4249 H   0  0  0  0  0  0  0  0  0  0  0  0
    1.3017   -2.4747    1.9119 H   0  0  0  0  0  0  0  0  0  0  0  0
    4.5740   -0.1455    0.4653 N   0  0  0  0  0  0  0  0  0  0  0  0
    5.9815    0.0998    0.1852 C   0  0  0  0  0  0  0  0  0  0  0  0
    3.9264   -0.3067   -0.3099 H   0  0  0  0  0  0  0  0  0  0  0  0
    6.3287    0.9897    0.7206 H   0  0  0  0  0  0  0  0  0  0  0  0
    6.5884   -0.7578    0.4935 H   0  0  0  0  0  0  0  0  0  0  0  0
    6.1291    0.2623   -0.8867 H   0  0  0  0  0  0  0  0  0  0  0  0
  1  2  2  0  0  0  0
  1  3  1  0  0  0  0
  1  7  1  0  0  0  0
  3  4  1  0  0  0  0
  3  5  1  0  0  0  0
  3  6  1  0  0  0  0
  7  8  1  0  0  0  0
  7 12  1  0  0  0  0
  8  9  1  0  0  0  0
  8 11  1  0  0  0  0
  8 13  1  0  0  0  0
  9 10  2  0  0  0  0
  9 17  1  0  0  0  0
 11 14  1  0  0  0  0
 11 15  1  0  0  0  0
 11 16  1  0  0  0  0
 17 18  1  0  0  0  0
 17 23  1  0  0  0  0
 18 19  1  0  0  0  0
 18 21  1  0  0  0  0
 18 24  1  0  0  0  0
 19 20  2  0  0  0  0
 19 31  1  0  0  0  0
 21 22  1  0  0  0  0
 21 25  1  0  0  0  0
 21 26  1  0  0  0  0
 22 23  1  0  0  0  0
 22 27  1  0  0  0  0
 22 28  1  0  0  0  0
 23 29  1  0  0  0  0
 23 30  1  0  0  0  0
 31 32  1  0  0  0  0
 31 36  1  0  0  0  0
 32 33  1  0  0  0  0
 32 35  1  0  0  0  0
 32 37  1  0  0  0  0
 33 34  2  0  0  0  0
 33 41  1  0  0  0  0
 35 38  1  0  0  0  0
 35 39  1  0  0  0  0
 35 40  1  0  0  0  0
 41 42  1  0  0  0  0
 41 43  1  0  0  0  0
 42 44  1  0  0  0  0
 42 45  1  0  0  0  0
 42 46  1  0  0  0  0
M  END
$$$$

  -OEChem-05262217223D

 46 46  0     1  0  0  0  0  0999 V2000
   -2.0263    0.9767    3.1041 C   0  0  0  0  0  0  0  0  0  0  0  0
   -1.1589    0.2233    2.6828 O   0  0  0  0  0  0  0  0  0  0  0  0
   -2.2140    1.1700    4.5965 C   0  0  0  0  0  0  0  0  0  0  0  0
   -3.2339    0.9029    4.8834 H   0  0  0  0  0  0  0  0  0  0  0  0
   -1.5149    0.5362    5.1496 H   0  0  0  0  0  0  0  0  0  0  0  0
   -2.0285    2.2135    4.8637 H   0  0  0  0  0  0  0  0  0  0  0  0
   -2.7915    1.6959    2.2087 N   0  0  0  0  0  0  0  0  0  0  0  0
   -2.4475    1.7503    0.7821 C   0  0  2  0  0  0  0  0  0  0  0  0
   -1.1808    2.6220    0.5597 C   0  0  0  0  0  0  0  0  0  0  0  0
   -1.2509    3.7890    0.9359 O   0  0  0  0  0  0  0  0  0  0  0  0
   -3.6540    2.3074    0.0202 C   0  0  0  0  0  0  0  0  0  0  0  0
   -3.3116    2.4790    2.5965 H   0  0  0  0  0  0  0  0  0  0  0  0
   -2.2805    0.7323    0.4317 H   0  0  0  0  0  0  0  0  0  0  0  0
   -3.8832    3.3263    0.3488 H   0  0  0  0  0  0  0  0  0  0  0  0
   -3.4498    2.3280   -1.0543 H   0  0  0  0  0  0  0  0  0  0  0  0
   -4.5339    1.6797    0.1923 H   0  0  0  0  0  0  0  0  0  0  0  0
   -0.0213    2.1998   -0.1222 N   0  0  0  0  0  0  0  0  0  0  0  0
    0.1293    0.8038   -0.7432 C   0  0  2  0  0  0  0  0  0  0  0  0
    1.2933   -0.0355   -0.1547 C   0  0  0  0  0  0  0  0  0  0  0  0
    2.1571   -0.5524   -0.8569 O   0  0  0  0  0  0  0  0  0  0  0  0
    0.6211    1.3492   -2.0842 C   0  0  0  0  0  0  0  0  0  0  0  0
   -0.0706    2.6835   -2.0039 C   0  0  0  0  0  0  0  0  0  0  0  0
    0.7323    3.2713   -0.9314 C   0  0  0  0  0  0  0  0  0  0  0  0
   -0.7834    0.2162   -0.8449 H   0  0  0  0  0  0  0  0  0  0  0  0
    0.2477    0.7438   -2.9163 H   0  0  0  0  0  0  0  0  0  0  0  0
    1.7095    1.4365   -2.1972 H   0  0  0  0  0  0  0  0  0  0  0  0
    0.1406    3.2399   -2.9223 H   0  0  0  0  0  0  0  0  0  0  0  0
   -1.1719    2.6667   -1.9413 H   0  0  0  0  0  0  0  0  0  0  0  0
    1.8213    3.1513   -0.9768 H   0  0  0  0  0  0  0  0  0  0  0  0
    0.4760    4.3134   -0.7124 H   0  0  0  0  0  0  0  0  0  0  0  0
    1.2664   -0.3201    1.2002 N   0  0  0  0  0  0  0  0  0  0  0  0
    2.1449   -1.2370    1.9547 C   0  0  2  0  0  0  0  0  0  0  0  0
    3.6284   -0.8107    2.0590 C   0  0  0  0  0  0  0  0  0  0  0  0
    4.2231   -0.9489    3.1208 O   0  0  0  0  0  0  0  0  0  0  0  0
    2.0271   -2.6702    1.4203 C   0  0  0  0  0  0  0  0  0  0  0  0
    0.4645    0.0597    1.7132 H   0  0  0  0  0  0  0  0  0  0  0  0
    1.7663   -1.2475    2.9823 H   0  0  0  0  0  0  0  0  0  0  0  0
    2.4777   -2.7612    0.4278 H   0  0  0  0  0  0  0  0  0  0  0  0
    2.5418   -3.3634    2.0930 H   0  0  0  0  0  0  0  0  0  0  0  0
    0.9756   -2.9659    1.3565 H   0  0  0  0  0  0  0  0  0  0  0  0
    4.3166   -0.3256    0.9648 N   0  0  0  0  0  0  0  0  0  0  0  0
    5.7406   -0.0245    0.9655 C   0  0  0  0  0  0  0  0  0  0  0  0
    3.8049   -0.3350    0.0793 H   0  0  0  0  0  0  0  0  0  0  0  0
    5.9782    0.7050    1.7467 H   0  0  0  0  0  0  0  0  0  0  0  0
    6.3232   -0.9340    1.1424 H   0  0  0  0  0  0  0  0  0  0  0  0
    6.0365    0.3955   -0.0001 H   0  0  0  0  0  0  0  0  0  0  0  0
  1  2  2  0  0  0  0
  1  3  1  0  0  0  0
  1  7  1  0  0  0  0
  3  4  1  0  0  0  0
  3  5  1  0  0  0  0
  3  6  1  0  0  0  0
  7  8  1  0  0  0  0
  7 12  1  0  0  0  0
  8  9  1  0  0  0  0
  8 11  1  0  0  0  0
  8 13  1  0  0  0  0
  9 10  2  0  0  0  0
  9 17  1  0  0  0  0
 11 14  1  0  0  0  0
 11 15  1  0  0  0  0
 11 16  1  0  0  0  0
 17 18  1  0  0  0  0
 17 23  1  0  0  0  0
 18 19  1  0  0  0  0
 18 21  1  0  0  0  0
 18 24  1  0  0  0  0
 19 20  2  0  0  0  0
 19 31  1  0  0  0  0
 21 22  1  0  0  0  0
 21 25  1  0  0  0  0
 21 26  1  0  0  0  0
 22 23  1  0  0  0  0
 22 27  1  0  0  0  0
 22 28  1  0  0  0  0
 23 29  1  0  0  0  0
 23 30  1  0  0  0  0
 31 32  1  0  0  0  0
 31 36  1  0  0  0  0
 32 33  1  0  0  0  0
 32 35  1  0  0  0  0
 32 37  1  0  0  0  0
 33 34  2  0  0  0  0
 33 41  1  0  0  0  0
 35 38  1  0  0  0  0
 35 39  1  0  0  0  0
 35 40  1  0  0  0  0
 41 42  1  0  0  0  0
 41 43  1  0  0  0  0
 42 44  1  0  0  0  0
 42 45  1  0  0  0  0
 42 46  1  0  0  0  0
M  END
$$$$

  -OEChem-05262217223D

 46 46  0     1  0  0  0  0  0999 V2000
   -2.0732    1.3143    3.0316 C   0  0  0  0  0  0  0  0  0  0  0  0
   -1.4469    0.4162    2.4923 O   0  0  0  0  0  0  0  0  0  0  0  0
   -2.1908    1.3531    4.5429 C   0  0  0  0  0  0  0  0  0  0  0  0
   -3.2432    1.3779    4.8364 H   0  0  0  0  0  0  0  0  0  0  0  0
   -1.7241    0.4664    4.9816 H   0  0  0  0  0  0  0  0  0  0  0  0
   -1.6894    2.2425    4.9326 H   0  0  0  0  0  0  0  0  0  0  0  0
   -2.6517    2.3109    2.2730 N   0  0  0  0  0  0  0  0  0  0  0  0
   -2.4245    2.5089    0.8301 C   0  0  2  0  0  0  0  0  0  0  0  0
   -0.9524    2.9347    0.5229 C   0  0  0  0  0  0  0  0  0  0  0  0
   -0.7015    4.0668    0.9272 O   0  0  0  0  0  0  0  0  0  0  0  0
   -3.0856    1.3815    0.0237 C   0  0  0  0  0  0  0  0  0  0  0  0
   -3.0000    3.1095    2.7972 H   0  0  0  0  0  0  0  0  0  0  0  0
   -3.0025    3.3969    0.5529 H   0  0  0  0  0  0  0  0  0  0  0  0
   -4.1642    1.3849    0.2081 H   0  0  0  0  0  0  0  0  0  0  0  0
   -2.9277    1.5336   -1.0479 H   0  0  0  0  0  0  0  0  0  0  0  0
   -2.7101    0.3967    0.3103 H   0  0  0  0  0  0  0  0  0  0  0  0
    0.0925    2.2579   -0.1558 N   0  0  0  0  0  0  0  0  0  0  0  0
    0.0145    0.8588   -0.7880 C   0  0  2  0  0  0  0  0  0  0  0  0
    1.0143   -0.1672   -0.1781 C   0  0  0  0  0  0  0  0  0  0  0  0
    1.9747   -0.6191   -0.7947 O   0  0  0  0  0  0  0  0  0  0  0  0
    0.5718    1.3050   -2.1398 C   0  0  0  0  0  0  0  0  0  0  0  0
    0.1071    2.7300   -2.0528 C   0  0  0  0  0  0  0  0  0  0  0  0
    1.0167    3.1707   -0.9915 C   0  0  0  0  0  0  0  0  0  0  0  0
   -0.9737    0.4233   -0.8831 H   0  0  0  0  0  0  0  0  0  0  0  0
    0.0866    0.7665   -2.9598 H   0  0  0  0  0  0  0  0  0  0  0  0
    1.6560    1.2173   -2.2812 H   0  0  0  0  0  0  0  0  0  0  0  0
    0.3905    3.2460   -2.9755 H   0  0  0  0  0  0  0  0  0  0  0  0
   -0.9812    2.8922   -1.9712 H   0  0  0  0  0  0  0  0  0  0  0  0
    2.0663    2.8574   -1.0440 H   0  0  0  0  0  0  0  0  0  0  0  0
    0.9608    4.2461   -0.7923 H   0  0  0  0  0  0  0  0  0  0  0  0
    0.7372   -0.6910    1.0720 N   0  0  0  0  0  0  0  0  0  0  0  0
    1.4689   -1.7408    1.8104 C   0  0  2  0  0  0  0  0  0  0  0  0
    2.9016   -1.3620    2.2537 C   0  0  0  0  0  0  0  0  0  0  0  0
    3.2684   -1.6130    3.3950 O   0  0  0  0  0  0  0  0  0  0  0  0
    1.4679   -3.0654    1.0365 C   0  0  0  0  0  0  0  0  0  0  0  0
   -0.0523   -0.2593    1.5615 H   0  0  0  0  0  0  0  0  0  0  0  0
    0.9065   -1.9129    2.7341 H   0  0  0  0  0  0  0  0  0  0  0  0
    2.1027   -3.0062    0.1478 H   0  0  0  0  0  0  0  0  0  0  0  0
    1.8473   -3.8703    1.6738 H   0  0  0  0  0  0  0  0  0  0  0  0
    0.4511   -3.3215    0.7241 H   0  0  0  0  0  0  0  0  0  0  0  0
    3.7941   -0.7793    1.3763 N   0  0  0  0  0  0  0  0  0  0  0  0
    5.1682   -0.4360    1.7117 C   0  0  0  0  0  0  0  0  0  0  0  0
    3.4564   -0.6413    0.4206 H   0  0  0  0  0  0  0  0  0  0  0  0
    5.1927    0.2631    2.5541 H   0  0  0  0  0  0  0  0  0  0  0  0
    5.7327   -1.3345    1.9811 H   0  0  0  0  0  0  0  0  0  0  0  0
    5.6575    0.0374    0.8552 H   0  0  0  0  0  0  0  0  0  0  0  0
  1  2  2  0  0  0  0
  1  3  1  0  0  0  0
  1  7  1  0  0  0  0
  3  4  1  0  0  0  0
  3  5  1  0  0  0  0
  3  6  1  0  0  0  0
  7  8  1  0  0  0  0
  7 12  1  0  0  0  0
  8  9  1  0  0  0  0
  8 11  1  0  0  0  0
  8 13  1  0  0  0  0
  9 10  2  0  0  0  0
  9 17  1  0  0  0  0
 11 14  1  0  0  0  0
 11 15  1  0  0  0  0
 11 16  1  0  0  0  0
 17 18  1  0  0  0  0
 17 23  1  0  0  0  0
 18 19  1  0  0  0  0
 18 21  1  0  0  0  0
 18 24  1  0  0  0  0
 19 20  2  0  0  0  0
 19 31  1  0  0  0  0
 21 22  1  0  0  0  0
 21 25  1  0  0  0  0
 21 26  1  0  0  0  0
 22 23  1  0  0  0  0
 22 27  1  0  0  0  0
 22 28  1  0  0  0  0
 23 29  1  0  0  0  0
 23 30  1  0  0  0  0
 31 32  1  0  0  0  0
 31 36  1  0  0  0  0
 32 33  1  0  0  0  0
 32 35  1  0  0  0  0
 32 37  1  0  0  0  0
 33 34  2  0  0  0  0
 33 41  1  0  0  0  0
 35 38  1  0  0  0  0
 35 39  1  0  0  0  0
 35 40  1  0  0  0  0
 41 42  1  0  0  0  0
 41 43  1  0  0  0  0
 42 44  1  0  0  0  0
 42 45  1  0  0  0  0
 42 46  1  0  0  0  0
M  END
$$$$

  -OEChem-05262217223D

 46 46  0     1  0  0  0  0  0999 V2000
   -2.0828    0.2469    2.5081 C   0  0  0  0  0  0  0  0  0  0  0  0
   -2.2222   -0.4932    1.5445 O   0  0  0  0  0  0  0  0  0  0  0  0
   -1.8408   -0.3340    3.8874 C   0  0  0  0  0  0  0  0  0  0  0  0
   -2.5415    0.0990    4.6051 H   0  0  0  0  0  0  0  0  0  0  0  0
   -1.9784   -1.4187    3.8715 H   0  0  0  0  0  0  0  0  0  0  0  0
   -0.8186   -0.1160    4.2096 H   0  0  0  0  0  0  0  0  0  0  0  0
   -2.0675    1.6118    2.3204 N   0  0  0  0  0  0  0  0  0  0  0  0
   -2.0043    2.2547    1.0001 C   0  0  2  0  0  0  0  0  0  0  0  0
   -0.5365    2.6146    0.6462 C   0  0  0  0  0  0  0  0  0  0  0  0
   -0.0831    3.6480    1.1296 O   0  0  0  0  0  0  0  0  0  0  0  0
   -2.9115    3.4905    1.0558 C   0  0  0  0  0  0  0  0  0  0  0  0
   -1.7940    2.1725    3.1248 H   0  0  0  0  0  0  0  0  0  0  0  0
   -2.4194    1.6052    0.2286 H   0  0  0  0  0  0  0  0  0  0  0  0
   -2.5907    4.1760    1.8473 H   0  0  0  0  0  0  0  0  0  0  0  0
   -2.8825    4.0259    0.1018 H   0  0  0  0  0  0  0  0  0  0  0  0
   -3.9454    3.1919    1.2547 H   0  0  0  0  0  0  0  0  0  0  0  0
    0.2837    1.8758   -0.2301 N   0  0  0  0  0  0  0  0  0  0  0  0
   -0.1576    0.6039   -0.9698 C   0  0  2  0  0  0  0  0  0  0  0  0
    0.7018   -0.6297   -0.5855 C   0  0  0  0  0  0  0  0  0  0  0  0
    1.8615   -0.7756   -0.9602 O   0  0  0  0  0  0  0  0  0  0  0  0
    0.2942    1.0838   -2.3474 C   0  0  0  0  0  0  0  0  0  0  0  0
    0.1399    2.5509   -2.0535 C   0  0  0  0  0  0  0  0  0  0  0  0
    1.2474    2.7015   -1.1058 C   0  0  0  0  0  0  0  0  0  0  0  0
   -1.2249    0.3784   -0.9341 H   0  0  0  0  0  0  0  0  0  0  0  0
   -0.3973    0.7493   -3.1268 H   0  0  0  0  0  0  0  0  0  0  0  0
    1.3075    0.8080   -2.6621 H   0  0  0  0  0  0  0  0  0  0  0  0
    0.3982    3.1123   -2.9571 H   0  0  0  0  0  0  0  0  0  0  0  0
   -0.8761    2.8999   -1.7999 H   0  0  0  0  0  0  0  0  0  0  0  0
    2.1998    2.2145   -1.3475 H   0  0  0  0  0  0  0  0  0  0  0  0
    1.4203    3.7370   -0.7934 H   0  0  0  0  0  0  0  0  0  0  0  0
    0.2543   -1.3854    0.4840 N   0  0  0  0  0  0  0  0  0  0  0  0
    1.0623   -2.2047    1.4046 C   0  0  2  0  0  0  0  0  0  0  0  0
    1.9990   -1.3430    2.2788 C   0  0  0  0  0  0  0  0  0  0  0  0
    1.7901   -1.2548    3.4829 O   0  0  0  0  0  0  0  0  0  0  0  0
    1.8170   -3.3305    0.6829 C   0  0  0  0  0  0  0  0  0  0  0  0
   -0.6858   -1.1451    0.8100 H   0  0  0  0  0  0  0  0  0  0  0  0
    0.3604   -2.6922    2.0892 H   0  0  0  0  0  0  0  0  0  0  0  0
    2.6370   -2.9404    0.0738 H   0  0  0  0  0  0  0  0  0  0  0  0
    2.2406   -4.0246    1.4149 H   0  0  0  0  0  0  0  0  0  0  0  0
    1.1343   -3.8857    0.0330 H   0  0  0  0  0  0  0  0  0  0  0  0
    2.9871   -0.5728    1.6981 N   0  0  0  0  0  0  0  0  0  0  0  0
    3.7332    0.4507    2.4159 C   0  0  0  0  0  0  0  0  0  0  0  0
    2.9763   -0.5493    0.6750 H   0  0  0  0  0  0  0  0  0  0  0  0
    3.0659    1.2597    2.7309 H   0  0  0  0  0  0  0  0  0  0  0  0
    4.2158    0.0246    3.3018 H   0  0  0  0  0  0  0  0  0  0  0  0
    4.5102    0.8717    1.7706 H   0  0  0  0  0  0  0  0  0  0  0  0
  1  2  2  0  0  0  0
  1  3  1  0  0  0  0
  1  7  1  0  0  0  0
  3  4  1  0  0  0  0
  3  5  1  0  0  0  0
  3  6  1  0  0  0  0
  7  8  1  0  0  0  0
  7 12  1  0  0  0  0
  8  9  1  0  0  0  0
  8 11  1  0  0  0  0
  8 13  1  0  0  0  0
  9 10  2  0  0  0  0
  9 17  1  0  0  0  0
 11 14  1  0  0  0  0
 11 15  1  0  0  0  0
 11 16  1  0  0  0  0
 17 18  1  0  0  0  0
 17 23  1  0  0  0  0
 18 19  1  0  0  0  0
 18 21  1  0  0  0  0
 18 24  1  0  0  0  0
 19 20  2  0  0  0  0
 19 31  1  0  0  0  0
 21 22  1  0  0  0  0
 21 25  1  0  0  0  0
 21 26  1  0  0  0  0
 22 23  1  0  0  0  0
 22 27  1  0  0  0  0
 22 28  1  0  0  0  0
 23 29  1  0  0  0  0
 23 30  1  0  0  0  0
 31 32  1  0  0  0  0
 31 36  1  0  0  0  0
 32 33  1  0  0  0  0
 32 35  1  0  0  0  0
 32 37  1  0  0  0  0
 33 34  2  0  0  0  0
 33 41  1  0  0  0  0
 35 38  1  0  0  0  0
 35 39  1  0  0  0  0
 35 40  1  0  0  0  0
 41 42  1  0  0  0  0
 41 43  1  0  0  0  0
 42 44  1  0  0  0  0
 42 45  1  0  0  0  0
 42 46  1  0  0  0  0
M  END
$$$$

  -OEChem-05262217223D

 46 46  0     1  0  0  0  0  0999 V2000
   -2.1036    0.1425    2.2963 C   0  0  0  0  0  0  0  0  0  0  0  0
   -2.3264   -0.4812    1.2677 O   0  0  0  0  0  0  0  0  0  0  0  0
   -1.9632   -0.5896    3.6168 C   0  0  0  0  0  0  0  0  0  0  0  0
   -2.7475   -0.2705    4.3072 H   0  0  0  0  0  0  0  0  0  0  0  0
   -2.0457   -1.6692    3.4630 H   0  0  0  0  0  0  0  0  0  0  0  0
   -0.9874   -0.3763    4.0615 H   0  0  0  0  0  0  0  0  0  0  0  0
   -1.9429    1.5108    2.2454 N   0  0  0  0  0  0  0  0  0  0  0  0
   -1.9051    2.3036    1.0069 C   0  0  2  0  0  0  0  0  0  0  0  0
   -0.4435    2.6396    0.6008 C   0  0  0  0  0  0  0  0  0  0  0  0
    0.0503    3.6674    1.0557 O   0  0  0  0  0  0  0  0  0  0  0  0
   -2.7456    3.5632    1.2582 C   0  0  0  0  0  0  0  0  0  0  0  0
   -1.6440    1.9651    3.1055 H   0  0  0  0  0  0  0  0  0  0  0  0
   -2.3916    1.7717    0.1874 H   0  0  0  0  0  0  0  0  0  0  0  0
   -2.3507    4.1333    2.1056 H   0  0  0  0  0  0  0  0  0  0  0  0
   -2.7367    4.2077    0.3737 H   0  0  0  0  0  0  0  0  0  0  0  0
   -3.7824    3.2899    1.4773 H   0  0  0  0  0  0  0  0  0  0  0  0
    0.3246    1.8800   -0.3035 N   0  0  0  0  0  0  0  0  0  0  0  0
   -0.1855    0.6180   -1.0123 C   0  0  2  0  0  0  0  0  0  0  0  0
    0.6426   -0.6463   -0.6698 C   0  0  0  0  0  0  0  0  0  0  0  0
    1.8462   -0.7186   -0.9000 O   0  0  0  0  0  0  0  0  0  0  0  0
    0.2412    1.0659   -2.4065 C   0  0  0  0  0  0  0  0  0  0  0  0
    0.1492    2.5419   -2.1256 C   0  0  0  0  0  0  0  0  0  0  0  0
    1.2878    2.6661   -1.2142 C   0  0  0  0  0  0  0  0  0  0  0  0
   -1.2590    0.4355   -0.9448 H   0  0  0  0  0  0  0  0  0  0  0  0
   -0.4845    0.7492   -3.1620 H   0  0  0  0  0  0  0  0  0  0  0  0
    1.2348    0.7439   -2.7421 H   0  0  0  0  0  0  0  0  0  0  0  0
    0.3983    3.0826   -3.0441 H   0  0  0  0  0  0  0  0  0  0  0  0
   -0.8451    2.9307   -1.8447 H   0  0  0  0  0  0  0  0  0  0  0  0
    2.2162    2.1466   -1.4799 H   0  0  0  0  0  0  0  0  0  0  0  0
    1.5008    3.6981   -0.9162 H   0  0  0  0  0  0  0  0  0  0  0  0
    0.0706   -1.5631    0.1958 N   0  0  0  0  0  0  0  0  0  0  0  0
    0.7796   -2.5046    1.0825 C   0  0  2  0  0  0  0  0  0  0  0  0
    1.5758   -1.7820    2.1919 C   0  0  0  0  0  0  0  0  0  0  0  0
    1.2309   -1.9030    3.3613 O   0  0  0  0  0  0  0  0  0  0  0  0
    1.6552   -3.5002    0.3072 C   0  0  0  0  0  0  0  0  0  0  0  0
   -0.8933   -1.3425    0.4632 H   0  0  0  0  0  0  0  0  0  0  0  0
    0.0114   -3.0976    1.5893 H   0  0  0  0  0  0  0  0  0  0  0  0
    2.5317   -3.0126   -0.1281 H   0  0  0  0  0  0  0  0  0  0  0  0
    2.0072   -4.2890    0.9792 H   0  0  0  0  0  0  0  0  0  0  0  0
    1.0783   -3.9633   -0.4986 H   0  0  0  0  0  0  0  0  0  0  0  0
    2.5943   -0.9060    1.8721 N   0  0  0  0  0  0  0  0  0  0  0  0
    3.2354   -0.0239    2.8370 C   0  0  0  0  0  0  0  0  0  0  0  0
    2.7186   -0.7212    0.8728 H   0  0  0  0  0  0  0  0  0  0  0  0
    2.5123    0.6931    3.2395 H   0  0  0  0  0  0  0  0  0  0  0  0
    3.6583   -0.6033    3.6645 H   0  0  0  0  0  0  0  0  0  0  0  0
    4.0464    0.5322    2.3572 H   0  0  0  0  0  0  0  0  0  0  0  0
  1  2  2  0  0  0  0
  1  3  1  0  0  0  0
  1  7  1  0  0  0  0
  3  4  1  0  0  0  0
  3  5  1  0  0  0  0
  3  6  1  0  0  0  0
  7  8  1  0  0  0  0
  7 12  1  0  0  0  0
  8  9  1  0  0  0  0
  8 11  1  0  0  0  0
  8 13  1  0  0  0  0
  9 10  2  0  0  0  0
  9 17  1  0  0  0  0
 11 14  1  0  0  0  0
 11 15  1  0  0  0  0
 11 16  1  0  0  0  0
 17 18  1  0  0  0  0
 17 23  1  0  0  0  0
 18 19  1  0  0  0  0
 18 21  1  0  0  0  0
 18 24  1  0  0  0  0
 19 20  2  0  0  0  0
 19 31  1  0  0  0  0
 21 22  1  0  0  0  0
 21 25  1  0  0  0  0
 21 26  1  0  0  0  0
 22 23  1  0  0  0  0
 22 27  1  0  0  0  0
 22 28  1  0  0  0  0
 23 29  1  0  0  0  0
 23 30  1  0  0  0  0
 31 32  1  0  0  0  0
 31 36  1  0  0  0  0
 32 33  1  0  0  0  0
 32 35  1  0  0  0  0
 32 37  1  0  0  0  0
 33 34  2  0  0  0  0
 33 41  1  0  0  0  0
 35 38  1  0  0  0  0
 35 39  1  0  0  0  0
 35 40  1  0  0  0  0
 41 42  1  0  0  0  0
 41 43  1  0  0  0  0
 42 44  1  0  0  0  0
 42 45  1  0  0  0  0
 42 46  1  0  0  0  0
M  END
$$$$

  -OEChem-05262217223D

 46 46  0     1  0  0  0  0  0999 V2000
   -2.7995    1.0916    3.5533 C   0  0  0  0  0  0  0  0  0  0  0  0
   -3.1146   -0.0072    3.1224 O   0  0  0  0  0  0  0  0  0  0  0  0
   -2.9390    1.4004    5.0319 C   0  0  0  0  0  0  0  0  0  0  0  0
   -3.6093    2.2514    5.1740 H   0  0  0  0  0  0  0  0  0  0  0  0
   -3.3498    0.5361    5.5612 H   0  0  0  0  0  0  0  0  0  0  0  0
   -1.9616    1.6411    5.4568 H   0  0  0  0  0  0  0  0  0  0  0  0
   -2.3129    2.0550    2.6942 N   0  0  0  0  0  0  0  0  0  0  0  0
   -1.9658    1.8072    1.2882 C   0  0  2  0  0  0  0  0  0  0  0  0
   -0.5722    2.3940    0.9426 C   0  0  0  0  0  0  0  0  0  0  0  0
   -0.2468    3.4334    1.5110 O   0  0  0  0  0  0  0  0  0  0  0  0
   -3.0785    2.4208    0.4327 C   0  0  0  0  0  0  0  0  0  0  0  0
   -1.9391    2.9051    3.1148 H   0  0  0  0  0  0  0  0  0  0  0  0
   -1.9299    0.7293    1.1126 H   0  0  0  0  0  0  0  0  0  0  0  0
   -3.0897    3.5099    0.5450 H   0  0  0  0  0  0  0  0  0  0  0  0
   -2.9375    2.1782   -0.6237 H   0  0  0  0  0  0  0  0  0  0  0  0
   -4.0524    2.0291    0.7438 H   0  0  0  0  0  0  0  0  0  0  0  0
    0.2600    1.8763   -0.0677 N   0  0  0  0  0  0  0  0  0  0  0  0
   -0.1491    0.6773   -0.9269 C   0  0  2  0  0  0  0  0  0  0  0  0
    0.7945   -0.5469   -0.8048 C   0  0  0  0  0  0  0  0  0  0  0  0
    2.0064   -0.4544   -0.9639 O   0  0  0  0  0  0  0  0  0  0  0  0
    0.2297    1.3570   -2.2416 C   0  0  0  0  0  0  0  0  0  0  0  0
    0.0170    2.7737   -1.7709 C   0  0  0  0  0  0  0  0  0  0  0  0
    1.1455    2.8674   -0.8459 C   0  0  0  0  0  0  0  0  0  0  0  0
   -1.2062    0.4047   -0.8879 H   0  0  0  0  0  0  0  0  0  0  0  0
   -0.4694    1.0875   -3.0394 H   0  0  0  0  0  0  0  0  0  0  0  0
    1.2445    1.1695   -2.6140 H   0  0  0  0  0  0  0  0  0  0  0  0
    0.2195    3.4486   -2.6087 H   0  0  0  0  0  0  0  0  0  0  0  0
   -0.9986    3.0478   -1.4443 H   0  0  0  0  0  0  0  0  0  0  0  0
    2.1151    2.4769   -1.1781 H   0  0  0  0  0  0  0  0  0  0  0  0
    1.2665    3.8581   -0.3949 H   0  0  0  0  0  0  0  0  0  0  0  0
    0.2646   -1.7468   -0.3538 N   0  0  0  0  0  0  0  0  0  0  0  0
    1.0031   -2.9935   -0.0527 C   0  0  2  0  0  0  0  0  0  0  0  0
    1.9453   -2.9230    1.1733 C   0  0  0  0  0  0  0  0  0  0  0  0
    1.9621   -3.8533    1.9685 O   0  0  0  0  0  0  0  0  0  0  0  0
    1.7548   -3.5134   -1.2861 C   0  0  0  0  0  0  0  0  0  0  0  0
   -0.7200   -1.7312   -0.1009 H   0  0  0  0  0  0  0  0  0  0  0  0
    0.2495   -3.7480    0.1955 H   0  0  0  0  0  0  0  0  0  0  0  0
    2.6012   -2.8683   -1.5396 H   0  0  0  0  0  0  0  0  0  0  0  0
    2.1421   -4.5180   -1.0894 H   0  0  0  0  0  0  0  0  0  0  0  0
    1.0831   -3.5646   -2.1480 H   0  0  0  0  0  0  0  0  0  0  0  0
    2.7795   -1.8432    1.3845 N   0  0  0  0  0  0  0  0  0  0  0  0
    3.7394   -1.7563    2.4760 C   0  0  0  0  0  0  0  0  0  0  0  0
    2.7935   -1.1346    0.6465 H   0  0  0  0  0  0  0  0  0  0  0  0
    3.2344   -1.8607    3.4419 H   0  0  0  0  0  0  0  0  0  0  0  0
    4.4932   -2.5448    2.3848 H   0  0  0  0  0  0  0  0  0  0  0  0
    4.2455   -0.7864    2.4550 H   0  0  0  0  0  0  0  0  0  0  0  0
  1  2  2  0  0  0  0
  1  3  1  0  0  0  0
  1  7  1  0  0  0  0
  3  4  1  0  0  0  0
  3  5  1  0  0  0  0
  3  6  1  0  0  0  0
  7  8  1  0  0  0  0
  7 12  1  0  0  0  0
  8  9  1  0  0  0  0
  8 11  1  0  0  0  0
  8 13  1  0  0  0  0
  9 10  2  0  0  0  0
  9 17  1  0  0  0  0
 11 14  1  0  0  0  0
 11 15  1  0  0  0  0
 11 16  1  0  0  0  0
 17 18  1  0  0  0  0
 17 23  1  0  0  0  0
 18 19  1  0  0  0  0
 18 21  1  0  0  0  0
 18 24  1  0  0  0  0
 19 20  2  0  0  0  0
 19 31  1  0  0  0  0
 21 22  1  0  0  0  0
 21 25  1  0  0  0  0
 21 26  1  0  0  0  0
 22 23  1  0  0  0  0
 22 27  1  0  0  0  0
 22 28  1  0  0  0  0
 23 29  1  0  0  0  0
 23 30  1  0  0  0  0
 31 32  1  0  0  0  0
 31 36  1  0  0  0  0
 32 33  1  0  0  0  0
 32 35  1  0  0  0  0
 32 37  1  0  0  0  0
 33 34  2  0  0  0  0
 33 41  1  0  0  0  0
 35 38  1  0  0  0  0
 35 39  1  0  0  0  0
 35 40  1  0  0  0  0
 41 42  1  0  0  0  0
 41 43  1  0  0  0  0
 42 44  1  0  0  0  0
 42 45  1  0  0  0  0
 42 46  1  0  0  0  0
M  END
$$$$

  -OEChem-05262217223D

 46 46  0     1  0  0  0  0  0999 V2000
   -2.9202    1.3568    3.6347 C   0  0  0  0  0  0  0  0  0  0  0  0
   -3.4119    0.3142    3.2309 O   0  0  0  0  0  0  0  0  0  0  0  0
   -3.0932    1.7750    5.0826 C   0  0  0  0  0  0  0  0  0  0  0  0
   -3.5990    2.7423    5.1347 H   0  0  0  0  0  0  0  0  0  0  0  0
   -3.6924    1.0344    5.6195 H   0  0  0  0  0  0  0  0  0  0  0  0
   -2.1170    1.8560    5.5671 H   0  0  0  0  0  0  0  0  0  0  0  0
   -2.2047    2.1569    2.7694 N   0  0  0  0  0  0  0  0  0  0  0  0
   -1.8683    1.7926    1.3870 C   0  0  2  0  0  0  0  0  0  0  0  0
   -0.4860    2.3653    0.9760 C   0  0  0  0  0  0  0  0  0  0  0  0
   -0.1235    3.4044    1.5227 O   0  0  0  0  0  0  0  0  0  0  0  0
   -3.0002    2.3162    0.4934 C   0  0  0  0  0  0  0  0  0  0  0  0
   -1.7371    2.9754    3.1585 H   0  0  0  0  0  0  0  0  0  0  0  0
   -1.8132    0.7026    1.3108 H   0  0  0  0  0  0  0  0  0  0  0  0
   -3.0361    3.4099    0.5257 H   0  0  0  0  0  0  0  0  0  0  0  0
   -2.8609    2.0019   -0.5436 H   0  0  0  0  0  0  0  0  0  0  0  0
   -3.9637    1.9263    0.8374 H   0  0  0  0  0  0  0  0  0  0  0  0
    0.2964    1.8320   -0.0645 N   0  0  0  0  0  0  0  0  0  0  0  0
   -0.1593    0.6288   -0.8935 C   0  0  2  0  0  0  0  0  0  0  0  0
    0.7574   -0.6177   -0.8263 C   0  0  0  0  0  0  0  0  0  0  0  0
    1.9786   -0.5183   -0.8594 O   0  0  0  0  0  0  0  0  0  0  0  0
    0.1878    1.2855   -2.2253 C   0  0  0  0  0  0  0  0  0  0  0  0
    0.0130    2.7127   -1.7676 C   0  0  0  0  0  0  0  0  0  0  0  0
    1.1709    2.8012   -0.8807 C   0  0  0  0  0  0  0  0  0  0  0  0
   -1.2184    0.3767   -0.8061 H   0  0  0  0  0  0  0  0  0  0  0  0
   -0.5387    1.0175   -2.9986 H   0  0  0  0  0  0  0  0  0  0  0  0
    1.1900    1.0712   -2.6197 H   0  0  0  0  0  0  0  0  0  0  0  0
    0.1976    3.3726   -2.6208 H   0  0  0  0  0  0  0  0  0  0  0  0
   -0.9868    3.0085   -1.4114 H   0  0  0  0  0  0  0  0  0  0  0  0
    2.1243    2.3936   -1.2383 H   0  0  0  0  0  0  0  0  0  0  0  0
    1.3188    3.7958   -0.4469 H   0  0  0  0  0  0  0  0  0  0  0  0
    0.1812   -1.8683   -0.6607 N   0  0  0  0  0  0  0  0  0  0  0  0
    0.8765   -3.1734   -0.6105 C   0  0  2  0  0  0  0  0  0  0  0  0
    1.7645   -3.4086    0.6355 C   0  0  0  0  0  0  0  0  0  0  0  0
    1.6741   -4.4681    1.2414 O   0  0  0  0  0  0  0  0  0  0  0  0
    1.6708   -3.4278   -1.8997 C   0  0  0  0  0  0  0  0  0  0  0  0
   -0.8283   -1.8847   -0.5442 H   0  0  0  0  0  0  0  0  0  0  0  0
    0.0962   -3.9403   -0.5664 H   0  0  0  0  0  0  0  0  0  0  0  0
    2.5378   -2.7643   -1.9699 H   0  0  0  0  0  0  0  0  0  0  0  0
    2.0316   -4.4613   -1.9173 H   0  0  0  0  0  0  0  0  0  0  0  0
    1.0364   -3.2685   -2.7768 H   0  0  0  0  0  0  0  0  0  0  0  0
    2.6720   -2.4629    1.0687 N   0  0  0  0  0  0  0  0  0  0  0  0
    3.5658   -2.6470    2.2033 C   0  0  0  0  0  0  0  0  0  0  0  0
    2.7422   -1.6114    0.5055 H   0  0  0  0  0  0  0  0  0  0  0  0
    2.9903   -2.7956    3.1226 H   0  0  0  0  0  0  0  0  0  0  0  0
    4.2108   -3.5174    2.0459 H   0  0  0  0  0  0  0  0  0  0  0  0
    4.2006   -1.7649    2.3304 H   0  0  0  0  0  0  0  0  0  0  0  0
  1  2  2  0  0  0  0
  1  3  1  0  0  0  0
  1  7  1  0  0  0  0
  3  4  1  0  0  0  0
  3  5  1  0  0  0  0
  3  6  1  0  0  0  0
  7  8  1  0  0  0  0
  7 12  1  0  0  0  0
  8  9  1  0  0  0  0
  8 11  1  0  0  0  0
  8 13  1  0  0  0  0
  9 10  2  0  0  0  0
  9 17  1  0  0  0  0
 11 14  1  0  0  0  0
 11 15  1  0  0  0  0
 11 16  1  0  0  0  0
 17 18  1  0  0  0  0
 17 23  1  0  0  0  0
 18 19  1  0  0  0  0
 18 21  1  0  0  0  0
 18 24  1  0  0  0  0
 19 20  2  0  0  0  0
 19 31  1  0  0  0  0
 21 22  1  0  0  0  0
 21 25  1  0  0  0  0
 21 26  1  0  0  0  0
 22 23  1  0  0  0  0
 22 27  1  0  0  0  0
 22 28  1  0  0  0  0
 23 29  1  0  0  0  0
 23 30  1  0  0  0  0
 31 32  1  0  0  0  0
 31 36  1  0  0  0  0
 32 33  1  0  0  0  0
 32 35  1  0  0  0  0
 32 37  1  0  0  0  0
 33 34  2  0  0  0  0
 33 41  1  0  0  0  0
 35 38  1  0  0  0  0
 35 39  1  0  0  0  0
 35 40  1  0  0  0  0
 41 42  1  0  0  0  0
 41 43  1  0  0  0  0
 42 44  1  0  0  0  0
 42 45  1  0  0  0  0
 42 46  1  0  0  0  0
M  END
$$$$

  -OEChem-05262217223D

 46 46  0     1  0  0  0  0  0999 V2000
   -2.7108    1.2396    3.6666 C   0  0  0  0  0  0  0  0  0  0  0  0
   -3.2488    0.2280    3.2437 O   0  0  0  0  0  0  0  0  0  0  0  0
   -2.8087    1.6012    5.1365 C   0  0  0  0  0  0  0  0  0  0  0  0
   -3.3553    2.5401    5.2535 H   0  0  0  0  0  0  0  0  0  0  0  0
   -3.3359    0.8148    5.6840 H   0  0  0  0  0  0  0  0  0  0  0  0
   -1.8081    1.7148    5.5609 H   0  0  0  0  0  0  0  0  0  0  0  0
   -2.0141    2.0579    2.8031 N   0  0  0  0  0  0  0  0  0  0  0  0
   -1.7591    1.7484    1.3904 C   0  0  2  0  0  0  0  0  0  0  0  0
   -0.3926    2.3175    0.9270 C   0  0  0  0  0  0  0  0  0  0  0  0
    0.0077    3.3382    1.4820 O   0  0  0  0  0  0  0  0  0  0  0  0
   -2.9244    2.3291    0.5797 C   0  0  0  0  0  0  0  0  0  0  0  0
   -1.5087    2.8486    3.2018 H   0  0  0  0  0  0  0  0  0  0  0  0
   -1.7293    0.6618    1.2671 H   0  0  0  0  0  0  0  0  0  0  0  0
   -2.9375    3.4207    0.6607 H   0  0  0  0  0  0  0  0  0  0  0  0
   -2.8429    2.0579   -0.4755 H   0  0  0  0  0  0  0  0  0  0  0  0
   -3.8764    1.9413    0.9559 H   0  0  0  0  0  0  0  0  0  0  0  0
    0.3324    1.8021   -0.1622 N   0  0  0  0  0  0  0  0  0  0  0  0
   -0.1739    0.6237   -0.9980 C   0  0  2  0  0  0  0  0  0  0  0  0
    0.7224   -0.6370   -1.0140 C   0  0  0  0  0  0  0  0  0  0  0  0
    1.9334   -0.5549   -0.8493 O   0  0  0  0  0  0  0  0  0  0  0  0
    0.1400    1.3010   -2.3256 C   0  0  0  0  0  0  0  0  0  0  0  0
    0.0064    2.7224   -1.8338 C   0  0  0  0  0  0  0  0  0  0  0  0
    1.1940    2.7750   -0.9855 C   0  0  0  0  0  0  0  0  0  0  0  0
   -1.2330    0.3871   -0.8753 H   0  0  0  0  0  0  0  0  0  0  0  0
   -0.6139    1.0619   -3.0824 H   0  0  0  0  0  0  0  0  0  0  0  0
    1.1271    1.0724   -2.7495 H   0  0  0  0  0  0  0  0  0  0  0  0
    0.1728    3.3977   -2.6790 H   0  0  0  0  0  0  0  0  0  0  0  0
   -0.9758    3.0256   -1.4355 H   0  0  0  0  0  0  0  0  0  0  0  0
    2.1279    2.3618   -1.3845 H   0  0  0  0  0  0  0  0  0  0  0  0
    1.3711    3.7574   -0.5355 H   0  0  0  0  0  0  0  0  0  0  0  0
    0.1352   -1.8833   -1.1715 N   0  0  0  0  0  0  0  0  0  0  0  0
    0.8214   -3.1926   -1.2328 C   0  0  2  0  0  0  0  0  0  0  0  0
    1.4761   -3.6578    0.0897 C   0  0  0  0  0  0  0  0  0  0  0  0
    1.2985   -4.8067    0.4725 O   0  0  0  0  0  0  0  0  0  0  0  0
    1.8366   -3.2357   -2.3838 C   0  0  0  0  0  0  0  0  0  0  0  0
   -0.8798   -1.8971   -1.2192 H   0  0  0  0  0  0  0  0  0  0  0  0
    0.0522   -3.9371   -1.4634 H   0  0  0  0  0  0  0  0  0  0  0  0
    2.7063   -2.6076   -2.1698 H   0  0  0  0  0  0  0  0  0  0  0  0
    2.1883   -4.2615   -2.5331 H   0  0  0  0  0  0  0  0  0  0  0  0
    1.3749   -2.8898   -3.3133 H   0  0  0  0  0  0  0  0  0  0  0  0
    2.2691   -2.8117    0.8385 N   0  0  0  0  0  0  0  0  0  0  0  0
    2.9648   -3.2098    2.0540 C   0  0  0  0  0  0  0  0  0  0  0  0
    2.4368   -1.8824    0.4436 H   0  0  0  0  0  0  0  0  0  0  0  0
    2.2529   -3.5803    2.7992 H   0  0  0  0  0  0  0  0  0  0  0  0
    3.6920   -3.9991    1.8362 H   0  0  0  0  0  0  0  0  0  0  0  0
    3.4971   -2.3542    2.4807 H   0  0  0  0  0  0  0  0  0  0  0  0
  1  2  2  0  0  0  0
  1  3  1  0  0  0  0
  1  7  1  0  0  0  0
  3  4  1  0  0  0  0
  3  5  1  0  0  0  0
  3  6  1  0  0  0  0
  7  8  1  0  0  0  0
  7 12  1  0  0  0  0
  8  9  1  0  0  0  0
  8 11  1  0  0  0  0
  8 13  1  0  0  0  0
  9 10  2  0  0  0  0
  9 17  1  0  0  0  0
 11 14  1  0  0  0  0
 11 15  1  0  0  0  0
 11 16  1  0  0  0  0
 17 18  1  0  0  0  0
 17 23  1  0  0  0  0
 18 19  1  0  0  0  0
 18 21  1  0  0  0  0
 18 24  1  0  0  0  0
 19 20  2  0  0  0  0
 19 31  1  0  0  0  0
 21 22  1  0  0  0  0
 21 25  1  0  0  0  0
 21 26  1  0  0  0  0
 22 23  1  0  0  0  0
 22 27  1  0  0  0  0
 22 28  1  0  0  0  0
 23 29  1  0  0  0  0
 23 30  1  0  0  0  0
 31 32  1  0  0  0  0
 31 36  1  0  0  0  0
 32 33  1  0  0  0  0
 32 35  1  0  0  0  0
 32 37  1  0  0  0  0
 33 34  2  0  0  0  0
 33 41  1  0  0  0  0
 35 38  1  0  0  0  0
 35 39  1  0  0  0  0
 35 40  1  0  0  0  0
 41 42  1  0  0  0  0
 41 43  1  0  0  0  0
 42 44  1  0  0  0  0
 42 45  1  0  0  0  0
 42 46  1  0  0  0  0
M  END
$$$$

  -OEChem-05262217223D

 46 46  0     1  0  0  0  0  0999 V2000
   -2.5001    1.1018    3.7100 C   0  0  0  0  0  0  0  0  0  0  0  0
   -3.0792    0.1198    3.2721 O   0  0  0  0  0  0  0  0  0  0  0  0
   -2.5175    1.4014    5.1970 C   0  0  0  0  0  0  0  0  0  0  0  0
   -2.9443    2.3917    5.3738 H   0  0  0  0  0  0  0  0  0  0  0  0
   -3.1218    0.6581    5.7245 H   0  0  0  0  0  0  0  0  0  0  0  0
   -1.4998    1.3747    5.5945 H   0  0  0  0  0  0  0  0  0  0  0  0
   -1.8228    1.9398    2.8502 N   0  0  0  0  0  0  0  0  0  0  0  0
   -1.6286    1.6811    1.4177 C   0  0  2  0  0  0  0  0  0  0  0  0
   -0.2791    2.2643    0.9239 C   0  0  0  0  0  0  0  0  0  0  0  0
    0.1467    3.2611    1.5034 O   0  0  0  0  0  0  0  0  0  0  0  0
   -2.8220    2.2949    0.6749 C   0  0  0  0  0  0  0  0  0  0  0  0
   -1.2823    2.7022    3.2586 H   0  0  0  0  0  0  0  0  0  0  0  0
   -1.6079    0.5997    1.2528 H   0  0  0  0  0  0  0  0  0  0  0  0
   -2.8302    3.3822    0.8019 H   0  0  0  0  0  0  0  0  0  0  0  0
   -2.7789    2.0687   -0.3930 H   0  0  0  0  0  0  0  0  0  0  0  0
   -3.7605    1.8915    1.0688 H   0  0  0  0  0  0  0  0  0  0  0  0
    0.3971    1.7952   -0.2159 N   0  0  0  0  0  0  0  0  0  0  0  0
   -0.1489    0.6574   -1.0828 C   0  0  2  0  0  0  0  0  0  0  0  0
    0.7296   -0.6089   -1.2003 C   0  0  0  0  0  0  0  0  0  0  0  0
    1.8958   -0.6004   -0.8286 O   0  0  0  0  0  0  0  0  0  0  0  0
    0.1312    1.3888   -2.3876 C   0  0  0  0  0  0  0  0  0  0  0  0
    0.0297    2.7900   -1.8334 C   0  0  0  0  0  0  0  0  0  0  0  0
    1.2445    2.7931   -1.0222 C   0  0  0  0  0  0  0  0  0  0  0  0
   -1.2049    0.4237   -0.9308 H   0  0  0  0  0  0  0  0  0  0  0  0
   -0.6479    1.1903   -3.1303 H   0  0  0  0  0  0  0  0  0  0  0  0
    1.1037    1.1661   -2.8482 H   0  0  0  0  0  0  0  0  0  0  0  0
    0.1758    3.4983   -2.6549 H   0  0  0  0  0  0  0  0  0  0  0  0
   -0.9355    3.0859   -1.3893 H   0  0  0  0  0  0  0  0  0  0  0  0
    2.1611    2.3865   -1.4661 H   0  0  0  0  0  0  0  0  0  0  0  0
    1.4482    3.7534   -0.5366 H   0  0  0  0  0  0  0  0  0  0  0  0
    0.1743   -1.7784   -1.6976 N   0  0  0  0  0  0  0  0  0  0  0  0
    0.8550   -3.0777   -1.8882 C   0  0  2  0  0  0  0  0  0  0  0  0
    1.2568   -3.8023   -0.5823 C   0  0  0  0  0  0  0  0  0  0  0  0
    0.9601   -4.9806   -0.4367 O   0  0  0  0  0  0  0  0  0  0  0  0
    2.0611   -2.9474   -2.8297 C   0  0  0  0  0  0  0  0  0  0  0  0
   -0.8148   -1.7423   -1.9276 H   0  0  0  0  0  0  0  0  0  0  0  0
    0.1369   -3.7367   -2.3873 H   0  0  0  0  0  0  0  0  0  0  0  0
    2.8743   -2.3854   -2.3613 H   0  0  0  0  0  0  0  0  0  0  0  0
    2.4421   -3.9407   -3.0870 H   0  0  0  0  0  0  0  0  0  0  0  0
    1.7706   -2.4381   -3.7533 H   0  0  0  0  0  0  0  0  0  0  0  0
    1.9492   -3.1512    0.4186 N   0  0  0  0  0  0  0  0  0  0  0  0
    2.3743   -3.7822    1.6595 C   0  0  0  0  0  0  0  0  0  0  0  0
    2.2012   -2.1760    0.2365 H   0  0  0  0  0  0  0  0  0  0  0  0
    1.5107   -4.1830    2.2000 H   0  0  0  0  0  0  0  0  0  0  0  0
    3.0726   -4.5999    1.4532 H   0  0  0  0  0  0  0  0  0  0  0  0
    2.8745   -3.0510    2.3017 H   0  0  0  0  0  0  0  0  0  0  0  0
  1  2  2  0  0  0  0
  1  3  1  0  0  0  0
  1  7  1  0  0  0  0
  3  4  1  0  0  0  0
  3  5  1  0  0  0  0
  3  6  1  0  0  0  0
  7  8  1  0  0  0  0
  7 12  1  0  0  0  0
  8  9  1  0  0  0  0
  8 11  1  0  0  0  0
  8 13  1  0  0  0  0
  9 10  2  0  0  0  0
  9 17  1  0  0  0  0
 11 14  1  0  0  0  0
 11 15  1  0  0  0  0
 11 16  1  0  0  0  0
 17 18  1  0  0  0  0
 17 23  1  0  0  0  0
 18 19  1  0  0  0  0
 18 21  1  0  0  0  0
 18 24  1  0  0  0  0
 19 20  2  0  0  0  0
 19 31  1  0  0  0  0
 21 22  1  0  0  0  0
 21 25  1  0  0  0  0
 21 26  1  0  0  0  0
 22 23  1  0  0  0  0
 22 27  1  0  0  0  0
 22 28  1  0  0  0  0
 23 29  1  0  0  0  0
 23 30  1  0  0  0  0
 31 32  1  0  0  0  0
 31 36  1  0  0  0  0
 32 33  1  0  0  0  0
 32 35  1  0  0  0  0
 32 37  1  0  0  0  0
 33 34  2  0  0  0  0
 33 41  1  0  0  0  0
 35 38  1  0  0  0  0
 35 39  1  0  0  0  0
 35 40  1  0  0  0  0
 41 42  1  0  0  0  0
 41 43  1  0  0  0  0
 42 44  1  0  0  0  0
 42 45  1  0  0  0  0
 42 46  1  0  0  0  0
M  END
$$$$

  -OEChem-05262217223D

 46 46  0     1  0  0  0  0  0999 V2000
   -1.7511    0.3740    3.5220 C   0  0  0  0  0  0  0  0  0  0  0  0
   -2.0604   -0.7039    3.0384 O   0  0  0  0  0  0  0  0  0  0  0  0
   -1.5600    0.5076    5.0208 C   0  0  0  0  0  0  0  0  0  0  0  0
   -2.2847    1.2171    5.4273 H   0  0  0  0  0  0  0  0  0  0  0  0
   -1.7042   -0.4616    5.5063 H   0  0  0  0  0  0  0  0  0  0  0  0
   -0.5498    0.8633    5.2378 H   0  0  0  0  0  0  0  0  0  0  0  0
   -1.5678    1.4706    2.7059 N   0  0  0  0  0  0  0  0  0  0  0  0
   -1.5308    1.4086    1.2388 C   0  0  2  0  0  0  0  0  0  0  0  0
   -0.4055    2.3023    0.6644 C   0  0  0  0  0  0  0  0  0  0  0  0
   -0.1374    3.3394    1.2662 O   0  0  0  0  0  0  0  0  0  0  0  0
   -2.9025    1.8521    0.7214 C   0  0  0  0  0  0  0  0  0  0  0  0
   -1.1962    2.3161    3.1374 H   0  0  0  0  0  0  0  0  0  0  0  0
   -1.3356    0.3792    0.9248 H   0  0  0  0  0  0  0  0  0  0  0  0
   -3.1095    2.8831    1.0260 H   0  0  0  0  0  0  0  0  0  0  0  0
   -2.9426    1.7975   -0.3697 H   0  0  0  0  0  0  0  0  0  0  0  0
   -3.6856    1.2045    1.1288 H   0  0  0  0  0  0  0  0  0  0  0  0
    0.2259    2.0368   -0.5568 N   0  0  0  0  0  0  0  0  0  0  0  0
   -0.1394    0.8435   -1.4370 C   0  0  2  0  0  0  0  0  0  0  0  0
    0.8498   -0.3402   -1.4245 C   0  0  0  0  0  0  0  0  0  0  0  0
    1.7794   -0.3588   -0.6300 O   0  0  0  0  0  0  0  0  0  0  0  0
    0.0792    1.6006   -2.7325 C   0  0  0  0  0  0  0  0  0  0  0  0
   -0.2296    2.9725   -2.1667 C   0  0  0  0  0  0  0  0  0  0  0  0
    0.9383    3.1570   -1.3186 C   0  0  0  0  0  0  0  0  0  0  0  0
   -1.1722    0.5047   -1.3195 H   0  0  0  0  0  0  0  0  0  0  0  0
   -0.6390    1.3032   -3.5033 H   0  0  0  0  0  0  0  0  0  0  0  0
    1.0922    1.5066   -3.1454 H   0  0  0  0  0  0  0  0  0  0  0  0
   -0.1685    3.7025   -2.9801 H   0  0  0  0  0  0  0  0  0  0  0  0
   -1.2408    3.1188   -1.7419 H   0  0  0  0  0  0  0  0  0  0  0  0
    1.9186    2.8999   -1.7364 H   0  0  0  0  0  0  0  0  0  0  0  0
    0.9697    4.1312   -0.8191 H   0  0  0  0  0  0  0  0  0  0  0  0
    0.5841   -1.4581   -2.2006 N   0  0  0  0  0  0  0  0  0  0  0  0
    1.3348   -2.7327   -2.2130 C   0  0  2  0  0  0  0  0  0  0  0  0
    1.1847   -3.5803   -0.9280 C   0  0  0  0  0  0  0  0  0  0  0  0
    0.9361   -4.7744   -1.0278 O   0  0  0  0  0  0  0  0  0  0  0  0
    2.8163   -2.5185   -2.5554 C   0  0  0  0  0  0  0  0  0  0  0  0
   -0.2588   -1.4180   -2.7664 H   0  0  0  0  0  0  0  0  0  0  0  0
    0.9116   -3.3365   -3.0223 H   0  0  0  0  0  0  0  0  0  0  0  0
    3.3467   -2.0193   -1.7394 H   0  0  0  0  0  0  0  0  0  0  0  0
    3.3007   -3.4840   -2.7320 H   0  0  0  0  0  0  0  0  0  0  0  0
    2.9145   -1.9111   -3.4597 H   0  0  0  0  0  0  0  0  0  0  0  0
    1.3029   -3.0127    0.3250 N   0  0  0  0  0  0  0  0  0  0  0  0
    1.1583   -3.7473    1.5743 C   0  0  0  0  0  0  0  0  0  0  0  0
    1.5701   -2.0256    0.3518 H   0  0  0  0  0  0  0  0  0  0  0  0
    2.0121   -4.4156    1.7242 H   0  0  0  0  0  0  0  0  0  0  0  0
    1.1069   -3.0507    2.4167 H   0  0  0  0  0  0  0  0  0  0  0  0
    0.2393   -4.3430    1.5681 H   0  0  0  0  0  0  0  0  0  0  0  0
  1  2  2  0  0  0  0
  1  3  1  0  0  0  0
  1  7  1  0  0  0  0
  3  4  1  0  0  0  0
  3  5  1  0  0  0  0
  3  6  1  0  0  0  0
  7  8  1  0  0  0  0
  7 12  1  0  0  0  0
  8  9  1  0  0  0  0
  8 11  1  0  0  0  0
  8 13  1  0  0  0  0
  9 10  2  0  0  0  0
  9 17  1  0  0  0  0
 11 14  1  0  0  0  0
 11 15  1  0  0  0  0
 11 16  1  0  0  0  0
 17 18  1  0  0  0  0
 17 23  1  0  0  0  0
 18 19  1  0  0  0  0
 18 21  1  0  0  0  0
 18 24  1  0  0  0  0
 19 20  2  0  0  0  0
 19 31  1  0  0  0  0
 21 22  1  0  0  0  0
 21 25  1  0  0  0  0
 21 26  1  0  0  0  0
 22 23  1  0  0  0  0
 22 27  1  0  0  0  0
 22 28  1  0  0  0  0
 23 29  1  0  0  0  0
 23 30  1  0  0  0  0
 31 32  1  0  0  0  0
 31 36  1  0  0  0  0
 32 33  1  0  0  0  0
 32 35  1  0  0  0  0
 32 37  1  0  0  0  0
 33 34  2  0  0  0  0
 33 41  1  0  0  0  0
 35 38  1  0  0  0  0
 35 39  1  0  0  0  0
 35 40  1  0  0  0  0
 41 42  1  0  0  0  0
 41 43  1  0  0  0  0
 42 44  1  0  0  0  0
 42 45  1  0  0  0  0
 42 46  1  0  0  0  0
M  END
$$$$

  -OEChem-05262217223D

 46 46  0     1  0  0  0  0  0999 V2000
   -1.7448    0.3333    3.5103 C   0  0  0  0  0  0  0  0  0  0  0  0
   -2.0905   -0.7362    3.0328 O   0  0  0  0  0  0  0  0  0  0  0  0
   -1.5766    0.4801    5.0106 C   0  0  0  0  0  0  0  0  0  0  0  0
   -2.2340    1.2689    5.3842 H   0  0  0  0  0  0  0  0  0  0  0  0
   -1.8300   -0.4577    5.5127 H   0  0  0  0  0  0  0  0  0  0  0  0
   -0.5406    0.7368    5.2453 H   0  0  0  0  0  0  0  0  0  0  0  0
   -1.5018    1.4120    2.6871 N   0  0  0  0  0  0  0  0  0  0  0  0
   -1.4643    1.3417    1.2210 C   0  0  2  0  0  0  0  0  0  0  0  0
   -0.3854    2.2881    0.6399 C   0  0  0  0  0  0  0  0  0  0  0  0
   -0.1469    3.3275    1.2508 O   0  0  0  0  0  0  0  0  0  0  0  0
   -2.8589    1.7104    0.7028 C   0  0  0  0  0  0  0  0  0  0  0  0
   -1.1201    2.2541    3.1167 H   0  0  0  0  0  0  0  0  0  0  0  0
   -1.2142    0.3206    0.9166 H   0  0  0  0  0  0  0  0  0  0  0  0
   -3.1273    2.7231    1.0204 H   0  0  0  0  0  0  0  0  0  0  0  0
   -2.8940    1.6693   -0.3889 H   0  0  0  0  0  0  0  0  0  0  0  0
   -3.6039    1.0123    1.0973 H   0  0  0  0  0  0  0  0  0  0  0  0
    0.2332    2.0659   -0.5970 N   0  0  0  0  0  0  0  0  0  0  0  0
   -0.1068    0.8705   -1.4833 C   0  0  2  0  0  0  0  0  0  0  0  0
    0.9279   -0.2733   -1.5030 C   0  0  0  0  0  0  0  0  0  0  0  0
    1.7214   -0.3945   -0.5804 O   0  0  0  0  0  0  0  0  0  0  0  0
    0.0536    1.6575   -2.7714 C   0  0  0  0  0  0  0  0  0  0  0  0
   -0.2937    3.0092   -2.1793 C   0  0  0  0  0  0  0  0  0  0  0  0
    0.8861    3.2237   -1.3553 C   0  0  0  0  0  0  0  0  0  0  0  0
   -1.1222    0.4877   -1.3505 H   0  0  0  0  0  0  0  0  0  0  0  0
   -0.6705    1.3456   -3.5305 H   0  0  0  0  0  0  0  0  0  0  0  0
    1.0591    1.6092   -3.2095 H   0  0  0  0  0  0  0  0  0  0  0  0
   -0.2785    3.7527   -2.9821 H   0  0  0  0  0  0  0  0  0  0  0  0
   -1.2998    3.1113   -1.7299 H   0  0  0  0  0  0  0  0  0  0  0  0
    1.8655    3.0100   -1.7989 H   0  0  0  0  0  0  0  0  0  0  0  0
    0.8941    4.1901   -0.8399 H   0  0  0  0  0  0  0  0  0  0  0  0
    0.8678   -1.2412   -2.4946 N   0  0  0  0  0  0  0  0  0  0  0  0
    1.7041   -2.4559   -2.6034 C   0  0  2  0  0  0  0  0  0  0  0  0
    1.4352   -3.5205   -1.5137 C   0  0  0  0  0  0  0  0  0  0  0  0
    1.1877   -4.6710   -1.8491 O   0  0  0  0  0  0  0  0  0  0  0  0
    3.1976   -2.1070   -2.6734 C   0  0  0  0  0  0  0  0  0  0  0  0
    0.1248   -1.1329   -3.1790 H   0  0  0  0  0  0  0  0  0  0  0  0
    1.4482   -2.9291   -3.5571 H   0  0  0  0  0  0  0  0  0  0  0  0
    3.5691   -1.7507   -1.7082 H   0  0  0  0  0  0  0  0  0  0  0  0
    3.7750   -2.9942   -2.9516 H   0  0  0  0  0  0  0  0  0  0  0  0
    3.3736   -1.3306   -3.4238 H   0  0  0  0  0  0  0  0  0  0  0  0
    1.4387   -3.1913   -0.1731 N   0  0  0  0  0  0  0  0  0  0  0  0
    1.1364   -4.1259    0.9020 C   0  0  0  0  0  0  0  0  0  0  0  0
    1.6397   -2.2136    0.0531 H   0  0  0  0  0  0  0  0  0  0  0  0
    1.8769   -4.9319    0.9283 H   0  0  0  0  0  0  0  0  0  0  0  0
    1.1524   -3.6080    1.8659 H   0  0  0  0  0  0  0  0  0  0  0  0
    0.1423   -4.5633    0.7622 H   0  0  0  0  0  0  0  0  0  0  0  0
  1  2  2  0  0  0  0
  1  3  1  0  0  0  0
  1  7  1  0  0  0  0
  3  4  1  0  0  0  0
  3  5  1  0  0  0  0
  3  6  1  0  0  0  0
  7  8  1  0  0  0  0
  7 12  1  0  0  0  0
  8  9  1  0  0  0  0
  8 11  1  0  0  0  0
  8 13  1  0  0  0  0
  9 10  2  0  0  0  0
  9 17  1  0  0  0  0
 11 14  1  0  0  0  0
 11 15  1  0  0  0  0
 11 16  1  0  0  0  0
 17 18  1  0  0  0  0
 17 23  1  0  0  0  0
 18 19  1  0  0  0  0
 18 21  1  0  0  0  0
 18 24  1  0  0  0  0
 19 20  2  0  0  0  0
 19 31  1  0  0  0  0
 21 22  1  0  0  0  0
 21 25  1  0  0  0  0
 21 26  1  0  0  0  0
 22 23  1  0  0  0  0
 22 27  1  0  0  0  0
 22 28  1  0  0  0  0
 23 29  1  0  0  0  0
 23 30  1  0  0  0  0
 31 32  1  0  0  0  0
 31 36  1  0  0  0  0
 32 33  1  0  0  0  0
 32 35  1  0  0  0  0
 32 37  1  0  0  0  0
 33 34  2  0  0  0  0
 33 41  1  0  0  0  0
 35 38  1  0  0  0  0
 35 39  1  0  0  0  0
 35 40  1  0  0  0  0
 41 42  1  0  0  0  0
 41 43  1  0  0  0  0
 42 44  1  0  0  0  0
 42 45  1  0  0  0  0
 42 46  1  0  0  0  0
M  END
$$$$

  -OEChem-05262217223D

 46 46  0     1  0  0  0  0  0999 V2000
   -1.7130    0.3081    3.4994 C   0  0  0  0  0  0  0  0  0  0  0  0
   -2.0830   -0.7549    3.0256 O   0  0  0  0  0  0  0  0  0  0  0  0
   -1.5624    0.4629    5.0009 C   0  0  0  0  0  0  0  0  0  0  0  0
   -2.1611    1.3073    5.3508 H   0  0  0  0  0  0  0  0  0  0  0  0
   -1.9008   -0.4437    5.5100 H   0  0  0  0  0  0  0  0  0  0  0  0
   -0.5137    0.6384    5.2536 H   0  0  0  0  0  0  0  0  0  0  0  0
   -1.4305    1.3734    2.6714 N   0  0  0  0  0  0  0  0  0  0  0  0
   -1.4015    1.3013    1.2050 C   0  0  2  0  0  0  0  0  0  0  0  0
   -0.3678    2.2915    0.6134 C   0  0  0  0  0  0  0  0  0  0  0  0
   -0.1540    3.3322    1.2316 O   0  0  0  0  0  0  0  0  0  0  0  0
   -2.8144    1.6114    0.6958 C   0  0  0  0  0  0  0  0  0  0  0  0
   -1.0454    2.2149    3.0988 H   0  0  0  0  0  0  0  0  0  0  0  0
   -1.1111    0.2898    0.9030 H   0  0  0  0  0  0  0  0  0  0  0  0
   -3.1211    2.6143    1.0098 H   0  0  0  0  0  0  0  0  0  0  0  0
   -2.8572    1.5626   -0.3952 H   0  0  0  0  0  0  0  0  0  0  0  0
   -3.5290    0.8872    1.1000 H   0  0  0  0  0  0  0  0  0  0  0  0
    0.2388    2.1063   -0.6361 N   0  0  0  0  0  0  0  0  0  0  0  0
   -0.0719    0.9068   -1.5284 C   0  0  2  0  0  0  0  0  0  0  0  0
    1.0131   -0.1904   -1.5670 C   0  0  0  0  0  0  0  0  0  0  0  0
    1.6376   -0.4467   -0.5474 O   0  0  0  0  0  0  0  0  0  0  0  0
    0.0143    1.7185   -2.8097 C   0  0  0  0  0  0  0  0  0  0  0  0
   -0.3773    3.0451   -2.1902 C   0  0  0  0  0  0  0  0  0  0  0  0
    0.8144    3.3040   -1.3972 C   0  0  0  0  0  0  0  0  0  0  0  0
   -1.0646    0.4756   -1.3761 H   0  0  0  0  0  0  0  0  0  0  0  0
   -0.7177    1.3822   -3.5508 H   0  0  0  0  0  0  0  0  0  0  0  0
    1.0070    1.7267   -3.2778 H   0  0  0  0  0  0  0  0  0  0  0  0
   -0.4190    3.7975   -2.9841 H   0  0  0  0  0  0  0  0  0  0  0  0
   -1.3731    3.0966   -1.7110 H   0  0  0  0  0  0  0  0  0  0  0  0
    1.7892    3.1430   -1.8718 H   0  0  0  0  0  0  0  0  0  0  0  0
    0.7915    4.2639   -0.8698 H   0  0  0  0  0  0  0  0  0  0  0  0
    1.1947   -0.9700   -2.7008 N   0  0  0  0  0  0  0  0  0  0  0  0
    2.1423   -2.0932   -2.8684 C   0  0  2  0  0  0  0  0  0  0  0  0
    1.8021   -3.3565   -2.0430 C   0  0  0  0  0  0  0  0  0  0  0  0
    1.7376   -4.4405   -2.6075 O   0  0  0  0  0  0  0  0  0  0  0  0
    3.5904   -1.6475   -2.6184 C   0  0  0  0  0  0  0  0  0  0  0  0
    0.5856   -0.7618   -3.4868 H   0  0  0  0  0  0  0  0  0  0  0  0
    2.0851   -2.3973   -3.9188 H   0  0  0  0  0  0  0  0  0  0  0  0
    3.7654   -1.4378   -1.5592 H   0  0  0  0  0  0  0  0  0  0  0  0
    4.2827   -2.4373   -2.9263 H   0  0  0  0  0  0  0  0  0  0  0  0
    3.8166   -0.7457   -3.1947 H   0  0  0  0  0  0  0  0  0  0  0  0
    1.5533   -3.2837   -0.6872 N   0  0  0  0  0  0  0  0  0  0  0  0
    1.2204   -4.4292    0.1479 C   0  0  0  0  0  0  0  0  0  0  0  0
    1.6311   -2.3566   -0.2607 H   0  0  0  0  0  0  0  0  0  0  0  0
    2.0650   -5.1241    0.1973 H   0  0  0  0  0  0  0  0  0  0  0  0
    0.9823   -4.0975    1.1633 H   0  0  0  0  0  0  0  0  0  0  0  0
    0.3502   -4.9581   -0.2544 H   0  0  0  0  0  0  0  0  0  0  0  0
  1  2  2  0  0  0  0
  1  3  1  0  0  0  0
  1  7  1  0  0  0  0
  3  4  1  0  0  0  0
  3  5  1  0  0  0  0
  3  6  1  0  0  0  0
  7  8  1  0  0  0  0
  7 12  1  0  0  0  0
  8  9  1  0  0  0  0
  8 11  1  0  0  0  0
  8 13  1  0  0  0  0
  9 10  2  0  0  0  0
  9 17  1  0  0  0  0
 11 14  1  0  0  0  0
 11 15  1  0  0  0  0
 11 16  1  0  0  0  0
 17 18  1  0  0  0  0
 17 23  1  0  0  0  0
 18 19  1  0  0  0  0
 18 21  1  0  0  0  0
 18 24  1  0  0  0  0
 19 20  2  0  0  0  0
 19 31  1  0  0  0  0
 21 22  1  0  0  0  0
 21 25  1  0  0  0  0
 21 26  1  0  0  0  0
 22 23  1  0  0  0  0
 22 27  1  0  0  0  0
 22 28  1  0  0  0  0
 23 29  1  0  0  0  0
 23 30  1  0  0  0  0
 31 32  1  0  0  0  0
 31 36  1  0  0  0  0
 32 33  1  0  0  0  0
 32 35  1  0  0  0  0
 32 37  1  0  0  0  0
 33 34  2  0  0  0  0
 33 41  1  0  0  0  0
 35 38  1  0  0  0  0
 35 39  1  0  0  0  0
 35 40  1  0  0  0  0
 41 42  1  0  0  0  0
 41 43  1  0  0  0  0
 42 44  1  0  0  0  0
 42 45  1  0  0  0  0
 42 46  1  0  0  0  0
M  END
$$$$

  -OEChem-05262217223D

 46 46  0     1  0  0  0  0  0999 V2000
   -1.6078    0.2259    3.4505 C   0  0  0  0  0  0  0  0  0  0  0  0
   -1.9716   -0.8289    2.9538 O   0  0  0  0  0  0  0  0  0  0  0  0
   -1.4532    0.3440    4.9549 C   0  0  0  0  0  0  0  0  0  0  0  0
   -2.1350    1.1060    5.3400 H   0  0  0  0  0  0  0  0  0  0  0  0
   -1.6840   -0.6118    5.4337 H   0  0  0  0  0  0  0  0  0  0  0  0
   -0.4268    0.6230    5.2046 H   0  0  0  0  0  0  0  0  0  0  0  0
   -1.3461    1.3153    2.6466 N   0  0  0  0  0  0  0  0  0  0  0  0
   -1.3409    1.2793    1.1786 C   0  0  2  0  0  0  0  0  0  0  0  0
   -0.3507    2.3138    0.5871 C   0  0  0  0  0  0  0  0  0  0  0  0
   -0.1686    3.3550    1.2143 O   0  0  0  0  0  0  0  0  0  0  0  0
   -2.7721    1.5550    0.7012 C   0  0  0  0  0  0  0  0  0  0  0  0
   -0.9764    2.1548    3.0907 H   0  0  0  0  0  0  0  0  0  0  0  0
   -1.0247    0.2840    0.8511 H   0  0  0  0  0  0  0  0  0  0  0  0
   -3.1007    2.5444    1.0354 H   0  0  0  0  0  0  0  0  0  0  0  0
   -2.8345    1.5194   -0.3893 H   0  0  0  0  0  0  0  0  0  0  0  0
   -3.4579    0.8049    1.1081 H   0  0  0  0  0  0  0  0  0  0  0  0
    0.2458    2.1673   -0.6737 N   0  0  0  0  0  0  0  0  0  0  0  0
   -0.0390    0.9670   -1.5734 C   0  0  2  0  0  0  0  0  0  0  0  0
    1.0917   -0.0846   -1.6288 C   0  0  0  0  0  0  0  0  0  0  0  0
    1.5660   -0.4788   -0.5729 O   0  0  0  0  0  0  0  0  0  0  0  0
   -0.0224    1.8025   -2.8452 C   0  0  0  0  0  0  0  0  0  0  0  0
   -0.4517    3.1027   -2.1963 C   0  0  0  0  0  0  0  0  0  0  0  0
    0.7509    3.3982   -1.4320 C   0  0  0  0  0  0  0  0  0  0  0  0
   -1.0089    0.4921   -1.4052 H   0  0  0  0  0  0  0  0  0  0  0  0
   -0.7603    1.4458   -3.5707 H   0  0  0  0  0  0  0  0  0  0  0  0
    0.9536    1.8670   -3.3423 H   0  0  0  0  0  0  0  0  0  0  0  0
   -0.5455    3.8642   -2.9770 H   0  0  0  0  0  0  0  0  0  0  0  0
   -1.4352    3.1057   -1.6905 H   0  0  0  0  0  0  0  0  0  0  0  0
    1.7182    3.2836   -1.9347 H   0  0  0  0  0  0  0  0  0  0  0  0
    0.7051    4.3487   -0.8892 H   0  0  0  0  0  0  0  0  0  0  0  0
    1.5187   -0.6449   -2.8252 N   0  0  0  0  0  0  0  0  0  0  0  0
    2.5559   -1.6838   -3.0024 C   0  0  2  0  0  0  0  0  0  0  0  0
    2.1826   -3.0754   -2.4384 C   0  0  0  0  0  0  0  0  0  0  0  0
    2.1872   -4.0448   -3.1855 O   0  0  0  0  0  0  0  0  0  0  0  0
    3.9125   -1.2169   -2.4560 C   0  0  0  0  0  0  0  0  0  0  0  0
    1.0283   -0.3381   -3.6599 H   0  0  0  0  0  0  0  0  0  0  0  0
    2.6835   -1.8214   -4.0813 H   0  0  0  0  0  0  0  0  0  0  0  0
    3.9025   -1.1520   -1.3642 H   0  0  0  0  0  0  0  0  0  0  0  0
    4.6955   -1.9248   -2.7462 H   0  0  0  0  0  0  0  0  0  0  0  0
    4.1673   -0.2332   -2.8606 H   0  0  0  0  0  0  0  0  0  0  0  0
    1.8239   -3.2426   -1.1158 N   0  0  0  0  0  0  0  0  0  0  0  0
    1.4012   -4.5095   -0.5360 C   0  0  0  0  0  0  0  0  0  0  0  0
    1.7772   -2.3912   -0.5493 H   0  0  0  0  0  0  0  0  0  0  0  0
    1.1695   -4.3784    0.5254 H   0  0  0  0  0  0  0  0  0  0  0  0
    0.5053   -4.8830   -1.0424 H   0  0  0  0  0  0  0  0  0  0  0  0
    2.1962   -5.2568   -0.6270 H   0  0  0  0  0  0  0  0  0  0  0  0
  1  2  2  0  0  0  0
  1  3  1  0  0  0  0
  1  7  1  0  0  0  0
  3  4  1  0  0  0  0
  3  5  1  0  0  0  0
  3  6  1  0  0  0  0
  7  8  1  0  0  0  0
  7 12  1  0  0  0  0
  8  9  1  0  0  0  0
  8 11  1  0  0  0  0
  8 13  1  0  0  0  0
  9 10  2  0  0  0  0
  9 17  1  0  0  0  0
 11 14  1  0  0  0  0
 11 15  1  0  0  0  0
 11 16  1  0  0  0  0
 17 18  1  0  0  0  0
 17 23  1  0  0  0  0
 18 19  1  0  0  0  0
 18 21  1  0  0  0  0
 18 24  1  0  0  0  0
 19 20  2  0  0  0  0
 19 31  1  0  0  0  0
 21 22  1  0  0  0  0
 21 25  1  0  0  0  0
 21 26  1  0  0  0  0
 22 23  1  0  0  0  0
 22 27  1  0  0  0  0
 22 28  1  0  0  0  0
 23 29  1  0  0  0  0
 23 30  1  0  0  0  0
 31 32  1  0  0  0  0
 31 36  1  0  0  0  0
 32 33  1  0  0  0  0
 32 35  1  0  0  0  0
 32 37  1  0  0  0  0
 33 34  2  0  0  0  0
 33 41  1  0  0  0  0
 35 38  1  0  0  0  0
 35 39  1  0  0  0  0
 35 40  1  0  0  0  0
 41 42  1  0  0  0  0
 41 43  1  0  0  0  0
 42 44  1  0  0  0  0
 42 45  1  0  0  0  0
 42 46  1  0  0  0  0
M  END
$$$$

  -OEChem-05262217223D

 46 46  0     1  0  0  0  0  0999 V2000
   -1.5598    0.2160    3.4494 C   0  0  0  0  0  0  0  0  0  0  0  0
   -1.8735   -0.8620    2.9691 O   0  0  0  0  0  0  0  0  0  0  0  0
   -1.4416    0.3727    4.9536 C   0  0  0  0  0  0  0  0  0  0  0  0
   -2.1363    1.1395    5.3047 H   0  0  0  0  0  0  0  0  0  0  0  0
   -1.6786   -0.5722    5.4506 H   0  0  0  0  0  0  0  0  0  0  0  0
   -0.4224    0.6640    5.2190 H   0  0  0  0  0  0  0  0  0  0  0  0
   -1.3207    1.2964    2.6269 N   0  0  0  0  0  0  0  0  0  0  0  0
   -1.2902    1.2344    1.1598 C   0  0  2  0  0  0  0  0  0  0  0  0
   -0.3700    2.3319    0.5671 C   0  0  0  0  0  0  0  0  0  0  0  0
   -0.2537    3.3814    1.1966 O   0  0  0  0  0  0  0  0  0  0  0  0
   -2.7317    1.3936    0.6583 C   0  0  0  0  0  0  0  0  0  0  0  0
   -1.0049    2.1633    3.0601 H   0  0  0  0  0  0  0  0  0  0  0  0
   -0.8944    0.2602    0.8545 H   0  0  0  0  0  0  0  0  0  0  0  0
   -3.1397    2.3590    0.9742 H   0  0  0  0  0  0  0  0  0  0  0  0
   -2.7772    1.3385   -0.4320 H   0  0  0  0  0  0  0  0  0  0  0  0
   -3.3641    0.5986    1.0658 H   0  0  0  0  0  0  0  0  0  0  0  0
    0.2362    2.2294   -0.6942 N   0  0  0  0  0  0  0  0  0  0  0  0
    0.0320    1.0147   -1.5960 C   0  0  2  0  0  0  0  0  0  0  0  0
    1.2348    0.0457   -1.6469 C   0  0  0  0  0  0  0  0  0  0  0  0
    1.5579   -0.5027   -0.6030 O   0  0  0  0  0  0  0  0  0  0  0  0
   -0.0426    1.8521   -2.8669 C   0  0  0  0  0  0  0  0  0  0  0  0
   -0.5630    3.1089   -2.2014 C   0  0  0  0  0  0  0  0  0  0  0  0
    0.6255    3.4996   -1.4568 C   0  0  0  0  0  0  0  0  0  0  0  0
   -0.8962    0.4668   -1.4152 H   0  0  0  0  0  0  0  0  0  0  0  0
   -0.7616    1.4365   -3.5804 H   0  0  0  0  0  0  0  0  0  0  0  0
    0.9111    2.0091   -3.3844 H   0  0  0  0  0  0  0  0  0  0  0  0
   -0.7343    3.8641   -2.9750 H   0  0  0  0  0  0  0  0  0  0  0  0
   -1.5346    3.0286   -1.6796 H   0  0  0  0  0  0  0  0  0  0  0  0
    1.5895    3.4664   -1.9772 H   0  0  0  0  0  0  0  0  0  0  0  0
    0.5119    4.4420   -0.9100 H   0  0  0  0  0  0  0  0  0  0  0  0
    1.9135   -0.2607   -2.8188 N   0  0  0  0  0  0  0  0  0  0  0  0
    3.0374   -1.2076   -2.9749 C   0  0  2  0  0  0  0  0  0  0  0  0
    2.6692   -2.6899   -2.7275 C   0  0  0  0  0  0  0  0  0  0  0  0
    2.8166   -3.5022   -3.6310 O   0  0  0  0  0  0  0  0  0  0  0  0
    4.2446   -0.7875   -2.1240 C   0  0  0  0  0  0  0  0  0  0  0  0
    1.5523    0.1672   -3.6659 H   0  0  0  0  0  0  0  0  0  0  0  0
    3.3555   -1.1477   -4.0209 H   0  0  0  0  0  0  0  0  0  0  0  0
    4.0439   -0.9097   -1.0557 H   0  0  0  0  0  0  0  0  0  0  0  0
    5.1122   -1.4043   -2.3782 H   0  0  0  0  0  0  0  0  0  0  0  0
    4.4972    0.2600   -2.3130 H   0  0  0  0  0  0  0  0  0  0  0  0
    2.1501   -3.1090   -1.5190 N   0  0  0  0  0  0  0  0  0  0  0  0
    1.7074   -4.4691   -1.2469 C   0  0  0  0  0  0  0  0  0  0  0  0
    1.9595   -2.3738   -0.8326 H   0  0  0  0  0  0  0  0  0  0  0  0
    1.3598   -4.5510   -0.2125 H   0  0  0  0  0  0  0  0  0  0  0  0
    0.8836   -4.7447   -1.9133 H   0  0  0  0  0  0  0  0  0  0  0  0
    2.5306   -5.1764   -1.3916 H   0  0  0  0  0  0  0  0  0  0  0  0
  1  2  2  0  0  0  0
  1  3  1  0  0  0  0
  1  7  1  0  0  0  0
  3  4  1  0  0  0  0
  3  5  1  0  0  0  0
  3  6  1  0  0  0  0
  7  8  1  0  0  0  0
  7 12  1  0  0  0  0
  8  9  1  0  0  0  0
  8 11  1  0  0  0  0
  8 13  1  0  0  0  0
  9 10  2  0  0  0  0
  9 17  1  0  0  0  0
 11 14  1  0  0  0  0
 11 15  1  0  0  0  0
 11 16  1  0  0  0  0
 17 18  1  0  0  0  0
 17 23  1  0  0  0  0
 18 19  1  0  0  0  0
 18 21  1  0  0  0  0
 18 24  1  0  0  0  0
 19 20  2  0  0  0  0
 19 31  1  0  0  0  0
 21 22  1  0  0  0  0
 21 25  1  0  0  0  0
 21 26  1  0  0  0  0
 22 23  1  0  0  0  0
 22 27  1  0  0  0  0
 22 28  1  0  0  0  0
 23 29  1  0  0  0  0
 23 30  1  0  0  0  0
 31 32  1  0  0  0  0
 31 36  1  0  0  0  0
 32 33  1  0  0  0  0
 32 35  1  0  0  0  0
 32 37  1  0  0  0  0
 33 34  2  0  0  0  0
 33 41  1  0  0  0  0
 35 38  1  0  0  0  0
 35 39  1  0  0  0  0
 35 40  1  0  0  0  0
 41 42  1  0  0  0  0
 41 43  1  0  0  0  0
 42 44  1  0  0  0  0
 42 45  1  0  0  0  0
 42 46  1  0  0  0  0
M  END
$$$$

  -OEChem-05262217223D

 46 46  0     1  0  0  0  0  0999 V2000
   -1.4958    0.2340    3.4463 C   0  0  0  0  0  0  0  0  0  0  0  0
   -1.7475   -0.8666    2.9815 O   0  0  0  0  0  0  0  0  0  0  0  0
   -1.3697    0.4144    4.9477 C   0  0  0  0  0  0  0  0  0  0  0  0
   -2.1021    1.1449    5.2997 H   0  0  0  0  0  0  0  0  0  0  0  0
   -1.5473   -0.5367    5.4575 H   0  0  0  0  0  0  0  0  0  0  0  0
   -0.3655    0.7657    5.1981 H   0  0  0  0  0  0  0  0  0  0  0  0
   -1.3279    1.3166    2.6088 N   0  0  0  0  0  0  0  0  0  0  0  0
   -1.2860    1.2350    1.1426 C   0  0  2  0  0  0  0  0  0  0  0  0
   -0.4257    2.3751    0.5402 C   0  0  0  0  0  0  0  0  0  0  0  0
   -0.3803    3.4404    1.1518 O   0  0  0  0  0  0  0  0  0  0  0  0
   -2.7299    1.3045    0.6284 C   0  0  0  0  0  0  0  0  0  0  0  0
   -1.0625    2.2058    3.0301 H   0  0  0  0  0  0  0  0  0  0  0  0
   -0.8344    0.2797    0.8547 H   0  0  0  0  0  0  0  0  0  0  0  0
   -3.1904    2.2559    0.9134 H   0  0  0  0  0  0  0  0  0  0  0  0
   -2.7623    1.2155   -0.4603 H   0  0  0  0  0  0  0  0  0  0  0  0
   -3.3239    0.4896    1.0544 H   0  0  0  0  0  0  0  0  0  0  0  0
    0.2038    2.2897   -0.7115 N   0  0  0  0  0  0  0  0  0  0  0  0
    0.0877    1.0515   -1.5958 C   0  0  2  0  0  0  0  0  0  0  0  0
    1.3572    0.1693   -1.6019 C   0  0  0  0  0  0  0  0  0  0  0  0
    1.5348   -0.5438   -0.6251 O   0  0  0  0  0  0  0  0  0  0  0  0
   -0.0467    1.8579   -2.8826 C   0  0  0  0  0  0  0  0  0  0  0  0
   -0.6561    3.0835   -2.2363 C   0  0  0  0  0  0  0  0  0  0  0  0
    0.5025    3.5701   -1.4999 C   0  0  0  0  0  0  0  0  0  0  0  0
   -0.8006    0.4426   -1.4070 H   0  0  0  0  0  0  0  0  0  0  0  0
   -0.7363    1.3775   -3.5843 H   0  0  0  0  0  0  0  0  0  0  0  0
    0.8864    2.0790   -3.4113 H   0  0  0  0  0  0  0  0  0  0  0  0
   -0.8814    3.8115   -3.0222 H   0  0  0  0  0  0  0  0  0  0  0  0
   -1.6196    2.9427   -1.7129 H   0  0  0  0  0  0  0  0  0  0  0  0
    1.4670    3.5944   -2.0202 H   0  0  0  0  0  0  0  0  0  0  0  0
    0.3231    4.5130   -0.9722 H   0  0  0  0  0  0  0  0  0  0  0  0
    2.2591    0.1154   -2.6561 N   0  0  0  0  0  0  0  0  0  0  0  0
    3.4782   -0.7158   -2.7471 C   0  0  2  0  0  0  0  0  0  0  0  0
    3.2119   -2.2365   -2.8428 C   0  0  0  0  0  0  0  0  0  0  0  0
    3.6372   -2.8601   -3.8062 O   0  0  0  0  0  0  0  0  0  0  0  0
    4.4625   -0.3957   -1.6124 C   0  0  0  0  0  0  0  0  0  0  0  0
    2.0373    0.6926   -3.4607 H   0  0  0  0  0  0  0  0  0  0  0  0
    3.9777   -0.4386   -3.6813 H   0  0  0  0  0  0  0  0  0  0  0  0
    4.0860   -0.7441   -0.6465 H   0  0  0  0  0  0  0  0  0  0  0  0
    5.4217   -0.8887   -1.7999 H   0  0  0  0  0  0  0  0  0  0  0  0
    4.6348    0.6831   -1.5504 H   0  0  0  0  0  0  0  0  0  0  0  0
    2.4757   -2.8984   -1.8805 N   0  0  0  0  0  0  0  0  0  0  0  0
    2.1262   -4.3101   -1.9462 C   0  0  0  0  0  0  0  0  0  0  0  0
    2.0889   -2.3195   -1.1300 H   0  0  0  0  0  0  0  0  0  0  0  0
    1.5478   -4.5957   -1.0623 H   0  0  0  0  0  0  0  0  0  0  0  0
    1.5226   -4.5133   -2.8369 H   0  0  0  0  0  0  0  0  0  0  0  0
    3.0298   -4.9274   -1.9820 H   0  0  0  0  0  0  0  0  0  0  0  0
  1  2  2  0  0  0  0
  1  3  1  0  0  0  0
  1  7  1  0  0  0  0
  3  4  1  0  0  0  0
  3  5  1  0  0  0  0
  3  6  1  0  0  0  0
  7  8  1  0  0  0  0
  7 12  1  0  0  0  0
  8  9  1  0  0  0  0
  8 11  1  0  0  0  0
  8 13  1  0  0  0  0
  9 10  2  0  0  0  0
  9 17  1  0  0  0  0
 11 14  1  0  0  0  0
 11 15  1  0  0  0  0
 11 16  1  0  0  0  0
 17 18  1  0  0  0  0
 17 23  1  0  0  0  0
 18 19  1  0  0  0  0
 18 21  1  0  0  0  0
 18 24  1  0  0  0  0
 19 20  2  0  0  0  0
 19 31  1  0  0  0  0
 21 22  1  0  0  0  0
 21 25  1  0  0  0  0
 21 26  1  0  0  0  0
 22 23  1  0  0  0  0
 22 27  1  0  0  0  0
 22 28  1  0  0  0  0
 23 29  1  0  0  0  0
 23 30  1  0  0  0  0
 31 32  1  0  0  0  0
 31 36  1  0  0  0  0
 32 33  1  0  0  0  0
 32 35  1  0  0  0  0
 32 37  1  0  0  0  0
 33 34  2  0  0  0  0
 33 41  1  0  0  0  0
 35 38  1  0  0  0  0
 35 39  1  0  0  0  0
 35 40  1  0  0  0  0
 41 42  1  0  0  0  0
 41 43  1  0  0  0  0
 42 44  1  0  0  0  0
 42 45  1  0  0  0  0
 42 46  1  0  0  0  0
M  END
$$$$

  -OEChem-05262217223D

 46 46  0     1  0  0  0  0  0999 V2000
   -1.5122    0.3062    3.4960 C   0  0  0  0  0  0  0  0  0  0  0  0
   -1.6840   -0.8225    3.0643 O   0  0  0  0  0  0  0  0  0  0  0  0
   -1.4833    0.5495    4.9934 C   0  0  0  0  0  0  0  0  0  0  0  0
   -2.3299    1.1751    5.2860 H   0  0  0  0  0  0  0  0  0  0  0  0
   -1.5446   -0.4014    5.5301 H   0  0  0  0  0  0  0  0  0  0  0  0
   -0.5540    1.0515    5.2732 H   0  0  0  0  0  0  0  0  0  0  0  0
   -1.3562    1.3641    2.6250 N   0  0  0  0  0  0  0  0  0  0  0  0
   -1.2727    1.2387    1.1632 C   0  0  2  0  0  0  0  0  0  0  0  0
   -0.4712    2.4114    0.5423 C   0  0  0  0  0  0  0  0  0  0  0  0
   -0.4929    3.4913    1.1286 O   0  0  0  0  0  0  0  0  0  0  0  0
   -2.7062    1.2031    0.6184 C   0  0  0  0  0  0  0  0  0  0  0  0
   -1.1665    2.2829    3.0230 H   0  0  0  0  0  0  0  0  0  0  0  0
   -0.7570    0.3049    0.9152 H   0  0  0  0  0  0  0  0  0  0  0  0
   -3.2328    2.1283    0.8731 H   0  0  0  0  0  0  0  0  0  0  0  0
   -2.7098    1.0891   -0.4681 H   0  0  0  0  0  0  0  0  0  0  0  0
   -3.2548    0.3599    1.0500 H   0  0  0  0  0  0  0  0  0  0  0  0
    0.1840    2.3347   -0.6972 N   0  0  0  0  0  0  0  0  0  0  0  0
    0.1610    1.0735   -1.5559 C   0  0  2  0  0  0  0  0  0  0  0  0
    1.4831    0.2729   -1.5202 C   0  0  0  0  0  0  0  0  0  0  0  0
    1.5638   -0.6168   -0.6860 O   0  0  0  0  0  0  0  0  0  0  0  0
   -0.0114    1.8334   -2.8658 C   0  0  0  0  0  0  0  0  0  0  0  0
   -0.7088    3.0291   -2.2534 C   0  0  0  0  0  0  0  0  0  0  0  0
    0.4037    3.6129   -1.5168 C   0  0  0  0  0  0  0  0  0  0  0  0
   -0.6895    0.4141   -1.3612 H   0  0  0  0  0  0  0  0  0  0  0  0
   -0.6606    1.2891   -3.5596 H   0  0  0  0  0  0  0  0  0  0  0  0
    0.9070    2.1019   -3.3967 H   0  0  0  0  0  0  0  0  0  0  0  0
   -0.9736    3.7213   -3.0591 H   0  0  0  0  0  0  0  0  0  0  0  0
   -1.6673    2.8361   -1.7378 H   0  0  0  0  0  0  0  0  0  0  0  0
    1.3700    3.6910   -2.0281 H   0  0  0  0  0  0  0  0  0  0  0  0
    0.1529    4.5543   -1.0157 H   0  0  0  0  0  0  0  0  0  0  0  0
    2.5375    0.4766   -2.4003 N   0  0  0  0  0  0  0  0  0  0  0  0
    3.8262   -0.2475   -2.4346 C   0  0  2  0  0  0  0  0  0  0  0  0
    3.7190   -1.7316   -2.8574 C   0  0  0  0  0  0  0  0  0  0  0  0
    4.3361   -2.1224   -3.8396 O   0  0  0  0  0  0  0  0  0  0  0  0
    4.5859   -0.1043   -1.1072 C   0  0  0  0  0  0  0  0  0  0  0  0
    2.4179    1.2294   -3.0699 H   0  0  0  0  0  0  0  0  0  0  0  0
    4.4399    0.2391   -3.2000 H   0  0  0  0  0  0  0  0  0  0  0  0
    4.0932   -0.6582   -0.3029 H   0  0  0  0  0  0  0  0  0  0  0  0
    5.6024   -0.4963   -1.2145 H   0  0  0  0  0  0  0  0  0  0  0  0
    4.6490    0.9484   -0.8159 H   0  0  0  0  0  0  0  0  0  0  0  0
    2.9191   -2.6183   -2.1648 N   0  0  0  0  0  0  0  0  0  0  0  0
    2.7195   -4.0087   -2.5476 C   0  0  0  0  0  0  0  0  0  0  0  0
    2.3720   -2.2247   -1.3943 H   0  0  0  0  0  0  0  0  0  0  0  0
    2.0532   -4.5031   -1.8343 H   0  0  0  0  0  0  0  0  0  0  0  0
    2.2693   -4.0703   -3.5437 H   0  0  0  0  0  0  0  0  0  0  0  0
    3.6746   -4.5441   -2.5565 H   0  0  0  0  0  0  0  0  0  0  0  0
  1  2  2  0  0  0  0
  1  3  1  0  0  0  0
  1  7  1  0  0  0  0
  3  4  1  0  0  0  0
  3  5  1  0  0  0  0
  3  6  1  0  0  0  0
  7  8  1  0  0  0  0
  7 12  1  0  0  0  0
  8  9  1  0  0  0  0
  8 11  1  0  0  0  0
  8 13  1  0  0  0  0
  9 10  2  0  0  0  0
  9 17  1  0  0  0  0
 11 14  1  0  0  0  0
 11 15  1  0  0  0  0
 11 16  1  0  0  0  0
 17 18  1  0  0  0  0
 17 23  1  0  0  0  0
 18 19  1  0  0  0  0
 18 21  1  0  0  0  0
 18 24  1  0  0  0  0
 19 20  2  0  0  0  0
 19 31  1  0  0  0  0
 21 22  1  0  0  0  0
 21 25  1  0  0  0  0
 21 26  1  0  0  0  0
 22 23  1  0  0  0  0
 22 27  1  0  0  0  0
 22 28  1  0  0  0  0
 23 29  1  0  0  0  0
 23 30  1  0  0  0  0
 31 32  1  0  0  0  0
 31 36  1  0  0  0  0
 32 33  1  0  0  0  0
 32 35  1  0  0  0  0
 32 37  1  0  0  0  0
 33 34  2  0  0  0  0
 33 41  1  0  0  0  0
 35 38  1  0  0  0  0
 35 39  1  0  0  0  0
 35 40  1  0  0  0  0
 41 42  1  0  0  0  0
 41 43  1  0  0  0  0
 42 44  1  0  0  0  0
 42 45  1  0  0  0  0
 42 46  1  0  0  0  0
M  END
$$$$

  -OEChem-05262217223D

 46 46  0     1  0  0  0  0  0999 V2000
   -1.5533    0.3755    3.5383 C   0  0  0  0  0  0  0  0  0  0  0  0
   -1.6189   -0.7762    3.1399 O   0  0  0  0  0  0  0  0  0  0  0  0
   -1.5972    0.6694    5.0262 C   0  0  0  0  0  0  0  0  0  0  0  0
   -2.4875    1.2562    5.2639 H   0  0  0  0  0  0  0  0  0  0  0  0
   -1.6280   -0.2639    5.5953 H   0  0  0  0  0  0  0  0  0  0  0  0
   -0.7084    1.2318    5.3217 H   0  0  0  0  0  0  0  0  0  0  0  0
   -1.4469    1.4143    2.6375 N   0  0  0  0  0  0  0  0  0  0  0  0
   -1.2995    1.2507    1.1845 C   0  0  2  0  0  0  0  0  0  0  0  0
   -0.5351    2.4453    0.5579 C   0  0  0  0  0  0  0  0  0  0  0  0
   -0.6228    3.5373    1.1147 O   0  0  0  0  0  0  0  0  0  0  0  0
   -2.7073    1.1257    0.5881 C   0  0  0  0  0  0  0  0  0  0  0  0
   -1.3440    2.3570    3.0108 H   0  0  0  0  0  0  0  0  0  0  0  0
   -0.7284    0.3380    0.9833 H   0  0  0  0  0  0  0  0  0  0  0  0
   -3.2867    2.0331    0.7866 H   0  0  0  0  0  0  0  0  0  0  0  0
   -2.6640    0.9715   -0.4927 H   0  0  0  0  0  0  0  0  0  0  0  0
   -3.2320    0.2737    1.0318 H   0  0  0  0  0  0  0  0  0  0  0  0
    0.1615    2.3692   -0.6585 N   0  0  0  0  0  0  0  0  0  0  0  0
    0.2261    1.0884   -1.4849 C   0  0  2  0  0  0  0  0  0  0  0  0
    1.5797    0.3507   -1.3933 C   0  0  0  0  0  0  0  0  0  0  0  0
    1.6069   -0.6892   -0.7519 O   0  0  0  0  0  0  0  0  0  0  0  0
    0.0687    1.8029   -2.8204 C   0  0  0  0  0  0  0  0  0  0  0  0
   -0.7037    2.9805   -2.2640 C   0  0  0  0  0  0  0  0  0  0  0  0
    0.3515    3.6353   -1.5043 C   0  0  0  0  0  0  0  0  0  0  0  0
   -0.5995    0.3952   -1.3016 H   0  0  0  0  0  0  0  0  0  0  0  0
   -0.5318    1.2117   -3.5193 H   0  0  0  0  0  0  0  0  0  0  0  0
    0.9955    2.0911   -3.3270 H   0  0  0  0  0  0  0  0  0  0  0  0
   -0.9707    3.6397   -3.0963 H   0  0  0  0  0  0  0  0  0  0  0  0
   -1.6708    2.7560   -1.7775 H   0  0  0  0  0  0  0  0  0  0  0  0
    1.3303    3.7463   -1.9842 H   0  0  0  0  0  0  0  0  0  0  0  0
    0.0384    4.5760   -1.0379 H   0  0  0  0  0  0  0  0  0  0  0  0
    2.7268    0.7893   -2.0398 N   0  0  0  0  0  0  0  0  0  0  0  0
    4.0672    0.1663   -2.0060 C   0  0  2  0  0  0  0  0  0  0  0  0
    4.1619   -1.2115   -2.7041 C   0  0  0  0  0  0  0  0  0  0  0  0
    4.9713   -1.3727   -3.6079 O   0  0  0  0  0  0  0  0  0  0  0  0
    4.6099    0.0955   -0.5715 C   0  0  0  0  0  0  0  0  0  0  0  0
    2.6454    1.6789   -2.5216 H   0  0  0  0  0  0  0  0  0  0  0  0
    4.7367    0.8304   -2.5627 H   0  0  0  0  0  0  0  0  0  0  0  0
    4.0515   -0.6262    0.0315 H   0  0  0  0  0  0  0  0  0  0  0  0
    5.6600   -0.2137   -0.5839 H   0  0  0  0  0  0  0  0  0  0  0  0
    4.5429    1.0761   -0.0908 H   0  0  0  0  0  0  0  0  0  0  0  0
    3.3417   -2.2602   -2.3387 N   0  0  0  0  0  0  0  0  0  0  0  0
    3.3452   -3.5666   -2.9818 C   0  0  0  0  0  0  0  0  0  0  0  0
    2.6497   -2.0593   -1.6118 H   0  0  0  0  0  0  0  0  0  0  0  0
    2.6180   -4.2253   -2.4971 H   0  0  0  0  0  0  0  0  0  0  0  0
    3.0778   -3.4738   -4.0394 H   0  0  0  0  0  0  0  0  0  0  0  0
    4.3349   -4.0290   -2.9061 H   0  0  0  0  0  0  0  0  0  0  0  0
  1  2  2  0  0  0  0
  1  3  1  0  0  0  0
  1  7  1  0  0  0  0
  3  4  1  0  0  0  0
  3  5  1  0  0  0  0
  3  6  1  0  0  0  0
  7  8  1  0  0  0  0
  7 12  1  0  0  0  0
  8  9  1  0  0  0  0
  8 11  1  0  0  0  0
  8 13  1  0  0  0  0
  9 10  2  0  0  0  0
  9 17  1  0  0  0  0
 11 14  1  0  0  0  0
 11 15  1  0  0  0  0
 11 16  1  0  0  0  0
 17 18  1  0  0  0  0
 17 23  1  0  0  0  0
 18 19  1  0  0  0  0
 18 21  1  0  0  0  0
 18 24  1  0  0  0  0
 19 20  2  0  0  0  0
 19 31  1  0  0  0  0
 21 22  1  0  0  0  0
 21 25  1  0  0  0  0
 21 26  1  0  0  0  0
 22 23  1  0  0  0  0
 22 27  1  0  0  0  0
 22 28  1  0  0  0  0
 23 29  1  0  0  0  0
 23 30  1  0  0  0  0
 31 32  1  0  0  0  0
 31 36  1  0  0  0  0
 32 33  1  0  0  0  0
 32 35  1  0  0  0  0
 32 37  1  0  0  0  0
 33 34  2  0  0  0  0
 33 41  1  0  0  0  0
 35 38  1  0  0  0  0
 35 39  1  0  0  0  0
 35 40  1  0  0  0  0
 41 42  1  0  0  0  0
 41 43  1  0  0  0  0
 42 44  1  0  0  0  0
 42 45  1  0  0  0  0
 42 46  1  0  0  0  0
M  END
$$$$

  -OEChem-05262217223D

 46 46  0     1  0  0  0  0  0999 V2000
   -1.6289    0.5012    3.6277 C   0  0  0  0  0  0  0  0  0  0  0  0
   -1.6040   -0.6716    3.2912 O   0  0  0  0  0  0  0  0  0  0  0  0
   -1.7333    0.8705    5.0958 C   0  0  0  0  0  0  0  0  0  0  0  0
   -2.6599    1.4204    5.2769 H   0  0  0  0  0  0  0  0  0  0  0  0
   -1.7322   -0.0327    5.7126 H   0  0  0  0  0  0  0  0  0  0  0  0
   -0.8845    1.4946    5.3857 H   0  0  0  0  0  0  0  0  0  0  0  0
   -1.5626    1.4944    2.6735 N   0  0  0  0  0  0  0  0  0  0  0  0
   -1.3608    1.2621    1.2366 C   0  0  2  0  0  0  0  0  0  0  0  0
   -0.6430    2.4638    0.5718 C   0  0  0  0  0  0  0  0  0  0  0  0
   -0.8093    3.5770    1.0647 O   0  0  0  0  0  0  0  0  0  0  0  0
   -2.7383    1.0248    0.6041 C   0  0  0  0  0  0  0  0  0  0  0  0
   -1.5286    2.4605    2.9965 H   0  0  0  0  0  0  0  0  0  0  0  0
   -0.7344    0.3739    1.1013 H   0  0  0  0  0  0  0  0  0  0  0  0
   -3.3752    1.9054    0.7350 H   0  0  0  0  0  0  0  0  0  0  0  0
   -2.6484    0.8179   -0.4653 H   0  0  0  0  0  0  0  0  0  0  0  0
   -3.2287    0.1673    1.0760 H   0  0  0  0  0  0  0  0  0  0  0  0
    0.1075    2.3609   -0.6091 N   0  0  0  0  0  0  0  0  0  0  0  0
    0.2857    1.0437   -1.3584 C   0  0  2  0  0  0  0  0  0  0  0  0
    1.6712    0.3919   -1.1795 C   0  0  0  0  0  0  0  0  0  0  0  0
    1.7144   -0.7630   -0.7820 O   0  0  0  0  0  0  0  0  0  0  0  0
    0.1659    1.6708   -2.7376 C   0  0  0  0  0  0  0  0  0  0  0  0
   -0.6986    2.8312   -2.2900 C   0  0  0  0  0  0  0  0  0  0  0  0
    0.2723    3.5882   -1.5154 C   0  0  0  0  0  0  0  0  0  0  0  0
   -0.5101    0.3157   -1.1755 H   0  0  0  0  0  0  0  0  0  0  0  0
   -0.3605    1.0082   -3.4326 H   0  0  0  0  0  0  0  0  0  0  0  0
    1.1091    1.9761   -3.2043 H   0  0  0  0  0  0  0  0  0  0  0  0
   -0.9554    3.4257   -3.1726 H   0  0  0  0  0  0  0  0  0  0  0  0
   -1.6770    2.5768   -1.8421 H   0  0  0  0  0  0  0  0  0  0  0  0
    1.2672    3.7320   -1.9510 H   0  0  0  0  0  0  0  0  0  0  0  0
   -0.1203    4.5322   -1.1217 H   0  0  0  0  0  0  0  0  0  0  0  0
    2.8368    1.0416   -1.5574 N   0  0  0  0  0  0  0  0  0  0  0  0
    4.2188    0.5250   -1.4717 C   0  0  2  0  0  0  0  0  0  0  0  0
    4.5353   -0.6427   -2.4360 C   0  0  0  0  0  0  0  0  0  0  0  0
    5.4997   -0.5588   -3.1850 O   0  0  0  0  0  0  0  0  0  0  0  0
    4.5884    0.1601   -0.0272 C   0  0  0  0  0  0  0  0  0  0  0  0
    2.7218    2.0105   -1.8397 H   0  0  0  0  0  0  0  0  0  0  0  0
    4.8800    1.3460   -1.7685 H   0  0  0  0  0  0  0  0  0  0  0  0
    4.0372   -0.7208    0.3146 H   0  0  0  0  0  0  0  0  0  0  0  0
    5.6583   -0.0614    0.0400 H   0  0  0  0  0  0  0  0  0  0  0  0
    4.3653    0.9941    0.6450 H   0  0  0  0  0  0  0  0  0  0  0  0
    3.7474   -1.7755   -2.4772 N   0  0  0  0  0  0  0  0  0  0  0  0
    3.9993   -2.9167   -3.3460 C   0  0  0  0  0  0  0  0  0  0  0  0
    2.9555   -1.7992   -1.8292 H   0  0  0  0  0  0  0  0  0  0  0  0
    4.0634   -2.5969   -4.3912 H   0  0  0  0  0  0  0  0  0  0  0  0
    4.9375   -3.4080   -3.0685 H   0  0  0  0  0  0  0  0  0  0  0  0
    3.1863   -3.6438   -3.2571 H   0  0  0  0  0  0  0  0  0  0  0  0
  1  2  2  0  0  0  0
  1  3  1  0  0  0  0
  1  7  1  0  0  0  0
  3  4  1  0  0  0  0
  3  5  1  0  0  0  0
  3  6  1  0  0  0  0
  7  8  1  0  0  0  0
  7 12  1  0  0  0  0
  8  9  1  0  0  0  0
  8 11  1  0  0  0  0
  8 13  1  0  0  0  0
  9 10  2  0  0  0  0
  9 17  1  0  0  0  0
 11 14  1  0  0  0  0
 11 15  1  0  0  0  0
 11 16  1  0  0  0  0
 17 18  1  0  0  0  0
 17 23  1  0  0  0  0
 18 19  1  0  0  0  0
 18 21  1  0  0  0  0
 18 24  1  0  0  0  0
 19 20  2  0  0  0  0
 19 31  1  0  0  0  0
 21 22  1  0  0  0  0
 21 25  1  0  0  0  0
 21 26  1  0  0  0  0
 22 23  1  0  0  0  0
 22 27  1  0  0  0  0
 22 28  1  0  0  0  0
 23 29  1  0  0  0  0
 23 30  1  0  0  0  0
 31 32  1  0  0  0  0
 31 36  1  0  0  0  0
 32 33  1  0  0  0  0
 32 35  1  0  0  0  0
 32 37  1  0  0  0  0
 33 34  2  0  0  0  0
 33 41  1  0  0  0  0
 35 38  1  0  0  0  0
 35 39  1  0  0  0  0
 35 40  1  0  0  0  0
 41 42  1  0  0  0  0
 41 43  1  0  0  0  0
 42 44  1  0  0  0  0
 42 45  1  0  0  0  0
 42 46  1  0  0  0  0
M  END
$$$$

  -OEChem-05262217223D

 46 46  0     1  0  0  0  0  0999 V2000
   -1.8107    0.6104    3.6730 C   0  0  0  0  0  0  0  0  0  0  0  0
   -1.7250   -0.5736    3.3899 O   0  0  0  0  0  0  0  0  0  0  0  0
   -2.0299    1.0364    5.1128 C   0  0  0  0  0  0  0  0  0  0  0  0
   -2.9050    1.6873    5.1815 H   0  0  0  0  0  0  0  0  0  0  0  0
   -2.1940    0.1590    5.7449 H   0  0  0  0  0  0  0  0  0  0  0  0
   -1.1536    1.5761    5.4795 H   0  0  0  0  0  0  0  0  0  0  0  0
   -1.7085    1.5648    2.6834 N   0  0  0  0  0  0  0  0  0  0  0  0
   -1.4229    1.2806    1.2705 C   0  0  2  0  0  0  0  0  0  0  0  0
   -0.6955    2.4716    0.5971 C   0  0  0  0  0  0  0  0  0  0  0  0
   -0.8912    3.5967    1.0496 O   0  0  0  0  0  0  0  0  0  0  0  0
   -2.7601    0.9886    0.5772 C   0  0  0  0  0  0  0  0  0  0  0  0
   -1.7262    2.5443    2.9648 H   0  0  0  0  0  0  0  0  0  0  0  0
   -0.7727    0.4020    1.2035 H   0  0  0  0  0  0  0  0  0  0  0  0
   -3.4252    1.8549    0.6511 H   0  0  0  0  0  0  0  0  0  0  0  0
   -2.6119    0.7554   -0.4802 H   0  0  0  0  0  0  0  0  0  0  0  0
   -3.2517    0.1314    1.0486 H   0  0  0  0  0  0  0  0  0  0  0  0
    0.1082    2.3428   -0.5449 N   0  0  0  0  0  0  0  0  0  0  0  0
    0.3443    1.0066   -1.2434 C   0  0  2  0  0  0  0  0  0  0  0  0
    1.7290    0.3857   -0.9866 C   0  0  0  0  0  0  0  0  0  0  0  0
    1.8115   -0.8260   -0.8484 O   0  0  0  0  0  0  0  0  0  0  0  0
    0.3016    1.5917   -2.6428 C   0  0  0  0  0  0  0  0  0  0  0  0
   -0.6003    2.7555   -2.2835 C   0  0  0  0  0  0  0  0  0  0  0  0
    0.3139    3.5459   -1.4754 C   0  0  0  0  0  0  0  0  0  0  0  0
   -0.4488    0.2709   -1.0822 H   0  0  0  0  0  0  0  0  0  0  0  0
   -0.1735    0.9044   -3.3505 H   0  0  0  0  0  0  0  0  0  0  0  0
    1.2743    1.8897   -3.0527 H   0  0  0  0  0  0  0  0  0  0  0  0
   -0.8096    3.3208   -3.1974 H   0  0  0  0  0  0  0  0  0  0  0  0
   -1.6011    2.5032   -1.8861 H   0  0  0  0  0  0  0  0  0  0  0  0
    1.3306    3.6897   -1.8578 H   0  0  0  0  0  0  0  0  0  0  0  0
   -0.1118    4.4958   -1.1339 H   0  0  0  0  0  0  0  0  0  0  0  0
    2.8718    1.1671   -1.0497 N   0  0  0  0  0  0  0  0  0  0  0  0
    4.2708    0.7261   -0.8749 C   0  0  2  0  0  0  0  0  0  0  0  0
    4.8081   -0.1779   -2.0088 C   0  0  0  0  0  0  0  0  0  0  0  0
    5.8344    0.1388   -2.5955 O   0  0  0  0  0  0  0  0  0  0  0  0
    4.4785    0.0701    0.4972 C   0  0  0  0  0  0  0  0  0  0  0  0
    2.7052    2.1669   -1.1252 H   0  0  0  0  0  0  0  0  0  0  0  0
    4.8901    1.6290   -0.8902 H   0  0  0  0  0  0  0  0  0  0  0  0
    3.9688   -0.8960    0.5579 H   0  0  0  0  0  0  0  0  0  0  0  0
    5.5459   -0.0971    0.6742 H   0  0  0  0  0  0  0  0  0  0  0  0
    4.0939    0.7178    1.2908 H   0  0  0  0  0  0  0  0  0  0  0  0
    4.1449   -1.3290   -2.3838 N   0  0  0  0  0  0  0  0  0  0  0  0
    4.5843   -2.2150   -3.4523 C   0  0  0  0  0  0  0  0  0  0  0  0
    3.2803   -1.5382   -1.8776 H   0  0  0  0  0  0  0  0  0  0  0  0
    4.6456   -1.6712   -4.4006 H   0  0  0  0  0  0  0  0  0  0  0  0
    5.5690   -2.6342   -3.2209 H   0  0  0  0  0  0  0  0  0  0  0  0
    3.8756   -3.0400   -3.5725 H   0  0  0  0  0  0  0  0  0  0  0  0
  1  2  2  0  0  0  0
  1  3  1  0  0  0  0
  1  7  1  0  0  0  0
  3  4  1  0  0  0  0
  3  5  1  0  0  0  0
  3  6  1  0  0  0  0
  7  8  1  0  0  0  0
  7 12  1  0  0  0  0
  8  9  1  0  0  0  0
  8 11  1  0  0  0  0
  8 13  1  0  0  0  0
  9 10  2  0  0  0  0
  9 17  1  0  0  0  0
 11 14  1  0  0  0  0
 11 15  1  0  0  0  0
 11 16  1  0  0  0  0
 17 18  1  0  0  0  0
 17 23  1  0  0  0  0
 18 19  1  0  0  0  0
 18 21  1  0  0  0  0
 18 24  1  0  0  0  0
 19 20  2  0  0  0  0
 19 31  1  0  0  0  0
 21 22  1  0  0  0  0
 21 25  1  0  0  0  0
 21 26  1  0  0  0  0
 22 23  1  0  0  0  0
 22 27  1  0  0  0  0
 22 28  1  0  0  0  0
 23 29  1  0  0  0  0
 23 30  1  0  0  0  0
 31 32  1  0  0  0  0
 31 36  1  0  0  0  0
 32 33  1  0  0  0  0
 32 35  1  0  0  0  0
 32 37  1  0  0  0  0
 33 34  2  0  0  0  0
 33 41  1  0  0  0  0
 35 38  1  0  0  0  0
 35 39  1  0  0  0  0
 35 40  1  0  0  0  0
 41 42  1  0  0  0  0
 41 43  1  0  0  0  0
 42 44  1  0  0  0  0
 42 45  1  0  0  0  0
 42 46  1  0  0  0  0
M  END
$$$$

  -OEChem-05262217223D

 46 46  0     1  0  0  0  0  0999 V2000
   -1.0422    0.8828    3.3972 C   0  0  0  0  0  0  0  0  0  0  0  0
   -0.0075    0.3558    3.0166 O   0  0  0  0  0  0  0  0  0  0  0  0
   -1.2194    1.2453    4.8593 C   0  0  0  0  0  0  0  0  0  0  0  0
   -2.1554    0.8277    5.2377 H   0  0  0  0  0  0  0  0  0  0  0  0
   -0.3915    0.8436    5.4500 H   0  0  0  0  0  0  0  0  0  0  0  0
   -1.2401    2.3319    4.9732 H   0  0  0  0  0  0  0  0  0  0  0  0
   -2.0320    1.1976    2.4878 N   0  0  0  0  0  0  0  0  0  0  0  0
   -1.7902    1.1348    1.0406 C   0  0  2  0  0  0  0  0  0  0  0  0
   -0.9897    2.3660    0.5454 C   0  0  0  0  0  0  0  0  0  0  0  0
   -1.2768    3.4642    1.0142 O   0  0  0  0  0  0  0  0  0  0  0  0
   -3.1468    1.0453    0.3375 C   0  0  0  0  0  0  0  0  0  0  0  0
   -2.7311    1.8595    2.8134 H   0  0  0  0  0  0  0  0  0  0  0  0
   -1.2265    0.2234    0.8202 H   0  0  0  0  0  0  0  0  0  0  0  0
   -3.7373    1.9477    0.5265 H   0  0  0  0  0  0  0  0  0  0  0  0
   -3.0121    0.9385   -0.7430 H   0  0  0  0  0  0  0  0  0  0  0  0
   -3.7062    0.1781    0.7026 H   0  0  0  0  0  0  0  0  0  0  0  0
   -0.0622    2.3077   -0.5035 N   0  0  0  0  0  0  0  0  0  0  0  0
    0.2449    1.0199   -1.2638 C   0  0  2  0  0  0  0  0  0  0  0  0
    1.5834    0.3561   -0.9023 C   0  0  0  0  0  0  0  0  0  0  0  0
    1.7300   -0.8361   -1.1341 O   0  0  0  0  0  0  0  0  0  0  0  0
    0.3933    1.7081   -2.6062 C   0  0  0  0  0  0  0  0  0  0  0  0
   -0.5319    2.8639   -2.2810 C   0  0  0  0  0  0  0  0  0  0  0  0
    0.2794    3.5706   -1.3042 C   0  0  0  0  0  0  0  0  0  0  0  0
   -0.5721    0.2927   -1.2656 H   0  0  0  0  0  0  0  0  0  0  0  0
    0.0090    1.0864   -3.4213 H   0  0  0  0  0  0  0  0  0  0  0  0
    1.4184    2.0106   -2.8550 H   0  0  0  0  0  0  0  0  0  0  0  0
   -0.6116    3.4993   -3.1687 H   0  0  0  0  0  0  0  0  0  0  0  0
   -1.5791    2.6058   -2.0353 H   0  0  0  0  0  0  0  0  0  0  0  0
    1.3401    3.7171   -1.5380 H   0  0  0  0  0  0  0  0  0  0  0  0
   -0.1735    4.5024   -0.9483 H   0  0  0  0  0  0  0  0  0  0  0  0
    2.6458    1.1375   -0.4801 N   0  0  0  0  0  0  0  0  0  0  0  0
    3.9605    0.6642   -0.0010 C   0  0  2  0  0  0  0  0  0  0  0  0
    4.8847    0.0769   -1.0933 C   0  0  0  0  0  0  0  0  0  0  0  0
    6.0440    0.4623   -1.1739 O   0  0  0  0  0  0  0  0  0  0  0  0
    3.7936   -0.3196    1.1657 C   0  0  0  0  0  0  0  0  0  0  0  0
    2.3939    2.0981   -0.2595 H   0  0  0  0  0  0  0  0  0  0  0  0
    4.4844    1.5400    0.3955 H   0  0  0  0  0  0  0  0  0  0  0  0
    3.3729   -1.2705    0.8260 H   0  0  0  0  0  0  0  0  0  0  0  0
    4.7653   -0.5222    1.6266 H   0  0  0  0  0  0  0  0  0  0  0  0
    3.1300    0.1015    1.9278 H   0  0  0  0  0  0  0  0  0  0  0  0
    4.4307   -0.8751   -1.9837 N   0  0  0  0  0  0  0  0  0  0  0  0
    5.2506   -1.4809   -3.0229 C   0  0  0  0  0  0  0  0  0  0  0  0
    3.4616   -1.1802   -1.8615 H   0  0  0  0  0  0  0  0  0  0  0  0
    5.6310   -0.7139   -3.7054 H   0  0  0  0  0  0  0  0  0  0  0  0
    6.0994   -2.0124   -2.5801 H   0  0  0  0  0  0  0  0  0  0  0  0
    4.6575   -2.1957   -3.6012 H   0  0  0  0  0  0  0  0  0  0  0  0
  1  2  2  0  0  0  0
  1  3  1  0  0  0  0
  1  7  1  0  0  0  0
  3  4  1  0  0  0  0
  3  5  1  0  0  0  0
  3  6  1  0  0  0  0
  7  8  1  0  0  0  0
  7 12  1  0  0  0  0
  8  9  1  0  0  0  0
  8 11  1  0  0  0  0
  8 13  1  0  0  0  0
  9 10  2  0  0  0  0
  9 17  1  0  0  0  0
 11 14  1  0  0  0  0
 11 15  1  0  0  0  0
 11 16  1  0  0  0  0
 17 18  1  0  0  0  0
 17 23  1  0  0  0  0
 18 19  1  0  0  0  0
 18 21  1  0  0  0  0
 18 24  1  0  0  0  0
 19 20  2  0  0  0  0
 19 31  1  0  0  0  0
 21 22  1  0  0  0  0
 21 25  1  0  0  0  0
 21 26  1  0  0  0  0
 22 23  1  0  0  0  0
 22 27  1  0  0  0  0
 22 28  1  0  0  0  0
 23 29  1  0  0  0  0
 23 30  1  0  0  0  0
 31 32  1  0  0  0  0
 31 36  1  0  0  0  0
 32 33  1  0  0  0  0
 32 35  1  0  0  0  0
 32 37  1  0  0  0  0
 33 34  2  0  0  0  0
 33 41  1  0  0  0  0
 35 38  1  0  0  0  0
 35 39  1  0  0  0  0
 35 40  1  0  0  0  0
 41 42  1  0  0  0  0
 41 43  1  0  0  0  0
 42 44  1  0  0  0  0
 42 45  1  0  0  0  0
 42 46  1  0  0  0  0
M  END
$$$$

  -OEChem-05262217223D

 46 46  0     1  0  0  0  0  0999 V2000
   -1.1035    0.9426    3.3365 C   0  0  0  0  0  0  0  0  0  0  0  0
   -0.0625    0.4546    2.9211 O   0  0  0  0  0  0  0  0  0  0  0  0
   -1.2580    1.2740    4.8086 C   0  0  0  0  0  0  0  0  0  0  0  0
   -2.1353    0.7653    5.2156 H   0  0  0  0  0  0  0  0  0  0  0  0
   -0.3732    0.9490    5.3634 H   0  0  0  0  0  0  0  0  0  0  0  0
   -1.3776    2.3528    4.9375 H   0  0  0  0  0  0  0  0  0  0  0  0
   -2.1235    1.2385    2.4544 N   0  0  0  0  0  0  0  0  0  0  0  0
   -1.9115    1.1930    1.0020 C   0  0  2  0  0  0  0  0  0  0  0  0
   -1.0756    2.4038    0.5135 C   0  0  0  0  0  0  0  0  0  0  0  0
   -1.3690    3.5147    0.9466 O   0  0  0  0  0  0  0  0  0  0  0  0
   -3.2804    1.1636    0.3190 C   0  0  0  0  0  0  0  0  0  0  0  0
   -2.8446    1.8631    2.8049 H   0  0  0  0  0  0  0  0  0  0  0  0
   -1.3871    0.2645    0.7614 H   0  0  0  0  0  0  0  0  0  0  0  0
   -3.8410    2.0772    0.5422 H   0  0  0  0  0  0  0  0  0  0  0  0
   -3.1636    1.0846   -0.7659 H   0  0  0  0  0  0  0  0  0  0  0  0
   -3.8597    0.3029    0.6676 H   0  0  0  0  0  0  0  0  0  0  0  0
   -0.0932    2.3110   -0.4815 N   0  0  0  0  0  0  0  0  0  0  0  0
    0.2505    1.0028   -1.1906 C   0  0  2  0  0  0  0  0  0  0  0  0
    1.5643    0.3419   -0.7426 C   0  0  0  0  0  0  0  0  0  0  0  0
    1.8369   -0.7768   -1.1574 O   0  0  0  0  0  0  0  0  0  0  0  0
    0.4956    1.6631   -2.5325 C   0  0  0  0  0  0  0  0  0  0  0  0
   -0.4360    2.8351   -2.2965 C   0  0  0  0  0  0  0  0  0  0  0  0
    0.3179    3.5525   -1.2815 C   0  0  0  0  0  0  0  0  0  0  0  0
   -0.5696    0.2805   -1.2331 H   0  0  0  0  0  0  0  0  0  0  0  0
    0.1629    1.0284   -3.3602 H   0  0  0  0  0  0  0  0  0  0  0  0
    1.5398    1.9486   -2.7135 H   0  0  0  0  0  0  0  0  0  0  0  0
   -0.4484    3.4523   -3.2006 H   0  0  0  0  0  0  0  0  0  0  0  0
   -1.5004    2.5926   -2.1155 H   0  0  0  0  0  0  0  0  0  0  0  0
    1.3941    3.6809   -1.4454 H   0  0  0  0  0  0  0  0  0  0  0  0
   -0.1454    4.4969   -0.9760 H   0  0  0  0  0  0  0  0  0  0  0  0
    2.4778    1.0740   -0.0041 N   0  0  0  0  0  0  0  0  0  0  0  0
    3.7401    0.5880    0.5885 C   0  0  2  0  0  0  0  0  0  0  0  0
    4.8654    0.2766   -0.4256 C   0  0  0  0  0  0  0  0  0  0  0  0
    5.9962    0.6993   -0.2216 O   0  0  0  0  0  0  0  0  0  0  0  0
    3.4848   -0.6142    1.5077 C   0  0  0  0  0  0  0  0  0  0  0  0
    2.1207    1.9650    0.3353 H   0  0  0  0  0  0  0  0  0  0  0  0
    4.1212    1.3965    1.2209 H   0  0  0  0  0  0  0  0  0  0  0  0
    3.1988   -1.4996    0.9326 H   0  0  0  0  0  0  0  0  0  0  0  0
    4.3915   -0.8530    2.0722 H   0  0  0  0  0  0  0  0  0  0  0  0
    2.6842   -0.3868    2.2186 H   0  0  0  0  0  0  0  0  0  0  0  0
    4.6279   -0.4839   -1.5531 N   0  0  0  0  0  0  0  0  0  0  0  0
    5.6582   -0.8793   -2.5027 C   0  0  0  0  0  0  0  0  0  0  0  0
    3.6810   -0.8592   -1.6500 H   0  0  0  0  0  0  0  0  0  0  0  0
    6.1569    0.0034   -2.9166 H   0  0  0  0  0  0  0  0  0  0  0  0
    6.4069   -1.5111   -2.0134 H   0  0  0  0  0  0  0  0  0  0  0  0
    5.2131   -1.4434   -3.3279 H   0  0  0  0  0  0  0  0  0  0  0  0
  1  2  2  0  0  0  0
  1  3  1  0  0  0  0
  1  7  1  0  0  0  0
  3  4  1  0  0  0  0
  3  5  1  0  0  0  0
  3  6  1  0  0  0  0
  7  8  1  0  0  0  0
  7 12  1  0  0  0  0
  8  9  1  0  0  0  0
  8 11  1  0  0  0  0
  8 13  1  0  0  0  0
  9 10  2  0  0  0  0
  9 17  1  0  0  0  0
 11 14  1  0  0  0  0
 11 15  1  0  0  0  0
 11 16  1  0  0  0  0
 17 18  1  0  0  0  0
 17 23  1  0  0  0  0
 18 19  1  0  0  0  0
 18 21  1  0  0  0  0
 18 24  1  0  0  0  0
 19 20  2  0  0  0  0
 19 31  1  0  0  0  0
 21 22  1  0  0  0  0
 21 25  1  0  0  0  0
 21 26  1  0  0  0  0
 22 23  1  0  0  0  0
 22 27  1  0  0  0  0
 22 28  1  0  0  0  0
 23 29  1  0  0  0  0
 23 30  1  0  0  0  0
 31 32  1  0  0  0  0
 31 36  1  0  0  0  0
 32 33  1  0  0  0  0
 32 35  1  0  0  0  0
 32 37  1  0  0  0  0
 33 34  2  0  0  0  0
 33 41  1  0  0  0  0
 35 38  1  0  0  0  0
 35 39  1  0  0  0  0
 35 40  1  0  0  0  0
 41 42  1  0  0  0  0
 41 43  1  0  0  0  0
 42 44  1  0  0  0  0
 42 45  1  0  0  0  0
 42 46  1  0  0  0  0
M  END
$$$$

  -OEChem-05262217223D

 46 46  0     1  0  0  0  0  0999 V2000
   -1.2009    1.0041    3.3042 C   0  0  0  0  0  0  0  0  0  0  0  0
   -0.1452    0.5502    2.8859 O   0  0  0  0  0  0  0  0  0  0  0  0
   -1.3674    1.3248    4.7773 C   0  0  0  0  0  0  0  0  0  0  0  0
   -2.2462    0.8109    5.1744 H   0  0  0  0  0  0  0  0  0  0  0  0
   -0.4860    0.9994    5.3372 H   0  0  0  0  0  0  0  0  0  0  0  0
   -1.4922    2.4022    4.9114 H   0  0  0  0  0  0  0  0  0  0  0  0
   -2.2274    1.2748    2.4216 N   0  0  0  0  0  0  0  0  0  0  0  0
   -2.0092    1.2358    0.9703 C   0  0  2  0  0  0  0  0  0  0  0  0
   -1.1379    2.4291    0.5009 C   0  0  0  0  0  0  0  0  0  0  0  0
   -1.4329    3.5481    0.9110 O   0  0  0  0  0  0  0  0  0  0  0  0
   -3.3717    1.2470    0.2740 C   0  0  0  0  0  0  0  0  0  0  0  0
   -2.9639    1.8815    2.7716 H   0  0  0  0  0  0  0  0  0  0  0  0
   -1.5086    0.2951    0.7286 H   0  0  0  0  0  0  0  0  0  0  0  0
   -3.9124    2.1720    0.5002 H   0  0  0  0  0  0  0  0  0  0  0  0
   -3.2455    1.1755   -0.8105 H   0  0  0  0  0  0  0  0  0  0  0  0
   -3.9758    0.3980    0.6086 H   0  0  0  0  0  0  0  0  0  0  0  0
   -0.1110    2.3096   -0.4448 N   0  0  0  0  0  0  0  0  0  0  0  0
    0.2549    0.9876   -1.1175 C   0  0  2  0  0  0  0  0  0  0  0  0
    1.5403    0.3167   -0.6023 C   0  0  0  0  0  0  0  0  0  0  0  0
    1.9482   -0.6958   -1.1568 O   0  0  0  0  0  0  0  0  0  0  0  0
    0.5769    1.6323   -2.4511 C   0  0  0  0  0  0  0  0  0  0  0  0
   -0.3518    2.8173   -2.2799 C   0  0  0  0  0  0  0  0  0  0  0  0
    0.3579    3.5364   -1.2340 C   0  0  0  0  0  0  0  0  0  0  0  0
   -0.5688    0.2732   -1.1959 H   0  0  0  0  0  0  0  0  0  0  0  0
    0.2817    0.9915   -3.2882 H   0  0  0  0  0  0  0  0  0  0  0  0
    1.6327    1.9043   -2.5798 H   0  0  0  0  0  0  0  0  0  0  0  0
   -0.3073    3.4234   -3.1902 H   0  0  0  0  0  0  0  0  0  0  0  0
   -1.4273    2.5903   -2.1526 H   0  0  0  0  0  0  0  0  0  0  0  0
    1.4431    3.6497   -1.3408 H   0  0  0  0  0  0  0  0  0  0  0  0
   -0.1087    4.4894   -0.9625 H   0  0  0  0  0  0  0  0  0  0  0  0
    2.2690    0.9222    0.4062 N   0  0  0  0  0  0  0  0  0  0  0  0
    3.4591    0.3859    1.0963 C   0  0  2  0  0  0  0  0  0  0  0  0
    4.7454    0.3192    0.2390 C   0  0  0  0  0  0  0  0  0  0  0  0
    5.7983    0.7480    0.6940 O   0  0  0  0  0  0  0  0  0  0  0  0
    3.1525   -0.9765    1.7328 C   0  0  0  0  0  0  0  0  0  0  0  0
    1.7995    1.7121    0.8457 H   0  0  0  0  0  0  0  0  0  0  0  0
    3.6812    1.0763    1.9164 H   0  0  0  0  0  0  0  0  0  0  0  0
    3.0063   -1.7473    0.9706 H   0  0  0  0  0  0  0  0  0  0  0  0
    3.9827   -1.2848    2.3757 H   0  0  0  0  0  0  0  0  0  0  0  0
    2.2469   -0.9141    2.3444 H   0  0  0  0  0  0  0  0  0  0  0  0
    4.7397   -0.2293   -1.0281 N   0  0  0  0  0  0  0  0  0  0  0  0
    5.9226   -0.3650   -1.8663 C   0  0  0  0  0  0  0  0  0  0  0  0
    3.8457   -0.6091   -1.3493 H   0  0  0  0  0  0  0  0  0  0  0  0
    6.3548    0.6179   -2.0807 H   0  0  0  0  0  0  0  0  0  0  0  0
    6.6773   -0.9815   -1.3668 H   0  0  0  0  0  0  0  0  0  0  0  0
    5.6589   -0.8417   -2.8149 H   0  0  0  0  0  0  0  0  0  0  0  0
  1  2  2  0  0  0  0
  1  3  1  0  0  0  0
  1  7  1  0  0  0  0
  3  4  1  0  0  0  0
  3  5  1  0  0  0  0
  3  6  1  0  0  0  0
  7  8  1  0  0  0  0
  7 12  1  0  0  0  0
  8  9  1  0  0  0  0
  8 11  1  0  0  0  0
  8 13  1  0  0  0  0
  9 10  2  0  0  0  0
  9 17  1  0  0  0  0
 11 14  1  0  0  0  0
 11 15  1  0  0  0  0
 11 16  1  0  0  0  0
 17 18  1  0  0  0  0
 17 23  1  0  0  0  0
 18 19  1  0  0  0  0
 18 21  1  0  0  0  0
 18 24  1  0  0  0  0
 19 20  2  0  0  0  0
 19 31  1  0  0  0  0
 21 22  1  0  0  0  0
 21 25  1  0  0  0  0
 21 26  1  0  0  0  0
 22 23  1  0  0  0  0
 22 27  1  0  0  0  0
 22 28  1  0  0  0  0
 23 29  1  0  0  0  0
 23 30  1  0  0  0  0
 31 32  1  0  0  0  0
 31 36  1  0  0  0  0
 32 33  1  0  0  0  0
 32 35  1  0  0  0  0
 32 37  1  0  0  0  0
 33 34  2  0  0  0  0
 33 41  1  0  0  0  0
 35 38  1  0  0  0  0
 35 39  1  0  0  0  0
 35 40  1  0  0  0  0
 41 42  1  0  0  0  0
 41 43  1  0  0  0  0
 42 44  1  0  0  0  0
 42 45  1  0  0  0  0
 42 46  1  0  0  0  0
M  END
$$$$

  -OEChem-05262217223D

 46 46  0     1  0  0  0  0  0999 V2000
   -1.2644    1.0903    3.2439 C   0  0  0  0  0  0  0  0  0  0  0  0
   -0.2023    0.6761    2.7994 O   0  0  0  0  0  0  0  0  0  0  0  0
   -1.4094    1.3886    4.7237 C   0  0  0  0  0  0  0  0  0  0  0  0
   -2.2563    0.8346    5.1358 H   0  0  0  0  0  0  0  0  0  0  0  0
   -0.5020    1.0938    5.2587 H   0  0  0  0  0  0  0  0  0  0  0  0
   -1.5743    2.4587    4.8735 H   0  0  0  0  0  0  0  0  0  0  0  0
   -2.3128    1.3407    2.3808 N   0  0  0  0  0  0  0  0  0  0  0  0
   -2.1189    1.3138    0.9256 C   0  0  2  0  0  0  0  0  0  0  0  0
   -1.1927    2.4701    0.4674 C   0  0  0  0  0  0  0  0  0  0  0  0
   -1.4780    3.6051    0.8383 O   0  0  0  0  0  0  0  0  0  0  0  0
   -3.4886    1.4044    0.2489 C   0  0  0  0  0  0  0  0  0  0  0  0
   -3.0633    1.9199    2.7478 H   0  0  0  0  0  0  0  0  0  0  0  0
   -1.6720    0.3524    0.6641 H   0  0  0  0  0  0  0  0  0  0  0  0
   -3.9827    2.3480    0.5027 H   0  0  0  0  0  0  0  0  0  0  0  0
   -3.3793    1.3517   -0.8387 H   0  0  0  0  0  0  0  0  0  0  0  0
   -4.1274    0.5770    0.5732 H   0  0  0  0  0  0  0  0  0  0  0  0
   -0.1254    2.2993   -0.4243 N   0  0  0  0  0  0  0  0  0  0  0  0
    0.2425    0.9545   -1.0504 C   0  0  2  0  0  0  0  0  0  0  0  0
    1.4860    0.2566   -0.4640 C   0  0  0  0  0  0  0  0  0  0  0  0
    2.0463   -0.6169   -1.1153 O   0  0  0  0  0  0  0  0  0  0  0  0
    0.6394    1.5675   -2.3807 C   0  0  0  0  0  0  0  0  0  0  0  0
   -0.2688    2.7755   -2.2796 C   0  0  0  0  0  0  0  0  0  0  0  0
    0.4117    3.4969   -1.2150 C   0  0  0  0  0  0  0  0  0  0  0  0
   -0.5936    0.2590   -1.1568 H   0  0  0  0  0  0  0  0  0  0  0  0
    0.3701    0.9165   -3.2186 H   0  0  0  0  0  0  0  0  0  0  0  0
    1.7059    1.8140   -2.4658 H   0  0  0  0  0  0  0  0  0  0  0  0
   -0.1680    3.3609   -3.1990 H   0  0  0  0  0  0  0  0  0  0  0  0
   -1.3540    2.5753   -2.1971 H   0  0  0  0  0  0  0  0  0  0  0  0
    1.5034    3.5795   -1.2712 H   0  0  0  0  0  0  0  0  0  0  0  0
   -0.0395    4.4679   -0.9846 H   0  0  0  0  0  0  0  0  0  0  0  0
    2.0049    0.6770    0.7484 N   0  0  0  0  0  0  0  0  0  0  0  0
    3.1023    0.0517    1.5142 C   0  0  2  0  0  0  0  0  0  0  0  0
    4.5142    0.1825    0.8952 C   0  0  0  0  0  0  0  0  0  0  0  0
    5.4741    0.4016    1.6236 O   0  0  0  0  0  0  0  0  0  0  0  0
    2.7777   -1.4138    1.8317 C   0  0  0  0  0  0  0  0  0  0  0  0
    1.3756    1.2771    1.2845 H   0  0  0  0  0  0  0  0  0  0  0  0
    3.1489    0.5819    2.4711 H   0  0  0  0  0  0  0  0  0  0  0  0
    2.7996   -2.0293    0.9279 H   0  0  0  0  0  0  0  0  0  0  0  0
    3.5125   -1.8157    2.5364 H   0  0  0  0  0  0  0  0  0  0  0  0
    1.7850   -1.4917    2.2856 H   0  0  0  0  0  0  0  0  0  0  0  0
    4.7275    0.0232   -0.4597 N   0  0  0  0  0  0  0  0  0  0  0  0
    6.0435    0.0295   -1.0826 C   0  0  0  0  0  0  0  0  0  0  0  0
    3.9155   -0.2778   -1.0036 H   0  0  0  0  0  0  0  0  0  0  0  0
    6.5696    0.9629   -0.8565 H   0  0  0  0  0  0  0  0  0  0  0  0
    6.6427   -0.8111   -0.7179 H   0  0  0  0  0  0  0  0  0  0  0  0
    5.9466   -0.0562   -2.1691 H   0  0  0  0  0  0  0  0  0  0  0  0
  1  2  2  0  0  0  0
  1  3  1  0  0  0  0
  1  7  1  0  0  0  0
  3  4  1  0  0  0  0
  3  5  1  0  0  0  0
  3  6  1  0  0  0  0
  7  8  1  0  0  0  0
  7 12  1  0  0  0  0
  8  9  1  0  0  0  0
  8 11  1  0  0  0  0
  8 13  1  0  0  0  0
  9 10  2  0  0  0  0
  9 17  1  0  0  0  0
 11 14  1  0  0  0  0
 11 15  1  0  0  0  0
 11 16  1  0  0  0  0
 17 18  1  0  0  0  0
 17 23  1  0  0  0  0
 18 19  1  0  0  0  0
 18 21  1  0  0  0  0
 18 24  1  0  0  0  0
 19 20  2  0  0  0  0
 19 31  1  0  0  0  0
 21 22  1  0  0  0  0
 21 25  1  0  0  0  0
 21 26  1  0  0  0  0
 22 23  1  0  0  0  0
 22 27  1  0  0  0  0
 22 28  1  0  0  0  0
 23 29  1  0  0  0  0
 23 30  1  0  0  0  0
 31 32  1  0  0  0  0
 31 36  1  0  0  0  0
 32 33  1  0  0  0  0
 32 35  1  0  0  0  0
 32 37  1  0  0  0  0
 33 34  2  0  0  0  0
 33 41  1  0  0  0  0
 35 38  1  0  0  0  0
 35 39  1  0  0  0  0
 35 40  1  0  0  0  0
 41 42  1  0  0  0  0
 41 43  1  0  0  0  0
 42 44  1  0  0  0  0
 42 45  1  0  0  0  0
 42 46  1  0  0  0  0
M  END
$$$$

  -OEChem-05262217223D

 46 46  0     1  0  0  0  0  0999 V2000
   -1.4987    1.1358    3.2946 C   0  0  0  0  0  0  0  0  0  0  0  0
   -0.4424    0.6429    2.9221 O   0  0  0  0  0  0  0  0  0  0  0  0
   -1.7115    1.4754    4.7572 C   0  0  0  0  0  0  0  0  0  0  0  0
   -2.6022    0.9668    5.1336 H   0  0  0  0  0  0  0  0  0  0  0  0
   -0.8477    1.1573    5.3479 H   0  0  0  0  0  0  0  0  0  0  0  0
   -1.8389    2.5545    4.8742 H   0  0  0  0  0  0  0  0  0  0  0  0
   -2.4714    1.4372    2.3623 N   0  0  0  0  0  0  0  0  0  0  0  0
   -2.1764    1.3938    0.9244 C   0  0  2  0  0  0  0  0  0  0  0  0
   -1.1799    2.5126    0.5230 C   0  0  0  0  0  0  0  0  0  0  0  0
   -1.4289    3.6531    0.9029 O   0  0  0  0  0  0  0  0  0  0  0  0
   -3.4901    1.5339    0.1514 C   0  0  0  0  0  0  0  0  0  0  0  0
   -3.2036    2.0692    2.6745 H   0  0  0  0  0  0  0  0  0  0  0  0
   -1.7485    0.4148    0.6978 H   0  0  0  0  0  0  0  0  0  0  0  0
   -3.9604    2.5000    0.3622 H   0  0  0  0  0  0  0  0  0  0  0  0
   -3.3058    1.4660   -0.9250 H   0  0  0  0  0  0  0  0  0  0  0  0
   -4.1855    0.7375    0.4342 H   0  0  0  0  0  0  0  0  0  0  0  0
   -0.0924    2.3061   -0.3365 N   0  0  0  0  0  0  0  0  0  0  0  0
    0.2275    0.9557   -0.9764 C   0  0  2  0  0  0  0  0  0  0  0  0
    1.4172    0.1860   -0.3617 C   0  0  0  0  0  0  0  0  0  0  0  0
    2.0864   -0.5605   -1.0668 O   0  0  0  0  0  0  0  0  0  0  0  0
    0.6856    1.5764   -2.2852 C   0  0  0  0  0  0  0  0  0  0  0  0
   -0.1668    2.8240   -2.1846 C   0  0  0  0  0  0  0  0  0  0  0  0
    0.5209    3.4911   -1.0893 C   0  0  0  0  0  0  0  0  0  0  0  0
   -0.6388    0.3047   -1.1174 H   0  0  0  0  0  0  0  0  0  0  0  0
    0.4085    0.9541   -3.1422 H   0  0  0  0  0  0  0  0  0  0  0  0
    1.7635    1.7768   -2.3412 H   0  0  0  0  0  0  0  0  0  0  0  0
   -0.0143    3.4209   -3.0893 H   0  0  0  0  0  0  0  0  0  0  0  0
   -1.2616    2.6746   -2.1331 H   0  0  0  0  0  0  0  0  0  0  0  0
    1.6164    3.5226   -1.1169 H   0  0  0  0  0  0  0  0  0  0  0  0
    0.1106    4.4779   -0.8501 H   0  0  0  0  0  0  0  0  0  0  0  0
    1.7235    0.3391    0.9801 N   0  0  0  0  0  0  0  0  0  0  0  0
    2.7550   -0.3784    1.7558 C   0  0  2  0  0  0  0  0  0  0  0  0
    4.2195   -0.0649    1.3684 C   0  0  0  0  0  0  0  0  0  0  0  0
    5.0373    0.1910    2.2434 O   0  0  0  0  0  0  0  0  0  0  0  0
    2.4970   -1.8903    1.7404 C   0  0  0  0  0  0  0  0  0  0  0  0
    1.0305    0.8531    1.5308 H   0  0  0  0  0  0  0  0  0  0  0  0
    2.6437   -0.0471    2.7938 H   0  0  0  0  0  0  0  0  0  0  0  0
    2.6754   -2.3131    0.7477 H   0  0  0  0  0  0  0  0  0  0  0  0
    3.1635   -2.3909    2.4497 H   0  0  0  0  0  0  0  0  0  0  0  0
    1.4631   -2.0999    2.0301 H   0  0  0  0  0  0  0  0  0  0  0  0
    4.6401   -0.1080    0.0540 N   0  0  0  0  0  0  0  0  0  0  0  0
    6.0093    0.1335   -0.3776 C   0  0  0  0  0  0  0  0  0  0  0  0
    3.9281   -0.3561   -0.6371 H   0  0  0  0  0  0  0  0  0  0  0  0
    6.3012    1.1661   -0.1617 H   0  0  0  0  0  0  0  0  0  0  0  0
    6.6989   -0.5438    0.1368 H   0  0  0  0  0  0  0  0  0  0  0  0
    6.0999   -0.0346   -1.4549 H   0  0  0  0  0  0  0  0  0  0  0  0
  1  2  2  0  0  0  0
  1  3  1  0  0  0  0
  1  7  1  0  0  0  0
  3  4  1  0  0  0  0
  3  5  1  0  0  0  0
  3  6  1  0  0  0  0
  7  8  1  0  0  0  0
  7 12  1  0  0  0  0
  8  9  1  0  0  0  0
  8 11  1  0  0  0  0
  8 13  1  0  0  0  0
  9 10  2  0  0  0  0
  9 17  1  0  0  0  0
 11 14  1  0  0  0  0
 11 15  1  0  0  0  0
 11 16  1  0  0  0  0
 17 18  1  0  0  0  0
 17 23  1  0  0  0  0
 18 19  1  0  0  0  0
 18 21  1  0  0  0  0
 18 24  1  0  0  0  0
 19 20  2  0  0  0  0
 19 31  1  0  0  0  0
 21 22  1  0  0  0  0
 21 25  1  0  0  0  0
 21 26  1  0  0  0  0
 22 23  1  0  0  0  0
 22 27  1  0  0  0  0
 22 28  1  0  0  0  0
 23 29  1  0  0  0  0
 23 30  1  0  0  0  0
 31 32  1  0  0  0  0
 31 36  1  0  0  0  0
 32 33  1  0  0  0  0
 32 35  1  0  0  0  0
 32 37  1  0  0  0  0
 33 34  2  0  0  0  0
 33 41  1  0  0  0  0
 35 38  1  0  0  0  0
 35 39  1  0  0  0  0
 35 40  1  0  0  0  0
 41 42  1  0  0  0  0
 41 43  1  0  0  0  0
 42 44  1  0  0  0  0
 42 45  1  0  0  0  0
 42 46  1  0  0  0  0
M  END
$$$$

  -OEChem-05262217223D

 46 46  0     1  0  0  0  0  0999 V2000
   -1.6715    1.1549    3.3245 C   0  0  0  0  0  0  0  0  0  0  0  0
   -0.6604    0.5476    3.0001 O   0  0  0  0  0  0  0  0  0  0  0  0
   -1.9066    1.5374    4.7731 C   0  0  0  0  0  0  0  0  0  0  0  0
   -2.8592    1.1283    5.1182 H   0  0  0  0  0  0  0  0  0  0  0  0
   -1.1043    1.1421    5.4027 H   0  0  0  0  0  0  0  0  0  0  0  0
   -1.9275    2.6257    4.8722 H   0  0  0  0  0  0  0  0  0  0  0  0
   -2.5670    1.5419    2.3485 N   0  0  0  0  0  0  0  0  0  0  0  0
   -2.2175    1.4568    0.9245 C   0  0  2  0  0  0  0  0  0  0  0  0
   -1.1791    2.5424    0.5371 C   0  0  0  0  0  0  0  0  0  0  0  0
   -1.4022    3.6916    0.9071 O   0  0  0  0  0  0  0  0  0  0  0  0
   -3.5001    1.6105    0.1041 C   0  0  0  0  0  0  0  0  0  0  0  0
   -3.2400    2.2528    2.6237 H   0  0  0  0  0  0  0  0  0  0  0  0
   -1.8070    0.4631    0.7308 H   0  0  0  0  0  0  0  0  0  0  0  0
   -3.9579    2.5885    0.2858 H   0  0  0  0  0  0  0  0  0  0  0  0
   -3.2818    1.5232   -0.9645 H   0  0  0  0  0  0  0  0  0  0  0  0
   -4.2198    0.8316    0.3749 H   0  0  0  0  0  0  0  0  0  0  0  0
   -0.0836    2.3009   -0.3041 N   0  0  0  0  0  0  0  0  0  0  0  0
    0.2018    0.9384   -0.9340 C   0  0  2  0  0  0  0  0  0  0  0  0
    1.3583    0.1361   -0.2929 C   0  0  0  0  0  0  0  0  0  0  0  0
    2.1447   -0.4865   -0.9978 O   0  0  0  0  0  0  0  0  0  0  0  0
    0.6801    1.5404   -2.2464 C   0  0  0  0  0  0  0  0  0  0  0  0
   -0.1391    2.8106   -2.1559 C   0  0  0  0  0  0  0  0  0  0  0  0
    0.5636    3.4647   -1.0621 C   0  0  0  0  0  0  0  0  0  0  0  0
   -0.6824    0.3123   -1.0772 H   0  0  0  0  0  0  0  0  0  0  0  0
    0.3892    0.9207   -3.1006 H   0  0  0  0  0  0  0  0  0  0  0  0
    1.7625    1.7154   -2.3031 H   0  0  0  0  0  0  0  0  0  0  0  0
    0.0318    3.3977   -3.0635 H   0  0  0  0  0  0  0  0  0  0  0  0
   -1.2375    2.6903   -2.1074 H   0  0  0  0  0  0  0  0  0  0  0  0
    1.6596    3.4656   -1.0861 H   0  0  0  0  0  0  0  0  0  0  0  0
    0.1806    4.4640   -0.8294 H   0  0  0  0  0  0  0  0  0  0  0  0
    1.4532    0.0453    1.0862 N   0  0  0  0  0  0  0  0  0  0  0  0
    2.3728   -0.7992    1.8752 C   0  0  2  0  0  0  0  0  0  0  0  0
    3.8734   -0.4323    1.7835 C   0  0  0  0  0  0  0  0  0  0  0  0
    4.5646   -0.4616    2.7942 O   0  0  0  0  0  0  0  0  0  0  0  0
    2.1552   -2.2848    1.5601 C   0  0  0  0  0  0  0  0  0  0  0  0
    0.7159    0.5139    1.6206 H   0  0  0  0  0  0  0  0  0  0  0  0
    2.0950   -0.6527    2.9245 H   0  0  0  0  0  0  0  0  0  0  0  0
    2.4990   -2.5300    0.5511 H   0  0  0  0  0  0  0  0  0  0  0  0
    2.7128   -2.9032    2.2706 H   0  0  0  0  0  0  0  0  0  0  0  0
    1.0937   -2.5379    1.6410 H   0  0  0  0  0  0  0  0  0  0  0  0
    4.4723   -0.1334    0.5754 N   0  0  0  0  0  0  0  0  0  0  0  0
    5.9041    0.0708    0.4068 C   0  0  0  0  0  0  0  0  0  0  0  0
    3.8801   -0.2411   -0.2515 H   0  0  0  0  0  0  0  0  0  0  0  0
    6.2522    0.8890    1.0459 H   0  0  0  0  0  0  0  0  0  0  0  0
    6.4534   -0.8396    0.6681 H   0  0  0  0  0  0  0  0  0  0  0  0
    6.1281    0.3256   -0.6335 H   0  0  0  0  0  0  0  0  0  0  0  0
  1  2  2  0  0  0  0
  1  3  1  0  0  0  0
  1  7  1  0  0  0  0
  3  4  1  0  0  0  0
  3  5  1  0  0  0  0
  3  6  1  0  0  0  0
  7  8  1  0  0  0  0
  7 12  1  0  0  0  0
  8  9  1  0  0  0  0
  8 11  1  0  0  0  0
  8 13  1  0  0  0  0
  9 10  2  0  0  0  0
  9 17  1  0  0  0  0
 11 14  1  0  0  0  0
 11 15  1  0  0  0  0
 11 16  1  0  0  0  0
 17 18  1  0  0  0  0
 17 23  1  0  0  0  0
 18 19  1  0  0  0  0
 18 21  1  0  0  0  0
 18 24  1  0  0  0  0
 19 20  2  0  0  0  0
 19 31  1  0  0  0  0
 21 22  1  0  0  0  0
 21 25  1  0  0  0  0
 21 26  1  0  0  0  0
 22 23  1  0  0  0  0
 22 27  1  0  0  0  0
 22 28  1  0  0  0  0
 23 29  1  0  0  0  0
 23 30  1  0  0  0  0
 31 32  1  0  0  0  0
 31 36  1  0  0  0  0
 32 33  1  0  0  0  0
 32 35  1  0  0  0  0
 32 37  1  0  0  0  0
 33 34  2  0  0  0  0
 33 41  1  0  0  0  0
 35 38  1  0  0  0  0
 35 39  1  0  0  0  0
 35 40  1  0  0  0  0
 41 42  1  0  0  0  0
 41 43  1  0  0  0  0
 42 44  1  0  0  0  0
 42 45  1  0  0  0  0
 42 46  1  0  0  0  0
M  END
$$$$

  -OEChem-05262217223D

 46 46  0     1  0  0  0  0  0999 V2000
   -1.8431    1.1263    3.3076 C   0  0  0  0  0  0  0  0  0  0  0  0
   -0.9613    0.3422    2.9860 O   0  0  0  0  0  0  0  0  0  0  0  0
   -2.0610    1.4828    4.7657 C   0  0  0  0  0  0  0  0  0  0  0  0
   -3.0741    1.2083    5.0700 H   0  0  0  0  0  0  0  0  0  0  0  0
   -1.3459    0.9464    5.3961 H   0  0  0  0  0  0  0  0  0  0  0  0
   -1.9218    2.5568    4.9128 H   0  0  0  0  0  0  0  0  0  0  0  0
   -2.6090    1.7173    2.3242 N   0  0  0  0  0  0  0  0  0  0  0  0
   -2.2510    1.6073    0.9041 C   0  0  2  0  0  0  0  0  0  0  0  0
   -1.1182    2.5980    0.5307 C   0  0  0  0  0  0  0  0  0  0  0  0
   -1.2502    3.7620    0.8980 O   0  0  0  0  0  0  0  0  0  0  0  0
   -3.5067    1.8799    0.0725 C   0  0  0  0  0  0  0  0  0  0  0  0
   -3.1367    2.5387    2.6095 H   0  0  0  0  0  0  0  0  0  0  0  0
   -1.9323    0.5826    0.7022 H   0  0  0  0  0  0  0  0  0  0  0  0
   -3.8719    2.8974    0.2468 H   0  0  0  0  0  0  0  0  0  0  0  0
   -3.2891    1.7678   -0.9940 H   0  0  0  0  0  0  0  0  0  0  0  0
   -4.2993    1.1741    0.3397 H   0  0  0  0  0  0  0  0  0  0  0  0
   -0.0307    2.2634   -0.2901 N   0  0  0  0  0  0  0  0  0  0  0  0
    0.1553    0.8791   -0.9111 C   0  0  2  0  0  0  0  0  0  0  0  0
    1.2357   -0.0077   -0.2415 C   0  0  0  0  0  0  0  0  0  0  0  0
    2.1387   -0.5090   -0.9027 O   0  0  0  0  0  0  0  0  0  0  0  0
    0.6806    1.4356   -2.2279 C   0  0  0  0  0  0  0  0  0  0  0  0
   -0.0427    2.7621   -2.1477 C   0  0  0  0  0  0  0  0  0  0  0  0
    0.7038    3.3698   -1.0556 C   0  0  0  0  0  0  0  0  0  0  0  0
   -0.7733    0.3216   -1.0578 H   0  0  0  0  0  0  0  0  0  0  0  0
    0.3471    0.8320   -3.0777 H   0  0  0  0  0  0  0  0  0  0  0  0
    1.7717    1.5363   -2.2875 H   0  0  0  0  0  0  0  0  0  0  0  0
    0.1744    3.3290   -3.0585 H   0  0  0  0  0  0  0  0  0  0  0  0
   -1.1469    2.7232   -2.1029 H   0  0  0  0  0  0  0  0  0  0  0  0
    1.7968    3.2897   -1.0760 H   0  0  0  0  0  0  0  0  0  0  0  0
    0.3958    4.3967   -0.8319 H   0  0  0  0  0  0  0  0  0  0  0  0
    1.1144   -0.3463    1.0969 N   0  0  0  0  0  0  0  0  0  0  0  0
    1.9457   -1.2923    1.8704 C   0  0  2  0  0  0  0  0  0  0  0  0
    3.4189   -0.8712    2.0852 C   0  0  0  0  0  0  0  0  0  0  0  0
    3.9372   -1.0248    3.1841 O   0  0  0  0  0  0  0  0  0  0  0  0
    1.8649   -2.7055    1.2783 C   0  0  0  0  0  0  0  0  0  0  0  0
    0.3456    0.0914    1.6132 H   0  0  0  0  0  0  0  0  0  0  0  0
    1.5021   -1.3406    2.8708 H   0  0  0  0  0  0  0  0  0  0  0  0
    2.3785   -2.7620    0.3142 H   0  0  0  0  0  0  0  0  0  0  0  0
    2.3367   -3.4223    1.9577 H   0  0  0  0  0  0  0  0  0  0  0  0
    0.8203   -2.9981    1.1365 H   0  0  0  0  0  0  0  0  0  0  0  0
    4.1856   -0.3752    1.0494 N   0  0  0  0  0  0  0  0  0  0  0  0
    5.6017   -0.0564    1.1621 C   0  0  0  0  0  0  0  0  0  0  0  0
    3.7354   -0.3552    0.1313 H   0  0  0  0  0  0  0  0  0  0  0  0
    5.7635    0.6941    1.9426 H   0  0  0  0  0  0  0  0  0  0  0  0
    6.1776   -0.9540    1.4097 H   0  0  0  0  0  0  0  0  0  0  0  0
    5.9739    0.3450    0.2149 H   0  0  0  0  0  0  0  0  0  0  0  0
  1  2  2  0  0  0  0
  1  3  1  0  0  0  0
  1  7  1  0  0  0  0
  3  4  1  0  0  0  0
  3  5  1  0  0  0  0
  3  6  1  0  0  0  0
  7  8  1  0  0  0  0
  7 12  1  0  0  0  0
  8  9  1  0  0  0  0
  8 11  1  0  0  0  0
  8 13  1  0  0  0  0
  9 10  2  0  0  0  0
  9 17  1  0  0  0  0
 11 14  1  0  0  0  0
 11 15  1  0  0  0  0
 11 16  1  0  0  0  0
 17 18  1  0  0  0  0
 17 23  1  0  0  0  0
 18 19  1  0  0  0  0
 18 21  1  0  0  0  0
 18 24  1  0  0  0  0
 19 20  2  0  0  0  0
 19 31  1  0  0  0  0
 21 22  1  0  0  0  0
 21 25  1  0  0  0  0
 21 26  1  0  0  0  0
 22 23  1  0  0  0  0
 22 27  1  0  0  0  0
 22 28  1  0  0  0  0
 23 29  1  0  0  0  0
 23 30  1  0  0  0  0
 31 32  1  0  0  0  0
 31 36  1  0  0  0  0
 32 33  1  0  0  0  0
 32 35  1  0  0  0  0
 32 37  1  0  0  0  0
 33 34  2  0  0  0  0
 33 41  1  0  0  0  0
 35 38  1  0  0  0  0
 35 39  1  0  0  0  0
 35 40  1  0  0  0  0
 41 42  1  0  0  0  0
 41 43  1  0  0  0  0
 42 44  1  0  0  0  0
 42 45  1  0  0  0  0
 42 46  1  0  0  0  0
M  END
$$$$

  -OEChem-05262217223D

 46 46  0     1  0  0  0  0  0999 V2000
   -1.7818    1.4093    3.2381 C   0  0  0  0  0  0  0  0  0  0  0  0
   -1.0539    0.5450    2.7780 O   0  0  0  0  0  0  0  0  0  0  0  0
   -1.8336    1.6375    4.7366 C   0  0  0  0  0  0  0  0  0  0  0  0
   -2.8457    1.4588    5.1076 H   0  0  0  0  0  0  0  0  0  0  0  0
   -1.1464    0.9556    5.2462 H   0  0  0  0  0  0  0  0  0  0  0  0
   -1.5429    2.6652    4.9686 H   0  0  0  0  0  0  0  0  0  0  0  0
   -2.5428    2.1919    2.3934 N   0  0  0  0  0  0  0  0  0  0  0  0
   -2.3862    2.2288    0.9271 C   0  0  2  0  0  0  0  0  0  0  0  0
   -1.0113    2.8511    0.5185 C   0  0  0  0  0  0  0  0  0  0  0  0
   -0.8699    3.9950    0.9419 O   0  0  0  0  0  0  0  0  0  0  0  0
   -2.8452    0.8929    0.3246 C   0  0  0  0  0  0  0  0  0  0  0  0
   -2.9700    3.0056    2.8282 H   0  0  0  0  0  0  0  0  0  0  0  0
   -3.1185    2.9551    0.5595 H   0  0  0  0  0  0  0  0  0  0  0  0
   -3.8155    0.6122    0.7462 H   0  0  0  0  0  0  0  0  0  0  0  0
   -2.9708    0.9887   -0.7576 H   0  0  0  0  0  0  0  0  0  0  0  0
   -2.1435    0.0841    0.5388 H   0  0  0  0  0  0  0  0  0  0  0  0
    0.0297    2.3412   -0.2903 N   0  0  0  0  0  0  0  0  0  0  0  0
    0.0595    0.9831   -0.9980 C   0  0  2  0  0  0  0  0  0  0  0  0
    0.9728   -0.0860   -0.3364 C   0  0  0  0  0  0  0  0  0  0  0  0
    1.9826   -0.5034   -0.8934 O   0  0  0  0  0  0  0  0  0  0  0  0
    0.7164    1.5279   -2.2609 C   0  0  0  0  0  0  0  0  0  0  0  0
    0.1814    2.9325   -2.1275 C   0  0  0  0  0  0  0  0  0  0  0  0
    0.9645    3.3541   -0.9726 C   0  0  0  0  0  0  0  0  0  0  0  0
   -0.9123    0.5626   -1.2404 H   0  0  0  0  0  0  0  0  0  0  0  0
    0.3357    1.0250   -3.1553 H   0  0  0  0  0  0  0  0  0  0  0  0
    1.8121    1.4814   -2.2880 H   0  0  0  0  0  0  0  0  0  0  0  0
    0.5137    3.5153   -2.9923 H   0  0  0  0  0  0  0  0  0  0  0  0
   -0.9185    3.0478   -2.1191 H   0  0  0  0  0  0  0  0  0  0  0  0
    2.0313    3.1017   -0.9527 H   0  0  0  0  0  0  0  0  0  0  0  0
    0.8213    4.4093   -0.7176 H   0  0  0  0  0  0  0  0  0  0  0  0
    0.5622   -0.7086    0.8295 N   0  0  0  0  0  0  0  0  0  0  0  0
    1.2212   -1.8220    1.5447 C   0  0  2  0  0  0  0  0  0  0  0  0
    2.6007   -1.4933    2.1629 C   0  0  0  0  0  0  0  0  0  0  0  0
    2.8864   -1.9283    3.2718 O   0  0  0  0  0  0  0  0  0  0  0  0
    1.3024   -3.0778    0.6665 C   0  0  0  0  0  0  0  0  0  0  0  0
   -0.1595   -0.2124    1.3612 H   0  0  0  0  0  0  0  0  0  0  0  0
    0.5692   -2.0678    2.3894 H   0  0  0  0  0  0  0  0  0  0  0  0
    2.0260   -2.9499   -0.1435 H   0  0  0  0  0  0  0  0  0  0  0  0
    1.6162   -3.9350    1.2704 H   0  0  0  0  0  0  0  0  0  0  0  0
    0.3240   -3.3002    0.2308 H   0  0  0  0  0  0  0  0  0  0  0  0
    3.5427   -0.7597    1.4696 N   0  0  0  0  0  0  0  0  0  0  0  0
    4.8874   -0.4901    1.9574 C   0  0  0  0  0  0  0  0  0  0  0  0
    3.3013   -0.5266    0.5037 H   0  0  0  0  0  0  0  0  0  0  0  0
    4.8483    0.0124    2.9297 H   0  0  0  0  0  0  0  0  0  0  0  0
    5.4504   -1.4231    2.0636 H   0  0  0  0  0  0  0  0  0  0  0  0
    5.4189    0.1597    1.2558 H   0  0  0  0  0  0  0  0  0  0  0  0
  1  2  2  0  0  0  0
  1  3  1  0  0  0  0
  1  7  1  0  0  0  0
  3  4  1  0  0  0  0
  3  5  1  0  0  0  0
  3  6  1  0  0  0  0
  7  8  1  0  0  0  0
  7 12  1  0  0  0  0
  8  9  1  0  0  0  0
  8 11  1  0  0  0  0
  8 13  1  0  0  0  0
  9 10  2  0  0  0  0
  9 17  1  0  0  0  0
 11 14  1  0  0  0  0
 11 15  1  0  0  0  0
 11 16  1  0  0  0  0
 17 18  1  0  0  0  0
 17 23  1  0  0  0  0
 18 19  1  0  0  0  0
 18 21  1  0  0  0  0
 18 24  1  0  0  0  0
 19 20  2  0  0  0  0
 19 31  1  0  0  0  0
 21 22  1  0  0  0  0
 21 25  1  0  0  0  0
 21 26  1  0  0  0  0
 22 23  1  0  0  0  0
 22 27  1  0  0  0  0
 22 28  1  0  0  0  0
 23 29  1  0  0  0  0
 23 30  1  0  0  0  0
 31 32  1  0  0  0  0
 31 36  1  0  0  0  0
 32 33  1  0  0  0  0
 32 35  1  0  0  0  0
 32 37  1  0  0  0  0
 33 34  2  0  0  0  0
 33 41  1  0  0  0  0
 35 38  1  0  0  0  0
 35 39  1  0  0  0  0
 35 40  1  0  0  0  0
 41 42  1  0  0  0  0
 41 43  1  0  0  0  0
 42 44  1  0  0  0  0
 42 45  1  0  0  0  0
 42 46  1  0  0  0  0
M  END
$$$$

  -OEChem-05262217223D

 46 46  0     1  0  0  0  0  0999 V2000
   -1.9307    0.1960    2.6940 C   0  0  0  0  0  0  0  0  0  0  0  0
   -2.2055   -0.6107    1.8162 O   0  0  0  0  0  0  0  0  0  0  0  0
   -1.6470   -0.2737    4.1074 C   0  0  0  0  0  0  0  0  0  0  0  0
   -2.4121    0.1046    4.7893 H   0  0  0  0  0  0  0  0  0  0  0  0
   -1.6439   -1.3664    4.1493 H   0  0  0  0  0  0  0  0  0  0  0  0
   -0.6682    0.0886    4.4323 H   0  0  0  0  0  0  0  0  0  0  0  0
   -1.8493    1.5355    2.3788 N   0  0  0  0  0  0  0  0  0  0  0  0
   -1.9496    2.0787    1.0161 C   0  0  2  0  0  0  0  0  0  0  0  0
   -0.5841    2.6329    0.5333 C   0  0  0  0  0  0  0  0  0  0  0  0
   -0.2232    3.7105    0.9963 O   0  0  0  0  0  0  0  0  0  0  0  0
   -3.0290    3.1680    1.0393 C   0  0  0  0  0  0  0  0  0  0  0  0
   -1.5060    2.1568    3.1088 H   0  0  0  0  0  0  0  0  0  0  0  0
   -2.2950    1.3153    0.3190 H   0  0  0  0  0  0  0  0  0  0  0  0
   -2.7713    3.9580    1.7524 H   0  0  0  0  0  0  0  0  0  0  0  0
   -3.1353    3.6178    0.0474 H   0  0  0  0  0  0  0  0  0  0  0  0
   -3.9926    2.7388    1.3310 H   0  0  0  0  0  0  0  0  0  0  0  0
    0.2370    2.0129   -0.4226 N   0  0  0  0  0  0  0  0  0  0  0  0
   -0.0868    0.6987   -1.1372 C   0  0  2  0  0  0  0  0  0  0  0  0
    0.7295   -0.5020   -0.5969 C   0  0  0  0  0  0  0  0  0  0  0  0
    1.9046   -0.6764   -0.9030 O   0  0  0  0  0  0  0  0  0  0  0  0
    0.4425    1.1576   -2.4887 C   0  0  0  0  0  0  0  0  0  0  0  0
    0.1876    2.6289   -2.2501 C   0  0  0  0  0  0  0  0  0  0  0  0
    1.2038    2.8838   -1.2358 C   0  0  0  0  0  0  0  0  0  0  0  0
   -1.1505    0.4574   -1.1926 H   0  0  0  0  0  0  0  0  0  0  0  0
   -0.1625    0.7622   -3.3105 H   0  0  0  0  0  0  0  0  0  0  0  0
    1.4933    0.9235   -2.6972 H   0  0  0  0  0  0  0  0  0  0  0  0
    0.4717    3.1784   -3.1532 H   0  0  0  0  0  0  0  0  0  0  0  0
   -0.8616    2.9275   -2.0655 H   0  0  0  0  0  0  0  0  0  0  0  0
    2.2029    2.4614   -1.3960 H   0  0  0  0  0  0  0  0  0  0  0  0
    1.2731    3.9360   -0.9403 H   0  0  0  0  0  0  0  0  0  0  0  0
    0.1944   -1.2378    0.4460 N   0  0  0  0  0  0  0  0  0  0  0  0
    0.9180   -2.1103    1.3885 C   0  0  2  0  0  0  0  0  0  0  0  0
    1.8652   -1.3191    2.3168 C   0  0  0  0  0  0  0  0  0  0  0  0
    1.6169   -1.2428    3.5143 O   0  0  0  0  0  0  0  0  0  0  0  0
    1.6406   -3.2665    0.6815 C   0  0  0  0  0  0  0  0  0  0  0  0
   -0.7599   -0.9883    0.7208 H   0  0  0  0  0  0  0  0  0  0  0  0
    0.1613   -2.5665    2.0354 H   0  0  0  0  0  0  0  0  0  0  0  0
    2.5037   -2.9137    0.1104 H   0  0  0  0  0  0  0  0  0  0  0  0
    1.9971   -3.9905    1.4207 H   0  0  0  0  0  0  0  0  0  0  0  0
    0.9563   -3.7773   -0.0023 H   0  0  0  0  0  0  0  0  0  0  0  0
    2.9270   -0.6072    1.7953 N   0  0  0  0  0  0  0  0  0  0  0  0
    3.7277    0.3290    2.5713 C   0  0  0  0  0  0  0  0  0  0  0  0
    2.9689   -0.5682    0.7734 H   0  0  0  0  0  0  0  0  0  0  0  0
    3.1114    1.1663    2.9144 H   0  0  0  0  0  0  0  0  0  0  0  0
    4.1641   -0.1697    3.4431 H   0  0  0  0  0  0  0  0  0  0  0  0
    4.5426    0.7251    1.9581 H   0  0  0  0  0  0  0  0  0  0  0  0
  1  2  2  0  0  0  0
  1  3  1  0  0  0  0
  1  7  1  0  0  0  0
  3  4  1  0  0  0  0
  3  5  1  0  0  0  0
  3  6  1  0  0  0  0
  7  8  1  0  0  0  0
  7 12  1  0  0  0  0
  8  9  1  0  0  0  0
  8 11  1  0  0  0  0
  8 13  1  0  0  0  0
  9 10  2  0  0  0  0
  9 17  1  0  0  0  0
 11 14  1  0  0  0  0
 11 15  1  0  0  0  0
 11 16  1  0  0  0  0
 17 18  1  0  0  0  0
 17 23  1  0  0  0  0
 18 19  1  0  0  0  0
 18 21  1  0  0  0  0
 18 24  1  0  0  0  0
 19 20  2  0  0  0  0
 19 31  1  0  0  0  0
 21 22  1  0  0  0  0
 21 25  1  0  0  0  0
 21 26  1  0  0  0  0
 22 23  1  0  0  0  0
 22 27  1  0  0  0  0
 22 28  1  0  0  0  0
 23 29  1  0  0  0  0
 23 30  1  0  0  0  0
 31 32  1  0  0  0  0
 31 36  1  0  0  0  0
 32 33  1  0  0  0  0
 32 35  1  0  0  0  0
 32 37  1  0  0  0  0
 33 34  2  0  0  0  0
 33 41  1  0  0  0  0
 35 38  1  0  0  0  0
 35 39  1  0  0  0  0
 35 40  1  0  0  0  0
 41 42  1  0  0  0  0
 41 43  1  0  0  0  0
 42 44  1  0  0  0  0
 42 45  1  0  0  0  0
 42 46  1  0  0  0  0
M  END
$$$$

  -OEChem-05262217223D

 46 46  0     1  0  0  0  0  0999 V2000
   -2.0014    0.0843    2.4142 C   0  0  0  0  0  0  0  0  0  0  0  0
   -2.3737   -0.5776    1.4546 O   0  0  0  0  0  0  0  0  0  0  0  0
   -1.7900   -0.5707    3.7651 C   0  0  0  0  0  0  0  0  0  0  0  0
   -2.5694   -0.2517    4.4612 H   0  0  0  0  0  0  0  0  0  0  0  0
   -1.8242   -1.6597    3.6682 H   0  0  0  0  0  0  0  0  0  0  0  0
   -0.8143   -0.2894    4.1701 H   0  0  0  0  0  0  0  0  0  0  0  0
   -1.7556    1.4310    2.2549 N   0  0  0  0  0  0  0  0  0  0  0  0
   -1.9128    2.1730    0.9952 C   0  0  2  0  0  0  0  0  0  0  0  0
   -0.5566    2.7059    0.4606 C   0  0  0  0  0  0  0  0  0  0  0  0
   -0.1748    3.8000    0.8643 O   0  0  0  0  0  0  0  0  0  0  0  0
   -2.9117    3.3053    1.2691 C   0  0  0  0  0  0  0  0  0  0  0  0
   -1.3802    1.9297    3.0587 H   0  0  0  0  0  0  0  0  0  0  0  0
   -2.3658    1.5465    0.2255 H   0  0  0  0  0  0  0  0  0  0  0  0
   -2.5498    3.9615    2.0673 H   0  0  0  0  0  0  0  0  0  0  0  0
   -3.0589    3.9071    0.3669 H   0  0  0  0  0  0  0  0  0  0  0  0
   -3.8790    2.8923    1.5712 H   0  0  0  0  0  0  0  0  0  0  0  0
    0.2304    2.0424   -0.4944 N   0  0  0  0  0  0  0  0  0  0  0  0
   -0.1325    0.7058   -1.1445 C   0  0  2  0  0  0  0  0  0  0  0  0
    0.6753   -0.4969   -0.5984 C   0  0  0  0  0  0  0  0  0  0  0  0
    1.8871   -0.5810   -0.7686 O   0  0  0  0  0  0  0  0  0  0  0  0
    0.3727    1.0975   -2.5244 C   0  0  0  0  0  0  0  0  0  0  0  0
    0.1487    2.5825   -2.3430 C   0  0  0  0  0  0  0  0  0  0  0  0
    1.1916    2.8632   -1.3639 C   0  0  0  0  0  0  0  0  0  0  0  0
   -1.2024    0.4859   -1.1597 H   0  0  0  0  0  0  0  0  0  0  0  0
   -0.2576    0.6788   -3.3151 H   0  0  0  0  0  0  0  0  0  0  0  0
    1.4145    0.8317   -2.7411 H   0  0  0  0  0  0  0  0  0  0  0  0
    0.4206    3.0879   -3.2750 H   0  0  0  0  0  0  0  0  0  0  0  0
   -0.8906    2.9070   -2.1478 H   0  0  0  0  0  0  0  0  0  0  0  0
    2.1799    2.4180   -1.5279 H   0  0  0  0  0  0  0  0  0  0  0  0
    1.2830    3.9257   -1.1147 H   0  0  0  0  0  0  0  0  0  0  0  0
    0.0547   -1.3875    0.2600 N   0  0  0  0  0  0  0  0  0  0  0  0
    0.6993   -2.3950    1.1242 C   0  0  2  0  0  0  0  0  0  0  0  0
    1.5439   -1.7736    2.2592 C   0  0  0  0  0  0  0  0  0  0  0  0
    1.2302   -1.9701    3.4267 O   0  0  0  0  0  0  0  0  0  0  0  0
    1.5083   -3.4195    0.3159 C   0  0  0  0  0  0  0  0  0  0  0  0
   -0.9283   -1.1850    0.4650 H   0  0  0  0  0  0  0  0  0  0  0  0
   -0.1093   -2.9505    1.6107 H   0  0  0  0  0  0  0  0  0  0  0  0
    2.4150   -2.9744   -0.1035 H   0  0  0  0  0  0  0  0  0  0  0  0
    1.8071   -4.2514    0.9613 H   0  0  0  0  0  0  0  0  0  0  0  0
    0.9036   -3.8175   -0.5044 H   0  0  0  0  0  0  0  0  0  0  0  0
    2.5973   -0.9280    1.9764 N   0  0  0  0  0  0  0  0  0  0  0  0
    3.3421   -0.1882    2.9849 C   0  0  0  0  0  0  0  0  0  0  0  0
    2.7310   -0.6997    0.9872 H   0  0  0  0  0  0  0  0  0  0  0  0
    2.6793    0.4939    3.5270 H   0  0  0  0  0  0  0  0  0  0  0  0
    3.8048   -0.8757    3.7007 H   0  0  0  0  0  0  0  0  0  0  0  0
    4.1328    0.4006    2.5105 H   0  0  0  0  0  0  0  0  0  0  0  0
  1  2  2  0  0  0  0
  1  3  1  0  0  0  0
  1  7  1  0  0  0  0
  3  4  1  0  0  0  0
  3  5  1  0  0  0  0
  3  6  1  0  0  0  0
  7  8  1  0  0  0  0
  7 12  1  0  0  0  0
  8  9  1  0  0  0  0
  8 11  1  0  0  0  0
  8 13  1  0  0  0  0
  9 10  2  0  0  0  0
  9 17  1  0  0  0  0
 11 14  1  0  0  0  0
 11 15  1  0  0  0  0
 11 16  1  0  0  0  0
 17 18  1  0  0  0  0
 17 23  1  0  0  0  0
 18 19  1  0  0  0  0
 18 21  1  0  0  0  0
 18 24  1  0  0  0  0
 19 20  2  0  0  0  0
 19 31  1  0  0  0  0
 21 22  1  0  0  0  0
 21 25  1  0  0  0  0
 21 26  1  0  0  0  0
 22 23  1  0  0  0  0
 22 27  1  0  0  0  0
 22 28  1  0  0  0  0
 23 29  1  0  0  0  0
 23 30  1  0  0  0  0
 31 32  1  0  0  0  0
 31 36  1  0  0  0  0
 32 33  1  0  0  0  0
 32 35  1  0  0  0  0
 32 37  1  0  0  0  0
 33 34  2  0  0  0  0
 33 41  1  0  0  0  0
 35 38  1  0  0  0  0
 35 39  1  0  0  0  0
 35 40  1  0  0  0  0
 41 42  1  0  0  0  0
 41 43  1  0  0  0  0
 42 44  1  0  0  0  0
 42 45  1  0  0  0  0
 42 46  1  0  0  0  0
M  END
$$$$

  -OEChem-05262217223D

 46 46  0     1  0  0  0  0  0999 V2000
   -1.9690    0.0042    2.2449 C   0  0  0  0  0  0  0  0  0  0  0  0
   -2.4404   -0.5326    1.2509 O   0  0  0  0  0  0  0  0  0  0  0  0
   -1.7312   -0.7972    3.5101 C   0  0  0  0  0  0  0  0  0  0  0  0
   -2.4517   -0.5051    4.2778 H   0  0  0  0  0  0  0  0  0  0  0  0
   -1.8424   -1.8665    3.3086 H   0  0  0  0  0  0  0  0  0  0  0  0
   -0.7199   -0.6188    3.8849 H   0  0  0  0  0  0  0  0  0  0  0  0
   -1.6362    1.3414    2.2061 N   0  0  0  0  0  0  0  0  0  0  0  0
   -1.8858    2.2425    1.0709 C   0  0  2  0  0  0  0  0  0  0  0  0
   -0.5731    2.7738    0.4319 C   0  0  0  0  0  0  0  0  0  0  0  0
   -0.1743    3.8850    0.7669 O   0  0  0  0  0  0  0  0  0  0  0  0
   -2.7791    3.3719    1.6043 C   0  0  0  0  0  0  0  0  0  0  0  0
   -1.2093    1.7350    3.0416 H   0  0  0  0  0  0  0  0  0  0  0  0
   -2.4594    1.7395    0.2889 H   0  0  0  0  0  0  0  0  0  0  0  0
   -2.2830    3.9087    2.4196 H   0  0  0  0  0  0  0  0  0  0  0  0
   -3.0049    4.0867    0.8066 H   0  0  0  0  0  0  0  0  0  0  0  0
   -3.7227    2.9642    1.9797 H   0  0  0  0  0  0  0  0  0  0  0  0
    0.1432    2.0862   -0.5602 N   0  0  0  0  0  0  0  0  0  0  0  0
   -0.2744    0.7338   -1.1377 C   0  0  2  0  0  0  0  0  0  0  0  0
    0.5577   -0.4678   -0.6312 C   0  0  0  0  0  0  0  0  0  0  0  0
    1.7801   -0.4796   -0.7324 O   0  0  0  0  0  0  0  0  0  0  0  0
    0.1479    1.0737   -2.5571 C   0  0  0  0  0  0  0  0  0  0  0  0
   -0.0484    2.5676   -2.4139 C   0  0  0  0  0  0  0  0  0  0  0  0
    1.0556    2.8690   -1.5118 C   0  0  0  0  0  0  0  0  0  0  0  0
   -1.3458    0.5299   -1.0738 H   0  0  0  0  0  0  0  0  0  0  0  0
   -0.5330    0.6371   -3.2943 H   0  0  0  0  0  0  0  0  0  0  0  0
    1.1721    0.7836   -2.8233 H   0  0  0  0  0  0  0  0  0  0  0  0
    0.1706    3.0377   -3.3777 H   0  0  0  0  0  0  0  0  0  0  0  0
   -1.0703    2.9118   -2.1655 H   0  0  0  0  0  0  0  0  0  0  0  0
    2.0280    2.4081   -1.7222 H   0  0  0  0  0  0  0  0  0  0  0  0
    1.1702    3.9373   -1.3006 H   0  0  0  0  0  0  0  0  0  0  0  0
   -0.0772   -1.4989    0.0392 N   0  0  0  0  0  0  0  0  0  0  0  0
    0.5558   -2.6280    0.7484 C   0  0  2  0  0  0  0  0  0  0  0  0
    1.3670   -2.2096    1.9966 C   0  0  0  0  0  0  0  0  0  0  0  0
    1.0443   -2.6338    3.0991 O   0  0  0  0  0  0  0  0  0  0  0  0
    1.3981   -3.4913   -0.2014 C   0  0  0  0  0  0  0  0  0  0  0  0
   -1.0718   -1.3429    0.2296 H   0  0  0  0  0  0  0  0  0  0  0  0
   -0.2580   -3.2646    1.1116 H   0  0  0  0  0  0  0  0  0  0  0  0
    2.2988   -2.9643   -0.5285 H   0  0  0  0  0  0  0  0  0  0  0  0
    1.7080   -4.4104    0.3054 H   0  0  0  0  0  0  0  0  0  0  0  0
    0.8132   -3.7631   -1.0851 H   0  0  0  0  0  0  0  0  0  0  0  0
    2.4152   -1.3167    1.9014 N   0  0  0  0  0  0  0  0  0  0  0  0
    3.1757   -0.8209    3.0395 C   0  0  0  0  0  0  0  0  0  0  0  0
    2.5763   -0.9125    0.9743 H   0  0  0  0  0  0  0  0  0  0  0  0
    2.5288   -0.2509    3.7141 H   0  0  0  0  0  0  0  0  0  0  0  0
    3.6198   -1.6536    3.5949 H   0  0  0  0  0  0  0  0  0  0  0  0
    3.9828   -0.1666    2.6961 H   0  0  0  0  0  0  0  0  0  0  0  0
  1  2  2  0  0  0  0
  1  3  1  0  0  0  0
  1  7  1  0  0  0  0
  3  4  1  0  0  0  0
  3  5  1  0  0  0  0
  3  6  1  0  0  0  0
  7  8  1  0  0  0  0
  7 12  1  0  0  0  0
  8  9  1  0  0  0  0
  8 11  1  0  0  0  0
  8 13  1  0  0  0  0
  9 10  2  0  0  0  0
  9 17  1  0  0  0  0
 11 14  1  0  0  0  0
 11 15  1  0  0  0  0
 11 16  1  0  0  0  0
 17 18  1  0  0  0  0
 17 23  1  0  0  0  0
 18 19  1  0  0  0  0
 18 21  1  0  0  0  0
 18 24  1  0  0  0  0
 19 20  2  0  0  0  0
 19 31  1  0  0  0  0
 21 22  1  0  0  0  0
 21 25  1  0  0  0  0
 21 26  1  0  0  0  0
 22 23  1  0  0  0  0
 22 27  1  0  0  0  0
 22 28  1  0  0  0  0
 23 29  1  0  0  0  0
 23 30  1  0  0  0  0
 31 32  1  0  0  0  0
 31 36  1  0  0  0  0
 32 33  1  0  0  0  0
 32 35  1  0  0  0  0
 32 37  1  0  0  0  0
 33 34  2  0  0  0  0
 33 41  1  0  0  0  0
 35 38  1  0  0  0  0
 35 39  1  0  0  0  0
 35 40  1  0  0  0  0
 41 42  1  0  0  0  0
 41 43  1  0  0  0  0
 42 44  1  0  0  0  0
 42 45  1  0  0  0  0
 42 46  1  0  0  0  0
M  END
$$$$

  -OEChem-05262217223D

 46 46  0     1  0  0  0  0  0999 V2000
   -2.4656    0.9439    3.5913 C   0  0  0  0  0  0  0  0  0  0  0  0
   -2.8996   -0.1023    3.1341 O   0  0  0  0  0  0  0  0  0  0  0  0
   -2.5085    1.2035    5.0851 C   0  0  0  0  0  0  0  0  0  0  0  0
   -3.0971    2.1010    5.2908 H   0  0  0  0  0  0  0  0  0  0  0  0
   -2.9659    0.3555    5.6025 H   0  0  0  0  0  0  0  0  0  0  0  0
   -1.4950    1.3446    5.4687 H   0  0  0  0  0  0  0  0  0  0  0  0
   -1.9383    1.8948    2.7436 N   0  0  0  0  0  0  0  0  0  0  0  0
   -1.7372    1.6967    1.3033 C   0  0  2  0  0  0  0  0  0  0  0  0
   -0.4615    2.4134    0.7983 C   0  0  0  0  0  0  0  0  0  0  0  0
   -0.1330    3.4578    1.3550 O   0  0  0  0  0  0  0  0  0  0  0  0
   -2.9830    2.2256    0.5841 C   0  0  0  0  0  0  0  0  0  0  0  0
   -1.5136    2.7211    3.1630 H   0  0  0  0  0  0  0  0  0  0  0  0
   -1.6234    0.6276    1.1040 H   0  0  0  0  0  0  0  0  0  0  0  0
   -3.1149    3.2930    0.7890 H   0  0  0  0  0  0  0  0  0  0  0  0
   -2.8984    2.0883   -0.4972 H   0  0  0  0  0  0  0  0  0  0  0  0
   -3.8742    1.6922    0.9297 H   0  0  0  0  0  0  0  0  0  0  0  0
    0.2578    1.9752   -0.3210 N   0  0  0  0  0  0  0  0  0  0  0  0
   -0.1529    0.7563   -1.1424 C   0  0  2  0  0  0  0  0  0  0  0  0
    0.6997   -0.5113   -0.9136 C   0  0  0  0  0  0  0  0  0  0  0  0
    1.9202   -0.4429   -0.8381 O   0  0  0  0  0  0  0  0  0  0  0  0
    0.2581    1.3774   -2.4661 C   0  0  0  0  0  0  0  0  0  0  0  0
    0.0488    2.8149   -2.0334 C   0  0  0  0  0  0  0  0  0  0  0  0
    1.1525    2.9488   -1.0932 C   0  0  0  0  0  0  0  0  0  0  0  0
   -1.2228    0.5379   -1.1112 H   0  0  0  0  0  0  0  0  0  0  0  0
   -0.4201    1.0881   -3.2751 H   0  0  0  0  0  0  0  0  0  0  0  0
    1.2857    1.1540   -2.7810 H   0  0  0  0  0  0  0  0  0  0  0  0
    0.2589    3.4658   -2.8878 H   0  0  0  0  0  0  0  0  0  0  0  0
   -0.9737    3.0969   -1.7196 H   0  0  0  0  0  0  0  0  0  0  0  0
    2.1309    2.5568   -1.3952 H   0  0  0  0  0  0  0  0  0  0  0  0
    1.2493    3.9527   -0.6658 H   0  0  0  0  0  0  0  0  0  0  0  0
    0.0676   -1.7352   -0.7561 N   0  0  0  0  0  0  0  0  0  0  0  0
    0.7103   -3.0493   -0.5348 C   0  0  2  0  0  0  0  0  0  0  0  0
    1.4242   -3.2177    0.8280 C   0  0  0  0  0  0  0  0  0  0  0  0
    1.2813   -4.2609    1.4518 O   0  0  0  0  0  0  0  0  0  0  0  0
    1.6584   -3.4068   -1.6883 C   0  0  0  0  0  0  0  0  0  0  0  0
   -0.9482   -1.7147   -0.7301 H   0  0  0  0  0  0  0  0  0  0  0  0
   -0.0926   -3.7940   -0.5439 H   0  0  0  0  0  0  0  0  0  0  0  0
    2.5523   -2.7760   -1.6788 H   0  0  0  0  0  0  0  0  0  0  0  0
    1.9791   -4.4495   -1.5970 H   0  0  0  0  0  0  0  0  0  0  0  0
    1.1529   -3.2828   -2.6506 H   0  0  0  0  0  0  0  0  0  0  0  0
    2.2393   -2.2300    1.3439 N   0  0  0  0  0  0  0  0  0  0  0  0
    3.0034   -2.3662    2.5759 C   0  0  0  0  0  0  0  0  0  0  0  0
    2.4038   -1.4214    0.7391 H   0  0  0  0  0  0  0  0  0  0  0  0
    2.3387   -2.5879    3.4174 H   0  0  0  0  0  0  0  0  0  0  0  0
    3.7374   -3.1733    2.4834 H   0  0  0  0  0  0  0  0  0  0  0  0
    3.5357   -1.4354    2.7937 H   0  0  0  0  0  0  0  0  0  0  0  0
  1  2  2  0  0  0  0
  1  3  1  0  0  0  0
  1  7  1  0  0  0  0
  3  4  1  0  0  0  0
  3  5  1  0  0  0  0
  3  6  1  0  0  0  0
  7  8  1  0  0  0  0
  7 12  1  0  0  0  0
  8  9  1  0  0  0  0
  8 11  1  0  0  0  0
  8 13  1  0  0  0  0
  9 10  2  0  0  0  0
  9 17  1  0  0  0  0
 11 14  1  0  0  0  0
 11 15  1  0  0  0  0
 11 16  1  0  0  0  0
 17 18  1  0  0  0  0
 17 23  1  0  0  0  0
 18 19  1  0  0  0  0
 18 21  1  0  0  0  0
 18 24  1  0  0  0  0
 19 20  2  0  0  0  0
 19 31  1  0  0  0  0
 21 22  1  0  0  0  0
 21 25  1  0  0  0  0
 21 26  1  0  0  0  0
 22 23  1  0  0  0  0
 22 27  1  0  0  0  0
 22 28  1  0  0  0  0
 23 29  1  0  0  0  0
 23 30  1  0  0  0  0
 31 32  1  0  0  0  0
 31 36  1  0  0  0  0
 32 33  1  0  0  0  0
 32 35  1  0  0  0  0
 32 37  1  0  0  0  0
 33 34  2  0  0  0  0
 33 41  1  0  0  0  0
 35 38  1  0  0  0  0
 35 39  1  0  0  0  0
 35 40  1  0  0  0  0
 41 42  1  0  0  0  0
 41 43  1  0  0  0  0
 42 44  1  0  0  0  0
 42 45  1  0  0  0  0
 42 46  1  0  0  0  0
M  END
$$$$

  -OEChem-05262217223D

 46 46  0     1  0  0  0  0  0999 V2000
   -2.3824    0.8937    3.6474 C   0  0  0  0  0  0  0  0  0  0  0  0
   -2.8560   -0.1385    3.1988 O   0  0  0  0  0  0  0  0  0  0  0  0
   -2.3886    1.1389    5.1442 C   0  0  0  0  0  0  0  0  0  0  0  0
   -1.9561    2.1154    5.3752 H   0  0  0  0  0  0  0  0  0  0  0  0
   -3.4144    1.1111    5.5200 H   0  0  0  0  0  0  0  0  0  0  0  0
   -1.8018    0.3661    5.6470 H   0  0  0  0  0  0  0  0  0  0  0  0
   -1.8425    1.8295    2.7905 N   0  0  0  0  0  0  0  0  0  0  0  0
   -1.6807    1.6338    1.3447 C   0  0  2  0  0  0  0  0  0  0  0  0
   -0.4311    2.3735    0.8079 C   0  0  0  0  0  0  0  0  0  0  0  0
   -0.0940    3.4109    1.3731 O   0  0  0  0  0  0  0  0  0  0  0  0
   -2.9565    2.1423    0.6626 C   0  0  0  0  0  0  0  0  0  0  0  0
   -1.3915    2.6464    3.2012 H   0  0  0  0  0  0  0  0  0  0  0  0
   -1.5529    0.5665    1.1414 H   0  0  0  0  0  0  0  0  0  0  0  0
   -3.1049    3.2053    0.8782 H   0  0  0  0  0  0  0  0  0  0  0  0
   -2.8997    2.0143   -0.4213 H   0  0  0  0  0  0  0  0  0  0  0  0
   -3.8271    1.5885    1.0284 H   0  0  0  0  0  0  0  0  0  0  0  0
    0.2512    1.9688   -0.3464 N   0  0  0  0  0  0  0  0  0  0  0  0
   -0.1733    0.7650   -1.1842 C   0  0  2  0  0  0  0  0  0  0  0  0
    0.6849   -0.5101   -1.0361 C   0  0  0  0  0  0  0  0  0  0  0  0
    1.8735   -0.4371   -0.7529 O   0  0  0  0  0  0  0  0  0  0  0  0
    0.2040    1.4160   -2.5015 C   0  0  0  0  0  0  0  0  0  0  0  0
   -0.0015    2.8434   -2.0347 C   0  0  0  0  0  0  0  0  0  0  0  0
    1.1223    2.9641   -1.1178 C   0  0  0  0  0  0  0  0  0  0  0  0
   -1.2412    0.5417   -1.1249 H   0  0  0  0  0  0  0  0  0  0  0  0
   -0.4897    1.1408   -3.3023 H   0  0  0  0  0  0  0  0  0  0  0  0
    1.2260    1.2008   -2.8403 H   0  0  0  0  0  0  0  0  0  0  0  0
    0.1853    3.5125   -2.8803 H   0  0  0  0  0  0  0  0  0  0  0  0
   -1.0175    3.1134   -1.6910 H   0  0  0  0  0  0  0  0  0  0  0  0
    2.0958    2.5840   -1.4494 H   0  0  0  0  0  0  0  0  0  0  0  0
    1.2223    3.9600   -0.6725 H   0  0  0  0  0  0  0  0  0  0  0  0
    0.0915   -1.7505   -1.2125 N   0  0  0  0  0  0  0  0  0  0  0  0
    0.7559   -3.0719   -1.1831 C   0  0  2  0  0  0  0  0  0  0  0  0
    1.2827   -3.5191    0.2008 C   0  0  0  0  0  0  0  0  0  0  0  0
    1.0659   -4.6621    0.5808 O   0  0  0  0  0  0  0  0  0  0  0  0
    1.8672   -3.1584   -2.2388 C   0  0  0  0  0  0  0  0  0  0  0  0
   -0.9103   -1.7471   -1.3821 H   0  0  0  0  0  0  0  0  0  0  0  0
   -0.0040   -3.8088   -1.4637 H   0  0  0  0  0  0  0  0  0  0  0  0
    2.7225   -2.5325   -1.9676 H   0  0  0  0  0  0  0  0  0  0  0  0
    2.2179   -4.1915   -2.3269 H   0  0  0  0  0  0  0  0  0  0  0  0
    1.4927   -2.8356   -3.2148 H   0  0  0  0  0  0  0  0  0  0  0  0
    2.0128   -2.6678    1.0054 N   0  0  0  0  0  0  0  0  0  0  0  0
    2.5921   -3.0556    2.2837 C   0  0  0  0  0  0  0  0  0  0  0  0
    2.2275   -1.7471    0.6136 H   0  0  0  0  0  0  0  0  0  0  0  0
    3.0977   -2.2011    2.7433 H   0  0  0  0  0  0  0  0  0  0  0  0
    1.8112   -3.4041    2.9678 H   0  0  0  0  0  0  0  0  0  0  0  0
    3.3232   -3.8586    2.1435 H   0  0  0  0  0  0  0  0  0  0  0  0
  1  2  2  0  0  0  0
  1  3  1  0  0  0  0
  1  7  1  0  0  0  0
  3  4  1  0  0  0  0
  3  5  1  0  0  0  0
  3  6  1  0  0  0  0
  7  8  1  0  0  0  0
  7 12  1  0  0  0  0
  8  9  1  0  0  0  0
  8 11  1  0  0  0  0
  8 13  1  0  0  0  0
  9 10  2  0  0  0  0
  9 17  1  0  0  0  0
 11 14  1  0  0  0  0
 11 15  1  0  0  0  0
 11 16  1  0  0  0  0
 17 18  1  0  0  0  0
 17 23  1  0  0  0  0
 18 19  1  0  0  0  0
 18 21  1  0  0  0  0
 18 24  1  0  0  0  0
 19 20  2  0  0  0  0
 19 31  1  0  0  0  0
 21 22  1  0  0  0  0
 21 25  1  0  0  0  0
 21 26  1  0  0  0  0
 22 23  1  0  0  0  0
 22 27  1  0  0  0  0
 22 28  1  0  0  0  0
 23 29  1  0  0  0  0
 23 30  1  0  0  0  0
 31 32  1  0  0  0  0
 31 36  1  0  0  0  0
 32 33  1  0  0  0  0
 32 35  1  0  0  0  0
 32 37  1  0  0  0  0
 33 34  2  0  0  0  0
 33 41  1  0  0  0  0
 35 38  1  0  0  0  0
 35 39  1  0  0  0  0
 35 40  1  0  0  0  0
 41 42  1  0  0  0  0
 41 43  1  0  0  0  0
 42 44  1  0  0  0  0
 42 45  1  0  0  0  0
 42 46  1  0  0  0  0
M  END
$$$$

  -OEChem-05262217223D

 46 46  0     1  0  0  0  0  0999 V2000
   -1.9993    0.5928    3.6123 C   0  0  0  0  0  0  0  0  0  0  0  0
   -2.5012   -0.4097    3.1284 O   0  0  0  0  0  0  0  0  0  0  0  0
   -1.8682    0.7314    5.1171 C   0  0  0  0  0  0  0  0  0  0  0  0
   -2.4085    1.6177    5.4587 H   0  0  0  0  0  0  0  0  0  0  0  0
   -2.2847   -0.1494    5.6140 H   0  0  0  0  0  0  0  0  0  0  0  0
   -0.8150    0.8263    5.3929 H   0  0  0  0  0  0  0  0  0  0  0  0
   -1.5438    1.5993    2.7875 N   0  0  0  0  0  0  0  0  0  0  0  0
   -1.4986    1.5127    1.3222 C   0  0  2  0  0  0  0  0  0  0  0  0
   -0.3014    2.3033    0.7419 C   0  0  0  0  0  0  0  0  0  0  0  0
    0.0599    3.3132    1.3409 O   0  0  0  0  0  0  0  0  0  0  0  0
   -2.8244    2.0585    0.7805 C   0  0  0  0  0  0  0  0  0  0  0  0
   -1.0607    2.3855    3.2208 H   0  0  0  0  0  0  0  0  0  0  0  0
   -1.3834    0.4639    1.0318 H   0  0  0  0  0  0  0  0  0  0  0  0
   -2.9572    3.1029    1.0808 H   0  0  0  0  0  0  0  0  0  0  0  0
   -2.8512    2.0065   -0.3110 H   0  0  0  0  0  0  0  0  0  0  0  0
   -3.6619    1.4736    1.1738 H   0  0  0  0  0  0  0  0  0  0  0  0
    0.3047    1.9750   -0.4767 N   0  0  0  0  0  0  0  0  0  0  0  0
   -0.1588    0.8105   -1.3488 C   0  0  2  0  0  0  0  0  0  0  0  0
    0.7294   -0.4510   -1.3258 C   0  0  0  0  0  0  0  0  0  0  0  0
    1.8289   -0.4282   -0.7895 O   0  0  0  0  0  0  0  0  0  0  0  0
    0.1284    1.5340   -2.6497 C   0  0  0  0  0  0  0  0  0  0  0  0
   -0.0625    2.9326   -2.0966 C   0  0  0  0  0  0  0  0  0  0  0  0
    1.1149    3.0217   -1.2456 C   0  0  0  0  0  0  0  0  0  0  0  0
   -1.2172    0.5631   -1.2315 H   0  0  0  0  0  0  0  0  0  0  0  0
   -0.6105    1.2915   -3.4200 H   0  0  0  0  0  0  0  0  0  0  0  0
    1.1305    1.3492   -3.0587 H   0  0  0  0  0  0  0  0  0  0  0  0
    0.0646    3.6474   -2.9160 H   0  0  0  0  0  0  0  0  0  0  0  0
   -1.0581    3.1708   -1.6765 H   0  0  0  0  0  0  0  0  0  0  0  0
    2.0704    2.6752   -1.6566 H   0  0  0  0  0  0  0  0  0  0  0  0
    1.2305    3.9935   -0.7541 H   0  0  0  0  0  0  0  0  0  0  0  0
    0.2308   -1.6429   -1.8281 N   0  0  0  0  0  0  0  0  0  0  0  0
    0.8869   -2.9677   -1.7881 C   0  0  2  0  0  0  0  0  0  0  0  0
    1.0079   -3.5767   -0.3715 C   0  0  0  0  0  0  0  0  0  0  0  0
    0.5752   -4.7024   -0.1651 O   0  0  0  0  0  0  0  0  0  0  0  0
    2.2485   -2.9500   -2.4982 C   0  0  0  0  0  0  0  0  0  0  0  0
   -0.7207   -1.6151   -2.1832 H   0  0  0  0  0  0  0  0  0  0  0  0
    0.2479   -3.6512   -2.3568 H   0  0  0  0  0  0  0  0  0  0  0  0
    2.9910   -2.3871   -1.9254 H   0  0  0  0  0  0  0  0  0  0  0  0
    2.6192   -3.9728   -2.6181 H   0  0  0  0  0  0  0  0  0  0  0  0
    2.1563   -2.4968   -3.4896 H   0  0  0  0  0  0  0  0  0  0  0  0
    1.5632   -2.8624    0.6712 N   0  0  0  0  0  0  0  0  0  0  0  0
    1.6062   -3.3325    2.0486 C   0  0  0  0  0  0  0  0  0  0  0  0
    1.8847   -1.9162    0.4519 H   0  0  0  0  0  0  0  0  0  0  0  0
    0.5920   -3.4490    2.4447 H   0  0  0  0  0  0  0  0  0  0  0  0
    2.1220   -4.2965    2.1084 H   0  0  0  0  0  0  0  0  0  0  0  0
    2.1432   -2.6145    2.6758 H   0  0  0  0  0  0  0  0  0  0  0  0
  1  2  2  0  0  0  0
  1  3  1  0  0  0  0
  1  7  1  0  0  0  0
  3  4  1  0  0  0  0
  3  5  1  0  0  0  0
  3  6  1  0  0  0  0
  7  8  1  0  0  0  0
  7 12  1  0  0  0  0
  8  9  1  0  0  0  0
  8 11  1  0  0  0  0
  8 13  1  0  0  0  0
  9 10  2  0  0  0  0
  9 17  1  0  0  0  0
 11 14  1  0  0  0  0
 11 15  1  0  0  0  0
 11 16  1  0  0  0  0
 17 18  1  0  0  0  0
 17 23  1  0  0  0  0
 18 19  1  0  0  0  0
 18 21  1  0  0  0  0
 18 24  1  0  0  0  0
 19 20  2  0  0  0  0
 19 31  1  0  0  0  0
 21 22  1  0  0  0  0
 21 25  1  0  0  0  0
 21 26  1  0  0  0  0
 22 23  1  0  0  0  0
 22 27  1  0  0  0  0
 22 28  1  0  0  0  0
 23 29  1  0  0  0  0
 23 30  1  0  0  0  0
 31 32  1  0  0  0  0
 31 36  1  0  0  0  0
 32 33  1  0  0  0  0
 32 35  1  0  0  0  0
 32 37  1  0  0  0  0
 33 34  2  0  0  0  0
 33 41  1  0  0  0  0
 35 38  1  0  0  0  0
 35 39  1  0  0  0  0
 35 40  1  0  0  0  0
 41 42  1  0  0  0  0
 41 43  1  0  0  0  0
 42 44  1  0  0  0  0
 42 45  1  0  0  0  0
 42 46  1  0  0  0  0
M  END
$$$$

  -OEChem-05262217223D

 46 46  0     1  0  0  0  0  0999 V2000
   -1.3109    0.0889    3.4098 C   0  0  0  0  0  0  0  0  0  0  0  0
   -1.4433   -1.0200    2.9160 O   0  0  0  0  0  0  0  0  0  0  0  0
   -1.0215    0.2296    4.8917 C   0  0  0  0  0  0  0  0  0  0  0  0
   -1.7722    0.8714    5.3592 H   0  0  0  0  0  0  0  0  0  0  0  0
   -1.0449   -0.7507    5.3759 H   0  0  0  0  0  0  0  0  0  0  0  0
   -0.0326    0.6714    5.0364 H   0  0  0  0  0  0  0  0  0  0  0  0
   -1.4140    1.2185    2.6259 N   0  0  0  0  0  0  0  0  0  0  0  0
   -1.4624    1.2024    1.1581 C   0  0  2  0  0  0  0  0  0  0  0  0
   -0.5351    2.2848    0.5548 C   0  0  0  0  0  0  0  0  0  0  0  0
   -0.3670    3.3237    1.1894 O   0  0  0  0  0  0  0  0  0  0  0  0
   -2.9170    1.4363    0.7397 C   0  0  0  0  0  0  0  0  0  0  0  0
   -1.1647    2.1057    3.0616 H   0  0  0  0  0  0  0  0  0  0  0  0
   -1.1283    0.2280    0.7894 H   0  0  0  0  0  0  0  0  0  0  0  0
   -3.2704    2.4024    1.1145 H   0  0  0  0  0  0  0  0  0  0  0  0
   -3.0140    1.4310   -0.3492 H   0  0  0  0  0  0  0  0  0  0  0  0
   -3.5581    0.6487    1.1482 H   0  0  0  0  0  0  0  0  0  0  0  0
    0.0498    2.1558   -0.7070 N   0  0  0  0  0  0  0  0  0  0  0  0
   -0.1675    0.9469   -1.6079 C   0  0  2  0  0  0  0  0  0  0  0  0
    0.8249   -0.2198   -1.4353 C   0  0  0  0  0  0  0  0  0  0  0  0
    1.6312   -0.2087   -0.5159 O   0  0  0  0  0  0  0  0  0  0  0  0
    0.1372    1.7081   -2.8806 C   0  0  0  0  0  0  0  0  0  0  0  0
   -0.2997    3.0621   -2.3465 C   0  0  0  0  0  0  0  0  0  0  0  0
    0.7599    3.3214   -1.3903 C   0  0  0  0  0  0  0  0  0  0  0  0
   -1.1987    0.5840   -1.5854 H   0  0  0  0  0  0  0  0  0  0  0  0
   -0.4837    1.3732   -3.7173 H   0  0  0  0  0  0  0  0  0  0  0  0
    1.1910    1.6666   -3.1841 H   0  0  0  0  0  0  0  0  0  0  0  0
   -0.2055    3.7964   -3.1527 H   0  0  0  0  0  0  0  0  0  0  0  0
   -1.3544    3.1484   -2.0182 H   0  0  0  0  0  0  0  0  0  0  0  0
    1.7910    3.1293   -1.7087 H   0  0  0  0  0  0  0  0  0  0  0  0
    0.6732    4.2921   -0.8904 H   0  0  0  0  0  0  0  0  0  0  0  0
    0.6867   -1.3517   -2.2234 N   0  0  0  0  0  0  0  0  0  0  0  0
    1.4034   -2.6350   -2.0642 C   0  0  2  0  0  0  0  0  0  0  0  0
    1.0154   -3.4154   -0.7866 C   0  0  0  0  0  0  0  0  0  0  0  0
    0.5337   -4.5353   -0.8949 O   0  0  0  0  0  0  0  0  0  0  0  0
    2.9253   -2.4571   -2.1645 C   0  0  0  0  0  0  0  0  0  0  0  0
   -0.0719   -1.3336   -2.8988 H   0  0  0  0  0  0  0  0  0  0  0  0
    1.1080   -3.2675   -2.9078 H   0  0  0  0  0  0  0  0  0  0  0  0
    3.3271   -1.9458   -1.2850 H   0  0  0  0  0  0  0  0  0  0  0  0
    3.4102   -3.4356   -2.2368 H   0  0  0  0  0  0  0  0  0  0  0  0
    3.1832   -1.8763   -3.0549 H   0  0  0  0  0  0  0  0  0  0  0  0
    1.1439   -2.8432    0.4630 N   0  0  0  0  0  0  0  0  0  0  0  0
    0.6042   -3.4289    1.6826 C   0  0  0  0  0  0  0  0  0  0  0  0
    1.4460   -1.8659    0.4780 H   0  0  0  0  0  0  0  0  0  0  0  0
    0.9836   -4.4463    1.8235 H   0  0  0  0  0  0  0  0  0  0  0  0
    0.8982   -2.8287    2.5490 H   0  0  0  0  0  0  0  0  0  0  0  0
   -0.4892   -3.4615    1.6398 H   0  0  0  0  0  0  0  0  0  0  0  0
  1  2  2  0  0  0  0
  1  3  1  0  0  0  0
  1  7  1  0  0  0  0
  3  4  1  0  0  0  0
  3  5  1  0  0  0  0
  3  6  1  0  0  0  0
  7  8  1  0  0  0  0
  7 12  1  0  0  0  0
  8  9  1  0  0  0  0
  8 11  1  0  0  0  0
  8 13  1  0  0  0  0
  9 10  2  0  0  0  0
  9 17  1  0  0  0  0
 11 14  1  0  0  0  0
 11 15  1  0  0  0  0
 11 16  1  0  0  0  0
 17 18  1  0  0  0  0
 17 23  1  0  0  0  0
 18 19  1  0  0  0  0
 18 21  1  0  0  0  0
 18 24  1  0  0  0  0
 19 20  2  0  0  0  0
 19 31  1  0  0  0  0
 21 22  1  0  0  0  0
 21 25  1  0  0  0  0
 21 26  1  0  0  0  0
 22 23  1  0  0  0  0
 22 27  1  0  0  0  0
 22 28  1  0  0  0  0
 23 29  1  0  0  0  0
 23 30  1  0  0  0  0
 31 32  1  0  0  0  0
 31 36  1  0  0  0  0
 32 33  1  0  0  0  0
 32 35  1  0  0  0  0
 32 37  1  0  0  0  0
 33 34  2  0  0  0  0
 33 41  1  0  0  0  0
 35 38  1  0  0  0  0
 35 39  1  0  0  0  0
 35 40  1  0  0  0  0
 41 42  1  0  0  0  0
 41 43  1  0  0  0  0
 42 44  1  0  0  0  0
 42 45  1  0  0  0  0
 42 46  1  0  0  0  0
M  END
$$$$

  -OEChem-05262217223D

 46 46  0     1  0  0  0  0  0999 V2000
   -1.2118   -0.0362    3.2844 C   0  0  0  0  0  0  0  0  0  0  0  0
   -1.3798   -1.1218    2.7498 O   0  0  0  0  0  0  0  0  0  0  0  0
   -0.8890    0.0366    4.7647 C   0  0  0  0  0  0  0  0  0  0  0  0
   -1.6554    0.6152    5.2860 H   0  0  0  0  0  0  0  0  0  0  0  0
   -0.8544   -0.9692    5.1929 H   0  0  0  0  0  0  0  0  0  0  0  0
    0.0824    0.5154    4.9111 H   0  0  0  0  0  0  0  0  0  0  0  0
   -1.3138    1.1259    2.5481 N   0  0  0  0  0  0  0  0  0  0  0  0
   -1.4149    1.1641    1.0837 C   0  0  2  0  0  0  0  0  0  0  0  0
   -0.5530    2.3000    0.4803 C   0  0  0  0  0  0  0  0  0  0  0  0
   -0.4311    3.3410    1.1215 O   0  0  0  0  0  0  0  0  0  0  0  0
   -2.8899    1.3548    0.7203 C   0  0  0  0  0  0  0  0  0  0  0  0
   -1.0565    1.9960    3.0120 H   0  0  0  0  0  0  0  0  0  0  0  0
   -1.0593    0.2148    0.6732 H   0  0  0  0  0  0  0  0  0  0  0  0
   -3.2677    2.2932    1.1390 H   0  0  0  0  0  0  0  0  0  0  0  0
   -3.0208    1.3815   -0.3650 H   0  0  0  0  0  0  0  0  0  0  0  0
   -3.4861    0.5289    1.1210 H   0  0  0  0  0  0  0  0  0  0  0  0
    0.0269    2.2092   -0.7877 N   0  0  0  0  0  0  0  0  0  0  0  0
   -0.1402    0.9894   -1.6839 C   0  0  2  0  0  0  0  0  0  0  0  0
    0.9202   -0.1152   -1.5084 C   0  0  0  0  0  0  0  0  0  0  0  0
    1.5486   -0.1854   -0.4613 O   0  0  0  0  0  0  0  0  0  0  0  0
    0.1061    1.7676   -2.9606 C   0  0  0  0  0  0  0  0  0  0  0  0
   -0.3938    3.0969   -2.4188 C   0  0  0  0  0  0  0  0  0  0  0  0
    0.6632    3.4130   -1.4767 C   0  0  0  0  0  0  0  0  0  0  0  0
   -1.1492    0.5682   -1.6514 H   0  0  0  0  0  0  0  0  0  0  0  0
   -0.5076    1.4015   -3.7897 H   0  0  0  0  0  0  0  0  0  0  0  0
    1.1560    1.7835   -3.2791 H   0  0  0  0  0  0  0  0  0  0  0  0
   -0.3492    3.8349   -3.2260 H   0  0  0  0  0  0  0  0  0  0  0  0
   -1.4471    3.1276   -2.0762 H   0  0  0  0  0  0  0  0  0  0  0  0
    1.6991    3.2792   -1.8091 H   0  0  0  0  0  0  0  0  0  0  0  0
    0.5297    4.3761   -0.9723 H   0  0  0  0  0  0  0  0  0  0  0  0
    1.0503   -1.1095   -2.4655 N   0  0  0  0  0  0  0  0  0  0  0  0
    1.8298   -2.3588   -2.3334 C   0  0  2  0  0  0  0  0  0  0  0  0
    1.2808   -3.3333   -1.2634 C   0  0  0  0  0  0  0  0  0  0  0  0
    0.9084   -4.4473   -1.6074 O   0  0  0  0  0  0  0  0  0  0  0  0
    3.3233   -2.0753   -2.1183 C   0  0  0  0  0  0  0  0  0  0  0  0
    0.4242   -1.0429   -3.2629 H   0  0  0  0  0  0  0  0  0  0  0  0
    1.7480   -2.8836   -3.2908 H   0  0  0  0  0  0  0  0  0  0  0  0
    3.5130   -1.6553   -1.1264 H   0  0  0  0  0  0  0  0  0  0  0  0
    3.8953   -3.0041   -2.2072 H   0  0  0  0  0  0  0  0  0  0  0  0
    3.6883   -1.3699   -2.8708 H   0  0  0  0  0  0  0  0  0  0  0  0
    1.1339   -2.9429    0.0531 N   0  0  0  0  0  0  0  0  0  0  0  0
    0.4350   -3.7273    1.0616 C   0  0  0  0  0  0  0  0  0  0  0  0
    1.3562   -1.9655    0.2585 H   0  0  0  0  0  0  0  0  0  0  0  0
    0.9135   -4.7037    1.1893 H   0  0  0  0  0  0  0  0  0  0  0  0
    0.4539   -3.2052    2.0232 H   0  0  0  0  0  0  0  0  0  0  0  0
   -0.6098   -3.8792    0.7722 H   0  0  0  0  0  0  0  0  0  0  0  0
  1  2  2  0  0  0  0
  1  3  1  0  0  0  0
  1  7  1  0  0  0  0
  3  4  1  0  0  0  0
  3  5  1  0  0  0  0
  3  6  1  0  0  0  0
  7  8  1  0  0  0  0
  7 12  1  0  0  0  0
  8  9  1  0  0  0  0
  8 11  1  0  0  0  0
  8 13  1  0  0  0  0
  9 10  2  0  0  0  0
  9 17  1  0  0  0  0
 11 14  1  0  0  0  0
 11 15  1  0  0  0  0
 11 16  1  0  0  0  0
 17 18  1  0  0  0  0
 17 23  1  0  0  0  0
 18 19  1  0  0  0  0
 18 21  1  0  0  0  0
 18 24  1  0  0  0  0
 19 20  2  0  0  0  0
 19 31  1  0  0  0  0
 21 22  1  0  0  0  0
 21 25  1  0  0  0  0
 21 26  1  0  0  0  0
 22 23  1  0  0  0  0
 22 27  1  0  0  0  0
 22 28  1  0  0  0  0
 23 29  1  0  0  0  0
 23 30  1  0  0  0  0
 31 32  1  0  0  0  0
 31 36  1  0  0  0  0
 32 33  1  0  0  0  0
 32 35  1  0  0  0  0
 32 37  1  0  0  0  0
 33 34  2  0  0  0  0
 33 41  1  0  0  0  0
 35 38  1  0  0  0  0
 35 39  1  0  0  0  0
 35 40  1  0  0  0  0
 41 42  1  0  0  0  0
 41 43  1  0  0  0  0
 42 44  1  0  0  0  0
 42 45  1  0  0  0  0
 42 46  1  0  0  0  0
M  END
$$$$

  -OEChem-05262217223D

 46 46  0     1  0  0  0  0  0999 V2000
   -1.3298    0.0168    3.3010 C   0  0  0  0  0  0  0  0  0  0  0  0
   -1.6136   -1.0538    2.7858 O   0  0  0  0  0  0  0  0  0  0  0  0
   -1.0288    0.0889    4.7861 C   0  0  0  0  0  0  0  0  0  0  0  0
   -1.7426    0.7524    5.2798 H   0  0  0  0  0  0  0  0  0  0  0  0
   -1.1030   -0.9054    5.2348 H   0  0  0  0  0  0  0  0  0  0  0  0
   -0.0172    0.4708    4.9431 H   0  0  0  0  0  0  0  0  0  0  0  0
   -1.2828    1.1638    2.5371 N   0  0  0  0  0  0  0  0  0  0  0  0
   -1.3816    1.1836    1.0724 C   0  0  2  0  0  0  0  0  0  0  0  0
   -0.5293    2.3216    0.4596 C   0  0  0  0  0  0  0  0  0  0  0  0
   -0.3939    3.3584    1.1050 O   0  0  0  0  0  0  0  0  0  0  0  0
   -2.8573    1.3591    0.6993 C   0  0  0  0  0  0  0  0  0  0  0  0
   -0.9533    2.0163    2.9878 H   0  0  0  0  0  0  0  0  0  0  0  0
   -1.0151    0.2313    0.6782 H   0  0  0  0  0  0  0  0  0  0  0  0
   -3.2433    2.2993    1.1061 H   0  0  0  0  0  0  0  0  0  0  0  0
   -2.9837    1.3737   -0.3865 H   0  0  0  0  0  0  0  0  0  0  0  0
   -3.4510    0.5339    1.1052 H   0  0  0  0  0  0  0  0  0  0  0  0
    0.0352    2.2403   -0.8165 N   0  0  0  0  0  0  0  0  0  0  0  0
   -0.1361    1.0277   -1.7219 C   0  0  2  0  0  0  0  0  0  0  0  0
    0.9383   -0.0673   -1.5602 C   0  0  0  0  0  0  0  0  0  0  0  0
    1.4060   -0.2829   -0.4510 O   0  0  0  0  0  0  0  0  0  0  0  0
    0.0705    1.8228   -2.9962 C   0  0  0  0  0  0  0  0  0  0  0  0
   -0.4343    3.1397   -2.4297 C   0  0  0  0  0  0  0  0  0  0  0  0
    0.6408    3.4585   -1.5094 C   0  0  0  0  0  0  0  0  0  0  0  0
   -1.1387    0.5926   -1.6734 H   0  0  0  0  0  0  0  0  0  0  0  0
   -0.5587    1.4566   -3.8136 H   0  0  0  0  0  0  0  0  0  0  0  0
    1.1119    1.8583   -3.3399 H   0  0  0  0  0  0  0  0  0  0  0  0
   -0.4185    3.8863   -3.2299 H   0  0  0  0  0  0  0  0  0  0  0  0
   -1.4796    3.1531   -2.0623 H   0  0  0  0  0  0  0  0  0  0  0  0
    1.6696    3.3406   -1.8682 H   0  0  0  0  0  0  0  0  0  0  0  0
    0.5087    4.4157   -0.9934 H   0  0  0  0  0  0  0  0  0  0  0  0
    1.2993   -0.8711   -2.6311 N   0  0  0  0  0  0  0  0  0  0  0  0
    2.2336   -2.0165   -2.6029 C   0  0  2  0  0  0  0  0  0  0  0  0
    1.7251   -3.2358   -1.7978 C   0  0  0  0  0  0  0  0  0  0  0  0
    1.6056   -4.3161   -2.3607 O   0  0  0  0  0  0  0  0  0  0  0  0
    3.6329   -1.5901   -2.1358 C   0  0  0  0  0  0  0  0  0  0  0  0
    0.8147   -0.6938   -3.5059 H   0  0  0  0  0  0  0  0  0  0  0  0
    2.3409   -2.3611   -3.6366 H   0  0  0  0  0  0  0  0  0  0  0  0
    3.6392   -1.3342   -1.0724 H   0  0  0  0  0  0  0  0  0  0  0  0
    4.3433   -2.4082   -2.2900 H   0  0  0  0  0  0  0  0  0  0  0  0
    3.9762   -0.7215   -2.7054 H   0  0  0  0  0  0  0  0  0  0  0  0
    1.3655   -3.1195   -0.4699 N   0  0  0  0  0  0  0  0  0  0  0  0
    0.7770   -4.1949    0.3154 C   0  0  0  0  0  0  0  0  0  0  0  0
    1.4116   -2.1789   -0.0691 H   0  0  0  0  0  0  0  0  0  0  0  0
    1.4669   -5.0420    0.3839 H   0  0  0  0  0  0  0  0  0  0  0  0
    0.5585   -3.8444    1.3287 H   0  0  0  0  0  0  0  0  0  0  0  0
   -0.1578   -4.5355   -0.1411 H   0  0  0  0  0  0  0  0  0  0  0  0
  1  2  2  0  0  0  0
  1  3  1  0  0  0  0
  1  7  1  0  0  0  0
  3  4  1  0  0  0  0
  3  5  1  0  0  0  0
  3  6  1  0  0  0  0
  7  8  1  0  0  0  0
  7 12  1  0  0  0  0
  8  9  1  0  0  0  0
  8 11  1  0  0  0  0
  8 13  1  0  0  0  0
  9 10  2  0  0  0  0
  9 17  1  0  0  0  0
 11 14  1  0  0  0  0
 11 15  1  0  0  0  0
 11 16  1  0  0  0  0
 17 18  1  0  0  0  0
 17 23  1  0  0  0  0
 18 19  1  0  0  0  0
 18 21  1  0  0  0  0
 18 24  1  0  0  0  0
 19 20  2  0  0  0  0
 19 31  1  0  0  0  0
 21 22  1  0  0  0  0
 21 25  1  0  0  0  0
 21 26  1  0  0  0  0
 22 23  1  0  0  0  0
 22 27  1  0  0  0  0
 22 28  1  0  0  0  0
 23 29  1  0  0  0  0
 23 30  1  0  0  0  0
 31 32  1  0  0  0  0
 31 36  1  0  0  0  0
 32 33  1  0  0  0  0
 32 35  1  0  0  0  0
 32 37  1  0  0  0  0
 33 34  2  0  0  0  0
 33 41  1  0  0  0  0
 35 38  1  0  0  0  0
 35 39  1  0  0  0  0
 35 40  1  0  0  0  0
 41 42  1  0  0  0  0
 41 43  1  0  0  0  0
 42 44  1  0  0  0  0
 42 45  1  0  0  0  0
 42 46  1  0  0  0  0
M  END
$$$$

  -OEChem-05262217223D

 46 46  0     1  0  0  0  0  0999 V2000
   -1.3269    0.0665    3.3378 C   0  0  0  0  0  0  0  0  0  0  0  0
   -1.5972   -1.0217    2.8536 O   0  0  0  0  0  0  0  0  0  0  0  0
   -1.0731    0.1951    4.8279 C   0  0  0  0  0  0  0  0  0  0  0  0
   -1.7658    0.9192    5.2632 H   0  0  0  0  0  0  0  0  0  0  0  0
   -1.2170   -0.7707    5.3203 H   0  0  0  0  0  0  0  0  0  0  0  0
   -0.0481    0.5311    5.0033 H   0  0  0  0  0  0  0  0  0  0  0  0
   -1.2549    1.1853    2.5356 N   0  0  0  0  0  0  0  0  0  0  0  0
   -1.3195    1.1605    1.0691 C   0  0  2  0  0  0  0  0  0  0  0  0
   -0.5146    2.3298    0.4491 C   0  0  0  0  0  0  0  0  0  0  0  0
   -0.4179    3.3712    1.0947 O   0  0  0  0  0  0  0  0  0  0  0  0
   -2.7942    1.2486    0.6599 C   0  0  0  0  0  0  0  0  0  0  0  0
   -0.9576    2.0587    2.9683 H   0  0  0  0  0  0  0  0  0  0  0  0
   -0.8946    0.2195    0.7083 H   0  0  0  0  0  0  0  0  0  0  0  0
   -3.2425    2.1693    1.0471 H   0  0  0  0  0  0  0  0  0  0  0  0
   -2.8972    1.2445   -0.4283 H   0  0  0  0  0  0  0  0  0  0  0  0
   -3.3496    0.3950    1.0612 H   0  0  0  0  0  0  0  0  0  0  0  0
    0.0459    2.2786   -0.8315 N   0  0  0  0  0  0  0  0  0  0  0  0
   -0.0797    1.0669   -1.7464 C   0  0  2  0  0  0  0  0  0  0  0  0
    1.0394    0.0133   -1.6022 C   0  0  0  0  0  0  0  0  0  0  0  0
    1.3514   -0.3646   -0.4822 O   0  0  0  0  0  0  0  0  0  0  0  0
    0.0616    1.8849   -3.0173 C   0  0  0  0  0  0  0  0  0  0  0  0
   -0.4996    3.1673   -2.4281 C   0  0  0  0  0  0  0  0  0  0  0  0
    0.5745    3.5329   -1.5242 C   0  0  0  0  0  0  0  0  0  0  0  0
   -1.0595    0.5847   -1.6873 H   0  0  0  0  0  0  0  0  0  0  0  0
   -0.5633    1.4932   -3.8264 H   0  0  0  0  0  0  0  0  0  0  0  0
    1.0916    1.9852   -3.3813 H   0  0  0  0  0  0  0  0  0  0  0  0
   -0.5377    3.9214   -3.2206 H   0  0  0  0  0  0  0  0  0  0  0  0
   -1.5367    3.1226   -2.0419 H   0  0  0  0  0  0  0  0  0  0  0  0
    1.6015    3.4718   -1.9018 H   0  0  0  0  0  0  0  0  0  0  0  0
    0.4019    4.4783   -0.9983 H   0  0  0  0  0  0  0  0  0  0  0  0
    1.6469   -0.5515   -2.7143 N   0  0  0  0  0  0  0  0  0  0  0  0
    2.6822   -1.6064   -2.7228 C   0  0  2  0  0  0  0  0  0  0  0  0
    2.1903   -2.9898   -2.2352 C   0  0  0  0  0  0  0  0  0  0  0  0
    2.2988   -3.9580   -2.9760 O   0  0  0  0  0  0  0  0  0  0  0  0
    3.9409   -1.1658   -1.9615 C   0  0  0  0  0  0  0  0  0  0  0  0
    1.2898   -0.2504   -3.6163 H   0  0  0  0  0  0  0  0  0  0  0  0
    2.9815   -1.7440   -3.7670 H   0  0  0  0  0  0  0  0  0  0  0  0
    3.7593   -1.1122   -0.8842 H   0  0  0  0  0  0  0  0  0  0  0  0
    4.7500   -1.8826   -2.1329 H   0  0  0  0  0  0  0  0  0  0  0  0
    4.2707   -0.1821   -2.3084 H   0  0  0  0  0  0  0  0  0  0  0  0
    1.5948   -3.1464   -0.9994 N   0  0  0  0  0  0  0  0  0  0  0  0
    1.0395   -4.4010   -0.5123 C   0  0  0  0  0  0  0  0  0  0  0  0
    1.4793   -2.2971   -0.4400 H   0  0  0  0  0  0  0  0  0  0  0  0
    1.8233   -5.1614   -0.4340 H   0  0  0  0  0  0  0  0  0  0  0  0
    0.5961   -4.2571    0.4779 H   0  0  0  0  0  0  0  0  0  0  0  0
    0.2605   -4.7642   -1.1905 H   0  0  0  0  0  0  0  0  0  0  0  0
  1  2  2  0  0  0  0
  1  3  1  0  0  0  0
  1  7  1  0  0  0  0
  3  4  1  0  0  0  0
  3  5  1  0  0  0  0
  3  6  1  0  0  0  0
  7  8  1  0  0  0  0
  7 12  1  0  0  0  0
  8  9  1  0  0  0  0
  8 11  1  0  0  0  0
  8 13  1  0  0  0  0
  9 10  2  0  0  0  0
  9 17  1  0  0  0  0
 11 14  1  0  0  0  0
 11 15  1  0  0  0  0
 11 16  1  0  0  0  0
 17 18  1  0  0  0  0
 17 23  1  0  0  0  0
 18 19  1  0  0  0  0
 18 21  1  0  0  0  0
 18 24  1  0  0  0  0
 19 20  2  0  0  0  0
 19 31  1  0  0  0  0
 21 22  1  0  0  0  0
 21 25  1  0  0  0  0
 21 26  1  0  0  0  0
 22 23  1  0  0  0  0
 22 27  1  0  0  0  0
 22 28  1  0  0  0  0
 23 29  1  0  0  0  0
 23 30  1  0  0  0  0
 31 32  1  0  0  0  0
 31 36  1  0  0  0  0
 32 33  1  0  0  0  0
 32 35  1  0  0  0  0
 32 37  1  0  0  0  0
 33 34  2  0  0  0  0
 33 41  1  0  0  0  0
 35 38  1  0  0  0  0
 35 39  1  0  0  0  0
 35 40  1  0  0  0  0
 41 42  1  0  0  0  0
 41 43  1  0  0  0  0
 42 44  1  0  0  0  0
 42 45  1  0  0  0  0
 42 46  1  0  0  0  0
M  END
$$$$

  -OEChem-05262217223D

 46 46  0     1  0  0  0  0  0999 V2000
   -1.2912    0.0482    3.3270 C   0  0  0  0  0  0  0  0  0  0  0  0
   -1.5760   -1.0351    2.8408 O   0  0  0  0  0  0  0  0  0  0  0  0
   -1.0447    0.1715    4.8189 C   0  0  0  0  0  0  0  0  0  0  0  0
   -1.7607    0.8692    5.2599 H   0  0  0  0  0  0  0  0  0  0  0  0
   -1.1580   -0.8031    5.3017 H   0  0  0  0  0  0  0  0  0  0  0  0
   -0.0312    0.5379    4.9990 H   0  0  0  0  0  0  0  0  0  0  0  0
   -1.1976    1.1670    2.5269 N   0  0  0  0  0  0  0  0  0  0  0  0
   -1.2769    1.1536    1.0606 C   0  0  2  0  0  0  0  0  0  0  0  0
   -0.4985    2.3427    0.4421 C   0  0  0  0  0  0  0  0  0  0  0  0
   -0.4079    3.3763    1.1012 O   0  0  0  0  0  0  0  0  0  0  0  0
   -2.7575    1.2233    0.6684 C   0  0  0  0  0  0  0  0  0  0  0  0
   -0.9013    2.0383    2.9643 H   0  0  0  0  0  0  0  0  0  0  0  0
   -0.8449    0.2212    0.6877 H   0  0  0  0  0  0  0  0  0  0  0  0
   -3.2166    2.1322    1.0706 H   0  0  0  0  0  0  0  0  0  0  0  0
   -2.8719    1.2289   -0.4186 H   0  0  0  0  0  0  0  0  0  0  0  0
   -3.2957    0.3570    1.0661 H   0  0  0  0  0  0  0  0  0  0  0  0
    0.0489    2.3225   -0.8464 N   0  0  0  0  0  0  0  0  0  0  0  0
   -0.0626    1.1247   -1.7816 C   0  0  2  0  0  0  0  0  0  0  0  0
    1.0850    0.0962   -1.6606 C   0  0  0  0  0  0  0  0  0  0  0  0
    1.2636   -0.4500   -0.5821 O   0  0  0  0  0  0  0  0  0  0  0  0
    0.0181    1.9703   -3.0418 C   0  0  0  0  0  0  0  0  0  0  0  0
   -0.5675    3.2221   -2.4125 C   0  0  0  0  0  0  0  0  0  0  0  0
    0.5202    3.6046   -1.5307 C   0  0  0  0  0  0  0  0  0  0  0  0
   -1.0272    0.6143   -1.7081 H   0  0  0  0  0  0  0  0  0  0  0  0
   -0.6158    1.5718   -3.8405 H   0  0  0  0  0  0  0  0  0  0  0  0
    1.0304    2.1199   -3.4351 H   0  0  0  0  0  0  0  0  0  0  0  0
   -0.6514    3.9892   -3.1890 H   0  0  0  0  0  0  0  0  0  0  0  0
   -1.5921    3.1368   -1.9995 H   0  0  0  0  0  0  0  0  0  0  0  0
    1.5375    3.5816   -1.9373 H   0  0  0  0  0  0  0  0  0  0  0  0
    0.3355    4.5360   -0.9842 H   0  0  0  0  0  0  0  0  0  0  0  0
    1.9103   -0.2210   -2.7304 N   0  0  0  0  0  0  0  0  0  0  0  0
    3.0510   -1.1612   -2.7278 C   0  0  2  0  0  0  0  0  0  0  0  0
    2.6656   -2.6455   -2.5195 C   0  0  0  0  0  0  0  0  0  0  0  0
    2.9432   -3.4630   -3.3871 O   0  0  0  0  0  0  0  0  0  0  0  0
    4.1324   -0.7232   -1.7286 C   0  0  0  0  0  0  0  0  0  0  0  0
    1.6810    0.2210   -3.6154 H   0  0  0  0  0  0  0  0  0  0  0  0
    3.5054   -1.1060   -3.7225 H   0  0  0  0  0  0  0  0  0  0  0  0
    3.7935   -0.8389   -0.6949 H   0  0  0  0  0  0  0  0  0  0  0  0
    5.0323   -1.3325   -1.8607 H   0  0  0  0  0  0  0  0  0  0  0  0
    4.3982    0.3255   -1.8915 H   0  0  0  0  0  0  0  0  0  0  0  0
    1.9915   -3.0623   -1.3889 N   0  0  0  0  0  0  0  0  0  0  0  0
    1.5271   -4.4249   -1.1696 C   0  0  0  0  0  0  0  0  0  0  0  0
    1.7031   -2.3257   -0.7392 H   0  0  0  0  0  0  0  0  0  0  0  0
    1.0622   -4.5088   -0.1824 H   0  0  0  0  0  0  0  0  0  0  0  0
    0.7870   -4.7039   -1.9265 H   0  0  0  0  0  0  0  0  0  0  0  0
    2.3650   -5.1282   -1.2173 H   0  0  0  0  0  0  0  0  0  0  0  0
  1  2  2  0  0  0  0
  1  3  1  0  0  0  0
  1  7  1  0  0  0  0
  3  4  1  0  0  0  0
  3  5  1  0  0  0  0
  3  6  1  0  0  0  0
  7  8  1  0  0  0  0
  7 12  1  0  0  0  0
  8  9  1  0  0  0  0
  8 11  1  0  0  0  0
  8 13  1  0  0  0  0
  9 10  2  0  0  0  0
  9 17  1  0  0  0  0
 11 14  1  0  0  0  0
 11 15  1  0  0  0  0
 11 16  1  0  0  0  0
 17 18  1  0  0  0  0
 17 23  1  0  0  0  0
 18 19  1  0  0  0  0
 18 21  1  0  0  0  0
 18 24  1  0  0  0  0
 19 20  2  0  0  0  0
 19 31  1  0  0  0  0
 21 22  1  0  0  0  0
 21 25  1  0  0  0  0
 21 26  1  0  0  0  0
 22 23  1  0  0  0  0
 22 27  1  0  0  0  0
 22 28  1  0  0  0  0
 23 29  1  0  0  0  0
 23 30  1  0  0  0  0
 31 32  1  0  0  0  0
 31 36  1  0  0  0  0
 32 33  1  0  0  0  0
 32 35  1  0  0  0  0
 32 37  1  0  0  0  0
 33 34  2  0  0  0  0
 33 41  1  0  0  0  0
 35 38  1  0  0  0  0
 35 39  1  0  0  0  0
 35 40  1  0  0  0  0
 41 42  1  0  0  0  0
 41 43  1  0  0  0  0
 42 44  1  0  0  0  0
 42 45  1  0  0  0  0
 42 46  1  0  0  0  0
M  END
$$$$

  -OEChem-05262217223D

 46 46  0     1  0  0  0  0  0999 V2000
   -1.3036    0.0980    3.3296 C   0  0  0  0  0  0  0  0  0  0  0  0
   -1.5525   -0.9998    2.8571 O   0  0  0  0  0  0  0  0  0  0  0  0
   -1.1141    0.2557    4.8267 C   0  0  0  0  0  0  0  0  0  0  0  0
   -1.8722    0.9319    5.2291 H   0  0  0  0  0  0  0  0  0  0  0  0
   -1.2071   -0.7144    5.3231 H   0  0  0  0  0  0  0  0  0  0  0  0
   -0.1224    0.6646    5.0363 H   0  0  0  0  0  0  0  0  0  0  0  0
   -1.2034    1.2016    2.5093 N   0  0  0  0  0  0  0  0  0  0  0  0
   -1.2500    1.1617    1.0416 C   0  0  2  0  0  0  0  0  0  0  0  0
   -0.5141    2.3767    0.4221 C   0  0  0  0  0  0  0  0  0  0  0  0
   -0.4685    3.4157    1.0771 O   0  0  0  0  0  0  0  0  0  0  0  0
   -2.7230    1.1609    0.6134 C   0  0  0  0  0  0  0  0  0  0  0  0
   -0.9469    2.0895    2.9384 H   0  0  0  0  0  0  0  0  0  0  0  0
   -0.7672    0.2449    0.6940 H   0  0  0  0  0  0  0  0  0  0  0  0
   -3.2278    2.0586    0.9847 H   0  0  0  0  0  0  0  0  0  0  0  0
   -2.8126    1.1393   -0.4758 H   0  0  0  0  0  0  0  0  0  0  0  0
   -3.2354    0.2819    1.0169 H   0  0  0  0  0  0  0  0  0  0  0  0
    0.0492    2.3742   -0.8600 N   0  0  0  0  0  0  0  0  0  0  0  0
    0.0026    1.1721   -1.7949 C   0  0  2  0  0  0  0  0  0  0  0  0
    1.1962    0.2003   -1.6504 C   0  0  0  0  0  0  0  0  0  0  0  0
    1.2196   -0.5378   -0.6772 O   0  0  0  0  0  0  0  0  0  0  0  0
    0.0352    2.0165   -3.0589 C   0  0  0  0  0  0  0  0  0  0  0  0
   -0.6177    3.2343   -2.4299 C   0  0  0  0  0  0  0  0  0  0  0  0
    0.4481    3.6785   -1.5504 C   0  0  0  0  0  0  0  0  0  0  0  0
   -0.9346    0.6125   -1.7208 H   0  0  0  0  0  0  0  0  0  0  0  0
   -0.5777    1.5794   -3.8538 H   0  0  0  0  0  0  0  0  0  0  0  0
    1.0329    2.2256   -3.4595 H   0  0  0  0  0  0  0  0  0  0  0  0
   -0.7458    3.9946   -3.2070 H   0  0  0  0  0  0  0  0  0  0  0  0
   -1.6355    3.0921   -2.0161 H   0  0  0  0  0  0  0  0  0  0  0  0
    1.4647    3.7113   -1.9583 H   0  0  0  0  0  0  0  0  0  0  0  0
    0.2123    4.6003   -1.0075 H   0  0  0  0  0  0  0  0  0  0  0  0
    2.2278    0.1364   -2.5766 N   0  0  0  0  0  0  0  0  0  0  0  0
    3.4459   -0.6980   -2.5019 C   0  0  2  0  0  0  0  0  0  0  0  0
    3.2044   -2.2205   -2.6323 C   0  0  0  0  0  0  0  0  0  0  0  0
    3.7936   -2.8478   -3.5027 O   0  0  0  0  0  0  0  0  0  0  0  0
    4.2626   -0.3764   -1.2419 C   0  0  0  0  0  0  0  0  0  0  0  0
    2.1411    0.7495   -3.3809 H   0  0  0  0  0  0  0  0  0  0  0  0
    4.0687   -0.4202   -3.3585 H   0  0  0  0  0  0  0  0  0  0  0  0
    3.7548   -0.7241   -0.3376 H   0  0  0  0  0  0  0  0  0  0  0  0
    5.2385   -0.8693   -1.2932 H   0  0  0  0  0  0  0  0  0  0  0  0
    4.4240    0.7023   -1.1579 H   0  0  0  0  0  0  0  0  0  0  0  0
    2.3370   -2.8866   -1.7901 N   0  0  0  0  0  0  0  0  0  0  0  0
    2.0761   -4.3177   -1.8496 C   0  0  0  0  0  0  0  0  0  0  0  0
    1.8468   -2.3134   -1.0980 H   0  0  0  0  0  0  0  0  0  0  0  0
    2.9951   -4.8819   -1.6598 H   0  0  0  0  0  0  0  0  0  0  0  0
    1.3360   -4.5966   -1.0935 H   0  0  0  0  0  0  0  0  0  0  0  0
    1.6868   -4.5965   -2.8342 H   0  0  0  0  0  0  0  0  0  0  0  0
  1  2  2  0  0  0  0
  1  3  1  0  0  0  0
  1  7  1  0  0  0  0
  3  4  1  0  0  0  0
  3  5  1  0  0  0  0
  3  6  1  0  0  0  0
  7  8  1  0  0  0  0
  7 12  1  0  0  0  0
  8  9  1  0  0  0  0
  8 11  1  0  0  0  0
  8 13  1  0  0  0  0
  9 10  2  0  0  0  0
  9 17  1  0  0  0  0
 11 14  1  0  0  0  0
 11 15  1  0  0  0  0
 11 16  1  0  0  0  0
 17 18  1  0  0  0  0
 17 23  1  0  0  0  0
 18 19  1  0  0  0  0
 18 21  1  0  0  0  0
 18 24  1  0  0  0  0
 19 20  2  0  0  0  0
 19 31  1  0  0  0  0
 21 22  1  0  0  0  0
 21 25  1  0  0  0  0
 21 26  1  0  0  0  0
 22 23  1  0  0  0  0
 22 27  1  0  0  0  0
 22 28  1  0  0  0  0
 23 29  1  0  0  0  0
 23 30  1  0  0  0  0
 31 32  1  0  0  0  0
 31 36  1  0  0  0  0
 32 33  1  0  0  0  0
 32 35  1  0  0  0  0
 32 37  1  0  0  0  0
 33 34  2  0  0  0  0
 33 41  1  0  0  0  0
 35 38  1  0  0  0  0
 35 39  1  0  0  0  0
 35 40  1  0  0  0  0
 41 42  1  0  0  0  0
 41 43  1  0  0  0  0
 42 44  1  0  0  0  0
 42 45  1  0  0  0  0
 42 46  1  0  0  0  0
M  END
$$$$

  -OEChem-05262217223D

 46 46  0     1  0  0  0  0  0999 V2000
   -1.2267    0.1462    3.3646 C   0  0  0  0  0  0  0  0  0  0  0  0
   -1.4164   -0.9697    2.9080 O   0  0  0  0  0  0  0  0  0  0  0  0
   -1.0629    0.3357    4.8606 C   0  0  0  0  0  0  0  0  0  0  0  0
   -1.8812    0.9459    5.2497 H   0  0  0  0  0  0  0  0  0  0  0  0
   -1.0730   -0.6339    5.3667 H   0  0  0  0  0  0  0  0  0  0  0  0
   -0.1131    0.8329    5.0719 H   0  0  0  0  0  0  0  0  0  0  0  0
   -1.1660    1.2395    2.5268 N   0  0  0  0  0  0  0  0  0  0  0  0
   -1.2097    1.1734    1.0599 C   0  0  2  0  0  0  0  0  0  0  0  0
   -0.5464    2.4184    0.4192 C   0  0  0  0  0  0  0  0  0  0  0  0
   -0.5546    3.4692    1.0564 O   0  0  0  0  0  0  0  0  0  0  0  0
   -2.6804    1.0803    0.6334 C   0  0  0  0  0  0  0  0  0  0  0  0
   -0.9677    2.1479    2.9438 H   0  0  0  0  0  0  0  0  0  0  0  0
   -0.6726    0.2808    0.7269 H   0  0  0  0  0  0  0  0  0  0  0  0
   -3.2346    1.9564    0.9856 H   0  0  0  0  0  0  0  0  0  0  0  0
   -2.7686    1.0294   -0.4549 H   0  0  0  0  0  0  0  0  0  0  0  0
   -3.1429    0.1826    1.0556 H   0  0  0  0  0  0  0  0  0  0  0  0
    0.0182    2.4229   -0.8620 N   0  0  0  0  0  0  0  0  0  0  0  0
    0.0438    1.2021   -1.7717 C   0  0  2  0  0  0  0  0  0  0  0  0
    1.2952    0.3138   -1.5972 C   0  0  0  0  0  0  0  0  0  0  0  0
    1.2364   -0.5975   -0.7856 O   0  0  0  0  0  0  0  0  0  0  0  0
    0.0173    2.0135   -3.0563 C   0  0  0  0  0  0  0  0  0  0  0  0
   -0.7089    3.2005   -2.4485 C   0  0  0  0  0  0  0  0  0  0  0  0
    0.3292    3.7334   -1.5859 C   0  0  0  0  0  0  0  0  0  0  0  0
   -0.8563    0.5864   -1.6815 H   0  0  0  0  0  0  0  0  0  0  0  0
   -0.5736    1.5183   -3.8337 H   0  0  0  0  0  0  0  0  0  0  0  0
    0.9958    2.2730   -3.4740 H   0  0  0  0  0  0  0  0  0  0  0  0
   -0.8906    3.9327   -3.2412 H   0  0  0  0  0  0  0  0  0  0  0  0
   -1.7136    3.0033   -2.0262 H   0  0  0  0  0  0  0  0  0  0  0  0
    1.3391    3.8219   -2.0022 H   0  0  0  0  0  0  0  0  0  0  0  0
    0.0366    4.6506   -1.0632 H   0  0  0  0  0  0  0  0  0  0  0  0
    2.4580    0.5043   -2.3299 N   0  0  0  0  0  0  0  0  0  0  0  0
    3.7305   -0.2358   -2.1926 C   0  0  2  0  0  0  0  0  0  0  0  0
    3.6719   -1.7221   -2.6184 C   0  0  0  0  0  0  0  0  0  0  0  0
    4.4310   -2.1262   -3.4894 O   0  0  0  0  0  0  0  0  0  0  0  0
    4.3035   -0.0926   -0.7752 C   0  0  0  0  0  0  0  0  0  0  0  0
    2.4496    1.2849   -2.9785 H   0  0  0  0  0  0  0  0  0  0  0  0
    4.4461    0.2412   -2.8705 H   0  0  0  0  0  0  0  0  0  0  0  0
    3.6966   -0.6328   -0.0427 H   0  0  0  0  0  0  0  0  0  0  0  0
    5.3194   -0.4988   -0.7400 H   0  0  0  0  0  0  0  0  0  0  0  0
    4.3425    0.9616   -0.4852 H   0  0  0  0  0  0  0  0  0  0  0  0
    2.7822   -2.6030   -2.0370 N   0  0  0  0  0  0  0  0  0  0  0  0
    2.6697   -4.0095   -2.3957 C   0  0  0  0  0  0  0  0  0  0  0  0
    2.1332   -2.2045   -1.3528 H   0  0  0  0  0  0  0  0  0  0  0  0
    1.9127   -4.4970   -1.7738 H   0  0  0  0  0  0  0  0  0  0  0  0
    2.3773   -4.1150   -3.4454 H   0  0  0  0  0  0  0  0  0  0  0  0
    3.6252   -4.5216   -2.2415 H   0  0  0  0  0  0  0  0  0  0  0  0
  1  2  2  0  0  0  0
  1  3  1  0  0  0  0
  1  7  1  0  0  0  0
  3  4  1  0  0  0  0
  3  5  1  0  0  0  0
  3  6  1  0  0  0  0
  7  8  1  0  0  0  0
  7 12  1  0  0  0  0
  8  9  1  0  0  0  0
  8 11  1  0  0  0  0
  8 13  1  0  0  0  0
  9 10  2  0  0  0  0
  9 17  1  0  0  0  0
 11 14  1  0  0  0  0
 11 15  1  0  0  0  0
 11 16  1  0  0  0  0
 17 18  1  0  0  0  0
 17 23  1  0  0  0  0
 18 19  1  0  0  0  0
 18 21  1  0  0  0  0
 18 24  1  0  0  0  0
 19 20  2  0  0  0  0
 19 31  1  0  0  0  0
 21 22  1  0  0  0  0
 21 25  1  0  0  0  0
 21 26  1  0  0  0  0
 22 23  1  0  0  0  0
 22 27  1  0  0  0  0
 22 28  1  0  0  0  0
 23 29  1  0  0  0  0
 23 30  1  0  0  0  0
 31 32  1  0  0  0  0
 31 36  1  0  0  0  0
 32 33  1  0  0  0  0
 32 35  1  0  0  0  0
 32 37  1  0  0  0  0
 33 34  2  0  0  0  0
 33 41  1  0  0  0  0
 35 38  1  0  0  0  0
 35 39  1  0  0  0  0
 35 40  1  0  0  0  0
 41 42  1  0  0  0  0
 41 43  1  0  0  0  0
 42 44  1  0  0  0  0
 42 45  1  0  0  0  0
 42 46  1  0  0  0  0
M  END
$$$$

  -OEChem-05262217223D

 46 46  0     1  0  0  0  0  0999 V2000
   -1.2569    0.2895    3.4569 C   0  0  0  0  0  0  0  0  0  0  0  0
   -1.3188   -0.8603    3.0531 O   0  0  0  0  0  0  0  0  0  0  0  0
   -1.2092    0.5696    4.9471 C   0  0  0  0  0  0  0  0  0  0  0  0
   -2.0941    1.1356    5.2481 H   0  0  0  0  0  0  0  0  0  0  0  0
   -1.1839   -0.3696    5.5070 H   0  0  0  0  0  0  0  0  0  0  0  0
   -0.3147    1.1480    5.1908 H   0  0  0  0  0  0  0  0  0  0  0  0
   -1.2410    1.3386    2.5622 N   0  0  0  0  0  0  0  0  0  0  0  0
   -1.2144    1.1965    1.0997 C   0  0  2  0  0  0  0  0  0  0  0  0
   -0.6093    2.4535    0.4258 C   0  0  0  0  0  0  0  0  0  0  0  0
   -0.6990    3.5275    1.0158 O   0  0  0  0  0  0  0  0  0  0  0  0
   -2.6553    0.9759    0.6224 C   0  0  0  0  0  0  0  0  0  0  0  0
   -1.1522    2.2820    2.9373 H   0  0  0  0  0  0  0  0  0  0  0  0
   -0.5998    0.3305    0.8331 H   0  0  0  0  0  0  0  0  0  0  0  0
   -3.2871    1.8200    0.9168 H   0  0  0  0  0  0  0  0  0  0  0  0
   -2.6965    0.8765   -0.4651 H   0  0  0  0  0  0  0  0  0  0  0  0
   -3.0655    0.0628    1.0652 H   0  0  0  0  0  0  0  0  0  0  0  0
   -0.0076    2.4382   -0.8377 N   0  0  0  0  0  0  0  0  0  0  0  0
    0.1187    1.1847   -1.6923 C   0  0  2  0  0  0  0  0  0  0  0  0
    1.4121    0.3822   -1.4453 C   0  0  0  0  0  0  0  0  0  0  0  0
    1.3215   -0.6829   -0.8534 O   0  0  0  0  0  0  0  0  0  0  0  0
    0.1001    1.9349   -3.0124 C   0  0  0  0  0  0  0  0  0  0  0  0
   -0.7119    3.1045   -2.4839 C   0  0  0  0  0  0  0  0  0  0  0  0
    0.2593    3.7324   -1.6077 C   0  0  0  0  0  0  0  0  0  0  0  0
   -0.7486    0.5230   -1.6073 H   0  0  0  0  0  0  0  0  0  0  0  0
   -0.4339    1.3745   -3.7868 H   0  0  0  0  0  0  0  0  0  0  0  0
    1.0806    2.2227   -3.4062 H   0  0  0  0  0  0  0  0  0  0  0  0
   -0.9009    3.7918   -3.3146 H   0  0  0  0  0  0  0  0  0  0  0  0
   -1.7207    2.8695   -2.0909 H   0  0  0  0  0  0  0  0  0  0  0  0
    1.2784    3.8599   -1.9896 H   0  0  0  0  0  0  0  0  0  0  0  0
   -0.1047    4.6531   -1.1382 H   0  0  0  0  0  0  0  0  0  0  0  0
    2.6427    0.8079   -1.9222 N   0  0  0  0  0  0  0  0  0  0  0  0
    3.9544    0.1592   -1.7156 C   0  0  2  0  0  0  0  0  0  0  0  0
    4.1319   -1.1903   -2.4495 C   0  0  0  0  0  0  0  0  0  0  0  0
    5.0737   -1.3368   -3.2175 O   0  0  0  0  0  0  0  0  0  0  0  0
    4.2780    0.0196   -0.2210 C   0  0  0  0  0  0  0  0  0  0  0  0
    2.6449    1.7139   -2.3803 H   0  0  0  0  0  0  0  0  0  0  0  0
    4.7072    0.8322   -2.1389 H   0  0  0  0  0  0  0  0  0  0  0  0
    3.6341   -0.7228    0.2597 H   0  0  0  0  0  0  0  0  0  0  0  0
    5.3171   -0.2992   -0.0920 H   0  0  0  0  0  0  0  0  0  0  0  0
    4.1441    0.9786    0.2884 H   0  0  0  0  0  0  0  0  0  0  0  0
    3.2406   -2.2286   -2.2679 N   0  0  0  0  0  0  0  0  0  0  0  0
    3.3330   -3.5133   -2.9467 C   0  0  0  0  0  0  0  0  0  0  0  0
    2.4513   -2.0431   -1.6435 H   0  0  0  0  0  0  0  0  0  0  0  0
    2.5317   -4.1767   -2.6081 H   0  0  0  0  0  0  0  0  0  0  0  0
    3.2405   -3.3812   -4.0298 H   0  0  0  0  0  0  0  0  0  0  0  0
    4.2933   -3.9930   -2.7299 H   0  0  0  0  0  0  0  0  0  0  0  0
  1  2  2  0  0  0  0
  1  3  1  0  0  0  0
  1  7  1  0  0  0  0
  3  4  1  0  0  0  0
  3  5  1  0  0  0  0
  3  6  1  0  0  0  0
  7  8  1  0  0  0  0
  7 12  1  0  0  0  0
  8  9  1  0  0  0  0
  8 11  1  0  0  0  0
  8 13  1  0  0  0  0
  9 10  2  0  0  0  0
  9 17  1  0  0  0  0
 11 14  1  0  0  0  0
 11 15  1  0  0  0  0
 11 16  1  0  0  0  0
 17 18  1  0  0  0  0
 17 23  1  0  0  0  0
 18 19  1  0  0  0  0
 18 21  1  0  0  0  0
 18 24  1  0  0  0  0
 19 20  2  0  0  0  0
 19 31  1  0  0  0  0
 21 22  1  0  0  0  0
 21 25  1  0  0  0  0
 21 26  1  0  0  0  0
 22 23  1  0  0  0  0
 22 27  1  0  0  0  0
 22 28  1  0  0  0  0
 23 29  1  0  0  0  0
 23 30  1  0  0  0  0
 31 32  1  0  0  0  0
 31 36  1  0  0  0  0
 32 33  1  0  0  0  0
 32 35  1  0  0  0  0
 32 37  1  0  0  0  0
 33 34  2  0  0  0  0
 33 41  1  0  0  0  0
 35 38  1  0  0  0  0
 35 39  1  0  0  0  0
 35 40  1  0  0  0  0
 41 42  1  0  0  0  0
 41 43  1  0  0  0  0
 42 44  1  0  0  0  0
 42 45  1  0  0  0  0
 42 46  1  0  0  0  0
M  END
$$$$

  -OEChem-05262217223D

 46 46  0     1  0  0  0  0  0999 V2000
   -1.3145    0.3985    3.5139 C   0  0  0  0  0  0  0  0  0  0  0  0
   -1.2631   -0.7632    3.1447 O   0  0  0  0  0  0  0  0  0  0  0  0
   -1.3433    0.7241    4.9955 C   0  0  0  0  0  0  0  0  0  0  0  0
   -2.2730    1.2408    5.2463 H   0  0  0  0  0  0  0  0  0  0  0  0
   -1.2819   -0.1958    5.5838 H   0  0  0  0  0  0  0  0  0  0  0  0
   -0.4966    1.3644    5.2548 H   0  0  0  0  0  0  0  0  0  0  0  0
   -1.3514    1.4171    2.5853 N   0  0  0  0  0  0  0  0  0  0  0  0
   -1.2620    1.2301    1.1302 C   0  0  2  0  0  0  0  0  0  0  0  0
   -0.6840    2.4882    0.4364 C   0  0  0  0  0  0  0  0  0  0  0  0
   -0.8397    3.5777    0.9819 O   0  0  0  0  0  0  0  0  0  0  0  0
   -2.6734    0.9315    0.6097 C   0  0  0  0  0  0  0  0  0  0  0  0
   -1.3487    2.3759    2.9310 H   0  0  0  0  0  0  0  0  0  0  0  0
   -0.6018    0.3834    0.9136 H   0  0  0  0  0  0  0  0  0  0  0  0
   -3.3498    1.7590    0.8466 H   0  0  0  0  0  0  0  0  0  0  0  0
   -2.6696    0.7880   -0.4740 H   0  0  0  0  0  0  0  0  0  0  0  0
   -3.0628    0.0201    1.0743 H   0  0  0  0  0  0  0  0  0  0  0  0
   -0.0296    2.4508   -0.7993 N   0  0  0  0  0  0  0  0  0  0  0  0
    0.1841    1.1709   -1.5959 C   0  0  2  0  0  0  0  0  0  0  0  0
    1.4926    0.4265   -1.2742 C   0  0  0  0  0  0  0  0  0  0  0  0
    1.4265   -0.7435   -0.9278 O   0  0  0  0  0  0  0  0  0  0  0  0
    0.2141    1.8681   -2.9423 C   0  0  0  0  0  0  0  0  0  0  0  0
   -0.6638    3.0281   -2.5054 C   0  0  0  0  0  0  0  0  0  0  0  0
    0.2325    3.7250   -1.6040 C   0  0  0  0  0  0  0  0  0  0  0  0
   -0.6631    0.4813   -1.5285 H   0  0  0  0  0  0  0  0  0  0  0  0
   -0.2565    1.2611   -3.7227 H   0  0  0  0  0  0  0  0  0  0  0  0
    1.2098    2.1691   -3.2871 H   0  0  0  0  0  0  0  0  0  0  0  0
   -0.8292    3.6751   -3.3728 H   0  0  0  0  0  0  0  0  0  0  0  0
   -1.6844    2.7716   -2.1587 H   0  0  0  0  0  0  0  0  0  0  0  0
    1.2646    3.8790   -1.9375 H   0  0  0  0  0  0  0  0  0  0  0  0
   -0.1915    4.6475   -1.1922 H   0  0  0  0  0  0  0  0  0  0  0  0
    2.7231    1.0376   -1.4555 N   0  0  0  0  0  0  0  0  0  0  0  0
    4.0560    0.4603   -1.1863 C   0  0  2  0  0  0  0  0  0  0  0  0
    4.4677   -0.6891   -2.1359 C   0  0  0  0  0  0  0  0  0  0  0  0
    5.5174   -0.6065   -2.7599 O   0  0  0  0  0  0  0  0  0  0  0  0
    4.1892    0.0365    0.2831 C   0  0  0  0  0  0  0  0  0  0  0  0
    2.6867    2.0212   -1.7063 H   0  0  0  0  0  0  0  0  0  0  0  0
    4.7850    1.2607   -1.3509 H   0  0  0  0  0  0  0  0  0  0  0  0
    3.5565   -0.8268    0.5088 H   0  0  0  0  0  0  0  0  0  0  0  0
    5.2267   -0.2366    0.4994 H   0  0  0  0  0  0  0  0  0  0  0  0
    3.9030    0.8600    0.9442 H   0  0  0  0  0  0  0  0  0  0  0  0
    3.6676   -1.8005   -2.3079 N   0  0  0  0  0  0  0  0  0  0  0  0
    3.9830   -2.9037   -3.2041 C   0  0  0  0  0  0  0  0  0  0  0  0
    2.7880   -1.8103   -1.7847 H   0  0  0  0  0  0  0  0  0  0  0  0
    3.1956   -3.6620   -3.1589 H   0  0  0  0  0  0  0  0  0  0  0  0
    4.0632   -2.5477   -4.2365 H   0  0  0  0  0  0  0  0  0  0  0  0
    4.9310   -3.3704   -2.9169 H   0  0  0  0  0  0  0  0  0  0  0  0
  1  2  2  0  0  0  0
  1  3  1  0  0  0  0
  1  7  1  0  0  0  0
  3  4  1  0  0  0  0
  3  5  1  0  0  0  0
  3  6  1  0  0  0  0
  7  8  1  0  0  0  0
  7 12  1  0  0  0  0
  8  9  1  0  0  0  0
  8 11  1  0  0  0  0
  8 13  1  0  0  0  0
  9 10  2  0  0  0  0
  9 17  1  0  0  0  0
 11 14  1  0  0  0  0
 11 15  1  0  0  0  0
 11 16  1  0  0  0  0
 17 18  1  0  0  0  0
 17 23  1  0  0  0  0
 18 19  1  0  0  0  0
 18 21  1  0  0  0  0
 18 24  1  0  0  0  0
 19 20  2  0  0  0  0
 19 31  1  0  0  0  0
 21 22  1  0  0  0  0
 21 25  1  0  0  0  0
 21 26  1  0  0  0  0
 22 23  1  0  0  0  0
 22 27  1  0  0  0  0
 22 28  1  0  0  0  0
 23 29  1  0  0  0  0
 23 30  1  0  0  0  0
 31 32  1  0  0  0  0
 31 36  1  0  0  0  0
 32 33  1  0  0  0  0
 32 35  1  0  0  0  0
 32 37  1  0  0  0  0
 33 34  2  0  0  0  0
 33 41  1  0  0  0  0
 35 38  1  0  0  0  0
 35 39  1  0  0  0  0
 35 40  1  0  0  0  0
 41 42  1  0  0  0  0
 41 43  1  0  0  0  0
 42 44  1  0  0  0  0
 42 45  1  0  0  0  0
 42 46  1  0  0  0  0
M  END
$$$$

  -OEChem-05262217223D

 46 46  0     1  0  0  0  0  0999 V2000
   -1.1673    0.5076    3.5017 C   0  0  0  0  0  0  0  0  0  0  0  0
   -0.7337   -0.5858    3.1775 O   0  0  0  0  0  0  0  0  0  0  0  0
   -1.2336    0.8936    4.9674 C   0  0  0  0  0  0  0  0  0  0  0  0
   -2.2665    1.1132    5.2483 H   0  0  0  0  0  0  0  0  0  0  0  0
   -0.8661    0.0737    5.5910 H   0  0  0  0  0  0  0  0  0  0  0  0
   -0.6172    1.7775    5.1488 H   0  0  0  0  0  0  0  0  0  0  0  0
   -1.5947    1.4002    2.5412 N   0  0  0  0  0  0  0  0  0  0  0  0
   -1.4176    1.2151    1.0934 C   0  0  2  0  0  0  0  0  0  0  0  0
   -0.8200    2.4820    0.4339 C   0  0  0  0  0  0  0  0  0  0  0  0
   -1.0391    3.5714    0.9569 O   0  0  0  0  0  0  0  0  0  0  0  0
   -2.7950    0.8933    0.5055 C   0  0  0  0  0  0  0  0  0  0  0  0
   -1.8083    2.3452    2.8566 H   0  0  0  0  0  0  0  0  0  0  0  0
   -0.7380    0.3784    0.9010 H   0  0  0  0  0  0  0  0  0  0  0  0
   -3.4933    1.7140    0.6976 H   0  0  0  0  0  0  0  0  0  0  0  0
   -2.7328    0.7385   -0.5750 H   0  0  0  0  0  0  0  0  0  0  0  0
   -3.1939   -0.0184    0.9615 H   0  0  0  0  0  0  0  0  0  0  0  0
   -0.0855    2.4485   -0.7552 N   0  0  0  0  0  0  0  0  0  0  0  0
    0.2020    1.1669   -1.5255 C   0  0  2  0  0  0  0  0  0  0  0  0
    1.4951    0.4417   -1.1205 C   0  0  0  0  0  0  0  0  0  0  0  0
    1.4914   -0.7791   -1.0662 O   0  0  0  0  0  0  0  0  0  0  0  0
    0.3359    1.8580   -2.8662 C   0  0  0  0  0  0  0  0  0  0  0  0
   -0.5838    3.0135   -2.5091 C   0  0  0  0  0  0  0  0  0  0  0  0
    0.2308    3.7217   -1.5413 C   0  0  0  0  0  0  0  0  0  0  0  0
   -0.6396    0.4676   -1.5199 H   0  0  0  0  0  0  0  0  0  0  0  0
   -0.0614    1.2439   -3.6808 H   0  0  0  0  0  0  0  0  0  0  0  0
    1.3576    2.1622   -3.1231 H   0  0  0  0  0  0  0  0  0  0  0  0
   -0.6822    3.6546   -3.3910 H   0  0  0  0  0  0  0  0  0  0  0  0
   -1.6273    2.7503   -2.2449 H   0  0  0  0  0  0  0  0  0  0  0  0
    1.2854    3.8826   -1.7912 H   0  0  0  0  0  0  0  0  0  0  0  0
   -0.2320    4.6416   -1.1679 H   0  0  0  0  0  0  0  0  0  0  0  0
    2.6658    1.1585   -0.9357 N   0  0  0  0  0  0  0  0  0  0  0  0
    3.9851    0.6258   -0.5391 C   0  0  2  0  0  0  0  0  0  0  0  0
    4.6747   -0.2588   -1.6050 C   0  0  0  0  0  0  0  0  0  0  0  0
    5.8038    0.0254   -1.9826 O   0  0  0  0  0  0  0  0  0  0  0  0
    3.9016   -0.0983    0.8121 C   0  0  0  0  0  0  0  0  0  0  0  0
    2.5624    2.1692   -0.9682 H   0  0  0  0  0  0  0  0  0  0  0  0
    4.6437    1.4886   -0.3944 H   0  0  0  0  0  0  0  0  0  0  0  0
    3.3309   -1.0279    0.7319 H   0  0  0  0  0  0  0  0  0  0  0  0
    4.9069   -0.3461    1.1667 H   0  0  0  0  0  0  0  0  0  0  0  0
    3.4207    0.5412    1.5582 H   0  0  0  0  0  0  0  0  0  0  0  0
    4.0394   -1.3561   -2.1513 N   0  0  0  0  0  0  0  0  0  0  0  0
    4.6268   -2.2234   -3.1627 C   0  0  0  0  0  0  0  0  0  0  0  0
    3.0864   -1.5360   -1.8241 H   0  0  0  0  0  0  0  0  0  0  0  0
    3.9178   -3.0084   -3.4433 H   0  0  0  0  0  0  0  0  0  0  0  0
    4.8808   -1.6492   -4.0598 H   0  0  0  0  0  0  0  0  0  0  0  0
    5.5351   -2.6984   -2.7777 H   0  0  0  0  0  0  0  0  0  0  0  0
  1  2  2  0  0  0  0
  1  3  1  0  0  0  0
  1  7  1  0  0  0  0
  3  4  1  0  0  0  0
  3  5  1  0  0  0  0
  3  6  1  0  0  0  0
  7  8  1  0  0  0  0
  7 12  1  0  0  0  0
  8  9  1  0  0  0  0
  8 11  1  0  0  0  0
  8 13  1  0  0  0  0
  9 10  2  0  0  0  0
  9 17  1  0  0  0  0
 11 14  1  0  0  0  0
 11 15  1  0  0  0  0
 11 16  1  0  0  0  0
 17 18  1  0  0  0  0
 17 23  1  0  0  0  0
 18 19  1  0  0  0  0
 18 21  1  0  0  0  0
 18 24  1  0  0  0  0
 19 20  2  0  0  0  0
 19 31  1  0  0  0  0
 21 22  1  0  0  0  0
 21 25  1  0  0  0  0
 21 26  1  0  0  0  0
 22 23  1  0  0  0  0
 22 27  1  0  0  0  0
 22 28  1  0  0  0  0
 23 29  1  0  0  0  0
 23 30  1  0  0  0  0
 31 32  1  0  0  0  0
 31 36  1  0  0  0  0
 32 33  1  0  0  0  0
 32 35  1  0  0  0  0
 32 37  1  0  0  0  0
 33 34  2  0  0  0  0
 33 41  1  0  0  0  0
 35 38  1  0  0  0  0
 35 39  1  0  0  0  0
 35 40  1  0  0  0  0
 41 42  1  0  0  0  0
 41 43  1  0  0  0  0
 42 44  1  0  0  0  0
 42 45  1  0  0  0  0
 42 46  1  0  0  0  0
M  END
$$$$

  -OEChem-05262217223D

 46 46  0     1  0  0  0  0  0999 V2000
   -0.7110    0.9710    3.2177 C   0  0  0  0  0  0  0  0  0  0  0  0
    0.3326    0.5954    2.7054 O   0  0  0  0  0  0  0  0  0  0  0  0
   -0.7522    1.3199    4.6932 C   0  0  0  0  0  0  0  0  0  0  0  0
   -1.5111    0.7183    5.1995 H   0  0  0  0  0  0  0  0  0  0  0  0
    0.2194    1.1217    5.1550 H   0  0  0  0  0  0  0  0  0  0  0  0
   -0.9917    2.3789    4.8185 H   0  0  0  0  0  0  0  0  0  0  0  0
   -1.8381    1.1329    2.4372 N   0  0  0  0  0  0  0  0  0  0  0  0
   -1.7562    1.0989    0.9708 C   0  0  2  0  0  0  0  0  0  0  0  0
   -1.0803    2.3753    0.4094 C   0  0  0  0  0  0  0  0  0  0  0  0
   -1.3934    3.4599    0.8919 O   0  0  0  0  0  0  0  0  0  0  0  0
   -3.1741    0.9513    0.4142 C   0  0  0  0  0  0  0  0  0  0  0  0
   -2.5871    1.6798    2.8527 H   0  0  0  0  0  0  0  0  0  0  0  0
   -1.1766    0.2195    0.6746 H   0  0  0  0  0  0  0  0  0  0  0  0
   -3.7922    1.8075    0.7037 H   0  0  0  0  0  0  0  0  0  0  0  0
   -3.1503    0.8952   -0.6783 H   0  0  0  0  0  0  0  0  0  0  0  0
   -3.6391    0.0380    0.7983 H   0  0  0  0  0  0  0  0  0  0  0  0
   -0.1987    2.3545   -0.6745 N   0  0  0  0  0  0  0  0  0  0  0  0
    0.1885    1.0824   -1.4182 C   0  0  2  0  0  0  0  0  0  0  0  0
    1.4163    0.3312   -0.8780 C   0  0  0  0  0  0  0  0  0  0  0  0
    1.5657   -0.8416   -1.1938 O   0  0  0  0  0  0  0  0  0  0  0  0
    0.5250    1.7986   -2.7082 C   0  0  0  0  0  0  0  0  0  0  0  0
   -0.4262    2.9592   -2.4709 C   0  0  0  0  0  0  0  0  0  0  0  0
    0.2430    3.6377   -1.3791 C   0  0  0  0  0  0  0  0  0  0  0  0
   -0.6533    0.3948   -1.5487 H   0  0  0  0  0  0  0  0  0  0  0  0
    0.2506    1.2048   -3.5860 H   0  0  0  0  0  0  0  0  0  0  0  0
    1.5785    2.0920   -2.7989 H   0  0  0  0  0  0  0  0  0  0  0  0
   -0.3849    3.6170   -3.3450 H   0  0  0  0  0  0  0  0  0  0  0  0
   -1.4997    2.7054   -2.3689 H   0  0  0  0  0  0  0  0  0  0  0  0
    1.3250    3.7887   -1.4659 H   0  0  0  0  0  0  0  0  0  0  0  0
   -0.2609    4.5566   -1.0596 H   0  0  0  0  0  0  0  0  0  0  0  0
    2.4303    1.0358   -0.2522 N   0  0  0  0  0  0  0  0  0  0  0  0
    3.7068    0.4997    0.2639 C   0  0  2  0  0  0  0  0  0  0  0  0
    4.7092    0.0579   -0.8274 C   0  0  0  0  0  0  0  0  0  0  0  0
    5.8658    0.4576   -0.7860 O   0  0  0  0  0  0  0  0  0  0  0  0
    3.4728   -0.6302    1.2761 C   0  0  0  0  0  0  0  0  0  0  0  0
    2.1788    1.9821    0.0243 H   0  0  0  0  0  0  0  0  0  0  0  0
    4.1933    1.3153    0.8085 H   0  0  0  0  0  0  0  0  0  0  0  0
    3.0508   -1.5171    0.7947 H   0  0  0  0  0  0  0  0  0  0  0  0
    4.4200   -0.9153    1.7444 H   0  0  0  0  0  0  0  0  0  0  0  0
    2.7866   -0.3006    2.0614 H   0  0  0  0  0  0  0  0  0  0  0  0
    4.3265   -0.7834   -1.8529 N   0  0  0  0  0  0  0  0  0  0  0  0
    5.2260   -1.2731   -2.8874 C   0  0  0  0  0  0  0  0  0  0  0  0
    3.3570   -1.1100   -1.8282 H   0  0  0  0  0  0  0  0  0  0  0  0
    4.6788   -1.9023   -3.5958 H   0  0  0  0  0  0  0  0  0  0  0  0
    5.6681   -0.4358   -3.4373 H   0  0  0  0  0  0  0  0  0  0  0  0
    6.0304   -1.8689   -2.4437 H   0  0  0  0  0  0  0  0  0  0  0  0
  1  2  2  0  0  0  0
  1  3  1  0  0  0  0
  1  7  1  0  0  0  0
  3  4  1  0  0  0  0
  3  5  1  0  0  0  0
  3  6  1  0  0  0  0
  7  8  1  0  0  0  0
  7 12  1  0  0  0  0
  8  9  1  0  0  0  0
  8 11  1  0  0  0  0
  8 13  1  0  0  0  0
  9 10  2  0  0  0  0
  9 17  1  0  0  0  0
 11 14  1  0  0  0  0
 11 15  1  0  0  0  0
 11 16  1  0  0  0  0
 17 18  1  0  0  0  0
 17 23  1  0  0  0  0
 18 19  1  0  0  0  0
 18 21  1  0  0  0  0
 18 24  1  0  0  0  0
 19 20  2  0  0  0  0
 19 31  1  0  0  0  0
 21 22  1  0  0  0  0
 21 25  1  0  0  0  0
 21 26  1  0  0  0  0
 22 23  1  0  0  0  0
 22 27  1  0  0  0  0
 22 28  1  0  0  0  0
 23 29  1  0  0  0  0
 23 30  1  0  0  0  0
 31 32  1  0  0  0  0
 31 36  1  0  0  0  0
 32 33  1  0  0  0  0
 32 35  1  0  0  0  0
 32 37  1  0  0  0  0
 33 34  2  0  0  0  0
 33 41  1  0  0  0  0
 35 38  1  0  0  0  0
 35 39  1  0  0  0  0
 35 40  1  0  0  0  0
 41 42  1  0  0  0  0
 41 43  1  0  0  0  0
 42 44  1  0  0  0  0
 42 45  1  0  0  0  0
 42 46  1  0  0  0  0
M  END
$$$$

  -OEChem-05262217223D

 46 46  0     1  0  0  0  0  0999 V2000
   -0.8545    1.0829    3.3141 C   0  0  0  0  0  0  0  0  0  0  0  0
    0.2300    0.7286    2.8761 O   0  0  0  0  0  0  0  0  0  0  0  0
   -0.9986    1.4684    4.7743 C   0  0  0  0  0  0  0  0  0  0  0  0
   -1.8079    0.8966    5.2350 H   0  0  0  0  0  0  0  0  0  0  0  0
   -0.0695    1.2601    5.3129 H   0  0  0  0  0  0  0  0  0  0  0  0
   -1.2213    2.5353    4.8572 H   0  0  0  0  0  0  0  0  0  0  0  0
   -1.9357    1.1859    2.4620 N   0  0  0  0  0  0  0  0  0  0  0  0
   -1.7622    1.1148    1.0048 C   0  0  2  0  0  0  0  0  0  0  0  0
   -1.0867    2.3923    0.4448 C   0  0  0  0  0  0  0  0  0  0  0  0
   -1.4127    3.4795    0.9121 O   0  0  0  0  0  0  0  0  0  0  0  0
   -3.1379    0.9104    0.3670 C   0  0  0  0  0  0  0  0  0  0  0  0
   -2.7220    1.7248    2.8145 H   0  0  0  0  0  0  0  0  0  0  0  0
   -1.1410    0.2451    0.7701 H   0  0  0  0  0  0  0  0  0  0  0  0
   -3.7960    1.7559    0.5925 H   0  0  0  0  0  0  0  0  0  0  0  0
   -3.0447    0.8245   -0.7197 H   0  0  0  0  0  0  0  0  0  0  0  0
   -3.6013   -0.0051    0.7475 H   0  0  0  0  0  0  0  0  0  0  0  0
   -0.1887    2.3653   -0.6249 N   0  0  0  0  0  0  0  0  0  0  0  0
    0.2152    1.0869   -1.3489 C   0  0  2  0  0  0  0  0  0  0  0  0
    1.4378    0.3420   -0.7874 C   0  0  0  0  0  0  0  0  0  0  0  0
    1.7195   -0.7532   -1.2556 O   0  0  0  0  0  0  0  0  0  0  0  0
    0.5734    1.7949   -2.6371 C   0  0  0  0  0  0  0  0  0  0  0  0
   -0.3839    2.9558   -2.4295 C   0  0  0  0  0  0  0  0  0  0  0  0
    0.2655    3.6429   -1.3310 C   0  0  0  0  0  0  0  0  0  0  0  0
   -0.6226    0.3965   -1.4871 H   0  0  0  0  0  0  0  0  0  0  0  0
    0.3186    1.1941   -3.5160 H   0  0  0  0  0  0  0  0  0  0  0  0
    1.6280    2.0891   -2.7065 H   0  0  0  0  0  0  0  0  0  0  0  0
   -0.3275    3.6063   -3.3081 H   0  0  0  0  0  0  0  0  0  0  0  0
   -1.4585    2.7007   -2.3448 H   0  0  0  0  0  0  0  0  0  0  0  0
    1.3492    3.7933   -1.3982 H   0  0  0  0  0  0  0  0  0  0  0  0
   -0.2439    4.5640   -1.0279 H   0  0  0  0  0  0  0  0  0  0  0  0
    2.2854    0.9770    0.1035 N   0  0  0  0  0  0  0  0  0  0  0  0
    3.5093    0.4272    0.7214 C   0  0  2  0  0  0  0  0  0  0  0  0
    4.6913    0.2264   -0.2551 C   0  0  0  0  0  0  0  0  0  0  0  0
    5.7835    0.7157    0.0036 O   0  0  0  0  0  0  0  0  0  0  0  0
    3.2140   -0.8680    1.4905 C   0  0  0  0  0  0  0  0  0  0  0  0
    1.9249    1.8479    0.4888 H   0  0  0  0  0  0  0  0  0  0  0  0
    3.8465    1.1631    1.4587 H   0  0  0  0  0  0  0  0  0  0  0  0
    2.9525   -1.6843    0.8114 H   0  0  0  0  0  0  0  0  0  0  0  0
    4.0952   -1.1710    2.0642 H   0  0  0  0  0  0  0  0  0  0  0  0
    2.3853   -0.7166    2.1880 H   0  0  0  0  0  0  0  0  0  0  0  0
    4.5421   -0.5054   -1.4165 N   0  0  0  0  0  0  0  0  0  0  0  0
    5.6098   -0.7476   -2.3762 C   0  0  0  0  0  0  0  0  0  0  0  0
    3.6059   -0.8770   -1.5964 H   0  0  0  0  0  0  0  0  0  0  0  0
    5.9457    0.1947   -2.8213 H   0  0  0  0  0  0  0  0  0  0  0  0
    6.4622   -1.2313   -1.8878 H   0  0  0  0  0  0  0  0  0  0  0  0
    5.2540   -1.4029   -3.1769 H   0  0  0  0  0  0  0  0  0  0  0  0
  1  2  2  0  0  0  0
  1  3  1  0  0  0  0
  1  7  1  0  0  0  0
  3  4  1  0  0  0  0
  3  5  1  0  0  0  0
  3  6  1  0  0  0  0
  7  8  1  0  0  0  0
  7 12  1  0  0  0  0
  8  9  1  0  0  0  0
  8 11  1  0  0  0  0
  8 13  1  0  0  0  0
  9 10  2  0  0  0  0
  9 17  1  0  0  0  0
 11 14  1  0  0  0  0
 11 15  1  0  0  0  0
 11 16  1  0  0  0  0
 17 18  1  0  0  0  0
 17 23  1  0  0  0  0
 18 19  1  0  0  0  0
 18 21  1  0  0  0  0
 18 24  1  0  0  0  0
 19 20  2  0  0  0  0
 19 31  1  0  0  0  0
 21 22  1  0  0  0  0
 21 25  1  0  0  0  0
 21 26  1  0  0  0  0
 22 23  1  0  0  0  0
 22 27  1  0  0  0  0
 22 28  1  0  0  0  0
 23 29  1  0  0  0  0
 23 30  1  0  0  0  0
 31 32  1  0  0  0  0
 31 36  1  0  0  0  0
 32 33  1  0  0  0  0
 32 35  1  0  0  0  0
 32 37  1  0  0  0  0
 33 34  2  0  0  0  0
 33 41  1  0  0  0  0
 35 38  1  0  0  0  0
 35 39  1  0  0  0  0
 35 40  1  0  0  0  0
 41 42  1  0  0  0  0
 41 43  1  0  0  0  0
 42 44  1  0  0  0  0
 42 45  1  0  0  0  0
 42 46  1  0  0  0  0
M  END
$$$$

  -OEChem-05262217223D

 46 46  0     1  0  0  0  0  0999 V2000
   -0.8926    1.2154    3.2826 C   0  0  0  0  0  0  0  0  0  0  0  0
    0.2098    0.9612    2.8185 O   0  0  0  0  0  0  0  0  0  0  0  0
   -1.0405    1.5725    4.7492 C   0  0  0  0  0  0  0  0  0  0  0  0
   -1.7613    0.9045    5.2269 H   0  0  0  0  0  0  0  0  0  0  0  0
   -0.0782    1.4744    5.2596 H   0  0  0  0  0  0  0  0  0  0  0  0
   -1.3873    2.6042    4.8481 H   0  0  0  0  0  0  0  0  0  0  0  0
   -1.9956    1.2235    2.4520 N   0  0  0  0  0  0  0  0  0  0  0  0
   -1.8472    1.1575    0.9918 C   0  0  2  0  0  0  0  0  0  0  0  0
   -1.1454    2.4199    0.4291 C   0  0  0  0  0  0  0  0  0  0  0  0
   -1.4894    3.5166    0.8597 O   0  0  0  0  0  0  0  0  0  0  0  0
   -3.2370    0.9961    0.3726 C   0  0  0  0  0  0  0  0  0  0  0  0
   -2.8259    1.6770    2.8228 H   0  0  0  0  0  0  0  0  0  0  0  0
   -1.2537    0.2723    0.7472 H   0  0  0  0  0  0  0  0  0  0  0  0
   -3.8666    1.8591    0.6124 H   0  0  0  0  0  0  0  0  0  0  0  0
   -3.1614    0.9152   -0.7160 H   0  0  0  0  0  0  0  0  0  0  0  0
   -3.7210    0.0921    0.7548 H   0  0  0  0  0  0  0  0  0  0  0  0
   -0.2063    2.3654   -0.6039 N   0  0  0  0  0  0  0  0  0  0  0  0
    0.2264    1.0733   -1.2886 C   0  0  2  0  0  0  0  0  0  0  0  0
    1.4257    0.3241   -0.6787 C   0  0  0  0  0  0  0  0  0  0  0  0
    1.8691   -0.6485   -1.2759 O   0  0  0  0  0  0  0  0  0  0  0  0
    0.6427    1.7641   -2.5697 C   0  0  0  0  0  0  0  0  0  0  0  0
   -0.3188    2.9306   -2.4241 C   0  0  0  0  0  0  0  0  0  0  0  0
    0.2857    3.6300   -1.3072 C   0  0  0  0  0  0  0  0  0  0  0  0
   -0.6079    0.3846   -1.4537 H   0  0  0  0  0  0  0  0  0  0  0  0
    0.4262    1.1505   -3.4502 H   0  0  0  0  0  0  0  0  0  0  0  0
    1.7005    2.0554   -2.5970 H   0  0  0  0  0  0  0  0  0  0  0  0
   -0.2203    3.5680   -3.3086 H   0  0  0  0  0  0  0  0  0  0  0  0
   -1.3971    2.6802   -2.3832 H   0  0  0  0  0  0  0  0  0  0  0  0
    1.3721    3.7735   -1.3262 H   0  0  0  0  0  0  0  0  0  0  0  0
   -0.2308    4.5584   -1.0407 H   0  0  0  0  0  0  0  0  0  0  0  0
    2.0671    0.8186    0.4434 N   0  0  0  0  0  0  0  0  0  0  0  0
    3.1959    0.2024    1.1702 C   0  0  2  0  0  0  0  0  0  0  0  0
    4.5465    0.2130    0.4168 C   0  0  0  0  0  0  0  0  0  0  0  0
    5.5605    0.5877    0.9923 O   0  0  0  0  0  0  0  0  0  0  0  0
    2.8434   -1.2154    1.6406 C   0  0  0  0  0  0  0  0  0  0  0  0
    1.5415    1.5276    0.9559 H   0  0  0  0  0  0  0  0  0  0  0  0
    3.3496    0.8053    2.0717 H   0  0  0  0  0  0  0  0  0  0  0  0
    2.7668   -1.9071    0.7970 H   0  0  0  0  0  0  0  0  0  0  0  0
    3.6183   -1.5877    2.3177 H   0  0  0  0  0  0  0  0  0  0  0  0
    1.8898   -1.2107    2.1768 H   0  0  0  0  0  0  0  0  0  0  0  0
    4.6411   -0.2152   -0.8925 N   0  0  0  0  0  0  0  0  0  0  0  0
    5.8843   -0.2704   -1.6480 C   0  0  0  0  0  0  0  0  0  0  0  0
    3.7750   -0.5557   -1.3172 H   0  0  0  0  0  0  0  0  0  0  0  0
    6.3374    0.7241   -1.7121 H   0  0  0  0  0  0  0  0  0  0  0  0
    6.5938   -0.9515   -1.1671 H   0  0  0  0  0  0  0  0  0  0  0  0
    5.6926   -0.6294   -2.6638 H   0  0  0  0  0  0  0  0  0  0  0  0
  1  2  2  0  0  0  0
  1  3  1  0  0  0  0
  1  7  1  0  0  0  0
  3  4  1  0  0  0  0
  3  5  1  0  0  0  0
  3  6  1  0  0  0  0
  7  8  1  0  0  0  0
  7 12  1  0  0  0  0
  8  9  1  0  0  0  0
  8 11  1  0  0  0  0
  8 13  1  0  0  0  0
  9 10  2  0  0  0  0
  9 17  1  0  0  0  0
 11 14  1  0  0  0  0
 11 15  1  0  0  0  0
 11 16  1  0  0  0  0
 17 18  1  0  0  0  0
 17 23  1  0  0  0  0
 18 19  1  0  0  0  0
 18 21  1  0  0  0  0
 18 24  1  0  0  0  0
 19 20  2  0  0  0  0
 19 31  1  0  0  0  0
 21 22  1  0  0  0  0
 21 25  1  0  0  0  0
 21 26  1  0  0  0  0
 22 23  1  0  0  0  0
 22 27  1  0  0  0  0
 22 28  1  0  0  0  0
 23 29  1  0  0  0  0
 23 30  1  0  0  0  0
 31 32  1  0  0  0  0
 31 36  1  0  0  0  0
 32 33  1  0  0  0  0
 32 35  1  0  0  0  0
 32 37  1  0  0  0  0
 33 34  2  0  0  0  0
 33 41  1  0  0  0  0
 35 38  1  0  0  0  0
 35 39  1  0  0  0  0
 35 40  1  0  0  0  0
 41 42  1  0  0  0  0
 41 43  1  0  0  0  0
 42 44  1  0  0  0  0
 42 45  1  0  0  0  0
 42 46  1  0  0  0  0
M  END
$$$$

  -OEChem-05262217223D

 46 46  0     1  0  0  0  0  0999 V2000
   -1.0662    1.3072    3.3550 C   0  0  0  0  0  0  0  0  0  0  0  0
    0.0562    1.0201    2.9640 O   0  0  0  0  0  0  0  0  0  0  0  0
   -1.2932    1.7276    4.7942 C   0  0  0  0  0  0  0  0  0  0  0  0
   -2.0169    1.0608    5.2694 H   0  0  0  0  0  0  0  0  0  0  0  0
   -0.3537    1.6831    5.3527 H   0  0  0  0  0  0  0  0  0  0  0  0
   -1.6739    2.7516    4.8271 H   0  0  0  0  0  0  0  0  0  0  0  0
   -2.1176    1.2989    2.4607 N   0  0  0  0  0  0  0  0  0  0  0  0
   -1.8819    1.1862    1.0148 C   0  0  2  0  0  0  0  0  0  0  0  0
   -1.1686    2.4413    0.4498 C   0  0  0  0  0  0  0  0  0  0  0  0
   -1.5292    3.5435    0.8517 O   0  0  0  0  0  0  0  0  0  0  0  0
   -3.2317    0.9804    0.3239 C   0  0  0  0  0  0  0  0  0  0  0  0
   -2.9570    1.7848    2.7646 H   0  0  0  0  0  0  0  0  0  0  0  0
   -1.2623    0.3034    0.8333 H   0  0  0  0  0  0  0  0  0  0  0  0
   -3.8857    1.8421    0.4938 H   0  0  0  0  0  0  0  0  0  0  0  0
   -3.0930    0.8591   -0.7548 H   0  0  0  0  0  0  0  0  0  0  0  0
   -3.7254    0.0841    0.7123 H   0  0  0  0  0  0  0  0  0  0  0  0
   -0.2055    2.3730   -0.5601 N   0  0  0  0  0  0  0  0  0  0  0  0
    0.2444    1.0709   -1.2137 C   0  0  2  0  0  0  0  0  0  0  0  0
    1.4319    0.3255   -0.5721 C   0  0  0  0  0  0  0  0  0  0  0  0
    2.0100   -0.5271   -1.2339 O   0  0  0  0  0  0  0  0  0  0  0  0
    0.6777    1.7448   -2.4994 C   0  0  0  0  0  0  0  0  0  0  0  0
   -0.2911    2.9092   -2.3911 C   0  0  0  0  0  0  0  0  0  0  0  0
    0.2928    3.6286   -1.2759 C   0  0  0  0  0  0  0  0  0  0  0  0
   -0.5860    0.3789   -1.3826 H   0  0  0  0  0  0  0  0  0  0  0  0
    0.4794    1.1158   -3.3733 H   0  0  0  0  0  0  0  0  0  0  0  0
    1.7346    2.0397   -2.5140 H   0  0  0  0  0  0  0  0  0  0  0  0
   -0.1801    3.5319   -3.2844 H   0  0  0  0  0  0  0  0  0  0  0  0
   -1.3690    2.6555   -2.3633 H   0  0  0  0  0  0  0  0  0  0  0  0
    1.3787    3.7773   -1.2799 H   0  0  0  0  0  0  0  0  0  0  0  0
   -0.2316    4.5591   -1.0325 H   0  0  0  0  0  0  0  0  0  0  0  0
    1.8691    0.6343    0.7048 N   0  0  0  0  0  0  0  0  0  0  0  0
    2.9016   -0.0725    1.4914 C   0  0  2  0  0  0  0  0  0  0  0  0
    4.3549    0.0553    0.9753 C   0  0  0  0  0  0  0  0  0  0  0  0
    5.2720    0.1743    1.7782 O   0  0  0  0  0  0  0  0  0  0  0  0
    2.5201   -1.5451    1.6898 C   0  0  0  0  0  0  0  0  0  0  0  0
    1.2554    1.2504    1.2426 H   0  0  0  0  0  0  0  0  0  0  0  0
    2.8996    0.3924    2.4832 H   0  0  0  0  0  0  0  0  0  0  0  0
    2.5835   -2.1012    0.7501 H   0  0  0  0  0  0  0  0  0  0  0  0
    3.1983   -2.0130    2.4102 H   0  0  0  0  0  0  0  0  0  0  0  0
    1.4993   -1.6227    2.0762 H   0  0  0  0  0  0  0  0  0  0  0  0
    4.6546   -0.0113   -0.3712 N   0  0  0  0  0  0  0  0  0  0  0  0
    6.0109   -0.0292   -0.9012 C   0  0  0  0  0  0  0  0  0  0  0  0
    3.8725   -0.2455   -0.9871 H   0  0  0  0  0  0  0  0  0  0  0  0
    6.5572    0.8660   -0.5861 H   0  0  0  0  0  0  0  0  0  0  0  0
    6.5489   -0.9144   -0.5460 H   0  0  0  0  0  0  0  0  0  0  0  0
    5.9880   -0.0518   -1.9948 H   0  0  0  0  0  0  0  0  0  0  0  0
  1  2  2  0  0  0  0
  1  3  1  0  0  0  0
  1  7  1  0  0  0  0
  3  4  1  0  0  0  0
  3  5  1  0  0  0  0
  3  6  1  0  0  0  0
  7  8  1  0  0  0  0
  7 12  1  0  0  0  0
  8  9  1  0  0  0  0
  8 11  1  0  0  0  0
  8 13  1  0  0  0  0
  9 10  2  0  0  0  0
  9 17  1  0  0  0  0
 11 14  1  0  0  0  0
 11 15  1  0  0  0  0
 11 16  1  0  0  0  0
 17 18  1  0  0  0  0
 17 23  1  0  0  0  0
 18 19  1  0  0  0  0
 18 21  1  0  0  0  0
 18 24  1  0  0  0  0
 19 20  2  0  0  0  0
 19 31  1  0  0  0  0
 21 22  1  0  0  0  0
 21 25  1  0  0  0  0
 21 26  1  0  0  0  0
 22 23  1  0  0  0  0
 22 27  1  0  0  0  0
 22 28  1  0  0  0  0
 23 29  1  0  0  0  0
 23 30  1  0  0  0  0
 31 32  1  0  0  0  0
 31 36  1  0  0  0  0
 32 33  1  0  0  0  0
 32 35  1  0  0  0  0
 32 37  1  0  0  0  0
 33 34  2  0  0  0  0
 33 41  1  0  0  0  0
 35 38  1  0  0  0  0
 35 39  1  0  0  0  0
 35 40  1  0  0  0  0
 41 42  1  0  0  0  0
 41 43  1  0  0  0  0
 42 44  1  0  0  0  0
 42 45  1  0  0  0  0
 42 46  1  0  0  0  0
M  END
$$$$

  -OEChem-05262217223D

 46 46  0     1  0  0  0  0  0999 V2000
   -1.2774    1.3368    3.4276 C   0  0  0  0  0  0  0  0  0  0  0  0
   -0.1618    0.9480    3.1139 O   0  0  0  0  0  0  0  0  0  0  0  0
   -1.5625    1.7901    4.8463 C   0  0  0  0  0  0  0  0  0  0  0  0
   -2.4029    1.2260    5.2579 H   0  0  0  0  0  0  0  0  0  0  0  0
   -0.6847    1.6260    5.4781 H   0  0  0  0  0  0  0  0  0  0  0  0
   -1.8072    2.8552    4.8541 H   0  0  0  0  0  0  0  0  0  0  0  0
   -2.2617    1.4075    2.4637 N   0  0  0  0  0  0  0  0  0  0  0  0
   -1.9386    1.2605    1.0382 C   0  0  2  0  0  0  0  0  0  0  0  0
   -1.1736    2.4921    0.4896 C   0  0  0  0  0  0  0  0  0  0  0  0
   -1.5147    3.6054    0.8773 O   0  0  0  0  0  0  0  0  0  0  0  0
   -3.2483    1.0585    0.2737 C   0  0  0  0  0  0  0  0  0  0  0  0
   -3.0707    1.9740    2.7047 H   0  0  0  0  0  0  0  0  0  0  0  0
   -1.3244    0.3649    0.9079 H   0  0  0  0  0  0  0  0  0  0  0  0
   -3.9004    1.9302    0.3915 H   0  0  0  0  0  0  0  0  0  0  0  0
   -3.0503    0.9165   -0.7930 H   0  0  0  0  0  0  0  0  0  0  0  0
   -3.7739    0.1747    0.6484 H   0  0  0  0  0  0  0  0  0  0  0  0
   -0.1878    2.3907   -0.4960 N   0  0  0  0  0  0  0  0  0  0  0  0
    0.2376    1.0724   -1.1337 C   0  0  2  0  0  0  0  0  0  0  0  0
    1.3885    0.2918   -0.4609 C   0  0  0  0  0  0  0  0  0  0  0  0
    2.0843   -0.4394   -1.1549 O   0  0  0  0  0  0  0  0  0  0  0  0
    0.7078    1.7290   -2.4167 C   0  0  0  0  0  0  0  0  0  0  0  0
   -0.2312    2.9193   -2.3310 C   0  0  0  0  0  0  0  0  0  0  0  0
    0.3564    3.6275   -1.2102 C   0  0  0  0  0  0  0  0  0  0  0  0
   -0.6093    0.4040   -1.3144 H   0  0  0  0  0  0  0  0  0  0  0  0
    0.5062    1.1010   -3.2904 H   0  0  0  0  0  0  0  0  0  0  0  0
    1.7720    1.9967   -2.4179 H   0  0  0  0  0  0  0  0  0  0  0  0
   -0.0896    3.5337   -3.2255 H   0  0  0  0  0  0  0  0  0  0  0  0
   -1.3156    2.6950   -2.3191 H   0  0  0  0  0  0  0  0  0  0  0  0
    1.4461    3.7446   -1.1971 H   0  0  0  0  0  0  0  0  0  0  0  0
   -0.1445    4.5736   -0.9787 H   0  0  0  0  0  0  0  0  0  0  0  0
    1.6152    0.3644    0.9041 N   0  0  0  0  0  0  0  0  0  0  0  0
    2.5666   -0.4371    1.7029 C   0  0  2  0  0  0  0  0  0  0  0  0
    4.0687   -0.1800    1.4323 C   0  0  0  0  0  0  0  0  0  0  0  0
    4.8515   -0.1211    2.3724 O   0  0  0  0  0  0  0  0  0  0  0  0
    2.2425   -1.9325    1.5948 C   0  0  0  0  0  0  0  0  0  0  0  0
    0.9635    0.9376    1.4460 H   0  0  0  0  0  0  0  0  0  0  0  0
    2.4032   -0.1522    2.7478 H   0  0  0  0  0  0  0  0  0  0  0  0
    2.4669   -2.3160    0.5954 H   0  0  0  0  0  0  0  0  0  0  0  0
    2.8389   -2.4962    2.3191 H   0  0  0  0  0  0  0  0  0  0  0  0
    1.1837   -2.1069    1.8086 H   0  0  0  0  0  0  0  0  0  0  0  0
    4.5647   -0.0793    0.1476 N   0  0  0  0  0  0  0  0  0  0  0  0
    5.9813    0.0232   -0.1735 C   0  0  0  0  0  0  0  0  0  0  0  0
    3.8899   -0.2435   -0.6030 H   0  0  0  0  0  0  0  0  0  0  0  0
    6.4115    0.9247    0.2748 H   0  0  0  0  0  0  0  0  0  0  0  0
    6.5233   -0.8510    0.2018 H   0  0  0  0  0  0  0  0  0  0  0  0
    6.1181    0.0767   -1.2578 H   0  0  0  0  0  0  0  0  0  0  0  0
  1  2  2  0  0  0  0
  1  3  1  0  0  0  0
  1  7  1  0  0  0  0
  3  4  1  0  0  0  0
  3  5  1  0  0  0  0
  3  6  1  0  0  0  0
  7  8  1  0  0  0  0
  7 12  1  0  0  0  0
  8  9  1  0  0  0  0
  8 11  1  0  0  0  0
  8 13  1  0  0  0  0
  9 10  2  0  0  0  0
  9 17  1  0  0  0  0
 11 14  1  0  0  0  0
 11 15  1  0  0  0  0
 11 16  1  0  0  0  0
 17 18  1  0  0  0  0
 17 23  1  0  0  0  0
 18 19  1  0  0  0  0
 18 21  1  0  0  0  0
 18 24  1  0  0  0  0
 19 20  2  0  0  0  0
 19 31  1  0  0  0  0
 21 22  1  0  0  0  0
 21 25  1  0  0  0  0
 21 26  1  0  0  0  0
 22 23  1  0  0  0  0
 22 27  1  0  0  0  0
 22 28  1  0  0  0  0
 23 29  1  0  0  0  0
 23 30  1  0  0  0  0
 31 32  1  0  0  0  0
 31 36  1  0  0  0  0
 32 33  1  0  0  0  0
 32 35  1  0  0  0  0
 32 37  1  0  0  0  0
 33 34  2  0  0  0  0
 33 41  1  0  0  0  0
 35 38  1  0  0  0  0
 35 39  1  0  0  0  0
 35 40  1  0  0  0  0
 41 42  1  0  0  0  0
 41 43  1  0  0  0  0
 42 44  1  0  0  0  0
 42 45  1  0  0  0  0
 42 46  1  0  0  0  0
M  END
$$$$

  -OEChem-05262217223D

 46 46  0     1  0  0  0  0  0999 V2000
   -1.4568    1.3572    3.4598 C   0  0  0  0  0  0  0  0  0  0  0  0
   -0.4020    0.7986    3.1985 O   0  0  0  0  0  0  0  0  0  0  0  0
   -1.7317    1.8697    4.8604 C   0  0  0  0  0  0  0  0  0  0  0  0
   -2.6631    1.4421    5.2393 H   0  0  0  0  0  0  0  0  0  0  0  0
   -0.9156    1.5880    5.5318 H   0  0  0  0  0  0  0  0  0  0  0  0
   -1.8167    2.9593    4.8483 H   0  0  0  0  0  0  0  0  0  0  0  0
   -2.3739    1.5627    2.4508 N   0  0  0  0  0  0  0  0  0  0  0  0
   -2.0152    1.3612    1.0404 C   0  0  2  0  0  0  0  0  0  0  0  0
   -1.1551    2.5282    0.4928 C   0  0  0  0  0  0  0  0  0  0  0  0
   -1.4342    3.6667    0.8565 O   0  0  0  0  0  0  0  0  0  0  0  0
   -3.3133    1.2374    0.2394 C   0  0  0  0  0  0  0  0  0  0  0  0
   -3.0968    2.2489    2.6523 H   0  0  0  0  0  0  0  0  0  0  0  0
   -1.4649    0.4219    0.9400 H   0  0  0  0  0  0  0  0  0  0  0  0
   -3.9062    2.1538    0.3250 H   0  0  0  0  0  0  0  0  0  0  0  0
   -3.0947    1.0648   -0.8187 H   0  0  0  0  0  0  0  0  0  0  0  0
   -3.9104    0.3985    0.6105 H   0  0  0  0  0  0  0  0  0  0  0  0
   -0.1513    2.3487   -0.4638 N   0  0  0  0  0  0  0  0  0  0  0  0
    0.2097    0.9976   -1.0726 C   0  0  2  0  0  0  0  0  0  0  0  0
    1.2958    0.1569   -0.3578 C   0  0  0  0  0  0  0  0  0  0  0  0
    2.1148   -0.4500   -1.0374 O   0  0  0  0  0  0  0  0  0  0  0  0
    0.7288    1.6044   -2.3631 C   0  0  0  0  0  0  0  0  0  0  0  0
   -0.1453    2.8441   -2.3103 C   0  0  0  0  0  0  0  0  0  0  0  0
    0.4682    3.5400   -1.1953 C   0  0  0  0  0  0  0  0  0  0  0  0
   -0.6725    0.3774   -1.2554 H   0  0  0  0  0  0  0  0  0  0  0  0
    0.5037    0.9707   -3.2268 H   0  0  0  0  0  0  0  0  0  0  0  0
    1.8052    1.8179   -2.3585 H   0  0  0  0  0  0  0  0  0  0  0  0
    0.0389    3.4331   -3.2141 H   0  0  0  0  0  0  0  0  0  0  0  0
   -1.2404    2.6785   -2.3068 H   0  0  0  0  0  0  0  0  0  0  0  0
    1.5624    3.5984   -1.1717 H   0  0  0  0  0  0  0  0  0  0  0  0
    0.0183    4.5169   -0.9887 H   0  0  0  0  0  0  0  0  0  0  0  0
    1.3079   -0.0102    1.0185 N   0  0  0  0  0  0  0  0  0  0  0  0
    2.1807   -0.9047    1.8099 C   0  0  2  0  0  0  0  0  0  0  0  0
    3.6832   -0.5359    1.8316 C   0  0  0  0  0  0  0  0  0  0  0  0
    4.3195   -0.6447    2.8724 O   0  0  0  0  0  0  0  0  0  0  0  0
    1.9896   -2.3696    1.3956 C   0  0  0  0  0  0  0  0  0  0  0  0
    0.6333    0.5354    1.5617 H   0  0  0  0  0  0  0  0  0  0  0  0
    1.8414   -0.8217    2.8480 H   0  0  0  0  0  0  0  0  0  0  0  0
    2.4110   -2.5603    0.4045 H   0  0  0  0  0  0  0  0  0  0  0  0
    2.4925   -3.0275    2.1115 H   0  0  0  0  0  0  0  0  0  0  0  0
    0.9258   -2.6243    1.3800 H   0  0  0  0  0  0  0  0  0  0  0  0
    4.3442   -0.1453    0.6841 N   0  0  0  0  0  0  0  0  0  0  0  0
    5.7788    0.0907    0.6108 C   0  0  0  0  0  0  0  0  0  0  0  0
    3.7995   -0.1983   -0.1796 H   0  0  0  0  0  0  0  0  0  0  0  0
    6.0738    0.8777    1.3123 H   0  0  0  0  0  0  0  0  0  0  0  0
    6.3301   -0.8236    0.8534 H   0  0  0  0  0  0  0  0  0  0  0  0
    6.0563    0.4071   -0.3990 H   0  0  0  0  0  0  0  0  0  0  0  0
  1  2  2  0  0  0  0
  1  3  1  0  0  0  0
  1  7  1  0  0  0  0
  3  4  1  0  0  0  0
  3  5  1  0  0  0  0
  3  6  1  0  0  0  0
  7  8  1  0  0  0  0
  7 12  1  0  0  0  0
  8  9  1  0  0  0  0
  8 11  1  0  0  0  0
  8 13  1  0  0  0  0
  9 10  2  0  0  0  0
  9 17  1  0  0  0  0
 11 14  1  0  0  0  0
 11 15  1  0  0  0  0
 11 16  1  0  0  0  0
 17 18  1  0  0  0  0
 17 23  1  0  0  0  0
 18 19  1  0  0  0  0
 18 21  1  0  0  0  0
 18 24  1  0  0  0  0
 19 20  2  0  0  0  0
 19 31  1  0  0  0  0
 21 22  1  0  0  0  0
 21 25  1  0  0  0  0
 21 26  1  0  0  0  0
 22 23  1  0  0  0  0
 22 27  1  0  0  0  0
 22 28  1  0  0  0  0
 23 29  1  0  0  0  0
 23 30  1  0  0  0  0
 31 32  1  0  0  0  0
 31 36  1  0  0  0  0
 32 33  1  0  0  0  0
 32 35  1  0  0  0  0
 32 37  1  0  0  0  0
 33 34  2  0  0  0  0
 33 41  1  0  0  0  0
 35 38  1  0  0  0  0
 35 39  1  0  0  0  0
 35 40  1  0  0  0  0
 41 42  1  0  0  0  0
 41 43  1  0  0  0  0
 42 44  1  0  0  0  0
 42 45  1  0  0  0  0
 42 46  1  0  0  0  0
M  END
$$$$

  -OEChem-05262217223D

 46 46  0     1  0  0  0  0  0999 V2000
   -1.6519    1.1076    3.4325 C   0  0  0  0  0  0  0  0  0  0  0  0
   -0.8971    0.1967    3.1304 O   0  0  0  0  0  0  0  0  0  0  0  0
   -1.7962    1.5426    4.8783 C   0  0  0  0  0  0  0  0  0  0  0  0
   -2.8358    1.4381    5.1980 H   0  0  0  0  0  0  0  0  0  0  0  0
   -1.1655    0.9238    5.5231 H   0  0  0  0  0  0  0  0  0  0  0  0
   -1.4916    2.5865    4.9866 H   0  0  0  0  0  0  0  0  0  0  0  0
   -2.3460    1.7604    2.4368 N   0  0  0  0  0  0  0  0  0  0  0  0
   -2.0579    1.5645    1.0092 C   0  0  2  0  0  0  0  0  0  0  0  0
   -1.0428    2.6061    0.4794 C   0  0  0  0  0  0  0  0  0  0  0  0
   -1.1689    3.7652    0.8627 O   0  0  0  0  0  0  0  0  0  0  0  0
   -3.3822    1.6923    0.2527 C   0  0  0  0  0  0  0  0  0  0  0  0
   -2.7690    2.6473    2.7026 H   0  0  0  0  0  0  0  0  0  0  0  0
   -1.6743    0.5566    0.8369 H   0  0  0  0  0  0  0  0  0  0  0  0
   -3.8125    2.6888    0.3977 H   0  0  0  0  0  0  0  0  0  0  0  0
   -3.2271    1.5348   -0.8190 H   0  0  0  0  0  0  0  0  0  0  0  0
   -4.0987    0.9473    0.6122 H   0  0  0  0  0  0  0  0  0  0  0  0
   -0.0524    2.3061   -0.4617 N   0  0  0  0  0  0  0  0  0  0  0  0
    0.1560    0.9266   -1.0806 C   0  0  2  0  0  0  0  0  0  0  0  0
    1.1272   -0.0308   -0.3398 C   0  0  0  0  0  0  0  0  0  0  0  0
    2.0796   -0.5064   -0.9467 O   0  0  0  0  0  0  0  0  0  0  0  0
    0.7469    1.4799   -2.3669 C   0  0  0  0  0  0  0  0  0  0  0  0
    0.0191    2.8095   -2.3067 C   0  0  0  0  0  0  0  0  0  0  0  0
    0.7058    3.4211   -1.1834 C   0  0  0  0  0  0  0  0  0  0  0  0
   -0.7895    0.4122   -1.2755 H   0  0  0  0  0  0  0  0  0  0  0  0
    0.4538    0.8817   -3.2354 H   0  0  0  0  0  0  0  0  0  0  0  0
    1.8402    1.5760   -2.3647 H   0  0  0  0  0  0  0  0  0  0  0  0
    0.2722    3.3807   -3.2056 H   0  0  0  0  0  0  0  0  0  0  0  0
   -1.0876    2.7688   -2.3072 H   0  0  0  0  0  0  0  0  0  0  0  0
    1.7995    3.3500   -1.1542 H   0  0  0  0  0  0  0  0  0  0  0  0
    0.3735    4.4432   -0.9725 H   0  0  0  0  0  0  0  0  0  0  0  0
    0.9097   -0.4359    0.9690 N   0  0  0  0  0  0  0  0  0  0  0  0
    1.7237   -1.3835    1.7626 C   0  0  2  0  0  0  0  0  0  0  0  0
    3.1528   -0.9018    2.1105 C   0  0  0  0  0  0  0  0  0  0  0  0
    3.5974   -1.0792    3.2378 O   0  0  0  0  0  0  0  0  0  0  0  0
    1.7597   -2.7727    1.1114 C   0  0  0  0  0  0  0  0  0  0  0  0
    0.1512    0.0186    1.4829 H   0  0  0  0  0  0  0  0  0  0  0  0
    1.2088   -1.4995    2.7223 H   0  0  0  0  0  0  0  0  0  0  0  0
    2.3632   -2.7690    0.1996 H   0  0  0  0  0  0  0  0  0  0  0  0
    2.1970   -3.4975    1.8051 H   0  0  0  0  0  0  0  0  0  0  0  0
    0.7470   -3.1011    0.8604 H   0  0  0  0  0  0  0  0  0  0  0  0
    3.9622   -0.3098    1.1611 N   0  0  0  0  0  0  0  0  0  0  0  0
    5.3421    0.0892    1.3977 C   0  0  0  0  0  0  0  0  0  0  0  0
    3.5870   -0.2847    0.2102 H   0  0  0  0  0  0  0  0  0  0  0  0
    5.3948    0.8181    2.2132 H   0  0  0  0  0  0  0  0  0  0  0  0
    5.9529   -0.7806    1.6607 H   0  0  0  0  0  0  0  0  0  0  0  0
    5.7601    0.5485    0.4968 H   0  0  0  0  0  0  0  0  0  0  0  0
  1  2  2  0  0  0  0
  1  3  1  0  0  0  0
  1  7  1  0  0  0  0
  3  4  1  0  0  0  0
  3  5  1  0  0  0  0
  3  6  1  0  0  0  0
  7  8  1  0  0  0  0
  7 12  1  0  0  0  0
  8  9  1  0  0  0  0
  8 11  1  0  0  0  0
  8 13  1  0  0  0  0
  9 10  2  0  0  0  0
  9 17  1  0  0  0  0
 11 14  1  0  0  0  0
 11 15  1  0  0  0  0
 11 16  1  0  0  0  0
 17 18  1  0  0  0  0
 17 23  1  0  0  0  0
 18 19  1  0  0  0  0
 18 21  1  0  0  0  0
 18 24  1  0  0  0  0
 19 20  2  0  0  0  0
 19 31  1  0  0  0  0
 21 22  1  0  0  0  0
 21 25  1  0  0  0  0
 21 26  1  0  0  0  0
 22 23  1  0  0  0  0
 22 27  1  0  0  0  0
 22 28  1  0  0  0  0
 23 29  1  0  0  0  0
 23 30  1  0  0  0  0
 31 32  1  0  0  0  0
 31 36  1  0  0  0  0
 32 33  1  0  0  0  0
 32 35  1  0  0  0  0
 32 37  1  0  0  0  0
 33 34  2  0  0  0  0
 33 41  1  0  0  0  0
 35 38  1  0  0  0  0
 35 39  1  0  0  0  0
 35 40  1  0  0  0  0
 41 42  1  0  0  0  0
 41 43  1  0  0  0  0
 42 44  1  0  0  0  0
 42 45  1  0  0  0  0
 42 46  1  0  0  0  0
M  END
$$$$

  -OEChem-05262217223D

 46 46  0     1  0  0  0  0  0999 V2000
   -1.6199    0.6921    3.1136 C   0  0  0  0  0  0  0  0  0  0  0  0
   -1.9815   -0.3029    2.5077 O   0  0  0  0  0  0  0  0  0  0  0  0
   -1.0759    0.5502    4.5222 C   0  0  0  0  0  0  0  0  0  0  0  0
   -1.7364    1.0535    5.2322 H   0  0  0  0  0  0  0  0  0  0  0  0
   -1.0015   -0.5063    4.7952 H   0  0  0  0  0  0  0  0  0  0  0  0
   -0.0785    0.9939    4.5841 H   0  0  0  0  0  0  0  0  0  0  0  0
   -1.6699    1.9455    2.5345 N   0  0  0  0  0  0  0  0  0  0  0  0
   -1.9861    2.3384    1.1429 C   0  0  2  0  0  0  0  0  0  0  0  0
   -0.7247    2.8937    0.4220 C   0  0  0  0  0  0  0  0  0  0  0  0
   -0.4010    4.0111    0.8113 O   0  0  0  0  0  0  0  0  0  0  0  0
   -2.8781    1.3740    0.3433 C   0  0  0  0  0  0  0  0  0  0  0  0
   -1.2750    2.6865    3.1115 H   0  0  0  0  0  0  0  0  0  0  0  0
   -2.6288    3.2193    1.2499 H   0  0  0  0  0  0  0  0  0  0  0  0
   -3.8250    1.2252    0.8718 H   0  0  0  0  0  0  0  0  0  0  0  0
   -3.0990    1.7954   -0.6421 H   0  0  0  0  0  0  0  0  0  0  0  0
   -2.4183    0.3951    0.2078 H   0  0  0  0  0  0  0  0  0  0  0  0
    0.0933    2.3017   -0.5582 N   0  0  0  0  0  0  0  0  0  0  0  0
   -0.0461    0.9156   -1.1916 C   0  0  2  0  0  0  0  0  0  0  0  0
    0.7085   -0.2177   -0.4481 C   0  0  0  0  0  0  0  0  0  0  0  0
    1.8057   -0.6059   -0.8338 O   0  0  0  0  0  0  0  0  0  0  0  0
    0.6226    1.3074   -2.5002 C   0  0  0  0  0  0  0  0  0  0  0  0
    0.2384    2.7687   -2.4217 C   0  0  0  0  0  0  0  0  0  0  0  0
    1.0915    3.1819   -1.3214 C   0  0  0  0  0  0  0  0  0  0  0  0
   -1.0760    0.6229   -1.3901 H   0  0  0  0  0  0  0  0  0  0  0  0
    0.1616    0.8019   -3.3545 H   0  0  0  0  0  0  0  0  0  0  0  0
    1.7057    1.1421   -2.5472 H   0  0  0  0  0  0  0  0  0  0  0  0
    0.5927    3.2684   -3.3289 H   0  0  0  0  0  0  0  0  0  0  0  0
   -0.8445    2.9962   -2.3839 H   0  0  0  0  0  0  0  0  0  0  0  0
    2.1306    2.8324   -1.3176 H   0  0  0  0  0  0  0  0  0  0  0  0
    1.0457    4.2587   -1.1260 H   0  0  0  0  0  0  0  0  0  0  0  0
    0.2109   -0.7254    0.7400 N   0  0  0  0  0  0  0  0  0  0  0  0
    0.8991   -1.6256    1.6871 C   0  0  2  0  0  0  0  0  0  0  0  0
    2.0889   -0.9486    2.4013 C   0  0  0  0  0  0  0  0  0  0  0  0
    2.0310   -0.7296    3.6056 O   0  0  0  0  0  0  0  0  0  0  0  0
    1.3012   -2.9590    1.0400 C   0  0  0  0  0  0  0  0  0  0  0  0
   -0.6959   -0.3689    1.0510 H   0  0  0  0  0  0  0  0  0  0  0  0
    0.1753   -1.8748    2.4698 H   0  0  0  0  0  0  0  0  0  0  0  0
    2.1169   -2.8303    0.3234 H   0  0  0  0  0  0  0  0  0  0  0  0
    1.6358   -3.6605    1.8105 H   0  0  0  0  0  0  0  0  0  0  0  0
    0.4453   -3.3993    0.5200 H   0  0  0  0  0  0  0  0  0  0  0  0
    3.1783   -0.5013    1.6810 N   0  0  0  0  0  0  0  0  0  0  0  0
    4.2420    0.3137    2.2496 C   0  0  0  0  0  0  0  0  0  0  0  0
    3.0860   -0.5621    0.6635 H   0  0  0  0  0  0  0  0  0  0  0  0
    3.8376    1.2549    2.6360 H   0  0  0  0  0  0  0  0  0  0  0  0
    4.7378   -0.2203    3.0668 H   0  0  0  0  0  0  0  0  0  0  0  0
    4.9894    0.5446    1.4847 H   0  0  0  0  0  0  0  0  0  0  0  0
  1  2  2  0  0  0  0
  1  3  1  0  0  0  0
  1  7  1  0  0  0  0
  3  4  1  0  0  0  0
  3  5  1  0  0  0  0
  3  6  1  0  0  0  0
  7  8  1  0  0  0  0
  7 12  1  0  0  0  0
  8  9  1  0  0  0  0
  8 11  1  0  0  0  0
  8 13  1  0  0  0  0
  9 10  2  0  0  0  0
  9 17  1  0  0  0  0
 11 14  1  0  0  0  0
 11 15  1  0  0  0  0
 11 16  1  0  0  0  0
 17 18  1  0  0  0  0
 17 23  1  0  0  0  0
 18 19  1  0  0  0  0
 18 21  1  0  0  0  0
 18 24  1  0  0  0  0
 19 20  2  0  0  0  0
 19 31  1  0  0  0  0
 21 22  1  0  0  0  0
 21 25  1  0  0  0  0
 21 26  1  0  0  0  0
 22 23  1  0  0  0  0
 22 27  1  0  0  0  0
 22 28  1  0  0  0  0
 23 29  1  0  0  0  0
 23 30  1  0  0  0  0
 31 32  1  0  0  0  0
 31 36  1  0  0  0  0
 32 33  1  0  0  0  0
 32 35  1  0  0  0  0
 32 37  1  0  0  0  0
 33 34  2  0  0  0  0
 33 41  1  0  0  0  0
 35 38  1  0  0  0  0
 35 39  1  0  0  0  0
 35 40  1  0  0  0  0
 41 42  1  0  0  0  0
 41 43  1  0  0  0  0
 42 44  1  0  0  0  0
 42 45  1  0  0  0  0
 42 46  1  0  0  0  0
M  END
$$$$

  -OEChem-05262217223D

 46 46  0     1  0  0  0  0  0999 V2000
   -1.7875    0.2020    2.8682 C   0  0  0  0  0  0  0  0  0  0  0  0
   -2.1737   -0.6731    2.1053 O   0  0  0  0  0  0  0  0  0  0  0  0
   -1.4610   -0.1222    4.3130 C   0  0  0  0  0  0  0  0  0  0  0  0
   -2.2362    0.2773    4.9709 H   0  0  0  0  0  0  0  0  0  0  0  0
   -1.3997   -1.2054    4.4515 H   0  0  0  0  0  0  0  0  0  0  0  0
   -0.4982    0.3162    4.5887 H   0  0  0  0  0  0  0  0  0  0  0  0
   -1.6448    1.4885    2.3928 N   0  0  0  0  0  0  0  0  0  0  0  0
   -1.8994    1.9023    1.0058 C   0  0  2  0  0  0  0  0  0  0  0  0
   -0.6965    2.6742    0.4092 C   0  0  0  0  0  0  0  0  0  0  0  0
   -0.4671    3.7966    0.8478 O   0  0  0  0  0  0  0  0  0  0  0  0
   -3.1696    2.7606    1.0051 C   0  0  0  0  0  0  0  0  0  0  0  0
   -1.2649    2.1828    3.0338 H   0  0  0  0  0  0  0  0  0  0  0  0
   -2.1025    1.0347    0.3779 H   0  0  0  0  0  0  0  0  0  0  0  0
   -3.0462    3.6391    1.6469 H   0  0  0  0  0  0  0  0  0  0  0  0
   -3.3968    3.1017   -0.0095 H   0  0  0  0  0  0  0  0  0  0  0  0
   -4.0201    2.1784    1.3732 H   0  0  0  0  0  0  0  0  0  0  0  0
    0.1293    2.1694   -0.6023 N   0  0  0  0  0  0  0  0  0  0  0  0
   -0.0302    0.8006   -1.2594 C   0  0  2  0  0  0  0  0  0  0  0  0
    0.7512   -0.3332   -0.5503 C   0  0  0  0  0  0  0  0  0  0  0  0
    1.9353   -0.5332   -0.7971 O   0  0  0  0  0  0  0  0  0  0  0  0
    0.5976    1.2314   -2.5754 C   0  0  0  0  0  0  0  0  0  0  0  0
    0.2096    2.6918   -2.4427 C   0  0  0  0  0  0  0  0  0  0  0  0
    1.0889    3.0904   -1.3572 C   0  0  0  0  0  0  0  0  0  0  0  0
   -1.0726    0.5096   -1.4126 H   0  0  0  0  0  0  0  0  0  0  0  0
    0.1149    0.7482   -3.4304 H   0  0  0  0  0  0  0  0  0  0  0  0
    1.6795    1.0719   -2.6549 H   0  0  0  0  0  0  0  0  0  0  0  0
    0.5360    3.2167   -3.3460 H   0  0  0  0  0  0  0  0  0  0  0  0
   -0.8733    2.9130   -2.3712 H   0  0  0  0  0  0  0  0  0  0  0  0
    2.1329    2.7583   -1.3993 H   0  0  0  0  0  0  0  0  0  0  0  0
    1.0248    4.1561   -1.1129 H   0  0  0  0  0  0  0  0  0  0  0  0
    0.1457   -1.0623    0.4607 N   0  0  0  0  0  0  0  0  0  0  0  0
    0.8009   -2.0016    1.3923 C   0  0  2  0  0  0  0  0  0  0  0  0
    1.7963   -1.3149    2.3546 C   0  0  0  0  0  0  0  0  0  0  0  0
    1.5535   -1.2758    3.5547 O   0  0  0  0  0  0  0  0  0  0  0  0
    1.4448   -3.1862    0.6580 C   0  0  0  0  0  0  0  0  0  0  0  0
   -0.8153   -0.8057    0.7021 H   0  0  0  0  0  0  0  0  0  0  0  0
    0.0089   -2.4220    2.0208 H   0  0  0  0  0  0  0  0  0  0  0  0
    2.3280   -2.8772    0.0922 H   0  0  0  0  0  0  0  0  0  0  0  0
    1.7543   -3.9480    1.3801 H   0  0  0  0  0  0  0  0  0  0  0  0
    0.7275   -3.6368   -0.0346 H   0  0  0  0  0  0  0  0  0  0  0  0
    2.9191   -0.6727    1.8724 N   0  0  0  0  0  0  0  0  0  0  0  0
    3.8159    0.1234    2.6981 C   0  0  0  0  0  0  0  0  0  0  0  0
    2.9791   -0.5960    0.8534 H   0  0  0  0  0  0  0  0  0  0  0  0
    3.2779    0.9641    3.1483 H   0  0  0  0  0  0  0  0  0  0  0  0
    4.2460   -0.4898    3.4969 H   0  0  0  0  0  0  0  0  0  0  0  0
    4.6345    0.5202    2.0900 H   0  0  0  0  0  0  0  0  0  0  0  0
  1  2  2  0  0  0  0
  1  3  1  0  0  0  0
  1  7  1  0  0  0  0
  3  4  1  0  0  0  0
  3  5  1  0  0  0  0
  3  6  1  0  0  0  0
  7  8  1  0  0  0  0
  7 12  1  0  0  0  0
  8  9  1  0  0  0  0
  8 11  1  0  0  0  0
  8 13  1  0  0  0  0
  9 10  2  0  0  0  0
  9 17  1  0  0  0  0
 11 14  1  0  0  0  0
 11 15  1  0  0  0  0
 11 16  1  0  0  0  0
 17 18  1  0  0  0  0
 17 23  1  0  0  0  0
 18 19  1  0  0  0  0
 18 21  1  0  0  0  0
 18 24  1  0  0  0  0
 19 20  2  0  0  0  0
 19 31  1  0  0  0  0
 21 22  1  0  0  0  0
 21 25  1  0  0  0  0
 21 26  1  0  0  0  0
 22 23  1  0  0  0  0
 22 27  1  0  0  0  0
 22 28  1  0  0  0  0
 23 29  1  0  0  0  0
 23 30  1  0  0  0  0
 31 32  1  0  0  0  0
 31 36  1  0  0  0  0
 32 33  1  0  0  0  0
 32 35  1  0  0  0  0
 32 37  1  0  0  0  0
 33 34  2  0  0  0  0
 33 41  1  0  0  0  0
 35 38  1  0  0  0  0
 35 39  1  0  0  0  0
 35 40  1  0  0  0  0
 41 42  1  0  0  0  0
 41 43  1  0  0  0  0
 42 44  1  0  0  0  0
 42 45  1  0  0  0  0
 42 46  1  0  0  0  0
M  END
$$$$

  -OEChem-05262217223D

 46 46  0     1  0  0  0  0  0999 V2000
   -1.8493    0.0549    2.6062 C   0  0  0  0  0  0  0  0  0  0  0  0
   -2.3511   -0.6746    1.7613 O   0  0  0  0  0  0  0  0  0  0  0  0
   -1.5971   -0.4522    4.0123 C   0  0  0  0  0  0  0  0  0  0  0  0
   -2.3461   -0.0465    4.6964 H   0  0  0  0  0  0  0  0  0  0  0  0
   -1.6497   -1.5443    4.0352 H   0  0  0  0  0  0  0  0  0  0  0  0
   -0.6036   -0.1467    4.3505 H   0  0  0  0  0  0  0  0  0  0  0  0
   -1.5208    1.3507    2.2672 N   0  0  0  0  0  0  0  0  0  0  0  0
   -1.8671    1.9933    0.9911 C   0  0  2  0  0  0  0  0  0  0  0  0
   -0.6608    2.7243    0.3467 C   0  0  0  0  0  0  0  0  0  0  0  0
   -0.3931    3.8547    0.7405 O   0  0  0  0  0  0  0  0  0  0  0  0
   -3.0295    2.9535    1.2764 C   0  0  0  0  0  0  0  0  0  0  0  0
   -1.1011    1.9277    2.9933 H   0  0  0  0  0  0  0  0  0  0  0  0
   -2.2371    1.2583    0.2748 H   0  0  0  0  0  0  0  0  0  0  0  0
   -2.7419    3.7004    2.0236 H   0  0  0  0  0  0  0  0  0  0  0  0
   -3.3253    3.4754    0.3612 H   0  0  0  0  0  0  0  0  0  0  0  0
   -3.8949    2.3998    1.6538 H   0  0  0  0  0  0  0  0  0  0  0  0
    0.1273    2.1709   -0.6696 N   0  0  0  0  0  0  0  0  0  0  0  0
   -0.0845    0.7878   -1.2793 C   0  0  2  0  0  0  0  0  0  0  0  0
    0.6810   -0.3529   -0.5662 C   0  0  0  0  0  0  0  0  0  0  0  0
    1.8979   -0.4524   -0.6757 O   0  0  0  0  0  0  0  0  0  0  0  0
    0.5319    1.1564   -2.6181 C   0  0  0  0  0  0  0  0  0  0  0  0
    0.1901    2.6318   -2.5267 C   0  0  0  0  0  0  0  0  0  0  0  0
    1.0992    3.0393   -1.4701 C   0  0  0  0  0  0  0  0  0  0  0  0
   -1.1382    0.5246   -1.4024 H   0  0  0  0  0  0  0  0  0  0  0  0
    0.0197    0.6618   -3.4490 H   0  0  0  0  0  0  0  0  0  0  0  0
    1.6069    0.9582   -2.7079 H   0  0  0  0  0  0  0  0  0  0  0  0
    0.5169    3.1168   -3.4519 H   0  0  0  0  0  0  0  0  0  0  0  0
   -0.8843    2.8888   -2.4450 H   0  0  0  0  0  0  0  0  0  0  0  0
    2.1324    2.6758   -1.5184 H   0  0  0  0  0  0  0  0  0  0  0  0
    1.0693    4.1138   -1.2594 H   0  0  0  0  0  0  0  0  0  0  0  0
    0.0043   -1.2415    0.2532 N   0  0  0  0  0  0  0  0  0  0  0  0
    0.5934   -2.2980    1.1016 C   0  0  2  0  0  0  0  0  0  0  0  0
    1.4629   -1.7670    2.2651 C   0  0  0  0  0  0  0  0  0  0  0  0
    1.1677   -2.0442    3.4207 O   0  0  0  0  0  0  0  0  0  0  0  0
    1.3550   -3.3369    0.2667 C   0  0  0  0  0  0  0  0  0  0  0  0
   -0.9819   -1.0301    0.4312 H   0  0  0  0  0  0  0  0  0  0  0  0
   -0.2459   -2.8258    1.5670 H   0  0  0  0  0  0  0  0  0  0  0  0
    2.2746   -2.9183   -0.1517 H   0  0  0  0  0  0  0  0  0  0  0  0
    1.6262   -4.1925    0.8930 H   0  0  0  0  0  0  0  0  0  0  0  0
    0.7285   -3.6951   -0.5555 H   0  0  0  0  0  0  0  0  0  0  0  0
    2.5410   -0.9379    2.0312 N   0  0  0  0  0  0  0  0  0  0  0  0
    3.3417   -0.3185    3.0769 C   0  0  0  0  0  0  0  0  0  0  0  0
    2.6895   -0.6625    1.0565 H   0  0  0  0  0  0  0  0  0  0  0  0
    2.7316    0.3743    3.6651 H   0  0  0  0  0  0  0  0  0  0  0  0
    3.7568   -1.0805    3.7447 H   0  0  0  0  0  0  0  0  0  0  0  0
    4.1720    0.2395    2.6336 H   0  0  0  0  0  0  0  0  0  0  0  0
  1  2  2  0  0  0  0
  1  3  1  0  0  0  0
  1  7  1  0  0  0  0
  3  4  1  0  0  0  0
  3  5  1  0  0  0  0
  3  6  1  0  0  0  0
  7  8  1  0  0  0  0
  7 12  1  0  0  0  0
  8  9  1  0  0  0  0
  8 11  1  0  0  0  0
  8 13  1  0  0  0  0
  9 10  2  0  0  0  0
  9 17  1  0  0  0  0
 11 14  1  0  0  0  0
 11 15  1  0  0  0  0
 11 16  1  0  0  0  0
 17 18  1  0  0  0  0
 17 23  1  0  0  0  0
 18 19  1  0  0  0  0
 18 21  1  0  0  0  0
 18 24  1  0  0  0  0
 19 20  2  0  0  0  0
 19 31  1  0  0  0  0
 21 22  1  0  0  0  0
 21 25  1  0  0  0  0
 21 26  1  0  0  0  0
 22 23  1  0  0  0  0
 22 27  1  0  0  0  0
 22 28  1  0  0  0  0
 23 29  1  0  0  0  0
 23 30  1  0  0  0  0
 31 32  1  0  0  0  0
 31 36  1  0  0  0  0
 32 33  1  0  0  0  0
 32 35  1  0  0  0  0
 32 37  1  0  0  0  0
 33 34  2  0  0  0  0
 33 41  1  0  0  0  0
 35 38  1  0  0  0  0
 35 39  1  0  0  0  0
 35 40  1  0  0  0  0
 41 42  1  0  0  0  0
 41 43  1  0  0  0  0
 42 44  1  0  0  0  0
 42 45  1  0  0  0  0
 42 46  1  0  0  0  0
M  END
$$$$

  -OEChem-05262217223D

 46 46  0     1  0  0  0  0  0999 V2000
   -1.8372   -0.0402    2.3615 C   0  0  0  0  0  0  0  0  0  0  0  0
   -2.4480   -0.6124    1.4681 O   0  0  0  0  0  0  0  0  0  0  0  0
   -1.5679   -0.7413    3.6788 C   0  0  0  0  0  0  0  0  0  0  0  0
   -2.2554   -0.3736    4.4442 H   0  0  0  0  0  0  0  0  0  0  0  0
   -1.7061   -1.8207    3.5679 H   0  0  0  0  0  0  0  0  0  0  0  0
   -0.5410   -0.5548    4.0031 H   0  0  0  0  0  0  0  0  0  0  0  0
   -1.3967    1.2520    2.1627 N   0  0  0  0  0  0  0  0  0  0  0  0
   -1.8039    2.1028    1.0339 C   0  0  2  0  0  0  0  0  0  0  0  0
   -0.6115    2.7818    0.3086 C   0  0  0  0  0  0  0  0  0  0  0  0
   -0.2857    3.9142    0.6497 O   0  0  0  0  0  0  0  0  0  0  0  0
   -2.8002    3.1283    1.5945 C   0  0  0  0  0  0  0  0  0  0  0  0
   -0.9025    1.6928    2.9354 H   0  0  0  0  0  0  0  0  0  0  0  0
   -2.3454    1.5211    0.2846 H   0  0  0  0  0  0  0  0  0  0  0  0
   -2.3346    3.7358    2.3776 H   0  0  0  0  0  0  0  0  0  0  0  0
   -3.1455    3.7962    0.7990 H   0  0  0  0  0  0  0  0  0  0  0  0
   -3.6706    2.6195    2.0201 H   0  0  0  0  0  0  0  0  0  0  0  0
    0.0953    2.1777   -0.7374 N   0  0  0  0  0  0  0  0  0  0  0  0
   -0.2034    0.7903   -1.2975 C   0  0  2  0  0  0  0  0  0  0  0  0
    0.5554   -0.3694   -0.6118 C   0  0  0  0  0  0  0  0  0  0  0  0
    1.7810   -0.3905   -0.6113 O   0  0  0  0  0  0  0  0  0  0  0  0
    0.3574    1.0951   -2.6737 C   0  0  0  0  0  0  0  0  0  0  0  0
    0.0814    2.5856   -2.6071 C   0  0  0  0  0  0  0  0  0  0  0  0
    1.0587    2.9842   -1.6098 C   0  0  0  0  0  0  0  0  0  0  0  0
   -1.2735    0.5715   -1.3506 H   0  0  0  0  0  0  0  0  0  0  0  0
   -0.2160    0.6011   -3.4641 H   0  0  0  0  0  0  0  0  0  0  0  0
    1.4172    0.8453   -2.8055 H   0  0  0  0  0  0  0  0  0  0  0  0
    0.3793    3.0314   -3.5613 H   0  0  0  0  0  0  0  0  0  0  0  0
   -0.9760    2.8893   -2.4794 H   0  0  0  0  0  0  0  0  0  0  0  0
    2.0728    2.5769   -1.6986 H   0  0  0  0  0  0  0  0  0  0  0  0
    1.0819    4.0644   -1.4288 H   0  0  0  0  0  0  0  0  0  0  0  0
   -0.1390   -1.3928    0.0107 N   0  0  0  0  0  0  0  0  0  0  0  0
    0.4298   -2.5503    0.7330 C   0  0  2  0  0  0  0  0  0  0  0  0
    1.1927   -2.2001    2.0326 C   0  0  0  0  0  0  0  0  0  0  0  0
    0.9363   -2.8036    3.0664 O   0  0  0  0  0  0  0  0  0  0  0  0
    1.2966   -3.4153   -0.1912 C   0  0  0  0  0  0  0  0  0  0  0  0
   -1.1398   -1.2245    0.1504 H   0  0  0  0  0  0  0  0  0  0  0  0
   -0.4202   -3.1692    1.0395 H   0  0  0  0  0  0  0  0  0  0  0  0
    2.2298   -2.9080   -0.4517 H   0  0  0  0  0  0  0  0  0  0  0  0
    1.5491   -4.3561    0.3076 H   0  0  0  0  0  0  0  0  0  0  0  0
    0.7553   -3.6463   -1.1132 H   0  0  0  0  0  0  0  0  0  0  0  0
    2.1424   -1.1991    2.0657 N   0  0  0  0  0  0  0  0  0  0  0  0
    2.9418   -0.8669    3.2360 C   0  0  0  0  0  0  0  0  0  0  0  0
    2.3556   -0.7543    1.1684 H   0  0  0  0  0  0  0  0  0  0  0  0
    2.3027   -0.4949    4.0431 H   0  0  0  0  0  0  0  0  0  0  0  0
    3.4845   -1.7489    3.5920 H   0  0  0  0  0  0  0  0  0  0  0  0
    3.6712   -0.0907    2.9852 H   0  0  0  0  0  0  0  0  0  0  0  0
  1  2  2  0  0  0  0
  1  3  1  0  0  0  0
  1  7  1  0  0  0  0
  3  4  1  0  0  0  0
  3  5  1  0  0  0  0
  3  6  1  0  0  0  0
  7  8  1  0  0  0  0
  7 12  1  0  0  0  0
  8  9  1  0  0  0  0
  8 11  1  0  0  0  0
  8 13  1  0  0  0  0
  9 10  2  0  0  0  0
  9 17  1  0  0  0  0
 11 14  1  0  0  0  0
 11 15  1  0  0  0  0
 11 16  1  0  0  0  0
 17 18  1  0  0  0  0
 17 23  1  0  0  0  0
 18 19  1  0  0  0  0
 18 21  1  0  0  0  0
 18 24  1  0  0  0  0
 19 20  2  0  0  0  0
 19 31  1  0  0  0  0
 21 22  1  0  0  0  0
 21 25  1  0  0  0  0
 21 26  1  0  0  0  0
 22 23  1  0  0  0  0
 22 27  1  0  0  0  0
 22 28  1  0  0  0  0
 23 29  1  0  0  0  0
 23 30  1  0  0  0  0
 31 32  1  0  0  0  0
 31 36  1  0  0  0  0
 32 33  1  0  0  0  0
 32 35  1  0  0  0  0
 32 37  1  0  0  0  0
 33 34  2  0  0  0  0
 33 41  1  0  0  0  0
 35 38  1  0  0  0  0
 35 39  1  0  0  0  0
 35 40  1  0  0  0  0
 41 42  1  0  0  0  0
 41 43  1  0  0  0  0
 42 44  1  0  0  0  0
 42 45  1  0  0  0  0
 42 46  1  0  0  0  0
M  END
$$$$

  -OEChem-05262217223D

 46 46  0     1  0  0  0  0  0999 V2000
   -1.8388   -0.1583    2.0817 C   0  0  0  0  0  0  0  0  0  0  0  0
   -2.4739   -0.5910    1.1287 O   0  0  0  0  0  0  0  0  0  0  0  0
   -1.6121   -1.0228    3.3064 C   0  0  0  0  0  0  0  0  0  0  0  0
   -2.2736   -0.7041    4.1154 H   0  0  0  0  0  0  0  0  0  0  0  0
   -1.8182   -2.0716    3.0741 H   0  0  0  0  0  0  0  0  0  0  0  0
   -0.5763   -0.9384    3.6423 H   0  0  0  0  0  0  0  0  0  0  0  0
   -1.3406    1.1279    2.0445 N   0  0  0  0  0  0  0  0  0  0  0  0
   -1.7622    2.1470    1.0703 C   0  0  2  0  0  0  0  0  0  0  0  0
   -0.5907    2.8204    0.3047 C   0  0  0  0  0  0  0  0  0  0  0  0
   -0.2482    3.9545    0.6234 O   0  0  0  0  0  0  0  0  0  0  0  0
   -2.6151    3.1600    1.8485 C   0  0  0  0  0  0  0  0  0  0  0  0
   -0.8252    1.4410    2.8637 H   0  0  0  0  0  0  0  0  0  0  0  0
   -2.4162    1.7090    0.3117 H   0  0  0  0  0  0  0  0  0  0  0  0
   -2.0277    3.6385    2.6391 H   0  0  0  0  0  0  0  0  0  0  0  0
   -2.9871    3.9389    1.1754 H   0  0  0  0  0  0  0  0  0  0  0  0
   -3.4752    2.6613    2.3059 H   0  0  0  0  0  0  0  0  0  0  0  0
    0.0665    2.2103   -0.7689 N   0  0  0  0  0  0  0  0  0  0  0  0
   -0.2767    0.8278   -1.3131 C   0  0  2  0  0  0  0  0  0  0  0  0
    0.4850   -0.3507   -0.6671 C   0  0  0  0  0  0  0  0  0  0  0  0
    1.7018   -0.2947   -0.5297 O   0  0  0  0  0  0  0  0  0  0  0  0
    0.2470    1.1146   -2.7059 C   0  0  0  0  0  0  0  0  0  0  0  0
    0.0021    2.6114   -2.6373 C   0  0  0  0  0  0  0  0  0  0  0  0
    1.0166    2.9963   -1.6726 C   0  0  0  0  0  0  0  0  0  0  0  0
   -1.3528    0.6333   -1.3230 H   0  0  0  0  0  0  0  0  0  0  0  0
   -0.3589    0.6274   -3.4763 H   0  0  0  0  0  0  0  0  0  0  0  0
    1.2980    0.8406   -2.8623 H   0  0  0  0  0  0  0  0  0  0  0  0
    0.2782    3.0487   -3.6020 H   0  0  0  0  0  0  0  0  0  0  0  0
   -1.0453    2.9347   -2.4785 H   0  0  0  0  0  0  0  0  0  0  0  0
    2.0197    2.5704   -1.7917 H   0  0  0  0  0  0  0  0  0  0  0  0
    1.0650    4.0760   -1.4946 H   0  0  0  0  0  0  0  0  0  0  0  0
   -0.1901   -1.5021   -0.2984 N   0  0  0  0  0  0  0  0  0  0  0  0
    0.3919   -2.7356    0.2704 C   0  0  2  0  0  0  0  0  0  0  0  0
    1.0075   -2.5822    1.6812 C   0  0  0  0  0  0  0  0  0  0  0  0
    0.6961   -3.3683    2.5664 O   0  0  0  0  0  0  0  0  0  0  0  0
    1.4004   -3.3696   -0.6969 C   0  0  0  0  0  0  0  0  0  0  0  0
   -1.2048   -1.3959   -0.2104 H   0  0  0  0  0  0  0  0  0  0  0  0
   -0.4332   -3.4473    0.3769 H   0  0  0  0  0  0  0  0  0  0  0  0
    2.3113   -2.7691   -0.7739 H   0  0  0  0  0  0  0  0  0  0  0  0
    1.6801   -4.3667   -0.3431 H   0  0  0  0  0  0  0  0  0  0  0  0
    0.9606   -3.4664   -1.6939 H   0  0  0  0  0  0  0  0  0  0  0  0
    1.8866   -1.5603    1.9791 N   0  0  0  0  0  0  0  0  0  0  0  0
    2.5859   -1.4291    3.2495 C   0  0  0  0  0  0  0  0  0  0  0  0
    2.1578   -0.9623    1.1930 H   0  0  0  0  0  0  0  0  0  0  0  0
    1.8722   -1.3242    4.0728 H   0  0  0  0  0  0  0  0  0  0  0  0
    3.2103   -2.3092    3.4347 H   0  0  0  0  0  0  0  0  0  0  0  0
    3.2290   -0.5440    3.2354 H   0  0  0  0  0  0  0  0  0  0  0  0
  1  2  2  0  0  0  0
  1  3  1  0  0  0  0
  1  7  1  0  0  0  0
  3  4  1  0  0  0  0
  3  5  1  0  0  0  0
  3  6  1  0  0  0  0
  7  8  1  0  0  0  0
  7 12  1  0  0  0  0
  8  9  1  0  0  0  0
  8 11  1  0  0  0  0
  8 13  1  0  0  0  0
  9 10  2  0  0  0  0
  9 17  1  0  0  0  0
 11 14  1  0  0  0  0
 11 15  1  0  0  0  0
 11 16  1  0  0  0  0
 17 18  1  0  0  0  0
 17 23  1  0  0  0  0
 18 19  1  0  0  0  0
 18 21  1  0  0  0  0
 18 24  1  0  0  0  0
 19 20  2  0  0  0  0
 19 31  1  0  0  0  0
 21 22  1  0  0  0  0
 21 25  1  0  0  0  0
 21 26  1  0  0  0  0
 22 23  1  0  0  0  0
 22 27  1  0  0  0  0
 22 28  1  0  0  0  0
 23 29  1  0  0  0  0
 23 30  1  0  0  0  0
 31 32  1  0  0  0  0
 31 36  1  0  0  0  0
 32 33  1  0  0  0  0
 32 35  1  0  0  0  0
 32 37  1  0  0  0  0
 33 34  2  0  0  0  0
 33 41  1  0  0  0  0
 35 38  1  0  0  0  0
 35 39  1  0  0  0  0
 35 40  1  0  0  0  0
 41 42  1  0  0  0  0
 41 43  1  0  0  0  0
 42 44  1  0  0  0  0
 42 45  1  0  0  0  0
 42 46  1  0  0  0  0
M  END
$$$$

  -OEChem-05262217223D

 46 46  0     1  0  0  0  0  0999 V2000
   -1.9367    0.6048    3.6008 C   0  0  0  0  0  0  0  0  0  0  0  0
   -2.3661   -0.4422    3.1425 O   0  0  0  0  0  0  0  0  0  0  0  0
   -1.7927    0.7806    5.1007 C   0  0  0  0  0  0  0  0  0  0  0  0
   -0.7618    1.0445    5.3495 H   0  0  0  0  0  0  0  0  0  0  0  0
   -2.4588    1.5736    5.4491 H   0  0  0  0  0  0  0  0  0  0  0  0
   -2.0515   -0.1494    5.6150 H   0  0  0  0  0  0  0  0  0  0  0  0
   -1.5825    1.6299    2.7499 N   0  0  0  0  0  0  0  0  0  0  0  0
   -1.5572    1.5173    1.2867 C   0  0  2  0  0  0  0  0  0  0  0  0
   -0.4504    2.4030    0.6687 C   0  0  0  0  0  0  0  0  0  0  0  0
   -0.1425    3.4388    1.2523 O   0  0  0  0  0  0  0  0  0  0  0  0
   -2.9361    1.9280    0.7583 C   0  0  0  0  0  0  0  0  0  0  0  0
   -1.1529    2.4593    3.1586 H   0  0  0  0  0  0  0  0  0  0  0  0
   -1.3524    0.4788    1.0103 H   0  0  0  0  0  0  0  0  0  0  0  0
   -3.1659    2.9568    1.0537 H   0  0  0  0  0  0  0  0  0  0  0  0
   -2.9706    1.8666   -0.3326 H   0  0  0  0  0  0  0  0  0  0  0  0
   -3.7087    1.2680    1.1655 H   0  0  0  0  0  0  0  0  0  0  0  0
    0.1601    2.0969   -0.5490 N   0  0  0  0  0  0  0  0  0  0  0  0
   -0.1971    0.8745   -1.3855 C   0  0  2  0  0  0  0  0  0  0  0  0
    0.6031   -0.4106   -1.0859 C   0  0  0  0  0  0  0  0  0  0  0  0
    1.7481   -0.3415   -0.6599 O   0  0  0  0  0  0  0  0  0  0  0  0
    0.2786    1.4911   -2.6842 C   0  0  0  0  0  0  0  0  0  0  0  0
    0.0300    2.9288   -2.2597 C   0  0  0  0  0  0  0  0  0  0  0  0
    1.0729    3.0905   -1.2634 C   0  0  0  0  0  0  0  0  0  0  0  0
   -1.2717    0.6740   -1.4011 H   0  0  0  0  0  0  0  0  0  0  0  0
   -0.3473    1.1943   -3.5316 H   0  0  0  0  0  0  0  0  0  0  0  0
    1.3260    1.2715   -2.9269 H   0  0  0  0  0  0  0  0  0  0  0  0
    0.2737    3.5825   -3.1032 H   0  0  0  0  0  0  0  0  0  0  0  0
   -1.0126    3.1956   -1.9969 H   0  0  0  0  0  0  0  0  0  0  0  0
    2.0752    2.7218   -1.5102 H   0  0  0  0  0  0  0  0  0  0  0  0
    1.1159    4.0954   -0.8295 H   0  0  0  0  0  0  0  0  0  0  0  0
    0.0104   -1.6487   -1.2805 N   0  0  0  0  0  0  0  0  0  0  0  0
    0.6436   -2.9764   -1.1201 C   0  0  2  0  0  0  0  0  0  0  0  0
    0.9952   -3.3758    0.3327 C   0  0  0  0  0  0  0  0  0  0  0  0
    0.7575   -4.5152    0.7115 O   0  0  0  0  0  0  0  0  0  0  0  0
    1.8714   -3.1189   -2.0307 C   0  0  0  0  0  0  0  0  0  0  0  0
   -0.9648   -1.6396   -1.5654 H   0  0  0  0  0  0  0  0  0  0  0  0
   -0.0895   -3.7146   -1.4617 H   0  0  0  0  0  0  0  0  0  0  0  0
    2.6969   -2.4889   -1.6868 H   0  0  0  0  0  0  0  0  0  0  0  0
    2.2166   -4.1578   -2.0317 H   0  0  0  0  0  0  0  0  0  0  0  0
    1.6202   -2.8366   -3.0573 H   0  0  0  0  0  0  0  0  0  0  0  0
    1.5975   -2.4864    1.1998 N   0  0  0  0  0  0  0  0  0  0  0  0
    2.0013   -2.8204    2.5579 C   0  0  0  0  0  0  0  0  0  0  0  0
    1.8628   -1.5810    0.8045 H   0  0  0  0  0  0  0  0  0  0  0  0
    1.1403   -3.1668    3.1390 H   0  0  0  0  0  0  0  0  0  0  0  0
    2.7617   -3.6079    2.5484 H   0  0  0  0  0  0  0  0  0  0  0  0
    2.4195   -1.9390    3.0530 H   0  0  0  0  0  0  0  0  0  0  0  0
  1  2  2  0  0  0  0
  1  3  1  0  0  0  0
  1  7  1  0  0  0  0
  3  4  1  0  0  0  0
  3  5  1  0  0  0  0
  3  6  1  0  0  0  0
  7  8  1  0  0  0  0
  7 12  1  0  0  0  0
  8  9  1  0  0  0  0
  8 11  1  0  0  0  0
  8 13  1  0  0  0  0
  9 10  2  0  0  0  0
  9 17  1  0  0  0  0
 11 14  1  0  0  0  0
 11 15  1  0  0  0  0
 11 16  1  0  0  0  0
 17 18  1  0  0  0  0
 17 23  1  0  0  0  0
 18 19  1  0  0  0  0
 18 21  1  0  0  0  0
 18 24  1  0  0  0  0
 19 20  2  0  0  0  0
 19 31  1  0  0  0  0
 21 22  1  0  0  0  0
 21 25  1  0  0  0  0
 21 26  1  0  0  0  0
 22 23  1  0  0  0  0
 22 27  1  0  0  0  0
 22 28  1  0  0  0  0
 23 29  1  0  0  0  0
 23 30  1  0  0  0  0
 31 32  1  0  0  0  0
 31 36  1  0  0  0  0
 32 33  1  0  0  0  0
 32 35  1  0  0  0  0
 32 37  1  0  0  0  0
 33 34  2  0  0  0  0
 33 41  1  0  0  0  0
 35 38  1  0  0  0  0
 35 39  1  0  0  0  0
 35 40  1  0  0  0  0
 41 42  1  0  0  0  0
 41 43  1  0  0  0  0
 42 44  1  0  0  0  0
 42 45  1  0  0  0  0
 42 46  1  0  0  0  0
M  END
$$$$

  -OEChem-05262217223D

 46 46  0     1  0  0  0  0  0999 V2000
   -1.4167    0.2689    3.5422 C   0  0  0  0  0  0  0  0  0  0  0  0
   -1.6502   -0.8339    3.0734 O   0  0  0  0  0  0  0  0  0  0  0  0
   -1.1722    0.4271    5.0310 C   0  0  0  0  0  0  0  0  0  0  0  0
   -1.9167    1.1011    5.4616 H   0  0  0  0  0  0  0  0  0  0  0  0
   -1.2451   -0.5429    5.5307 H   0  0  0  0  0  0  0  0  0  0  0  0
   -0.1748    0.8388    5.2041 H   0  0  0  0  0  0  0  0  0  0  0  0
   -1.3733    1.3753    2.7211 N   0  0  0  0  0  0  0  0  0  0  0  0
   -1.4193    1.3226    1.2541 C   0  0  2  0  0  0  0  0  0  0  0  0
   -0.4112    2.3146    0.6270 C   0  0  0  0  0  0  0  0  0  0  0  0
   -0.1503    3.3433    1.2467 O   0  0  0  0  0  0  0  0  0  0  0  0
   -2.8519    1.6542    0.8264 C   0  0  0  0  0  0  0  0  0  0  0  0
   -1.0516    2.2493    3.1355 H   0  0  0  0  0  0  0  0  0  0  0  0
   -1.1581    0.3159    0.9137 H   0  0  0  0  0  0  0  0  0  0  0  0
   -3.1307    2.6543    1.1735 H   0  0  0  0  0  0  0  0  0  0  0  0
   -2.9511    1.6258   -0.2619 H   0  0  0  0  0  0  0  0  0  0  0  0
   -3.5497    0.9288    1.2564 H   0  0  0  0  0  0  0  0  0  0  0  0
    0.1501    2.1200   -0.6369 N   0  0  0  0  0  0  0  0  0  0  0  0
   -0.1675    0.9241   -1.5269 C   0  0  2  0  0  0  0  0  0  0  0  0
    0.7257   -0.3207   -1.3531 C   0  0  0  0  0  0  0  0  0  0  0  0
    1.7080   -0.2791   -0.6258 O   0  0  0  0  0  0  0  0  0  0  0  0
    0.1966    1.6422   -2.8086 C   0  0  0  0  0  0  0  0  0  0  0  0
   -0.1258    3.0329   -2.2884 C   0  0  0  0  0  0  0  0  0  0  0  0
    0.9538    3.2138   -1.3362 C   0  0  0  0  0  0  0  0  0  0  0  0
   -1.2258    0.6505   -1.4981 H   0  0  0  0  0  0  0  0  0  0  0  0
   -0.4502    1.3494   -3.6416 H   0  0  0  0  0  0  0  0  0  0  0  0
    1.2431    1.5107   -3.1123 H   0  0  0  0  0  0  0  0  0  0  0  0
    0.0271    3.7478   -3.1028 H   0  0  0  0  0  0  0  0  0  0  0  0
   -1.1690    3.2102   -1.9600 H   0  0  0  0  0  0  0  0  0  0  0  0
    1.9650    2.9317   -1.6522 H   0  0  0  0  0  0  0  0  0  0  0  0
    0.9500    4.1948   -0.8490 H   0  0  0  0  0  0  0  0  0  0  0  0
    0.3132   -1.5306   -1.8892 N   0  0  0  0  0  0  0  0  0  0  0  0
    0.9537   -2.8506   -1.7042 C   0  0  2  0  0  0  0  0  0  0  0  0
    0.7995   -3.4321   -0.2805 C   0  0  0  0  0  0  0  0  0  0  0  0
    0.3463   -4.5606   -0.1434 O   0  0  0  0  0  0  0  0  0  0  0  0
    2.4259   -2.8425   -2.1409 C   0  0  0  0  0  0  0  0  0  0  0  0
   -0.5680   -1.5179   -2.3948 H   0  0  0  0  0  0  0  0  0  0  0  0
    0.4357   -3.5460   -2.3725 H   0  0  0  0  0  0  0  0  0  0  0  0
    3.0468   -2.2712   -1.4448 H   0  0  0  0  0  0  0  0  0  0  0  0
    2.8104   -3.8668   -2.1723 H   0  0  0  0  0  0  0  0  0  0  0  0
    2.5250   -2.4049   -3.1386 H   0  0  0  0  0  0  0  0  0  0  0  0
    1.1072   -2.6792    0.8345 N   0  0  0  0  0  0  0  0  0  0  0  0
    0.7977   -3.0871    2.1979 C   0  0  0  0  0  0  0  0  0  0  0  0
    1.4463   -1.7302    0.6608 H   0  0  0  0  0  0  0  0  0  0  0  0
   -0.2785   -3.2541    2.3125 H   0  0  0  0  0  0  0  0  0  0  0  0
    1.3285   -4.0104    2.4517 H   0  0  0  0  0  0  0  0  0  0  0  0
    1.1017   -2.3073    2.9025 H   0  0  0  0  0  0  0  0  0  0  0  0
  1  2  2  0  0  0  0
  1  3  1  0  0  0  0
  1  7  1  0  0  0  0
  3  4  1  0  0  0  0
  3  5  1  0  0  0  0
  3  6  1  0  0  0  0
  7  8  1  0  0  0  0
  7 12  1  0  0  0  0
  8  9  1  0  0  0  0
  8 11  1  0  0  0  0
  8 13  1  0  0  0  0
  9 10  2  0  0  0  0
  9 17  1  0  0  0  0
 11 14  1  0  0  0  0
 11 15  1  0  0  0  0
 11 16  1  0  0  0  0
 17 18  1  0  0  0  0
 17 23  1  0  0  0  0
 18 19  1  0  0  0  0
 18 21  1  0  0  0  0
 18 24  1  0  0  0  0
 19 20  2  0  0  0  0
 19 31  1  0  0  0  0
 21 22  1  0  0  0  0
 21 25  1  0  0  0  0
 21 26  1  0  0  0  0
 22 23  1  0  0  0  0
 22 27  1  0  0  0  0
 22 28  1  0  0  0  0
 23 29  1  0  0  0  0
 23 30  1  0  0  0  0
 31 32  1  0  0  0  0
 31 36  1  0  0  0  0
 32 33  1  0  0  0  0
 32 35  1  0  0  0  0
 32 37  1  0  0  0  0
 33 34  2  0  0  0  0
 33 41  1  0  0  0  0
 35 38  1  0  0  0  0
 35 39  1  0  0  0  0
 35 40  1  0  0  0  0
 41 42  1  0  0  0  0
 41 43  1  0  0  0  0
 42 44  1  0  0  0  0
 42 45  1  0  0  0  0
 42 46  1  0  0  0  0
M  END
$$$$

  -OEChem-05262217223D

 46 46  0     1  0  0  0  0  0999 V2000
   -1.2714    0.2960    3.5678 C   0  0  0  0  0  0  0  0  0  0  0  0
   -1.5623   -0.8184    3.1626 O   0  0  0  0  0  0  0  0  0  0  0  0
   -0.9766    0.5146    5.0395 C   0  0  0  0  0  0  0  0  0  0  0  0
   -1.6606    1.2609    5.4509 H   0  0  0  0  0  0  0  0  0  0  0  0
   -1.1015   -0.4206    5.5927 H   0  0  0  0  0  0  0  0  0  0  0  0
    0.0516    0.8626    5.1645 H   0  0  0  0  0  0  0  0  0  0  0  0
   -1.2024    1.3561    2.6894 N   0  0  0  0  0  0  0  0  0  0  0  0
   -1.3037    1.2343    1.2292 C   0  0  2  0  0  0  0  0  0  0  0  0
   -0.4888    2.3419    0.5129 C   0  0  0  0  0  0  0  0  0  0  0  0
   -0.3437    3.4148    1.0952 O   0  0  0  0  0  0  0  0  0  0  0  0
   -2.7864    1.3251    0.8515 C   0  0  0  0  0  0  0  0  0  0  0  0
   -0.8812    2.2521    3.0542 H   0  0  0  0  0  0  0  0  0  0  0  0
   -0.9110    0.2610    0.9241 H   0  0  0  0  0  0  0  0  0  0  0  0
   -3.2052    2.2814    1.1807 H   0  0  0  0  0  0  0  0  0  0  0  0
   -2.9184    1.2432   -0.2304 H   0  0  0  0  0  0  0  0  0  0  0  0
   -3.3483    0.5158    1.3288 H   0  0  0  0  0  0  0  0  0  0  0  0
    0.0418    2.1963   -0.7715 N   0  0  0  0  0  0  0  0  0  0  0  0
   -0.1030    0.9814   -1.6055 C   0  0  2  0  0  0  0  0  0  0  0  0
    0.7716   -0.2271   -1.2006 C   0  0  0  0  0  0  0  0  0  0  0  0
    1.4613   -0.1855   -0.1908 O   0  0  0  0  0  0  0  0  0  0  0  0
    0.3396    1.5209   -2.9719 C   0  0  0  0  0  0  0  0  0  0  0  0
    0.0399    3.0066   -2.8539 C   0  0  0  0  0  0  0  0  0  0  0  0
    0.6407    3.3163   -1.5049 C   0  0  0  0  0  0  0  0  0  0  0  0
   -1.1502    0.6698   -1.6453 H   0  0  0  0  0  0  0  0  0  0  0  0
   -0.2138    1.0578   -3.7948 H   0  0  0  0  0  0  0  0  0  0  0  0
    1.4117    1.3610   -3.1370 H   0  0  0  0  0  0  0  0  0  0  0  0
    0.5132    3.5860   -3.6526 H   0  0  0  0  0  0  0  0  0  0  0  0
   -1.0381    3.2044   -2.8655 H   0  0  0  0  0  0  0  0  0  0  0  0
    1.7350    3.2647   -1.5036 H   0  0  0  0  0  0  0  0  0  0  0  0
    0.3251    4.3032   -1.1489 H   0  0  0  0  0  0  0  0  0  0  0  0
    0.6916   -1.4009   -1.9337 N   0  0  0  0  0  0  0  0  0  0  0  0
    1.3668   -2.6821   -1.6362 C   0  0  2  0  0  0  0  0  0  0  0  0
    0.8515   -3.3942   -0.3637 C   0  0  0  0  0  0  0  0  0  0  0  0
    0.3726   -4.5161   -0.4637 O   0  0  0  0  0  0  0  0  0  0  0  0
    2.8937   -2.5242   -1.5995 C   0  0  0  0  0  0  0  0  0  0  0  0
    0.0363   -1.3986   -2.7101 H   0  0  0  0  0  0  0  0  0  0  0  0
    1.1426   -3.3551   -2.4707 H   0  0  0  0  0  0  0  0  0  0  0  0
    3.2174   -1.9605   -0.7196 H   0  0  0  0  0  0  0  0  0  0  0  0
    3.3687   -3.5096   -1.5633 H   0  0  0  0  0  0  0  0  0  0  0  0
    3.2441   -2.0040   -2.4955 H   0  0  0  0  0  0  0  0  0  0  0  0
    0.8844   -2.7717    0.8681 N   0  0  0  0  0  0  0  0  0  0  0  0
    0.2662   -3.3169    2.0693 C   0  0  0  0  0  0  0  0  0  0  0  0
    1.1916   -1.7962    0.8706 H   0  0  0  0  0  0  0  0  0  0  0  0
    0.6256   -4.3332    2.2606 H   0  0  0  0  0  0  0  0  0  0  0  0
    0.5146   -2.6965    2.9359 H   0  0  0  0  0  0  0  0  0  0  0  0
   -0.8229   -3.3409    1.9617 H   0  0  0  0  0  0  0  0  0  0  0  0
  1  2  2  0  0  0  0
  1  3  1  0  0  0  0
  1  7  1  0  0  0  0
  3  4  1  0  0  0  0
  3  5  1  0  0  0  0
  3  6  1  0  0  0  0
  7  8  1  0  0  0  0
  7 12  1  0  0  0  0
  8  9  1  0  0  0  0
  8 11  1  0  0  0  0
  8 13  1  0  0  0  0
  9 10  2  0  0  0  0
  9 17  1  0  0  0  0
 11 14  1  0  0  0  0
 11 15  1  0  0  0  0
 11 16  1  0  0  0  0
 17 18  1  0  0  0  0
 17 23  1  0  0  0  0
 18 19  1  0  0  0  0
 18 21  1  0  0  0  0
 18 24  1  0  0  0  0
 19 20  2  0  0  0  0
 19 31  1  0  0  0  0
 21 22  1  0  0  0  0
 21 25  1  0  0  0  0
 21 26  1  0  0  0  0
 22 23  1  0  0  0  0
 22 27  1  0  0  0  0
 22 28  1  0  0  0  0
 23 29  1  0  0  0  0
 23 30  1  0  0  0  0
 31 32  1  0  0  0  0
 31 36  1  0  0  0  0
 32 33  1  0  0  0  0
 32 35  1  0  0  0  0
 32 37  1  0  0  0  0
 33 34  2  0  0  0  0
 33 41  1  0  0  0  0
 35 38  1  0  0  0  0
 35 39  1  0  0  0  0
 35 40  1  0  0  0  0
 41 42  1  0  0  0  0
 41 43  1  0  0  0  0
 42 44  1  0  0  0  0
 42 45  1  0  0  0  0
 42 46  1  0  0  0  0
M  END
$$$$

  -OEChem-05262217223D

 46 46  0     1  0  0  0  0  0999 V2000
   -1.1503    0.2202    3.4655 C   0  0  0  0  0  0  0  0  0  0  0  0
   -1.3602   -0.9027    3.0324 O   0  0  0  0  0  0  0  0  0  0  0  0
   -0.8143    0.4168    4.9319 C   0  0  0  0  0  0  0  0  0  0  0  0
   -1.5458    1.0818    5.3975 H   0  0  0  0  0  0  0  0  0  0  0  0
   -0.8287   -0.5436    5.4546 H   0  0  0  0  0  0  0  0  0  0  0  0
    0.1814    0.8561    5.0299 H   0  0  0  0  0  0  0  0  0  0  0  0
   -1.2221    1.3136    2.6284 N   0  0  0  0  0  0  0  0  0  0  0  0
   -1.3580    1.2279    1.1688 C   0  0  2  0  0  0  0  0  0  0  0  0
   -0.5744    2.3604    0.4560 C   0  0  0  0  0  0  0  0  0  0  0  0
   -0.4875    3.4442    1.0297 O   0  0  0  0  0  0  0  0  0  0  0  0
   -2.8484    1.3158    0.8276 C   0  0  0  0  0  0  0  0  0  0  0  0
   -0.9454    2.2169    3.0108 H   0  0  0  0  0  0  0  0  0  0  0  0
   -0.9744    0.2643    0.8279 H   0  0  0  0  0  0  0  0  0  0  0  0
   -3.2659    2.2645    1.1800 H   0  0  0  0  0  0  0  0  0  0  0  0
   -3.0015    1.2484   -0.2531 H   0  0  0  0  0  0  0  0  0  0  0  0
   -3.3938    0.4958    1.3055 H   0  0  0  0  0  0  0  0  0  0  0  0
   -0.0034    2.2237   -0.8128 N   0  0  0  0  0  0  0  0  0  0  0  0
   -0.0710    0.9917   -1.6313 C   0  0  2  0  0  0  0  0  0  0  0  0
    0.8524   -0.1658   -1.1811 C   0  0  0  0  0  0  0  0  0  0  0  0
    1.3514   -0.1637   -0.0640 O   0  0  0  0  0  0  0  0  0  0  0  0
    0.3699    1.5364   -2.9972 C   0  0  0  0  0  0  0  0  0  0  0  0
   -0.0068    3.0060   -2.9053 C   0  0  0  0  0  0  0  0  0  0  0  0
    0.5515    3.3629   -1.5499 C   0  0  0  0  0  0  0  0  0  0  0  0
   -1.1007    0.6267   -1.6864 H   0  0  0  0  0  0  0  0  0  0  0  0
   -0.1445    1.0353   -3.8234 H   0  0  0  0  0  0  0  0  0  0  0  0
    1.4519    1.4302   -3.1410 H   0  0  0  0  0  0  0  0  0  0  0  0
    0.4527    3.5984   -3.7027 H   0  0  0  0  0  0  0  0  0  0  0  0
   -1.0931    3.1482   -2.9399 H   0  0  0  0  0  0  0  0  0  0  0  0
    1.6467    3.3677   -1.5277 H   0  0  0  0  0  0  0  0  0  0  0  0
    0.1795    4.3367   -1.2129 H   0  0  0  0  0  0  0  0  0  0  0  0
    1.0964   -1.2279   -2.0386 N   0  0  0  0  0  0  0  0  0  0  0  0
    1.8670   -2.4521   -1.7335 C   0  0  2  0  0  0  0  0  0  0  0  0
    1.2152   -3.3605   -0.6640 C   0  0  0  0  0  0  0  0  0  0  0  0
    0.8712   -4.4928   -0.9771 O   0  0  0  0  0  0  0  0  0  0  0  0
    3.3258   -2.1301   -1.3777 C   0  0  0  0  0  0  0  0  0  0  0  0
    0.6039   -1.2057   -2.9268 H   0  0  0  0  0  0  0  0  0  0  0  0
    1.8951   -3.0437   -2.6545 H   0  0  0  0  0  0  0  0  0  0  0  0
    3.4018   -1.6353   -0.4053 H   0  0  0  0  0  0  0  0  0  0  0  0
    3.9111   -3.0541   -1.3336 H   0  0  0  0  0  0  0  0  0  0  0  0
    3.7670   -1.4767   -2.1363 H   0  0  0  0  0  0  0  0  0  0  0  0
    0.9628   -2.9003    0.6133 N   0  0  0  0  0  0  0  0  0  0  0  0
    0.1887   -3.6371    1.6034 C   0  0  0  0  0  0  0  0  0  0  0  0
    1.1499   -1.9079    0.7780 H   0  0  0  0  0  0  0  0  0  0  0  0
    0.5843   -4.6504    1.7274 H   0  0  0  0  0  0  0  0  0  0  0  0
    0.2373   -3.1299    2.5717 H   0  0  0  0  0  0  0  0  0  0  0  0
   -0.8606   -3.7012    1.2974 H   0  0  0  0  0  0  0  0  0  0  0  0
  1  2  2  0  0  0  0
  1  3  1  0  0  0  0
  1  7  1  0  0  0  0
  3  4  1  0  0  0  0
  3  5  1  0  0  0  0
  3  6  1  0  0  0  0
  7  8  1  0  0  0  0
  7 12  1  0  0  0  0
  8  9  1  0  0  0  0
  8 11  1  0  0  0  0
  8 13  1  0  0  0  0
  9 10  2  0  0  0  0
  9 17  1  0  0  0  0
 11 14  1  0  0  0  0
 11 15  1  0  0  0  0
 11 16  1  0  0  0  0
 17 18  1  0  0  0  0
 17 23  1  0  0  0  0
 18 19  1  0  0  0  0
 18 21  1  0  0  0  0
 18 24  1  0  0  0  0
 19 20  2  0  0  0  0
 19 31  1  0  0  0  0
 21 22  1  0  0  0  0
 21 25  1  0  0  0  0
 21 26  1  0  0  0  0
 22 23  1  0  0  0  0
 22 27  1  0  0  0  0
 22 28  1  0  0  0  0
 23 29  1  0  0  0  0
 23 30  1  0  0  0  0
 31 32  1  0  0  0  0
 31 36  1  0  0  0  0
 32 33  1  0  0  0  0
 32 35  1  0  0  0  0
 32 37  1  0  0  0  0
 33 34  2  0  0  0  0
 33 41  1  0  0  0  0
 35 38  1  0  0  0  0
 35 39  1  0  0  0  0
 35 40  1  0  0  0  0
 41 42  1  0  0  0  0
 41 43  1  0  0  0  0
 42 44  1  0  0  0  0
 42 45  1  0  0  0  0
 42 46  1  0  0  0  0
M  END
$$$$

  -OEChem-05262217223D

 46 46  0     1  0  0  0  0  0999 V2000
   -0.8890    0.0101    3.0453 C   0  0  0  0  0  0  0  0  0  0  0  0
   -1.1972   -1.0492    2.5195 O   0  0  0  0  0  0  0  0  0  0  0  0
   -0.2085    0.0116    4.4008 C   0  0  0  0  0  0  0  0  0  0  0  0
   -0.8286    0.5402    5.1288 H   0  0  0  0  0  0  0  0  0  0  0  0
   -0.0542   -1.0142    4.7467 H   0  0  0  0  0  0  0  0  0  0  0  0
    0.7622    0.5085    4.3290 H   0  0  0  0  0  0  0  0  0  0  0  0
   -1.1726    1.2097    2.4261 N   0  0  0  0  0  0  0  0  0  0  0  0
   -1.5825    1.3246    1.0216 C   0  0  2  0  0  0  0  0  0  0  0  0
   -0.8002    2.4537    0.3024 C   0  0  0  0  0  0  0  0  0  0  0  0
   -0.7889    3.5623    0.8320 O   0  0  0  0  0  0  0  0  0  0  0  0
   -3.0874    1.6017    0.9853 C   0  0  0  0  0  0  0  0  0  0  0  0
   -0.8132    2.0530    2.8690 H   0  0  0  0  0  0  0  0  0  0  0  0
   -1.4034    0.3802    0.5050 H   0  0  0  0  0  0  0  0  0  0  0  0
   -3.3201    2.5342    1.5094 H   0  0  0  0  0  0  0  0  0  0  0  0
   -3.4337    1.6867   -0.0489 H   0  0  0  0  0  0  0  0  0  0  0  0
   -3.6327    0.7848    1.4682 H   0  0  0  0  0  0  0  0  0  0  0  0
   -0.1216    2.2862   -0.9089 N   0  0  0  0  0  0  0  0  0  0  0  0
   -0.0582    1.0136   -1.6627 C   0  0  2  0  0  0  0  0  0  0  0  0
    0.8887   -0.0614   -1.0712 C   0  0  0  0  0  0  0  0  0  0  0  0
    1.0879   -0.1114    0.1342 O   0  0  0  0  0  0  0  0  0  0  0  0
    0.4417    1.5206   -3.0247 C   0  0  0  0  0  0  0  0  0  0  0  0
   -0.0294    2.9653   -3.0355 C   0  0  0  0  0  0  0  0  0  0  0  0
    0.4116    3.4222   -1.6675 C   0  0  0  0  0  0  0  0  0  0  0  0
   -1.0584    0.5835   -1.7731 H   0  0  0  0  0  0  0  0  0  0  0  0
    0.0181    0.9473   -3.8554 H   0  0  0  0  0  0  0  0  0  0  0  0
    1.5355    1.4840   -3.0918 H   0  0  0  0  0  0  0  0  0  0  0  0
    0.4455    3.5474   -3.8313 H   0  0  0  0  0  0  0  0  0  0  0  0
   -1.1173    3.0351   -3.1484 H   0  0  0  0  0  0  0  0  0  0  0  0
    1.5004    3.4999   -1.5743 H   0  0  0  0  0  0  0  0  0  0  0  0
   -0.0424    4.3851   -1.4085 H   0  0  0  0  0  0  0  0  0  0  0  0
    1.5165   -0.9791   -1.8999 N   0  0  0  0  0  0  0  0  0  0  0  0
    2.3887   -2.0982   -1.4851 C   0  0  2  0  0  0  0  0  0  0  0  0
    1.6641   -3.2232   -0.7079 C   0  0  0  0  0  0  0  0  0  0  0  0
    1.7355   -4.3714   -1.1269 O   0  0  0  0  0  0  0  0  0  0  0  0
    3.6238   -1.6048   -0.7175 C   0  0  0  0  0  0  0  0  0  0  0  0
    1.2758   -0.9252   -2.8851 H   0  0  0  0  0  0  0  0  0  0  0  0
    2.7603   -2.5596   -2.4058 H   0  0  0  0  0  0  0  0  0  0  0  0
    3.3577   -1.2503    0.2826 H   0  0  0  0  0  0  0  0  0  0  0  0
    4.3432   -2.4223   -0.6060 H   0  0  0  0  0  0  0  0  0  0  0  0
    4.1089   -0.7880   -1.2603 H   0  0  0  0  0  0  0  0  0  0  0  0
    0.9160   -2.9618    0.4238 N   0  0  0  0  0  0  0  0  0  0  0  0
    0.1499   -3.9696    1.1442 C   0  0  0  0  0  0  0  0  0  0  0  0
    0.8269   -1.9809    0.7040 H   0  0  0  0  0  0  0  0  0  0  0  0
    0.7847   -4.8234    1.4028 H   0  0  0  0  0  0  0  0  0  0  0  0
   -0.2511   -3.5486    2.0710 H   0  0  0  0  0  0  0  0  0  0  0  0
   -0.6867   -4.3223    0.5327 H   0  0  0  0  0  0  0  0  0  0  0  0
  1  2  2  0  0  0  0
  1  3  1  0  0  0  0
  1  7  1  0  0  0  0
  3  4  1  0  0  0  0
  3  5  1  0  0  0  0
  3  6  1  0  0  0  0
  7  8  1  0  0  0  0
  7 12  1  0  0  0  0
  8  9  1  0  0  0  0
  8 11  1  0  0  0  0
  8 13  1  0  0  0  0
  9 10  2  0  0  0  0
  9 17  1  0  0  0  0
 11 14  1  0  0  0  0
 11 15  1  0  0  0  0
 11 16  1  0  0  0  0
 17 18  1  0  0  0  0
 17 23  1  0  0  0  0
 18 19  1  0  0  0  0
 18 21  1  0  0  0  0
 18 24  1  0  0  0  0
 19 20  2  0  0  0  0
 19 31  1  0  0  0  0
 21 22  1  0  0  0  0
 21 25  1  0  0  0  0
 21 26  1  0  0  0  0
 22 23  1  0  0  0  0
 22 27  1  0  0  0  0
 22 28  1  0  0  0  0
 23 29  1  0  0  0  0
 23 30  1  0  0  0  0
 31 32  1  0  0  0  0
 31 36  1  0  0  0  0
 32 33  1  0  0  0  0
 32 35  1  0  0  0  0
 32 37  1  0  0  0  0
 33 34  2  0  0  0  0
 33 41  1  0  0  0  0
 35 38  1  0  0  0  0
 35 39  1  0  0  0  0
 35 40  1  0  0  0  0
 41 42  1  0  0  0  0
 41 43  1  0  0  0  0
 42 44  1  0  0  0  0
 42 45  1  0  0  0  0
 42 46  1  0  0  0  0
M  END
$$$$

  -OEChem-05262217223D

 46 46  0     1  0  0  0  0  0999 V2000
   -1.3402    0.3999    3.5677 C   0  0  0  0  0  0  0  0  0  0  0  0
   -1.6160   -0.7324    3.2020 O   0  0  0  0  0  0  0  0  0  0  0  0
   -1.0895    0.6842    5.0368 C   0  0  0  0  0  0  0  0  0  0  0  0
   -1.8110    1.4185    5.4029 H   0  0  0  0  0  0  0  0  0  0  0  0
   -1.1916   -0.2341    5.6219 H   0  0  0  0  0  0  0  0  0  0  0  0
   -0.0792    1.0779    5.1724 H   0  0  0  0  0  0  0  0  0  0  0  0
   -1.2643    1.4291    2.6536 N   0  0  0  0  0  0  0  0  0  0  0  0
   -1.3428    1.2588    1.1971 C   0  0  2  0  0  0  0  0  0  0  0  0
   -0.5696    2.3792    0.4504 C   0  0  0  0  0  0  0  0  0  0  0  0
   -0.5126    3.4784    0.9996 O   0  0  0  0  0  0  0  0  0  0  0  0
   -2.8208    1.2962    0.7943 C   0  0  0  0  0  0  0  0  0  0  0  0
   -0.9746    2.3447    2.9940 H   0  0  0  0  0  0  0  0  0  0  0  0
   -0.9375    0.2851    0.9288 H   0  0  0  0  0  0  0  0  0  0  0  0
   -3.2695    2.2542    1.0761 H   0  0  0  0  0  0  0  0  0  0  0  0
   -2.9288    1.1654   -0.2861 H   0  0  0  0  0  0  0  0  0  0  0  0
   -3.3709    0.4928    1.2944 H   0  0  0  0  0  0  0  0  0  0  0  0
    0.0266    2.2402   -0.8102 N   0  0  0  0  0  0  0  0  0  0  0  0
    0.0197    1.0039   -1.6299 C   0  0  2  0  0  0  0  0  0  0  0  0
    0.9761   -0.1333   -1.1768 C   0  0  0  0  0  0  0  0  0  0  0  0
    1.1374   -0.3758    0.0093 O   0  0  0  0  0  0  0  0  0  0  0  0
    0.4021    1.5766   -3.0062 C   0  0  0  0  0  0  0  0  0  0  0  0
   -0.0608    3.0191   -2.9084 C   0  0  0  0  0  0  0  0  0  0  0  0
    0.5016    3.4068   -1.5641 C   0  0  0  0  0  0  0  0  0  0  0  0
   -0.9936    0.5939   -1.6764 H   0  0  0  0  0  0  0  0  0  0  0  0
   -0.0929    1.0425   -3.8237 H   0  0  0  0  0  0  0  0  0  0  0  0
    1.4853    1.5523   -3.1720 H   0  0  0  0  0  0  0  0  0  0  0  0
    0.3461    3.6382   -3.7140 H   0  0  0  0  0  0  0  0  0  0  0  0
   -1.1541    3.0951   -2.9211 H   0  0  0  0  0  0  0  0  0  0  0  0
    1.5951    3.4750   -1.5626 H   0  0  0  0  0  0  0  0  0  0  0  0
    0.0828    4.3614   -1.2273 H   0  0  0  0  0  0  0  0  0  0  0  0
    1.7568   -0.8140   -2.1012 N   0  0  0  0  0  0  0  0  0  0  0  0
    2.7549   -1.8692   -1.8256 C   0  0  2  0  0  0  0  0  0  0  0  0
    2.1692   -3.1762   -1.2390 C   0  0  0  0  0  0  0  0  0  0  0  0
    2.3038   -4.2224   -1.8599 O   0  0  0  0  0  0  0  0  0  0  0  0
    3.9043   -1.3373   -0.9572 C   0  0  0  0  0  0  0  0  0  0  0  0
    1.5817   -0.5933   -3.0769 H   0  0  0  0  0  0  0  0  0  0  0  0
    3.1945   -2.1442   -2.7901 H   0  0  0  0  0  0  0  0  0  0  0  0
    3.5739   -1.1388    0.0665 H   0  0  0  0  0  0  0  0  0  0  0  0
    4.7118   -2.0749   -0.9155 H   0  0  0  0  0  0  0  0  0  0  0  0
    4.3032   -0.4104   -1.3803 H   0  0  0  0  0  0  0  0  0  0  0  0
    1.4807   -3.1831   -0.0422 N   0  0  0  0  0  0  0  0  0  0  0  0
    0.8452   -4.3621    0.5293 C   0  0  0  0  0  0  0  0  0  0  0  0
    1.3131   -2.2690    0.3872 H   0  0  0  0  0  0  0  0  0  0  0  0
    1.5793   -5.1619    0.6729 H   0  0  0  0  0  0  0  0  0  0  0  0
    0.4075   -4.1181    1.5023 H   0  0  0  0  0  0  0  0  0  0  0  0
    0.0497   -4.7255   -0.1288 H   0  0  0  0  0  0  0  0  0  0  0  0
  1  2  2  0  0  0  0
  1  3  1  0  0  0  0
  1  7  1  0  0  0  0
  3  4  1  0  0  0  0
  3  5  1  0  0  0  0
  3  6  1  0  0  0  0
  7  8  1  0  0  0  0
  7 12  1  0  0  0  0
  8  9  1  0  0  0  0
  8 11  1  0  0  0  0
  8 13  1  0  0  0  0
  9 10  2  0  0  0  0
  9 17  1  0  0  0  0
 11 14  1  0  0  0  0
 11 15  1  0  0  0  0
 11 16  1  0  0  0  0
 17 18  1  0  0  0  0
 17 23  1  0  0  0  0
 18 19  1  0  0  0  0
 18 21  1  0  0  0  0
 18 24  1  0  0  0  0
 19 20  2  0  0  0  0
 19 31  1  0  0  0  0
 21 22  1  0  0  0  0
 21 25  1  0  0  0  0
 21 26  1  0  0  0  0
 22 23  1  0  0  0  0
 22 27  1  0  0  0  0
 22 28  1  0  0  0  0
 23 29  1  0  0  0  0
 23 30  1  0  0  0  0
 31 32  1  0  0  0  0
 31 36  1  0  0  0  0
 32 33  1  0  0  0  0
 32 35  1  0  0  0  0
 32 37  1  0  0  0  0
 33 34  2  0  0  0  0
 33 41  1  0  0  0  0
 35 38  1  0  0  0  0
 35 39  1  0  0  0  0
 35 40  1  0  0  0  0
 41 42  1  0  0  0  0
 41 43  1  0  0  0  0
 42 44  1  0  0  0  0
 42 45  1  0  0  0  0
 42 46  1  0  0  0  0
M  END
$$$$

  -OEChem-05262217223D

 46 46  0     1  0  0  0  0  0999 V2000
   -1.4140    0.6328    3.7246 C   0  0  0  0  0  0  0  0  0  0  0  0
   -1.6290   -0.5375    3.4511 O   0  0  0  0  0  0  0  0  0  0  0  0
   -1.2839    1.0605    5.1744 C   0  0  0  0  0  0  0  0  0  0  0  0
   -2.0521    1.7990    5.4164 H   0  0  0  0  0  0  0  0  0  0  0  0
   -1.4042    0.1969    5.8343 H   0  0  0  0  0  0  0  0  0  0  0  0
   -0.2980    1.4994    5.3454 H   0  0  0  0  0  0  0  0  0  0  0  0
   -1.2946    1.5728    2.7231 N   0  0  0  0  0  0  0  0  0  0  0  0
   -1.2708    1.2692    1.2851 C   0  0  2  0  0  0  0  0  0  0  0  0
   -0.5533    2.3874    0.4805 C   0  0  0  0  0  0  0  0  0  0  0  0
   -0.5302    3.5051    0.9950 O   0  0  0  0  0  0  0  0  0  0  0  0
   -2.7206    1.1333    0.8041 C   0  0  0  0  0  0  0  0  0  0  0  0
   -1.0587    2.5266    2.9937 H   0  0  0  0  0  0  0  0  0  0  0  0
   -0.7616    0.3210    1.1387 H   0  0  0  0  0  0  0  0  0  0  0  0
   -3.2696    2.0644    0.9774 H   0  0  0  0  0  0  0  0  0  0  0  0
   -2.7547    0.9035   -0.2640 H   0  0  0  0  0  0  0  0  0  0  0  0
   -3.2261    0.3257    1.3430 H   0  0  0  0  0  0  0  0  0  0  0  0
    0.0380    2.2403   -0.7841 N   0  0  0  0  0  0  0  0  0  0  0  0
    0.0974    0.9953   -1.5928 C   0  0  2  0  0  0  0  0  0  0  0  0
    1.1163   -0.0872   -1.1389 C   0  0  0  0  0  0  0  0  0  0  0  0
    1.0375   -0.5801   -0.0263 O   0  0  0  0  0  0  0  0  0  0  0  0
    0.4014    1.5677   -2.9898 C   0  0  0  0  0  0  0  0  0  0  0  0
   -0.1590    2.9737   -2.8991 C   0  0  0  0  0  0  0  0  0  0  0  0
    0.4138    3.4193   -1.5770 C   0  0  0  0  0  0  0  0  0  0  0  0
   -0.8896    0.5241   -1.6119 H   0  0  0  0  0  0  0  0  0  0  0  0
   -0.0780    0.9844   -3.7828 H   0  0  0  0  0  0  0  0  0  0  0  0
    1.4762    1.6239   -3.1929 H   0  0  0  0  0  0  0  0  0  0  0  0
    0.1793    3.6073   -3.7250 H   0  0  0  0  0  0  0  0  0  0  0  0
   -1.2549    2.9726   -2.8810 H   0  0  0  0  0  0  0  0  0  0  0  0
    1.5001    3.5571   -1.6080 H   0  0  0  0  0  0  0  0  0  0  0  0
   -0.0548    4.3540   -1.2496 H   0  0  0  0  0  0  0  0  0  0  0  0
    2.1387   -0.5199   -1.9732 N   0  0  0  0  0  0  0  0  0  0  0  0
    3.1970   -1.5055   -1.6621 C   0  0  2  0  0  0  0  0  0  0  0  0
    2.7006   -2.9573   -1.4604 C   0  0  0  0  0  0  0  0  0  0  0  0
    3.1547   -3.8491   -2.1651 O   0  0  0  0  0  0  0  0  0  0  0  0
    4.0541   -1.0457   -0.4740 C   0  0  0  0  0  0  0  0  0  0  0  0
    2.1553   -0.1111   -2.9021 H   0  0  0  0  0  0  0  0  0  0  0  0
    3.8609   -1.5363   -2.5323 H   0  0  0  0  0  0  0  0  0  0  0  0
    3.4924   -1.0879    0.4636 H   0  0  0  0  0  0  0  0  0  0  0  0
    4.9313   -1.6927   -0.3731 H   0  0  0  0  0  0  0  0  0  0  0  0
    4.3973   -0.0186   -0.6285 H   0  0  0  0  0  0  0  0  0  0  0  0
    1.7521   -3.2679   -0.5069 N   0  0  0  0  0  0  0  0  0  0  0  0
    1.2407   -4.6094   -0.2642 C   0  0  0  0  0  0  0  0  0  0  0  0
    1.3699   -2.4806    0.0240 H   0  0  0  0  0  0  0  0  0  0  0  0
    2.0485   -5.2740    0.0595 H   0  0  0  0  0  0  0  0  0  0  0  0
    0.4777   -4.5853    0.5202 H   0  0  0  0  0  0  0  0  0  0  0  0
    0.7894   -5.0184   -1.1739 H   0  0  0  0  0  0  0  0  0  0  0  0
  1  2  2  0  0  0  0
  1  3  1  0  0  0  0
  1  7  1  0  0  0  0
  3  4  1  0  0  0  0
  3  5  1  0  0  0  0
  3  6  1  0  0  0  0
  7  8  1  0  0  0  0
  7 12  1  0  0  0  0
  8  9  1  0  0  0  0
  8 11  1  0  0  0  0
  8 13  1  0  0  0  0
  9 10  2  0  0  0  0
  9 17  1  0  0  0  0
 11 14  1  0  0  0  0
 11 15  1  0  0  0  0
 11 16  1  0  0  0  0
 17 18  1  0  0  0  0
 17 23  1  0  0  0  0
 18 19  1  0  0  0  0
 18 21  1  0  0  0  0
 18 24  1  0  0  0  0
 19 20  2  0  0  0  0
 19 31  1  0  0  0  0
 21 22  1  0  0  0  0
 21 25  1  0  0  0  0
 21 26  1  0  0  0  0
 22 23  1  0  0  0  0
 22 27  1  0  0  0  0
 22 28  1  0  0  0  0
 23 29  1  0  0  0  0
 23 30  1  0  0  0  0
 31 32  1  0  0  0  0
 31 36  1  0  0  0  0
 32 33  1  0  0  0  0
 32 35  1  0  0  0  0
 32 37  1  0  0  0  0
 33 34  2  0  0  0  0
 33 41  1  0  0  0  0
 35 38  1  0  0  0  0
 35 39  1  0  0  0  0
 35 40  1  0  0  0  0
 41 42  1  0  0  0  0
 41 43  1  0  0  0  0
 42 44  1  0  0  0  0
 42 45  1  0  0  0  0
 42 46  1  0  0  0  0
M  END
$$$$

  -OEChem-05262217223D

 46 46  0     1  0  0  0  0  0999 V2000
   -1.4381    0.8031    3.8011 C   0  0  0  0  0  0  0  0  0  0  0  0
   -1.5249   -0.3988    3.6082 O   0  0  0  0  0  0  0  0  0  0  0  0
   -1.4263    1.3455    5.2181 C   0  0  0  0  0  0  0  0  0  0  0  0
   -2.2622    2.0346    5.3610 H   0  0  0  0  0  0  0  0  0  0  0  0
   -1.5180    0.5264    5.9366 H   0  0  0  0  0  0  0  0  0  0  0  0
   -0.4894    1.8754    5.4062 H   0  0  0  0  0  0  0  0  0  0  0  0
   -1.3535    1.6769    2.7381 N   0  0  0  0  0  0  0  0  0  0  0  0
   -1.2327    1.2822    1.3267 C   0  0  2  0  0  0  0  0  0  0  0  0
   -0.5671    2.4065    0.4870 C   0  0  0  0  0  0  0  0  0  0  0  0
   -0.5950    3.5414    0.9621 O   0  0  0  0  0  0  0  0  0  0  0  0
   -2.6440    0.9849    0.8035 C   0  0  0  0  0  0  0  0  0  0  0  0
   -1.2153    2.6646    2.9487 H   0  0  0  0  0  0  0  0  0  0  0  0
   -0.6249    0.3813    1.2694 H   0  0  0  0  0  0  0  0  0  0  0  0
   -3.2753    1.8755    0.8836 H   0  0  0  0  0  0  0  0  0  0  0  0
   -2.6169    0.6723   -0.2429 H   0  0  0  0  0  0  0  0  0  0  0  0
   -3.1030    0.1804    1.3866 H   0  0  0  0  0  0  0  0  0  0  0  0
    0.0342    2.2462   -0.7707 N   0  0  0  0  0  0  0  0  0  0  0  0
    0.1539    0.9819   -1.5399 C   0  0  2  0  0  0  0  0  0  0  0  0
    1.2215   -0.0194   -1.0284 C   0  0  0  0  0  0  0  0  0  0  0  0
    0.9463   -0.7497   -0.0905 O   0  0  0  0  0  0  0  0  0  0  0  0
    0.4284    1.5170   -2.9578 C   0  0  0  0  0  0  0  0  0  0  0  0
   -0.2009    2.8962   -2.9101 C   0  0  0  0  0  0  0  0  0  0  0  0
    0.3519    3.4142   -1.6055 C   0  0  0  0  0  0  0  0  0  0  0  0
   -0.8062    0.4587   -1.5471 H   0  0  0  0  0  0  0  0  0  0  0  0
   -0.0273    0.8830   -3.7257 H   0  0  0  0  0  0  0  0  0  0  0  0
    1.4953    1.6176   -3.1763 H   0  0  0  0  0  0  0  0  0  0  0  0
    0.1031    3.5185   -3.7577 H   0  0  0  0  0  0  0  0  0  0  0  0
   -1.2952    2.8415   -2.8873 H   0  0  0  0  0  0  0  0  0  0  0  0
    1.4301    3.6033   -1.6451 H   0  0  0  0  0  0  0  0  0  0  0  0
   -0.1613    4.3356   -1.3090 H   0  0  0  0  0  0  0  0  0  0  0  0
    2.4330   -0.2063   -1.6794 N   0  0  0  0  0  0  0  0  0  0  0  0
    3.5219   -1.1319   -1.3000 C   0  0  2  0  0  0  0  0  0  0  0  0
    3.1906   -2.6341   -1.4680 C   0  0  0  0  0  0  0  0  0  0  0  0
    3.8957   -3.3249   -2.1918 O   0  0  0  0  0  0  0  0  0  0  0  0
    4.0364   -0.8339    0.1158 C   0  0  0  0  0  0  0  0  0  0  0  0
    2.6045    0.3975   -2.4770 H   0  0  0  0  0  0  0  0  0  0  0  0
    4.3538   -0.9316   -1.9832 H   0  0  0  0  0  0  0  0  0  0  0  0
    3.2967   -1.1036    0.8751 H   0  0  0  0  0  0  0  0  0  0  0  0
    4.9477   -1.4080    0.3107 H   0  0  0  0  0  0  0  0  0  0  0  0
    4.2693    0.2299    0.2200 H   0  0  0  0  0  0  0  0  0  0  0  0
    2.1102   -3.2102   -0.8307 N   0  0  0  0  0  0  0  0  0  0  0  0
    1.7271   -4.6078   -0.9698 C   0  0  0  0  0  0  0  0  0  0  0  0
    1.5209   -2.5790   -0.2811 H   0  0  0  0  0  0  0  0  0  0  0  0
    2.5300   -5.2615   -0.6140 H   0  0  0  0  0  0  0  0  0  0  0  0
    0.8278   -4.8116   -0.3807 H   0  0  0  0  0  0  0  0  0  0  0  0
    1.5164   -4.8450   -2.0177 H   0  0  0  0  0  0  0  0  0  0  0  0
  1  2  2  0  0  0  0
  1  3  1  0  0  0  0
  1  7  1  0  0  0  0
  3  4  1  0  0  0  0
  3  5  1  0  0  0  0
  3  6  1  0  0  0  0
  7  8  1  0  0  0  0
  7 12  1  0  0  0  0
  8  9  1  0  0  0  0
  8 11  1  0  0  0  0
  8 13  1  0  0  0  0
  9 10  2  0  0  0  0
  9 17  1  0  0  0  0
 11 14  1  0  0  0  0
 11 15  1  0  0  0  0
 11 16  1  0  0  0  0
 17 18  1  0  0  0  0
 17 23  1  0  0  0  0
 18 19  1  0  0  0  0
 18 21  1  0  0  0  0
 18 24  1  0  0  0  0
 19 20  2  0  0  0  0
 19 31  1  0  0  0  0
 21 22  1  0  0  0  0
 21 25  1  0  0  0  0
 21 26  1  0  0  0  0
 22 23  1  0  0  0  0
 22 27  1  0  0  0  0
 22 28  1  0  0  0  0
 23 29  1  0  0  0  0
 23 30  1  0  0  0  0
 31 32  1  0  0  0  0
 31 36  1  0  0  0  0
 32 33  1  0  0  0  0
 32 35  1  0  0  0  0
 32 37  1  0  0  0  0
 33 34  2  0  0  0  0
 33 41  1  0  0  0  0
 35 38  1  0  0  0  0
 35 39  1  0  0  0  0
 35 40  1  0  0  0  0
 41 42  1  0  0  0  0
 41 43  1  0  0  0  0
 42 44  1  0  0  0  0
 42 45  1  0  0  0  0
 42 46  1  0  0  0  0
M  END
$$$$

  -OEChem-05262217223D

 46 46  0     1  0  0  0  0  0999 V2000
   -1.4551    0.8490    3.7687 C   0  0  0  0  0  0  0  0  0  0  0  0
   -1.5030   -0.3547    3.5745 O   0  0  0  0  0  0  0  0  0  0  0  0
   -1.4553    1.3884    5.1868 C   0  0  0  0  0  0  0  0  0  0  0  0
   -2.3296    2.0245    5.3446 H   0  0  0  0  0  0  0  0  0  0  0  0
   -1.4855    0.5627    5.9034 H   0  0  0  0  0  0  0  0  0  0  0  0
   -0.5497    1.9742    5.3627 H   0  0  0  0  0  0  0  0  0  0  0  0
   -1.3989    1.7240    2.7047 N   0  0  0  0  0  0  0  0  0  0  0  0
   -1.2708    1.3280    1.2946 C   0  0  2  0  0  0  0  0  0  0  0  0
   -0.6116    2.4548    0.4561 C   0  0  0  0  0  0  0  0  0  0  0  0
   -0.6652    3.5975    0.9082 O   0  0  0  0  0  0  0  0  0  0  0  0
   -2.6770    1.0142    0.7683 C   0  0  0  0  0  0  0  0  0  0  0  0
   -1.2967    2.7165    2.9133 H   0  0  0  0  0  0  0  0  0  0  0  0
   -0.6498    0.4334    1.2345 H   0  0  0  0  0  0  0  0  0  0  0  0
   -3.3217    1.8948    0.8541 H   0  0  0  0  0  0  0  0  0  0  0  0
   -2.6439    0.7096   -0.2804 H   0  0  0  0  0  0  0  0  0  0  0  0
   -3.1236    0.1982    1.3455 H   0  0  0  0  0  0  0  0  0  0  0  0
    0.0213    2.2718   -0.7803 N   0  0  0  0  0  0  0  0  0  0  0  0
    0.1725    0.9841   -1.4981 C   0  0  2  0  0  0  0  0  0  0  0  0
    1.2412    0.0329   -0.9099 C   0  0  0  0  0  0  0  0  0  0  0  0
    0.8756   -0.8582   -0.1591 O   0  0  0  0  0  0  0  0  0  0  0  0
    0.4781    1.4633   -2.9275 C   0  0  0  0  0  0  0  0  0  0  0  0
   -0.1676    2.8372   -2.9443 C   0  0  0  0  0  0  0  0  0  0  0  0
    0.3448    3.4139   -1.6471 C   0  0  0  0  0  0  0  0  0  0  0  0
   -0.7808    0.4480   -1.5089 H   0  0  0  0  0  0  0  0  0  0  0  0
    0.0435    0.7963   -3.6792 H   0  0  0  0  0  0  0  0  0  0  0  0
    1.5494    1.5567   -3.1273 H   0  0  0  0  0  0  0  0  0  0  0  0
    0.1487    3.4306   -3.8081 H   0  0  0  0  0  0  0  0  0  0  0  0
   -1.2616    2.7682   -2.9465 H   0  0  0  0  0  0  0  0  0  0  0  0
    1.4206    3.6190   -1.6682 H   0  0  0  0  0  0  0  0  0  0  0  0
   -0.1901    4.3361   -1.3950 H   0  0  0  0  0  0  0  0  0  0  0  0
    2.5645    0.0669   -1.3246 N   0  0  0  0  0  0  0  0  0  0  0  0
    3.6749   -0.7834   -0.8443 C   0  0  2  0  0  0  0  0  0  0  0  0
    3.5932   -2.2704   -1.2646 C   0  0  0  0  0  0  0  0  0  0  0  0
    4.5491   -2.7864   -1.8288 O   0  0  0  0  0  0  0  0  0  0  0  0
    3.8568   -0.6520    0.6751 C   0  0  0  0  0  0  0  0  0  0  0  0
    2.8083    0.8271   -1.9518 H   0  0  0  0  0  0  0  0  0  0  0  0
    4.5887   -0.3940   -1.3049 H   0  0  0  0  0  0  0  0  0  0  0  0
    3.0262   -1.1135    1.2174 H   0  0  0  0  0  0  0  0  0  0  0  0
    4.7814   -1.1487    0.9856 H   0  0  0  0  0  0  0  0  0  0  0  0
    3.9177    0.4021    0.9618 H   0  0  0  0  0  0  0  0  0  0  0  0
    2.4685   -3.0304   -1.0134 N   0  0  0  0  0  0  0  0  0  0  0  0
    2.3515   -4.4475   -1.3270 C   0  0  0  0  0  0  0  0  0  0  0  0
    1.7010   -2.5556   -0.5301 H   0  0  0  0  0  0  0  0  0  0  0  0
    3.0617   -5.0296   -0.7305 H   0  0  0  0  0  0  0  0  0  0  0  0
    1.3396   -4.7995   -1.1041 H   0  0  0  0  0  0  0  0  0  0  0  0
    2.5531   -4.6240   -2.3888 H   0  0  0  0  0  0  0  0  0  0  0  0
  1  2  2  0  0  0  0
  1  3  1  0  0  0  0
  1  7  1  0  0  0  0
  3  4  1  0  0  0  0
  3  5  1  0  0  0  0
  3  6  1  0  0  0  0
  7  8  1  0  0  0  0
  7 12  1  0  0  0  0
  8  9  1  0  0  0  0
  8 11  1  0  0  0  0
  8 13  1  0  0  0  0
  9 10  2  0  0  0  0
  9 17  1  0  0  0  0
 11 14  1  0  0  0  0
 11 15  1  0  0  0  0
 11 16  1  0  0  0  0
 17 18  1  0  0  0  0
 17 23  1  0  0  0  0
 18 19  1  0  0  0  0
 18 21  1  0  0  0  0
 18 24  1  0  0  0  0
 19 20  2  0  0  0  0
 19 31  1  0  0  0  0
 21 22  1  0  0  0  0
 21 25  1  0  0  0  0
 21 26  1  0  0  0  0
 22 23  1  0  0  0  0
 22 27  1  0  0  0  0
 22 28  1  0  0  0  0
 23 29  1  0  0  0  0
 23 30  1  0  0  0  0
 31 32  1  0  0  0  0
 31 36  1  0  0  0  0
 32 33  1  0  0  0  0
 32 35  1  0  0  0  0
 32 37  1  0  0  0  0
 33 34  2  0  0  0  0
 33 41  1  0  0  0  0
 35 38  1  0  0  0  0
 35 39  1  0  0  0  0
 35 40  1  0  0  0  0
 41 42  1  0  0  0  0
 41 43  1  0  0  0  0
 42 44  1  0  0  0  0
 42 45  1  0  0  0  0
 42 46  1  0  0  0  0
M  END
$$$$

  -OEChem-05262217223D

 46 46  0     1  0  0  0  0  0999 V2000
   -1.4068    0.8551    3.7492 C   0  0  0  0  0  0  0  0  0  0  0  0
   -1.3664   -0.3485    3.5539 O   0  0  0  0  0  0  0  0  0  0  0  0
   -1.4268    1.3949    5.1667 C   0  0  0  0  0  0  0  0  0  0  0  0
   -2.3830    1.8854    5.3641 H   0  0  0  0  0  0  0  0  0  0  0  0
   -1.2937    0.5793    5.8830 H   0  0  0  0  0  0  0  0  0  0  0  0
   -0.6188    2.1178    5.3024 H   0  0  0  0  0  0  0  0  0  0  0  0
   -1.4395    1.7318    2.6858 N   0  0  0  0  0  0  0  0  0  0  0  0
   -1.3203    1.3456    1.2728 C   0  0  2  0  0  0  0  0  0  0  0  0
   -0.6678    2.4779    0.4381 C   0  0  0  0  0  0  0  0  0  0  0  0
   -0.7494    3.6259    0.8702 O   0  0  0  0  0  0  0  0  0  0  0  0
   -2.7299    1.0345    0.7576 C   0  0  0  0  0  0  0  0  0  0  0  0
   -1.4024    2.7288    2.8945 H   0  0  0  0  0  0  0  0  0  0  0  0
   -0.6984    0.4509    1.1958 H   0  0  0  0  0  0  0  0  0  0  0  0
   -3.3752    1.9131    0.8577 H   0  0  0  0  0  0  0  0  0  0  0  0
   -2.7066    0.7403   -0.2946 H   0  0  0  0  0  0  0  0  0  0  0  0
   -3.1684    0.2127    1.3326 H   0  0  0  0  0  0  0  0  0  0  0  0
   -0.0083    2.2797   -0.7796 N   0  0  0  0  0  0  0  0  0  0  0  0
    0.1661    0.9735   -1.4515 C   0  0  2  0  0  0  0  0  0  0  0  0
    1.2315    0.0660   -0.8015 C   0  0  0  0  0  0  0  0  0  0  0  0
    0.8607   -0.9438   -0.2223 O   0  0  0  0  0  0  0  0  0  0  0  0
    0.5252    1.4096   -2.8802 C   0  0  0  0  0  0  0  0  0  0  0  0
   -0.1177    2.7840   -2.9598 C   0  0  0  0  0  0  0  0  0  0  0  0
    0.3449    3.4007   -1.6615 C   0  0  0  0  0  0  0  0  0  0  0  0
   -0.7827    0.4295   -1.4754 H   0  0  0  0  0  0  0  0  0  0  0  0
    0.1152    0.7219   -3.6271 H   0  0  0  0  0  0  0  0  0  0  0  0
    1.6047    1.4883   -3.0405 H   0  0  0  0  0  0  0  0  0  0  0  0
    0.2330    3.3509   -3.8280 H   0  0  0  0  0  0  0  0  0  0  0  0
   -1.2109    2.7163   -3.0023 H   0  0  0  0  0  0  0  0  0  0  0  0
    1.4202    3.6089   -1.6482 H   0  0  0  0  0  0  0  0  0  0  0  0
   -0.2031    4.3261   -1.4512 H   0  0  0  0  0  0  0  0  0  0  0  0
    2.5857    0.3148   -0.9613 N   0  0  0  0  0  0  0  0  0  0  0  0
    3.7077   -0.4646   -0.3987 C   0  0  2  0  0  0  0  0  0  0  0  0
    3.8697   -1.8826   -0.9944 C   0  0  0  0  0  0  0  0  0  0  0  0
    4.8989   -2.1700   -1.5915 O   0  0  0  0  0  0  0  0  0  0  0  0
    3.6347   -0.5110    1.1348 C   0  0  0  0  0  0  0  0  0  0  0  0
    2.8183    1.1791   -1.4414 H   0  0  0  0  0  0  0  0  0  0  0  0
    4.6261    0.0742   -0.6538 H   0  0  0  0  0  0  0  0  0  0  0  0
    2.7934   -1.1206    1.4775 H   0  0  0  0  0  0  0  0  0  0  0  0
    4.5547   -0.9442    1.5398 H   0  0  0  0  0  0  0  0  0  0  0  0
    3.5202    0.4984    1.5410 H   0  0  0  0  0  0  0  0  0  0  0  0
    2.8660   -2.8238   -0.8843 N   0  0  0  0  0  0  0  0  0  0  0  0
    2.9160   -4.1451   -1.4937 C   0  0  0  0  0  0  0  0  0  0  0  0
    1.9876   -2.4944   -0.4749 H   0  0  0  0  0  0  0  0  0  0  0  0
    2.0452   -4.7330   -1.1880 H   0  0  0  0  0  0  0  0  0  0  0  0
    2.9161   -4.0631   -2.5853 H   0  0  0  0  0  0  0  0  0  0  0  0
    3.8186   -4.6791   -1.1793 H   0  0  0  0  0  0  0  0  0  0  0  0
  1  2  2  0  0  0  0
  1  3  1  0  0  0  0
  1  7  1  0  0  0  0
  3  4  1  0  0  0  0
  3  5  1  0  0  0  0
  3  6  1  0  0  0  0
  7  8  1  0  0  0  0
  7 12  1  0  0  0  0
  8  9  1  0  0  0  0
  8 11  1  0  0  0  0
  8 13  1  0  0  0  0
  9 10  2  0  0  0  0
  9 17  1  0  0  0  0
 11 14  1  0  0  0  0
 11 15  1  0  0  0  0
 11 16  1  0  0  0  0
 17 18  1  0  0  0  0
 17 23  1  0  0  0  0
 18 19  1  0  0  0  0
 18 21  1  0  0  0  0
 18 24  1  0  0  0  0
 19 20  2  0  0  0  0
 19 31  1  0  0  0  0
 21 22  1  0  0  0  0
 21 25  1  0  0  0  0
 21 26  1  0  0  0  0
 22 23  1  0  0  0  0
 22 27  1  0  0  0  0
 22 28  1  0  0  0  0
 23 29  1  0  0  0  0
 23 30  1  0  0  0  0
 31 32  1  0  0  0  0
 31 36  1  0  0  0  0
 32 33  1  0  0  0  0
 32 35  1  0  0  0  0
 32 37  1  0  0  0  0
 33 34  2  0  0  0  0
 33 41  1  0  0  0  0
 35 38  1  0  0  0  0
 35 39  1  0  0  0  0
 35 40  1  0  0  0  0
 41 42  1  0  0  0  0
 41 43  1  0  0  0  0
 42 44  1  0  0  0  0
 42 45  1  0  0  0  0
 42 46  1  0  0  0  0
M  END
$$$$

  -OEChem-05262217223D

 46 46  0     1  0  0  0  0  0999 V2000
   -0.8187    1.1815    3.4846 C   0  0  0  0  0  0  0  0  0  0  0  0
    0.1933    0.5866    3.1497 O   0  0  0  0  0  0  0  0  0  0  0  0
   -0.9749    1.6683    4.9129 C   0  0  0  0  0  0  0  0  0  0  0  0
   -1.9001    1.2763    5.3424 H   0  0  0  0  0  0  0  0  0  0  0  0
   -0.1328    1.3273    5.5219 H   0  0  0  0  0  0  0  0  0  0  0  0
   -1.0048    2.7605    4.9328 H   0  0  0  0  0  0  0  0  0  0  0  0
   -1.8083    1.4458    2.5601 N   0  0  0  0  0  0  0  0  0  0  0  0
   -1.6103    1.2337    1.1189 C   0  0  2  0  0  0  0  0  0  0  0  0
   -0.8675    2.4195    0.4492 C   0  0  0  0  0  0  0  0  0  0  0  0
   -1.0567    3.5487    0.8947 O   0  0  0  0  0  0  0  0  0  0  0  0
   -2.9944    1.0416    0.4939 C   0  0  0  0  0  0  0  0  0  0  0  0
   -2.4889    2.1480    2.8363 H   0  0  0  0  0  0  0  0  0  0  0  0
   -1.0358    0.3156    0.9674 H   0  0  0  0  0  0  0  0  0  0  0  0
   -3.6071    1.9380    0.6344 H   0  0  0  0  0  0  0  0  0  0  0  0
   -2.9095    0.8453   -0.5787 H   0  0  0  0  0  0  0  0  0  0  0  0
   -3.5037    0.1921    0.9596 H   0  0  0  0  0  0  0  0  0  0  0  0
   -0.0688    2.2793   -0.6894 N   0  0  0  0  0  0  0  0  0  0  0  0
    0.1669    1.0000   -1.3931 C   0  0  2  0  0  0  0  0  0  0  0  0
    1.1328    0.0381   -0.6755 C   0  0  0  0  0  0  0  0  0  0  0  0
    0.7556   -1.1055   -0.4603 O   0  0  0  0  0  0  0  0  0  0  0  0
    0.7246    1.4920   -2.7352 C   0  0  0  0  0  0  0  0  0  0  0  0
    0.1262    2.8864   -2.8335 C   0  0  0  0  0  0  0  0  0  0  0  0
    0.4176    3.4329   -1.4573 C   0  0  0  0  0  0  0  0  0  0  0  0
   -0.7815    0.4814   -1.5654 H   0  0  0  0  0  0  0  0  0  0  0  0
    0.4087    0.8504   -3.5640 H   0  0  0  0  0  0  0  0  0  0  0  0
    1.8186    1.5433   -2.7365 H   0  0  0  0  0  0  0  0  0  0  0  0
    0.6038    3.4830   -3.6170 H   0  0  0  0  0  0  0  0  0  0  0  0
   -0.9519    2.8488   -3.0279 H   0  0  0  0  0  0  0  0  0  0  0  0
    1.4842    3.6172   -1.2894 H   0  0  0  0  0  0  0  0  0  0  0  0
   -0.1403    4.3583   -1.2758 H   0  0  0  0  0  0  0  0  0  0  0  0
    2.4371    0.4226   -0.4089 N   0  0  0  0  0  0  0  0  0  0  0  0
    3.4707   -0.3615    0.2982 C   0  0  2  0  0  0  0  0  0  0  0  0
    3.9731   -1.6175   -0.4530 C   0  0  0  0  0  0  0  0  0  0  0  0
    5.1672   -1.7372   -0.6967 O   0  0  0  0  0  0  0  0  0  0  0  0
    3.0121   -0.7133    1.7195 C   0  0  0  0  0  0  0  0  0  0  0  0
    2.6325    1.4080   -0.5615 H   0  0  0  0  0  0  0  0  0  0  0  0
    4.3440    0.2905    0.4022 H   0  0  0  0  0  0  0  0  0  0  0  0
    2.1510   -1.3878    1.7076 H   0  0  0  0  0  0  0  0  0  0  0  0
    3.8230   -1.2038    2.2662 H   0  0  0  0  0  0  0  0  0  0  0  0
    2.7328    0.1948    2.2618 H   0  0  0  0  0  0  0  0  0  0  0  0
    3.1029   -2.6091   -0.8588 N   0  0  0  0  0  0  0  0  0  0  0  0
    3.5044   -3.8087   -1.5794 C   0  0  0  0  0  0  0  0  0  0  0  0
    2.1100   -2.4345   -0.6820 H   0  0  0  0  0  0  0  0  0  0  0  0
    4.2137   -4.3929   -0.9845 H   0  0  0  0  0  0  0  0  0  0  0  0
    2.6300   -4.4331   -1.7851 H   0  0  0  0  0  0  0  0  0  0  0  0
    3.9746   -3.5454   -2.5324 H   0  0  0  0  0  0  0  0  0  0  0  0
  1  2  2  0  0  0  0
  1  3  1  0  0  0  0
  1  7  1  0  0  0  0
  3  4  1  0  0  0  0
  3  5  1  0  0  0  0
  3  6  1  0  0  0  0
  7  8  1  0  0  0  0
  7 12  1  0  0  0  0
  8  9  1  0  0  0  0
  8 11  1  0  0  0  0
  8 13  1  0  0  0  0
  9 10  2  0  0  0  0
  9 17  1  0  0  0  0
 11 14  1  0  0  0  0
 11 15  1  0  0  0  0
 11 16  1  0  0  0  0
 17 18  1  0  0  0  0
 17 23  1  0  0  0  0
 18 19  1  0  0  0  0
 18 21  1  0  0  0  0
 18 24  1  0  0  0  0
 19 20  2  0  0  0  0
 19 31  1  0  0  0  0
 21 22  1  0  0  0  0
 21 25  1  0  0  0  0
 21 26  1  0  0  0  0
 22 23  1  0  0  0  0
 22 27  1  0  0  0  0
 22 28  1  0  0  0  0
 23 29  1  0  0  0  0
 23 30  1  0  0  0  0
 31 32  1  0  0  0  0
 31 36  1  0  0  0  0
 32 33  1  0  0  0  0
 32 35  1  0  0  0  0
 32 37  1  0  0  0  0
 33 34  2  0  0  0  0
 33 41  1  0  0  0  0
 35 38  1  0  0  0  0
 35 39  1  0  0  0  0
 35 40  1  0  0  0  0
 41 42  1  0  0  0  0
 41 43  1  0  0  0  0
 42 44  1  0  0  0  0
 42 45  1  0  0  0  0
 42 46  1  0  0  0  0
M  END
$$$$

  -OEChem-05262217223D

 46 46  0     1  0  0  0  0  0999 V2000
   -1.0328    1.1937    3.6131 C   0  0  0  0  0  0  0  0  0  0  0  0
   -0.1691    0.3610    3.3913 O   0  0  0  0  0  0  0  0  0  0  0  0
   -1.1741    1.7874    5.0021 C   0  0  0  0  0  0  0  0  0  0  0  0
   -2.1927    1.6404    5.3690 H   0  0  0  0  0  0  0  0  0  0  0  0
   -0.4781    1.3023    5.6921 H   0  0  0  0  0  0  0  0  0  0  0  0
   -0.9549    2.8577    4.9742 H   0  0  0  0  0  0  0  0  0  0  0  0
   -1.8626    1.6260    2.5996 N   0  0  0  0  0  0  0  0  0  0  0  0
   -1.6313    1.3138    1.1809 C   0  0  2  0  0  0  0  0  0  0  0  0
   -0.8816    2.4591    0.4526 C   0  0  0  0  0  0  0  0  0  0  0  0
   -1.0385    3.6073    0.8597 O   0  0  0  0  0  0  0  0  0  0  0  0
   -3.0056    1.0827    0.5468 C   0  0  0  0  0  0  0  0  0  0  0  0
   -2.3855    2.4755    2.7982 H   0  0  0  0  0  0  0  0  0  0  0  0
   -1.0509    0.3910    1.0902 H   0  0  0  0  0  0  0  0  0  0  0  0
   -3.6203    1.9853    0.6245 H   0  0  0  0  0  0  0  0  0  0  0  0
   -2.9062    0.8222   -0.5104 H   0  0  0  0  0  0  0  0  0  0  0  0
   -3.5224    0.2631    1.0558 H   0  0  0  0  0  0  0  0  0  0  0  0
   -0.0863    2.2586   -0.6785 N   0  0  0  0  0  0  0  0  0  0  0  0
    0.1401    0.9447   -1.3189 C   0  0  2  0  0  0  0  0  0  0  0  0
    1.1017    0.0148   -0.5583 C   0  0  0  0  0  0  0  0  0  0  0  0
    0.8502   -1.1809   -0.5120 O   0  0  0  0  0  0  0  0  0  0  0  0
    0.7215    1.3667   -2.6724 C   0  0  0  0  0  0  0  0  0  0  0  0
    0.1452    2.7631   -2.8443 C   0  0  0  0  0  0  0  0  0  0  0  0
    0.4257    3.3694   -1.4916 C   0  0  0  0  0  0  0  0  0  0  0  0
   -0.8099    0.4241   -1.4742 H   0  0  0  0  0  0  0  0  0  0  0  0
    0.4093    0.6922   -3.4764 H   0  0  0  0  0  0  0  0  0  0  0  0
    1.8168    1.4012   -2.6537 H   0  0  0  0  0  0  0  0  0  0  0  0
    0.6425    3.3149   -3.6484 H   0  0  0  0  0  0  0  0  0  0  0  0
   -0.9305    2.7317   -3.0522 H   0  0  0  0  0  0  0  0  0  0  0  0
    1.4925    3.5476   -1.3193 H   0  0  0  0  0  0  0  0  0  0  0  0
   -0.1224    4.3088   -1.3598 H   0  0  0  0  0  0  0  0  0  0  0  0
    2.2867    0.5217   -0.0519 N   0  0  0  0  0  0  0  0  0  0  0  0
    3.3311   -0.2126    0.6903 C   0  0  2  0  0  0  0  0  0  0  0  0
    4.0868   -1.2819   -0.1326 C   0  0  0  0  0  0  0  0  0  0  0  0
    5.3004   -1.1921   -0.2679 O   0  0  0  0  0  0  0  0  0  0  0  0
    2.7684   -0.8119    1.9849 C   0  0  0  0  0  0  0  0  0  0  0  0
    2.3790    1.5328   -0.1033 H   0  0  0  0  0  0  0  0  0  0  0  0
    4.0854    0.5236    0.9868 H   0  0  0  0  0  0  0  0  0  0  0  0
    2.0033   -1.5659    1.7795 H   0  0  0  0  0  0  0  0  0  0  0  0
    3.5698   -1.2863    2.5594 H   0  0  0  0  0  0  0  0  0  0  0  0
    2.3246   -0.0255    2.6014 H   0  0  0  0  0  0  0  0  0  0  0  0
    3.4207   -2.3367   -0.7235 N   0  0  0  0  0  0  0  0  0  0  0  0
    4.0658   -3.3546   -1.5402 C   0  0  0  0  0  0  0  0  0  0  0  0
    2.3995   -2.3146   -0.6580 H   0  0  0  0  0  0  0  0  0  0  0  0
    3.3311   -4.0971   -1.8661 H   0  0  0  0  0  0  0  0  0  0  0  0
    4.5206   -2.9015   -2.4270 H   0  0  0  0  0  0  0  0  0  0  0  0
    4.8446   -3.8686   -0.9670 H   0  0  0  0  0  0  0  0  0  0  0  0
  1  2  2  0  0  0  0
  1  3  1  0  0  0  0
  1  7  1  0  0  0  0
  3  4  1  0  0  0  0
  3  5  1  0  0  0  0
  3  6  1  0  0  0  0
  7  8  1  0  0  0  0
  7 12  1  0  0  0  0
  8  9  1  0  0  0  0
  8 11  1  0  0  0  0
  8 13  1  0  0  0  0
  9 10  2  0  0  0  0
  9 17  1  0  0  0  0
 11 14  1  0  0  0  0
 11 15  1  0  0  0  0
 11 16  1  0  0  0  0
 17 18  1  0  0  0  0
 17 23  1  0  0  0  0
 18 19  1  0  0  0  0
 18 21  1  0  0  0  0
 18 24  1  0  0  0  0
 19 20  2  0  0  0  0
 19 31  1  0  0  0  0
 21 22  1  0  0  0  0
 21 25  1  0  0  0  0
 21 26  1  0  0  0  0
 22 23  1  0  0  0  0
 22 27  1  0  0  0  0
 22 28  1  0  0  0  0
 23 29  1  0  0  0  0
 23 30  1  0  0  0  0
 31 32  1  0  0  0  0
 31 36  1  0  0  0  0
 32 33  1  0  0  0  0
 32 35  1  0  0  0  0
 32 37  1  0  0  0  0
 33 34  2  0  0  0  0
 33 41  1  0  0  0  0
 35 38  1  0  0  0  0
 35 39  1  0  0  0  0
 35 40  1  0  0  0  0
 41 42  1  0  0  0  0
 41 43  1  0  0  0  0
 42 44  1  0  0  0  0
 42 45  1  0  0  0  0
 42 46  1  0  0  0  0
M  END
$$$$

  -OEChem-05262217223D

 46 46  0     1  0  0  0  0  0999 V2000
   -1.3532    1.0932    3.6894 C   0  0  0  0  0  0  0  0  0  0  0  0
   -0.8464   -0.0052    3.5313 O   0  0  0  0  0  0  0  0  0  0  0  0
   -1.4477    1.6899    5.0813 C   0  0  0  0  0  0  0  0  0  0  0  0
   -2.4942    1.8662    5.3416 H   0  0  0  0  0  0  0  0  0  0  0  0
   -1.0132    1.0057    5.8158 H   0  0  0  0  0  0  0  0  0  0  0  0
   -0.9049    2.6376    5.1191 H   0  0  0  0  0  0  0  0  0  0  0  0
   -1.8295    1.8051    2.6081 N   0  0  0  0  0  0  0  0  0  0  0  0
   -1.6089    1.4301    1.2026 C   0  0  2  0  0  0  0  0  0  0  0  0
   -0.8406    2.5339    0.4328 C   0  0  0  0  0  0  0  0  0  0  0  0
   -0.9376    3.6926    0.8279 O   0  0  0  0  0  0  0  0  0  0  0  0
   -2.9873    1.1994    0.5771 C   0  0  0  0  0  0  0  0  0  0  0  0
   -2.0724    2.7785    2.7839 H   0  0  0  0  0  0  0  0  0  0  0  0
   -1.0357    0.5009    1.1429 H   0  0  0  0  0  0  0  0  0  0  0  0
   -3.5905    2.1113    0.6324 H   0  0  0  0  0  0  0  0  0  0  0  0
   -2.8949    0.9090   -0.4730 H   0  0  0  0  0  0  0  0  0  0  0  0
   -3.5123    0.4004    1.1100 H   0  0  0  0  0  0  0  0  0  0  0  0
   -0.0568    2.2803   -0.6955 N   0  0  0  0  0  0  0  0  0  0  0  0
    0.1403    0.9418   -1.2960 C   0  0  2  0  0  0  0  0  0  0  0  0
    1.0882    0.0192   -0.5108 C   0  0  0  0  0  0  0  0  0  0  0  0
    0.9601   -1.1919   -0.6171 O   0  0  0  0  0  0  0  0  0  0  0  0
    0.7386    1.3105   -2.6565 C   0  0  0  0  0  0  0  0  0  0  0  0
    0.1982    2.7152   -2.8735 C   0  0  0  0  0  0  0  0  0  0  0  0
    0.4860    3.3540   -1.5374 C   0  0  0  0  0  0  0  0  0  0  0  0
   -0.8185    0.4338   -1.4373 H   0  0  0  0  0  0  0  0  0  0  0  0
    0.4170    0.6196   -3.4425 H   0  0  0  0  0  0  0  0  0  0  0  0
    1.8344    1.3184   -2.6269 H   0  0  0  0  0  0  0  0  0  0  0  0
    0.7135    3.2307   -3.6899 H   0  0  0  0  0  0  0  0  0  0  0  0
   -0.8766    2.7040   -3.0879 H   0  0  0  0  0  0  0  0  0  0  0  0
    1.5560    3.5114   -1.3633 H   0  0  0  0  0  0  0  0  0  0  0  0
   -0.0410    4.3091   -1.4353 H   0  0  0  0  0  0  0  0  0  0  0  0
    2.1174    0.5716    0.2327 N   0  0  0  0  0  0  0  0  0  0  0  0
    3.0925   -0.1437    1.0796 C   0  0  2  0  0  0  0  0  0  0  0  0
    4.0856   -1.0475    0.3117 C   0  0  0  0  0  0  0  0  0  0  0  0
    5.2883   -0.8396    0.4072 O   0  0  0  0  0  0  0  0  0  0  0  0
    2.3788   -0.9262    2.1899 C   0  0  0  0  0  0  0  0  0  0  0  0
    2.1301    1.5882    0.2638 H   0  0  0  0  0  0  0  0  0  0  0  0
    3.7036    0.6189    1.5735 H   0  0  0  0  0  0  0  0  0  0  0  0
    1.7777   -1.7434    1.7809 H   0  0  0  0  0  0  0  0  0  0  0  0
    3.1128   -1.3547    2.8792 H   0  0  0  0  0  0  0  0  0  0  0  0
    1.7211   -0.2622    2.7576 H   0  0  0  0  0  0  0  0  0  0  0  0
    3.6446   -2.0850   -0.4852 N   0  0  0  0  0  0  0  0  0  0  0  0
    4.5235   -2.9532   -1.2559 C   0  0  0  0  0  0  0  0  0  0  0  0
    2.6308   -2.1631   -0.6012 H   0  0  0  0  0  0  0  0  0  0  0  0
    3.9393   -3.7311   -1.7570 H   0  0  0  0  0  0  0  0  0  0  0  0
    5.0612   -2.3769   -2.0158 H   0  0  0  0  0  0  0  0  0  0  0  0
    5.2531   -3.4390   -0.5993 H   0  0  0  0  0  0  0  0  0  0  0  0
  1  2  2  0  0  0  0
  1  3  1  0  0  0  0
  1  7  1  0  0  0  0
  3  4  1  0  0  0  0
  3  5  1  0  0  0  0
  3  6  1  0  0  0  0
  7  8  1  0  0  0  0
  7 12  1  0  0  0  0
  8  9  1  0  0  0  0
  8 11  1  0  0  0  0
  8 13  1  0  0  0  0
  9 10  2  0  0  0  0
  9 17  1  0  0  0  0
 11 14  1  0  0  0  0
 11 15  1  0  0  0  0
 11 16  1  0  0  0  0
 17 18  1  0  0  0  0
 17 23  1  0  0  0  0
 18 19  1  0  0  0  0
 18 21  1  0  0  0  0
 18 24  1  0  0  0  0
 19 20  2  0  0  0  0
 19 31  1  0  0  0  0
 21 22  1  0  0  0  0
 21 25  1  0  0  0  0
 21 26  1  0  0  0  0
 22 23  1  0  0  0  0
 22 27  1  0  0  0  0
 22 28  1  0  0  0  0
 23 29  1  0  0  0  0
 23 30  1  0  0  0  0
 31 32  1  0  0  0  0
 31 36  1  0  0  0  0
 32 33  1  0  0  0  0
 32 35  1  0  0  0  0
 32 37  1  0  0  0  0
 33 34  2  0  0  0  0
 33 41  1  0  0  0  0
 35 38  1  0  0  0  0
 35 39  1  0  0  0  0
 35 40  1  0  0  0  0
 41 42  1  0  0  0  0
 41 43  1  0  0  0  0
 42 44  1  0  0  0  0
 42 45  1  0  0  0  0
 42 46  1  0  0  0  0
M  END
$$$$

  -OEChem-05262217223D

 46 46  0     1  0  0  0  0  0999 V2000
   -1.6224    1.1778    3.7095 C   0  0  0  0  0  0  0  0  0  0  0  0
   -1.2592    0.0196    3.5874 O   0  0  0  0  0  0  0  0  0  0  0  0
   -1.7357    1.7959    5.0901 C   0  0  0  0  0  0  0  0  0  0  0  0
   -2.7624    2.1251    5.2678 H   0  0  0  0  0  0  0  0  0  0  0  0
   -1.4631    1.0633    5.8551 H   0  0  0  0  0  0  0  0  0  0  0  0
   -1.0657    2.6554    5.1706 H   0  0  0  0  0  0  0  0  0  0  0  0
   -1.9206    1.9352    2.5961 N   0  0  0  0  0  0  0  0  0  0  0  0
   -1.6689    1.5153    1.2093 C   0  0  2  0  0  0  0  0  0  0  0  0
   -0.8355    2.5709    0.4401 C   0  0  0  0  0  0  0  0  0  0  0  0
   -0.8896    3.7388    0.8144 O   0  0  0  0  0  0  0  0  0  0  0  0
   -3.0323    1.3142    0.5424 C   0  0  0  0  0  0  0  0  0  0  0  0
   -2.0636    2.9322    2.7504 H   0  0  0  0  0  0  0  0  0  0  0  0
   -1.1240    0.5673    1.1958 H   0  0  0  0  0  0  0  0  0  0  0  0
   -3.6090    2.2446    0.5618 H   0  0  0  0  0  0  0  0  0  0  0  0
   -2.9138    1.0025   -0.4990 H   0  0  0  0  0  0  0  0  0  0  0  0
   -3.5993    0.5412    1.0710 H   0  0  0  0  0  0  0  0  0  0  0  0
   -0.0246    2.2603   -0.6543 N   0  0  0  0  0  0  0  0  0  0  0  0
    0.1431    0.9002   -1.2158 C   0  0  2  0  0  0  0  0  0  0  0  0
    1.0284   -0.0465   -0.3864 C   0  0  0  0  0  0  0  0  0  0  0  0
    1.0451   -1.2366   -0.6660 O   0  0  0  0  0  0  0  0  0  0  0  0
    0.8117    1.2163   -2.5576 C   0  0  0  0  0  0  0  0  0  0  0  0
    0.3387    2.6350   -2.8284 C   0  0  0  0  0  0  0  0  0  0  0  0
    0.5961    3.2919   -1.4948 C   0  0  0  0  0  0  0  0  0  0  0  0
   -0.8284    0.4261   -1.3842 H   0  0  0  0  0  0  0  0  0  0  0  0
    0.4978    0.5201   -3.3421 H   0  0  0  0  0  0  0  0  0  0  0  0
    1.9049    1.1828   -2.4801 H   0  0  0  0  0  0  0  0  0  0  0  0
    0.9092    3.1095   -3.6329 H   0  0  0  0  0  0  0  0  0  0  0  0
   -0.7257    2.6613   -3.0880 H   0  0  0  0  0  0  0  0  0  0  0  0
    1.6638    3.4104   -1.2792 H   0  0  0  0  0  0  0  0  0  0  0  0
    0.1039    4.2690   -1.4353 H   0  0  0  0  0  0  0  0  0  0  0  0
    1.8438    0.4683    0.6078 N   0  0  0  0  0  0  0  0  0  0  0  0
    2.7606   -0.2797    1.4914 C   0  0  2  0  0  0  0  0  0  0  0  0
    3.9700   -0.9227    0.7729 C   0  0  0  0  0  0  0  0  0  0  0  0
    5.1058   -0.6529    1.1415 O   0  0  0  0  0  0  0  0  0  0  0  0
    1.9984   -1.3196    2.3237 C   0  0  0  0  0  0  0  0  0  0  0  0
    1.7993    1.4778    0.7279 H   0  0  0  0  0  0  0  0  0  0  0  0
    3.1805    0.4437    2.1979 H   0  0  0  0  0  0  0  0  0  0  0  0
    1.5931   -2.1174    1.6948 H   0  0  0  0  0  0  0  0  0  0  0  0
    2.6682   -1.7735    3.0607 H   0  0  0  0  0  0  0  0  0  0  0  0
    1.1707   -0.8447    2.8579 H   0  0  0  0  0  0  0  0  0  0  0  0
    3.7955   -1.7852   -0.2907 N   0  0  0  0  0  0  0  0  0  0  0  0
    4.8856   -2.4068   -1.0283 C   0  0  0  0  0  0  0  0  0  0  0  0
    2.8294   -1.9452   -0.5880 H   0  0  0  0  0  0  0  0  0  0  0  0
    4.4861   -3.0403   -1.8257 H   0  0  0  0  0  0  0  0  0  0  0  0
    5.5270   -1.6435   -1.4806 H   0  0  0  0  0  0  0  0  0  0  0  0
    5.4919   -3.0293   -0.3624 H   0  0  0  0  0  0  0  0  0  0  0  0
  1  2  2  0  0  0  0
  1  3  1  0  0  0  0
  1  7  1  0  0  0  0
  3  4  1  0  0  0  0
  3  5  1  0  0  0  0
  3  6  1  0  0  0  0
  7  8  1  0  0  0  0
  7 12  1  0  0  0  0
  8  9  1  0  0  0  0
  8 11  1  0  0  0  0
  8 13  1  0  0  0  0
  9 10  2  0  0  0  0
  9 17  1  0  0  0  0
 11 14  1  0  0  0  0
 11 15  1  0  0  0  0
 11 16  1  0  0  0  0
 17 18  1  0  0  0  0
 17 23  1  0  0  0  0
 18 19  1  0  0  0  0
 18 21  1  0  0  0  0
 18 24  1  0  0  0  0
 19 20  2  0  0  0  0
 19 31  1  0  0  0  0
 21 22  1  0  0  0  0
 21 25  1  0  0  0  0
 21 26  1  0  0  0  0
 22 23  1  0  0  0  0
 22 27  1  0  0  0  0
 22 28  1  0  0  0  0
 23 29  1  0  0  0  0
 23 30  1  0  0  0  0
 31 32  1  0  0  0  0
 31 36  1  0  0  0  0
 32 33  1  0  0  0  0
 32 35  1  0  0  0  0
 32 37  1  0  0  0  0
 33 34  2  0  0  0  0
 33 41  1  0  0  0  0
 35 38  1  0  0  0  0
 35 39  1  0  0  0  0
 35 40  1  0  0  0  0
 41 42  1  0  0  0  0
 41 43  1  0  0  0  0
 42 44  1  0  0  0  0
 42 45  1  0  0  0  0
 42 46  1  0  0  0  0
M  END
$$$$

  -OEChem-05262217223D

 46 46  0     1  0  0  0  0  0999 V2000
   -1.1733    1.6609    3.5112 C   0  0  0  0  0  0  0  0  0  0  0  0
   -0.0651    1.2321    3.2250 O   0  0  0  0  0  0  0  0  0  0  0  0
   -1.4387    2.2463    4.8850 C   0  0  0  0  0  0  0  0  0  0  0  0
   -2.2583    1.7096    5.3687 H   0  0  0  0  0  0  0  0  0  0  0  0
   -0.5451    2.1626    5.5098 H   0  0  0  0  0  0  0  0  0  0  0  0
   -1.7060    3.3020    4.7946 H   0  0  0  0  0  0  0  0  0  0  0  0
   -2.1712    1.6554    2.5580 N   0  0  0  0  0  0  0  0  0  0  0  0
   -1.8761    1.3790    1.1448 C   0  0  2  0  0  0  0  0  0  0  0  0
   -1.0139    2.4957    0.4985 C   0  0  0  0  0  0  0  0  0  0  0  0
   -1.1968    3.6537    0.8630 O   0  0  0  0  0  0  0  0  0  0  0  0
   -3.2106    1.2435    0.4080 C   0  0  0  0  0  0  0  0  0  0  0  0
   -2.9749    2.2423    2.7634 H   0  0  0  0  0  0  0  0  0  0  0  0
   -1.3453    0.4253    1.0781 H   0  0  0  0  0  0  0  0  0  0  0  0
   -3.7782    2.1781    0.4679 H   0  0  0  0  0  0  0  0  0  0  0  0
   -3.0446    1.0079   -0.6474 H   0  0  0  0  0  0  0  0  0  0  0  0
   -3.8093    0.4412    0.8503 H   0  0  0  0  0  0  0  0  0  0  0  0
   -0.1076    2.2541   -0.5363 N   0  0  0  0  0  0  0  0  0  0  0  0
    0.1482    0.9282   -1.1462 C   0  0  2  0  0  0  0  0  0  0  0  0
    0.9869   -0.0850   -0.3394 C   0  0  0  0  0  0  0  0  0  0  0  0
    1.2363   -1.1631   -0.8626 O   0  0  0  0  0  0  0  0  0  0  0  0
    0.9024    1.3377   -2.4174 C   0  0  0  0  0  0  0  0  0  0  0  0
    0.4036    2.7523   -2.6572 C   0  0  0  0  0  0  0  0  0  0  0  0
    0.5406    3.3438   -1.2769 C   0  0  0  0  0  0  0  0  0  0  0  0
   -0.7988    0.4524   -1.4166 H   0  0  0  0  0  0  0  0  0  0  0  0
    0.6745    0.6725   -3.2566 H   0  0  0  0  0  0  0  0  0  0  0  0
    1.9873    1.3351   -2.2569 H   0  0  0  0  0  0  0  0  0  0  0  0
    1.0150    3.2849   -3.3924 H   0  0  0  0  0  0  0  0  0  0  0  0
   -0.6394    2.7595   -2.9938 H   0  0  0  0  0  0  0  0  0  0  0  0
    1.5851    3.4780   -0.9743 H   0  0  0  0  0  0  0  0  0  0  0  0
    0.0196    4.3049   -1.2071 H   0  0  0  0  0  0  0  0  0  0  0  0
    1.4938    0.2136    0.9145 N   0  0  0  0  0  0  0  0  0  0  0  0
    2.2393   -0.6907    1.8158 C   0  0  2  0  0  0  0  0  0  0  0  0
    3.6540   -1.0997    1.3402 C   0  0  0  0  0  0  0  0  0  0  0  0
    4.5789   -1.1261    2.1423 O   0  0  0  0  0  0  0  0  0  0  0  0
    1.4027   -1.9288    2.1629 C   0  0  0  0  0  0  0  0  0  0  0  0
    1.1535    1.0774    1.3400 H   0  0  0  0  0  0  0  0  0  0  0  0
    2.3888   -0.1379    2.7495 H   0  0  0  0  0  0  0  0  0  0  0  0
    1.2795   -2.5815    1.2940 H   0  0  0  0  0  0  0  0  0  0  0  0
    1.8962   -2.5026    2.9537 H   0  0  0  0  0  0  0  0  0  0  0  0
    0.4133   -1.6281    2.5204 H   0  0  0  0  0  0  0  0  0  0  0  0
    3.8936   -1.4845    0.0358 N   0  0  0  0  0  0  0  0  0  0  0  0
    5.1713   -1.9932   -0.4426 C   0  0  0  0  0  0  0  0  0  0  0  0
    3.0699   -1.5494   -0.5667 H   0  0  0  0  0  0  0  0  0  0  0  0
    5.1245   -2.1735   -1.5207 H   0  0  0  0  0  0  0  0  0  0  0  0
    5.9692   -1.2687   -0.2484 H   0  0  0  0  0  0  0  0  0  0  0  0
    5.4195   -2.9351    0.0574 H   0  0  0  0  0  0  0  0  0  0  0  0
  1  2  2  0  0  0  0
  1  3  1  0  0  0  0
  1  7  1  0  0  0  0
  3  4  1  0  0  0  0
  3  5  1  0  0  0  0
  3  6  1  0  0  0  0
  7  8  1  0  0  0  0
  7 12  1  0  0  0  0
  8  9  1  0  0  0  0
  8 11  1  0  0  0  0
  8 13  1  0  0  0  0
  9 10  2  0  0  0  0
  9 17  1  0  0  0  0
 11 14  1  0  0  0  0
 11 15  1  0  0  0  0
 11 16  1  0  0  0  0
 17 18  1  0  0  0  0
 17 23  1  0  0  0  0
 18 19  1  0  0  0  0
 18 21  1  0  0  0  0
 18 24  1  0  0  0  0
 19 20  2  0  0  0  0
 19 31  1  0  0  0  0
 21 22  1  0  0  0  0
 21 25  1  0  0  0  0
 21 26  1  0  0  0  0
 22 23  1  0  0  0  0
 22 27  1  0  0  0  0
 22 28  1  0  0  0  0
 23 29  1  0  0  0  0
 23 30  1  0  0  0  0
 31 32  1  0  0  0  0
 31 36  1  0  0  0  0
 32 33  1  0  0  0  0
 32 35  1  0  0  0  0
 32 37  1  0  0  0  0
 33 34  2  0  0  0  0
 33 41  1  0  0  0  0
 35 38  1  0  0  0  0
 35 39  1  0  0  0  0
 35 40  1  0  0  0  0
 41 42  1  0  0  0  0
 41 43  1  0  0  0  0
 42 44  1  0  0  0  0
 42 45  1  0  0  0  0
 42 46  1  0  0  0  0
M  END
$$$$

  -OEChem-05262217223D

 46 46  0     1  0  0  0  0  0999 V2000
   -1.3102    1.6951    3.5559 C   0  0  0  0  0  0  0  0  0  0  0  0
   -0.2299    1.1823    3.3060 O   0  0  0  0  0  0  0  0  0  0  0  0
   -1.5805    2.2898    4.9246 C   0  0  0  0  0  0  0  0  0  0  0  0
   -2.4748    1.8373    5.3599 H   0  0  0  0  0  0  0  0  0  0  0  0
   -0.7326    2.1039    5.5900 H   0  0  0  0  0  0  0  0  0  0  0  0
   -1.7302    3.3690    4.8385 H   0  0  0  0  0  0  0  0  0  0  0  0
   -2.2662    1.7696    2.5641 N   0  0  0  0  0  0  0  0  0  0  0  0
   -1.9367    1.4770    1.1615 C   0  0  2  0  0  0  0  0  0  0  0  0
   -0.9979    2.5474    0.5433 C   0  0  0  0  0  0  0  0  0  0  0  0
   -1.1321    3.7104    0.9129 O   0  0  0  0  0  0  0  0  0  0  0  0
   -3.2530    1.4120    0.3832 C   0  0  0  0  0  0  0  0  0  0  0  0
   -3.0280    2.4185    2.7408 H   0  0  0  0  0  0  0  0  0  0  0  0
   -1.4597    0.4955    1.1079 H   0  0  0  0  0  0  0  0  0  0  0  0
   -3.7714    2.3757    0.4241 H   0  0  0  0  0  0  0  0  0  0  0  0
   -3.0671    1.1648   -0.6663 H   0  0  0  0  0  0  0  0  0  0  0  0
   -3.9072    0.6441    0.8083 H   0  0  0  0  0  0  0  0  0  0  0  0
   -0.0782    2.2678   -0.4711 N   0  0  0  0  0  0  0  0  0  0  0  0
    0.1328    0.9379   -1.0929 C   0  0  2  0  0  0  0  0  0  0  0  0
    0.9048   -0.1388   -0.2930 C   0  0  0  0  0  0  0  0  0  0  0  0
    1.3039   -1.1220   -0.9043 O   0  0  0  0  0  0  0  0  0  0  0  0
    0.9286    1.3339   -2.3451 C   0  0  0  0  0  0  0  0  0  0  0  0
    0.4971    2.7708   -2.5770 C   0  0  0  0  0  0  0  0  0  0  0  0
    0.6336    3.3354   -1.1858 C   0  0  0  0  0  0  0  0  0  0  0  0
   -0.8300    0.5127   -1.3903 H   0  0  0  0  0  0  0  0  0  0  0  0
    0.6901    0.6897   -3.1974 H   0  0  0  0  0  0  0  0  0  0  0  0
    2.0090    1.2835   -2.1644 H   0  0  0  0  0  0  0  0  0  0  0  0
    1.1479    3.2846   -3.2913 H   0  0  0  0  0  0  0  0  0  0  0  0
   -0.5373    2.8302   -2.9341 H   0  0  0  0  0  0  0  0  0  0  0  0
    1.6773    3.4165   -0.8618 H   0  0  0  0  0  0  0  0  0  0  0  0
    0.1575    4.3194   -1.1140 H   0  0  0  0  0  0  0  0  0  0  0  0
    1.1487   -0.0409    1.0678 N   0  0  0  0  0  0  0  0  0  0  0  0
    1.8176   -1.0358    1.9340 C   0  0  2  0  0  0  0  0  0  0  0  0
    3.3241   -1.2599    1.6589 C   0  0  0  0  0  0  0  0  0  0  0  0
    4.1072   -1.3383    2.5970 O   0  0  0  0  0  0  0  0  0  0  0  0
    1.0583   -2.3689    1.9304 C   0  0  0  0  0  0  0  0  0  0  0  0
    0.7672    0.7761    1.5509 H   0  0  0  0  0  0  0  0  0  0  0  0
    1.7601   -0.6421    2.9545 H   0  0  0  0  0  0  0  0  0  0  0  0
    1.1520   -2.8778    0.9670 H   0  0  0  0  0  0  0  0  0  0  0  0
   -0.0025   -2.2008    2.1374 H   0  0  0  0  0  0  0  0  0  0  0  0
    1.4619   -3.0288    2.7044 H   0  0  0  0  0  0  0  0  0  0  0  0
    3.8069   -1.4211    0.3752 N   0  0  0  0  0  0  0  0  0  0  0  0
    5.1967   -1.7146    0.0562 C   0  0  0  0  0  0  0  0  0  0  0  0
    3.1043   -1.4391   -0.3675 H   0  0  0  0  0  0  0  0  0  0  0  0
    5.3194   -1.8241   -1.0255 H   0  0  0  0  0  0  0  0  0  0  0  0
    5.8469   -0.9030    0.3987 H   0  0  0  0  0  0  0  0  0  0  0  0
    5.5116   -2.6464    0.5371 H   0  0  0  0  0  0  0  0  0  0  0  0
  1  2  2  0  0  0  0
  1  3  1  0  0  0  0
  1  7  1  0  0  0  0
  3  4  1  0  0  0  0
  3  5  1  0  0  0  0
  3  6  1  0  0  0  0
  7  8  1  0  0  0  0
  7 12  1  0  0  0  0
  8  9  1  0  0  0  0
  8 11  1  0  0  0  0
  8 13  1  0  0  0  0
  9 10  2  0  0  0  0
  9 17  1  0  0  0  0
 11 14  1  0  0  0  0
 11 15  1  0  0  0  0
 11 16  1  0  0  0  0
 17 18  1  0  0  0  0
 17 23  1  0  0  0  0
 18 19  1  0  0  0  0
 18 21  1  0  0  0  0
 18 24  1  0  0  0  0
 19 20  2  0  0  0  0
 19 31  1  0  0  0  0
 21 22  1  0  0  0  0
 21 25  1  0  0  0  0
 21 26  1  0  0  0  0
 22 23  1  0  0  0  0
 22 27  1  0  0  0  0
 22 28  1  0  0  0  0
 23 29  1  0  0  0  0
 23 30  1  0  0  0  0
 31 32  1  0  0  0  0
 31 36  1  0  0  0  0
 32 33  1  0  0  0  0
 32 35  1  0  0  0  0
 32 37  1  0  0  0  0
 33 34  2  0  0  0  0
 33 41  1  0  0  0  0
 35 38  1  0  0  0  0
 35 39  1  0  0  0  0
 35 40  1  0  0  0  0
 41 42  1  0  0  0  0
 41 43  1  0  0  0  0
 42 44  1  0  0  0  0
 42 45  1  0  0  0  0
 42 46  1  0  0  0  0
M  END
$$$$

  -OEChem-05262217223D

 46 46  0     1  0  0  0  0  0999 V2000
   -1.3826    1.6778    3.5855 C   0  0  0  0  0  0  0  0  0  0  0  0
   -0.3463    1.0810    3.3382 O   0  0  0  0  0  0  0  0  0  0  0  0
   -1.6311    2.2515    4.9668 C   0  0  0  0  0  0  0  0  0  0  0  0
   -2.5423    1.8230    5.3909 H   0  0  0  0  0  0  0  0  0  0  0  0
   -0.7916    2.0188    5.6278 H   0  0  0  0  0  0  0  0  0  0  0  0
   -1.7400    3.3373    4.9059 H   0  0  0  0  0  0  0  0  0  0  0  0
   -2.3088    1.8567    2.5798 N   0  0  0  0  0  0  0  0  0  0  0  0
   -1.9804    1.5725    1.1753 C   0  0  2  0  0  0  0  0  0  0  0  0
   -0.9781    2.6004    0.5849 C   0  0  0  0  0  0  0  0  0  0  0  0
   -1.0698    3.7630    0.9693 O   0  0  0  0  0  0  0  0  0  0  0  0
   -3.2898    1.6098    0.3828 C   0  0  0  0  0  0  0  0  0  0  0  0
   -3.0143    2.5661    2.7593 H   0  0  0  0  0  0  0  0  0  0  0  0
   -1.5718    0.5638    1.0986 H   0  0  0  0  0  0  0  0  0  0  0  0
   -3.7423    2.6056    0.4357 H   0  0  0  0  0  0  0  0  0  0  0  0
   -3.1085    1.3688   -0.6691 H   0  0  0  0  0  0  0  0  0  0  0  0
   -3.9996    0.8810    0.7864 H   0  0  0  0  0  0  0  0  0  0  0  0
   -0.0498    2.2957   -0.4162 N   0  0  0  0  0  0  0  0  0  0  0  0
    0.1260    0.9696   -1.0597 C   0  0  2  0  0  0  0  0  0  0  0  0
    0.8445   -0.1622   -0.2769 C   0  0  0  0  0  0  0  0  0  0  0  0
    1.3834   -1.0471   -0.9304 O   0  0  0  0  0  0  0  0  0  0  0  0
    0.9379    1.3663   -2.3033 C   0  0  0  0  0  0  0  0  0  0  0  0
    0.5499    2.8178   -2.5138 C   0  0  0  0  0  0  0  0  0  0  0  0
    0.6986    3.3514   -1.1118 C   0  0  0  0  0  0  0  0  0  0  0  0
   -0.8499    0.5864   -1.3716 H   0  0  0  0  0  0  0  0  0  0  0  0
    0.6861    0.7430   -3.1674 H   0  0  0  0  0  0  0  0  0  0  0  0
    2.0160    1.2844   -2.1202 H   0  0  0  0  0  0  0  0  0  0  0  0
    1.2185    3.3241   -3.2171 H   0  0  0  0  0  0  0  0  0  0  0  0
   -0.4812    2.9133   -2.8729 H   0  0  0  0  0  0  0  0  0  0  0  0
    1.7427    3.3934   -0.7824 H   0  0  0  0  0  0  0  0  0  0  0  0
    0.2561    4.3494   -1.0254 H   0  0  0  0  0  0  0  0  0  0  0  0
    0.8246   -0.2836    1.1042 N   0  0  0  0  0  0  0  0  0  0  0  0
    1.3821   -1.3857    1.9209 C   0  0  2  0  0  0  0  0  0  0  0  0
    2.9228   -1.5344    1.8978 C   0  0  0  0  0  0  0  0  0  0  0  0
    3.5193   -1.8183    2.9289 O   0  0  0  0  0  0  0  0  0  0  0  0
    0.7048   -2.7210    1.5856 C   0  0  0  0  0  0  0  0  0  0  0  0
    0.4348    0.4988    1.6367 H   0  0  0  0  0  0  0  0  0  0  0  0
    1.1268   -1.1551    2.9607 H   0  0  0  0  0  0  0  0  0  0  0  0
   -0.3833   -2.6132    1.6173 H   0  0  0  0  0  0  0  0  0  0  0  0
    0.9991   -3.4811    2.3162 H   0  0  0  0  0  0  0  0  0  0  0  0
    0.9941   -3.0750    0.5921 H   0  0  0  0  0  0  0  0  0  0  0  0
    3.6419   -1.4170    0.7247 N   0  0  0  0  0  0  0  0  0  0  0  0
    5.0710   -1.6722    0.6172 C   0  0  0  0  0  0  0  0  0  0  0  0
    3.0848   -1.3209   -0.1273 H   0  0  0  0  0  0  0  0  0  0  0  0
    5.2951   -2.7115    0.8788 H   0  0  0  0  0  0  0  0  0  0  0  0
    5.4094   -1.4902   -0.4073 H   0  0  0  0  0  0  0  0  0  0  0  0
    5.6292   -1.0107    1.2878 H   0  0  0  0  0  0  0  0  0  0  0  0
  1  2  2  0  0  0  0
  1  3  1  0  0  0  0
  1  7  1  0  0  0  0
  3  4  1  0  0  0  0
  3  5  1  0  0  0  0
  3  6  1  0  0  0  0
  7  8  1  0  0  0  0
  7 12  1  0  0  0  0
  8  9  1  0  0  0  0
  8 11  1  0  0  0  0
  8 13  1  0  0  0  0
  9 10  2  0  0  0  0
  9 17  1  0  0  0  0
 11 14  1  0  0  0  0
 11 15  1  0  0  0  0
 11 16  1  0  0  0  0
 17 18  1  0  0  0  0
 17 23  1  0  0  0  0
 18 19  1  0  0  0  0
 18 21  1  0  0  0  0
 18 24  1  0  0  0  0
 19 20  2  0  0  0  0
 19 31  1  0  0  0  0
 21 22  1  0  0  0  0
 21 25  1  0  0  0  0
 21 26  1  0  0  0  0
 22 23  1  0  0  0  0
 22 27  1  0  0  0  0
 22 28  1  0  0  0  0
 23 29  1  0  0  0  0
 23 30  1  0  0  0  0
 31 32  1  0  0  0  0
 31 36  1  0  0  0  0
 32 33  1  0  0  0  0
 32 35  1  0  0  0  0
 32 37  1  0  0  0  0
 33 34  2  0  0  0  0
 33 41  1  0  0  0  0
 35 38  1  0  0  0  0
 35 39  1  0  0  0  0
 35 40  1  0  0  0  0
 41 42  1  0  0  0  0
 41 43  1  0  0  0  0
 42 44  1  0  0  0  0
 42 45  1  0  0  0  0
 42 46  1  0  0  0  0
M  END
$$$$

  -OEChem-05262217223D

 46 46  0     1  0  0  0  0  0999 V2000
   -1.8407    0.8780    3.3742 C   0  0  0  0  0  0  0  0  0  0  0  0
   -2.0550   -0.2281    2.9064 O   0  0  0  0  0  0  0  0  0  0  0  0
   -1.6324    1.0599    4.8654 C   0  0  0  0  0  0  0  0  0  0  0  0
   -2.3722    1.7583    5.2645 H   0  0  0  0  0  0  0  0  0  0  0  0
   -1.7392    0.1015    5.3814 H   0  0  0  0  0  0  0  0  0  0  0  0
   -0.6304    1.4521    5.0579 H   0  0  0  0  0  0  0  0  0  0  0  0
   -1.7377    1.9546    2.5200 N   0  0  0  0  0  0  0  0  0  0  0  0
   -1.9032    1.8978    1.0604 C   0  0  2  0  0  0  0  0  0  0  0  0
   -0.8174    2.7384    0.3472 C   0  0  0  0  0  0  0  0  0  0  0  0
   -0.6986    3.9064    0.7038 O   0  0  0  0  0  0  0  0  0  0  0  0
   -3.2994    2.4317    0.7276 C   0  0  0  0  0  0  0  0  0  0  0  0
   -1.5179    2.8611    2.9319 H   0  0  0  0  0  0  0  0  0  0  0  0
   -1.8575    0.8689    0.6997 H   0  0  0  0  0  0  0  0  0  0  0  0
   -3.4146    3.4618    1.0809 H   0  0  0  0  0  0  0  0  0  0  0  0
   -3.4651    2.4154   -0.3541 H   0  0  0  0  0  0  0  0  0  0  0  0
   -4.0654    1.8123    1.2048 H   0  0  0  0  0  0  0  0  0  0  0  0
    0.0305    2.2488   -0.6508 N   0  0  0  0  0  0  0  0  0  0  0  0
    0.0464    0.8659   -1.1935 C   0  0  2  0  0  0  0  0  0  0  0  0
    0.6839   -0.2358   -0.2991 C   0  0  0  0  0  0  0  0  0  0  0  0
    1.4403   -1.0553   -0.8069 O   0  0  0  0  0  0  0  0  0  0  0  0
    0.8364    1.0814   -2.4976 C   0  0  0  0  0  0  0  0  0  0  0  0
    0.5828    2.5445   -2.8077 C   0  0  0  0  0  0  0  0  0  0  0  0
    0.8493    3.1629   -1.4583 C   0  0  0  0  0  0  0  0  0  0  0  0
   -0.9726    0.5529   -1.4401 H   0  0  0  0  0  0  0  0  0  0  0  0
    0.4858    0.4222   -3.2982 H   0  0  0  0  0  0  0  0  0  0  0  0
    1.9102    0.9122   -2.3558 H   0  0  0  0  0  0  0  0  0  0  0  0
    1.2642    2.9266   -3.5740 H   0  0  0  0  0  0  0  0  0  0  0  0
   -0.4494    2.7170   -3.1326 H   0  0  0  0  0  0  0  0  0  0  0  0
    1.9067    3.1195   -1.1741 H   0  0  0  0  0  0  0  0  0  0  0  0
    0.5145    4.2059   -1.4354 H   0  0  0  0  0  0  0  0  0  0  0  0
    0.4149   -0.3404    1.0576 N   0  0  0  0  0  0  0  0  0  0  0  0
    0.9226   -1.3630    1.9967 C   0  0  2  0  0  0  0  0  0  0  0  0
    2.4425   -1.2917    2.2697 C   0  0  0  0  0  0  0  0  0  0  0  0
    2.8438   -1.1006    3.4110 O   0  0  0  0  0  0  0  0  0  0  0  0
    0.4903   -2.7738    1.5744 C   0  0  0  0  0  0  0  0  0  0  0  0
   -0.2906    0.2885    1.4327 H   0  0  0  0  0  0  0  0  0  0  0  0
    0.4416   -1.1694    2.9607 H   0  0  0  0  0  0  0  0  0  0  0  0
    1.0099   -3.0985    0.6686 H   0  0  0  0  0  0  0  0  0  0  0  0
    0.7179   -3.4878    2.3720 H   0  0  0  0  0  0  0  0  0  0  0  0
   -0.5878   -2.7969    1.3877 H   0  0  0  0  0  0  0  0  0  0  0  0
    3.3590   -1.4138    1.2447 N   0  0  0  0  0  0  0  0  0  0  0  0
    4.7954   -1.2479    1.4141 C   0  0  0  0  0  0  0  0  0  0  0  0
    2.9658   -1.4624    0.3013 H   0  0  0  0  0  0  0  0  0  0  0  0
    5.3110   -1.4401    0.4686 H   0  0  0  0  0  0  0  0  0  0  0  0
    5.0268   -0.2275    1.7358 H   0  0  0  0  0  0  0  0  0  0  0  0
    5.1767   -1.9495    2.1634 H   0  0  0  0  0  0  0  0  0  0  0  0
  1  2  2  0  0  0  0
  1  3  1  0  0  0  0
  1  7  1  0  0  0  0
  3  4  1  0  0  0  0
  3  5  1  0  0  0  0
  3  6  1  0  0  0  0
  7  8  1  0  0  0  0
  7 12  1  0  0  0  0
  8  9  1  0  0  0  0
  8 11  1  0  0  0  0
  8 13  1  0  0  0  0
  9 10  2  0  0  0  0
  9 17  1  0  0  0  0
 11 14  1  0  0  0  0
 11 15  1  0  0  0  0
 11 16  1  0  0  0  0
 17 18  1  0  0  0  0
 17 23  1  0  0  0  0
 18 19  1  0  0  0  0
 18 21  1  0  0  0  0
 18 24  1  0  0  0  0
 19 20  2  0  0  0  0
 19 31  1  0  0  0  0
 21 22  1  0  0  0  0
 21 25  1  0  0  0  0
 21 26  1  0  0  0  0
 22 23  1  0  0  0  0
 22 27  1  0  0  0  0
 22 28  1  0  0  0  0
 23 29  1  0  0  0  0
 23 30  1  0  0  0  0
 31 32  1  0  0  0  0
 31 36  1  0  0  0  0
 32 33  1  0  0  0  0
 32 35  1  0  0  0  0
 32 37  1  0  0  0  0
 33 34  2  0  0  0  0
 33 41  1  0  0  0  0
 35 38  1  0  0  0  0
 35 39  1  0  0  0  0
 35 40  1  0  0  0  0
 41 42  1  0  0  0  0
 41 43  1  0  0  0  0
 42 44  1  0  0  0  0
 42 45  1  0  0  0  0
 42 46  1  0  0  0  0
M  END
$$$$

  -OEChem-05262217223D

 46 46  0     1  0  0  0  0  0999 V2000
   -1.9588    0.5273    3.1466 C   0  0  0  0  0  0  0  0  0  0  0  0
   -2.4725   -0.3947    2.5318 O   0  0  0  0  0  0  0  0  0  0  0  0
   -1.5852    0.3739    4.6082 C   0  0  0  0  0  0  0  0  0  0  0  0
   -2.0826    1.1418    5.2056 H   0  0  0  0  0  0  0  0  0  0  0  0
   -1.8896   -0.6105    4.9747 H   0  0  0  0  0  0  0  0  0  0  0  0
   -0.5026    0.4717    4.7284 H   0  0  0  0  0  0  0  0  0  0  0  0
   -1.6448    1.6799    2.4603 N   0  0  0  0  0  0  0  0  0  0  0  0
   -1.9130    1.9100    1.0335 C   0  0  2  0  0  0  0  0  0  0  0  0
   -0.7513    2.6859    0.3719 C   0  0  0  0  0  0  0  0  0  0  0  0
   -0.5341    3.8196    0.7879 O   0  0  0  0  0  0  0  0  0  0  0  0
   -3.2287    2.6882    0.9218 C   0  0  0  0  0  0  0  0  0  0  0  0
   -1.1872    2.4267    2.9824 H   0  0  0  0  0  0  0  0  0  0  0  0
   -2.0513    0.9677    0.5013 H   0  0  0  0  0  0  0  0  0  0  0  0
   -3.1649    3.6379    1.4630 H   0  0  0  0  0  0  0  0  0  0  0  0
   -3.4568    2.9016   -0.1271 H   0  0  0  0  0  0  0  0  0  0  0  0
   -4.0515    2.1024    1.3434 H   0  0  0  0  0  0  0  0  0  0  0  0
    0.0662    2.1746   -0.6413 N   0  0  0  0  0  0  0  0  0  0  0  0
   -0.0117    0.8264   -1.2646 C   0  0  2  0  0  0  0  0  0  0  0  0
    0.5264   -0.3647   -0.4171 C   0  0  0  0  0  0  0  0  0  0  0  0
    1.5061   -0.9943   -0.7990 O   0  0  0  0  0  0  0  0  0  0  0  0
    0.7951    1.0562   -2.5577 C   0  0  0  0  0  0  0  0  0  0  0  0
    0.6457    2.5478   -2.7834 C   0  0  0  0  0  0  0  0  0  0  0  0
    0.9539    3.0662   -1.4004 C   0  0  0  0  0  0  0  0  0  0  0  0
   -1.0482    0.6040   -1.5346 H   0  0  0  0  0  0  0  0  0  0  0  0
    0.3994    0.4693   -3.3922 H   0  0  0  0  0  0  0  0  0  0  0  0
    1.8561    0.8110   -2.4359 H   0  0  0  0  0  0  0  0  0  0  0  0
    1.3540    2.9241   -3.5281 H   0  0  0  0  0  0  0  0  0  0  0  0
   -0.3712    2.8118   -3.0952 H   0  0  0  0  0  0  0  0  0  0  0  0
    2.0039    2.9270   -1.1197 H   0  0  0  0  0  0  0  0  0  0  0  0
    0.7009    4.1290   -1.3207 H   0  0  0  0  0  0  0  0  0  0  0  0
   -0.0081   -0.6933    0.8197 N   0  0  0  0  0  0  0  0  0  0  0  0
    0.5032   -1.6978    1.7752 C   0  0  2  0  0  0  0  0  0  0  0  0
    1.8437   -1.2889    2.4216 C   0  0  0  0  0  0  0  0  0  0  0  0
    1.8766   -1.0018    3.6123 O   0  0  0  0  0  0  0  0  0  0  0  0
    0.5637   -3.1076    1.1683 C   0  0  0  0  0  0  0  0  0  0  0  0
   -0.8568   -0.2062    1.1048 H   0  0  0  0  0  0  0  0  0  0  0  0
   -0.2202   -1.7563    2.5937 H   0  0  0  0  0  0  0  0  0  0  0  0
    1.3590   -3.1939    0.4229 H   0  0  0  0  0  0  0  0  0  0  0  0
    0.7573   -3.8428    1.9555 H   0  0  0  0  0  0  0  0  0  0  0  0
   -0.3899   -3.3548    0.6920 H   0  0  0  0  0  0  0  0  0  0  0  0
    2.9870   -1.1694    1.6570 N   0  0  0  0  0  0  0  0  0  0  0  0
    4.2457   -0.6405    2.1631 C   0  0  0  0  0  0  0  0  0  0  0  0
    2.8487   -1.2470    0.6460 H   0  0  0  0  0  0  0  0  0  0  0  0
    5.0277   -0.7379    1.4038 H   0  0  0  0  0  0  0  0  0  0  0  0
    4.1389    0.4179    2.4219 H   0  0  0  0  0  0  0  0  0  0  0  0
    4.5628   -1.1924    3.0543 H   0  0  0  0  0  0  0  0  0  0  0  0
  1  2  2  0  0  0  0
  1  3  1  0  0  0  0
  1  7  1  0  0  0  0
  3  4  1  0  0  0  0
  3  5  1  0  0  0  0
  3  6  1  0  0  0  0
  7  8  1  0  0  0  0
  7 12  1  0  0  0  0
  8  9  1  0  0  0  0
  8 11  1  0  0  0  0
  8 13  1  0  0  0  0
  9 10  2  0  0  0  0
  9 17  1  0  0  0  0
 11 14  1  0  0  0  0
 11 15  1  0  0  0  0
 11 16  1  0  0  0  0
 17 18  1  0  0  0  0
 17 23  1  0  0  0  0
 18 19  1  0  0  0  0
 18 21  1  0  0  0  0
 18 24  1  0  0  0  0
 19 20  2  0  0  0  0
 19 31  1  0  0  0  0
 21 22  1  0  0  0  0
 21 25  1  0  0  0  0
 21 26  1  0  0  0  0
 22 23  1  0  0  0  0
 22 27  1  0  0  0  0
 22 28  1  0  0  0  0
 23 29  1  0  0  0  0
 23 30  1  0  0  0  0
 31 32  1  0  0  0  0
 31 36  1  0  0  0  0
 32 33  1  0  0  0  0
 32 35  1  0  0  0  0
 32 37  1  0  0  0  0
 33 34  2  0  0  0  0
 33 41  1  0  0  0  0
 35 38  1  0  0  0  0
 35 39  1  0  0  0  0
 35 40  1  0  0  0  0
 41 42  1  0  0  0  0
 41 43  1  0  0  0  0
 42 44  1  0  0  0  0
 42 45  1  0  0  0  0
 42 46  1  0  0  0  0
M  END
$$$$

  -OEChem-05262217223D

 46 46  0     1  0  0  0  0  0999 V2000
   -2.6353    1.2868    3.4315 C   0  0  0  0  0  0  0  0  0  0  0  0
   -3.8208    1.2142    3.1530 O   0  0  0  0  0  0  0  0  0  0  0  0
   -2.1998    1.2407    4.8843 C   0  0  0  0  0  0  0  0  0  0  0  0
   -3.0667    1.0851    5.5330 H   0  0  0  0  0  0  0  0  0  0  0  0
   -1.4929    0.4224    5.0403 H   0  0  0  0  0  0  0  0  0  0  0  0
   -1.7204    2.1834    5.1594 H   0  0  0  0  0  0  0  0  0  0  0  0
   -1.6826    1.4357    2.4422 N   0  0  0  0  0  0  0  0  0  0  0  0
   -2.0033    1.8097    1.0544 C   0  0  2  0  0  0  0  0  0  0  0  0
   -0.8214    2.5306    0.3432 C   0  0  0  0  0  0  0  0  0  0  0  0
   -0.5600    3.6198    0.8429 O   0  0  0  0  0  0  0  0  0  0  0  0
   -2.6821    0.6810    0.2646 C   0  0  0  0  0  0  0  0  0  0  0  0
   -0.7637    1.7098    2.7830 H   0  0  0  0  0  0  0  0  0  0  0  0
   -2.7696    2.5914    1.1195 H   0  0  0  0  0  0  0  0  0  0  0  0
   -3.6384    0.4175    0.7255 H   0  0  0  0  0  0  0  0  0  0  0  0
   -2.8894    1.0083   -0.7583 H   0  0  0  0  0  0  0  0  0  0  0  0
   -2.0762   -0.2190    0.2346 H   0  0  0  0  0  0  0  0  0  0  0  0
    0.0486    2.0925   -0.6771 N   0  0  0  0  0  0  0  0  0  0  0  0
    0.1174    0.7865   -1.3980 C   0  0  2  0  0  0  0  0  0  0  0  0
    0.7279   -0.4593   -0.6821 C   0  0  0  0  0  0  0  0  0  0  0  0
    1.5659   -1.1451   -1.2506 O   0  0  0  0  0  0  0  0  0  0  0  0
    0.9513    1.1674   -2.6368 C   0  0  0  0  0  0  0  0  0  0  0  0
    0.6889    2.6485   -2.7790 C   0  0  0  0  0  0  0  0  0  0  0  0
    0.9012    3.0883   -1.3533 C   0  0  0  0  0  0  0  0  0  0  0  0
   -0.8831    0.5086   -1.7363 H   0  0  0  0  0  0  0  0  0  0  0  0
    0.6404    0.6063   -3.5238 H   0  0  0  0  0  0  0  0  0  0  0  0
    2.0229    0.9981   -2.4788 H   0  0  0  0  0  0  0  0  0  0  0  0
    1.3918    3.1290   -3.4667 H   0  0  0  0  0  0  0  0  0  0  0  0
   -0.3340    2.8505   -3.1161 H   0  0  0  0  0  0  0  0  0  0  0  0
    1.9470    3.0059   -1.0361 H   0  0  0  0  0  0  0  0  0  0  0  0
    0.5754    4.1269   -1.2298 H   0  0  0  0  0  0  0  0  0  0  0  0
    0.1669   -1.2315    0.3025 N   0  0  0  0  0  0  0  0  0  0  0  0
    0.4880   -0.8972    1.6972 C   0  0  2  0  0  0  0  0  0  0  0  0
    1.9229   -1.2709    2.1502 C   0  0  0  0  0  0  0  0  0  0  0  0
    2.2472   -1.0908    3.3157 O   0  0  0  0  0  0  0  0  0  0  0  0
   -0.5410   -1.6235    2.5738 C   0  0  0  0  0  0  0  0  0  0  0  0
    0.3494   -2.2114    0.0937 H   0  0  0  0  0  0  0  0  0  0  0  0
    0.3990    0.1807    1.8388 H   0  0  0  0  0  0  0  0  0  0  0  0
   -0.4159   -2.7078    2.4921 H   0  0  0  0  0  0  0  0  0  0  0  0
   -0.4153   -1.3416    3.6237 H   0  0  0  0  0  0  0  0  0  0  0  0
   -1.5608   -1.3702    2.2708 H   0  0  0  0  0  0  0  0  0  0  0  0
    2.8471   -1.8032    1.2699 N   0  0  0  0  0  0  0  0  0  0  0  0
    4.2314   -2.0782    1.6320 C   0  0  0  0  0  0  0  0  0  0  0  0
    2.5947   -1.7970    0.2788 H   0  0  0  0  0  0  0  0  0  0  0  0
    4.7483   -1.1513    1.9013 H   0  0  0  0  0  0  0  0  0  0  0  0
    4.2768   -2.7675    2.4816 H   0  0  0  0  0  0  0  0  0  0  0  0
    4.7569   -2.5369    0.7888 H   0  0  0  0  0  0  0  0  0  0  0  0
  1  2  2  0  0  0  0
  1  3  1  0  0  0  0
  1  7  1  0  0  0  0
  3  4  1  0  0  0  0
  3  5  1  0  0  0  0
  3  6  1  0  0  0  0
  7  8  1  0  0  0  0
  7 12  1  0  0  0  0
  8  9  1  0  0  0  0
  8 11  1  0  0  0  0
  8 13  1  0  0  0  0
  9 10  2  0  0  0  0
  9 17  1  0  0  0  0
 11 14  1  0  0  0  0
 11 15  1  0  0  0  0
 11 16  1  0  0  0  0
 17 18  1  0  0  0  0
 17 23  1  0  0  0  0
 18 19  1  0  0  0  0
 18 21  1  0  0  0  0
 18 24  1  0  0  0  0
 19 20  2  0  0  0  0
 19 31  1  0  0  0  0
 21 22  1  0  0  0  0
 21 25  1  0  0  0  0
 21 26  1  0  0  0  0
 22 23  1  0  0  0  0
 22 27  1  0  0  0  0
 22 28  1  0  0  0  0
 23 29  1  0  0  0  0
 23 30  1  0  0  0  0
 31 32  1  0  0  0  0
 31 36  1  0  0  0  0
 32 33  1  0  0  0  0
 32 35  1  0  0  0  0
 32 37  1  0  0  0  0
 33 34  2  0  0  0  0
 33 41  1  0  0  0  0
 35 38  1  0  0  0  0
 35 39  1  0  0  0  0
 35 40  1  0  0  0  0
 41 42  1  0  0  0  0
 41 43  1  0  0  0  0
 42 44  1  0  0  0  0
 42 45  1  0  0  0  0
 42 46  1  0  0  0  0
M  END
$$$$

  -OEChem-05262217223D

 46 46  0     1  0  0  0  0  0999 V2000
   -1.8939    0.3327    2.9793 C   0  0  0  0  0  0  0  0  0  0  0  0
   -2.6100   -0.3817    2.2907 O   0  0  0  0  0  0  0  0  0  0  0  0
   -1.6496    0.0115    4.4406 C   0  0  0  0  0  0  0  0  0  0  0  0
   -2.2467    0.6726    5.0730 H   0  0  0  0  0  0  0  0  0  0  0  0
   -1.9254   -1.0261    4.6484 H   0  0  0  0  0  0  0  0  0  0  0  0
   -0.5923    0.1444    4.6835 H   0  0  0  0  0  0  0  0  0  0  0  0
   -1.3407    1.4602    2.4086 N   0  0  0  0  0  0  0  0  0  0  0  0
   -1.7061    1.9645    1.0783 C   0  0  2  0  0  0  0  0  0  0  0  0
   -0.5310    2.6713    0.3619 C   0  0  0  0  0  0  0  0  0  0  0  0
   -0.1803    3.7669    0.7882 O   0  0  0  0  0  0  0  0  0  0  0  0
   -2.8984    2.9142    1.2540 C   0  0  0  0  0  0  0  0  0  0  0  0
   -0.7848    2.0633    3.0125 H   0  0  0  0  0  0  0  0  0  0  0  0
   -2.0437    1.1465    0.4414 H   0  0  0  0  0  0  0  0  0  0  0  0
   -2.6399    3.7435    1.9205 H   0  0  0  0  0  0  0  0  0  0  0  0
   -3.2009    3.3282    0.2872 H   0  0  0  0  0  0  0  0  0  0  0  0
   -3.7511    2.3778    1.6822 H   0  0  0  0  0  0  0  0  0  0  0  0
    0.1493    2.1257   -0.7312 N   0  0  0  0  0  0  0  0  0  0  0  0
   -0.1273    0.8147   -1.3697 C   0  0  2  0  0  0  0  0  0  0  0  0
    0.3680   -0.4184   -0.5646 C   0  0  0  0  0  0  0  0  0  0  0  0
    1.5063   -0.8392   -0.7337 O   0  0  0  0  0  0  0  0  0  0  0  0
    0.5912    0.9868   -2.7215 C   0  0  0  0  0  0  0  0  0  0  0  0
    0.5879    2.4935   -2.9025 C   0  0  0  0  0  0  0  0  0  0  0  0
    1.0632    2.9408   -1.5408 C   0  0  0  0  0  0  0  0  0  0  0  0
   -1.1982    0.7007   -1.5597 H   0  0  0  0  0  0  0  0  0  0  0  0
    0.0614    0.4738   -3.5300 H   0  0  0  0  0  0  0  0  0  0  0  0
    1.6236    0.6211   -2.7010 H   0  0  0  0  0  0  0  0  0  0  0  0
    1.2687    2.8129   -3.6975 H   0  0  0  0  0  0  0  0  0  0  0  0
   -0.4161    2.8736   -3.1219 H   0  0  0  0  0  0  0  0  0  0  0  0
    2.1113    2.6831   -1.3524 H   0  0  0  0  0  0  0  0  0  0  0  0
    0.9316    4.0212   -1.4156 H   0  0  0  0  0  0  0  0  0  0  0  0
   -0.4337   -1.0549    0.3726 N   0  0  0  0  0  0  0  0  0  0  0  0
   -0.0518   -2.1886    1.2423 C   0  0  2  0  0  0  0  0  0  0  0  0
    1.0250   -1.8434    2.2979 C   0  0  0  0  0  0  0  0  0  0  0  0
    0.7584   -1.9270    3.4902 O   0  0  0  0  0  0  0  0  0  0  0  0
    0.3423   -3.4273    0.4247 C   0  0  0  0  0  0  0  0  0  0  0  0
   -1.3354   -0.6251    0.5861 H   0  0  0  0  0  0  0  0  0  0  0  0
   -0.9495   -2.4657    1.8052 H   0  0  0  0  0  0  0  0  0  0  0  0
    1.3008   -3.2867   -0.0827 H   0  0  0  0  0  0  0  0  0  0  0  0
    0.4329   -4.2955    1.0848 H   0  0  0  0  0  0  0  0  0  0  0  0
   -0.4220   -3.6438   -0.3274 H   0  0  0  0  0  0  0  0  0  0  0  0
    2.2760   -1.3962    1.9231 N   0  0  0  0  0  0  0  0  0  0  0  0
    3.3045   -0.9628    2.8579 C   0  0  0  0  0  0  0  0  0  0  0  0
    2.4077   -1.2314    0.9215 H   0  0  0  0  0  0  0  0  0  0  0  0
    4.2208   -0.7080    2.3170 H   0  0  0  0  0  0  0  0  0  0  0  0
    2.9708   -0.0798    3.4123 H   0  0  0  0  0  0  0  0  0  0  0  0
    3.5365   -1.7615    3.5700 H   0  0  0  0  0  0  0  0  0  0  0  0
  1  2  2  0  0  0  0
  1  3  1  0  0  0  0
  1  7  1  0  0  0  0
  3  4  1  0  0  0  0
  3  5  1  0  0  0  0
  3  6  1  0  0  0  0
  7  8  1  0  0  0  0
  7 12  1  0  0  0  0
  8  9  1  0  0  0  0
  8 11  1  0  0  0  0
  8 13  1  0  0  0  0
  9 10  2  0  0  0  0
  9 17  1  0  0  0  0
 11 14  1  0  0  0  0
 11 15  1  0  0  0  0
 11 16  1  0  0  0  0
 17 18  1  0  0  0  0
 17 23  1  0  0  0  0
 18 19  1  0  0  0  0
 18 21  1  0  0  0  0
 18 24  1  0  0  0  0
 19 20  2  0  0  0  0
 19 31  1  0  0  0  0
 21 22  1  0  0  0  0
 21 25  1  0  0  0  0
 21 26  1  0  0  0  0
 22 23  1  0  0  0  0
 22 27  1  0  0  0  0
 22 28  1  0  0  0  0
 23 29  1  0  0  0  0
 23 30  1  0  0  0  0
 31 32  1  0  0  0  0
 31 36  1  0  0  0  0
 32 33  1  0  0  0  0
 32 35  1  0  0  0  0
 32 37  1  0  0  0  0
 33 34  2  0  0  0  0
 33 41  1  0  0  0  0
 35 38  1  0  0  0  0
 35 39  1  0  0  0  0
 35 40  1  0  0  0  0
 41 42  1  0  0  0  0
 41 43  1  0  0  0  0
 42 44  1  0  0  0  0
 42 45  1  0  0  0  0
 42 46  1  0  0  0  0
M  END
$$$$

  -OEChem-05262217223D

 46 46  0     1  0  0  0  0  0999 V2000
   -1.7955    0.1492    2.7971 C   0  0  0  0  0  0  0  0  0  0  0  0
   -2.5790   -0.4588    2.0799 O   0  0  0  0  0  0  0  0  0  0  0  0
   -1.4858   -0.3416    4.1981 C   0  0  0  0  0  0  0  0  0  0  0  0
   -1.9788    0.2967    4.9348 H   0  0  0  0  0  0  0  0  0  0  0  0
   -1.8396   -1.3690    4.3248 H   0  0  0  0  0  0  0  0  0  0  0  0
   -0.4076   -0.3231    4.3746 H   0  0  0  0  0  0  0  0  0  0  0  0
   -1.2101    1.3032    2.3173 N   0  0  0  0  0  0  0  0  0  0  0  0
   -1.6350    1.9767    1.0825 C   0  0  2  0  0  0  0  0  0  0  0  0
   -0.4722    2.6786    0.3377 C   0  0  0  0  0  0  0  0  0  0  0  0
   -0.0818    3.7605    0.7640 O   0  0  0  0  0  0  0  0  0  0  0  0
   -2.7399    2.9740    1.4583 C   0  0  0  0  0  0  0  0  0  0  0  0
   -0.5993    1.8124    2.9530 H   0  0  0  0  0  0  0  0  0  0  0  0
   -2.0795    1.2570    0.3934 H   0  0  0  0  0  0  0  0  0  0  0  0
   -2.3716    3.7079    2.1826 H   0  0  0  0  0  0  0  0  0  0  0  0
   -3.0872    3.5095    0.5692 H   0  0  0  0  0  0  0  0  0  0  0  0
   -3.5927    2.4485    1.8993 H   0  0  0  0  0  0  0  0  0  0  0  0
    0.1566    2.1360   -0.7864 N   0  0  0  0  0  0  0  0  0  0  0  0
   -0.1774    0.8395   -1.4223 C   0  0  2  0  0  0  0  0  0  0  0  0
    0.3241   -0.3998   -0.6381 C   0  0  0  0  0  0  0  0  0  0  0  0
    1.5160   -0.6825   -0.6511 O   0  0  0  0  0  0  0  0  0  0  0  0
    0.5122    0.9912   -2.7891 C   0  0  0  0  0  0  0  0  0  0  0  0
    0.5532    2.4992   -2.9639 C   0  0  0  0  0  0  0  0  0  0  0  0
    1.0755    2.9273   -1.6131 C   0  0  0  0  0  0  0  0  0  0  0  0
   -1.2556    0.7522   -1.5820 H   0  0  0  0  0  0  0  0  0  0  0  0
   -0.0548    0.4998   -3.5860 H   0  0  0  0  0  0  0  0  0  0  0  0
    1.5305    0.5869   -2.7919 H   0  0  0  0  0  0  0  0  0  0  0  0
    1.2242    2.8004   -3.7741 H   0  0  0  0  0  0  0  0  0  0  0  0
   -0.4430    2.9125   -3.1574 H   0  0  0  0  0  0  0  0  0  0  0  0
    2.1196    2.6374   -1.4504 H   0  0  0  0  0  0  0  0  0  0  0  0
    0.9775    4.0102   -1.4799 H   0  0  0  0  0  0  0  0  0  0  0  0
   -0.5402   -1.1978    0.0962 N   0  0  0  0  0  0  0  0  0  0  0  0
   -0.1897   -2.4125    0.8661 C   0  0  2  0  0  0  0  0  0  0  0  0
    0.6977   -2.1736    2.1119 C   0  0  0  0  0  0  0  0  0  0  0  0
    0.4477   -2.7637    3.1551 O   0  0  0  0  0  0  0  0  0  0  0  0
    0.4162   -3.4937   -0.0388 C   0  0  0  0  0  0  0  0  0  0  0  0
   -1.4790   -0.8292    0.2605 H   0  0  0  0  0  0  0  0  0  0  0  0
   -1.1339   -2.8156    1.2479 H   0  0  0  0  0  0  0  0  0  0  0  0
    1.4197   -3.2171   -0.3746 H   0  0  0  0  0  0  0  0  0  0  0  0
    0.4898   -4.4391    0.5079 H   0  0  0  0  0  0  0  0  0  0  0  0
   -0.2162   -3.6508   -0.9177 H   0  0  0  0  0  0  0  0  0  0  0  0
    1.7541   -1.2844    2.0922 N   0  0  0  0  0  0  0  0  0  0  0  0
    2.6803   -1.0976    3.2001 C   0  0  0  0  0  0  0  0  0  0  0  0
    1.9991   -0.9129    1.1704 H   0  0  0  0  0  0  0  0  0  0  0  0
    3.4112   -0.3218    2.9523 H   0  0  0  0  0  0  0  0  0  0  0  0
    2.1422   -0.7887    4.1021 H   0  0  0  0  0  0  0  0  0  0  0  0
    3.2177   -2.0282    3.4107 H   0  0  0  0  0  0  0  0  0  0  0  0
  1  2  2  0  0  0  0
  1  3  1  0  0  0  0
  1  7  1  0  0  0  0
  3  4  1  0  0  0  0
  3  5  1  0  0  0  0
  3  6  1  0  0  0  0
  7  8  1  0  0  0  0
  7 12  1  0  0  0  0
  8  9  1  0  0  0  0
  8 11  1  0  0  0  0
  8 13  1  0  0  0  0
  9 10  2  0  0  0  0
  9 17  1  0  0  0  0
 11 14  1  0  0  0  0
 11 15  1  0  0  0  0
 11 16  1  0  0  0  0
 17 18  1  0  0  0  0
 17 23  1  0  0  0  0
 18 19  1  0  0  0  0
 18 21  1  0  0  0  0
 18 24  1  0  0  0  0
 19 20  2  0  0  0  0
 19 31  1  0  0  0  0
 21 22  1  0  0  0  0
 21 25  1  0  0  0  0
 21 26  1  0  0  0  0
 22 23  1  0  0  0  0
 22 27  1  0  0  0  0
 22 28  1  0  0  0  0
 23 29  1  0  0  0  0
 23 30  1  0  0  0  0
 31 32  1  0  0  0  0
 31 36  1  0  0  0  0
 32 33  1  0  0  0  0
 32 35  1  0  0  0  0
 32 37  1  0  0  0  0
 33 34  2  0  0  0  0
 33 41  1  0  0  0  0
 35 38  1  0  0  0  0
 35 39  1  0  0  0  0
 35 40  1  0  0  0  0
 41 42  1  0  0  0  0
 41 43  1  0  0  0  0
 42 44  1  0  0  0  0
 42 45  1  0  0  0  0
 42 46  1  0  0  0  0
M  END
$$$$

  -OEChem-05262217223D

 46 46  0     1  0  0  0  0  0999 V2000
   -1.8240    0.1016    2.5447 C   0  0  0  0  0  0  0  0  0  0  0  0
   -2.6380   -0.4044    1.7833 O   0  0  0  0  0  0  0  0  0  0  0  0
   -1.5551   -0.5140    3.9037 C   0  0  0  0  0  0  0  0  0  0  0  0
   -2.0455    0.0742    4.6829 H   0  0  0  0  0  0  0  0  0  0  0  0
   -1.9390   -1.5378    3.9359 H   0  0  0  0  0  0  0  0  0  0  0  0
   -0.4812   -0.5409    4.1010 H   0  0  0  0  0  0  0  0  0  0  0  0
   -1.1733    1.2580    2.1632 N   0  0  0  0  0  0  0  0  0  0  0  0
   -1.6125    2.0931    1.0361 C   0  0  2  0  0  0  0  0  0  0  0  0
   -0.4493    2.7647    0.2603 C   0  0  0  0  0  0  0  0  0  0  0  0
   -0.0534    3.8645    0.6324 O   0  0  0  0  0  0  0  0  0  0  0  0
   -2.5975    3.1275    1.6010 C   0  0  0  0  0  0  0  0  0  0  0  0
   -0.5425    1.6748    2.8446 H   0  0  0  0  0  0  0  0  0  0  0  0
   -2.1689    1.4925    0.3133 H   0  0  0  0  0  0  0  0  0  0  0  0
   -2.1159    3.7458    2.3657 H   0  0  0  0  0  0  0  0  0  0  0  0
   -2.9595    3.7835    0.8032 H   0  0  0  0  0  0  0  0  0  0  0  0
   -3.4599    2.6259    2.0514 H   0  0  0  0  0  0  0  0  0  0  0  0
    0.1639    2.1749   -0.8484 N   0  0  0  0  0  0  0  0  0  0  0  0
   -0.1957    0.8584   -1.4235 C   0  0  2  0  0  0  0  0  0  0  0  0
    0.2977   -0.3554   -0.5986 C   0  0  0  0  0  0  0  0  0  0  0  0
    1.5011   -0.5536   -0.4811 O   0  0  0  0  0  0  0  0  0  0  0  0
    0.4934    0.9357   -2.7953 C   0  0  0  0  0  0  0  0  0  0  0  0
    0.5626    2.4339   -3.0384 C   0  0  0  0  0  0  0  0  0  0  0  0
    1.0952    2.9134   -1.7087 C   0  0  0  0  0  0  0  0  0  0  0  0
   -1.2763    0.7825   -1.5720 H   0  0  0  0  0  0  0  0  0  0  0  0
   -0.0840    0.4205   -3.5690 H   0  0  0  0  0  0  0  0  0  0  0  0
    1.5034    0.5102   -2.7773 H   0  0  0  0  0  0  0  0  0  0  0  0
    1.2380    2.6851   -3.8622 H   0  0  0  0  0  0  0  0  0  0  0  0
   -0.4261    2.8566   -3.2500 H   0  0  0  0  0  0  0  0  0  0  0  0
    2.1342    2.6117   -1.5344 H   0  0  0  0  0  0  0  0  0  0  0  0
    1.0164    4.0027   -1.6219 H   0  0  0  0  0  0  0  0  0  0  0  0
   -0.5895   -1.2824   -0.0751 N   0  0  0  0  0  0  0  0  0  0  0  0
   -0.2556   -2.5621    0.5892 C   0  0  2  0  0  0  0  0  0  0  0  0
    0.4976   -2.4568    1.9381 C   0  0  0  0  0  0  0  0  0  0  0  0
    0.1676   -3.1769    2.8715 O   0  0  0  0  0  0  0  0  0  0  0  0
    0.4909   -3.4971   -0.3711 C   0  0  0  0  0  0  0  0  0  0  0  0
   -1.5556   -0.9656    0.0332 H   0  0  0  0  0  0  0  0  0  0  0  0
   -1.2112   -3.0434    0.8225 H   0  0  0  0  0  0  0  0  0  0  0  0
    1.5003   -3.1303   -0.5780 H   0  0  0  0  0  0  0  0  0  0  0  0
    0.5749   -4.4954    0.0699 H   0  0  0  0  0  0  0  0  0  0  0  0
   -0.0515   -3.5817   -1.3172 H   0  0  0  0  0  0  0  0  0  0  0  0
    1.5481   -1.5793    2.1218 N   0  0  0  0  0  0  0  0  0  0  0  0
    2.4182   -1.5920    3.2899 C   0  0  0  0  0  0  0  0  0  0  0  0
    1.8620   -1.0913    1.2783 H   0  0  0  0  0  0  0  0  0  0  0  0
    1.8387   -1.4408    4.2061 H   0  0  0  0  0  0  0  0  0  0  0  0
    2.9465   -2.5484    3.3613 H   0  0  0  0  0  0  0  0  0  0  0  0
    3.1590   -0.7901    3.2150 H   0  0  0  0  0  0  0  0  0  0  0  0
  1  2  2  0  0  0  0
  1  3  1  0  0  0  0
  1  7  1  0  0  0  0
  3  4  1  0  0  0  0
  3  5  1  0  0  0  0
  3  6  1  0  0  0  0
  7  8  1  0  0  0  0
  7 12  1  0  0  0  0
  8  9  1  0  0  0  0
  8 11  1  0  0  0  0
  8 13  1  0  0  0  0
  9 10  2  0  0  0  0
  9 17  1  0  0  0  0
 11 14  1  0  0  0  0
 11 15  1  0  0  0  0
 11 16  1  0  0  0  0
 17 18  1  0  0  0  0
 17 23  1  0  0  0  0
 18 19  1  0  0  0  0
 18 21  1  0  0  0  0
 18 24  1  0  0  0  0
 19 20  2  0  0  0  0
 19 31  1  0  0  0  0
 21 22  1  0  0  0  0
 21 25  1  0  0  0  0
 21 26  1  0  0  0  0
 22 23  1  0  0  0  0
 22 27  1  0  0  0  0
 22 28  1  0  0  0  0
 23 29  1  0  0  0  0
 23 30  1  0  0  0  0
 31 32  1  0  0  0  0
 31 36  1  0  0  0  0
 32 33  1  0  0  0  0
 32 35  1  0  0  0  0
 32 37  1  0  0  0  0
 33 34  2  0  0  0  0
 33 41  1  0  0  0  0
 35 38  1  0  0  0  0
 35 39  1  0  0  0  0
 35 40  1  0  0  0  0
 41 42  1  0  0  0  0
 41 43  1  0  0  0  0
 42 44  1  0  0  0  0
 42 45  1  0  0  0  0
 42 46  1  0  0  0  0
M  END
$$$$

  -OEChem-05262217223D

 46 46  0     1  0  0  0  0  0999 V2000
   -1.8693   -0.0428    2.2479 C   0  0  0  0  0  0  0  0  0  0  0  0
   -2.6561   -0.4526    1.4043 O   0  0  0  0  0  0  0  0  0  0  0  0
   -1.6631   -0.8129    3.5375 C   0  0  0  0  0  0  0  0  0  0  0  0
   -2.2255   -0.3411    4.3467 H   0  0  0  0  0  0  0  0  0  0  0  0
   -2.0090   -1.8440    3.4204 H   0  0  0  0  0  0  0  0  0  0  0  0
   -0.6046   -0.8289    3.8041 H   0  0  0  0  0  0  0  0  0  0  0  0
   -1.2023    1.1477    2.0336 N   0  0  0  0  0  0  0  0  0  0  0  0
   -1.6405    2.1431    1.0431 C   0  0  2  0  0  0  0  0  0  0  0  0
   -0.4951    2.8311    0.2513 C   0  0  0  0  0  0  0  0  0  0  0  0
   -0.1256    3.9500    0.5937 O   0  0  0  0  0  0  0  0  0  0  0  0
   -2.5141    3.1551    1.7997 C   0  0  0  0  0  0  0  0  0  0  0  0
   -0.5903    1.4657    2.7817 H   0  0  0  0  0  0  0  0  0  0  0  0
   -2.2831    1.6756    0.2926 H   0  0  0  0  0  0  0  0  0  0  0  0
   -1.9372    3.6564    2.5838 H   0  0  0  0  0  0  0  0  0  0  0  0
   -2.8967    3.9158    1.1119 H   0  0  0  0  0  0  0  0  0  0  0  0
   -3.3678    2.6506    2.2629 H   0  0  0  0  0  0  0  0  0  0  0  0
    0.1202    2.2400   -0.8551 N   0  0  0  0  0  0  0  0  0  0  0  0
   -0.2211    0.9096   -1.4081 C   0  0  2  0  0  0  0  0  0  0  0  0
    0.2982   -0.2887   -0.5802 C   0  0  0  0  0  0  0  0  0  0  0  0
    1.4914   -0.3570   -0.3102 O   0  0  0  0  0  0  0  0  0  0  0  0
    0.4622    0.9724   -2.7813 C   0  0  0  0  0  0  0  0  0  0  0  0
    0.5081    2.4672   -3.0495 C   0  0  0  0  0  0  0  0  0  0  0  0
    1.0367    2.9792   -1.7307 C   0  0  0  0  0  0  0  0  0  0  0  0
   -1.3025    0.8169   -1.5432 H   0  0  0  0  0  0  0  0  0  0  0  0
   -0.1082    0.4346   -3.5450 H   0  0  0  0  0  0  0  0  0  0  0  0
    1.4775    0.5605   -2.7522 H   0  0  0  0  0  0  0  0  0  0  0  0
    1.1766    2.7150   -3.8798 H   0  0  0  0  0  0  0  0  0  0  0  0
   -0.4878    2.8705   -3.2647 H   0  0  0  0  0  0  0  0  0  0  0  0
    2.0808    2.6984   -1.5542 H   0  0  0  0  0  0  0  0  0  0  0  0
    0.9394    4.0682   -1.6629 H   0  0  0  0  0  0  0  0  0  0  0  0
   -0.5194   -1.3726   -0.3067 N   0  0  0  0  0  0  0  0  0  0  0  0
   -0.1101   -2.6935    0.2177 C   0  0  2  0  0  0  0  0  0  0  0  0
    0.4792   -2.7186    1.6498 C   0  0  0  0  0  0  0  0  0  0  0  0
    0.0865   -3.5608    2.4463 O   0  0  0  0  0  0  0  0  0  0  0  0
    0.8413   -3.3887   -0.7649 C   0  0  0  0  0  0  0  0  0  0  0  0
   -1.5207   -1.1671   -0.2781 H   0  0  0  0  0  0  0  0  0  0  0  0
   -1.0208   -3.3001    0.2623 H   0  0  0  0  0  0  0  0  0  0  0  0
    1.8112   -2.8841   -0.8009 H   0  0  0  0  0  0  0  0  0  0  0  0
    1.0073   -4.4252   -0.4550 H   0  0  0  0  0  0  0  0  0  0  0  0
    0.4118   -3.3933   -1.7711 H   0  0  0  0  0  0  0  0  0  0  0  0
    1.4661   -1.8400    2.0519 N   0  0  0  0  0  0  0  0  0  0  0  0
    2.2142   -1.9739    3.2948 C   0  0  0  0  0  0  0  0  0  0  0  0
    1.8221   -1.2145    1.3234 H   0  0  0  0  0  0  0  0  0  0  0  0
    1.5371   -2.0014    4.1544 H   0  0  0  0  0  0  0  0  0  0  0  0
    2.8071   -2.8941    3.2851 H   0  0  0  0  0  0  0  0  0  0  0  0
    2.8925   -1.1244    3.4190 H   0  0  0  0  0  0  0  0  0  0  0  0
  1  2  2  0  0  0  0
  1  3  1  0  0  0  0
  1  7  1  0  0  0  0
  3  4  1  0  0  0  0
  3  5  1  0  0  0  0
  3  6  1  0  0  0  0
  7  8  1  0  0  0  0
  7 12  1  0  0  0  0
  8  9  1  0  0  0  0
  8 11  1  0  0  0  0
  8 13  1  0  0  0  0
  9 10  2  0  0  0  0
  9 17  1  0  0  0  0
 11 14  1  0  0  0  0
 11 15  1  0  0  0  0
 11 16  1  0  0  0  0
 17 18  1  0  0  0  0
 17 23  1  0  0  0  0
 18 19  1  0  0  0  0
 18 21  1  0  0  0  0
 18 24  1  0  0  0  0
 19 20  2  0  0  0  0
 19 31  1  0  0  0  0
 21 22  1  0  0  0  0
 21 25  1  0  0  0  0
 21 26  1  0  0  0  0
 22 23  1  0  0  0  0
 22 27  1  0  0  0  0
 22 28  1  0  0  0  0
 23 29  1  0  0  0  0
 23 30  1  0  0  0  0
 31 32  1  0  0  0  0
 31 36  1  0  0  0  0
 32 33  1  0  0  0  0
 32 35  1  0  0  0  0
 32 37  1  0  0  0  0
 33 34  2  0  0  0  0
 33 41  1  0  0  0  0
 35 38  1  0  0  0  0
 35 39  1  0  0  0  0
 35 40  1  0  0  0  0
 41 42  1  0  0  0  0
 41 43  1  0  0  0  0
 42 44  1  0  0  0  0
 42 45  1  0  0  0  0
 42 46  1  0  0  0  0
M  END
$$$$

  -OEChem-05262217223D

 46 46  0     1  0  0  0  0  0999 V2000
   -1.4607    0.5009    3.6373 C   0  0  0  0  0  0  0  0  0  0  0  0
   -1.9291   -0.5460    3.2207 O   0  0  0  0  0  0  0  0  0  0  0  0
   -1.1744    0.6722    5.1170 C   0  0  0  0  0  0  0  0  0  0  0  0
   -1.7369    1.5224    5.5101 H   0  0  0  0  0  0  0  0  0  0  0  0
   -1.4682   -0.2277    5.6646 H   0  0  0  0  0  0  0  0  0  0  0  0
   -0.1070    0.8469    5.2726 H   0  0  0  0  0  0  0  0  0  0  0  0
   -1.1823    1.5265    2.7597 N   0  0  0  0  0  0  0  0  0  0  0  0
   -1.2829    1.4210    1.2986 C   0  0  2  0  0  0  0  0  0  0  0  0
   -0.2796    2.3682    0.5950 C   0  0  0  0  0  0  0  0  0  0  0  0
    0.0570    3.3918    1.1861 O   0  0  0  0  0  0  0  0  0  0  0  0
   -2.7220    1.7659    0.8983 C   0  0  0  0  0  0  0  0  0  0  0  0
   -0.7269    2.3592    3.1320 H   0  0  0  0  0  0  0  0  0  0  0  0
   -1.0556    0.3942    0.9992 H   0  0  0  0  0  0  0  0  0  0  0  0
   -2.9743    2.7811    1.2218 H   0  0  0  0  0  0  0  0  0  0  0  0
   -2.8505    1.7066   -0.1856 H   0  0  0  0  0  0  0  0  0  0  0  0
   -3.4228    1.0672    1.3666 H   0  0  0  0  0  0  0  0  0  0  0  0
    0.2224    2.1294   -0.6854 N   0  0  0  0  0  0  0  0  0  0  0  0
   -0.1299    0.9628   -1.5265 C   0  0  2  0  0  0  0  0  0  0  0  0
    0.5150   -0.3781   -1.1142 C   0  0  0  0  0  0  0  0  0  0  0  0
    1.5652   -0.3919   -0.4875 O   0  0  0  0  0  0  0  0  0  0  0  0
    0.4244    1.4073   -2.8850 C   0  0  0  0  0  0  0  0  0  0  0  0
    0.4014    2.9225   -2.7677 C   0  0  0  0  0  0  0  0  0  0  0  0
    1.0289    3.1177   -1.4090 C   0  0  0  0  0  0  0  0  0  0  0  0
   -1.2153    0.8481   -1.5826 H   0  0  0  0  0  0  0  0  0  0  0  0
   -0.1926    1.0508   -3.7157 H   0  0  0  0  0  0  0  0  0  0  0  0
    1.4512    1.0520   -3.0345 H   0  0  0  0  0  0  0  0  0  0  0  0
    0.9858    3.4039   -3.5580 H   0  0  0  0  0  0  0  0  0  0  0  0
   -0.6215    3.3148   -2.7957 H   0  0  0  0  0  0  0  0  0  0  0  0
    2.0948    2.8647   -1.3911 H   0  0  0  0  0  0  0  0  0  0  0  0
    0.8955    4.1464   -1.0566 H   0  0  0  0  0  0  0  0  0  0  0  0
   -0.1555   -1.5645   -1.3675 N   0  0  0  0  0  0  0  0  0  0  0  0
    0.2999   -2.9338   -1.0410 C   0  0  2  0  0  0  0  0  0  0  0  0
    0.3158   -3.2785    0.4666 C   0  0  0  0  0  0  0  0  0  0  0  0
   -0.1374   -4.3543    0.8341 O   0  0  0  0  0  0  0  0  0  0  0  0
    1.6594   -3.2399   -1.6848 C   0  0  0  0  0  0  0  0  0  0  0  0
   -1.0596   -1.4809   -1.8234 H   0  0  0  0  0  0  0  0  0  0  0  0
   -0.4235   -3.6194   -1.4946 H   0  0  0  0  0  0  0  0  0  0  0  0
    2.4641   -2.6779   -1.2018 H   0  0  0  0  0  0  0  0  0  0  0  0
    1.8859   -4.3064   -1.5877 H   0  0  0  0  0  0  0  0  0  0  0  0
    1.6435   -2.9847   -2.7484 H   0  0  0  0  0  0  0  0  0  0  0  0
    0.8245   -2.3993    1.4010 N   0  0  0  0  0  0  0  0  0  0  0  0
    0.7852   -2.6282    2.8380 C   0  0  0  0  0  0  0  0  0  0  0  0
    1.2371   -1.5372    1.0382 H   0  0  0  0  0  0  0  0  0  0  0  0
   -0.2445   -2.7965    3.1707 H   0  0  0  0  0  0  0  0  0  0  0  0
    1.3894   -3.5017    3.1025 H   0  0  0  0  0  0  0  0  0  0  0  0
    1.1804   -1.7576    3.3693 H   0  0  0  0  0  0  0  0  0  0  0  0
  1  2  2  0  0  0  0
  1  3  1  0  0  0  0
  1  7  1  0  0  0  0
  3  4  1  0  0  0  0
  3  5  1  0  0  0  0
  3  6  1  0  0  0  0
  7  8  1  0  0  0  0
  7 12  1  0  0  0  0
  8  9  1  0  0  0  0
  8 11  1  0  0  0  0
  8 13  1  0  0  0  0
  9 10  2  0  0  0  0
  9 17  1  0  0  0  0
 11 14  1  0  0  0  0
 11 15  1  0  0  0  0
 11 16  1  0  0  0  0
 17 18  1  0  0  0  0
 17 23  1  0  0  0  0
 18 19  1  0  0  0  0
 18 21  1  0  0  0  0
 18 24  1  0  0  0  0
 19 20  2  0  0  0  0
 19 31  1  0  0  0  0
 21 22  1  0  0  0  0
 21 25  1  0  0  0  0
 21 26  1  0  0  0  0
 22 23  1  0  0  0  0
 22 27  1  0  0  0  0
 22 28  1  0  0  0  0
 23 29  1  0  0  0  0
 23 30  1  0  0  0  0
 31 32  1  0  0  0  0
 31 36  1  0  0  0  0
 32 33  1  0  0  0  0
 32 35  1  0  0  0  0
 32 37  1  0  0  0  0
 33 34  2  0  0  0  0
 33 41  1  0  0  0  0
 35 38  1  0  0  0  0
 35 39  1  0  0  0  0
 35 40  1  0  0  0  0
 41 42  1  0  0  0  0
 41 43  1  0  0  0  0
 42 44  1  0  0  0  0
 42 45  1  0  0  0  0
 42 46  1  0  0  0  0
M  END
$$$$

  -OEChem-05262217223D

 46 46  0     1  0  0  0  0  0999 V2000
   -1.3395    0.4337    3.6652 C   0  0  0  0  0  0  0  0  0  0  0  0
   -1.6670   -0.6794    3.2867 O   0  0  0  0  0  0  0  0  0  0  0  0
   -1.0687    0.6903    5.1355 C   0  0  0  0  0  0  0  0  0  0  0  0
   -1.8227    1.3704    5.5395 H   0  0  0  0  0  0  0  0  0  0  0  0
   -1.1021   -0.2486    5.6953 H   0  0  0  0  0  0  0  0  0  0  0  0
   -0.0800    1.1388    5.2607 H   0  0  0  0  0  0  0  0  0  0  0  0
   -1.2099    1.4613    2.7566 N   0  0  0  0  0  0  0  0  0  0  0  0
   -1.2904    1.3043    1.2985 C   0  0  2  0  0  0  0  0  0  0  0  0
   -0.3973    2.3459    0.5794 C   0  0  0  0  0  0  0  0  0  0  0  0
   -0.1656    3.4030    1.1629 O   0  0  0  0  0  0  0  0  0  0  0  0
   -2.7591    1.4713    0.8929 C   0  0  0  0  0  0  0  0  0  0  0  0
   -0.8508    2.3516    3.1006 H   0  0  0  0  0  0  0  0  0  0  0  0
   -0.9430    0.3045    1.0227 H   0  0  0  0  0  0  0  0  0  0  0  0
   -3.1272    2.4576    1.1932 H   0  0  0  0  0  0  0  0  0  0  0  0
   -2.8810    1.3722   -0.1883 H   0  0  0  0  0  0  0  0  0  0  0  0
   -3.3737    0.7070    1.3794 H   0  0  0  0  0  0  0  0  0  0  0  0
    0.1102    2.1630   -0.7083 N   0  0  0  0  0  0  0  0  0  0  0  0
   -0.1303    0.9702   -1.5523 C   0  0  2  0  0  0  0  0  0  0  0  0
    0.6451   -0.3086   -1.1695 C   0  0  0  0  0  0  0  0  0  0  0  0
    1.5234   -0.2748   -0.3188 O   0  0  0  0  0  0  0  0  0  0  0  0
    0.3536    1.4789   -2.9151 C   0  0  0  0  0  0  0  0  0  0  0  0
    0.1735    2.9827   -2.7871 C   0  0  0  0  0  0  0  0  0  0  0  0
    0.7974    3.2344   -1.4369 C   0  0  0  0  0  0  0  0  0  0  0  0
   -1.1990    0.7450   -1.5938 H   0  0  0  0  0  0  0  0  0  0  0  0
   -0.2355    1.0653   -3.7394 H   0  0  0  0  0  0  0  0  0  0  0  0
    1.4098    1.2343   -3.0816 H   0  0  0  0  0  0  0  0  0  0  0  0
    0.6911    3.5284   -3.5821 H   0  0  0  0  0  0  0  0  0  0  0  0
   -0.8854    3.2651   -2.7960 H   0  0  0  0  0  0  0  0  0  0  0  0
    1.8840    3.0945   -1.4365 H   0  0  0  0  0  0  0  0  0  0  0  0
    0.5630    4.2416   -1.0754 H   0  0  0  0  0  0  0  0  0  0  0  0
    0.2453   -1.5230   -1.7043 N   0  0  0  0  0  0  0  0  0  0  0  0
    0.8364   -2.8527   -1.4412 C   0  0  2  0  0  0  0  0  0  0  0  0
    0.5626   -3.4099   -0.0258 C   0  0  0  0  0  0  0  0  0  0  0  0
    0.0731   -4.5257    0.0892 O   0  0  0  0  0  0  0  0  0  0  0  0
    2.3383   -2.8792   -1.7602 C   0  0  0  0  0  0  0  0  0  0  0  0
   -0.5449   -1.4922   -2.3423 H   0  0  0  0  0  0  0  0  0  0  0  0
    0.3577   -3.5502   -2.1367 H   0  0  0  0  0  0  0  0  0  0  0  0
    2.9110   -2.2931   -1.0356 H   0  0  0  0  0  0  0  0  0  0  0  0
    2.7078   -3.9092   -1.7287 H   0  0  0  0  0  0  0  0  0  0  0  0
    2.5227   -2.4757   -2.7602 H   0  0  0  0  0  0  0  0  0  0  0  0
    0.8342   -2.6636    1.1026 N   0  0  0  0  0  0  0  0  0  0  0  0
    0.4566   -3.0672    2.4501 C   0  0  0  0  0  0  0  0  0  0  0  0
    1.2000   -1.7216    0.9466 H   0  0  0  0  0  0  0  0  0  0  0  0
    0.7649   -2.3054    3.1725 H   0  0  0  0  0  0  0  0  0  0  0  0
   -0.6291   -3.1924    2.5221 H   0  0  0  0  0  0  0  0  0  0  0  0
    0.9402   -4.0124    2.7165 H   0  0  0  0  0  0  0  0  0  0  0  0
  1  2  2  0  0  0  0
  1  3  1  0  0  0  0
  1  7  1  0  0  0  0
  3  4  1  0  0  0  0
  3  5  1  0  0  0  0
  3  6  1  0  0  0  0
  7  8  1  0  0  0  0
  7 12  1  0  0  0  0
  8  9  1  0  0  0  0
  8 11  1  0  0  0  0
  8 13  1  0  0  0  0
  9 10  2  0  0  0  0
  9 17  1  0  0  0  0
 11 14  1  0  0  0  0
 11 15  1  0  0  0  0
 11 16  1  0  0  0  0
 17 18  1  0  0  0  0
 17 23  1  0  0  0  0
 18 19  1  0  0  0  0
 18 21  1  0  0  0  0
 18 24  1  0  0  0  0
 19 20  2  0  0  0  0
 19 31  1  0  0  0  0
 21 22  1  0  0  0  0
 21 25  1  0  0  0  0
 21 26  1  0  0  0  0
 22 23  1  0  0  0  0
 22 27  1  0  0  0  0
 22 28  1  0  0  0  0
 23 29  1  0  0  0  0
 23 30  1  0  0  0  0
 31 32  1  0  0  0  0
 31 36  1  0  0  0  0
 32 33  1  0  0  0  0
 32 35  1  0  0  0  0
 32 37  1  0  0  0  0
 33 34  2  0  0  0  0
 33 41  1  0  0  0  0
 35 38  1  0  0  0  0
 35 39  1  0  0  0  0
 35 40  1  0  0  0  0
 41 42  1  0  0  0  0
 41 43  1  0  0  0  0
 42 44  1  0  0  0  0
 42 45  1  0  0  0  0
 42 46  1  0  0  0  0
M  END
$$$$

  -OEChem-05262217223D

 46 46  0     1  0  0  0  0  0999 V2000
   -1.1420    0.6004    3.8368 C   0  0  0  0  0  0  0  0  0  0  0  0
   -1.3484   -0.5749    3.5777 O   0  0  0  0  0  0  0  0  0  0  0  0
   -0.9289    1.0344    5.2748 C   0  0  0  0  0  0  0  0  0  0  0  0
   -1.7305    1.7103    5.5822 H   0  0  0  0  0  0  0  0  0  0  0  0
   -0.9284    0.1631    5.9358 H   0  0  0  0  0  0  0  0  0  0  0  0
    0.0300    1.5495    5.3717 H   0  0  0  0  0  0  0  0  0  0  0  0
   -1.1070    1.5383    2.8274 N   0  0  0  0  0  0  0  0  0  0  0  0
   -1.1463    1.2261    1.3920 C   0  0  2  0  0  0  0  0  0  0  0  0
   -0.4238    2.3214    0.5575 C   0  0  0  0  0  0  0  0  0  0  0  0
   -0.2961    3.4279    1.0816 O   0  0  0  0  0  0  0  0  0  0  0  0
   -2.6189    1.1183    0.9793 C   0  0  0  0  0  0  0  0  0  0  0  0
   -0.8453    2.4912    3.0785 H   0  0  0  0  0  0  0  0  0  0  0  0
   -0.6609    0.2644    1.2312 H   0  0  0  0  0  0  0  0  0  0  0  0
   -3.1352    2.0671    1.1574 H   0  0  0  0  0  0  0  0  0  0  0  0
   -2.7095    0.8666   -0.0799 H   0  0  0  0  0  0  0  0  0  0  0  0
   -3.1188    0.3358    1.5594 H   0  0  0  0  0  0  0  0  0  0  0  0
    0.0397    2.1663   -0.7566 N   0  0  0  0  0  0  0  0  0  0  0  0
   -0.0692    0.9481   -1.5782 C   0  0  2  0  0  0  0  0  0  0  0  0
    0.6114   -0.3391   -1.0546 C   0  0  0  0  0  0  0  0  0  0  0  0
    1.3041   -0.3213   -0.0463 O   0  0  0  0  0  0  0  0  0  0  0  0
    0.5957    1.3613   -2.8993 C   0  0  0  0  0  0  0  0  0  0  0  0
    0.4615    2.8744   -2.9666 C   0  0  0  0  0  0  0  0  0  0  0  0
    0.5186    3.3186   -1.5128 C   0  0  0  0  0  0  0  0  0  0  0  0
   -1.1264    0.7321   -1.7533 H   0  0  0  0  0  0  0  0  0  0  0  0
    0.1291    0.8754   -3.7619 H   0  0  0  0  0  0  0  0  0  0  0  0
    1.6597    1.0972   -2.8877 H   0  0  0  0  0  0  0  0  0  0  0  0
    1.2526    3.3346   -3.5672 H   0  0  0  0  0  0  0  0  0  0  0  0
   -0.5074    3.1456   -3.3982 H   0  0  0  0  0  0  0  0  0  0  0  0
    1.5472    3.5554   -1.2201 H   0  0  0  0  0  0  0  0  0  0  0  0
   -0.1030    4.2083   -1.3622 H   0  0  0  0  0  0  0  0  0  0  0  0
    0.5240   -1.5025   -1.8040 N   0  0  0  0  0  0  0  0  0  0  0  0
    1.0950   -2.8219   -1.4616 C   0  0  2  0  0  0  0  0  0  0  0  0
    0.4793   -3.4647   -0.1969 C   0  0  0  0  0  0  0  0  0  0  0  0
   -0.1684   -4.4973   -0.3090 O   0  0  0  0  0  0  0  0  0  0  0  0
    2.6275   -2.7695   -1.3733 C   0  0  0  0  0  0  0  0  0  0  0  0
   -0.0841   -1.4644   -2.6169 H   0  0  0  0  0  0  0  0  0  0  0  0
    0.8542   -3.4950   -2.2912 H   0  0  0  0  0  0  0  0  0  0  0  0
    2.9606   -2.1981   -0.5024 H   0  0  0  0  0  0  0  0  0  0  0  0
    3.0308   -3.7834   -1.2864 H   0  0  0  0  0  0  0  0  0  0  0  0
    3.0439   -2.3070   -2.2730 H   0  0  0  0  0  0  0  0  0  0  0  0
    0.6024   -2.8625    1.0390 N   0  0  0  0  0  0  0  0  0  0  0  0
   -0.0998   -3.3131    2.2332 C   0  0  0  0  0  0  0  0  0  0  0  0
    1.0167   -1.9272    1.0391 H   0  0  0  0  0  0  0  0  0  0  0  0
    0.2836   -2.7881    3.1134 H   0  0  0  0  0  0  0  0  0  0  0  0
   -1.1720   -3.1095    2.1457 H   0  0  0  0  0  0  0  0  0  0  0  0
    0.0453   -4.3876    2.3859 H   0  0  0  0  0  0  0  0  0  0  0  0
  1  2  2  0  0  0  0
  1  3  1  0  0  0  0
  1  7  1  0  0  0  0
  3  4  1  0  0  0  0
  3  5  1  0  0  0  0
  3  6  1  0  0  0  0
  7  8  1  0  0  0  0
  7 12  1  0  0  0  0
  8  9  1  0  0  0  0
  8 11  1  0  0  0  0
  8 13  1  0  0  0  0
  9 10  2  0  0  0  0
  9 17  1  0  0  0  0
 11 14  1  0  0  0  0
 11 15  1  0  0  0  0
 11 16  1  0  0  0  0
 17 18  1  0  0  0  0
 17 23  1  0  0  0  0
 18 19  1  0  0  0  0
 18 21  1  0  0  0  0
 18 24  1  0  0  0  0
 19 20  2  0  0  0  0
 19 31  1  0  0  0  0
 21 22  1  0  0  0  0
 21 25  1  0  0  0  0
 21 26  1  0  0  0  0
 22 23  1  0  0  0  0
 22 27  1  0  0  0  0
 22 28  1  0  0  0  0
 23 29  1  0  0  0  0
 23 30  1  0  0  0  0
 31 32  1  0  0  0  0
 31 36  1  0  0  0  0
 32 33  1  0  0  0  0
 32 35  1  0  0  0  0
 32 37  1  0  0  0  0
 33 34  2  0  0  0  0
 33 41  1  0  0  0  0
 35 38  1  0  0  0  0
 35 39  1  0  0  0  0
 35 40  1  0  0  0  0
 41 42  1  0  0  0  0
 41 43  1  0  0  0  0
 42 44  1  0  0  0  0
 42 45  1  0  0  0  0
 42 46  1  0  0  0  0
M  END
$$$$

  -OEChem-05262217223D

 46 46  0     1  0  0  0  0  0999 V2000
   -1.0844    0.4959    3.6624 C   0  0  0  0  0  0  0  0  0  0  0  0
   -1.3296   -0.6600    3.3523 O   0  0  0  0  0  0  0  0  0  0  0  0
   -0.7220    0.8375    5.0955 C   0  0  0  0  0  0  0  0  0  0  0  0
   -1.4310    1.5662    5.4958 H   0  0  0  0  0  0  0  0  0  0  0  0
   -0.7516   -0.0615    5.7174 H   0  0  0  0  0  0  0  0  0  0  0  0
    0.2851    1.2598    5.1340 H   0  0  0  0  0  0  0  0  0  0  0  0
   -1.1474    1.4988    2.7185 N   0  0  0  0  0  0  0  0  0  0  0  0
   -1.3448    1.2776    1.2803 C   0  0  2  0  0  0  0  0  0  0  0  0
   -0.6384    2.3713    0.4324 C   0  0  0  0  0  0  0  0  0  0  0  0
   -0.6110    3.5053    0.9089 O   0  0  0  0  0  0  0  0  0  0  0  0
   -2.8494    1.3006    0.9976 C   0  0  0  0  0  0  0  0  0  0  0  0
   -0.8699    2.4363    3.0054 H   0  0  0  0  0  0  0  0  0  0  0  0
   -0.9738    0.2913    1.0140 H   0  0  0  0  0  0  0  0  0  0  0  0
   -3.2786    2.2674    1.2798 H   0  0  0  0  0  0  0  0  0  0  0  0
   -3.0415    1.1306   -0.0659 H   0  0  0  0  0  0  0  0  0  0  0  0
   -3.3532    0.5146    1.5693 H   0  0  0  0  0  0  0  0  0  0  0  0
   -0.0686    2.1833   -0.8354 N   0  0  0  0  0  0  0  0  0  0  0  0
   -0.0284    0.9199   -1.5933 C   0  0  2  0  0  0  0  0  0  0  0  0
    0.7079   -0.2862   -0.9527 C   0  0  0  0  0  0  0  0  0  0  0  0
    1.1735   -0.2142    0.1758 O   0  0  0  0  0  0  0  0  0  0  0  0
    0.6783    1.3229   -2.8970 C   0  0  0  0  0  0  0  0  0  0  0  0
    0.4256    2.8137   -3.0547 C   0  0  0  0  0  0  0  0  0  0  0  0
    0.3603    3.3319   -1.6260 C   0  0  0  0  0  0  0  0  0  0  0  0
   -1.0550    0.6108   -1.8123 H   0  0  0  0  0  0  0  0  0  0  0  0
    0.3050    0.7572   -3.7568 H   0  0  0  0  0  0  0  0  0  0  0  0
    1.7578    1.1527   -2.8109 H   0  0  0  0  0  0  0  0  0  0  0  0
    1.2107    3.3087   -3.6348 H   0  0  0  0  0  0  0  0  0  0  0  0
   -0.5353    2.9803   -3.5521 H   0  0  0  0  0  0  0  0  0  0  0  0
    1.3476    3.6666   -1.2896 H   0  0  0  0  0  0  0  0  0  0  0  0
   -0.3377    4.1740   -1.5581 H   0  0  0  0  0  0  0  0  0  0  0  0
    1.0378   -1.3816   -1.7374 N   0  0  0  0  0  0  0  0  0  0  0  0
    1.7519   -2.5996   -1.2999 C   0  0  2  0  0  0  0  0  0  0  0  0
    0.9999   -3.4217   -0.2264 C   0  0  0  0  0  0  0  0  0  0  0  0
    0.5963   -4.5422   -0.5095 O   0  0  0  0  0  0  0  0  0  0  0  0
    3.1895   -2.2862   -0.8591 C   0  0  0  0  0  0  0  0  0  0  0  0
    0.6377   -1.3967   -2.6708 H   0  0  0  0  0  0  0  0  0  0  0  0
    1.8305   -3.2509   -2.1763 H   0  0  0  0  0  0  0  0  0  0  0  0
    3.2088   -1.7167    0.0742 H   0  0  0  0  0  0  0  0  0  0  0  0
    3.7413   -3.2175   -0.6979 H   0  0  0  0  0  0  0  0  0  0  0  0
    3.7058   -1.7073   -1.6302 H   0  0  0  0  0  0  0  0  0  0  0  0
    0.7315   -2.8919    1.0203 N   0  0  0  0  0  0  0  0  0  0  0  0
   -0.1185   -3.5348    2.0129 C   0  0  0  0  0  0  0  0  0  0  0  0
    0.9542   -1.9004    1.1410 H   0  0  0  0  0  0  0  0  0  0  0  0
    0.1555   -4.5877    2.1354 H   0  0  0  0  0  0  0  0  0  0  0  0
   -0.0040   -3.0382    2.9811 H   0  0  0  0  0  0  0  0  0  0  0  0
   -1.1692   -3.4741    1.7128 H   0  0  0  0  0  0  0  0  0  0  0  0
  1  2  2  0  0  0  0
  1  3  1  0  0  0  0
  1  7  1  0  0  0  0
  3  4  1  0  0  0  0
  3  5  1  0  0  0  0
  3  6  1  0  0  0  0
  7  8  1  0  0  0  0
  7 12  1  0  0  0  0
  8  9  1  0  0  0  0
  8 11  1  0  0  0  0
  8 13  1  0  0  0  0
  9 10  2  0  0  0  0
  9 17  1  0  0  0  0
 11 14  1  0  0  0  0
 11 15  1  0  0  0  0
 11 16  1  0  0  0  0
 17 18  1  0  0  0  0
 17 23  1  0  0  0  0
 18 19  1  0  0  0  0
 18 21  1  0  0  0  0
 18 24  1  0  0  0  0
 19 20  2  0  0  0  0
 19 31  1  0  0  0  0
 21 22  1  0  0  0  0
 21 25  1  0  0  0  0
 21 26  1  0  0  0  0
 22 23  1  0  0  0  0
 22 27  1  0  0  0  0
 22 28  1  0  0  0  0
 23 29  1  0  0  0  0
 23 30  1  0  0  0  0
 31 32  1  0  0  0  0
 31 36  1  0  0  0  0
 32 33  1  0  0  0  0
 32 35  1  0  0  0  0
 32 37  1  0  0  0  0
 33 34  2  0  0  0  0
 33 41  1  0  0  0  0
 35 38  1  0  0  0  0
 35 39  1  0  0  0  0
 35 40  1  0  0  0  0
 41 42  1  0  0  0  0
 41 43  1  0  0  0  0
 42 44  1  0  0  0  0
 42 45  1  0  0  0  0
 42 46  1  0  0  0  0
M  END
$$$$

  -OEChem-05262217223D

 46 46  0     1  0  0  0  0  0999 V2000
   -0.8593    0.2316    3.1806 C   0  0  0  0  0  0  0  0  0  0  0  0
   -1.4169   -0.7851    2.7936 O   0  0  0  0  0  0  0  0  0  0  0  0
   -0.0221    0.1997    4.4451 C   0  0  0  0  0  0  0  0  0  0  0  0
   -0.4175    0.9114    5.1737 H   0  0  0  0  0  0  0  0  0  0  0  0
   -0.0396   -0.8015    4.8847 H   0  0  0  0  0  0  0  0  0  0  0  0
    1.0123    0.4635    4.2114 H   0  0  0  0  0  0  0  0  0  0  0  0
   -0.9942    1.4130    2.4818 N   0  0  0  0  0  0  0  0  0  0  0  0
   -1.5863    1.5027    1.1413 C   0  0  2  0  0  0  0  0  0  0  0  0
   -0.8551    2.5465    0.2563 C   0  0  0  0  0  0  0  0  0  0  0  0
   -0.8763    3.7138    0.6400 O   0  0  0  0  0  0  0  0  0  0  0  0
   -3.0651    1.8712    1.3049 C   0  0  0  0  0  0  0  0  0  0  0  0
   -0.4530    2.2101    2.8079 H   0  0  0  0  0  0  0  0  0  0  0  0
   -1.5507    0.5322    0.6426 H   0  0  0  0  0  0  0  0  0  0  0  0
   -3.1705    2.8273    1.8274 H   0  0  0  0  0  0  0  0  0  0  0  0
   -3.5467    1.9538    0.3261 H   0  0  0  0  0  0  0  0  0  0  0  0
   -3.5845    1.0999    1.8824 H   0  0  0  0  0  0  0  0  0  0  0  0
   -0.1698    2.2686   -0.9359 N   0  0  0  0  0  0  0  0  0  0  0  0
   -0.0109    0.9438   -1.5651 C   0  0  2  0  0  0  0  0  0  0  0  0
    0.7161   -0.1702   -0.7588 C   0  0  0  0  0  0  0  0  0  0  0  0
    0.8247   -0.1131    0.4558 O   0  0  0  0  0  0  0  0  0  0  0  0
    0.7648    1.2711   -2.8535 C   0  0  0  0  0  0  0  0  0  0  0  0
    0.4460    2.7230   -3.1683 C   0  0  0  0  0  0  0  0  0  0  0  0
    0.2519    3.3638   -1.8033 C   0  0  0  0  0  0  0  0  0  0  0  0
   -1.0026    0.5642   -1.8285 H   0  0  0  0  0  0  0  0  0  0  0  0
    0.4849    0.6087   -3.6788 H   0  0  0  0  0  0  0  0  0  0  0  0
    1.8438    1.1808   -2.6831 H   0  0  0  0  0  0  0  0  0  0  0  0
    1.2427    3.2092   -3.7401 H   0  0  0  0  0  0  0  0  0  0  0  0
   -0.4846    2.7849   -3.7419 H   0  0  0  0  0  0  0  0  0  0  0  0
    1.1924    3.7894   -1.4368 H   0  0  0  0  0  0  0  0  0  0  0  0
   -0.4950    4.1637   -1.8626 H   0  0  0  0  0  0  0  0  0  0  0  0
    1.4273   -1.1561   -1.4279 N   0  0  0  0  0  0  0  0  0  0  0  0
    2.2382   -2.2377   -0.8289 C   0  0  2  0  0  0  0  0  0  0  0  0
    1.4287   -3.2895   -0.0334 C   0  0  0  0  0  0  0  0  0  0  0  0
    1.5520   -4.4723   -0.3241 O   0  0  0  0  0  0  0  0  0  0  0  0
    3.3965   -1.6810    0.0116 C   0  0  0  0  0  0  0  0  0  0  0  0
    1.3183   -1.1719   -2.4374 H   0  0  0  0  0  0  0  0  0  0  0  0
    2.6946   -2.7799   -1.6636 H   0  0  0  0  0  0  0  0  0  0  0  0
    3.0377   -1.2469    0.9492 H   0  0  0  0  0  0  0  0  0  0  0  0
    4.0976   -2.4845    0.2585 H   0  0  0  0  0  0  0  0  0  0  0  0
    3.9350   -0.9094   -0.5467 H   0  0  0  0  0  0  0  0  0  0  0  0
    0.5561   -2.9308    0.9756 N   0  0  0  0  0  0  0  0  0  0  0  0
   -0.2571   -3.8801    1.7237 C   0  0  0  0  0  0  0  0  0  0  0  0
    0.4467   -1.9303    1.1637 H   0  0  0  0  0  0  0  0  0  0  0  0
   -0.7963   -3.3677    2.5258 H   0  0  0  0  0  0  0  0  0  0  0  0
   -0.9890   -4.3590    1.0657 H   0  0  0  0  0  0  0  0  0  0  0  0
    0.3734   -4.6532    2.1747 H   0  0  0  0  0  0  0  0  0  0  0  0
  1  2  2  0  0  0  0
  1  3  1  0  0  0  0
  1  7  1  0  0  0  0
  3  4  1  0  0  0  0
  3  5  1  0  0  0  0
  3  6  1  0  0  0  0
  7  8  1  0  0  0  0
  7 12  1  0  0  0  0
  8  9  1  0  0  0  0
  8 11  1  0  0  0  0
  8 13  1  0  0  0  0
  9 10  2  0  0  0  0
  9 17  1  0  0  0  0
 11 14  1  0  0  0  0
 11 15  1  0  0  0  0
 11 16  1  0  0  0  0
 17 18  1  0  0  0  0
 17 23  1  0  0  0  0
 18 19  1  0  0  0  0
 18 21  1  0  0  0  0
 18 24  1  0  0  0  0
 19 20  2  0  0  0  0
 19 31  1  0  0  0  0
 21 22  1  0  0  0  0
 21 25  1  0  0  0  0
 21 26  1  0  0  0  0
 22 23  1  0  0  0  0
 22 27  1  0  0  0  0
 22 28  1  0  0  0  0
 23 29  1  0  0  0  0
 23 30  1  0  0  0  0
 31 32  1  0  0  0  0
 31 36  1  0  0  0  0
 32 33  1  0  0  0  0
 32 35  1  0  0  0  0
 32 37  1  0  0  0  0
 33 34  2  0  0  0  0
 33 41  1  0  0  0  0
 35 38  1  0  0  0  0
 35 39  1  0  0  0  0
 35 40  1  0  0  0  0
 41 42  1  0  0  0  0
 41 43  1  0  0  0  0
 42 44  1  0  0  0  0
 42 45  1  0  0  0  0
 42 46  1  0  0  0  0
M  END
$$$$

  -OEChem-05262217223D

 46 46  0     1  0  0  0  0  0999 V2000
   -0.9484    1.1295    3.7536 C   0  0  0  0  0  0  0  0  0  0  0  0
   -2.0096    1.5059    4.2252 O   0  0  0  0  0  0  0  0  0  0  0  0
    0.0272    0.3492    4.6143 C   0  0  0  0  0  0  0  0  0  0  0  0
   -0.4038    0.1662    5.6026 H   0  0  0  0  0  0  0  0  0  0  0  0
    0.2543   -0.6110    4.1447 H   0  0  0  0  0  0  0  0  0  0  0  0
    0.9534    0.9166    4.7333 H   0  0  0  0  0  0  0  0  0  0  0  0
   -0.6414    1.3628    2.4303 N   0  0  0  0  0  0  0  0  0  0  0  0
   -1.5516    1.9735    1.4554 C   0  0  2  0  0  0  0  0  0  0  0  0
   -0.8507    2.8284    0.3602 C   0  0  0  0  0  0  0  0  0  0  0  0
   -0.8791    4.0382    0.5670 O   0  0  0  0  0  0  0  0  0  0  0  0
   -2.5062    0.9134    0.8907 C   0  0  0  0  0  0  0  0  0  0  0  0
    0.1686    0.8640    2.0598 H   0  0  0  0  0  0  0  0  0  0  0  0
   -2.1826    2.6871    1.9990 H   0  0  0  0  0  0  0  0  0  0  0  0
   -3.1434    1.3514    0.1166 H   0  0  0  0  0  0  0  0  0  0  0  0
   -1.9656    0.0668    0.4653 H   0  0  0  0  0  0  0  0  0  0  0  0
   -3.1507    0.5342    1.6902 H   0  0  0  0  0  0  0  0  0  0  0  0
   -0.2074    2.4179   -0.8288 N   0  0  0  0  0  0  0  0  0  0  0  0
   -0.0046    1.0575   -1.3837 C   0  0  2  0  0  0  0  0  0  0  0  0
    0.7967   -0.0095   -0.5802 C   0  0  0  0  0  0  0  0  0  0  0  0
    0.5948   -0.2136    0.6049 O   0  0  0  0  0  0  0  0  0  0  0  0
    0.6600    1.3237   -2.7491 C   0  0  0  0  0  0  0  0  0  0  0  0
    0.2360    2.7206   -3.1490 C   0  0  0  0  0  0  0  0  0  0  0  0
    0.1023    3.4484   -1.8245 C   0  0  0  0  0  0  0  0  0  0  0  0
   -0.9920    0.6265   -1.5708 H   0  0  0  0  0  0  0  0  0  0  0  0
    0.3649    0.5817   -3.4982 H   0  0  0  0  0  0  0  0  0  0  0  0
    1.7517    1.3188   -2.6593 H   0  0  0  0  0  0  0  0  0  0  0  0
    0.9600    3.2031   -3.8138 H   0  0  0  0  0  0  0  0  0  0  0  0
   -0.7354    2.6875   -3.6533 H   0  0  0  0  0  0  0  0  0  0  0  0
    1.0423    3.9460   -1.5620 H   0  0  0  0  0  0  0  0  0  0  0  0
   -0.6824    4.2096   -1.9052 H   0  0  0  0  0  0  0  0  0  0  0  0
    1.7538   -0.7990   -1.2054 N   0  0  0  0  0  0  0  0  0  0  0  0
    2.5743   -1.8758   -0.6082 C   0  0  2  0  0  0  0  0  0  0  0  0
    1.7793   -3.1372   -0.1981 C   0  0  0  0  0  0  0  0  0  0  0  0
    2.1160   -4.2287   -0.6357 O   0  0  0  0  0  0  0  0  0  0  0  0
    3.4299   -1.3599    0.5581 C   0  0  0  0  0  0  0  0  0  0  0  0
    1.8754   -0.6362   -2.2009 H   0  0  0  0  0  0  0  0  0  0  0  0
    3.2734   -2.2020   -1.3855 H   0  0  0  0  0  0  0  0  0  0  0  0
    2.8168   -1.1253    1.4328 H   0  0  0  0  0  0  0  0  0  0  0  0
    4.1579   -2.1228    0.8514 H   0  0  0  0  0  0  0  0  0  0  0  0
    3.9741   -0.4584    0.2612 H   0  0  0  0  0  0  0  0  0  0  0  0
    0.6786   -3.0520    0.6309 N   0  0  0  0  0  0  0  0  0  0  0  0
   -0.1404   -4.1916    1.0199 C   0  0  0  0  0  0  0  0  0  0  0  0
    0.4179   -2.1138    0.9412 H   0  0  0  0  0  0  0  0  0  0  0  0
   -0.9360   -3.8706    1.6991 H   0  0  0  0  0  0  0  0  0  0  0  0
   -0.6003   -4.6504    0.1386 H   0  0  0  0  0  0  0  0  0  0  0  0
    0.4685   -4.9436    1.5322 H   0  0  0  0  0  0  0  0  0  0  0  0
  1  2  2  0  0  0  0
  1  3  1  0  0  0  0
  1  7  1  0  0  0  0
  3  4  1  0  0  0  0
  3  5  1  0  0  0  0
  3  6  1  0  0  0  0
  7  8  1  0  0  0  0
  7 12  1  0  0  0  0
  8  9  1  0  0  0  0
  8 11  1  0  0  0  0
  8 13  1  0  0  0  0
  9 10  2  0  0  0  0
  9 17  1  0  0  0  0
 11 14  1  0  0  0  0
 11 15  1  0  0  0  0
 11 16  1  0  0  0  0
 17 18  1  0  0  0  0
 17 23  1  0  0  0  0
 18 19  1  0  0  0  0
 18 21  1  0  0  0  0
 18 24  1  0  0  0  0
 19 20  2  0  0  0  0
 19 31  1  0  0  0  0
 21 22  1  0  0  0  0
 21 25  1  0  0  0  0
 21 26  1  0  0  0  0
 22 23  1  0  0  0  0
 22 27  1  0  0  0  0
 22 28  1  0  0  0  0
 23 29  1  0  0  0  0
 23 30  1  0  0  0  0
 31 32  1  0  0  0  0
 31 36  1  0  0  0  0
 32 33  1  0  0  0  0
 32 35  1  0  0  0  0
 32 37  1  0  0  0  0
 33 34  2  0  0  0  0
 33 41  1  0  0  0  0
 35 38  1  0  0  0  0
 35 39  1  0  0  0  0
 35 40  1  0  0  0  0
 41 42  1  0  0  0  0
 41 43  1  0  0  0  0
 42 44  1  0  0  0  0
 42 45  1  0  0  0  0
 42 46  1  0  0  0  0
M  END
$$$$

  -OEChem-05262217223D

 46 46  0     1  0  0  0  0  0999 V2000
   -0.9787    0.4695    3.2439 C   0  0  0  0  0  0  0  0  0  0  0  0
   -1.7412   -0.4629    3.0379 O   0  0  0  0  0  0  0  0  0  0  0  0
   -0.0501    0.4346    4.4431 C   0  0  0  0  0  0  0  0  0  0  0  0
   -0.2209    1.3099    5.0743 H   0  0  0  0  0  0  0  0  0  0  0  0
   -0.2320   -0.4673    5.0341 H   0  0  0  0  0  0  0  0  0  0  0  0
    0.9895    0.4323    4.1068 H   0  0  0  0  0  0  0  0  0  0  0  0
   -0.9596    1.5661    2.4060 N   0  0  0  0  0  0  0  0  0  0  0  0
   -1.6782    1.6362    1.1267 C   0  0  2  0  0  0  0  0  0  0  0  0
   -0.9933    2.6032    0.1252 C   0  0  0  0  0  0  0  0  0  0  0  0
   -1.0915    3.8049    0.3635 O   0  0  0  0  0  0  0  0  0  0  0  0
   -3.1186    2.0827    1.4184 C   0  0  0  0  0  0  0  0  0  0  0  0
   -0.2978    2.3066    2.6207 H   0  0  0  0  0  0  0  0  0  0  0  0
   -1.7399    0.6488    0.6642 H   0  0  0  0  0  0  0  0  0  0  0  0
   -3.1289    3.0473    1.9357 H   0  0  0  0  0  0  0  0  0  0  0  0
   -3.6825    2.1816    0.4861 H   0  0  0  0  0  0  0  0  0  0  0  0
   -3.6247    1.3461    2.0500 H   0  0  0  0  0  0  0  0  0  0  0  0
   -0.2349    2.2431   -1.0017 N   0  0  0  0  0  0  0  0  0  0  0  0
    0.0853    0.8825   -1.4823 C   0  0  2  0  0  0  0  0  0  0  0  0
    0.8847   -0.0607   -0.5359 C   0  0  0  0  0  0  0  0  0  0  0  0
    0.4317   -0.3909    0.5442 O   0  0  0  0  0  0  0  0  0  0  0  0
    0.8168    1.1420   -2.8136 C   0  0  0  0  0  0  0  0  0  0  0  0
    0.3256    2.4967   -3.2899 C   0  0  0  0  0  0  0  0  0  0  0  0
    0.0601    3.2645   -2.0052 C   0  0  0  0  0  0  0  0  0  0  0  0
   -0.8580    0.3723   -1.7029 H   0  0  0  0  0  0  0  0  0  0  0  0
    0.6176    0.3537   -3.5471 H   0  0  0  0  0  0  0  0  0  0  0  0
    1.8982    1.2166   -2.6638 H   0  0  0  0  0  0  0  0  0  0  0  0
    1.0559    3.0042   -3.9278 H   0  0  0  0  0  0  0  0  0  0  0  0
   -0.6074    2.3799   -3.8513 H   0  0  0  0  0  0  0  0  0  0  0  0
    0.9449    3.8367   -1.7055 H   0  0  0  0  0  0  0  0  0  0  0  0
   -0.7726    3.9620   -2.1530 H   0  0  0  0  0  0  0  0  0  0  0  0
    2.1199   -0.5861   -0.8928 N   0  0  0  0  0  0  0  0  0  0  0  0
    2.9633   -1.5093   -0.1016 C   0  0  2  0  0  0  0  0  0  0  0  0
    2.3610   -2.9206    0.1051 C   0  0  0  0  0  0  0  0  0  0  0  0
    2.9576   -3.8942   -0.3359 O   0  0  0  0  0  0  0  0  0  0  0  0
    3.3797   -0.8830    1.2380 C   0  0  0  0  0  0  0  0  0  0  0  0
    2.4531   -0.3445   -1.8208 H   0  0  0  0  0  0  0  0  0  0  0  0
    3.8851   -1.6583   -0.6739 H   0  0  0  0  0  0  0  0  0  0  0  0
    2.5312   -0.8016    1.9233 H   0  0  0  0  0  0  0  0  0  0  0  0
    4.1437   -1.5027    1.7179 H   0  0  0  0  0  0  0  0  0  0  0  0
    3.7951    0.1161    1.0776 H   0  0  0  0  0  0  0  0  0  0  0  0
    1.1560   -3.1044    0.7546 N   0  0  0  0  0  0  0  0  0  0  0  0
    0.4953   -4.3936    0.8991 C   0  0  0  0  0  0  0  0  0  0  0  0
    0.6469   -2.2534    1.0111 H   0  0  0  0  0  0  0  0  0  0  0  0
   -0.4314   -4.2786    1.4698 H   0  0  0  0  0  0  0  0  0  0  0  0
    0.2492   -4.8100   -0.0832 H   0  0  0  0  0  0  0  0  0  0  0  0
    1.1428   -5.0991    1.4303 H   0  0  0  0  0  0  0  0  0  0  0  0
  1  2  2  0  0  0  0
  1  3  1  0  0  0  0
  1  7  1  0  0  0  0
  3  4  1  0  0  0  0
  3  5  1  0  0  0  0
  3  6  1  0  0  0  0
  7  8  1  0  0  0  0
  7 12  1  0  0  0  0
  8  9  1  0  0  0  0
  8 11  1  0  0  0  0
  8 13  1  0  0  0  0
  9 10  2  0  0  0  0
  9 17  1  0  0  0  0
 11 14  1  0  0  0  0
 11 15  1  0  0  0  0
 11 16  1  0  0  0  0
 17 18  1  0  0  0  0
 17 23  1  0  0  0  0
 18 19  1  0  0  0  0
 18 21  1  0  0  0  0
 18 24  1  0  0  0  0
 19 20  2  0  0  0  0
 19 31  1  0  0  0  0
 21 22  1  0  0  0  0
 21 25  1  0  0  0  0
 21 26  1  0  0  0  0
 22 23  1  0  0  0  0
 22 27  1  0  0  0  0
 22 28  1  0  0  0  0
 23 29  1  0  0  0  0
 23 30  1  0  0  0  0
 31 32  1  0  0  0  0
 31 36  1  0  0  0  0
 32 33  1  0  0  0  0
 32 35  1  0  0  0  0
 32 37  1  0  0  0  0
 33 34  2  0  0  0  0
 33 41  1  0  0  0  0
 35 38  1  0  0  0  0
 35 39  1  0  0  0  0
 35 40  1  0  0  0  0
 41 42  1  0  0  0  0
 41 43  1  0  0  0  0
 42 44  1  0  0  0  0
 42 45  1  0  0  0  0
 42 46  1  0  0  0  0
M  END
$$$$

  -OEChem-05262217223D

 46 46  0     1  0  0  0  0  0999 V2000
   -1.7909    1.6142    3.9794 C   0  0  0  0  0  0  0  0  0  0  0  0
   -1.5214    0.4385    4.1647 O   0  0  0  0  0  0  0  0  0  0  0  0
   -2.1453    2.5057    5.1545 C   0  0  0  0  0  0  0  0  0  0  0  0
   -3.1504    2.9136    5.0221 H   0  0  0  0  0  0  0  0  0  0  0  0
   -2.1166    1.9328    6.0856 H   0  0  0  0  0  0  0  0  0  0  0  0
   -1.4315    3.3300    5.2252 H   0  0  0  0  0  0  0  0  0  0  0  0
   -1.7730    2.1459    2.7077 N   0  0  0  0  0  0  0  0  0  0  0  0
   -1.2773    1.4476    1.5109 C   0  0  2  0  0  0  0  0  0  0  0  0
   -0.6771    2.4569    0.4891 C   0  0  0  0  0  0  0  0  0  0  0  0
   -0.8239    3.6516    0.7516 O   0  0  0  0  0  0  0  0  0  0  0  0
   -2.4615    0.6619    0.9325 C   0  0  0  0  0  0  0  0  0  0  0  0
   -1.8727    3.1575    2.6278 H   0  0  0  0  0  0  0  0  0  0  0  0
   -0.4860    0.7627    1.8196 H   0  0  0  0  0  0  0  0  0  0  0  0
   -3.2261    1.3469    0.5532 H   0  0  0  0  0  0  0  0  0  0  0  0
   -2.1422    0.0063    0.1213 H   0  0  0  0  0  0  0  0  0  0  0  0
   -2.9113    0.0328    1.7073 H   0  0  0  0  0  0  0  0  0  0  0  0
   -0.0186    2.1555   -0.7160 N   0  0  0  0  0  0  0  0  0  0  0  0
    0.2546    0.8233   -1.2897 C   0  0  2  0  0  0  0  0  0  0  0  0
    1.1192   -0.1429   -0.4405 C   0  0  0  0  0  0  0  0  0  0  0  0
    0.5553   -0.8455    0.3836 O   0  0  0  0  0  0  0  0  0  0  0  0
    0.8768    1.1396   -2.6636 C   0  0  0  0  0  0  0  0  0  0  0  0
    0.3542    2.5165   -3.0307 C   0  0  0  0  0  0  0  0  0  0  0  0
    0.2004    3.2222   -1.6929 C   0  0  0  0  0  0  0  0  0  0  0  0
   -0.6991    0.3221   -1.4742 H   0  0  0  0  0  0  0  0  0  0  0  0
    0.6077    0.3870   -3.4120 H   0  0  0  0  0  0  0  0  0  0  0  0
    1.9670    1.2000   -2.6120 H   0  0  0  0  0  0  0  0  0  0  0  0
    1.0295    3.0533   -3.7046 H   0  0  0  0  0  0  0  0  0  0  0  0
   -0.6241    2.4271   -3.5146 H   0  0  0  0  0  0  0  0  0  0  0  0
    1.1113    3.7759   -1.4414 H   0  0  0  0  0  0  0  0  0  0  0  0
   -0.6357    3.9294   -1.7404 H   0  0  0  0  0  0  0  0  0  0  0  0
    2.4478   -0.4141   -0.7360 N   0  0  0  0  0  0  0  0  0  0  0  0
    3.3445   -1.3618   -0.0406 C   0  0  2  0  0  0  0  0  0  0  0  0
    3.0037   -2.8554   -0.2553 C   0  0  0  0  0  0  0  0  0  0  0  0
    3.8286   -3.5891   -0.7841 O   0  0  0  0  0  0  0  0  0  0  0  0
    3.4556   -1.0282    1.4548 C   0  0  0  0  0  0  0  0  0  0  0  0
    2.8619    0.1502   -1.4713 H   0  0  0  0  0  0  0  0  0  0  0  0
    4.3429   -1.2190   -0.4670 H   0  0  0  0  0  0  0  0  0  0  0  0
    2.5198   -1.2355    1.9821 H   0  0  0  0  0  0  0  0  0  0  0  0
    4.2444   -1.6321    1.9143 H   0  0  0  0  0  0  0  0  0  0  0  0
    3.7052    0.0281    1.5916 H   0  0  0  0  0  0  0  0  0  0  0  0
    1.7844   -3.3761    0.1286 N   0  0  0  0  0  0  0  0  0  0  0  0
    1.3892   -4.7632   -0.0687 C   0  0  0  0  0  0  0  0  0  0  0  0
    1.1001   -2.7029    0.4837 H   0  0  0  0  0  0  0  0  0  0  0  0
    1.3454   -5.0009   -1.1364 H   0  0  0  0  0  0  0  0  0  0  0  0
    2.1041   -5.4371    0.4148 H   0  0  0  0  0  0  0  0  0  0  0  0
    0.4014   -4.9384    0.3676 H   0  0  0  0  0  0  0  0  0  0  0  0
  1  2  2  0  0  0  0
  1  3  1  0  0  0  0
  1  7  1  0  0  0  0
  3  4  1  0  0  0  0
  3  5  1  0  0  0  0
  3  6  1  0  0  0  0
  7  8  1  0  0  0  0
  7 12  1  0  0  0  0
  8  9  1  0  0  0  0
  8 11  1  0  0  0  0
  8 13  1  0  0  0  0
  9 10  2  0  0  0  0
  9 17  1  0  0  0  0
 11 14  1  0  0  0  0
 11 15  1  0  0  0  0
 11 16  1  0  0  0  0
 17 18  1  0  0  0  0
 17 23  1  0  0  0  0
 18 19  1  0  0  0  0
 18 21  1  0  0  0  0
 18 24  1  0  0  0  0
 19 20  2  0  0  0  0
 19 31  1  0  0  0  0
 21 22  1  0  0  0  0
 21 25  1  0  0  0  0
 21 26  1  0  0  0  0
 22 23  1  0  0  0  0
 22 27  1  0  0  0  0
 22 28  1  0  0  0  0
 23 29  1  0  0  0  0
 23 30  1  0  0  0  0
 31 32  1  0  0  0  0
 31 36  1  0  0  0  0
 32 33  1  0  0  0  0
 32 35  1  0  0  0  0
 32 37  1  0  0  0  0
 33 34  2  0  0  0  0
 33 41  1  0  0  0  0
 35 38  1  0  0  0  0
 35 39  1  0  0  0  0
 35 40  1  0  0  0  0
 41 42  1  0  0  0  0
 41 43  1  0  0  0  0
 42 44  1  0  0  0  0
 42 45  1  0  0  0  0
 42 46  1  0  0  0  0
M  END
$$$$

  -OEChem-05262217223D

 46 46  0     1  0  0  0  0  0999 V2000
   -1.7564    1.6670    3.8951 C   0  0  0  0  0  0  0  0  0  0  0  0
   -1.4079    0.5105    4.0679 O   0  0  0  0  0  0  0  0  0  0  0  0
   -2.0491    2.5549    5.0901 C   0  0  0  0  0  0  0  0  0  0  0  0
   -3.1069    2.8283    5.0999 H   0  0  0  0  0  0  0  0  0  0  0  0
   -1.8112    2.0284    6.0186 H   0  0  0  0  0  0  0  0  0  0  0  0
   -1.4455    3.4643    5.0382 H   0  0  0  0  0  0  0  0  0  0  0  0
   -1.8776    2.1804    2.6209 N   0  0  0  0  0  0  0  0  0  0  0  0
   -1.4189    1.4997    1.3993 C   0  0  2  0  0  0  0  0  0  0  0  0
   -0.7326    2.5007    0.4290 C   0  0  0  0  0  0  0  0  0  0  0  0
   -0.8818    3.6987    0.6698 O   0  0  0  0  0  0  0  0  0  0  0  0
   -2.6492    0.8387    0.7690 C   0  0  0  0  0  0  0  0  0  0  0  0
   -2.0159    3.1876    2.5462 H   0  0  0  0  0  0  0  0  0  0  0  0
   -0.6884    0.7370    1.6733 H   0  0  0  0  0  0  0  0  0  0  0  0
   -3.3680    1.5979    0.4459 H   0  0  0  0  0  0  0  0  0  0  0  0
   -2.3709    0.2307   -0.0937 H   0  0  0  0  0  0  0  0  0  0  0  0
   -3.1370    0.1836    1.4977 H   0  0  0  0  0  0  0  0  0  0  0  0
    0.0054    2.1679   -0.7174 N   0  0  0  0  0  0  0  0  0  0  0  0
    0.2789    0.8163   -1.2349 C   0  0  2  0  0  0  0  0  0  0  0  0
    1.0467   -0.1341   -0.2871 C   0  0  0  0  0  0  0  0  0  0  0  0
    0.3999   -0.9737    0.3214 O   0  0  0  0  0  0  0  0  0  0  0  0
    1.0217    1.0716   -2.5583 C   0  0  0  0  0  0  0  0  0  0  0  0
    0.5754    2.4560   -2.9971 C   0  0  0  0  0  0  0  0  0  0  0  0
    0.3353    3.2045   -1.6939 C   0  0  0  0  0  0  0  0  0  0  0  0
   -0.6724    0.3361   -1.4796 H   0  0  0  0  0  0  0  0  0  0  0  0
    0.7834    0.3087   -3.3069 H   0  0  0  0  0  0  0  0  0  0  0  0
    2.1062    1.0869   -2.4209 H   0  0  0  0  0  0  0  0  0  0  0  0
    1.3210    2.9528   -3.6260 H   0  0  0  0  0  0  0  0  0  0  0  0
   -0.3622    2.3833   -3.5581 H   0  0  0  0  0  0  0  0  0  0  0  0
    1.2385    3.7389   -1.3810 H   0  0  0  0  0  0  0  0  0  0  0  0
   -0.4729    3.9330   -1.8251 H   0  0  0  0  0  0  0  0  0  0  0  0
    2.4313   -0.2099   -0.2753 N   0  0  0  0  0  0  0  0  0  0  0  0
    3.2676   -1.1182    0.5368 C   0  0  2  0  0  0  0  0  0  0  0  0
    3.1798   -2.6078    0.1290 C   0  0  0  0  0  0  0  0  0  0  0  0
    4.1736   -3.1695   -0.3134 O   0  0  0  0  0  0  0  0  0  0  0  0
    2.9934   -0.9308    2.0370 C   0  0  0  0  0  0  0  0  0  0  0  0
    2.9159    0.4967   -0.8205 H   0  0  0  0  0  0  0  0  0  0  0  0
    4.3087   -0.8227    0.3699 H   0  0  0  0  0  0  0  0  0  0  0  0
    1.9969   -1.2894    2.3111 H   0  0  0  0  0  0  0  0  0  0  0  0
    3.7285   -1.4903    2.6240 H   0  0  0  0  0  0  0  0  0  0  0  0
    3.0674    0.1266    2.3082 H   0  0  0  0  0  0  0  0  0  0  0  0
    1.9928   -3.3062    0.2233 N   0  0  0  0  0  0  0  0  0  0  0  0
    1.8123   -4.6717   -0.2487 C   0  0  0  0  0  0  0  0  0  0  0  0
    1.1690   -2.7499    0.4672 H   0  0  0  0  0  0  0  0  0  0  0  0
    1.8951   -4.7127   -1.3395 H   0  0  0  0  0  0  0  0  0  0  0  0
    2.5679   -5.3331    0.1880 H   0  0  0  0  0  0  0  0  0  0  0  0
    0.8241   -5.0421    0.0409 H   0  0  0  0  0  0  0  0  0  0  0  0
  1  2  2  0  0  0  0
  1  3  1  0  0  0  0
  1  7  1  0  0  0  0
  3  4  1  0  0  0  0
  3  5  1  0  0  0  0
  3  6  1  0  0  0  0
  7  8  1  0  0  0  0
  7 12  1  0  0  0  0
  8  9  1  0  0  0  0
  8 11  1  0  0  0  0
  8 13  1  0  0  0  0
  9 10  2  0  0  0  0
  9 17  1  0  0  0  0
 11 14  1  0  0  0  0
 11 15  1  0  0  0  0
 11 16  1  0  0  0  0
 17 18  1  0  0  0  0
 17 23  1  0  0  0  0
 18 19  1  0  0  0  0
 18 21  1  0  0  0  0
 18 24  1  0  0  0  0
 19 20  2  0  0  0  0
 19 31  1  0  0  0  0
 21 22  1  0  0  0  0
 21 25  1  0  0  0  0
 21 26  1  0  0  0  0
 22 23  1  0  0  0  0
 22 27  1  0  0  0  0
 22 28  1  0  0  0  0
 23 29  1  0  0  0  0
 23 30  1  0  0  0  0
 31 32  1  0  0  0  0
 31 36  1  0  0  0  0
 32 33  1  0  0  0  0
 32 35  1  0  0  0  0
 32 37  1  0  0  0  0
 33 34  2  0  0  0  0
 33 41  1  0  0  0  0
 35 38  1  0  0  0  0
 35 39  1  0  0  0  0
 35 40  1  0  0  0  0
 41 42  1  0  0  0  0
 41 43  1  0  0  0  0
 42 44  1  0  0  0  0
 42 45  1  0  0  0  0
 42 46  1  0  0  0  0
M  END
$$$$

  -OEChem-05262217223D

 46 46  0     1  0  0  0  0  0999 V2000
   -1.2830    1.8683    3.6237 C   0  0  0  0  0  0  0  0  0  0  0  0
   -0.2603    1.2015    3.5887 O   0  0  0  0  0  0  0  0  0  0  0  0
   -1.6219    2.6657    4.8690 C   0  0  0  0  0  0  0  0  0  0  0  0
   -2.6137    2.3873    5.2330 H   0  0  0  0  0  0  0  0  0  0  0  0
   -0.8897    2.4652    5.6562 H   0  0  0  0  0  0  0  0  0  0  0  0
   -1.6104    3.7344    4.6411 H   0  0  0  0  0  0  0  0  0  0  0  0
   -2.1132    1.9343    2.5229 N   0  0  0  0  0  0  0  0  0  0  0  0
   -1.7027    1.4287    1.2036 C   0  0  2  0  0  0  0  0  0  0  0  0
   -0.8776    2.4758    0.4077 C   0  0  0  0  0  0  0  0  0  0  0  0
   -1.0773    3.6627    0.6603 O   0  0  0  0  0  0  0  0  0  0  0  0
   -2.9756    1.0467    0.4445 C   0  0  0  0  0  0  0  0  0  0  0  0
   -2.7882    2.6939    2.5339 H   0  0  0  0  0  0  0  0  0  0  0  0
   -1.1071    0.5277    1.3467 H   0  0  0  0  0  0  0  0  0  0  0  0
   -3.6008    1.9292    0.2747 H   0  0  0  0  0  0  0  0  0  0  0  0
   -2.7282    0.6036   -0.5241 H   0  0  0  0  0  0  0  0  0  0  0  0
   -3.5517    0.3138    1.0184 H   0  0  0  0  0  0  0  0  0  0  0  0
    0.0010    2.1766   -0.6426 N   0  0  0  0  0  0  0  0  0  0  0  0
    0.2975    0.8379   -1.1756 C   0  0  2  0  0  0  0  0  0  0  0  0
    0.8981   -0.1755   -0.1774 C   0  0  0  0  0  0  0  0  0  0  0  0
    0.2286   -1.1574    0.1155 O   0  0  0  0  0  0  0  0  0  0  0  0
    1.2376    1.1122   -2.3607 C   0  0  0  0  0  0  0  0  0  0  0  0
    0.9121    2.5329   -2.7946 C   0  0  0  0  0  0  0  0  0  0  0  0
    0.5074    3.2395   -1.5073 C   0  0  0  0  0  0  0  0  0  0  0  0
   -0.6288    0.4064   -1.5675 H   0  0  0  0  0  0  0  0  0  0  0  0
    1.0832    0.3927   -3.1715 H   0  0  0  0  0  0  0  0  0  0  0  0
    2.2889    1.0656   -2.0616 H   0  0  0  0  0  0  0  0  0  0  0  0
    1.7611    3.0228   -3.2821 H   0  0  0  0  0  0  0  0  0  0  0  0
    0.0675    2.5240   -3.4916 H   0  0  0  0  0  0  0  0  0  0  0  0
    1.3722    3.7226   -1.0396 H   0  0  0  0  0  0  0  0  0  0  0  0
   -0.2476    4.0048   -1.7206 H   0  0  0  0  0  0  0  0  0  0  0  0
    2.2200   -0.0856    0.2286 N   0  0  0  0  0  0  0  0  0  0  0  0
    2.9264   -0.9836    1.1650 C   0  0  2  0  0  0  0  0  0  0  0  0
    3.1577   -2.4197    0.6383 C   0  0  0  0  0  0  0  0  0  0  0  0
    4.3012   -2.8215    0.4642 O   0  0  0  0  0  0  0  0  0  0  0  0
    2.2371   -0.9954    2.5367 C   0  0  0  0  0  0  0  0  0  0  0  0
    2.6950    0.7751   -0.0284 H   0  0  0  0  0  0  0  0  0  0  0  0
    3.9238   -0.5593    1.3194 H   0  0  0  0  0  0  0  0  0  0  0  0
    1.2399   -1.4415    2.4817 H   0  0  0  0  0  0  0  0  0  0  0  0
    2.8310   -1.5744    3.2505 H   0  0  0  0  0  0  0  0  0  0  0  0
    2.1384    0.0251    2.9189 H   0  0  0  0  0  0  0  0  0  0  0  0
    2.0981   -3.2519    0.3371 N   0  0  0  0  0  0  0  0  0  0  0  0
    2.2442   -4.5668   -0.2705 C   0  0  0  0  0  0  0  0  0  0  0  0
    1.1743   -2.8121    0.3583 H   0  0  0  0  0  0  0  0  0  0  0  0
    2.6373   -4.4760   -1.2880 H   0  0  0  0  0  0  0  0  0  0  0  0
    2.9273   -5.1885    0.3176 H   0  0  0  0  0  0  0  0  0  0  0  0
    1.2737   -5.0701   -0.3151 H   0  0  0  0  0  0  0  0  0  0  0  0
  1  2  2  0  0  0  0
  1  3  1  0  0  0  0
  1  7  1  0  0  0  0
  3  4  1  0  0  0  0
  3  5  1  0  0  0  0
  3  6  1  0  0  0  0
  7  8  1  0  0  0  0
  7 12  1  0  0  0  0
  8  9  1  0  0  0  0
  8 11  1  0  0  0  0
  8 13  1  0  0  0  0
  9 10  2  0  0  0  0
  9 17  1  0  0  0  0
 11 14  1  0  0  0  0
 11 15  1  0  0  0  0
 11 16  1  0  0  0  0
 17 18  1  0  0  0  0
 17 23  1  0  0  0  0
 18 19  1  0  0  0  0
 18 21  1  0  0  0  0
 18 24  1  0  0  0  0
 19 20  2  0  0  0  0
 19 31  1  0  0  0  0
 21 22  1  0  0  0  0
 21 25  1  0  0  0  0
 21 26  1  0  0  0  0
 22 23  1  0  0  0  0
 22 27  1  0  0  0  0
 22 28  1  0  0  0  0
 23 29  1  0  0  0  0
 23 30  1  0  0  0  0
 31 32  1  0  0  0  0
 31 36  1  0  0  0  0
 32 33  1  0  0  0  0
 32 35  1  0  0  0  0
 32 37  1  0  0  0  0
 33 34  2  0  0  0  0
 33 41  1  0  0  0  0
 35 38  1  0  0  0  0
 35 39  1  0  0  0  0
 35 40  1  0  0  0  0
 41 42  1  0  0  0  0
 41 43  1  0  0  0  0
 42 44  1  0  0  0  0
 42 45  1  0  0  0  0
 42 46  1  0  0  0  0
M  END
$$$$

  -OEChem-05262217223D

 46 46  0     1  0  0  0  0  0999 V2000
   -1.7575    1.7276    3.6569 C   0  0  0  0  0  0  0  0  0  0  0  0
   -1.1013    0.7054    3.7733 O   0  0  0  0  0  0  0  0  0  0  0  0
   -2.1076    2.5440    4.8866 C   0  0  0  0  0  0  0  0  0  0  0  0
   -3.1910    2.6676    4.9573 H   0  0  0  0  0  0  0  0  0  0  0  0
   -1.7517    2.0395    5.7892 H   0  0  0  0  0  0  0  0  0  0  0  0
   -1.6381    3.5288    4.8249 H   0  0  0  0  0  0  0  0  0  0  0  0
   -2.1635    2.1688    2.4144 N   0  0  0  0  0  0  0  0  0  0  0  0
   -1.6508    1.6270    1.1448 C   0  0  2  0  0  0  0  0  0  0  0  0
   -0.6711    2.6163    0.4570 C   0  0  0  0  0  0  0  0  0  0  0  0
   -0.7361    3.7998    0.7838 O   0  0  0  0  0  0  0  0  0  0  0  0
   -2.8705    1.3567    0.2603 C   0  0  0  0  0  0  0  0  0  0  0  0
   -2.5031    3.1278    2.3858 H   0  0  0  0  0  0  0  0  0  0  0  0
   -1.1353    0.6819    1.3252 H   0  0  0  0  0  0  0  0  0  0  0  0
   -3.4002    2.2893    0.0410 H   0  0  0  0  0  0  0  0  0  0  0  0
   -2.5723    0.8963   -0.6847 H   0  0  0  0  0  0  0  0  0  0  0  0
   -3.5591    0.6748    0.7692 H   0  0  0  0  0  0  0  0  0  0  0  0
    0.2344    2.2748   -0.5557 N   0  0  0  0  0  0  0  0  0  0  0  0
    0.4137    0.9369   -1.1378 C   0  0  2  0  0  0  0  0  0  0  0  0
    0.8361   -0.1641   -0.1468 C   0  0  0  0  0  0  0  0  0  0  0  0
    0.1486   -1.1723   -0.0651 O   0  0  0  0  0  0  0  0  0  0  0  0
    1.4782    1.1491   -2.2233 C   0  0  0  0  0  0  0  0  0  0  0  0
    1.3633    2.6190   -2.5997 C   0  0  0  0  0  0  0  0  0  0  0  0
    0.9338    3.3094   -1.3120 C   0  0  0  0  0  0  0  0  0  0  0  0
   -0.5187    0.6254   -1.6187 H   0  0  0  0  0  0  0  0  0  0  0  0
    1.3102    0.4948   -3.0846 H   0  0  0  0  0  0  0  0  0  0  0  0
    2.4840    0.9528   -1.8378 H   0  0  0  0  0  0  0  0  0  0  0  0
    2.3049    3.0222   -2.9856 H   0  0  0  0  0  0  0  0  0  0  0  0
    0.5896    2.7488   -3.3636 H   0  0  0  0  0  0  0  0  0  0  0  0
    1.8055    3.6603   -0.7497 H   0  0  0  0  0  0  0  0  0  0  0  0
    0.2929    4.1692   -1.5386 H   0  0  0  0  0  0  0  0  0  0  0  0
    2.0198   -0.0472    0.5634 N   0  0  0  0  0  0  0  0  0  0  0  0
    2.5604   -0.9936    1.5604 C   0  0  2  0  0  0  0  0  0  0  0  0
    2.9923   -2.3633    0.9868 C   0  0  0  0  0  0  0  0  0  0  0  0
    4.1594   -2.7187    1.0884 O   0  0  0  0  0  0  0  0  0  0  0  0
    1.5913   -1.1660    2.7373 C   0  0  0  0  0  0  0  0  0  0  0  0
    2.5067    0.8387    0.4548 H   0  0  0  0  0  0  0  0  0  0  0  0
    3.4701   -0.5401    1.9673 H   0  0  0  0  0  0  0  0  0  0  0  0
    0.6614   -1.6502    2.4257 H   0  0  0  0  0  0  0  0  0  0  0  0
    2.0510   -1.7821    3.5161 H   0  0  0  0  0  0  0  0  0  0  0  0
    1.3471   -0.1917    3.1700 H   0  0  0  0  0  0  0  0  0  0  0  0
    2.0928   -3.1849    0.3379 N   0  0  0  0  0  0  0  0  0  0  0  0
    2.4515   -4.4467   -0.2930 C   0  0  0  0  0  0  0  0  0  0  0  0
    1.1582   -2.7952    0.1892 H   0  0  0  0  0  0  0  0  0  0  0  0
    3.1990   -4.2833   -1.0760 H   0  0  0  0  0  0  0  0  0  0  0  0
    2.8605   -5.1426    0.4471 H   0  0  0  0  0  0  0  0  0  0  0  0
    1.5679   -4.9054   -0.7468 H   0  0  0  0  0  0  0  0  0  0  0  0
  1  2  2  0  0  0  0
  1  3  1  0  0  0  0
  1  7  1  0  0  0  0
  3  4  1  0  0  0  0
  3  5  1  0  0  0  0
  3  6  1  0  0  0  0
  7  8  1  0  0  0  0
  7 12  1  0  0  0  0
  8  9  1  0  0  0  0
  8 11  1  0  0  0  0
  8 13  1  0  0  0  0
  9 10  2  0  0  0  0
  9 17  1  0  0  0  0
 11 14  1  0  0  0  0
 11 15  1  0  0  0  0
 11 16  1  0  0  0  0
 17 18  1  0  0  0  0
 17 23  1  0  0  0  0
 18 19  1  0  0  0  0
 18 21  1  0  0  0  0
 18 24  1  0  0  0  0
 19 20  2  0  0  0  0
 19 31  1  0  0  0  0
 21 22  1  0  0  0  0
 21 25  1  0  0  0  0
 21 26  1  0  0  0  0
 22 23  1  0  0  0  0
 22 27  1  0  0  0  0
 22 28  1  0  0  0  0
 23 29  1  0  0  0  0
 23 30  1  0  0  0  0
 31 32  1  0  0  0  0
 31 36  1  0  0  0  0
 32 33  1  0  0  0  0
 32 35  1  0  0  0  0
 32 37  1  0  0  0  0
 33 34  2  0  0  0  0
 33 41  1  0  0  0  0
 35 38  1  0  0  0  0
 35 39  1  0  0  0  0
 35 40  1  0  0  0  0
 41 42  1  0  0  0  0
 41 43  1  0  0  0  0
 42 44  1  0  0  0  0
 42 45  1  0  0  0  0
 42 46  1  0  0  0  0
M  END
$$$$

  -OEChem-05262217223D

 46 46  0     1  0  0  0  0  0999 V2000
   -1.6134    1.6398    3.9399 C   0  0  0  0  0  0  0  0  0  0  0  0
   -1.4571    0.4299    3.9604 O   0  0  0  0  0  0  0  0  0  0  0  0
   -1.6948    2.4162    5.2404 C   0  0  0  0  0  0  0  0  0  0  0  0
   -2.6499    2.9439    5.3007 H   0  0  0  0  0  0  0  0  0  0  0  0
   -1.6145    1.7348    6.0921 H   0  0  0  0  0  0  0  0  0  0  0  0
   -0.8802    3.1427    5.2924 H   0  0  0  0  0  0  0  0  0  0  0  0
   -1.7047    2.3096    2.7382 N   0  0  0  0  0  0  0  0  0  0  0  0
   -1.4989    1.6943    1.4191 C   0  0  2  0  0  0  0  0  0  0  0  0
   -0.6923    2.6299    0.4786 C   0  0  0  0  0  0  0  0  0  0  0  0
   -0.6466    3.8246    0.7637 O   0  0  0  0  0  0  0  0  0  0  0  0
   -2.8839    1.3925    0.8393 C   0  0  0  0  0  0  0  0  0  0  0  0
   -1.6964    3.3283    2.7730 H   0  0  0  0  0  0  0  0  0  0  0  0
   -0.9500    0.7585    1.5390 H   0  0  0  0  0  0  0  0  0  0  0  0
   -3.4546    2.3176    0.7102 H   0  0  0  0  0  0  0  0  0  0  0  0
   -2.8023    0.8959   -0.1309 H   0  0  0  0  0  0  0  0  0  0  0  0
   -3.4375    0.7320    1.5146 H   0  0  0  0  0  0  0  0  0  0  0  0
   -0.0207    2.2134   -0.6771 N   0  0  0  0  0  0  0  0  0  0  0  0
    0.0326    0.8360   -1.1874 C   0  0  2  0  0  0  0  0  0  0  0  0
    0.6602   -0.1876   -0.2251 C   0  0  0  0  0  0  0  0  0  0  0  0
    0.1083   -1.2658   -0.0618 O   0  0  0  0  0  0  0  0  0  0  0  0
    0.8644    0.9555   -2.4699 C   0  0  0  0  0  0  0  0  0  0  0  0
    0.6863    2.3994   -2.9182 C   0  0  0  0  0  0  0  0  0  0  0  0
    0.5205    3.1839   -1.6232 C   0  0  0  0  0  0  0  0  0  0  0  0
   -0.9765    0.5012   -1.4455 H   0  0  0  0  0  0  0  0  0  0  0  0
    0.5308    0.2472   -3.2354 H   0  0  0  0  0  0  0  0  0  0  0  0
    1.9241    0.7658   -2.2668 H   0  0  0  0  0  0  0  0  0  0  0  0
    1.5354    2.7571   -3.5089 H   0  0  0  0  0  0  0  0  0  0  0  0
   -0.2222    2.4908   -3.5227 H   0  0  0  0  0  0  0  0  0  0  0  0
    1.4872    3.5584   -1.2694 H   0  0  0  0  0  0  0  0  0  0  0  0
   -0.1509    4.0364   -1.7770 H   0  0  0  0  0  0  0  0  0  0  0  0
    1.8324    0.1276    0.4418 N   0  0  0  0  0  0  0  0  0  0  0  0
    2.4927   -0.6597    1.5023 C   0  0  2  0  0  0  0  0  0  0  0  0
    3.0710   -2.0197    1.0447 C   0  0  0  0  0  0  0  0  0  0  0  0
    4.2741   -2.2253    1.1414 O   0  0  0  0  0  0  0  0  0  0  0  0
    1.5609   -0.8288    2.7106 C   0  0  0  0  0  0  0  0  0  0  0  0
    2.1965    1.0598    0.2608 H   0  0  0  0  0  0  0  0  0  0  0  0
    3.3507   -0.0726    1.8455 H   0  0  0  0  0  0  0  0  0  0  0  0
    0.6919   -1.4464    2.4645 H   0  0  0  0  0  0  0  0  0  0  0  0
    2.0970   -1.3098    3.5346 H   0  0  0  0  0  0  0  0  0  0  0  0
    1.2059    0.1469    3.0548 H   0  0  0  0  0  0  0  0  0  0  0  0
    2.2591   -3.0041    0.5183 N   0  0  0  0  0  0  0  0  0  0  0  0
    2.7452   -4.2816    0.0165 C   0  0  0  0  0  0  0  0  0  0  0  0
    1.2848   -2.7381    0.3533 H   0  0  0  0  0  0  0  0  0  0  0  0
    1.9022   -4.9195   -0.2658 H   0  0  0  0  0  0  0  0  0  0  0  0
    3.3789   -4.1311   -0.8632 H   0  0  0  0  0  0  0  0  0  0  0  0
    3.3269   -4.8007    0.7856 H   0  0  0  0  0  0  0  0  0  0  0  0
  1  2  2  0  0  0  0
  1  3  1  0  0  0  0
  1  7  1  0  0  0  0
  3  4  1  0  0  0  0
  3  5  1  0  0  0  0
  3  6  1  0  0  0  0
  7  8  1  0  0  0  0
  7 12  1  0  0  0  0
  8  9  1  0  0  0  0
  8 11  1  0  0  0  0
  8 13  1  0  0  0  0
  9 10  2  0  0  0  0
  9 17  1  0  0  0  0
 11 14  1  0  0  0  0
 11 15  1  0  0  0  0
 11 16  1  0  0  0  0
 17 18  1  0  0  0  0
 17 23  1  0  0  0  0
 18 19  1  0  0  0  0
 18 21  1  0  0  0  0
 18 24  1  0  0  0  0
 19 20  2  0  0  0  0
 19 31  1  0  0  0  0
 21 22  1  0  0  0  0
 21 25  1  0  0  0  0
 21 26  1  0  0  0  0
 22 23  1  0  0  0  0
 22 27  1  0  0  0  0
 22 28  1  0  0  0  0
 23 29  1  0  0  0  0
 23 30  1  0  0  0  0
 31 32  1  0  0  0  0
 31 36  1  0  0  0  0
 32 33  1  0  0  0  0
 32 35  1  0  0  0  0
 32 37  1  0  0  0  0
 33 34  2  0  0  0  0
 33 41  1  0  0  0  0
 35 38  1  0  0  0  0
 35 39  1  0  0  0  0
 35 40  1  0  0  0  0
 41 42  1  0  0  0  0
 41 43  1  0  0  0  0
 42 44  1  0  0  0  0
 42 45  1  0  0  0  0
 42 46  1  0  0  0  0
M  END
$$$$

  -OEChem-05262217223D

 46 46  0     1  0  0  0  0  0999 V2000
   -1.8953    1.7986    3.9513 C   0  0  0  0  0  0  0  0  0  0  0  0
   -1.9553    0.5801    3.9801 O   0  0  0  0  0  0  0  0  0  0  0  0
   -1.9722    2.5951    5.2402 C   0  0  0  0  0  0  0  0  0  0  0  0
   -2.8235    3.2794    5.2052 H   0  0  0  0  0  0  0  0  0  0  0  0
   -2.0968    1.9217    6.0929 H   0  0  0  0  0  0  0  0  0  0  0  0
   -1.0545    3.1721    5.3784 H   0  0  0  0  0  0  0  0  0  0  0  0
   -1.7454    2.4542    2.7477 N   0  0  0  0  0  0  0  0  0  0  0  0
   -1.5569    1.7926    1.4487 C   0  0  2  0  0  0  0  0  0  0  0  0
   -0.6953    2.6604    0.4913 C   0  0  0  0  0  0  0  0  0  0  0  0
   -0.5804    3.8560    0.7509 O   0  0  0  0  0  0  0  0  0  0  0  0
   -2.9464    1.5373    0.8544 C   0  0  0  0  0  0  0  0  0  0  0  0
   -1.6104    3.4644    2.7747 H   0  0  0  0  0  0  0  0  0  0  0  0
   -1.0539    0.8373    1.6090 H   0  0  0  0  0  0  0  0  0  0  0  0
   -3.4753    2.4829    0.7001 H   0  0  0  0  0  0  0  0  0  0  0  0
   -2.8735    1.0195   -0.1051 H   0  0  0  0  0  0  0  0  0  0  0  0
   -3.5383    0.9141    1.5326 H   0  0  0  0  0  0  0  0  0  0  0  0
   -0.0294    2.1768   -0.6416 N   0  0  0  0  0  0  0  0  0  0  0  0
   -0.0336    0.7818   -1.1085 C   0  0  2  0  0  0  0  0  0  0  0  0
    0.5326   -0.2504   -0.1171 C   0  0  0  0  0  0  0  0  0  0  0  0
    0.1115   -1.3974   -0.1443 O   0  0  0  0  0  0  0  0  0  0  0  0
    0.8327    0.8237   -2.3726 C   0  0  0  0  0  0  0  0  0  0  0  0
    0.7385    2.2597   -2.8689 C   0  0  0  0  0  0  0  0  0  0  0  0
    0.5820    3.0902   -1.6020 C   0  0  0  0  0  0  0  0  0  0  0  0
   -1.0519    0.4858   -1.3776 H   0  0  0  0  0  0  0  0  0  0  0  0
    0.4854    0.1081   -3.1253 H   0  0  0  0  0  0  0  0  0  0  0  0
    1.8760    0.5897   -2.1330 H   0  0  0  0  0  0  0  0  0  0  0  0
    1.6179    2.5565   -3.4492 H   0  0  0  0  0  0  0  0  0  0  0  0
   -0.1496    2.3779   -3.4983 H   0  0  0  0  0  0  0  0  0  0  0  0
    1.5587    3.4239   -1.2357 H   0  0  0  0  0  0  0  0  0  0  0  0
   -0.0400    3.9713   -1.7971 H   0  0  0  0  0  0  0  0  0  0  0  0
    1.5201    0.1307    0.7765 N   0  0  0  0  0  0  0  0  0  0  0  0
    2.1318   -0.6915    1.8400 C   0  0  2  0  0  0  0  0  0  0  0  0
    2.9840   -1.8794    1.3348 C   0  0  0  0  0  0  0  0  0  0  0  0
    4.1648   -1.9506    1.6495 O   0  0  0  0  0  0  0  0  0  0  0  0
    1.0737   -1.1599    2.8485 C   0  0  0  0  0  0  0  0  0  0  0  0
    1.8289    1.0972    0.6975 H   0  0  0  0  0  0  0  0  0  0  0  0
    2.8210   -0.0394    2.3866 H   0  0  0  0  0  0  0  0  0  0  0  0
    0.3648   -1.8566    2.3919 H   0  0  0  0  0  0  0  0  0  0  0  0
    1.5565   -1.6669    3.6897 H   0  0  0  0  0  0  0  0  0  0  0  0
    0.5166   -0.3036    3.2384 H   0  0  0  0  0  0  0  0  0  0  0  0
    2.4439   -2.8569    0.5233 N   0  0  0  0  0  0  0  0  0  0  0  0
    3.1998   -3.9760   -0.0208 C   0  0  0  0  0  0  0  0  0  0  0  0
    1.4766   -2.7097    0.2241 H   0  0  0  0  0  0  0  0  0  0  0  0
    2.5419   -4.6274   -0.6039 H   0  0  0  0  0  0  0  0  0  0  0  0
    4.0005   -3.6154   -0.6744 H   0  0  0  0  0  0  0  0  0  0  0  0
    3.6428   -4.5677    0.7871 H   0  0  0  0  0  0  0  0  0  0  0  0
  1  2  2  0  0  0  0
  1  3  1  0  0  0  0
  1  7  1  0  0  0  0
  3  4  1  0  0  0  0
  3  5  1  0  0  0  0
  3  6  1  0  0  0  0
  7  8  1  0  0  0  0
  7 12  1  0  0  0  0
  8  9  1  0  0  0  0
  8 11  1  0  0  0  0
  8 13  1  0  0  0  0
  9 10  2  0  0  0  0
  9 17  1  0  0  0  0
 11 14  1  0  0  0  0
 11 15  1  0  0  0  0
 11 16  1  0  0  0  0
 17 18  1  0  0  0  0
 17 23  1  0  0  0  0
 18 19  1  0  0  0  0
 18 21  1  0  0  0  0
 18 24  1  0  0  0  0
 19 20  2  0  0  0  0
 19 31  1  0  0  0  0
 21 22  1  0  0  0  0
 21 25  1  0  0  0  0
 21 26  1  0  0  0  0
 22 23  1  0  0  0  0
 22 27  1  0  0  0  0
 22 28  1  0  0  0  0
 23 29  1  0  0  0  0
 23 30  1  0  0  0  0
 31 32  1  0  0  0  0
 31 36  1  0  0  0  0
 32 33  1  0  0  0  0
 32 35  1  0  0  0  0
 32 37  1  0  0  0  0
 33 34  2  0  0  0  0
 33 41  1  0  0  0  0
 35 38  1  0  0  0  0
 35 39  1  0  0  0  0
 35 40  1  0  0  0  0
 41 42  1  0  0  0  0
 41 43  1  0  0  0  0
 42 44  1  0  0  0  0
 42 45  1  0  0  0  0
 42 46  1  0  0  0  0
M  END
$$$$

  -OEChem-05262217223D

 46 46  0     1  0  0  0  0  0999 V2000
   -1.4660   -0.1779    3.0646 C   0  0  0  0  0  0  0  0  0  0  0  0
   -1.7971   -1.2240    2.5283 O   0  0  0  0  0  0  0  0  0  0  0  0
   -1.1578   -0.1402    4.5492 C   0  0  0  0  0  0  0  0  0  0  0  0
   -1.9402    0.4061    5.0809 H   0  0  0  0  0  0  0  0  0  0  0  0
   -1.1011   -1.1575    4.9466 H   0  0  0  0  0  0  0  0  0  0  0  0
   -0.1973    0.3520    4.7206 H   0  0  0  0  0  0  0  0  0  0  0  0
   -1.4293    0.9845    2.3196 N   0  0  0  0  0  0  0  0  0  0  0  0
   -1.8173    1.0567    0.9041 C   0  0  2  0  0  0  0  0  0  0  0  0
   -1.2297    2.3052    0.2001 C   0  0  0  0  0  0  0  0  0  0  0  0
   -1.5236    3.4076    0.6502 O   0  0  0  0  0  0  0  0  0  0  0  0
   -3.3494    1.0837    0.8141 C   0  0  0  0  0  0  0  0  0  0  0  0
   -1.2868    1.8573    2.8234 H   0  0  0  0  0  0  0  0  0  0  0  0
   -1.4704    0.1590    0.3868 H   0  0  0  0  0  0  0  0  0  0  0  0
   -3.7536    1.9433    1.3586 H   0  0  0  0  0  0  0  0  0  0  0  0
   -3.6677    1.1529   -0.2305 H   0  0  0  0  0  0  0  0  0  0  0  0
   -3.7755    0.1710    1.2420 H   0  0  0  0  0  0  0  0  0  0  0  0
   -0.3097    2.2599   -0.8530 N   0  0  0  0  0  0  0  0  0  0  0  0
    0.2478    1.0380   -1.4551 C   0  0  2  0  0  0  0  0  0  0  0  0
    1.0407    0.1237   -0.4969 C   0  0  0  0  0  0  0  0  0  0  0  0
    1.3790   -0.9967   -0.8528 O   0  0  0  0  0  0  0  0  0  0  0  0
    1.1797    1.5736   -2.5479 C   0  0  0  0  0  0  0  0  0  0  0  0
    0.6298    2.9480   -2.9025 C   0  0  0  0  0  0  0  0  0  0  0  0
    0.0358    3.4654   -1.5988 C   0  0  0  0  0  0  0  0  0  0  0  0
   -0.5587    0.4523   -1.9089 H   0  0  0  0  0  0  0  0  0  0  0  0
    1.2080    0.9079   -3.4166 H   0  0  0  0  0  0  0  0  0  0  0  0
    2.2004    1.6784   -2.1631 H   0  0  0  0  0  0  0  0  0  0  0  0
    1.4042    3.6152   -3.2940 H   0  0  0  0  0  0  0  0  0  0  0  0
   -0.1598    2.8498   -3.6548 H   0  0  0  0  0  0  0  0  0  0  0  0
    0.7737    4.0541   -1.0432 H   0  0  0  0  0  0  0  0  0  0  0  0
   -0.8377    4.0963   -1.7993 H   0  0  0  0  0  0  0  0  0  0  0  0
    1.4591    0.5992    0.7322 N   0  0  0  0  0  0  0  0  0  0  0  0
    2.4493   -0.0682    1.5888 C   0  0  2  0  0  0  0  0  0  0  0  0
    1.8556   -1.2302    2.4214 C   0  0  0  0  0  0  0  0  0  0  0  0
    1.8519   -1.2001    3.6474 O   0  0  0  0  0  0  0  0  0  0  0  0
    3.0855    1.0209    2.4617 C   0  0  0  0  0  0  0  0  0  0  0  0
    1.1974    1.5556    0.9574 H   0  0  0  0  0  0  0  0  0  0  0  0
    3.2394   -0.4969    0.9632 H   0  0  0  0  0  0  0  0  0  0  0  0
    3.8679    0.5898    3.0948 H   0  0  0  0  0  0  0  0  0  0  0  0
    2.3333    1.4834    3.1089 H   0  0  0  0  0  0  0  0  0  0  0  0
    3.5375    1.7972    1.8370 H   0  0  0  0  0  0  0  0  0  0  0  0
    1.3437   -2.3312    1.7669 N   0  0  0  0  0  0  0  0  0  0  0  0
    0.7213   -3.4628    2.4410 C   0  0  0  0  0  0  0  0  0  0  0  0
    1.2729   -2.2572    0.7497 H   0  0  0  0  0  0  0  0  0  0  0  0
   -0.0336   -3.1229    3.1569 H   0  0  0  0  0  0  0  0  0  0  0  0
    0.2310   -4.1122    1.7097 H   0  0  0  0  0  0  0  0  0  0  0  0
    1.4753   -4.0475    2.9772 H   0  0  0  0  0  0  0  0  0  0  0  0
  1  2  2  0  0  0  0
  1  3  1  0  0  0  0
  1  7  1  0  0  0  0
  3  4  1  0  0  0  0
  3  5  1  0  0  0  0
  3  6  1  0  0  0  0
  7  8  1  0  0  0  0
  7 12  1  0  0  0  0
  8  9  1  0  0  0  0
  8 11  1  0  0  0  0
  8 13  1  0  0  0  0
  9 10  2  0  0  0  0
  9 17  1  0  0  0  0
 11 14  1  0  0  0  0
 11 15  1  0  0  0  0
 11 16  1  0  0  0  0
 17 18  1  0  0  0  0
 17 23  1  0  0  0  0
 18 19  1  0  0  0  0
 18 21  1  0  0  0  0
 18 24  1  0  0  0  0
 19 20  2  0  0  0  0
 19 31  1  0  0  0  0
 21 22  1  0  0  0  0
 21 25  1  0  0  0  0
 21 26  1  0  0  0  0
 22 23  1  0  0  0  0
 22 27  1  0  0  0  0
 22 28  1  0  0  0  0
 23 29  1  0  0  0  0
 23 30  1  0  0  0  0
 31 32  1  0  0  0  0
 31 36  1  0  0  0  0
 32 33  1  0  0  0  0
 32 35  1  0  0  0  0
 32 37  1  0  0  0  0
 33 34  2  0  0  0  0
 33 41  1  0  0  0  0
 35 38  1  0  0  0  0
 35 39  1  0  0  0  0
 35 40  1  0  0  0  0
 41 42  1  0  0  0  0
 41 43  1  0  0  0  0
 42 44  1  0  0  0  0
 42 45  1  0  0  0  0
 42 46  1  0  0  0  0
M  END
$$$$

  -OEChem-05262217223D

 46 46  0     1  0  0  0  0  0999 V2000
   -1.0644    1.3404    3.2629 C   0  0  0  0  0  0  0  0  0  0  0  0
   -0.1172    1.9935    2.8489 O   0  0  0  0  0  0  0  0  0  0  0  0
   -1.3274    1.2487    4.7534 C   0  0  0  0  0  0  0  0  0  0  0  0
   -1.1866    0.2186    5.0917 H   0  0  0  0  0  0  0  0  0  0  0  0
   -0.6349    1.8957    5.2988 H   0  0  0  0  0  0  0  0  0  0  0  0
   -2.3503    1.5632    4.9738 H   0  0  0  0  0  0  0  0  0  0  0  0
   -1.8796    0.6614    2.3784 N   0  0  0  0  0  0  0  0  0  0  0  0
   -1.6594    0.5898    0.9248 C   0  0  2  0  0  0  0  0  0  0  0  0
   -1.3763    1.9634    0.2488 C   0  0  0  0  0  0  0  0  0  0  0  0
   -2.1586    2.8834    0.4727 O   0  0  0  0  0  0  0  0  0  0  0  0
   -2.9162   -0.0295    0.3078 C   0  0  0  0  0  0  0  0  0  0  0  0
   -2.6311    0.1127    2.7838 H   0  0  0  0  0  0  0  0  0  0  0  0
   -0.8335   -0.0938    0.7385 H   0  0  0  0  0  0  0  0  0  0  0  0
   -3.7904    0.6015    0.5011 H   0  0  0  0  0  0  0  0  0  0  0  0
   -2.7969   -0.1331   -0.7753 H   0  0  0  0  0  0  0  0  0  0  0  0
   -3.0996   -1.0216    0.7316 H   0  0  0  0  0  0  0  0  0  0  0  0
   -0.3807    2.1672   -0.7165 N   0  0  0  0  0  0  0  0  0  0  0  0
    0.5422    1.1441   -1.2408 C   0  0  2  0  0  0  0  0  0  0  0  0
    1.5165    0.3958   -0.2993 C   0  0  0  0  0  0  0  0  0  0  0  0
    2.0824   -0.5914   -0.7562 O   0  0  0  0  0  0  0  0  0  0  0  0
    1.3707    1.9227   -2.2708 C   0  0  0  0  0  0  0  0  0  0  0  0
    0.4944    3.0871   -2.7037 C   0  0  0  0  0  0  0  0  0  0  0  0
   -0.3249    3.4186   -1.4662 C   0  0  0  0  0  0  0  0  0  0  0  0
   -0.0553    0.3870   -1.7582 H   0  0  0  0  0  0  0  0  0  0  0  0
    1.6588    1.2915   -3.1178 H   0  0  0  0  0  0  0  0  0  0  0  0
    2.2840    2.3123   -1.8068 H   0  0  0  0  0  0  0  0  0  0  0  0
    1.0832    3.9430   -3.0485 H   0  0  0  0  0  0  0  0  0  0  0  0
   -0.1713    2.7709   -3.5134 H   0  0  0  0  0  0  0  0  0  0  0  0
    0.1702    4.1911   -0.8677 H   0  0  0  0  0  0  0  0  0  0  0  0
   -1.3174    3.7820   -1.7556 H   0  0  0  0  0  0  0  0  0  0  0  0
    1.6115    0.6120    1.0652 N   0  0  0  0  0  0  0  0  0  0  0  0
    2.2488   -0.3393    1.9919 C   0  0  2  0  0  0  0  0  0  0  0  0
    1.2812   -1.4953    2.3355 C   0  0  0  0  0  0  0  0  0  0  0  0
    0.7084   -1.5796    3.4168 O   0  0  0  0  0  0  0  0  0  0  0  0
    2.7586    0.4122    3.2274 C   0  0  0  0  0  0  0  0  0  0  0  0
    1.0348    1.3557    1.4749 H   0  0  0  0  0  0  0  0  0  0  0  0
    3.1285   -0.7824    1.5134 H   0  0  0  0  0  0  0  0  0  0  0  0
    1.9317    0.8237    3.8112 H   0  0  0  0  0  0  0  0  0  0  0  0
    3.3236   -0.2675    3.8722 H   0  0  0  0  0  0  0  0  0  0  0  0
    3.4154    1.2341    2.9273 H   0  0  0  0  0  0  0  0  0  0  0  0
    0.9936   -2.4193    1.3496 N   0  0  0  0  0  0  0  0  0  0  0  0
    0.0506   -3.5178    1.5075 C   0  0  0  0  0  0  0  0  0  0  0  0
    1.4270   -2.2533    0.4386 H   0  0  0  0  0  0  0  0  0  0  0  0
    0.3459   -4.1580    2.3456 H   0  0  0  0  0  0  0  0  0  0  0  0
   -0.9579   -3.1344    1.6937 H   0  0  0  0  0  0  0  0  0  0  0  0
    0.0283   -4.1279    0.5993 H   0  0  0  0  0  0  0  0  0  0  0  0
  1  2  2  0  0  0  0
  1  3  1  0  0  0  0
  1  7  1  0  0  0  0
  3  4  1  0  0  0  0
  3  5  1  0  0  0  0
  3  6  1  0  0  0  0
  7  8  1  0  0  0  0
  7 12  1  0  0  0  0
  8  9  1  0  0  0  0
  8 11  1  0  0  0  0
  8 13  1  0  0  0  0
  9 10  2  0  0  0  0
  9 17  1  0  0  0  0
 11 14  1  0  0  0  0
 11 15  1  0  0  0  0
 11 16  1  0  0  0  0
 17 18  1  0  0  0  0
 17 23  1  0  0  0  0
 18 19  1  0  0  0  0
 18 21  1  0  0  0  0
 18 24  1  0  0  0  0
 19 20  2  0  0  0  0
 19 31  1  0  0  0  0
 21 22  1  0  0  0  0
 21 25  1  0  0  0  0
 21 26  1  0  0  0  0
 22 23  1  0  0  0  0
 22 27  1  0  0  0  0
 22 28  1  0  0  0  0
 23 29  1  0  0  0  0
 23 30  1  0  0  0  0
 31 32  1  0  0  0  0
 31 36  1  0  0  0  0
 32 33  1  0  0  0  0
 32 35  1  0  0  0  0
 32 37  1  0  0  0  0
 33 34  2  0  0  0  0
 33 41  1  0  0  0  0
 35 38  1  0  0  0  0
 35 39  1  0  0  0  0
 35 40  1  0  0  0  0
 41 42  1  0  0  0  0
 41 43  1  0  0  0  0
 42 44  1  0  0  0  0
 42 45  1  0  0  0  0
 42 46  1  0  0  0  0
M  END
$$$$

  -OEChem-05262217223D

 46 46  0     1  0  0  0  0  0999 V2000
   -1.0686    2.1010    3.7208 C   0  0  0  0  0  0  0  0  0  0  0  0
   -0.1265    1.3947    3.3968 O   0  0  0  0  0  0  0  0  0  0  0  0
   -1.0990    2.7599    5.0863 C   0  0  0  0  0  0  0  0  0  0  0  0
   -0.2434    2.4304    5.6827 H   0  0  0  0  0  0  0  0  0  0  0  0
   -2.0184    2.4908    5.6119 H   0  0  0  0  0  0  0  0  0  0  0  0
   -1.0536    3.8462    4.9759 H   0  0  0  0  0  0  0  0  0  0  0  0
   -2.0855    2.3258    2.8161 N   0  0  0  0  0  0  0  0  0  0  0  0
   -1.9575    1.9513    1.3994 C   0  0  2  0  0  0  0  0  0  0  0  0
   -0.8441    2.7546    0.6703 C   0  0  0  0  0  0  0  0  0  0  0  0
   -0.7314    3.9381    0.9823 O   0  0  0  0  0  0  0  0  0  0  0  0
   -3.3057    2.2270    0.7298 C   0  0  0  0  0  0  0  0  0  0  0  0
   -2.7034    3.1010    3.0400 H   0  0  0  0  0  0  0  0  0  0  0  0
   -1.7796    0.8820    1.3260 H   0  0  0  0  0  0  0  0  0  0  0  0
   -3.5530    3.2922    0.7848 H   0  0  0  0  0  0  0  0  0  0  0  0
   -3.2744    1.9328   -0.3239 H   0  0  0  0  0  0  0  0  0  0  0  0
   -4.0992    1.6576    1.2237 H   0  0  0  0  0  0  0  0  0  0  0  0
   -0.0319    2.2701   -0.3655 N   0  0  0  0  0  0  0  0  0  0  0  0
   -0.0531    0.9217   -0.9716 C   0  0  2  0  0  0  0  0  0  0  0  0
    0.2247   -0.3607   -0.1383 C   0  0  0  0  0  0  0  0  0  0  0  0
    0.3310   -1.4086   -0.7632 O   0  0  0  0  0  0  0  0  0  0  0  0
    1.0136    1.0247   -2.0745 C   0  0  0  0  0  0  0  0  0  0  0  0
    1.1025    2.4970   -2.4305 C   0  0  0  0  0  0  0  0  0  0  0  0
    0.7940    3.2081   -1.1243 C   0  0  0  0  0  0  0  0  0  0  0  0
   -1.0339    0.7845   -1.4370 H   0  0  0  0  0  0  0  0  0  0  0  0
    0.7571    0.4110   -2.9444 H   0  0  0  0  0  0  0  0  0  0  0  0
    1.9850    0.6890   -1.6935 H   0  0  0  0  0  0  0  0  0  0  0  0
    2.0853    2.7706   -2.8271 H   0  0  0  0  0  0  0  0  0  0  0  0
    0.3414    2.7466   -3.1769 H   0  0  0  0  0  0  0  0  0  0  0  0
    1.7164    3.4221   -0.5735 H   0  0  0  0  0  0  0  0  0  0  0  0
    0.2802    4.1546   -1.3276 H   0  0  0  0  0  0  0  0  0  0  0  0
    0.2286   -0.4273    1.2455 N   0  0  0  0  0  0  0  0  0  0  0  0
    0.2597   -1.6382    2.0960 C   0  0  2  0  0  0  0  0  0  0  0  0
    1.5597   -2.4771    2.0495 C   0  0  0  0  0  0  0  0  0  0  0  0
    1.9708   -3.0066    3.0745 O   0  0  0  0  0  0  0  0  0  0  0  0
   -0.9692   -2.5189    1.8345 C   0  0  0  0  0  0  0  0  0  0  0  0
    0.2347    0.4636    1.7516 H   0  0  0  0  0  0  0  0  0  0  0  0
    0.1807   -1.2862    3.1299 H   0  0  0  0  0  0  0  0  0  0  0  0
   -1.8835   -1.9214    1.8947 H   0  0  0  0  0  0  0  0  0  0  0  0
   -1.0263   -3.3136    2.5850 H   0  0  0  0  0  0  0  0  0  0  0  0
   -0.9192   -2.9866    0.8471 H   0  0  0  0  0  0  0  0  0  0  0  0
    2.2399   -2.6984    0.8684 N   0  0  0  0  0  0  0  0  0  0  0  0
    3.3844   -3.5906    0.7475 C   0  0  0  0  0  0  0  0  0  0  0  0
    1.7712   -2.3689    0.0218 H   0  0  0  0  0  0  0  0  0  0  0  0
    4.1833   -3.2832    1.4306 H   0  0  0  0  0  0  0  0  0  0  0  0
    3.0943   -4.6194    0.9835 H   0  0  0  0  0  0  0  0  0  0  0  0
    3.7756   -3.5647   -0.2740 H   0  0  0  0  0  0  0  0  0  0  0  0
  1  2  2  0  0  0  0
  1  3  1  0  0  0  0
  1  7  1  0  0  0  0
  3  4  1  0  0  0  0
  3  5  1  0  0  0  0
  3  6  1  0  0  0  0
  7  8  1  0  0  0  0
  7 12  1  0  0  0  0
  8  9  1  0  0  0  0
  8 11  1  0  0  0  0
  8 13  1  0  0  0  0
  9 10  2  0  0  0  0
  9 17  1  0  0  0  0
 11 14  1  0  0  0  0
 11 15  1  0  0  0  0
 11 16  1  0  0  0  0
 17 18  1  0  0  0  0
 17 23  1  0  0  0  0
 18 19  1  0  0  0  0
 18 21  1  0  0  0  0
 18 24  1  0  0  0  0
 19 20  2  0  0  0  0
 19 31  1  0  0  0  0
 21 22  1  0  0  0  0
 21 25  1  0  0  0  0
 21 26  1  0  0  0  0
 22 23  1  0  0  0  0
 22 27  1  0  0  0  0
 22 28  1  0  0  0  0
 23 29  1  0  0  0  0
 23 30  1  0  0  0  0
 31 32  1  0  0  0  0
 31 36  1  0  0  0  0
 32 33  1  0  0  0  0
 32 35  1  0  0  0  0
 32 37  1  0  0  0  0
 33 34  2  0  0  0  0
 33 41  1  0  0  0  0
 35 38  1  0  0  0  0
 35 39  1  0  0  0  0
 35 40  1  0  0  0  0
 41 42  1  0  0  0  0
 41 43  1  0  0  0  0
 42 44  1  0  0  0  0
 42 45  1  0  0  0  0
 42 46  1  0  0  0  0
M  END
$$$$

  -OEChem-05262217223D

 46 46  0     1  0  0  0  0  0999 V2000
   -1.6999    1.4190    3.8021 C   0  0  0  0  0  0  0  0  0  0  0  0
   -1.1629    1.4851    4.8889 O   0  0  0  0  0  0  0  0  0  0  0  0
   -2.9155    0.5282    3.5968 C   0  0  0  0  0  0  0  0  0  0  0  0
   -3.8297    1.1176    3.6972 H   0  0  0  0  0  0  0  0  0  0  0  0
   -2.8961    0.0633    2.6100 H   0  0  0  0  0  0  0  0  0  0  0  0
   -2.9244   -0.2641    4.3506 H   0  0  0  0  0  0  0  0  0  0  0  0
   -1.0892    2.1490    2.8077 N   0  0  0  0  0  0  0  0  0  0  0  0
   -1.5975    2.3586    1.4458 C   0  0  2  0  0  0  0  0  0  0  0  0
   -0.4992    2.9413    0.5174 C   0  0  0  0  0  0  0  0  0  0  0  0
   -0.1081    4.0757    0.7672 O   0  0  0  0  0  0  0  0  0  0  0  0
   -2.7919    3.3239    1.5100 C   0  0  0  0  0  0  0  0  0  0  0  0
   -0.3844    2.8009    3.1572 H   0  0  0  0  0  0  0  0  0  0  0  0
   -1.9558    1.4216    1.0146 H   0  0  0  0  0  0  0  0  0  0  0  0
   -2.5025    4.2639    1.9925 H   0  0  0  0  0  0  0  0  0  0  0  0
   -3.1511    3.5507    0.5011 H   0  0  0  0  0  0  0  0  0  0  0  0
   -3.6189    2.8879    2.0761 H   0  0  0  0  0  0  0  0  0  0  0  0
    0.0976    2.2638   -0.5539 N   0  0  0  0  0  0  0  0  0  0  0  0
   -0.1746    0.8864   -1.0164 C   0  0  2  0  0  0  0  0  0  0  0  0
    0.0629   -0.3198   -0.0608 C   0  0  0  0  0  0  0  0  0  0  0  0
    0.2524   -1.4177   -0.5680 O   0  0  0  0  0  0  0  0  0  0  0  0
    0.7351    0.7550   -2.2515 C   0  0  0  0  0  0  0  0  0  0  0  0
    0.9562    2.1683   -2.7579 C   0  0  0  0  0  0  0  0  0  0  0  0
    0.9221    3.0168   -1.4979 C   0  0  0  0  0  0  0  0  0  0  0  0
   -1.2188    0.8368   -1.3401 H   0  0  0  0  0  0  0  0  0  0  0  0
    0.2880    0.1137   -3.0184 H   0  0  0  0  0  0  0  0  0  0  0  0
    1.7026    0.3251   -1.9680 H   0  0  0  0  0  0  0  0  0  0  0  0
    1.9017    2.2730   -3.2996 H   0  0  0  0  0  0  0  0  0  0  0  0
    0.1373    2.4592   -3.4240 H   0  0  0  0  0  0  0  0  0  0  0  0
    1.9313    3.1464   -1.0917 H   0  0  0  0  0  0  0  0  0  0  0  0
    0.5068    4.0062   -1.7229 H   0  0  0  0  0  0  0  0  0  0  0  0
   -0.0522   -0.2574    1.3197 N   0  0  0  0  0  0  0  0  0  0  0  0
    0.1097   -1.3706    2.2848 C   0  0  2  0  0  0  0  0  0  0  0  0
    1.5300   -1.9805    2.3698 C   0  0  0  0  0  0  0  0  0  0  0  0
    2.0235   -2.2057    3.4659 O   0  0  0  0  0  0  0  0  0  0  0  0
   -0.9332   -2.4731    2.0503 C   0  0  0  0  0  0  0  0  0  0  0  0
   -0.0645    0.6795    1.7188 H   0  0  0  0  0  0  0  0  0  0  0  0
   -0.0905   -0.9531    3.2773 H   0  0  0  0  0  0  0  0  0  0  0  0
   -0.7093   -3.0471    1.1462 H   0  0  0  0  0  0  0  0  0  0  0  0
   -0.9382   -3.1657    2.8978 H   0  0  0  0  0  0  0  0  0  0  0  0
   -1.9332   -2.0429    1.9502 H   0  0  0  0  0  0  0  0  0  0  0  0
    2.2427   -2.3120    1.2346 N   0  0  0  0  0  0  0  0  0  0  0  0
    3.5362   -2.9807    1.2530 C   0  0  0  0  0  0  0  0  0  0  0  0
    1.7453   -2.2062    0.3476 H   0  0  0  0  0  0  0  0  0  0  0  0
    3.4382   -3.9922    1.6604 H   0  0  0  0  0  0  0  0  0  0  0  0
    3.9379   -3.0513    0.2377 H   0  0  0  0  0  0  0  0  0  0  0  0
    4.2490   -2.4203    1.8670 H   0  0  0  0  0  0  0  0  0  0  0  0
  1  2  2  0  0  0  0
  1  3  1  0  0  0  0
  1  7  1  0  0  0  0
  3  4  1  0  0  0  0
  3  5  1  0  0  0  0
  3  6  1  0  0  0  0
  7  8  1  0  0  0  0
  7 12  1  0  0  0  0
  8  9  1  0  0  0  0
  8 11  1  0  0  0  0
  8 13  1  0  0  0  0
  9 10  2  0  0  0  0
  9 17  1  0  0  0  0
 11 14  1  0  0  0  0
 11 15  1  0  0  0  0
 11 16  1  0  0  0  0
 17 18  1  0  0  0  0
 17 23  1  0  0  0  0
 18 19  1  0  0  0  0
 18 21  1  0  0  0  0
 18 24  1  0  0  0  0
 19 20  2  0  0  0  0
 19 31  1  0  0  0  0
 21 22  1  0  0  0  0
 21 25  1  0  0  0  0
 21 26  1  0  0  0  0
 22 23  1  0  0  0  0
 22 27  1  0  0  0  0
 22 28  1  0  0  0  0
 23 29  1  0  0  0  0
 23 30  1  0  0  0  0
 31 32  1  0  0  0  0
 31 36  1  0  0  0  0
 32 33  1  0  0  0  0
 32 35  1  0  0  0  0
 32 37  1  0  0  0  0
 33 34  2  0  0  0  0
 33 41  1  0  0  0  0
 35 38  1  0  0  0  0
 35 39  1  0  0  0  0
 35 40  1  0  0  0  0
 41 42  1  0  0  0  0
 41 43  1  0  0  0  0
 42 44  1  0  0  0  0
 42 45  1  0  0  0  0
 42 46  1  0  0  0  0
M  END
$$$$

  -OEChem-05262217223D

 46 46  0     1  0  0  0  0  0999 V2000
   -2.3196    1.1427    3.5737 C   0  0  0  0  0  0  0  0  0  0  0  0
   -3.5252    1.1995    3.4097 O   0  0  0  0  0  0  0  0  0  0  0  0
   -1.7571    0.5603    4.8570 C   0  0  0  0  0  0  0  0  0  0  0  0
   -2.5399    0.0279    5.4050 H   0  0  0  0  0  0  0  0  0  0  0  0
   -0.9494   -0.1414    4.6334 H   0  0  0  0  0  0  0  0  0  0  0  0
   -1.3659    1.3612    5.4894 H   0  0  0  0  0  0  0  0  0  0  0  0
   -1.4544    1.5963    2.5955 N   0  0  0  0  0  0  0  0  0  0  0  0
   -1.8433    2.4431    1.4497 C   0  0  2  0  0  0  0  0  0  0  0  0
   -0.5991    2.9779    0.6917 C   0  0  0  0  0  0  0  0  0  0  0  0
   -0.1511    4.0211    1.1546 O   0  0  0  0  0  0  0  0  0  0  0  0
   -2.9046    1.8442    0.5027 C   0  0  0  0  0  0  0  0  0  0  0  0
   -0.4833    1.6644    2.9019 H   0  0  0  0  0  0  0  0  0  0  0  0
   -2.3194    3.3339    1.8775 H   0  0  0  0  0  0  0  0  0  0  0  0
   -2.9947    2.4631   -0.3955 H   0  0  0  0  0  0  0  0  0  0  0  0
   -2.6773    0.8244    0.1969 H   0  0  0  0  0  0  0  0  0  0  0  0
   -3.8837    1.8322    0.9904 H   0  0  0  0  0  0  0  0  0  0  0  0
    0.1111    2.4011   -0.3800 N   0  0  0  0  0  0  0  0  0  0  0  0
   -0.0936    1.1231   -1.1123 C   0  0  2  0  0  0  0  0  0  0  0  0
   -0.0293   -0.2469   -0.3675 C   0  0  0  0  0  0  0  0  0  0  0  0
    0.5912   -1.1821   -0.8600 O   0  0  0  0  0  0  0  0  0  0  0  0
    0.9720    1.1747   -2.2258 C   0  0  0  0  0  0  0  0  0  0  0  0
    1.2639    2.6412   -2.4555 C   0  0  0  0  0  0  0  0  0  0  0  0
    1.0674    3.2615   -1.0844 C   0  0  0  0  0  0  0  0  0  0  0  0
   -1.0773    1.1693   -1.5876 H   0  0  0  0  0  0  0  0  0  0  0  0
    0.6298    0.6767   -3.1389 H   0  0  0  0  0  0  0  0  0  0  0  0
    1.8979    0.6895   -1.8969 H   0  0  0  0  0  0  0  0  0  0  0  0
    2.2731    2.8094   -2.8447 H   0  0  0  0  0  0  0  0  0  0  0  0
    0.5406    3.0609   -3.1620 H   0  0  0  0  0  0  0  0  0  0  0  0
    2.0163    3.2860   -0.5374 H   0  0  0  0  0  0  0  0  0  0  0  0
    0.7053    4.2903   -1.1969 H   0  0  0  0  0  0  0  0  0  0  0  0
   -0.6511   -0.4749    0.8447 N   0  0  0  0  0  0  0  0  0  0  0  0
   -0.6431   -1.7070    1.6568 C   0  0  2  0  0  0  0  0  0  0  0  0
    0.7344   -2.0070    2.2843 C   0  0  0  0  0  0  0  0  0  0  0  0
    0.8735   -1.9087    3.4969 O   0  0  0  0  0  0  0  0  0  0  0  0
   -1.1999   -2.9150    0.8892 C   0  0  0  0  0  0  0  0  0  0  0  0
   -1.1640    0.3146    1.2303 H   0  0  0  0  0  0  0  0  0  0  0  0
   -1.3293   -1.5381    2.4927 H   0  0  0  0  0  0  0  0  0  0  0  0
   -0.5145   -3.2453    0.1037 H   0  0  0  0  0  0  0  0  0  0  0  0
   -1.3557   -3.7528    1.5758 H   0  0  0  0  0  0  0  0  0  0  0  0
   -2.1602   -2.6621    0.4301 H   0  0  0  0  0  0  0  0  0  0  0  0
    1.8282   -2.2843    1.4898 N   0  0  0  0  0  0  0  0  0  0  0  0
    3.1844   -2.4209    2.0021 C   0  0  0  0  0  0  0  0  0  0  0  0
    1.6830   -2.1727    0.4829 H   0  0  0  0  0  0  0  0  0  0  0  0
    3.5141   -1.4867    2.4685 H   0  0  0  0  0  0  0  0  0  0  0  0
    3.2333   -3.2232    2.7457 H   0  0  0  0  0  0  0  0  0  0  0  0
    3.8725   -2.6642    1.1868 H   0  0  0  0  0  0  0  0  0  0  0  0
  1  2  2  0  0  0  0
  1  3  1  0  0  0  0
  1  7  1  0  0  0  0
  3  4  1  0  0  0  0
  3  5  1  0  0  0  0
  3  6  1  0  0  0  0
  7  8  1  0  0  0  0
  7 12  1  0  0  0  0
  8  9  1  0  0  0  0
  8 11  1  0  0  0  0
  8 13  1  0  0  0  0
  9 10  2  0  0  0  0
  9 17  1  0  0  0  0
 11 14  1  0  0  0  0
 11 15  1  0  0  0  0
 11 16  1  0  0  0  0
 17 18  1  0  0  0  0
 17 23  1  0  0  0  0
 18 19  1  0  0  0  0
 18 21  1  0  0  0  0
 18 24  1  0  0  0  0
 19 20  2  0  0  0  0
 19 31  1  0  0  0  0
 21 22  1  0  0  0  0
 21 25  1  0  0  0  0
 21 26  1  0  0  0  0
 22 23  1  0  0  0  0
 22 27  1  0  0  0  0
 22 28  1  0  0  0  0
 23 29  1  0  0  0  0
 23 30  1  0  0  0  0
 31 32  1  0  0  0  0
 31 36  1  0  0  0  0
 32 33  1  0  0  0  0
 32 35  1  0  0  0  0
 32 37  1  0  0  0  0
 33 34  2  0  0  0  0
 33 41  1  0  0  0  0
 35 38  1  0  0  0  0
 35 39  1  0  0  0  0
 35 40  1  0  0  0  0
 41 42  1  0  0  0  0
 41 43  1  0  0  0  0
 42 44  1  0  0  0  0
 42 45  1  0  0  0  0
 42 46  1  0  0  0  0
M  END
$$$$

  -OEChem-05262217223D

 46 46  0     1  0  0  0  0  0999 V2000
   -2.3205    0.9019    3.3425 C   0  0  0  0  0  0  0  0  0  0  0  0
   -3.5254    1.0942    3.3176 O   0  0  0  0  0  0  0  0  0  0  0  0
   -1.6776    0.3539    4.6033 C   0  0  0  0  0  0  0  0  0  0  0  0
   -2.3900    0.3815    5.4324 H   0  0  0  0  0  0  0  0  0  0  0  0
   -1.3579   -0.6782    4.4452 H   0  0  0  0  0  0  0  0  0  0  0  0
   -0.8064    0.9579    4.8698 H   0  0  0  0  0  0  0  0  0  0  0  0
   -1.5490    1.1840    2.2305 N   0  0  0  0  0  0  0  0  0  0  0  0
   -2.0139    2.0676    1.1466 C   0  0  2  0  0  0  0  0  0  0  0  0
   -0.8896    2.8724    0.4389 C   0  0  0  0  0  0  0  0  0  0  0  0
   -0.7125    3.9947    0.9018 O   0  0  0  0  0  0  0  0  0  0  0  0
   -2.9765    1.3681    0.1695 C   0  0  0  0  0  0  0  0  0  0  0  0
   -0.5380    1.0880    2.3840 H   0  0  0  0  0  0  0  0  0  0  0  0
   -2.6241    2.8414    1.6296 H   0  0  0  0  0  0  0  0  0  0  0  0
   -3.3067    2.0774   -0.5959 H   0  0  0  0  0  0  0  0  0  0  0  0
   -2.5286    0.5119   -0.3308 H   0  0  0  0  0  0  0  0  0  0  0  0
   -3.8631    1.0151    0.7053 H   0  0  0  0  0  0  0  0  0  0  0  0
   -0.0547    2.4894   -0.6295 N   0  0  0  0  0  0  0  0  0  0  0  0
    0.0169    1.2208   -1.3978 C   0  0  2  0  0  0  0  0  0  0  0  0
    0.3464   -0.1219   -0.6741 C   0  0  0  0  0  0  0  0  0  0  0  0
    1.2823   -0.8151   -1.0568 O   0  0  0  0  0  0  0  0  0  0  0  0
    1.0566    1.5231   -2.4975 C   0  0  0  0  0  0  0  0  0  0  0  0
    1.0378    3.0243   -2.6834 C   0  0  0  0  0  0  0  0  0  0  0  0
    0.7082    3.5488   -1.2978 C   0  0  0  0  0  0  0  0  0  0  0  0
   -0.9485    1.0779   -1.8899 H   0  0  0  0  0  0  0  0  0  0  0  0
    0.8301    0.9916   -3.4274 H   0  0  0  0  0  0  0  0  0  0  0  0
    2.0631    1.2350   -2.1743 H   0  0  0  0  0  0  0  0  0  0  0  0
    1.9920    3.4104   -3.0554 H   0  0  0  0  0  0  0  0  0  0  0  0
    0.2467    3.3054   -3.3860 H   0  0  0  0  0  0  0  0  0  0  0  0
    1.6276    3.7502   -0.7372 H   0  0  0  0  0  0  0  0  0  0  0  0
    0.1444    4.4847   -1.3877 H   0  0  0  0  0  0  0  0  0  0  0  0
   -0.4210   -0.6567    0.3424 N   0  0  0  0  0  0  0  0  0  0  0  0
    0.0167   -1.8002    1.1595 C   0  0  2  0  0  0  0  0  0  0  0  0
    0.9478   -1.3602    2.3166 C   0  0  0  0  0  0  0  0  0  0  0  0
    0.8851   -0.2305    2.7863 O   0  0  0  0  0  0  0  0  0  0  0  0
   -1.2397   -2.4924    1.6940 C   0  0  0  0  0  0  0  0  0  0  0  0
   -1.1087   -0.0315    0.7584 H   0  0  0  0  0  0  0  0  0  0  0  0
    0.5557   -2.5212    0.5370 H   0  0  0  0  0  0  0  0  0  0  0  0
   -1.8602   -2.8415    0.8628 H   0  0  0  0  0  0  0  0  0  0  0  0
   -0.9695   -3.3560    2.3092 H   0  0  0  0  0  0  0  0  0  0  0  0
   -1.8331   -1.8056    2.3036 H   0  0  0  0  0  0  0  0  0  0  0  0
    1.8505   -2.1890    2.9423 N   0  0  0  0  0  0  0  0  0  0  0  0
    2.2285   -3.5095    2.4596 C   0  0  0  0  0  0  0  0  0  0  0  0
    2.4388   -1.7275    3.6319 H   0  0  0  0  0  0  0  0  0  0  0  0
    1.3593   -4.1739    2.4252 H   0  0  0  0  0  0  0  0  0  0  0  0
    2.6652   -3.4415    1.4575 H   0  0  0  0  0  0  0  0  0  0  0  0
    2.9708   -3.9538    3.1301 H   0  0  0  0  0  0  0  0  0  0  0  0
  1  2  2  0  0  0  0
  1  3  1  0  0  0  0
  1  7  1  0  0  0  0
  3  4  1  0  0  0  0
  3  5  1  0  0  0  0
  3  6  1  0  0  0  0
  7  8  1  0  0  0  0
  7 12  1  0  0  0  0
  8  9  1  0  0  0  0
  8 11  1  0  0  0  0
  8 13  1  0  0  0  0
  9 10  2  0  0  0  0
  9 17  1  0  0  0  0
 11 14  1  0  0  0  0
 11 15  1  0  0  0  0
 11 16  1  0  0  0  0
 17 18  1  0  0  0  0
 17 23  1  0  0  0  0
 18 19  1  0  0  0  0
 18 21  1  0  0  0  0
 18 24  1  0  0  0  0
 19 20  2  0  0  0  0
 19 31  1  0  0  0  0
 21 22  1  0  0  0  0
 21 25  1  0  0  0  0
 21 26  1  0  0  0  0
 22 23  1  0  0  0  0
 22 27  1  0  0  0  0
 22 28  1  0  0  0  0
 23 29  1  0  0  0  0
 23 30  1  0  0  0  0
 31 32  1  0  0  0  0
 31 36  1  0  0  0  0
 32 33  1  0  0  0  0
 32 35  1  0  0  0  0
 32 37  1  0  0  0  0
 33 34  2  0  0  0  0
 33 41  1  0  0  0  0
 35 38  1  0  0  0  0
 35 39  1  0  0  0  0
 35 40  1  0  0  0  0
 41 42  1  0  0  0  0
 41 43  1  0  0  0  0
 42 44  1  0  0  0  0
 42 45  1  0  0  0  0
 42 46  1  0  0  0  0
M  END
$$$$

  -OEChem-05262217223D

 46 46  0     1  0  0  0  0  0999 V2000
   -2.1150    0.4463    2.9132 C   0  0  0  0  0  0  0  0  0  0  0  0
   -3.0628   -0.0869    2.3554 O   0  0  0  0  0  0  0  0  0  0  0  0
   -1.7695    0.0813    4.3446 C   0  0  0  0  0  0  0  0  0  0  0  0
   -2.4796    0.5503    5.0295 H   0  0  0  0  0  0  0  0  0  0  0  0
   -1.8101   -1.0036    4.4710 H   0  0  0  0  0  0  0  0  0  0  0  0
   -0.7605    0.4216    4.5910 H   0  0  0  0  0  0  0  0  0  0  0  0
   -1.3976    1.4041    2.2275 N   0  0  0  0  0  0  0  0  0  0  0  0
   -1.8188    1.9820    0.9453 C   0  0  2  0  0  0  0  0  0  0  0  0
   -0.7025    2.7937    0.2494 C   0  0  0  0  0  0  0  0  0  0  0  0
   -0.4579    3.9107    0.6978 O   0  0  0  0  0  0  0  0  0  0  0  0
   -3.0407    2.8846    1.1994 C   0  0  0  0  0  0  0  0  0  0  0  0
   -0.6075    1.8248    2.7142 H   0  0  0  0  0  0  0  0  0  0  0  0
   -2.1418    1.1989    0.2573 H   0  0  0  0  0  0  0  0  0  0  0  0
   -2.8060    3.6535    1.9428 H   0  0  0  0  0  0  0  0  0  0  0  0
   -3.3464    3.3802    0.2729 H   0  0  0  0  0  0  0  0  0  0  0  0
   -3.8884    2.2985    1.5659 H   0  0  0  0  0  0  0  0  0  0  0  0
    0.0531    2.3473   -0.8412 N   0  0  0  0  0  0  0  0  0  0  0  0
   -0.0298    1.0492   -1.5469 C   0  0  2  0  0  0  0  0  0  0  0  0
    0.2387   -0.2798   -0.7652 C   0  0  0  0  0  0  0  0  0  0  0  0
    1.2280   -0.9424   -1.0605 O   0  0  0  0  0  0  0  0  0  0  0  0
    0.9407    1.2354   -2.7340 C   0  0  0  0  0  0  0  0  0  0  0  0
    1.0100    2.7294   -2.9815 C   0  0  0  0  0  0  0  0  0  0  0  0
    0.8255    3.3319   -1.5986 C   0  0  0  0  0  0  0  0  0  0  0  0
   -1.0410    0.9596   -1.9547 H   0  0  0  0  0  0  0  0  0  0  0  0
    0.6064    0.6867   -3.6202 H   0  0  0  0  0  0  0  0  0  0  0  0
    1.9489    0.8919   -2.4787 H   0  0  0  0  0  0  0  0  0  0  0  0
    1.9569    3.0324   -3.4393 H   0  0  0  0  0  0  0  0  0  0  0  0
    0.1889    3.0387   -3.6361 H   0  0  0  0  0  0  0  0  0  0  0  0
    1.7961    3.4912   -1.1162 H   0  0  0  0  0  0  0  0  0  0  0  0
    0.3147    4.2982   -1.6799 H   0  0  0  0  0  0  0  0  0  0  0  0
   -0.6318   -0.8849    0.1328 N   0  0  0  0  0  0  0  0  0  0  0  0
   -0.2964   -2.1660    0.7898 C   0  0  2  0  0  0  0  0  0  0  0  0
    0.6585   -2.0050    1.9954 C   0  0  0  0  0  0  0  0  0  0  0  0
    0.6593   -0.9834    2.6742 O   0  0  0  0  0  0  0  0  0  0  0  0
   -1.5819   -2.8805    1.2124 C   0  0  0  0  0  0  0  0  0  0  0  0
   -1.3340   -0.3010    0.5839 H   0  0  0  0  0  0  0  0  0  0  0  0
    0.1974   -2.8207    0.0643 H   0  0  0  0  0  0  0  0  0  0  0  0
   -2.2933   -2.9110    0.3816 H   0  0  0  0  0  0  0  0  0  0  0  0
   -1.3594   -3.9082    1.5151 H   0  0  0  0  0  0  0  0  0  0  0  0
   -2.0516   -2.3746    2.0580 H   0  0  0  0  0  0  0  0  0  0  0  0
    1.5010   -3.0425    2.3499 N   0  0  0  0  0  0  0  0  0  0  0  0
    2.4786   -2.9435    3.4264 C   0  0  0  0  0  0  0  0  0  0  0  0
    1.5488   -3.8357    1.7175 H   0  0  0  0  0  0  0  0  0  0  0  0
    3.0330   -3.8822    3.5209 H   0  0  0  0  0  0  0  0  0  0  0  0
    3.1924   -2.1384    3.2222 H   0  0  0  0  0  0  0  0  0  0  0  0
    1.9802   -2.7407    4.3802 H   0  0  0  0  0  0  0  0  0  0  0  0
  1  2  2  0  0  0  0
  1  3  1  0  0  0  0
  1  7  1  0  0  0  0
  3  4  1  0  0  0  0
  3  5  1  0  0  0  0
  3  6  1  0  0  0  0
  7  8  1  0  0  0  0
  7 12  1  0  0  0  0
  8  9  1  0  0  0  0
  8 11  1  0  0  0  0
  8 13  1  0  0  0  0
  9 10  2  0  0  0  0
  9 17  1  0  0  0  0
 11 14  1  0  0  0  0
 11 15  1  0  0  0  0
 11 16  1  0  0  0  0
 17 18  1  0  0  0  0
 17 23  1  0  0  0  0
 18 19  1  0  0  0  0
 18 21  1  0  0  0  0
 18 24  1  0  0  0  0
 19 20  2  0  0  0  0
 19 31  1  0  0  0  0
 21 22  1  0  0  0  0
 21 25  1  0  0  0  0
 21 26  1  0  0  0  0
 22 23  1  0  0  0  0
 22 27  1  0  0  0  0
 22 28  1  0  0  0  0
 23 29  1  0  0  0  0
 23 30  1  0  0  0  0
 31 32  1  0  0  0  0
 31 36  1  0  0  0  0
 32 33  1  0  0  0  0
 32 35  1  0  0  0  0
 32 37  1  0  0  0  0
 33 34  2  0  0  0  0
 33 41  1  0  0  0  0
 35 38  1  0  0  0  0
 35 39  1  0  0  0  0
 35 40  1  0  0  0  0
 41 42  1  0  0  0  0
 41 43  1  0  0  0  0
 42 44  1  0  0  0  0
 42 45  1  0  0  0  0
 42 46  1  0  0  0  0
M  END
$$$$

  -OEChem-05262217223D

 46 46  0     1  0  0  0  0  0999 V2000
   -2.9397    1.8472    1.4236 C   0  0  0  0  0  0  0  0  0  0  0  0
   -2.7004    2.7244    0.6157 O   0  0  0  0  0  0  0  0  0  0  0  0
   -4.3752    1.5757    1.8319 C   0  0  0  0  0  0  0  0  0  0  0  0
   -4.4909    1.7225    2.9086 H   0  0  0  0  0  0  0  0  0  0  0  0
   -5.0510    2.2606    1.3115 H   0  0  0  0  0  0  0  0  0  0  0  0
   -4.6516    0.5497    1.5780 H   0  0  0  0  0  0  0  0  0  0  0  0
   -1.9297    1.0566    1.9427 N   0  0  0  0  0  0  0  0  0  0  0  0
   -0.5049    1.4589    1.9867 C   0  0  2  0  0  0  0  0  0  0  0  0
    0.1562    2.0744    0.7093 C   0  0  0  0  0  0  0  0  0  0  0  0
    0.9023    3.0381    0.8679 O   0  0  0  0  0  0  0  0  0  0  0  0
   -0.3784    2.3862    3.2090 C   0  0  0  0  0  0  0  0  0  0  0  0
   -2.2348    0.4701    2.7166 H   0  0  0  0  0  0  0  0  0  0  0  0
    0.0884    0.5686    2.2038 H   0  0  0  0  0  0  0  0  0  0  0  0
    0.6746    2.5980    3.4214 H   0  0  0  0  0  0  0  0  0  0  0  0
   -0.8918    3.3358    3.0256 H   0  0  0  0  0  0  0  0  0  0  0  0
   -0.8120    1.9176    4.0974 H   0  0  0  0  0  0  0  0  0  0  0  0
    0.0474    1.5815   -0.6001 N   0  0  0  0  0  0  0  0  0  0  0  0
   -0.6953    0.3995   -1.0710 C   0  0  2  0  0  0  0  0  0  0  0  0
   -0.2788   -0.9634   -0.4677 C   0  0  0  0  0  0  0  0  0  0  0  0
    0.6969   -1.5759   -0.8837 O   0  0  0  0  0  0  0  0  0  0  0  0
   -0.5099    0.4282   -2.5975 C   0  0  0  0  0  0  0  0  0  0  0  0
   -0.2412    1.8843   -2.9334 C   0  0  0  0  0  0  0  0  0  0  0  0
    0.4934    2.4171   -1.7129 C   0  0  0  0  0  0  0  0  0  0  0  0
   -1.7569    0.5530   -0.8599 H   0  0  0  0  0  0  0  0  0  0  0  0
   -1.3906    0.0433   -3.1208 H   0  0  0  0  0  0  0  0  0  0  0  0
    0.3571   -0.1663   -2.9039 H   0  0  0  0  0  0  0  0  0  0  0  0
    0.3465    1.9981   -3.8495 H   0  0  0  0  0  0  0  0  0  0  0  0
   -1.1885    2.4202   -3.0545 H   0  0  0  0  0  0  0  0  0  0  0  0
    1.5767    2.3201   -1.8409 H   0  0  0  0  0  0  0  0  0  0  0  0
    0.2511    3.4755   -1.5631 H   0  0  0  0  0  0  0  0  0  0  0  0
   -0.9054   -1.4073    0.6834 N   0  0  0  0  0  0  0  0  0  0  0  0
   -0.4475   -2.4822    1.5852 C   0  0  2  0  0  0  0  0  0  0  0  0
    0.8436   -2.0958    2.3363 C   0  0  0  0  0  0  0  0  0  0  0  0
    0.7658   -1.7835    3.5175 O   0  0  0  0  0  0  0  0  0  0  0  0
   -0.3178   -3.8392    0.8763 C   0  0  0  0  0  0  0  0  0  0  0  0
   -1.5833   -0.7510    1.0621 H   0  0  0  0  0  0  0  0  0  0  0  0
   -1.2224   -2.6102    2.3481 H   0  0  0  0  0  0  0  0  0  0  0  0
    0.5205   -3.8520    0.1742 H   0  0  0  0  0  0  0  0  0  0  0  0
   -0.1503   -4.6299    1.6142 H   0  0  0  0  0  0  0  0  0  0  0  0
   -1.2354   -4.0687    0.3264 H   0  0  0  0  0  0  0  0  0  0  0  0
    2.0262   -1.9004    1.6514 N   0  0  0  0  0  0  0  0  0  0  0  0
    3.1893   -1.2468    2.2358 C   0  0  0  0  0  0  0  0  0  0  0  0
    1.9519   -1.9444    0.6309 H   0  0  0  0  0  0  0  0  0  0  0  0
    4.0305   -1.2808    1.5368 H   0  0  0  0  0  0  0  0  0  0  0  0
    2.9659   -0.1988    2.4610 H   0  0  0  0  0  0  0  0  0  0  0  0
    3.4902   -1.7508    3.1603 H   0  0  0  0  0  0  0  0  0  0  0  0
  1  2  2  0  0  0  0
  1  3  1  0  0  0  0
  1  7  1  0  0  0  0
  3  4  1  0  0  0  0
  3  5  1  0  0  0  0
  3  6  1  0  0  0  0
  7  8  1  0  0  0  0
  7 12  1  0  0  0  0
  8  9  1  0  0  0  0
  8 11  1  0  0  0  0
  8 13  1  0  0  0  0
  9 10  2  0  0  0  0
  9 17  1  0  0  0  0
 11 14  1  0  0  0  0
 11 15  1  0  0  0  0
 11 16  1  0  0  0  0
 17 18  1  0  0  0  0
 17 23  1  0  0  0  0
 18 19  1  0  0  0  0
 18 21  1  0  0  0  0
 18 24  1  0  0  0  0
 19 20  2  0  0  0  0
 19 31  1  0  0  0  0
 21 22  1  0  0  0  0
 21 25  1  0  0  0  0
 21 26  1  0  0  0  0
 22 23  1  0  0  0  0
 22 27  1  0  0  0  0
 22 28  1  0  0  0  0
 23 29  1  0  0  0  0
 23 30  1  0  0  0  0
 31 32  1  0  0  0  0
 31 36  1  0  0  0  0
 32 33  1  0  0  0  0
 32 35  1  0  0  0  0
 32 37  1  0  0  0  0
 33 34  2  0  0  0  0
 33 41  1  0  0  0  0
 35 38  1  0  0  0  0
 35 39  1  0  0  0  0
 35 40  1  0  0  0  0
 41 42  1  0  0  0  0
 41 43  1  0  0  0  0
 42 44  1  0  0  0  0
 42 45  1  0  0  0  0
 42 46  1  0  0  0  0
M  END
$$$$

  -OEChem-05262217223D

 46 46  0     1  0  0  0  0  0999 V2000
   -1.6233    0.8950    3.8233 C   0  0  0  0  0  0  0  0  0  0  0  0
   -2.2729   -0.0811    3.4836 O   0  0  0  0  0  0  0  0  0  0  0  0
   -1.3594    1.1678    5.2918 C   0  0  0  0  0  0  0  0  0  0  0  0
   -1.8135    2.1186    5.5812 H   0  0  0  0  0  0  0  0  0  0  0  0
   -1.7872    0.3705    5.9064 H   0  0  0  0  0  0  0  0  0  0  0  0
   -0.2832    1.2143    5.4755 H   0  0  0  0  0  0  0  0  0  0  0  0
   -1.1377    1.7582    2.8640 N   0  0  0  0  0  0  0  0  0  0  0  0
   -1.2108    1.5052    1.4200 C   0  0  2  0  0  0  0  0  0  0  0  0
   -0.1104    2.2633    0.6374 C   0  0  0  0  0  0  0  0  0  0  0  0
    0.4167    3.2213    1.1993 O   0  0  0  0  0  0  0  0  0  0  0  0
   -2.6042    1.9297    0.9357 C   0  0  0  0  0  0  0  0  0  0  0  0
   -0.5386    2.5239    3.1713 H   0  0  0  0  0  0  0  0  0  0  0  0
   -1.0647    0.4380    1.2667 H   0  0  0  0  0  0  0  0  0  0  0  0
   -2.7654    2.9943    1.1337 H   0  0  0  0  0  0  0  0  0  0  0  0
   -2.7190    1.7575   -0.1363 H   0  0  0  0  0  0  0  0  0  0  0  0
   -3.3796    1.3600    1.4572 H   0  0  0  0  0  0  0  0  0  0  0  0
    0.2963    1.9552   -0.6670 N   0  0  0  0  0  0  0  0  0  0  0  0
   -0.2212    0.8804   -1.5359 C   0  0  2  0  0  0  0  0  0  0  0  0
   -0.0743   -0.5696   -1.0102 C   0  0  0  0  0  0  0  0  0  0  0  0
    1.0361   -1.0711   -0.9028 O   0  0  0  0  0  0  0  0  0  0  0  0
    0.5601    1.0686   -2.8474 C   0  0  0  0  0  0  0  0  0  0  0  0
    0.9670    2.5328   -2.8623 C   0  0  0  0  0  0  0  0  0  0  0  0
    1.1624    2.8801   -1.3932 C   0  0  0  0  0  0  0  0  0  0  0  0
   -1.2785    1.0665   -1.7393 H   0  0  0  0  0  0  0  0  0  0  0  0
   -0.0432    0.8043   -3.7215 H   0  0  0  0  0  0  0  0  0  0  0  0
    1.4657    0.4522   -2.8597 H   0  0  0  0  0  0  0  0  0  0  0  0
    1.8755    2.7042   -3.4482 H   0  0  0  0  0  0  0  0  0  0  0  0
    0.1598    3.1413   -3.2828 H   0  0  0  0  0  0  0  0  0  0  0  0
    2.2054    2.7255   -1.0959 H   0  0  0  0  0  0  0  0  0  0  0  0
    0.8998    3.9292   -1.2158 H   0  0  0  0  0  0  0  0  0  0  0  0
   -1.1737   -1.2588   -0.5172 N   0  0  0  0  0  0  0  0  0  0  0  0
   -1.1874   -2.6218    0.0633 C   0  0  2  0  0  0  0  0  0  0  0  0
   -0.4453   -2.8016    1.4114 C   0  0  0  0  0  0  0  0  0  0  0  0
   -0.8230   -3.6720    2.1847 O   0  0  0  0  0  0  0  0  0  0  0  0
   -0.6976   -3.6548   -0.9612 C   0  0  0  0  0  0  0  0  0  0  0  0
   -2.0653   -0.7727   -0.5527 H   0  0  0  0  0  0  0  0  0  0  0  0
   -2.2350   -2.8575    0.2778 H   0  0  0  0  0  0  0  0  0  0  0  0
    0.3722   -3.5401   -1.1588 H   0  0  0  0  0  0  0  0  0  0  0  0
   -0.8649   -4.6674   -0.5798 H   0  0  0  0  0  0  0  0  0  0  0  0
   -1.2421   -3.5465   -1.9040 H   0  0  0  0  0  0  0  0  0  0  0  0
    0.6736   -2.0567    1.7308 N   0  0  0  0  0  0  0  0  0  0  0  0
    1.4770   -2.2948    2.9211 C   0  0  0  0  0  0  0  0  0  0  0  0
    1.0899   -1.5422    0.9522 H   0  0  0  0  0  0  0  0  0  0  0  0
    0.8564   -2.2301    3.8209 H   0  0  0  0  0  0  0  0  0  0  0  0
    1.9369   -3.2874    2.8800 H   0  0  0  0  0  0  0  0  0  0  0  0
    2.2702   -1.5452    2.9958 H   0  0  0  0  0  0  0  0  0  0  0  0
  1  2  2  0  0  0  0
  1  3  1  0  0  0  0
  1  7  1  0  0  0  0
  3  4  1  0  0  0  0
  3  5  1  0  0  0  0
  3  6  1  0  0  0  0
  7  8  1  0  0  0  0
  7 12  1  0  0  0  0
  8  9  1  0  0  0  0
  8 11  1  0  0  0  0
  8 13  1  0  0  0  0
  9 10  2  0  0  0  0
  9 17  1  0  0  0  0
 11 14  1  0  0  0  0
 11 15  1  0  0  0  0
 11 16  1  0  0  0  0
 17 18  1  0  0  0  0
 17 23  1  0  0  0  0
 18 19  1  0  0  0  0
 18 21  1  0  0  0  0
 18 24  1  0  0  0  0
 19 20  2  0  0  0  0
 19 31  1  0  0  0  0
 21 22  1  0  0  0  0
 21 25  1  0  0  0  0
 21 26  1  0  0  0  0
 22 23  1  0  0  0  0
 22 27  1  0  0  0  0
 22 28  1  0  0  0  0
 23 29  1  0  0  0  0
 23 30  1  0  0  0  0
 31 32  1  0  0  0  0
 31 36  1  0  0  0  0
 32 33  1  0  0  0  0
 32 35  1  0  0  0  0
 32 37  1  0  0  0  0
 33 34  2  0  0  0  0
 33 41  1  0  0  0  0
 35 38  1  0  0  0  0
 35 39  1  0  0  0  0
 35 40  1  0  0  0  0
 41 42  1  0  0  0  0
 41 43  1  0  0  0  0
 42 44  1  0  0  0  0
 42 45  1  0  0  0  0
 42 46  1  0  0  0  0
M  END
$$$$

  -OEChem-05262217223D

 46 46  0     1  0  0  0  0  0999 V2000
   -1.4317    0.7354    3.7949 C   0  0  0  0  0  0  0  0  0  0  0  0
   -2.0570   -0.2586    3.4644 O   0  0  0  0  0  0  0  0  0  0  0  0
   -1.1126    0.9886    5.2559 C   0  0  0  0  0  0  0  0  0  0  0  0
   -1.5171    0.1835    5.8754 H   0  0  0  0  0  0  0  0  0  0  0  0
   -0.0302    1.0329    5.3984 H   0  0  0  0  0  0  0  0  0  0  0  0
   -1.5546    1.9354    5.5753 H   0  0  0  0  0  0  0  0  0  0  0  0
   -1.0112    1.6313    2.8356 N   0  0  0  0  0  0  0  0  0  0  0  0
   -1.1381    1.4217    1.3875 C   0  0  2  0  0  0  0  0  0  0  0  0
   -0.0901    2.2507    0.6016 C   0  0  0  0  0  0  0  0  0  0  0  0
    0.4029    3.2231    1.1705 O   0  0  0  0  0  0  0  0  0  0  0  0
   -2.5593    1.8232    0.9727 C   0  0  0  0  0  0  0  0  0  0  0  0
   -0.4394    2.4192    3.1394 H   0  0  0  0  0  0  0  0  0  0  0  0
   -0.9752    0.3635    1.1801 H   0  0  0  0  0  0  0  0  0  0  0  0
   -2.7414    2.8757    1.2132 H   0  0  0  0  0  0  0  0  0  0  0  0
   -2.7096    1.6831   -0.1000 H   0  0  0  0  0  0  0  0  0  0  0  0
   -3.2977    1.2137    1.5031 H   0  0  0  0  0  0  0  0  0  0  0  0
    0.2979    1.9909   -0.7174 N   0  0  0  0  0  0  0  0  0  0  0  0
   -0.2042    0.9093   -1.5807 C   0  0  2  0  0  0  0  0  0  0  0  0
    0.0238   -0.5302   -1.0653 C   0  0  0  0  0  0  0  0  0  0  0  0
    1.1480   -0.8971   -0.7528 O   0  0  0  0  0  0  0  0  0  0  0  0
    0.5519    1.1238   -2.9000 C   0  0  0  0  0  0  0  0  0  0  0  0
    0.9207    2.5993   -2.9124 C   0  0  0  0  0  0  0  0  0  0  0  0
    1.1280    2.9457   -1.4446 C   0  0  0  0  0  0  0  0  0  0  0  0
   -1.2720    1.0579   -1.7587 H   0  0  0  0  0  0  0  0  0  0  0  0
   -0.0556    0.8488   -3.7678 H   0  0  0  0  0  0  0  0  0  0  0  0
    1.4705    0.5262   -2.9220 H   0  0  0  0  0  0  0  0  0  0  0  0
    1.8159    2.7976   -3.5104 H   0  0  0  0  0  0  0  0  0  0  0  0
    0.0917    3.1887   -3.3172 H   0  0  0  0  0  0  0  0  0  0  0  0
    2.1787    2.8174   -1.1621 H   0  0  0  0  0  0  0  0  0  0  0  0
    0.8378    3.9853   -1.2551 H   0  0  0  0  0  0  0  0  0  0  0  0
   -1.0575   -1.3668   -0.8320 N   0  0  0  0  0  0  0  0  0  0  0  0
   -1.0119   -2.7722   -0.3677 C   0  0  2  0  0  0  0  0  0  0  0  0
   -0.5601   -2.9865    1.0972 C   0  0  0  0  0  0  0  0  0  0  0  0
   -1.0598   -3.8986    1.7429 O   0  0  0  0  0  0  0  0  0  0  0  0
   -0.1808   -3.6419   -1.3216 C   0  0  0  0  0  0  0  0  0  0  0  0
   -1.9763   -0.9861   -1.0390 H   0  0  0  0  0  0  0  0  0  0  0  0
   -2.0397   -3.1463   -0.4129 H   0  0  0  0  0  0  0  0  0  0  0  0
    0.8852   -3.4083   -1.2443 H   0  0  0  0  0  0  0  0  0  0  0  0
   -0.3149   -4.6997   -1.0739 H   0  0  0  0  0  0  0  0  0  0  0  0
   -0.4996   -3.4867   -2.3564 H   0  0  0  0  0  0  0  0  0  0  0  0
    0.4216   -2.2045    1.6728 N   0  0  0  0  0  0  0  0  0  0  0  0
    0.8915   -2.3745    3.0397 C   0  0  0  0  0  0  0  0  0  0  0  0
    0.9343   -1.5890    1.0385 H   0  0  0  0  0  0  0  0  0  0  0  0
    0.0492   -2.3495    3.7395 H   0  0  0  0  0  0  0  0  0  0  0  0
    1.4137   -3.3305    3.1484 H   0  0  0  0  0  0  0  0  0  0  0  0
    1.5802   -1.5667    3.3039 H   0  0  0  0  0  0  0  0  0  0  0  0
  1  2  2  0  0  0  0
  1  3  1  0  0  0  0
  1  7  1  0  0  0  0
  3  4  1  0  0  0  0
  3  5  1  0  0  0  0
  3  6  1  0  0  0  0
  7  8  1  0  0  0  0
  7 12  1  0  0  0  0
  8  9  1  0  0  0  0
  8 11  1  0  0  0  0
  8 13  1  0  0  0  0
  9 10  2  0  0  0  0
  9 17  1  0  0  0  0
 11 14  1  0  0  0  0
 11 15  1  0  0  0  0
 11 16  1  0  0  0  0
 17 18  1  0  0  0  0
 17 23  1  0  0  0  0
 18 19  1  0  0  0  0
 18 21  1  0  0  0  0
 18 24  1  0  0  0  0
 19 20  2  0  0  0  0
 19 31  1  0  0  0  0
 21 22  1  0  0  0  0
 21 25  1  0  0  0  0
 21 26  1  0  0  0  0
 22 23  1  0  0  0  0
 22 27  1  0  0  0  0
 22 28  1  0  0  0  0
 23 29  1  0  0  0  0
 23 30  1  0  0  0  0
 31 32  1  0  0  0  0
 31 36  1  0  0  0  0
 32 33  1  0  0  0  0
 32 35  1  0  0  0  0
 32 37  1  0  0  0  0
 33 34  2  0  0  0  0
 33 41  1  0  0  0  0
 35 38  1  0  0  0  0
 35 39  1  0  0  0  0
 35 40  1  0  0  0  0
 41 42  1  0  0  0  0
 41 43  1  0  0  0  0
 42 44  1  0  0  0  0
 42 45  1  0  0  0  0
 42 46  1  0  0  0  0
M  END
$$$$

  -OEChem-05262217223D

 46 46  0     1  0  0  0  0  0999 V2000
   -1.3524    0.7008    3.8196 C   0  0  0  0  0  0  0  0  0  0  0  0
   -1.8957   -0.3460    3.5084 O   0  0  0  0  0  0  0  0  0  0  0  0
   -1.0774    1.0123    5.2784 C   0  0  0  0  0  0  0  0  0  0  0  0
   -1.4006    0.1792    5.9090 H   0  0  0  0  0  0  0  0  0  0  0  0
   -0.0075    1.1743    5.4308 H   0  0  0  0  0  0  0  0  0  0  0  0
   -1.6212    1.9121    5.5762 H   0  0  0  0  0  0  0  0  0  0  0  0
   -0.9860    1.6033    2.8447 N   0  0  0  0  0  0  0  0  0  0  0  0
   -1.0941    1.3694    1.3981 C   0  0  2  0  0  0  0  0  0  0  0  0
   -0.1079    2.2729    0.6114 C   0  0  0  0  0  0  0  0  0  0  0  0
    0.3200    3.2750    1.1817 O   0  0  0  0  0  0  0  0  0  0  0  0
   -2.5422    1.6596    0.9826 C   0  0  0  0  0  0  0  0  0  0  0  0
   -0.4795    2.4384    3.1380 H   0  0  0  0  0  0  0  0  0  0  0  0
   -0.8526    0.3236    1.1950 H   0  0  0  0  0  0  0  0  0  0  0  0
   -2.8025    2.6971    1.2152 H   0  0  0  0  0  0  0  0  0  0  0  0
   -2.6834    1.4993   -0.0881 H   0  0  0  0  0  0  0  0  0  0  0  0
   -3.2317    1.0001    1.5189 H   0  0  0  0  0  0  0  0  0  0  0  0
    0.2851    2.0515   -0.7128 N   0  0  0  0  0  0  0  0  0  0  0  0
   -0.1586    0.9450   -1.5745 C   0  0  2  0  0  0  0  0  0  0  0  0
    0.1590   -0.4828   -1.0785 C   0  0  0  0  0  0  0  0  0  0  0  0
    1.2402   -0.7305   -0.5635 O   0  0  0  0  0  0  0  0  0  0  0  0
    0.5808    1.2029   -2.8938 C   0  0  0  0  0  0  0  0  0  0  0  0
    0.8664    2.6972   -2.9058 C   0  0  0  0  0  0  0  0  0  0  0  0
    1.0572    3.0542   -1.4385 C   0  0  0  0  0  0  0  0  0  0  0  0
   -1.2339    1.0336   -1.7458 H   0  0  0  0  0  0  0  0  0  0  0  0
   -0.0100    0.8937   -3.7618 H   0  0  0  0  0  0  0  0  0  0  0  0
    1.5316    0.6574   -2.9125 H   0  0  0  0  0  0  0  0  0  0  0  0
    1.7471    2.9460   -3.5063 H   0  0  0  0  0  0  0  0  0  0  0  0
    0.0042    3.2393   -3.3074 H   0  0  0  0  0  0  0  0  0  0  0  0
    2.1139    2.9859   -1.1579 H   0  0  0  0  0  0  0  0  0  0  0  0
    0.7074    4.0749   -1.2462 H   0  0  0  0  0  0  0  0  0  0  0  0
   -0.8181   -1.4638   -1.1412 N   0  0  0  0  0  0  0  0  0  0  0  0
   -0.6676   -2.8956   -0.7990 C   0  0  2  0  0  0  0  0  0  0  0  0
   -0.5016   -3.2119    0.7055 C   0  0  0  0  0  0  0  0  0  0  0  0
   -1.0994   -4.1695    1.1787 O   0  0  0  0  0  0  0  0  0  0  0  0
    0.4596   -3.5460   -1.6128 C   0  0  0  0  0  0  0  0  0  0  0  0
   -1.7169   -1.1787   -1.5195 H   0  0  0  0  0  0  0  0  0  0  0  0
   -1.5986   -3.3857   -1.1015 H   0  0  0  0  0  0  0  0  0  0  0  0
    1.4416   -3.2015   -1.2754 H   0  0  0  0  0  0  0  0  0  0  0  0
    0.4234   -4.6338   -1.4955 H   0  0  0  0  0  0  0  0  0  0  0  0
    0.3506   -3.3094   -2.6752 H   0  0  0  0  0  0  0  0  0  0  0  0
    0.3290   -2.4599    1.5110 N   0  0  0  0  0  0  0  0  0  0  0  0
    0.5092   -2.6939    2.9365 C   0  0  0  0  0  0  0  0  0  0  0  0
    0.8729   -1.7293    1.0474 H   0  0  0  0  0  0  0  0  0  0  0  0
   -0.4598   -2.7244    3.4461 H   0  0  0  0  0  0  0  0  0  0  0  0
    1.0269   -3.6436    3.1059 H   0  0  0  0  0  0  0  0  0  0  0  0
    1.1036   -1.8879    3.3770 H   0  0  0  0  0  0  0  0  0  0  0  0
  1  2  2  0  0  0  0
  1  3  1  0  0  0  0
  1  7  1  0  0  0  0
  3  4  1  0  0  0  0
  3  5  1  0  0  0  0
  3  6  1  0  0  0  0
  7  8  1  0  0  0  0
  7 12  1  0  0  0  0
  8  9  1  0  0  0  0
  8 11  1  0  0  0  0
  8 13  1  0  0  0  0
  9 10  2  0  0  0  0
  9 17  1  0  0  0  0
 11 14  1  0  0  0  0
 11 15  1  0  0  0  0
 11 16  1  0  0  0  0
 17 18  1  0  0  0  0
 17 23  1  0  0  0  0
 18 19  1  0  0  0  0
 18 21  1  0  0  0  0
 18 24  1  0  0  0  0
 19 20  2  0  0  0  0
 19 31  1  0  0  0  0
 21 22  1  0  0  0  0
 21 25  1  0  0  0  0
 21 26  1  0  0  0  0
 22 23  1  0  0  0  0
 22 27  1  0  0  0  0
 22 28  1  0  0  0  0
 23 29  1  0  0  0  0
 23 30  1  0  0  0  0
 31 32  1  0  0  0  0
 31 36  1  0  0  0  0
 32 33  1  0  0  0  0
 32 35  1  0  0  0  0
 32 37  1  0  0  0  0
 33 34  2  0  0  0  0
 33 41  1  0  0  0  0
 35 38  1  0  0  0  0
 35 39  1  0  0  0  0
 35 40  1  0  0  0  0
 41 42  1  0  0  0  0
 41 43  1  0  0  0  0
 42 44  1  0  0  0  0
 42 45  1  0  0  0  0
 42 46  1  0  0  0  0
M  END
$$$$

  -OEChem-05262217223D

 46 46  0     1  0  0  0  0  0999 V2000
   -1.2730    0.6379    3.8579 C   0  0  0  0  0  0  0  0  0  0  0  0
   -1.6565   -0.4857    3.5781 O   0  0  0  0  0  0  0  0  0  0  0  0
   -1.0380    1.0220    5.3064 C   0  0  0  0  0  0  0  0  0  0  0  0
   -1.7370    1.8084    5.6010 H   0  0  0  0  0  0  0  0  0  0  0  0
   -1.1879    0.1549    5.9559 H   0  0  0  0  0  0  0  0  0  0  0  0
   -0.0157    1.3856    5.4356 H   0  0  0  0  0  0  0  0  0  0  0  0
   -1.0541    1.5616    2.8592 N   0  0  0  0  0  0  0  0  0  0  0  0
   -1.1256    1.2810    1.4180 C   0  0  2  0  0  0  0  0  0  0  0  0
   -0.2581    2.2902    0.6180 C   0  0  0  0  0  0  0  0  0  0  0  0
    0.0540    3.3385    1.1819 O   0  0  0  0  0  0  0  0  0  0  0  0
   -2.5992    1.3697    1.0007 C   0  0  0  0  0  0  0  0  0  0  0  0
   -0.6573    2.4618    3.1285 H   0  0  0  0  0  0  0  0  0  0  0  0
   -0.7495    0.2714    1.2356 H   0  0  0  0  0  0  0  0  0  0  0  0
   -2.9866    2.3772    1.1834 H   0  0  0  0  0  0  0  0  0  0  0  0
   -2.7231    1.1377   -0.0586 H   0  0  0  0  0  0  0  0  0  0  0  0
   -3.1995    0.6575    1.5756 H   0  0  0  0  0  0  0  0  0  0  0  0
    0.1469    2.1171   -0.7101 N   0  0  0  0  0  0  0  0  0  0  0  0
   -0.1709    0.9678   -1.5723 C   0  0  2  0  0  0  0  0  0  0  0  0
    0.3101   -0.4200   -1.0940 C   0  0  0  0  0  0  0  0  0  0  0  0
    1.2896   -0.5202   -0.3683 O   0  0  0  0  0  0  0  0  0  0  0  0
    0.5329    1.3103   -2.8915 C   0  0  0  0  0  0  0  0  0  0  0  0
    0.6488    2.8270   -2.9028 C   0  0  0  0  0  0  0  0  0  0  0  0
    0.7999    3.2013   -1.4355 C   0  0  0  0  0  0  0  0  0  0  0  0
   -1.2507    0.9334   -1.7380 H   0  0  0  0  0  0  0  0  0  0  0  0
   -0.0201    0.9378   -3.7595 H   0  0  0  0  0  0  0  0  0  0  0  0
    1.5388    0.8744   -2.9104 H   0  0  0  0  0  0  0  0  0  0  0  0
    1.4953    3.1740   -3.5037 H   0  0  0  0  0  0  0  0  0  0  0  0
   -0.2693    3.2694   -3.3031 H   0  0  0  0  0  0  0  0  0  0  0  0
    1.8577    3.2525   -1.1559 H   0  0  0  0  0  0  0  0  0  0  0  0
    0.3376    4.1756   -1.2407 H   0  0  0  0  0  0  0  0  0  0  0  0
   -0.4147   -1.5497   -1.4400 N   0  0  0  0  0  0  0  0  0  0  0  0
   -0.0543   -2.9580   -1.1665 C   0  0  2  0  0  0  0  0  0  0  0  0
   -0.1668   -3.3909    0.3129 C   0  0  0  0  0  0  0  0  0  0  0  0
   -0.7778   -4.4154    0.5865 O   0  0  0  0  0  0  0  0  0  0  0  0
    1.3332   -3.2998   -1.7285 C   0  0  0  0  0  0  0  0  0  0  0  0
   -1.2460   -1.3937   -2.0026 H   0  0  0  0  0  0  0  0  0  0  0  0
   -0.7746   -3.5760   -1.7125 H   0  0  0  0  0  0  0  0  0  0  0  0
    2.1265   -2.8137   -1.1530 H   0  0  0  0  0  0  0  0  0  0  0  0
    1.4978   -4.3811   -1.6832 H   0  0  0  0  0  0  0  0  0  0  0  0
    1.4120   -2.9811   -2.7720 H   0  0  0  0  0  0  0  0  0  0  0  0
    0.4115   -2.6496    1.3222 N   0  0  0  0  0  0  0  0  0  0  0  0
    0.2732   -2.9586    2.7381 C   0  0  0  0  0  0  0  0  0  0  0  0
    0.9055   -1.8004    1.0395 H   0  0  0  0  0  0  0  0  0  0  0  0
    0.7289   -2.1679    3.3417 H   0  0  0  0  0  0  0  0  0  0  0  0
   -0.7842   -3.0345    3.0130 H   0  0  0  0  0  0  0  0  0  0  0  0
    0.7682   -3.9059    2.9737 H   0  0  0  0  0  0  0  0  0  0  0  0
  1  2  2  0  0  0  0
  1  3  1  0  0  0  0
  1  7  1  0  0  0  0
  3  4  1  0  0  0  0
  3  5  1  0  0  0  0
  3  6  1  0  0  0  0
  7  8  1  0  0  0  0
  7 12  1  0  0  0  0
  8  9  1  0  0  0  0
  8 11  1  0  0  0  0
  8 13  1  0  0  0  0
  9 10  2  0  0  0  0
  9 17  1  0  0  0  0
 11 14  1  0  0  0  0
 11 15  1  0  0  0  0
 11 16  1  0  0  0  0
 17 18  1  0  0  0  0
 17 23  1  0  0  0  0
 18 19  1  0  0  0  0
 18 21  1  0  0  0  0
 18 24  1  0  0  0  0
 19 20  2  0  0  0  0
 19 31  1  0  0  0  0
 21 22  1  0  0  0  0
 21 25  1  0  0  0  0
 21 26  1  0  0  0  0
 22 23  1  0  0  0  0
 22 27  1  0  0  0  0
 22 28  1  0  0  0  0
 23 29  1  0  0  0  0
 23 30  1  0  0  0  0
 31 32  1  0  0  0  0
 31 36  1  0  0  0  0
 32 33  1  0  0  0  0
 32 35  1  0  0  0  0
 32 37  1  0  0  0  0
 33 34  2  0  0  0  0
 33 41  1  0  0  0  0
 35 38  1  0  0  0  0
 35 39  1  0  0  0  0
 35 40  1  0  0  0  0
 41 42  1  0  0  0  0
 41 43  1  0  0  0  0
 42 44  1  0  0  0  0
 42 45  1  0  0  0  0
 42 46  1  0  0  0  0
M  END
$$$$

  -OEChem-05262217223D

 46 46  0     1  0  0  0  0  0999 V2000
   -1.1972    0.6285    3.8660 C   0  0  0  0  0  0  0  0  0  0  0  0
   -1.4948   -0.5267    3.6087 O   0  0  0  0  0  0  0  0  0  0  0  0
   -0.9790    1.0556    5.3051 C   0  0  0  0  0  0  0  0  0  0  0  0
   -1.7397    1.7836    5.5975 H   0  0  0  0  0  0  0  0  0  0  0  0
   -1.0450    0.1898    5.9697 H   0  0  0  0  0  0  0  0  0  0  0  0
    0.0097    1.5084    5.4133 H   0  0  0  0  0  0  0  0  0  0  0  0
   -1.0588    1.5509    2.8518 N   0  0  0  0  0  0  0  0  0  0  0  0
   -1.1127    1.2423    1.4157 C   0  0  2  0  0  0  0  0  0  0  0  0
   -0.3345    2.3054    0.5932 C   0  0  0  0  0  0  0  0  0  0  0  0
   -0.1173    3.3882    1.1366 O   0  0  0  0  0  0  0  0  0  0  0  0
   -2.5891    1.2072    1.0021 C   0  0  0  0  0  0  0  0  0  0  0  0
   -0.7294    2.4826    3.1040 H   0  0  0  0  0  0  0  0  0  0  0  0
   -0.6627    0.2619    1.2488 H   0  0  0  0  0  0  0  0  0  0  0  0
   -3.0588    2.1787    1.1865 H   0  0  0  0  0  0  0  0  0  0  0  0
   -2.6944    0.9667   -0.0578 H   0  0  0  0  0  0  0  0  0  0  0  0
   -3.1257    0.4462    1.5777 H   0  0  0  0  0  0  0  0  0  0  0  0
    0.0879    2.1449   -0.7323 N   0  0  0  0  0  0  0  0  0  0  0  0
   -0.1243    0.9566   -1.5755 C   0  0  2  0  0  0  0  0  0  0  0  0
    0.4724   -0.3824   -1.0865 C   0  0  0  0  0  0  0  0  0  0  0  0
    1.3065   -0.4095   -0.1919 O   0  0  0  0  0  0  0  0  0  0  0  0
    0.5455    1.3428   -2.9008 C   0  0  0  0  0  0  0  0  0  0  0  0
    0.5220    2.8633   -2.9366 C   0  0  0  0  0  0  0  0  0  0  0  0
    0.6376    3.2732   -1.4760 C   0  0  0  0  0  0  0  0  0  0  0  0
   -1.1970    0.8229   -1.7371 H   0  0  0  0  0  0  0  0  0  0  0  0
    0.0286    0.9087   -3.7625 H   0  0  0  0  0  0  0  0  0  0  0  0
    1.5870    1.0007   -2.9143 H   0  0  0  0  0  0  0  0  0  0  0  0
    1.3338    3.2767   -3.5433 H   0  0  0  0  0  0  0  0  0  0  0  0
   -0.4321    3.2132   -3.3439 H   0  0  0  0  0  0  0  0  0  0  0  0
    1.6859    3.4279   -1.1984 H   0  0  0  0  0  0  0  0  0  0  0  0
    0.0858    4.2030   -1.2972 H   0  0  0  0  0  0  0  0  0  0  0  0
    0.0409   -1.5640   -1.6689 N   0  0  0  0  0  0  0  0  0  0  0  0
    0.5281   -2.9300   -1.3821 C   0  0  2  0  0  0  0  0  0  0  0  0
    0.1380   -3.4722    0.0116 C   0  0  0  0  0  0  0  0  0  0  0  0
   -0.5056   -4.5106    0.0866 O   0  0  0  0  0  0  0  0  0  0  0  0
    2.0408   -3.0506   -1.6171 C   0  0  0  0  0  0  0  0  0  0  0  0
   -0.6865   -1.4767   -2.3729 H   0  0  0  0  0  0  0  0  0  0  0  0
    0.0464   -3.5937   -2.1076 H   0  0  0  0  0  0  0  0  0  0  0  0
    2.6081   -2.5002   -0.8609 H   0  0  0  0  0  0  0  0  0  0  0  0
    2.3432   -4.1015   -1.5681 H   0  0  0  0  0  0  0  0  0  0  0  0
    2.3052   -2.6603   -2.6043 H   0  0  0  0  0  0  0  0  0  0  0  0
    0.4767   -2.7920    1.1634 N   0  0  0  0  0  0  0  0  0  0  0  0
    0.0070   -3.1664    2.4903 C   0  0  0  0  0  0  0  0  0  0  0  0
    0.9353   -1.8869    1.0360 H   0  0  0  0  0  0  0  0  0  0  0  0
    0.4426   -2.5041    3.2445 H   0  0  0  0  0  0  0  0  0  0  0  0
   -1.0835   -3.0855    2.5473 H   0  0  0  0  0  0  0  0  0  0  0  0
    0.2978   -4.1955    2.7250 H   0  0  0  0  0  0  0  0  0  0  0  0
  1  2  2  0  0  0  0
  1  3  1  0  0  0  0
  1  7  1  0  0  0  0
  3  4  1  0  0  0  0
  3  5  1  0  0  0  0
  3  6  1  0  0  0  0
  7  8  1  0  0  0  0
  7 12  1  0  0  0  0
  8  9  1  0  0  0  0
  8 11  1  0  0  0  0
  8 13  1  0  0  0  0
  9 10  2  0  0  0  0
  9 17  1  0  0  0  0
 11 14  1  0  0  0  0
 11 15  1  0  0  0  0
 11 16  1  0  0  0  0
 17 18  1  0  0  0  0
 17 23  1  0  0  0  0
 18 19  1  0  0  0  0
 18 21  1  0  0  0  0
 18 24  1  0  0  0  0
 19 20  2  0  0  0  0
 19 31  1  0  0  0  0
 21 22  1  0  0  0  0
 21 25  1  0  0  0  0
 21 26  1  0  0  0  0
 22 23  1  0  0  0  0
 22 27  1  0  0  0  0
 22 28  1  0  0  0  0
 23 29  1  0  0  0  0
 23 30  1  0  0  0  0
 31 32  1  0  0  0  0
 31 36  1  0  0  0  0
 32 33  1  0  0  0  0
 32 35  1  0  0  0  0
 32 37  1  0  0  0  0
 33 34  2  0  0  0  0
 33 41  1  0  0  0  0
 35 38  1  0  0  0  0
 35 39  1  0  0  0  0
 35 40  1  0  0  0  0
 41 42  1  0  0  0  0
 41 43  1  0  0  0  0
 42 44  1  0  0  0  0
 42 45  1  0  0  0  0
 42 46  1  0  0  0  0
M  END
$$$$

  -OEChem-05262217223D

 46 46  0     1  0  0  0  0  0999 V2000
   -2.5748   -0.0703    2.4907 C   0  0  0  0  0  0  0  0  0  0  0  0
   -3.1452   -0.8371    1.7276 O   0  0  0  0  0  0  0  0  0  0  0  0
   -2.2086   -0.5262    3.8903 C   0  0  0  0  0  0  0  0  0  0  0  0
   -2.6553    0.1420    4.6305 H   0  0  0  0  0  0  0  0  0  0  0  0
   -2.5752   -1.5415    4.0642 H   0  0  0  0  0  0  0  0  0  0  0  0
   -1.1222   -0.5188    4.0091 H   0  0  0  0  0  0  0  0  0  0  0  0
   -2.2525    1.2098    2.0868 N   0  0  0  0  0  0  0  0  0  0  0  0
   -2.3318    1.6601    0.6918 C   0  0  2  0  0  0  0  0  0  0  0  0
   -1.1671    2.6117    0.3008 C   0  0  0  0  0  0  0  0  0  0  0  0
   -1.1988    3.7530    0.7542 O   0  0  0  0  0  0  0  0  0  0  0  0
   -3.6931    2.3437    0.5092 C   0  0  0  0  0  0  0  0  0  0  0  0
   -1.7008    1.7704    2.7311 H   0  0  0  0  0  0  0  0  0  0  0  0
   -2.3120    0.8041    0.0147 H   0  0  0  0  0  0  0  0  0  0  0  0
   -3.7959    3.1921    1.1936 H   0  0  0  0  0  0  0  0  0  0  0  0
   -3.8019    2.7089   -0.5165 H   0  0  0  0  0  0  0  0  0  0  0  0
   -4.5023    1.6347    0.7117 H   0  0  0  0  0  0  0  0  0  0  0  0
   -0.0866    2.2818   -0.5329 N   0  0  0  0  0  0  0  0  0  0  0  0
    0.1694    0.9916   -1.1936 C   0  0  2  0  0  0  0  0  0  0  0  0
    0.0096   -0.3116   -0.3740 C   0  0  0  0  0  0  0  0  0  0  0  0
    0.0396   -0.2837    0.8502 O   0  0  0  0  0  0  0  0  0  0  0  0
    1.6319    1.1178   -1.6392 C   0  0  0  0  0  0  0  0  0  0  0  0
    1.9195    2.6081   -1.7770 C   0  0  0  0  0  0  0  0  0  0  0  0
    0.8322    3.3224   -0.9827 C   0  0  0  0  0  0  0  0  0  0  0  0
   -0.4827    0.9209   -2.0694 H   0  0  0  0  0  0  0  0  0  0  0  0
    1.8174    0.5841   -2.5768 H   0  0  0  0  0  0  0  0  0  0  0  0
    2.2949    0.7006   -0.8719 H   0  0  0  0  0  0  0  0  0  0  0  0
    2.9171    2.8579   -1.4014 H   0  0  0  0  0  0  0  0  0  0  0  0
    1.8624    2.9061   -2.8288 H   0  0  0  0  0  0  0  0  0  0  0  0
    1.2775    3.8396   -0.1252 H   0  0  0  0  0  0  0  0  0  0  0  0
    0.3166    4.0607   -1.6063 H   0  0  0  0  0  0  0  0  0  0  0  0
    0.2401   -1.5343   -0.9796 N   0  0  0  0  0  0  0  0  0  0  0  0
    0.2668   -2.8200   -0.2634 C   0  0  2  0  0  0  0  0  0  0  0  0
    1.6424   -3.1005    0.3893 C   0  0  0  0  0  0  0  0  0  0  0  0
    2.3451   -4.0413    0.0396 O   0  0  0  0  0  0  0  0  0  0  0  0
   -0.1569   -3.9087   -1.2564 C   0  0  0  0  0  0  0  0  0  0  0  0
    0.3784   -1.5442   -1.9855 H   0  0  0  0  0  0  0  0  0  0  0  0
   -0.4758   -2.8044    0.5425 H   0  0  0  0  0  0  0  0  0  0  0  0
    0.5530   -3.9733   -2.0871 H   0  0  0  0  0  0  0  0  0  0  0  0
   -0.1926   -4.8818   -0.7564 H   0  0  0  0  0  0  0  0  0  0  0  0
   -1.1512   -3.6917   -1.6582 H   0  0  0  0  0  0  0  0  0  0  0  0
    2.1035   -2.2460    1.3709 N   0  0  0  0  0  0  0  0  0  0  0  0
    3.4044   -2.3675    2.0134 C   0  0  0  0  0  0  0  0  0  0  0  0
    1.5162   -1.4318    1.5679 H   0  0  0  0  0  0  0  0  0  0  0  0
    3.5022   -3.3440    2.4992 H   0  0  0  0  0  0  0  0  0  0  0  0
    4.2070   -2.2581    1.2768 H   0  0  0  0  0  0  0  0  0  0  0  0
    3.5228   -1.5905    2.7745 H   0  0  0  0  0  0  0  0  0  0  0  0
  1  2  2  0  0  0  0
  1  3  1  0  0  0  0
  1  7  1  0  0  0  0
  3  4  1  0  0  0  0
  3  5  1  0  0  0  0
  3  6  1  0  0  0  0
  7  8  1  0  0  0  0
  7 12  1  0  0  0  0
  8  9  1  0  0  0  0
  8 11  1  0  0  0  0
  8 13  1  0  0  0  0
  9 10  2  0  0  0  0
  9 17  1  0  0  0  0
 11 14  1  0  0  0  0
 11 15  1  0  0  0  0
 11 16  1  0  0  0  0
 17 18  1  0  0  0  0
 17 23  1  0  0  0  0
 18 19  1  0  0  0  0
 18 21  1  0  0  0  0
 18 24  1  0  0  0  0
 19 20  2  0  0  0  0
 19 31  1  0  0  0  0
 21 22  1  0  0  0  0
 21 25  1  0  0  0  0
 21 26  1  0  0  0  0
 22 23  1  0  0  0  0
 22 27  1  0  0  0  0
 22 28  1  0  0  0  0
 23 29  1  0  0  0  0
 23 30  1  0  0  0  0
 31 32  1  0  0  0  0
 31 36  1  0  0  0  0
 32 33  1  0  0  0  0
 32 35  1  0  0  0  0
 32 37  1  0  0  0  0
 33 34  2  0  0  0  0
 33 41  1  0  0  0  0
 35 38  1  0  0  0  0
 35 39  1  0  0  0  0
 35 40  1  0  0  0  0
 41 42  1  0  0  0  0
 41 43  1  0  0  0  0
 42 44  1  0  0  0  0
 42 45  1  0  0  0  0
 42 46  1  0  0  0  0
M  END
$$$$

  -OEChem-05262217223D

 46 46  0     1  0  0  0  0  0999 V2000
   -2.9642    0.7713    3.1276 C   0  0  0  0  0  0  0  0  0  0  0  0
   -4.0326    1.3609    3.1658 O   0  0  0  0  0  0  0  0  0  0  0  0
   -2.6729   -0.3327    4.1264 C   0  0  0  0  0  0  0  0  0  0  0  0
   -3.5359   -0.4873    4.7801 H   0  0  0  0  0  0  0  0  0  0  0  0
   -2.4574   -1.2651    3.5988 H   0  0  0  0  0  0  0  0  0  0  0  0
   -1.8101   -0.0610    4.7396 H   0  0  0  0  0  0  0  0  0  0  0  0
   -2.0305    1.0683    2.1582 N   0  0  0  0  0  0  0  0  0  0  0  0
   -2.2203    2.0437    1.0796 C   0  0  2  0  0  0  0  0  0  0  0  0
   -0.9235    2.7670    0.6103 C   0  0  0  0  0  0  0  0  0  0  0  0
   -0.7824    3.8992    1.0638 O   0  0  0  0  0  0  0  0  0  0  0  0
   -3.0203    1.4133   -0.0683 C   0  0  0  0  0  0  0  0  0  0  0  0
   -1.2258    0.4430    2.0890 H   0  0  0  0  0  0  0  0  0  0  0  0
   -2.8518    2.8473    1.4778 H   0  0  0  0  0  0  0  0  0  0  0  0
   -3.1046    2.1163   -0.9026 H   0  0  0  0  0  0  0  0  0  0  0  0
   -2.5596    0.4929   -0.4272 H   0  0  0  0  0  0  0  0  0  0  0  0
   -4.0303    1.1699    0.2765 H   0  0  0  0  0  0  0  0  0  0  0  0
    0.0758    2.3331   -0.2893 N   0  0  0  0  0  0  0  0  0  0  0  0
    0.2013    1.0710   -1.0504 C   0  0  2  0  0  0  0  0  0  0  0  0
   -0.0408   -0.3179   -0.4032 C   0  0  0  0  0  0  0  0  0  0  0  0
   -0.2483   -0.4516    0.7949 O   0  0  0  0  0  0  0  0  0  0  0  0
    1.6500    1.1144   -1.5641 C   0  0  0  0  0  0  0  0  0  0  0  0
    2.0572    2.5762   -1.6231 C   0  0  0  0  0  0  0  0  0  0  0  0
    1.0720    3.3128   -0.7303 C   0  0  0  0  0  0  0  0  0  0  0  0
   -0.4838    1.1416   -1.9008 H   0  0  0  0  0  0  0  0  0  0  0  0
    1.7489    0.6358   -2.5436 H   0  0  0  0  0  0  0  0  0  0  0  0
    2.3126    0.5975   -0.8597 H   0  0  0  0  0  0  0  0  0  0  0  0
    3.0888    2.7187   -1.2854 H   0  0  0  0  0  0  0  0  0  0  0  0
    1.9749    2.9500   -2.6487 H   0  0  0  0  0  0  0  0  0  0  0  0
    1.6053    3.7328    0.1302 H   0  0  0  0  0  0  0  0  0  0  0  0
    0.5983    4.1347   -1.2785 H   0  0  0  0  0  0  0  0  0  0  0  0
    0.3866   -1.4527   -1.0744 N   0  0  0  0  0  0  0  0  0  0  0  0
    0.5409   -2.7835   -0.4637 C   0  0  2  0  0  0  0  0  0  0  0  0
    1.8675   -2.9102    0.3255 C   0  0  0  0  0  0  0  0  0  0  0  0
    2.7474   -3.6911   -0.0139 O   0  0  0  0  0  0  0  0  0  0  0  0
    0.4164   -3.8187   -1.5884 C   0  0  0  0  0  0  0  0  0  0  0  0
    0.7642   -1.3193   -2.0085 H   0  0  0  0  0  0  0  0  0  0  0  0
   -0.2761   -2.9643    0.2430 H   0  0  0  0  0  0  0  0  0  0  0  0
    1.2127   -3.6843   -2.3275 H   0  0  0  0  0  0  0  0  0  0  0  0
    0.4925   -4.8317   -1.1801 H   0  0  0  0  0  0  0  0  0  0  0  0
   -0.5504   -3.7223   -2.0917 H   0  0  0  0  0  0  0  0  0  0  0  0
    2.0803   -2.0903    1.4157 N   0  0  0  0  0  0  0  0  0  0  0  0
    3.3066   -2.0786    2.2011 C   0  0  0  0  0  0  0  0  0  0  0  0
    1.3482   -1.4064    1.6165 H   0  0  0  0  0  0  0  0  0  0  0  0
    3.4811   -3.0603    2.6534 H   0  0  0  0  0  0  0  0  0  0  0  0
    4.1638   -1.8235    1.5697 H   0  0  0  0  0  0  0  0  0  0  0  0
    3.2336   -1.3373    3.0026 H   0  0  0  0  0  0  0  0  0  0  0  0
  1  2  2  0  0  0  0
  1  3  1  0  0  0  0
  1  7  1  0  0  0  0
  3  4  1  0  0  0  0
  3  5  1  0  0  0  0
  3  6  1  0  0  0  0
  7  8  1  0  0  0  0
  7 12  1  0  0  0  0
  8  9  1  0  0  0  0
  8 11  1  0  0  0  0
  8 13  1  0  0  0  0
  9 10  2  0  0  0  0
  9 17  1  0  0  0  0
 11 14  1  0  0  0  0
 11 15  1  0  0  0  0
 11 16  1  0  0  0  0
 17 18  1  0  0  0  0
 17 23  1  0  0  0  0
 18 19  1  0  0  0  0
 18 21  1  0  0  0  0
 18 24  1  0  0  0  0
 19 20  2  0  0  0  0
 19 31  1  0  0  0  0
 21 22  1  0  0  0  0
 21 25  1  0  0  0  0
 21 26  1  0  0  0  0
 22 23  1  0  0  0  0
 22 27  1  0  0  0  0
 22 28  1  0  0  0  0
 23 29  1  0  0  0  0
 23 30  1  0  0  0  0
 31 32  1  0  0  0  0
 31 36  1  0  0  0  0
 32 33  1  0  0  0  0
 32 35  1  0  0  0  0
 32 37  1  0  0  0  0
 33 34  2  0  0  0  0
 33 41  1  0  0  0  0
 35 38  1  0  0  0  0
 35 39  1  0  0  0  0
 35 40  1  0  0  0  0
 41 42  1  0  0  0  0
 41 43  1  0  0  0  0
 42 44  1  0  0  0  0
 42 45  1  0  0  0  0
 42 46  1  0  0  0  0
M  END
$$$$

  -OEChem-05262217223D

 46 46  0     1  0  0  0  0  0999 V2000
   -2.8199    0.6451    3.2442 C   0  0  0  0  0  0  0  0  0  0  0  0
   -3.8530    1.2761    3.4011 O   0  0  0  0  0  0  0  0  0  0  0  0
   -2.5061   -0.5278    4.1538 C   0  0  0  0  0  0  0  0  0  0  0  0
   -3.2518   -0.5974    4.9508 H   0  0  0  0  0  0  0  0  0  0  0  0
   -2.5149   -1.4570    3.5790 H   0  0  0  0  0  0  0  0  0  0  0  0
   -1.5198   -0.3962    4.6051 H   0  0  0  0  0  0  0  0  0  0  0  0
   -1.9534    0.9502    2.2164 N   0  0  0  0  0  0  0  0  0  0  0  0
   -2.2099    1.9471    1.1715 C   0  0  2  0  0  0  0  0  0  0  0  0
   -0.9584    2.7190    0.6584 C   0  0  0  0  0  0  0  0  0  0  0  0
   -0.8453    3.8476    1.1299 O   0  0  0  0  0  0  0  0  0  0  0  0
   -3.0442    1.3308    0.0407 C   0  0  0  0  0  0  0  0  0  0  0  0
   -1.2127    0.2728    2.0339 H   0  0  0  0  0  0  0  0  0  0  0  0
   -2.8441    2.7237    1.6167 H   0  0  0  0  0  0  0  0  0  0  0  0
   -3.2253    2.0733   -0.7425 H   0  0  0  0  0  0  0  0  0  0  0  0
   -2.5520    0.4663   -0.4048 H   0  0  0  0  0  0  0  0  0  0  0  0
   -4.0126    1.0044    0.4328 H   0  0  0  0  0  0  0  0  0  0  0  0
    0.0255    2.3465   -0.2885 N   0  0  0  0  0  0  0  0  0  0  0  0
    0.1967    1.1121   -1.0936 C   0  0  2  0  0  0  0  0  0  0  0  0
    0.0588   -0.3229   -0.5059 C   0  0  0  0  0  0  0  0  0  0  0  0
   -0.3866   -0.5427    0.6090 O   0  0  0  0  0  0  0  0  0  0  0  0
    1.6093    1.2756   -1.6840 C   0  0  0  0  0  0  0  0  0  0  0  0
    1.9112    2.7615   -1.7249 C   0  0  0  0  0  0  0  0  0  0  0  0
    0.9293    3.4015   -0.7598 C   0  0  0  0  0  0  0  0  0  0  0  0
   -0.5313    1.1701   -1.9085 H   0  0  0  0  0  0  0  0  0  0  0  0
    1.6875    0.8285   -2.6804 H   0  0  0  0  0  0  0  0  0  0  0  0
    2.3473    0.7971   -1.0296 H   0  0  0  0  0  0  0  0  0  0  0  0
    2.9477    2.9678   -1.4390 H   0  0  0  0  0  0  0  0  0  0  0  0
    1.7458    3.1544   -2.7333 H   0  0  0  0  0  0  0  0  0  0  0  0
    1.4810    3.8387    0.0807 H   0  0  0  0  0  0  0  0  0  0  0  0
    0.3705    4.2008   -1.2593 H   0  0  0  0  0  0  0  0  0  0  0  0
    0.7864   -1.3656   -1.0607 N   0  0  0  0  0  0  0  0  0  0  0  0
    0.9849   -2.6856   -0.4374 C   0  0  2  0  0  0  0  0  0  0  0  0
    2.1331   -2.6669    0.6011 C   0  0  0  0  0  0  0  0  0  0  0  0
    3.1401   -3.3493    0.4618 O   0  0  0  0  0  0  0  0  0  0  0  0
    1.2162   -3.6945   -1.5692 C   0  0  0  0  0  0  0  0  0  0  0  0
    1.3340   -1.1530   -1.8898 H   0  0  0  0  0  0  0  0  0  0  0  0
    0.0752   -2.9893    0.0916 H   0  0  0  0  0  0  0  0  0  0  0  0
    2.1247   -3.4483   -2.1282 H   0  0  0  0  0  0  0  0  0  0  0  0
    1.3262   -4.7040   -1.1596 H   0  0  0  0  0  0  0  0  0  0  0  0
    0.3677   -3.6939   -2.2600 H   0  0  0  0  0  0  0  0  0  0  0  0
    2.0397   -1.8182    1.6862 N   0  0  0  0  0  0  0  0  0  0  0  0
    3.0901   -1.6480    2.6811 C   0  0  0  0  0  0  0  0  0  0  0  0
    1.2091   -1.2260    1.7244 H   0  0  0  0  0  0  0  0  0  0  0  0
    3.2916   -2.5955    3.1918 H   0  0  0  0  0  0  0  0  0  0  0  0
    4.0131   -1.2990    2.2069 H   0  0  0  0  0  0  0  0  0  0  0  0
    2.7855   -0.9101    3.4294 H   0  0  0  0  0  0  0  0  0  0  0  0
  1  2  2  0  0  0  0
  1  3  1  0  0  0  0
  1  7  1  0  0  0  0
  3  4  1  0  0  0  0
  3  5  1  0  0  0  0
  3  6  1  0  0  0  0
  7  8  1  0  0  0  0
  7 12  1  0  0  0  0
  8  9  1  0  0  0  0
  8 11  1  0  0  0  0
  8 13  1  0  0  0  0
  9 10  2  0  0  0  0
  9 17  1  0  0  0  0
 11 14  1  0  0  0  0
 11 15  1  0  0  0  0
 11 16  1  0  0  0  0
 17 18  1  0  0  0  0
 17 23  1  0  0  0  0
 18 19  1  0  0  0  0
 18 21  1  0  0  0  0
 18 24  1  0  0  0  0
 19 20  2  0  0  0  0
 19 31  1  0  0  0  0
 21 22  1  0  0  0  0
 21 25  1  0  0  0  0
 21 26  1  0  0  0  0
 22 23  1  0  0  0  0
 22 27  1  0  0  0  0
 22 28  1  0  0  0  0
 23 29  1  0  0  0  0
 23 30  1  0  0  0  0
 31 32  1  0  0  0  0
 31 36  1  0  0  0  0
 32 33  1  0  0  0  0
 32 35  1  0  0  0  0
 32 37  1  0  0  0  0
 33 34  2  0  0  0  0
 33 41  1  0  0  0  0
 35 38  1  0  0  0  0
 35 39  1  0  0  0  0
 35 40  1  0  0  0  0
 41 42  1  0  0  0  0
 41 43  1  0  0  0  0
 42 44  1  0  0  0  0
 42 45  1  0  0  0  0
 42 46  1  0  0  0  0
M  END
$$$$

  -OEChem-05262217223D

 46 46  0     1  0  0  0  0  0999 V2000
   -1.7107    1.0626    3.0418 C   0  0  0  0  0  0  0  0  0  0  0  0
   -2.0660    2.0940    3.5868 O   0  0  0  0  0  0  0  0  0  0  0  0
   -0.9344    0.0212    3.8244 C   0  0  0  0  0  0  0  0  0  0  0  0
   -0.8387    0.3288    4.8694 H   0  0  0  0  0  0  0  0  0  0  0  0
   -1.4518   -0.9402    3.7841 H   0  0  0  0  0  0  0  0  0  0  0  0
    0.0651   -0.0911    3.3962 H   0  0  0  0  0  0  0  0  0  0  0  0
   -1.9813    0.8374    1.7093 N   0  0  0  0  0  0  0  0  0  0  0  0
   -2.4931    1.8471    0.7785 C   0  0  2  0  0  0  0  0  0  0  0  0
   -1.4087    2.7885    0.1899 C   0  0  0  0  0  0  0  0  0  0  0  0
   -1.6214    3.9798    0.4024 O   0  0  0  0  0  0  0  0  0  0  0  0
   -3.3312    1.1822   -0.3181 C   0  0  0  0  0  0  0  0  0  0  0  0
   -1.5892   -0.0134    1.3040 H   0  0  0  0  0  0  0  0  0  0  0  0
   -3.1866    2.4842    1.3405 H   0  0  0  0  0  0  0  0  0  0  0  0
   -4.1043    0.5513    0.1311 H   0  0  0  0  0  0  0  0  0  0  0  0
   -3.8216    1.9481   -0.9268 H   0  0  0  0  0  0  0  0  0  0  0  0
   -2.7178    0.5633   -0.9753 H   0  0  0  0  0  0  0  0  0  0  0  0
   -0.3161    2.4936   -0.6598 N   0  0  0  0  0  0  0  0  0  0  0  0
    0.1636    1.2249   -1.2696 C   0  0  2  0  0  0  0  0  0  0  0  0
    0.2860   -0.1208   -0.4953 C   0  0  0  0  0  0  0  0  0  0  0  0
   -0.7080   -0.7082   -0.0951 O   0  0  0  0  0  0  0  0  0  0  0  0
    1.5356    1.6165   -1.8519 C   0  0  0  0  0  0  0  0  0  0  0  0
    1.5081    3.1092   -2.1108 C   0  0  0  0  0  0  0  0  0  0  0  0
    0.3616    3.6428   -1.2727 C   0  0  0  0  0  0  0  0  0  0  0  0
   -0.5105    1.0127   -2.1050 H   0  0  0  0  0  0  0  0  0  0  0  0
    1.7624    1.0541   -2.7638 H   0  0  0  0  0  0  0  0  0  0  0  0
    2.3277    1.4290   -1.1191 H   0  0  0  0  0  0  0  0  0  0  0  0
    2.4580    3.5813   -1.8395 H   0  0  0  0  0  0  0  0  0  0  0  0
    1.3146    3.3060   -3.1701 H   0  0  0  0  0  0  0  0  0  0  0  0
    0.7587    4.3097   -0.4986 H   0  0  0  0  0  0  0  0  0  0  0  0
   -0.3293    4.2158   -1.9017 H   0  0  0  0  0  0  0  0  0  0  0  0
    1.4141   -0.9192   -0.6163 N   0  0  0  0  0  0  0  0  0  0  0  0
    1.5495   -2.2208    0.0569 C   0  0  2  0  0  0  0  0  0  0  0  0
    1.7915   -2.0856    1.5771 C   0  0  0  0  0  0  0  0  0  0  0  0
    2.3972   -1.1183    2.0224 O   0  0  0  0  0  0  0  0  0  0  0  0
    2.7176   -2.9590   -0.6000 C   0  0  0  0  0  0  0  0  0  0  0  0
    2.2761   -0.4212   -0.8185 H   0  0  0  0  0  0  0  0  0  0  0  0
    0.6410   -2.8128   -0.0958 H   0  0  0  0  0  0  0  0  0  0  0  0
    3.6492   -2.3989   -0.4682 H   0  0  0  0  0  0  0  0  0  0  0  0
    2.8436   -3.9496   -0.1523 H   0  0  0  0  0  0  0  0  0  0  0  0
    2.5333   -3.0856   -1.6714 H   0  0  0  0  0  0  0  0  0  0  0  0
    1.3627   -3.0741    2.4438 N   0  0  0  0  0  0  0  0  0  0  0  0
    1.6022   -3.0401    3.8817 C   0  0  0  0  0  0  0  0  0  0  0  0
    0.8416   -3.8522    2.0504 H   0  0  0  0  0  0  0  0  0  0  0  0
    2.6771   -3.0497    4.0908 H   0  0  0  0  0  0  0  0  0  0  0  0
    1.1667   -2.1386    4.3245 H   0  0  0  0  0  0  0  0  0  0  0  0
    1.1489   -3.9130    4.3612 H   0  0  0  0  0  0  0  0  0  0  0  0
  1  2  2  0  0  0  0
  1  3  1  0  0  0  0
  1  7  1  0  0  0  0
  3  4  1  0  0  0  0
  3  5  1  0  0  0  0
  3  6  1  0  0  0  0
  7  8  1  0  0  0  0
  7 12  1  0  0  0  0
  8  9  1  0  0  0  0
  8 11  1  0  0  0  0
  8 13  1  0  0  0  0
  9 10  2  0  0  0  0
  9 17  1  0  0  0  0
 11 14  1  0  0  0  0
 11 15  1  0  0  0  0
 11 16  1  0  0  0  0
 17 18  1  0  0  0  0
 17 23  1  0  0  0  0
 18 19  1  0  0  0  0
 18 21  1  0  0  0  0
 18 24  1  0  0  0  0
 19 20  2  0  0  0  0
 19 31  1  0  0  0  0
 21 22  1  0  0  0  0
 21 25  1  0  0  0  0
 21 26  1  0  0  0  0
 22 23  1  0  0  0  0
 22 27  1  0  0  0  0
 22 28  1  0  0  0  0
 23 29  1  0  0  0  0
 23 30  1  0  0  0  0
 31 32  1  0  0  0  0
 31 36  1  0  0  0  0
 32 33  1  0  0  0  0
 32 35  1  0  0  0  0
 32 37  1  0  0  0  0
 33 34  2  0  0  0  0
 33 41  1  0  0  0  0
 35 38  1  0  0  0  0
 35 39  1  0  0  0  0
 35 40  1  0  0  0  0
 41 42  1  0  0  0  0
 41 43  1  0  0  0  0
 42 44  1  0  0  0  0
 42 45  1  0  0  0  0
 42 46  1  0  0  0  0
M  END
$$$$

  -OEChem-05262217223D

 46 46  0     1  0  0  0  0  0999 V2000
   -1.9133    0.6574    3.2596 C   0  0  0  0  0  0  0  0  0  0  0  0
   -2.8368    1.3477    3.6665 O   0  0  0  0  0  0  0  0  0  0  0  0
   -1.5772   -0.6240    3.9970 C   0  0  0  0  0  0  0  0  0  0  0  0
   -2.3325   -0.8320    4.7594 H   0  0  0  0  0  0  0  0  0  0  0  0
   -1.5495   -1.4575    3.2913 H   0  0  0  0  0  0  0  0  0  0  0  0
   -0.6023   -0.5284    4.4807 H   0  0  0  0  0  0  0  0  0  0  0  0
   -1.1953    1.0255    2.1381 N   0  0  0  0  0  0  0  0  0  0  0  0
   -1.4726    2.2408    1.3565 C   0  0  2  0  0  0  0  0  0  0  0  0
   -0.3429    2.8060    0.4513 C   0  0  0  0  0  0  0  0  0  0  0  0
    0.0390    3.9353    0.7478 O   0  0  0  0  0  0  0  0  0  0  0  0
   -2.7706    2.0936    0.5450 C   0  0  0  0  0  0  0  0  0  0  0  0
   -0.3830    0.4463    1.9174 H   0  0  0  0  0  0  0  0  0  0  0  0
   -1.6613    3.0313    2.0930 H   0  0  0  0  0  0  0  0  0  0  0  0
   -3.6063    1.8310    1.2000 H   0  0  0  0  0  0  0  0  0  0  0  0
   -3.0125    3.0403    0.0525 H   0  0  0  0  0  0  0  0  0  0  0  0
   -2.6845    1.3220   -0.2198 H   0  0  0  0  0  0  0  0  0  0  0  0
    0.2469    2.2407   -0.6979 N   0  0  0  0  0  0  0  0  0  0  0  0
   -0.0189    0.9609   -1.3771 C   0  0  2  0  0  0  0  0  0  0  0  0
   -0.1615   -0.3343   -0.5332 C   0  0  0  0  0  0  0  0  0  0  0  0
   -1.2774   -0.7459   -0.2683 O   0  0  0  0  0  0  0  0  0  0  0  0
    1.0236    0.8763   -2.4977 C   0  0  0  0  0  0  0  0  0  0  0  0
    1.4142    2.3125   -2.8076 C   0  0  0  0  0  0  0  0  0  0  0  0
    0.9851    3.1340   -1.5953 C   0  0  0  0  0  0  0  0  0  0  0  0
   -0.9891    1.0804   -1.8701 H   0  0  0  0  0  0  0  0  0  0  0  0
    0.6136    0.3735   -3.3795 H   0  0  0  0  0  0  0  0  0  0  0  0
    1.9102    0.3299   -2.1889 H   0  0  0  0  0  0  0  0  0  0  0  0
    2.4891    2.4043   -2.9934 H   0  0  0  0  0  0  0  0  0  0  0  0
    0.8792    2.6638   -3.6958 H   0  0  0  0  0  0  0  0  0  0  0  0
    1.8711    3.5324   -1.0880 H   0  0  0  0  0  0  0  0  0  0  0  0
    0.3611    3.9772   -1.9129 H   0  0  0  0  0  0  0  0  0  0  0  0
    0.6583   -1.4353   -0.6711 N   0  0  0  0  0  0  0  0  0  0  0  0
    1.8378   -1.6205    0.2033 C   0  0  2  0  0  0  0  0  0  0  0  0
    1.4446   -1.7677    1.6896 C   0  0  0  0  0  0  0  0  0  0  0  0
    1.0516   -0.7914    2.3130 O   0  0  0  0  0  0  0  0  0  0  0  0
    2.9016   -0.5190    0.0722 C   0  0  0  0  0  0  0  0  0  0  0  0
    0.0494   -2.2513   -0.6816 H   0  0  0  0  0  0  0  0  0  0  0  0
    2.3186   -2.5567   -0.0956 H   0  0  0  0  0  0  0  0  0  0  0  0
    2.4644    0.4744    0.2154 H   0  0  0  0  0  0  0  0  0  0  0  0
    3.6815   -0.6559    0.8285 H   0  0  0  0  0  0  0  0  0  0  0  0
    3.3830   -0.5654   -0.9078 H   0  0  0  0  0  0  0  0  0  0  0  0
    1.5815   -2.9804    2.3392 N   0  0  0  0  0  0  0  0  0  0  0  0
    1.2645   -3.1774    3.7491 C   0  0  0  0  0  0  0  0  0  0  0  0
    1.9038   -3.7762    1.7964 H   0  0  0  0  0  0  0  0  0  0  0  0
    1.7853   -2.4395    4.3690 H   0  0  0  0  0  0  0  0  0  0  0  0
    0.1872   -3.0828    3.9169 H   0  0  0  0  0  0  0  0  0  0  0  0
    1.5769   -4.1756    4.0707 H   0  0  0  0  0  0  0  0  0  0  0  0
  1  2  2  0  0  0  0
  1  3  1  0  0  0  0
  1  7  1  0  0  0  0
  3  4  1  0  0  0  0
  3  5  1  0  0  0  0
  3  6  1  0  0  0  0
  7  8  1  0  0  0  0
  7 12  1  0  0  0  0
  8  9  1  0  0  0  0
  8 11  1  0  0  0  0
  8 13  1  0  0  0  0
  9 10  2  0  0  0  0
  9 17  1  0  0  0  0
 11 14  1  0  0  0  0
 11 15  1  0  0  0  0
 11 16  1  0  0  0  0
 17 18  1  0  0  0  0
 17 23  1  0  0  0  0
 18 19  1  0  0  0  0
 18 21  1  0  0  0  0
 18 24  1  0  0  0  0
 19 20  2  0  0  0  0
 19 31  1  0  0  0  0
 21 22  1  0  0  0  0
 21 25  1  0  0  0  0
 21 26  1  0  0  0  0
 22 23  1  0  0  0  0
 22 27  1  0  0  0  0
 22 28  1  0  0  0  0
 23 29  1  0  0  0  0
 23 30  1  0  0  0  0
 31 32  1  0  0  0  0
 31 36  1  0  0  0  0
 32 33  1  0  0  0  0
 32 35  1  0  0  0  0
 32 37  1  0  0  0  0
 33 34  2  0  0  0  0
 33 41  1  0  0  0  0
 35 38  1  0  0  0  0
 35 39  1  0  0  0  0
 35 40  1  0  0  0  0
 41 42  1  0  0  0  0
 41 43  1  0  0  0  0
 42 44  1  0  0  0  0
 42 45  1  0  0  0  0
 42 46  1  0  0  0  0
M  END
$$$$

  -OEChem-05262217223D

 46 46  0     1  0  0  0  0  0999 V2000
   -1.8167    0.8615    2.8213 C   0  0  0  0  0  0  0  0  0  0  0  0
   -2.0662    1.8622    3.4702 O   0  0  0  0  0  0  0  0  0  0  0  0
   -1.2197   -0.3467    3.5166 C   0  0  0  0  0  0  0  0  0  0  0  0
   -1.7530   -0.5381    4.4513 H   0  0  0  0  0  0  0  0  0  0  0  0
   -1.2959   -1.2314    2.8803 H   0  0  0  0  0  0  0  0  0  0  0  0
   -0.1671   -0.1559    3.7402 H   0  0  0  0  0  0  0  0  0  0  0  0
   -2.0450    0.8306    1.4614 N   0  0  0  0  0  0  0  0  0  0  0  0
   -2.4776    1.9805    0.6616 C   0  0  2  0  0  0  0  0  0  0  0  0
   -1.3438    2.9282    0.1879 C   0  0  0  0  0  0  0  0  0  0  0  0
   -1.5365    4.1162    0.4306 O   0  0  0  0  0  0  0  0  0  0  0  0
   -3.3183    1.4879   -0.5198 C   0  0  0  0  0  0  0  0  0  0  0  0
   -1.7853   -0.0222    0.9629 H   0  0  0  0  0  0  0  0  0  0  0  0
   -3.1466    2.5854    1.2855 H   0  0  0  0  0  0  0  0  0  0  0  0
   -4.1506    0.8756   -0.1599 H   0  0  0  0  0  0  0  0  0  0  0  0
   -3.7302    2.3417   -1.0670 H   0  0  0  0  0  0  0  0  0  0  0  0
   -2.7222    0.8902   -1.2131 H   0  0  0  0  0  0  0  0  0  0  0  0
   -0.2170    2.6261   -0.6066 N   0  0  0  0  0  0  0  0  0  0  0  0
    0.2205    1.3513   -1.2172 C   0  0  2  0  0  0  0  0  0  0  0  0
    0.2002    0.0257   -0.4103 C   0  0  0  0  0  0  0  0  0  0  0  0
   -0.7941   -0.6888   -0.4580 O   0  0  0  0  0  0  0  0  0  0  0  0
    1.6278    1.6718   -1.7536 C   0  0  0  0  0  0  0  0  0  0  0  0
    1.6731    3.1714   -1.9897 C   0  0  0  0  0  0  0  0  0  0  0  0
    0.5278    3.7526   -1.1758 C   0  0  0  0  0  0  0  0  0  0  0  0
   -0.4314    1.1796   -2.0799 H   0  0  0  0  0  0  0  0  0  0  0  0
    1.8442    1.1102   -2.6685 H   0  0  0  0  0  0  0  0  0  0  0  0
    2.3990    1.4350   -1.0152 H   0  0  0  0  0  0  0  0  0  0  0  0
    2.6351    3.5961   -1.6852 H   0  0  0  0  0  0  0  0  0  0  0  0
    1.5194    3.3911   -3.0510 H   0  0  0  0  0  0  0  0  0  0  0  0
    0.9292    4.3869   -0.3770 H   0  0  0  0  0  0  0  0  0  0  0  0
   -0.1166    4.3678   -1.8144 H   0  0  0  0  0  0  0  0  0  0  0  0
    1.3551   -0.5551    0.0850 N   0  0  0  0  0  0  0  0  0  0  0  0
    1.4122   -1.8208    0.8345 C   0  0  2  0  0  0  0  0  0  0  0  0
    1.9671   -1.6083    2.2585 C   0  0  0  0  0  0  0  0  0  0  0  0
    2.5926   -0.5889    2.5236 O   0  0  0  0  0  0  0  0  0  0  0  0
    2.3032   -2.7839    0.0475 C   0  0  0  0  0  0  0  0  0  0  0  0
    2.1226    0.0918    0.2636 H   0  0  0  0  0  0  0  0  0  0  0  0
    0.4174   -2.2656    0.9336 H   0  0  0  0  0  0  0  0  0  0  0  0
    3.3143   -2.3760   -0.0522 H   0  0  0  0  0  0  0  0  0  0  0  0
    2.3667   -3.7508    0.5561 H   0  0  0  0  0  0  0  0  0  0  0  0
    1.8920   -2.9464   -0.9539 H   0  0  0  0  0  0  0  0  0  0  0  0
    1.7458   -2.5461    3.2499 N   0  0  0  0  0  0  0  0  0  0  0  0
    2.2170   -2.3846    4.6206 C   0  0  0  0  0  0  0  0  0  0  0  0
    1.2260   -3.3834    3.0041 H   0  0  0  0  0  0  0  0  0  0  0  0
    3.3078   -2.2866    4.6425 H   0  0  0  0  0  0  0  0  0  0  0  0
    1.7739   -1.4924    5.0758 H   0  0  0  0  0  0  0  0  0  0  0  0
    1.9366   -3.2544    5.2227 H   0  0  0  0  0  0  0  0  0  0  0  0
  1  2  2  0  0  0  0
  1  3  1  0  0  0  0
  1  7  1  0  0  0  0
  3  4  1  0  0  0  0
  3  5  1  0  0  0  0
  3  6  1  0  0  0  0
  7  8  1  0  0  0  0
  7 12  1  0  0  0  0
  8  9  1  0  0  0  0
  8 11  1  0  0  0  0
  8 13  1  0  0  0  0
  9 10  2  0  0  0  0
  9 17  1  0  0  0  0
 11 14  1  0  0  0  0
 11 15  1  0  0  0  0
 11 16  1  0  0  0  0
 17 18  1  0  0  0  0
 17 23  1  0  0  0  0
 18 19  1  0  0  0  0
 18 21  1  0  0  0  0
 18 24  1  0  0  0  0
 19 20  2  0  0  0  0
 19 31  1  0  0  0  0
 21 22  1  0  0  0  0
 21 25  1  0  0  0  0
 21 26  1  0  0  0  0
 22 23  1  0  0  0  0
 22 27  1  0  0  0  0
 22 28  1  0  0  0  0
 23 29  1  0  0  0  0
 23 30  1  0  0  0  0
 31 32  1  0  0  0  0
 31 36  1  0  0  0  0
 32 33  1  0  0  0  0
 32 35  1  0  0  0  0
 32 37  1  0  0  0  0
 33 34  2  0  0  0  0
 33 41  1  0  0  0  0
 35 38  1  0  0  0  0
 35 39  1  0  0  0  0
 35 40  1  0  0  0  0
 41 42  1  0  0  0  0
 41 43  1  0  0  0  0
 42 44  1  0  0  0  0
 42 45  1  0  0  0  0
 42 46  1  0  0  0  0
M  END
$$$$

  -OEChem-05262217223D

 46 46  0     1  0  0  0  0  0999 V2000
   -1.3848    1.4222    3.0558 C   0  0  0  0  0  0  0  0  0  0  0  0
   -1.7058    2.5651    3.3315 O   0  0  0  0  0  0  0  0  0  0  0  0
   -0.6279    0.5980    4.0773 C   0  0  0  0  0  0  0  0  0  0  0  0
   -0.6320    1.1029    5.0473 H   0  0  0  0  0  0  0  0  0  0  0  0
   -1.0996   -0.3795    4.1910 H   0  0  0  0  0  0  0  0  0  0  0  0
    0.4079    0.4667    3.7577 H   0  0  0  0  0  0  0  0  0  0  0  0
   -1.6860    0.8992    1.8123 N   0  0  0  0  0  0  0  0  0  0  0  0
   -2.3807    1.6605    0.7638 C   0  0  2  0  0  0  0  0  0  0  0  0
   -1.4904    2.6666   -0.0135 C   0  0  0  0  0  0  0  0  0  0  0  0
   -1.9118    3.8181   -0.0598 O   0  0  0  0  0  0  0  0  0  0  0  0
   -3.1190    0.7039   -0.1782 C   0  0  0  0  0  0  0  0  0  0  0  0
   -1.3543   -0.0415    1.5987 H   0  0  0  0  0  0  0  0  0  0  0  0
   -3.1581    2.2579    1.2554 H   0  0  0  0  0  0  0  0  0  0  0  0
   -3.7166    1.2759   -0.8951 H   0  0  0  0  0  0  0  0  0  0  0  0
   -2.4266    0.0718   -0.7370 H   0  0  0  0  0  0  0  0  0  0  0  0
   -3.7930    0.0583    0.3930 H   0  0  0  0  0  0  0  0  0  0  0  0
   -0.3590    2.3829   -0.8028 N   0  0  0  0  0  0  0  0  0  0  0  0
    0.2738    1.0870   -1.1016 C   0  0  2  0  0  0  0  0  0  0  0  0
    0.5151    0.0557    0.0272 C   0  0  0  0  0  0  0  0  0  0  0  0
   -0.2100   -0.9309    0.0926 O   0  0  0  0  0  0  0  0  0  0  0  0
    1.5825    1.4717   -1.8118 C   0  0  0  0  0  0  0  0  0  0  0  0
    1.3484    2.8447   -2.4231 C   0  0  0  0  0  0  0  0  0  0  0  0
    0.1466    3.4293   -1.6931 C   0  0  0  0  0  0  0  0  0  0  0  0
   -0.3663    0.5873   -1.8364 H   0  0  0  0  0  0  0  0  0  0  0  0
    1.8554    0.7322   -2.5718 H   0  0  0  0  0  0  0  0  0  0  0  0
    2.4123    1.5550   -1.1045 H   0  0  0  0  0  0  0  0  0  0  0  0
    2.2297    3.4859   -2.3198 H   0  0  0  0  0  0  0  0  0  0  0  0
    1.1180    2.7459   -3.4888 H   0  0  0  0  0  0  0  0  0  0  0  0
    0.4542    4.3076   -1.1141 H   0  0  0  0  0  0  0  0  0  0  0  0
   -0.6204    3.7395   -2.4117 H   0  0  0  0  0  0  0  0  0  0  0  0
    1.6808    0.0303    0.7737 N   0  0  0  0  0  0  0  0  0  0  0  0
    2.2975   -1.2014    1.2995 C   0  0  2  0  0  0  0  0  0  0  0  0
    1.6261   -1.7810    2.5724 C   0  0  0  0  0  0  0  0  0  0  0  0
    2.2095   -1.8150    3.6481 O   0  0  0  0  0  0  0  0  0  0  0  0
    3.7834   -0.8863    1.5174 C   0  0  0  0  0  0  0  0  0  0  0  0
    2.2724    0.8543    0.7025 H   0  0  0  0  0  0  0  0  0  0  0  0
    2.2374   -1.9822    0.5338 H   0  0  0  0  0  0  0  0  0  0  0  0
    3.9038   -0.1047    2.2748 H   0  0  0  0  0  0  0  0  0  0  0  0
    4.3146   -1.7810    1.8584 H   0  0  0  0  0  0  0  0  0  0  0  0
    4.2459   -0.5469    0.5856 H   0  0  0  0  0  0  0  0  0  0  0  0
    0.3687   -2.3465    2.4830 N   0  0  0  0  0  0  0  0  0  0  0  0
   -0.2607   -3.1173    3.5488 C   0  0  0  0  0  0  0  0  0  0  0  0
   -0.0822   -2.2959    1.5671 H   0  0  0  0  0  0  0  0  0  0  0  0
    0.2331   -4.0883    3.6578 H   0  0  0  0  0  0  0  0  0  0  0  0
   -0.2005   -2.5853    4.5041 H   0  0  0  0  0  0  0  0  0  0  0  0
   -1.3168   -3.2868    3.3175 H   0  0  0  0  0  0  0  0  0  0  0  0
  1  2  2  0  0  0  0
  1  3  1  0  0  0  0
  1  7  1  0  0  0  0
  3  4  1  0  0  0  0
  3  5  1  0  0  0  0
  3  6  1  0  0  0  0
  7  8  1  0  0  0  0
  7 12  1  0  0  0  0
  8  9  1  0  0  0  0
  8 11  1  0  0  0  0
  8 13  1  0  0  0  0
  9 10  2  0  0  0  0
  9 17  1  0  0  0  0
 11 14  1  0  0  0  0
 11 15  1  0  0  0  0
 11 16  1  0  0  0  0
 17 18  1  0  0  0  0
 17 23  1  0  0  0  0
 18 19  1  0  0  0  0
 18 21  1  0  0  0  0
 18 24  1  0  0  0  0
 19 20  2  0  0  0  0
 19 31  1  0  0  0  0
 21 22  1  0  0  0  0
 21 25  1  0  0  0  0
 21 26  1  0  0  0  0
 22 23  1  0  0  0  0
 22 27  1  0  0  0  0
 22 28  1  0  0  0  0
 23 29  1  0  0  0  0
 23 30  1  0  0  0  0
 31 32  1  0  0  0  0
 31 36  1  0  0  0  0
 32 33  1  0  0  0  0
 32 35  1  0  0  0  0
 32 37  1  0  0  0  0
 33 34  2  0  0  0  0
 33 41  1  0  0  0  0
 35 38  1  0  0  0  0
 35 39  1  0  0  0  0
 35 40  1  0  0  0  0
 41 42  1  0  0  0  0
 41 43  1  0  0  0  0
 42 44  1  0  0  0  0
 42 45  1  0  0  0  0
 42 46  1  0  0  0  0
M  END
$$$$

  -OEChem-05262217223D

 46 46  0     1  0  0  0  0  0999 V2000
   -1.4684    0.7761    3.4427 C   0  0  0  0  0  0  0  0  0  0  0  0
   -0.9797   -0.2387    2.9621 O   0  0  0  0  0  0  0  0  0  0  0  0
   -1.4095    1.0030    4.9415 C   0  0  0  0  0  0  0  0  0  0  0  0
   -2.4198    1.1170    5.3419 H   0  0  0  0  0  0  0  0  0  0  0  0
   -0.9293    0.1533    5.4348 H   0  0  0  0  0  0  0  0  0  0  0  0
   -0.8349    1.9067    5.1595 H   0  0  0  0  0  0  0  0  0  0  0  0
   -2.0308    1.7416    2.6317 N   0  0  0  0  0  0  0  0  0  0  0  0
   -1.8913    1.7291    1.1683 C   0  0  2  0  0  0  0  0  0  0  0  0
   -0.6121    2.4766    0.7009 C   0  0  0  0  0  0  0  0  0  0  0  0
   -0.3012    3.4807    1.3390 O   0  0  0  0  0  0  0  0  0  0  0  0
   -3.1343    2.3850    0.5660 C   0  0  0  0  0  0  0  0  0  0  0  0
   -2.1927    2.6457    3.0682 H   0  0  0  0  0  0  0  0  0  0  0  0
   -1.8771    0.6952    0.8394 H   0  0  0  0  0  0  0  0  0  0  0  0
   -3.2073    3.4319    0.8774 H   0  0  0  0  0  0  0  0  0  0  0  0
   -3.0898    2.3480   -0.5268 H   0  0  0  0  0  0  0  0  0  0  0  0
   -4.0360    1.8575    0.8918 H   0  0  0  0  0  0  0  0  0  0  0  0
    0.1776    2.1558   -0.4131 N   0  0  0  0  0  0  0  0  0  0  0  0
   -0.0221    1.0615   -1.3722 C   0  0  2  0  0  0  0  0  0  0  0  0
   -0.3709   -0.3411   -0.8193 C   0  0  0  0  0  0  0  0  0  0  0  0
   -1.4722   -0.7957   -1.0837 O   0  0  0  0  0  0  0  0  0  0  0  0
    1.2489    1.0597   -2.2258 C   0  0  0  0  0  0  0  0  0  0  0  0
    1.8013    2.4790   -2.1402 C   0  0  0  0  0  0  0  0  0  0  0  0
    1.1532    3.1211   -0.9141 C   0  0  0  0  0  0  0  0  0  0  0  0
   -0.8572    1.3522   -2.0188 H   0  0  0  0  0  0  0  0  0  0  0  0
    1.0294    0.7757   -3.2601 H   0  0  0  0  0  0  0  0  0  0  0  0
    1.9891    0.3566   -1.8377 H   0  0  0  0  0  0  0  0  0  0  0  0
    2.8928    2.4761   -2.0581 H   0  0  0  0  0  0  0  0  0  0  0  0
    1.5253    3.0424   -3.0372 H   0  0  0  0  0  0  0  0  0  0  0  0
    1.9130    3.3300   -0.1529 H   0  0  0  0  0  0  0  0  0  0  0  0
    0.6678    4.0644   -1.1877 H   0  0  0  0  0  0  0  0  0  0  0  0
    0.4203   -1.2798   -0.1908 N   0  0  0  0  0  0  0  0  0  0  0  0
    1.7641   -1.2027    0.4174 C   0  0  2  0  0  0  0  0  0  0  0  0
    1.8899   -2.3113    1.4826 C   0  0  0  0  0  0  0  0  0  0  0  0
    2.8507   -3.0684    1.4666 O   0  0  0  0  0  0  0  0  0  0  0  0
    2.0848    0.1246    1.1191 C   0  0  0  0  0  0  0  0  0  0  0  0
   -0.1009   -2.1373   -0.0128 H   0  0  0  0  0  0  0  0  0  0  0  0
    2.5207   -1.3914   -0.3512 H   0  0  0  0  0  0  0  0  0  0  0  0
    1.2441    0.4567    1.7329 H   0  0  0  0  0  0  0  0  0  0  0  0
    2.9578    0.0071    1.7699 H   0  0  0  0  0  0  0  0  0  0  0  0
    2.3285    0.9006    0.3942 H   0  0  0  0  0  0  0  0  0  0  0  0
    0.9089   -2.4644    2.4451 N   0  0  0  0  0  0  0  0  0  0  0  0
    0.9872   -3.4437    3.5191 C   0  0  0  0  0  0  0  0  0  0  0  0
    0.1903   -1.7348    2.4985 H   0  0  0  0  0  0  0  0  0  0  0  0
    1.0725   -4.4556    3.1098 H   0  0  0  0  0  0  0  0  0  0  0  0
    1.8558   -3.2453    4.1553 H   0  0  0  0  0  0  0  0  0  0  0  0
    0.0850   -3.3961    4.1362 H   0  0  0  0  0  0  0  0  0  0  0  0
  1  2  2  0  0  0  0
  1  3  1  0  0  0  0
  1  7  1  0  0  0  0
  3  4  1  0  0  0  0
  3  5  1  0  0  0  0
  3  6  1  0  0  0  0
  7  8  1  0  0  0  0
  7 12  1  0  0  0  0
  8  9  1  0  0  0  0
  8 11  1  0  0  0  0
  8 13  1  0  0  0  0
  9 10  2  0  0  0  0
  9 17  1  0  0  0  0
 11 14  1  0  0  0  0
 11 15  1  0  0  0  0
 11 16  1  0  0  0  0
 17 18  1  0  0  0  0
 17 23  1  0  0  0  0
 18 19  1  0  0  0  0
 18 21  1  0  0  0  0
 18 24  1  0  0  0  0
 19 20  2  0  0  0  0
 19 31  1  0  0  0  0
 21 22  1  0  0  0  0
 21 25  1  0  0  0  0
 21 26  1  0  0  0  0
 22 23  1  0  0  0  0
 22 27  1  0  0  0  0
 22 28  1  0  0  0  0
 23 29  1  0  0  0  0
 23 30  1  0  0  0  0
 31 32  1  0  0  0  0
 31 36  1  0  0  0  0
 32 33  1  0  0  0  0
 32 35  1  0  0  0  0
 32 37  1  0  0  0  0
 33 34  2  0  0  0  0
 33 41  1  0  0  0  0
 35 38  1  0  0  0  0
 35 39  1  0  0  0  0
 35 40  1  0  0  0  0
 41 42  1  0  0  0  0
 41 43  1  0  0  0  0
 42 44  1  0  0  0  0
 42 45  1  0  0  0  0
 42 46  1  0  0  0  0
M  END
$$$$

  -OEChem-05262217223D

 46 46  0     1  0  0  0  0  0999 V2000
   -1.0759    1.3431    3.4986 C   0  0  0  0  0  0  0  0  0  0  0  0
    0.0220    0.9554    3.1196 O   0  0  0  0  0  0  0  0  0  0  0  0
   -1.2676    1.8187    4.9257 C   0  0  0  0  0  0  0  0  0  0  0  0
   -2.0007    1.1878    5.4343 H   0  0  0  0  0  0  0  0  0  0  0  0
   -0.3206    1.7690    5.4706 H   0  0  0  0  0  0  0  0  0  0  0  0
   -1.6212    2.8529    4.9295 H   0  0  0  0  0  0  0  0  0  0  0  0
   -2.1373    1.3591    2.6161 N   0  0  0  0  0  0  0  0  0  0  0  0
   -1.9236    1.1928    1.1709 C   0  0  2  0  0  0  0  0  0  0  0  0
   -1.1141    2.3787    0.5749 C   0  0  0  0  0  0  0  0  0  0  0  0
   -1.3527    3.4961    1.0301 O   0  0  0  0  0  0  0  0  0  0  0  0
   -3.2889    1.0852    0.4912 C   0  0  0  0  0  0  0  0  0  0  0  0
   -2.9414    1.9072    2.9082 H   0  0  0  0  0  0  0  0  0  0  0  0
   -1.3991    0.2514    1.0187 H   0  0  0  0  0  0  0  0  0  0  0  0
   -3.8625    2.0073    0.6295 H   0  0  0  0  0  0  0  0  0  0  0  0
   -3.1649    0.9095   -0.5819 H   0  0  0  0  0  0  0  0  0  0  0  0
   -3.8578    0.2510    0.9131 H   0  0  0  0  0  0  0  0  0  0  0  0
   -0.2201    2.3026   -0.5010 N   0  0  0  0  0  0  0  0  0  0  0  0
    0.1423    1.1168   -1.2878 C   0  0  2  0  0  0  0  0  0  0  0  0
    0.4515   -0.2003   -0.5490 C   0  0  0  0  0  0  0  0  0  0  0  0
   -0.1306   -1.2137   -0.9029 O   0  0  0  0  0  0  0  0  0  0  0  0
    1.3632    1.5739   -2.0947 C   0  0  0  0  0  0  0  0  0  0  0  0
    1.2526    3.0898   -2.2085 C   0  0  0  0  0  0  0  0  0  0  0  0
    0.2864    3.5285   -1.1123 C   0  0  0  0  0  0  0  0  0  0  0  0
   -0.6817    0.9122   -1.9796 H   0  0  0  0  0  0  0  0  0  0  0  0
    1.3916    1.0944   -3.0789 H   0  0  0  0  0  0  0  0  0  0  0  0
    2.2919    1.3255   -1.5706 H   0  0  0  0  0  0  0  0  0  0  0  0
    2.2296    3.5714   -2.0981 H   0  0  0  0  0  0  0  0  0  0  0  0
    0.8432    3.3620   -3.1864 H   0  0  0  0  0  0  0  0  0  0  0  0
    0.8151    4.1384   -0.3710 H   0  0  0  0  0  0  0  0  0  0  0  0
   -0.5305    4.1242   -1.5344 H   0  0  0  0  0  0  0  0  0  0  0  0
    1.4747   -0.2992    0.3756 N   0  0  0  0  0  0  0  0  0  0  0  0
    2.0460   -1.5801    0.8266 C   0  0  2  0  0  0  0  0  0  0  0  0
    1.1349   -2.4320    1.7409 C   0  0  0  0  0  0  0  0  0  0  0  0
    1.3536   -3.6309    1.8647 O   0  0  0  0  0  0  0  0  0  0  0  0
    3.3519   -1.2573    1.5563 C   0  0  0  0  0  0  0  0  0  0  0  0
    1.8837    0.5689    0.7129 H   0  0  0  0  0  0  0  0  0  0  0  0
    2.2785   -2.1915   -0.0523 H   0  0  0  0  0  0  0  0  0  0  0  0
    3.1541   -0.6516    2.4468 H   0  0  0  0  0  0  0  0  0  0  0  0
    3.8483   -2.1818    1.8693 H   0  0  0  0  0  0  0  0  0  0  0  0
    4.0320   -0.7068    0.8992 H   0  0  0  0  0  0  0  0  0  0  0  0
    0.1465   -1.8490    2.5093 N   0  0  0  0  0  0  0  0  0  0  0  0
   -0.6615   -2.5805    3.4743 C   0  0  0  0  0  0  0  0  0  0  0  0
    0.1226   -0.8276    2.5205 H   0  0  0  0  0  0  0  0  0  0  0  0
   -1.4298   -1.9246    3.8942 H   0  0  0  0  0  0  0  0  0  0  0  0
   -1.1587   -3.4294    2.9933 H   0  0  0  0  0  0  0  0  0  0  0  0
   -0.0369   -2.9543    4.2919 H   0  0  0  0  0  0  0  0  0  0  0  0
  1  2  2  0  0  0  0
  1  3  1  0  0  0  0
  1  7  1  0  0  0  0
  3  4  1  0  0  0  0
  3  5  1  0  0  0  0
  3  6  1  0  0  0  0
  7  8  1  0  0  0  0
  7 12  1  0  0  0  0
  8  9  1  0  0  0  0
  8 11  1  0  0  0  0
  8 13  1  0  0  0  0
  9 10  2  0  0  0  0
  9 17  1  0  0  0  0
 11 14  1  0  0  0  0
 11 15  1  0  0  0  0
 11 16  1  0  0  0  0
 17 18  1  0  0  0  0
 17 23  1  0  0  0  0
 18 19  1  0  0  0  0
 18 21  1  0  0  0  0
 18 24  1  0  0  0  0
 19 20  2  0  0  0  0
 19 31  1  0  0  0  0
 21 22  1  0  0  0  0
 21 25  1  0  0  0  0
 21 26  1  0  0  0  0
 22 23  1  0  0  0  0
 22 27  1  0  0  0  0
 22 28  1  0  0  0  0
 23 29  1  0  0  0  0
 23 30  1  0  0  0  0
 31 32  1  0  0  0  0
 31 36  1  0  0  0  0
 32 33  1  0  0  0  0
 32 35  1  0  0  0  0
 32 37  1  0  0  0  0
 33 34  2  0  0  0  0
 33 41  1  0  0  0  0
 35 38  1  0  0  0  0
 35 39  1  0  0  0  0
 35 40  1  0  0  0  0
 41 42  1  0  0  0  0
 41 43  1  0  0  0  0
 42 44  1  0  0  0  0
 42 45  1  0  0  0  0
 42 46  1  0  0  0  0
M  END
$$$$

  -OEChem-05262217223D

 46 46  0     1  0  0  0  0  0999 V2000
   -2.4561    1.0909    3.8069 C   0  0  0  0  0  0  0  0  0  0  0  0
   -2.5132   -0.1239    3.7165 O   0  0  0  0  0  0  0  0  0  0  0  0
   -2.8218    1.7705    5.1131 C   0  0  0  0  0  0  0  0  0  0  0  0
   -3.6292    2.4878    4.9485 H   0  0  0  0  0  0  0  0  0  0  0  0
   -3.1541    1.0278    5.8438 H   0  0  0  0  0  0  0  0  0  0  0  0
   -1.9524    2.2957    5.5163 H   0  0  0  0  0  0  0  0  0  0  0  0
   -2.0669    1.8530    2.7255 N   0  0  0  0  0  0  0  0  0  0  0  0
   -1.5779    1.3319    1.4394 C   0  0  2  0  0  0  0  0  0  0  0  0
   -0.8845    2.4576    0.6179 C   0  0  0  0  0  0  0  0  0  0  0  0
   -0.9981    3.6090    1.0351 O   0  0  0  0  0  0  0  0  0  0  0  0
   -2.7724    0.7644    0.6570 C   0  0  0  0  0  0  0  0  0  0  0  0
   -1.9983    2.8613    2.8630 H   0  0  0  0  0  0  0  0  0  0  0  0
   -0.8590    0.5369    1.6462 H   0  0  0  0  0  0  0  0  0  0  0  0
   -3.5067    1.5519    0.4613 H   0  0  0  0  0  0  0  0  0  0  0  0
   -2.4518    0.3424   -0.2977 H   0  0  0  0  0  0  0  0  0  0  0  0
   -3.2629   -0.0330    1.2228 H   0  0  0  0  0  0  0  0  0  0  0  0
   -0.1489    2.2835   -0.5643 N   0  0  0  0  0  0  0  0  0  0  0  0
    0.1241    1.0246   -1.2696 C   0  0  2  0  0  0  0  0  0  0  0  0
    0.5683   -0.1783   -0.4187 C   0  0  0  0  0  0  0  0  0  0  0  0
    0.0965   -1.2874   -0.6233 O   0  0  0  0  0  0  0  0  0  0  0  0
    1.2264    1.3974   -2.2654 C   0  0  0  0  0  0  0  0  0  0  0  0
    1.0846    2.8951   -2.5136 C   0  0  0  0  0  0  0  0  0  0  0  0
    0.2599    3.4432   -1.3525 C   0  0  0  0  0  0  0  0  0  0  0  0
   -0.7726    0.7326   -1.8258 H   0  0  0  0  0  0  0  0  0  0  0  0
    1.1361    0.8227   -3.1933 H   0  0  0  0  0  0  0  0  0  0  0  0
    2.2152    1.1983   -1.8378 H   0  0  0  0  0  0  0  0  0  0  0  0
    2.0623    3.3835   -2.5761 H   0  0  0  0  0  0  0  0  0  0  0  0
    0.5526    3.0690   -3.4548 H   0  0  0  0  0  0  0  0  0  0  0  0
    0.8703    4.1248   -0.7496 H   0  0  0  0  0  0  0  0  0  0  0  0
   -0.6116    3.9935   -1.7238 H   0  0  0  0  0  0  0  0  0  0  0  0
    1.5259   -0.0156    0.5653 N   0  0  0  0  0  0  0  0  0  0  0  0
    2.1911   -1.1258    1.2652 C   0  0  2  0  0  0  0  0  0  0  0  0
    1.3551   -1.7009    2.4348 C   0  0  0  0  0  0  0  0  0  0  0  0
    1.8012   -1.7464    3.5750 O   0  0  0  0  0  0  0  0  0  0  0  0
    3.5649   -0.6110    1.7136 C   0  0  0  0  0  0  0  0  0  0  0  0
    1.8788    0.9273    0.7118 H   0  0  0  0  0  0  0  0  0  0  0  0
    2.3586   -1.9485    0.5617 H   0  0  0  0  0  0  0  0  0  0  0  0
    3.4526    0.2012    2.4393 H   0  0  0  0  0  0  0  0  0  0  0  0
    4.1361   -1.4177    2.1846 H   0  0  0  0  0  0  0  0  0  0  0  0
    4.1355   -0.2414    0.8563 H   0  0  0  0  0  0  0  0  0  0  0  0
    0.0924   -2.1953    2.1778 N   0  0  0  0  0  0  0  0  0  0  0  0
   -0.7850   -2.7657    3.1921 C   0  0  0  0  0  0  0  0  0  0  0  0
   -0.2334   -2.1386    1.2111 H   0  0  0  0  0  0  0  0  0  0  0  0
   -0.7856   -2.1500    4.0977 H   0  0  0  0  0  0  0  0  0  0  0  0
   -1.8115   -2.8159    2.8161 H   0  0  0  0  0  0  0  0  0  0  0  0
   -0.4578   -3.7763    3.4552 H   0  0  0  0  0  0  0  0  0  0  0  0
  1  2  2  0  0  0  0
  1  3  1  0  0  0  0
  1  7  1  0  0  0  0
  3  4  1  0  0  0  0
  3  5  1  0  0  0  0
  3  6  1  0  0  0  0
  7  8  1  0  0  0  0
  7 12  1  0  0  0  0
  8  9  1  0  0  0  0
  8 11  1  0  0  0  0
  8 13  1  0  0  0  0
  9 10  2  0  0  0  0
  9 17  1  0  0  0  0
 11 14  1  0  0  0  0
 11 15  1  0  0  0  0
 11 16  1  0  0  0  0
 17 18  1  0  0  0  0
 17 23  1  0  0  0  0
 18 19  1  0  0  0  0
 18 21  1  0  0  0  0
 18 24  1  0  0  0  0
 19 20  2  0  0  0  0
 19 31  1  0  0  0  0
 21 22  1  0  0  0  0
 21 25  1  0  0  0  0
 21 26  1  0  0  0  0
 22 23  1  0  0  0  0
 22 27  1  0  0  0  0
 22 28  1  0  0  0  0
 23 29  1  0  0  0  0
 23 30  1  0  0  0  0
 31 32  1  0  0  0  0
 31 36  1  0  0  0  0
 32 33  1  0  0  0  0
 32 35  1  0  0  0  0
 32 37  1  0  0  0  0
 33 34  2  0  0  0  0
 33 41  1  0  0  0  0
 35 38  1  0  0  0  0
 35 39  1  0  0  0  0
 35 40  1  0  0  0  0
 41 42  1  0  0  0  0
 41 43  1  0  0  0  0
 42 44  1  0  0  0  0
 42 45  1  0  0  0  0
 42 46  1  0  0  0  0
M  END
$$$$

  -OEChem-05262217223D

 46 46  0     1  0  0  0  0  0999 V2000
   -2.5898    1.1940    3.7410 C   0  0  0  0  0  0  0  0  0  0  0  0
   -2.6152   -0.0245    3.6958 O   0  0  0  0  0  0  0  0  0  0  0  0
   -3.0157    1.9158    5.0051 C   0  0  0  0  0  0  0  0  0  0  0  0
   -3.7926    2.6485    4.7734 H   0  0  0  0  0  0  0  0  0  0  0  0
   -3.4104    1.2007    5.7323 H   0  0  0  0  0  0  0  0  0  0  0  0
   -2.1582    2.4297    5.4461 H   0  0  0  0  0  0  0  0  0  0  0  0
   -2.1807    1.9230    2.6439 N   0  0  0  0  0  0  0  0  0  0  0  0
   -1.6368    1.3592    1.3991 C   0  0  2  0  0  0  0  0  0  0  0  0
   -0.9352    2.4594    0.5477 C   0  0  0  0  0  0  0  0  0  0  0  0
   -1.0778    3.6236    0.9173 O   0  0  0  0  0  0  0  0  0  0  0  0
   -2.7933    0.7428    0.5971 C   0  0  0  0  0  0  0  0  0  0  0  0
   -2.1443    2.9378    2.7402 H   0  0  0  0  0  0  0  0  0  0  0  0
   -0.9266    0.5793    1.6684 H   0  0  0  0  0  0  0  0  0  0  0  0
   -3.5256    1.5122    0.3328 H   0  0  0  0  0  0  0  0  0  0  0  0
   -2.4287    0.2786   -0.3218 H   0  0  0  0  0  0  0  0  0  0  0  0
   -3.3008   -0.0310    1.1807 H   0  0  0  0  0  0  0  0  0  0  0  0
   -0.1559    2.2541   -0.6031 N   0  0  0  0  0  0  0  0  0  0  0  0
    0.1745    0.9758   -1.2518 C   0  0  2  0  0  0  0  0  0  0  0  0
    0.6312   -0.1999   -0.3675 C   0  0  0  0  0  0  0  0  0  0  0  0
    0.3666   -1.3496   -0.6873 O   0  0  0  0  0  0  0  0  0  0  0  0
    1.3060    1.3438   -2.2154 C   0  0  0  0  0  0  0  0  0  0  0  0
    1.1411    2.8273   -2.5235 C   0  0  0  0  0  0  0  0  0  0  0  0
    0.2581    3.3945   -1.4170 C   0  0  0  0  0  0  0  0  0  0  0  0
   -0.6947    0.6436   -1.8286 H   0  0  0  0  0  0  0  0  0  0  0  0
    1.2697    0.7347   -3.1248 H   0  0  0  0  0  0  0  0  0  0  0  0
    2.2797    1.1848   -1.7385 H   0  0  0  0  0  0  0  0  0  0  0  0
    2.1093    3.3365   -2.5637 H   0  0  0  0  0  0  0  0  0  0  0  0
    0.6446    2.9556   -3.4907 H   0  0  0  0  0  0  0  0  0  0  0  0
    0.8294    4.1113   -0.8165 H   0  0  0  0  0  0  0  0  0  0  0  0
   -0.6103    3.9103   -1.8415 H   0  0  0  0  0  0  0  0  0  0  0  0
    1.3130    0.0349    0.8128 N   0  0  0  0  0  0  0  0  0  0  0  0
    1.9693   -1.0129    1.6113 C   0  0  2  0  0  0  0  0  0  0  0  0
    1.0018   -1.7360    2.5799 C   0  0  0  0  0  0  0  0  0  0  0  0
    1.2618   -1.8493    3.7716 O   0  0  0  0  0  0  0  0  0  0  0  0
    3.1475   -0.3473    2.3347 C   0  0  0  0  0  0  0  0  0  0  0  0
    1.5317    1.0050    1.0270 H   0  0  0  0  0  0  0  0  0  0  0  0
    2.3783   -1.7777    0.9424 H   0  0  0  0  0  0  0  0  0  0  0  0
    3.7194   -1.0938    2.8954 H   0  0  0  0  0  0  0  0  0  0  0  0
    2.7880    0.4112    3.0379 H   0  0  0  0  0  0  0  0  0  0  0  0
    3.8199    0.1293    1.6152 H   0  0  0  0  0  0  0  0  0  0  0  0
   -0.1666   -2.2771    2.0821 N   0  0  0  0  0  0  0  0  0  0  0  0
   -1.1648   -2.9527    2.9005 C   0  0  0  0  0  0  0  0  0  0  0  0
   -0.3135   -2.1982    1.0746 H   0  0  0  0  0  0  0  0  0  0  0  0
   -1.3566   -2.3918    3.8211 H   0  0  0  0  0  0  0  0  0  0  0  0
   -2.1078   -3.0359    2.3520 H   0  0  0  0  0  0  0  0  0  0  0  0
   -0.8219   -3.9574    3.1667 H   0  0  0  0  0  0  0  0  0  0  0  0
  1  2  2  0  0  0  0
  1  3  1  0  0  0  0
  1  7  1  0  0  0  0
  3  4  1  0  0  0  0
  3  5  1  0  0  0  0
  3  6  1  0  0  0  0
  7  8  1  0  0  0  0
  7 12  1  0  0  0  0
  8  9  1  0  0  0  0
  8 11  1  0  0  0  0
  8 13  1  0  0  0  0
  9 10  2  0  0  0  0
  9 17  1  0  0  0  0
 11 14  1  0  0  0  0
 11 15  1  0  0  0  0
 11 16  1  0  0  0  0
 17 18  1  0  0  0  0
 17 23  1  0  0  0  0
 18 19  1  0  0  0  0
 18 21  1  0  0  0  0
 18 24  1  0  0  0  0
 19 20  2  0  0  0  0
 19 31  1  0  0  0  0
 21 22  1  0  0  0  0
 21 25  1  0  0  0  0
 21 26  1  0  0  0  0
 22 23  1  0  0  0  0
 22 27  1  0  0  0  0
 22 28  1  0  0  0  0
 23 29  1  0  0  0  0
 23 30  1  0  0  0  0
 31 32  1  0  0  0  0
 31 36  1  0  0  0  0
 32 33  1  0  0  0  0
 32 35  1  0  0  0  0
 32 37  1  0  0  0  0
 33 34  2  0  0  0  0
 33 41  1  0  0  0  0
 35 38  1  0  0  0  0
 35 39  1  0  0  0  0
 35 40  1  0  0  0  0
 41 42  1  0  0  0  0
 41 43  1  0  0  0  0
 42 44  1  0  0  0  0
 42 45  1  0  0  0  0
 42 46  1  0  0  0  0
M  END
$$$$

  -OEChem-05262217223D

 46 46  0     1  0  0  0  0  0999 V2000
   -0.7145    1.9292    3.3769 C   0  0  0  0  0  0  0  0  0  0  0  0
    0.3272    2.1543    2.7765 O   0  0  0  0  0  0  0  0  0  0  0  0
   -0.7512    2.0245    4.8900 C   0  0  0  0  0  0  0  0  0  0  0  0
   -0.9863    1.0458    5.3168 H   0  0  0  0  0  0  0  0  0  0  0  0
    0.2202    2.3501    5.2717 H   0  0  0  0  0  0  0  0  0  0  0  0
   -1.5117    2.7444    5.2020 H   0  0  0  0  0  0  0  0  0  0  0  0
   -1.8483    1.5425    2.6904 N   0  0  0  0  0  0  0  0  0  0  0  0
   -1.9166    1.2889    1.2417 C   0  0  2  0  0  0  0  0  0  0  0  0
   -1.2598    2.3876    0.3552 C   0  0  0  0  0  0  0  0  0  0  0  0
   -1.6687    3.5375    0.5009 O   0  0  0  0  0  0  0  0  0  0  0  0
   -3.4022    1.1761    0.8850 C   0  0  0  0  0  0  0  0  0  0  0  0
   -2.6569    1.3095    3.2578 H   0  0  0  0  0  0  0  0  0  0  0  0
   -1.4726    0.3212    1.0319 H   0  0  0  0  0  0  0  0  0  0  0  0
   -3.9244    2.1137    1.1036 H   0  0  0  0  0  0  0  0  0  0  0  0
   -3.5205    0.9545   -0.1802 H   0  0  0  0  0  0  0  0  0  0  0  0
   -3.8731    0.3722    1.4589 H   0  0  0  0  0  0  0  0  0  0  0  0
   -0.3517    2.1520   -0.6906 N   0  0  0  0  0  0  0  0  0  0  0  0
    0.1758    0.8625   -1.1751 C   0  0  2  0  0  0  0  0  0  0  0  0
    0.6860   -0.2436   -0.2197 C   0  0  0  0  0  0  0  0  0  0  0  0
    0.6514   -1.4004   -0.6241 O   0  0  0  0  0  0  0  0  0  0  0  0
    1.3495    1.2816   -2.0666 C   0  0  0  0  0  0  0  0  0  0  0  0
    1.0594    2.7008   -2.5367 C   0  0  0  0  0  0  0  0  0  0  0  0
    0.0141    3.2540   -1.5770 C   0  0  0  0  0  0  0  0  0  0  0  0
   -0.6037    0.4085   -1.7954 H   0  0  0  0  0  0  0  0  0  0  0  0
    1.4759    0.5944   -2.9098 H   0  0  0  0  0  0  0  0  0  0  0  0
    2.2794    1.2838   -1.4867 H   0  0  0  0  0  0  0  0  0  0  0  0
    1.9660    3.3142   -2.5365 H   0  0  0  0  0  0  0  0  0  0  0  0
    0.6536    2.6844   -3.5533 H   0  0  0  0  0  0  0  0  0  0  0  0
    0.4391    4.0840   -1.0010 H   0  0  0  0  0  0  0  0  0  0  0  0
   -0.8581    3.6228   -2.1279 H   0  0  0  0  0  0  0  0  0  0  0  0
    0.9858   -0.0435    1.1165 N   0  0  0  0  0  0  0  0  0  0  0  0
    1.2066   -1.1357    2.0793 C   0  0  2  0  0  0  0  0  0  0  0  0
   -0.1401   -1.6988    2.5879 C   0  0  0  0  0  0  0  0  0  0  0  0
   -0.5765   -1.4532    3.7077 O   0  0  0  0  0  0  0  0  0  0  0  0
    2.1184   -0.6372    3.2072 C   0  0  0  0  0  0  0  0  0  0  0  0
    0.8963    0.9094    1.4879 H   0  0  0  0  0  0  0  0  0  0  0  0
    1.7377   -1.9565    1.5859 H   0  0  0  0  0  0  0  0  0  0  0  0
    3.0503   -0.2396    2.7945 H   0  0  0  0  0  0  0  0  0  0  0  0
    2.3620   -1.4610    3.8852 H   0  0  0  0  0  0  0  0  0  0  0  0
    1.6327    0.1499    3.7894 H   0  0  0  0  0  0  0  0  0  0  0  0
   -0.9206   -2.4200    1.7057 N   0  0  0  0  0  0  0  0  0  0  0  0
   -2.2605   -2.9021    2.0092 C   0  0  0  0  0  0  0  0  0  0  0  0
   -0.5586   -2.5042    0.7529 H   0  0  0  0  0  0  0  0  0  0  0  0
   -2.2323   -3.6096    2.8445 H   0  0  0  0  0  0  0  0  0  0  0  0
   -2.9171   -2.0673    2.2750 H   0  0  0  0  0  0  0  0  0  0  0  0
   -2.6837   -3.4117    1.1384 H   0  0  0  0  0  0  0  0  0  0  0  0
  1  2  2  0  0  0  0
  1  3  1  0  0  0  0
  1  7  1  0  0  0  0
  3  4  1  0  0  0  0
  3  5  1  0  0  0  0
  3  6  1  0  0  0  0
  7  8  1  0  0  0  0
  7 12  1  0  0  0  0
  8  9  1  0  0  0  0
  8 11  1  0  0  0  0
  8 13  1  0  0  0  0
  9 10  2  0  0  0  0
  9 17  1  0  0  0  0
 11 14  1  0  0  0  0
 11 15  1  0  0  0  0
 11 16  1  0  0  0  0
 17 18  1  0  0  0  0
 17 23  1  0  0  0  0
 18 19  1  0  0  0  0
 18 21  1  0  0  0  0
 18 24  1  0  0  0  0
 19 20  2  0  0  0  0
 19 31  1  0  0  0  0
 21 22  1  0  0  0  0
 21 25  1  0  0  0  0
 21 26  1  0  0  0  0
 22 23  1  0  0  0  0
 22 27  1  0  0  0  0
 22 28  1  0  0  0  0
 23 29  1  0  0  0  0
 23 30  1  0  0  0  0
 31 32  1  0  0  0  0
 31 36  1  0  0  0  0
 32 33  1  0  0  0  0
 32 35  1  0  0  0  0
 32 37  1  0  0  0  0
 33 34  2  0  0  0  0
 33 41  1  0  0  0  0
 35 38  1  0  0  0  0
 35 39  1  0  0  0  0
 35 40  1  0  0  0  0
 41 42  1  0  0  0  0
 41 43  1  0  0  0  0
 42 44  1  0  0  0  0
 42 45  1  0  0  0  0
 42 46  1  0  0  0  0
M  END
$$$$

  -OEChem-05262217223D

 46 46  0     1  0  0  0  0  0999 V2000
   -2.3273    1.8821    3.5912 C   0  0  0  0  0  0  0  0  0  0  0  0
   -3.2321    1.1680    3.1946 O   0  0  0  0  0  0  0  0  0  0  0  0
   -2.0527    2.0144    5.0768 C   0  0  0  0  0  0  0  0  0  0  0  0
   -2.2277    3.0435    5.3998 H   0  0  0  0  0  0  0  0  0  0  0  0
   -2.7124    1.3504    5.6426 H   0  0  0  0  0  0  0  0  0  0  0  0
   -1.0158    1.7441    5.2912 H   0  0  0  0  0  0  0  0  0  0  0  0
   -1.5316    2.5474    2.6811 N   0  0  0  0  0  0  0  0  0  0  0  0
   -1.8087    2.6215    1.2380 C   0  0  2  0  0  0  0  0  0  0  0  0
   -0.5327    3.0356    0.4643 C   0  0  0  0  0  0  0  0  0  0  0  0
   -0.0580    4.1275    0.7640 O   0  0  0  0  0  0  0  0  0  0  0  0
   -2.9244    3.6520    1.0122 C   0  0  0  0  0  0  0  0  0  0  0  0
   -0.8767    3.2303    3.0614 H   0  0  0  0  0  0  0  0  0  0  0  0
   -2.1804    1.6693    0.8556 H   0  0  0  0  0  0  0  0  0  0  0  0
   -2.6440    4.6260    1.4265 H   0  0  0  0  0  0  0  0  0  0  0  0
   -3.1187    3.7730   -0.0580 H   0  0  0  0  0  0  0  0  0  0  0  0
   -3.8510    3.3238    1.4939 H   0  0  0  0  0  0  0  0  0  0  0  0
    0.1539    2.2703   -0.4901 N   0  0  0  0  0  0  0  0  0  0  0  0
   -0.1393    0.9122   -0.9928 C   0  0  2  0  0  0  0  0  0  0  0  0
   -0.5039   -0.2641   -0.0494 C   0  0  0  0  0  0  0  0  0  0  0  0
   -0.6694   -1.3649   -0.5593 O   0  0  0  0  0  0  0  0  0  0  0  0
    1.1451    0.5342   -1.7430 C   0  0  0  0  0  0  0  0  0  0  0  0
    1.8137    1.8347   -2.1600 C   0  0  0  0  0  0  0  0  0  0  0  0
    1.2062    2.9149   -1.2760 C   0  0  0  0  0  0  0  0  0  0  0  0
   -0.9628    1.0005   -1.7085 H   0  0  0  0  0  0  0  0  0  0  0  0
    0.9297   -0.1036   -2.6070 H   0  0  0  0  0  0  0  0  0  0  0  0
    1.8213   -0.0139   -1.0768 H   0  0  0  0  0  0  0  0  0  0  0  0
    2.9004    1.7815   -2.0392 H   0  0  0  0  0  0  0  0  0  0  0  0
    1.5929    2.0506   -3.2103 H   0  0  0  0  0  0  0  0  0  0  0  0
    1.9800    3.3288   -0.6192 H   0  0  0  0  0  0  0  0  0  0  0  0
    0.7984    3.7276   -1.8869 H   0  0  0  0  0  0  0  0  0  0  0  0
   -0.5813   -0.1479    1.3286 N   0  0  0  0  0  0  0  0  0  0  0  0
   -0.9046   -1.2151    2.2995 C   0  0  2  0  0  0  0  0  0  0  0  0
    0.2026   -2.2807    2.4603 C   0  0  0  0  0  0  0  0  0  0  0  0
    0.6822   -2.4943    3.5663 O   0  0  0  0  0  0  0  0  0  0  0  0
   -2.2594   -1.8729    1.9964 C   0  0  0  0  0  0  0  0  0  0  0  0
   -0.3989    0.7764    1.7106 H   0  0  0  0  0  0  0  0  0  0  0  0
   -1.0058   -0.7315    3.2760 H   0  0  0  0  0  0  0  0  0  0  0  0
   -2.2013   -2.5240    1.1197 H   0  0  0  0  0  0  0  0  0  0  0  0
   -2.5769   -2.4804    2.8493 H   0  0  0  0  0  0  0  0  0  0  0  0
   -3.0229   -1.1115    1.8125 H   0  0  0  0  0  0  0  0  0  0  0  0
    0.6822   -2.9773    1.3689 N   0  0  0  0  0  0  0  0  0  0  0  0
    1.7292   -3.9867    1.4381 C   0  0  0  0  0  0  0  0  0  0  0  0
    0.2672   -2.7389    0.4646 H   0  0  0  0  0  0  0  0  0  0  0  0
    1.9378   -4.3821    0.4394 H   0  0  0  0  0  0  0  0  0  0  0  0
    2.6515   -3.5547    1.8400 H   0  0  0  0  0  0  0  0  0  0  0  0
    1.4185   -4.8168    2.0809 H   0  0  0  0  0  0  0  0  0  0  0  0
  1  2  2  0  0  0  0
  1  3  1  0  0  0  0
  1  7  1  0  0  0  0
  3  4  1  0  0  0  0
  3  5  1  0  0  0  0
  3  6  1  0  0  0  0
  7  8  1  0  0  0  0
  7 12  1  0  0  0  0
  8  9  1  0  0  0  0
  8 11  1  0  0  0  0
  8 13  1  0  0  0  0
  9 10  2  0  0  0  0
  9 17  1  0  0  0  0
 11 14  1  0  0  0  0
 11 15  1  0  0  0  0
 11 16  1  0  0  0  0
 17 18  1  0  0  0  0
 17 23  1  0  0  0  0
 18 19  1  0  0  0  0
 18 21  1  0  0  0  0
 18 24  1  0  0  0  0
 19 20  2  0  0  0  0
 19 31  1  0  0  0  0
 21 22  1  0  0  0  0
 21 25  1  0  0  0  0
 21 26  1  0  0  0  0
 22 23  1  0  0  0  0
 22 27  1  0  0  0  0
 22 28  1  0  0  0  0
 23 29  1  0  0  0  0
 23 30  1  0  0  0  0
 31 32  1  0  0  0  0
 31 36  1  0  0  0  0
 32 33  1  0  0  0  0
 32 35  1  0  0  0  0
 32 37  1  0  0  0  0
 33 34  2  0  0  0  0
 33 41  1  0  0  0  0
 35 38  1  0  0  0  0
 35 39  1  0  0  0  0
 35 40  1  0  0  0  0
 41 42  1  0  0  0  0
 41 43  1  0  0  0  0
 42 44  1  0  0  0  0
 42 45  1  0  0  0  0
 42 46  1  0  0  0  0
M  END
$$$$

  -OEChem-05262217223D

 46 46  0     1  0  0  0  0  0999 V2000
   -0.9189    2.2102    3.7791 C   0  0  0  0  0  0  0  0  0  0  0  0
   -0.3692    1.2009    3.3682 O   0  0  0  0  0  0  0  0  0  0  0  0
   -0.6579    2.7083    5.1873 C   0  0  0  0  0  0  0  0  0  0  0  0
   -1.6004    2.8056    5.7313 H   0  0  0  0  0  0  0  0  0  0  0  0
   -0.0137    2.0046    5.7223 H   0  0  0  0  0  0  0  0  0  0  0  0
   -0.1624    3.6817    5.1517 H   0  0  0  0  0  0  0  0  0  0  0  0
   -1.7509    2.9142    2.9349 N   0  0  0  0  0  0  0  0  0  0  0  0
   -1.8110    2.6502    1.4885 C   0  0  2  0  0  0  0  0  0  0  0  0
   -0.4728    2.9761    0.7682 C   0  0  0  0  0  0  0  0  0  0  0  0
    0.0114    4.0678    1.0639 O   0  0  0  0  0  0  0  0  0  0  0  0
   -2.9223    3.5394    0.9211 C   0  0  0  0  0  0  0  0  0  0  0  0
   -1.9910    3.8519    3.2444 H   0  0  0  0  0  0  0  0  0  0  0  0
   -2.1263    1.6326    1.3054 H   0  0  0  0  0  0  0  0  0  0  0  0
   -2.6971    4.5980    1.0880 H   0  0  0  0  0  0  0  0  0  0  0  0
   -3.0276    3.3742   -0.1559 H   0  0  0  0  0  0  0  0  0  0  0  0
   -3.8782    3.3063    1.4007 H   0  0  0  0  0  0  0  0  0  0  0  0
    0.1931    2.2223   -0.2177 N   0  0  0  0  0  0  0  0  0  0  0  0
   -0.1501    0.9253   -0.8542 C   0  0  2  0  0  0  0  0  0  0  0  0
   -0.6345   -0.3601   -0.1180 C   0  0  0  0  0  0  0  0  0  0  0  0
   -0.7670   -1.3615   -0.8117 O   0  0  0  0  0  0  0  0  0  0  0  0
    1.1472    0.5539   -1.5911 C   0  0  0  0  0  0  0  0  0  0  0  0
    1.8977    1.8435   -1.8677 C   0  0  0  0  0  0  0  0  0  0  0  0
    1.3095    2.8683   -0.9136 C   0  0  0  0  0  0  0  0  0  0  0  0
   -0.9272    1.1449   -1.5930 H   0  0  0  0  0  0  0  0  0  0  0  0
    0.9389    0.0067   -2.5166 H   0  0  0  0  0  0  0  0  0  0  0  0
    1.7682   -0.0844   -0.9518 H   0  0  0  0  0  0  0  0  0  0  0  0
    2.9745    1.7210   -1.7130 H   0  0  0  0  0  0  0  0  0  0  0  0
    1.7302    2.1629   -2.9014 H   0  0  0  0  0  0  0  0  0  0  0  0
    2.0781    3.1815   -0.1979 H   0  0  0  0  0  0  0  0  0  0  0  0
    0.9703    3.7518   -1.4654 H   0  0  0  0  0  0  0  0  0  0  0  0
   -1.0905   -0.4339    1.1848 N   0  0  0  0  0  0  0  0  0  0  0  0
   -1.7676   -1.5650    1.8561 C   0  0  2  0  0  0  0  0  0  0  0  0
   -0.9119   -2.8343    2.0830 C   0  0  0  0  0  0  0  0  0  0  0  0
   -1.0342   -3.4634    3.1268 O   0  0  0  0  0  0  0  0  0  0  0  0
   -3.0847   -1.9173    1.1513 C   0  0  0  0  0  0  0  0  0  0  0  0
   -0.7513    0.3040    1.8098 H   0  0  0  0  0  0  0  0  0  0  0  0
   -2.0308   -1.2075    2.8571 H   0  0  0  0  0  0  0  0  0  0  0  0
   -2.9026   -2.3769    0.1756 H   0  0  0  0  0  0  0  0  0  0  0  0
   -3.6916   -1.0188    1.0081 H   0  0  0  0  0  0  0  0  0  0  0  0
   -3.6541   -2.6268    1.7597 H   0  0  0  0  0  0  0  0  0  0  0  0
   -0.0670   -3.3207    1.1052 N   0  0  0  0  0  0  0  0  0  0  0  0
    0.6426   -4.5883    1.2039 C   0  0  0  0  0  0  0  0  0  0  0  0
   -0.1120   -2.8401    0.2038 H   0  0  0  0  0  0  0  0  0  0  0  0
    1.3048   -4.5896    2.0760 H   0  0  0  0  0  0  0  0  0  0  0  0
   -0.0666   -5.4173    1.2975 H   0  0  0  0  0  0  0  0  0  0  0  0
    1.2504   -4.7501    0.3086 H   0  0  0  0  0  0  0  0  0  0  0  0
  1  2  2  0  0  0  0
  1  3  1  0  0  0  0
  1  7  1  0  0  0  0
  3  4  1  0  0  0  0
  3  5  1  0  0  0  0
  3  6  1  0  0  0  0
  7  8  1  0  0  0  0
  7 12  1  0  0  0  0
  8  9  1  0  0  0  0
  8 11  1  0  0  0  0
  8 13  1  0  0  0  0
  9 10  2  0  0  0  0
  9 17  1  0  0  0  0
 11 14  1  0  0  0  0
 11 15  1  0  0  0  0
 11 16  1  0  0  0  0
 17 18  1  0  0  0  0
 17 23  1  0  0  0  0
 18 19  1  0  0  0  0
 18 21  1  0  0  0  0
 18 24  1  0  0  0  0
 19 20  2  0  0  0  0
 19 31  1  0  0  0  0
 21 22  1  0  0  0  0
 21 25  1  0  0  0  0
 21 26  1  0  0  0  0
 22 23  1  0  0  0  0
 22 27  1  0  0  0  0
 22 28  1  0  0  0  0
 23 29  1  0  0  0  0
 23 30  1  0  0  0  0
 31 32  1  0  0  0  0
 31 36  1  0  0  0  0
 32 33  1  0  0  0  0
 32 35  1  0  0  0  0
 32 37  1  0  0  0  0
 33 34  2  0  0  0  0
 33 41  1  0  0  0  0
 35 38  1  0  0  0  0
 35 39  1  0  0  0  0
 35 40  1  0  0  0  0
 41 42  1  0  0  0  0
 41 43  1  0  0  0  0
 42 44  1  0  0  0  0
 42 45  1  0  0  0  0
 42 46  1  0  0  0  0
M  END
$$$$

  -OEChem-05262217223D

 46 46  0     1  0  0  0  0  0999 V2000
   -2.2864    1.7951    3.8003 C   0  0  0  0  0  0  0  0  0  0  0  0
   -3.3770    2.3387    3.7940 O   0  0  0  0  0  0  0  0  0  0  0  0
   -1.8481    0.9892    5.0086 C   0  0  0  0  0  0  0  0  0  0  0  0
   -2.6760    0.8906    5.7161 H   0  0  0  0  0  0  0  0  0  0  0  0
   -1.5303   -0.0105    4.7022 H   0  0  0  0  0  0  0  0  0  0  0  0
   -1.0151    1.4885    5.5093 H   0  0  0  0  0  0  0  0  0  0  0  0
   -1.4428    1.9075    2.7103 N   0  0  0  0  0  0  0  0  0  0  0  0
   -1.6346    2.8795    1.6150 C   0  0  2  0  0  0  0  0  0  0  0  0
   -0.3379    3.1031    0.7942 C   0  0  0  0  0  0  0  0  0  0  0  0
    0.3188    4.0620    1.1856 O   0  0  0  0  0  0  0  0  0  0  0  0
   -2.8641    2.6449    0.7116 C   0  0  0  0  0  0  0  0  0  0  0  0
   -0.4891    1.5926    2.8892 H   0  0  0  0  0  0  0  0  0  0  0  0
   -1.8339    3.8391    2.1091 H   0  0  0  0  0  0  0  0  0  0  0  0
   -3.0033    3.5125    0.0590 H   0  0  0  0  0  0  0  0  0  0  0  0
   -2.7703    1.7677    0.0754 H   0  0  0  0  0  0  0  0  0  0  0  0
   -3.7723    2.5323    1.3098 H   0  0  0  0  0  0  0  0  0  0  0  0
    0.1953    2.3642   -0.2856 N   0  0  0  0  0  0  0  0  0  0  0  0
   -0.2601    1.1448   -1.0120 C   0  0  2  0  0  0  0  0  0  0  0  0
   -0.7960   -0.1581   -0.3367 C   0  0  0  0  0  0  0  0  0  0  0  0
   -0.6107   -1.2318   -0.8982 O   0  0  0  0  0  0  0  0  0  0  0  0
    0.9596    0.7772   -1.8778 C   0  0  0  0  0  0  0  0  0  0  0  0
    1.7599    2.0438   -2.0974 C   0  0  0  0  0  0  0  0  0  0  0  0
    1.3006    3.0018   -1.0142 C   0  0  0  0  0  0  0  0  0  0  0  0
   -1.0650    1.4716   -1.6771 H   0  0  0  0  0  0  0  0  0  0  0  0
    0.6544    0.3258   -2.8280 H   0  0  0  0  0  0  0  0  0  0  0  0
    1.5931    0.0570   -1.3469 H   0  0  0  0  0  0  0  0  0  0  0  0
    2.8363    1.8531   -2.0364 H   0  0  0  0  0  0  0  0  0  0  0  0
    1.5380    2.4641   -3.0836 H   0  0  0  0  0  0  0  0  0  0  0  0
    2.1405    3.2049   -0.3396 H   0  0  0  0  0  0  0  0  0  0  0  0
    0.9794    3.9499   -1.4601 H   0  0  0  0  0  0  0  0  0  0  0  0
   -1.4637   -0.2000    0.8706 N   0  0  0  0  0  0  0  0  0  0  0  0
   -1.9175   -1.3875    1.6206 C   0  0  2  0  0  0  0  0  0  0  0  0
   -0.7493   -2.2352    2.1690 C   0  0  0  0  0  0  0  0  0  0  0  0
   -0.5234   -2.2349    3.3722 O   0  0  0  0  0  0  0  0  0  0  0  0
   -2.9196   -2.2345    0.8219 C   0  0  0  0  0  0  0  0  0  0  0  0
   -1.6485    0.7016    1.3020 H   0  0  0  0  0  0  0  0  0  0  0  0
   -2.4630   -1.0186    2.4952 H   0  0  0  0  0  0  0  0  0  0  0  0
   -2.4408   -2.7384   -0.0222 H   0  0  0  0  0  0  0  0  0  0  0  0
   -3.3574   -3.0012    1.4690 H   0  0  0  0  0  0  0  0  0  0  0  0
   -3.7276   -1.6040    0.4386 H   0  0  0  0  0  0  0  0  0  0  0  0
    0.1051   -2.9004    1.3128 N   0  0  0  0  0  0  0  0  0  0  0  0
    1.3249   -3.5681    1.7454 C   0  0  0  0  0  0  0  0  0  0  0  0
   -0.0226   -2.6932    0.3190 H   0  0  0  0  0  0  0  0  0  0  0  0
    1.0948   -4.3527    2.4738 H   0  0  0  0  0  0  0  0  0  0  0  0
    1.8254   -4.0297    0.8887 H   0  0  0  0  0  0  0  0  0  0  0  0
    2.0127   -2.8504    2.2043 H   0  0  0  0  0  0  0  0  0  0  0  0
  1  2  2  0  0  0  0
  1  3  1  0  0  0  0
  1  7  1  0  0  0  0
  3  4  1  0  0  0  0
  3  5  1  0  0  0  0
  3  6  1  0  0  0  0
  7  8  1  0  0  0  0
  7 12  1  0  0  0  0
  8  9  1  0  0  0  0
  8 11  1  0  0  0  0
  8 13  1  0  0  0  0
  9 10  2  0  0  0  0
  9 17  1  0  0  0  0
 11 14  1  0  0  0  0
 11 15  1  0  0  0  0
 11 16  1  0  0  0  0
 17 18  1  0  0  0  0
 17 23  1  0  0  0  0
 18 19  1  0  0  0  0
 18 21  1  0  0  0  0
 18 24  1  0  0  0  0
 19 20  2  0  0  0  0
 19 31  1  0  0  0  0
 21 22  1  0  0  0  0
 21 25  1  0  0  0  0
 21 26  1  0  0  0  0
 22 23  1  0  0  0  0
 22 27  1  0  0  0  0
 22 28  1  0  0  0  0
 23 29  1  0  0  0  0
 23 30  1  0  0  0  0
 31 32  1  0  0  0  0
 31 36  1  0  0  0  0
 32 33  1  0  0  0  0
 32 35  1  0  0  0  0
 32 37  1  0  0  0  0
 33 34  2  0  0  0  0
 33 41  1  0  0  0  0
 35 38  1  0  0  0  0
 35 39  1  0  0  0  0
 35 40  1  0  0  0  0
 41 42  1  0  0  0  0
 41 43  1  0  0  0  0
 42 44  1  0  0  0  0
 42 45  1  0  0  0  0
 42 46  1  0  0  0  0
M  END
$$$$

  -OEChem-05262217223D

 46 46  0     1  0  0  0  0  0999 V2000
   -0.9369    0.6055    3.6005 C   0  0  0  0  0  0  0  0  0  0  0  0
   -2.0878    0.5213    3.9989 O   0  0  0  0  0  0  0  0  0  0  0  0
    0.1779   -0.1039    4.3470 C   0  0  0  0  0  0  0  0  0  0  0  0
   -0.2263   -0.6457    5.2064 H   0  0  0  0  0  0  0  0  0  0  0  0
    0.6802   -0.8164    3.6881 H   0  0  0  0  0  0  0  0  0  0  0  0
    0.9091    0.6250    4.7049 H   0  0  0  0  0  0  0  0  0  0  0  0
   -0.6453    1.2957    2.4419 N   0  0  0  0  0  0  0  0  0  0  0  0
   -1.5328    2.2588    1.7775 C   0  0  2  0  0  0  0  0  0  0  0  0
   -0.8370    3.0865    0.6773 C   0  0  0  0  0  0  0  0  0  0  0  0
   -0.8345    4.2919    0.9124 O   0  0  0  0  0  0  0  0  0  0  0  0
   -2.8443    1.7144    1.1868 C   0  0  0  0  0  0  0  0  0  0  0  0
    0.3323    1.2857    2.1594 H   0  0  0  0  0  0  0  0  0  0  0  0
   -1.8299    2.9636    2.5637 H   0  0  0  0  0  0  0  0  0  0  0  0
   -3.5159    2.5505    0.9658 H   0  0  0  0  0  0  0  0  0  0  0  0
   -2.6685    1.1783    0.2516 H   0  0  0  0  0  0  0  0  0  0  0  0
   -3.3588    1.0545    1.8896 H   0  0  0  0  0  0  0  0  0  0  0  0
   -0.2677    2.6622   -0.5447 N   0  0  0  0  0  0  0  0  0  0  0  0
   -0.1111    1.3382   -1.2251 C   0  0  2  0  0  0  0  0  0  0  0  0
    0.3649   -0.0226   -0.5947 C   0  0  0  0  0  0  0  0  0  0  0  0
    1.3648   -0.5761   -1.0239 O   0  0  0  0  0  0  0  0  0  0  0  0
    0.7855    1.6714   -2.4368 C   0  0  0  0  0  0  0  0  0  0  0  0
    0.5966    3.1366   -2.7585 C   0  0  0  0  0  0  0  0  0  0  0  0
    0.0000    3.7443   -1.5051 C   0  0  0  0  0  0  0  0  0  0  0  0
   -1.1069    1.1055   -1.6126 H   0  0  0  0  0  0  0  0  0  0  0  0
    0.5509    1.0348   -3.2960 H   0  0  0  0  0  0  0  0  0  0  0  0
    1.8416    1.5256   -2.1835 H   0  0  0  0  0  0  0  0  0  0  0  0
    1.5445    3.6142   -3.0267 H   0  0  0  0  0  0  0  0  0  0  0  0
   -0.0992    3.2535   -3.5956 H   0  0  0  0  0  0  0  0  0  0  0  0
    0.7150    4.4609   -1.0842 H   0  0  0  0  0  0  0  0  0  0  0  0
   -0.9212    4.2835   -1.7536 H   0  0  0  0  0  0  0  0  0  0  0  0
    0.0381   -0.6706    0.5701 N   0  0  0  0  0  0  0  0  0  0  0  0
   -1.2470   -1.3652    0.7744 C   0  0  2  0  0  0  0  0  0  0  0  0
   -1.1164   -2.3854    1.9257 C   0  0  0  0  0  0  0  0  0  0  0  0
   -0.1082   -3.0750    2.0124 O   0  0  0  0  0  0  0  0  0  0  0  0
   -1.6956   -2.1053   -0.4949 C   0  0  0  0  0  0  0  0  0  0  0  0
    0.8154   -1.2952    0.7990 H   0  0  0  0  0  0  0  0  0  0  0  0
   -2.0218   -0.6658    1.0653 H   0  0  0  0  0  0  0  0  0  0  0  0
   -0.9118   -2.7912   -0.8348 H   0  0  0  0  0  0  0  0  0  0  0  0
   -2.6004   -2.6884   -0.2953 H   0  0  0  0  0  0  0  0  0  0  0  0
   -1.9177   -1.3998   -1.3007 H   0  0  0  0  0  0  0  0  0  0  0  0
   -2.0897   -2.4737    2.9037 N   0  0  0  0  0  0  0  0  0  0  0  0
   -1.9464   -3.3264    4.0773 C   0  0  0  0  0  0  0  0  0  0  0  0
   -2.7551   -1.7035    2.9573 H   0  0  0  0  0  0  0  0  0  0  0  0
   -1.7538   -4.3623    3.7784 H   0  0  0  0  0  0  0  0  0  0  0  0
   -1.1180   -2.9813    4.7041 H   0  0  0  0  0  0  0  0  0  0  0  0
   -2.8647   -3.3061    4.6721 H   0  0  0  0  0  0  0  0  0  0  0  0
  1  2  2  0  0  0  0
  1  3  1  0  0  0  0
  1  7  1  0  0  0  0
  3  4  1  0  0  0  0
  3  5  1  0  0  0  0
  3  6  1  0  0  0  0
  7  8  1  0  0  0  0
  7 12  1  0  0  0  0
  8  9  1  0  0  0  0
  8 11  1  0  0  0  0
  8 13  1  0  0  0  0
  9 10  2  0  0  0  0
  9 17  1  0  0  0  0
 11 14  1  0  0  0  0
 11 15  1  0  0  0  0
 11 16  1  0  0  0  0
 17 18  1  0  0  0  0
 17 23  1  0  0  0  0
 18 19  1  0  0  0  0
 18 21  1  0  0  0  0
 18 24  1  0  0  0  0
 19 20  2  0  0  0  0
 19 31  1  0  0  0  0
 21 22  1  0  0  0  0
 21 25  1  0  0  0  0
 21 26  1  0  0  0  0
 22 23  1  0  0  0  0
 22 27  1  0  0  0  0
 22 28  1  0  0  0  0
 23 29  1  0  0  0  0
 23 30  1  0  0  0  0
 31 32  1  0  0  0  0
 31 36  1  0  0  0  0
 32 33  1  0  0  0  0
 32 35  1  0  0  0  0
 32 37  1  0  0  0  0
 33 34  2  0  0  0  0
 33 41  1  0  0  0  0
 35 38  1  0  0  0  0
 35 39  1  0  0  0  0
 35 40  1  0  0  0  0
 41 42  1  0  0  0  0
 41 43  1  0  0  0  0
 42 44  1  0  0  0  0
 42 45  1  0  0  0  0
 42 46  1  0  0  0  0
M  END
$$$$

  -OEChem-05262217223D

 46 46  0     1  0  0  0  0  0999 V2000
   -2.5856    2.0810    3.3487 C   0  0  0  0  0  0  0  0  0  0  0  0
   -3.8002    2.1131    3.2552 O   0  0  0  0  0  0  0  0  0  0  0  0
   -1.9282    2.1465    4.7153 C   0  0  0  0  0  0  0  0  0  0  0  0
   -2.6520    1.8847    5.4924 H   0  0  0  0  0  0  0  0  0  0  0  0
   -1.0886    1.4494    4.7693 H   0  0  0  0  0  0  0  0  0  0  0  0
   -1.5608    3.1590    4.9012 H   0  0  0  0  0  0  0  0  0  0  0  0
   -1.8017    2.0144    2.2127 N   0  0  0  0  0  0  0  0  0  0  0  0
   -2.3066    2.3724    0.8771 C   0  0  2  0  0  0  0  0  0  0  0  0
   -1.1882    2.9173   -0.0417 C   0  0  0  0  0  0  0  0  0  0  0  0
   -1.2272    4.1321   -0.2050 O   0  0  0  0  0  0  0  0  0  0  0  0
   -3.1543    1.2821    0.1966 C   0  0  0  0  0  0  0  0  0  0  0  0
   -0.8038    2.1287    2.3786 H   0  0  0  0  0  0  0  0  0  0  0  0
   -2.9953    3.2135    1.0300 H   0  0  0  0  0  0  0  0  0  0  0  0
   -3.7420    1.7316   -0.6102 H   0  0  0  0  0  0  0  0  0  0  0  0
   -2.5503    0.4895   -0.2442 H   0  0  0  0  0  0  0  0  0  0  0  0
   -3.8519    0.8337    0.9109 H   0  0  0  0  0  0  0  0  0  0  0  0
   -0.1553    2.2150   -0.6955 N   0  0  0  0  0  0  0  0  0  0  0  0
    0.2120    0.7737   -0.7345 C   0  0  2  0  0  0  0  0  0  0  0  0
    0.2798   -0.1751    0.5081 C   0  0  0  0  0  0  0  0  0  0  0  0
    1.2646   -0.8865    0.6804 O   0  0  0  0  0  0  0  0  0  0  0  0
    1.5784    0.7858   -1.4495 C   0  0  0  0  0  0  0  0  0  0  0  0
    1.6368    2.0382   -2.2998 C   0  0  0  0  0  0  0  0  0  0  0  0
    0.5681    2.9561   -1.7367 C   0  0  0  0  0  0  0  0  0  0  0  0
   -0.5082    0.2990   -1.4075 H   0  0  0  0  0  0  0  0  0  0  0  0
    1.7256   -0.1180   -2.0499 H   0  0  0  0  0  0  0  0  0  0  0  0
    2.3906    0.8432   -0.7161 H   0  0  0  0  0  0  0  0  0  0  0  0
    2.6277    2.5024   -2.2624 H   0  0  0  0  0  0  0  0  0  0  0  0
    1.4066    1.7977   -3.3427 H   0  0  0  0  0  0  0  0  0  0  0  0
    1.0466    3.8469   -1.3133 H   0  0  0  0  0  0  0  0  0  0  0  0
   -0.1128    3.2767   -2.5333 H   0  0  0  0  0  0  0  0  0  0  0  0
   -0.7913   -0.4576    1.3362 N   0  0  0  0  0  0  0  0  0  0  0  0
   -0.8966   -1.6701    2.1689 C   0  0  2  0  0  0  0  0  0  0  0  0
   -1.1019   -2.9482    1.3157 C   0  0  0  0  0  0  0  0  0  0  0  0
   -2.1960   -3.4909    1.2233 O   0  0  0  0  0  0  0  0  0  0  0  0
   -2.0402   -1.4643    3.1699 C   0  0  0  0  0  0  0  0  0  0  0  0
   -1.6331    0.1027    1.2184 H   0  0  0  0  0  0  0  0  0  0  0  0
    0.0259   -1.8046    2.7438 H   0  0  0  0  0  0  0  0  0  0  0  0
   -2.9782   -1.2426    2.6497 H   0  0  0  0  0  0  0  0  0  0  0  0
   -2.1849   -2.3679    3.7709 H   0  0  0  0  0  0  0  0  0  0  0  0
   -1.8102   -0.6403    3.8474 H   0  0  0  0  0  0  0  0  0  0  0  0
   -0.0350   -3.4689    0.6104 N   0  0  0  0  0  0  0  0  0  0  0  0
   -0.1433   -4.6029   -0.2980 C   0  0  0  0  0  0  0  0  0  0  0  0
    0.8106   -2.8939    0.5936 H   0  0  0  0  0  0  0  0  0  0  0  0
    0.8443   -4.8735   -0.6836 H   0  0  0  0  0  0  0  0  0  0  0  0
   -0.5591   -5.4723    0.2224 H   0  0  0  0  0  0  0  0  0  0  0  0
   -0.7921   -4.3555   -1.1443 H   0  0  0  0  0  0  0  0  0  0  0  0
  1  2  2  0  0  0  0
  1  3  1  0  0  0  0
  1  7  1  0  0  0  0
  3  4  1  0  0  0  0
  3  5  1  0  0  0  0
  3  6  1  0  0  0  0
  7  8  1  0  0  0  0
  7 12  1  0  0  0  0
  8  9  1  0  0  0  0
  8 11  1  0  0  0  0
  8 13  1  0  0  0  0
  9 10  2  0  0  0  0
  9 17  1  0  0  0  0
 11 14  1  0  0  0  0
 11 15  1  0  0  0  0
 11 16  1  0  0  0  0
 17 18  1  0  0  0  0
 17 23  1  0  0  0  0
 18 19  1  0  0  0  0
 18 21  1  0  0  0  0
 18 24  1  0  0  0  0
 19 20  2  0  0  0  0
 19 31  1  0  0  0  0
 21 22  1  0  0  0  0
 21 25  1  0  0  0  0
 21 26  1  0  0  0  0
 22 23  1  0  0  0  0
 22 27  1  0  0  0  0
 22 28  1  0  0  0  0
 23 29  1  0  0  0  0
 23 30  1  0  0  0  0
 31 32  1  0  0  0  0
 31 36  1  0  0  0  0
 32 33  1  0  0  0  0
 32 35  1  0  0  0  0
 32 37  1  0  0  0  0
 33 34  2  0  0  0  0
 33 41  1  0  0  0  0
 35 38  1  0  0  0  0
 35 39  1  0  0  0  0
 35 40  1  0  0  0  0
 41 42  1  0  0  0  0
 41 43  1  0  0  0  0
 42 44  1  0  0  0  0
 42 45  1  0  0  0  0
 42 46  1  0  0  0  0
M  END
$$$$

  -OEChem-05262217223D

 46 46  0     1  0  0  0  0  0999 V2000
   -1.2473    0.7789    4.0607 C   0  0  0  0  0  0  0  0  0  0  0  0
   -1.8284   -0.2383    3.7065 O   0  0  0  0  0  0  0  0  0  0  0  0
   -0.8839    0.9894    5.5182 C   0  0  0  0  0  0  0  0  0  0  0  0
   -1.4099    1.8627    5.9113 H   0  0  0  0  0  0  0  0  0  0  0  0
   -1.1650    0.1126    6.1083 H   0  0  0  0  0  0  0  0  0  0  0  0
    0.1929    1.1480    5.6160 H   0  0  0  0  0  0  0  0  0  0  0  0
   -0.9124    1.7271    3.1175 N   0  0  0  0  0  0  0  0  0  0  0  0
   -1.0776    1.5261    1.6724 C   0  0  2  0  0  0  0  0  0  0  0  0
    0.0161    2.2111    0.8268 C   0  0  0  0  0  0  0  0  0  0  0  0
    0.6868    3.0646    1.4053 O   0  0  0  0  0  0  0  0  0  0  0  0
   -2.4719    2.0510    1.3021 C   0  0  0  0  0  0  0  0  0  0  0  0
   -0.3047    2.4925    3.4107 H   0  0  0  0  0  0  0  0  0  0  0  0
   -0.9781    0.4610    1.4885 H   0  0  0  0  0  0  0  0  0  0  0  0
   -2.5651    3.1038    1.5888 H   0  0  0  0  0  0  0  0  0  0  0  0
   -2.6554    1.9765    0.2279 H   0  0  0  0  0  0  0  0  0  0  0  0
   -3.2439    1.4798    1.8274 H   0  0  0  0  0  0  0  0  0  0  0  0
    0.2400    2.0024   -0.5437 N   0  0  0  0  0  0  0  0  0  0  0  0
   -0.4605    1.1248   -1.5153 C   0  0  2  0  0  0  0  0  0  0  0  0
   -0.8431   -0.3541   -1.1889 C   0  0  0  0  0  0  0  0  0  0  0  0
   -0.1908   -1.2812   -1.6410 O   0  0  0  0  0  0  0  0  0  0  0  0
    0.4430    1.1969   -2.7619 C   0  0  0  0  0  0  0  0  0  0  0  0
    1.2025    2.5100   -2.6854 C   0  0  0  0  0  0  0  0  0  0  0  0
    1.1161    2.9521   -1.2328 C   0  0  0  0  0  0  0  0  0  0  0  0
   -1.4018    1.6213   -1.7664 H   0  0  0  0  0  0  0  0  0  0  0  0
   -0.1392    1.1149   -3.6852 H   0  0  0  0  0  0  0  0  0  0  0  0
    1.1822    0.3887   -2.7559 H   0  0  0  0  0  0  0  0  0  0  0  0
    2.2419    2.3889   -3.0078 H   0  0  0  0  0  0  0  0  0  0  0  0
    0.7266    3.2575   -3.3278 H   0  0  0  0  0  0  0  0  0  0  0  0
    2.1175    2.9390   -0.7876 H   0  0  0  0  0  0  0  0  0  0  0  0
    0.7209    3.9721   -1.1675 H   0  0  0  0  0  0  0  0  0  0  0  0
   -1.9094   -0.6649   -0.3549 N   0  0  0  0  0  0  0  0  0  0  0  0
   -2.3828   -2.0222   -0.0082 C   0  0  2  0  0  0  0  0  0  0  0  0
   -1.3507   -2.8788    0.7729 C   0  0  0  0  0  0  0  0  0  0  0  0
   -1.0882   -4.0281    0.4379 O   0  0  0  0  0  0  0  0  0  0  0  0
   -2.9279   -2.7261   -1.2626 C   0  0  0  0  0  0  0  0  0  0  0  0
   -2.4591    0.1158   -0.0134 H   0  0  0  0  0  0  0  0  0  0  0  0
   -3.2279   -1.9016    0.6757 H   0  0  0  0  0  0  0  0  0  0  0  0
   -2.1192   -2.9738   -1.9571 H   0  0  0  0  0  0  0  0  0  0  0  0
   -3.4306   -3.6572   -0.9828 H   0  0  0  0  0  0  0  0  0  0  0  0
   -3.6484   -2.0857   -1.7789 H   0  0  0  0  0  0  0  0  0  0  0  0
   -0.8148   -2.3996    1.9564 N   0  0  0  0  0  0  0  0  0  0  0  0
    0.0473   -3.2003    2.8152 C   0  0  0  0  0  0  0  0  0  0  0  0
   -1.2303   -1.5541    2.3523 H   0  0  0  0  0  0  0  0  0  0  0  0
   -0.4802   -4.0955    3.1607 H   0  0  0  0  0  0  0  0  0  0  0  0
    0.9476   -3.5073    2.2729 H   0  0  0  0  0  0  0  0  0  0  0  0
    0.3527   -2.6179    3.6895 H   0  0  0  0  0  0  0  0  0  0  0  0
  1  2  2  0  0  0  0
  1  3  1  0  0  0  0
  1  7  1  0  0  0  0
  3  4  1  0  0  0  0
  3  5  1  0  0  0  0
  3  6  1  0  0  0  0
  7  8  1  0  0  0  0
  7 12  1  0  0  0  0
  8  9  1  0  0  0  0
  8 11  1  0  0  0  0
  8 13  1  0  0  0  0
  9 10  2  0  0  0  0
  9 17  1  0  0  0  0
 11 14  1  0  0  0  0
 11 15  1  0  0  0  0
 11 16  1  0  0  0  0
 17 18  1  0  0  0  0
 17 23  1  0  0  0  0
 18 19  1  0  0  0  0
 18 21  1  0  0  0  0
 18 24  1  0  0  0  0
 19 20  2  0  0  0  0
 19 31  1  0  0  0  0
 21 22  1  0  0  0  0
 21 25  1  0  0  0  0
 21 26  1  0  0  0  0
 22 23  1  0  0  0  0
 22 27  1  0  0  0  0
 22 28  1  0  0  0  0
 23 29  1  0  0  0  0
 23 30  1  0  0  0  0
 31 32  1  0  0  0  0
 31 36  1  0  0  0  0
 32 33  1  0  0  0  0
 32 35  1  0  0  0  0
 32 37  1  0  0  0  0
 33 34  2  0  0  0  0
 33 41  1  0  0  0  0
 35 38  1  0  0  0  0
 35 39  1  0  0  0  0
 35 40  1  0  0  0  0
 41 42  1  0  0  0  0
 41 43  1  0  0  0  0
 42 44  1  0  0  0  0
 42 45  1  0  0  0  0
 42 46  1  0  0  0  0
M  END
$$$$

  -OEChem-05262217223D

 46 46  0     1  0  0  0  0  0999 V2000
   -1.2122    0.6041    3.9855 C   0  0  0  0  0  0  0  0  0  0  0  0
   -1.8287   -0.3850    3.6141 O   0  0  0  0  0  0  0  0  0  0  0  0
   -0.8367    0.7726    5.4450 C   0  0  0  0  0  0  0  0  0  0  0  0
   -1.3013    1.6760    5.8474 H   0  0  0  0  0  0  0  0  0  0  0  0
   -1.1798   -0.0887    6.0250 H   0  0  0  0  0  0  0  0  0  0  0  0
    0.2486    0.8538    5.5440 H   0  0  0  0  0  0  0  0  0  0  0  0
   -0.8501    1.5585    3.0590 N   0  0  0  0  0  0  0  0  0  0  0  0
   -1.0437    1.4042    1.6119 C   0  0  2  0  0  0  0  0  0  0  0  0
   -0.0160    2.1970    0.7740 C   0  0  0  0  0  0  0  0  0  0  0  0
    0.5957    3.0889    1.3591 O   0  0  0  0  0  0  0  0  0  0  0  0
   -2.4727    1.8664    1.2911 C   0  0  0  0  0  0  0  0  0  0  0  0
   -0.2443    2.3194    3.3674 H   0  0  0  0  0  0  0  0  0  0  0  0
   -0.9003    0.3521    1.3779 H   0  0  0  0  0  0  0  0  0  0  0  0
   -2.6146    2.9023    1.6161 H   0  0  0  0  0  0  0  0  0  0  0  0
   -2.6752    1.8161    0.2193 H   0  0  0  0  0  0  0  0  0  0  0  0
   -3.2026    1.2376    1.8106 H   0  0  0  0  0  0  0  0  0  0  0  0
    0.2028    2.0315   -0.6013 N   0  0  0  0  0  0  0  0  0  0  0  0
   -0.4571    1.1077   -1.5493 C   0  0  2  0  0  0  0  0  0  0  0  0
   -0.6880   -0.3832   -1.1660 C   0  0  0  0  0  0  0  0  0  0  0  0
    0.1723   -1.2220   -1.3781 O   0  0  0  0  0  0  0  0  0  0  0  0
    0.4088    1.2273   -2.8165 C   0  0  0  0  0  0  0  0  0  0  0  0
    1.0820    2.5905   -2.7589 C   0  0  0  0  0  0  0  0  0  0  0  0
    0.9998    3.0360   -1.3045 C   0  0  0  0  0  0  0  0  0  0  0  0
   -1.4410    1.5248   -1.7809 H   0  0  0  0  0  0  0  0  0  0  0  0
   -0.1922    1.1099   -3.7238 H   0  0  0  0  0  0  0  0  0  0  0  0
    1.1940    0.4636   -2.8311 H   0  0  0  0  0  0  0  0  0  0  0  0
    2.1201    2.5363   -3.1029 H   0  0  0  0  0  0  0  0  0  0  0  0
    0.5449    3.3019   -3.3940 H   0  0  0  0  0  0  0  0  0  0  0  0
    2.0081    3.0914   -0.8783 H   0  0  0  0  0  0  0  0  0  0  0  0
    0.5381    4.0271   -1.2329 H   0  0  0  0  0  0  0  0  0  0  0  0
   -1.8573   -0.7859   -0.5322 N   0  0  0  0  0  0  0  0  0  0  0  0
   -2.2483   -2.1877   -0.2678 C   0  0  2  0  0  0  0  0  0  0  0  0
   -1.2595   -2.9977    0.6167 C   0  0  0  0  0  0  0  0  0  0  0  0
   -0.9573   -4.1514    0.3321 O   0  0  0  0  0  0  0  0  0  0  0  0
   -2.5470   -2.8805   -1.6080 C   0  0  0  0  0  0  0  0  0  0  0  0
   -2.5711   -0.0758   -0.4078 H   0  0  0  0  0  0  0  0  0  0  0  0
   -3.1838   -2.1616    0.2991 H   0  0  0  0  0  0  0  0  0  0  0  0
   -1.6275   -3.0217   -2.1850 H   0  0  0  0  0  0  0  0  0  0  0  0
   -2.9942   -3.8642   -1.4340 H   0  0  0  0  0  0  0  0  0  0  0  0
   -3.2457   -2.2848   -2.2020 H   0  0  0  0  0  0  0  0  0  0  0  0
   -0.8096   -2.4816    1.8199 N   0  0  0  0  0  0  0  0  0  0  0  0
    0.0249   -3.2368    2.7445 C   0  0  0  0  0  0  0  0  0  0  0  0
   -1.2499   -1.6270    2.1642 H   0  0  0  0  0  0  0  0  0  0  0  0
   -0.5053   -4.1255    3.1021 H   0  0  0  0  0  0  0  0  0  0  0  0
    0.9519   -3.5512    2.2533 H   0  0  0  0  0  0  0  0  0  0  0  0
    0.2852   -2.6164    3.6073 H   0  0  0  0  0  0  0  0  0  0  0  0
  1  2  2  0  0  0  0
  1  3  1  0  0  0  0
  1  7  1  0  0  0  0
  3  4  1  0  0  0  0
  3  5  1  0  0  0  0
  3  6  1  0  0  0  0
  7  8  1  0  0  0  0
  7 12  1  0  0  0  0
  8  9  1  0  0  0  0
  8 11  1  0  0  0  0
  8 13  1  0  0  0  0
  9 10  2  0  0  0  0
  9 17  1  0  0  0  0
 11 14  1  0  0  0  0
 11 15  1  0  0  0  0
 11 16  1  0  0  0  0
 17 18  1  0  0  0  0
 17 23  1  0  0  0  0
 18 19  1  0  0  0  0
 18 21  1  0  0  0  0
 18 24  1  0  0  0  0
 19 20  2  0  0  0  0
 19 31  1  0  0  0  0
 21 22  1  0  0  0  0
 21 25  1  0  0  0  0
 21 26  1  0  0  0  0
 22 23  1  0  0  0  0
 22 27  1  0  0  0  0
 22 28  1  0  0  0  0
 23 29  1  0  0  0  0
 23 30  1  0  0  0  0
 31 32  1  0  0  0  0
 31 36  1  0  0  0  0
 32 33  1  0  0  0  0
 32 35  1  0  0  0  0
 32 37  1  0  0  0  0
 33 34  2  0  0  0  0
 33 41  1  0  0  0  0
 35 38  1  0  0  0  0
 35 39  1  0  0  0  0
 35 40  1  0  0  0  0
 41 42  1  0  0  0  0
 41 43  1  0  0  0  0
 42 44  1  0  0  0  0
 42 45  1  0  0  0  0
 42 46  1  0  0  0  0
M  END
$$$$

  -OEChem-05262217223D

 46 46  0     1  0  0  0  0  0999 V2000
   -1.5893    0.6044    3.5821 C   0  0  0  0  0  0  0  0  0  0  0  0
   -1.4890   -0.5613    3.2200 O   0  0  0  0  0  0  0  0  0  0  0  0
   -1.4508    0.9495    5.0529 C   0  0  0  0  0  0  0  0  0  0  0  0
   -2.3707    1.4148    5.4155 H   0  0  0  0  0  0  0  0  0  0  0  0
   -1.2586    0.0451    5.6371 H   0  0  0  0  0  0  0  0  0  0  0  0
   -0.6189    1.6436    5.1964 H   0  0  0  0  0  0  0  0  0  0  0  0
   -1.8213    1.6155    2.6684 N   0  0  0  0  0  0  0  0  0  0  0  0
   -1.6615    1.4445    1.2166 C   0  0  2  0  0  0  0  0  0  0  0  0
   -0.5782    2.3788    0.6268 C   0  0  0  0  0  0  0  0  0  0  0  0
   -0.3793    3.4325    1.2300 O   0  0  0  0  0  0  0  0  0  0  0  0
   -3.0186    1.6828    0.5519 C   0  0  0  0  0  0  0  0  0  0  0  0
   -1.6951    2.5643    3.0185 H   0  0  0  0  0  0  0  0  0  0  0  0
   -1.3433    0.4277    1.0358 H   0  0  0  0  0  0  0  0  0  0  0  0
   -3.3571    2.7084    0.7316 H   0  0  0  0  0  0  0  0  0  0  0  0
   -2.9519    1.5227   -0.5278 H   0  0  0  0  0  0  0  0  0  0  0  0
   -3.7640    0.9924    0.9592 H   0  0  0  0  0  0  0  0  0  0  0  0
    0.1136    2.1639   -0.5743 N   0  0  0  0  0  0  0  0  0  0  0  0
   -0.0180    1.0457   -1.5288 C   0  0  2  0  0  0  0  0  0  0  0  0
   -0.0878   -0.3932   -0.9647 C   0  0  0  0  0  0  0  0  0  0  0  0
    0.7913   -0.7699   -0.2055 O   0  0  0  0  0  0  0  0  0  0  0  0
    1.2171    1.1918   -2.4267 C   0  0  0  0  0  0  0  0  0  0  0  0
    1.6247    2.6584   -2.3613 C   0  0  0  0  0  0  0  0  0  0  0  0
    0.9596    3.2261   -1.1117 C   0  0  0  0  0  0  0  0  0  0  0  0
   -0.9146    1.2181   -2.1305 H   0  0  0  0  0  0  0  0  0  0  0  0
    1.0090    0.8741   -3.4533 H   0  0  0  0  0  0  0  0  0  0  0  0
    2.0429    0.5816   -2.0435 H   0  0  0  0  0  0  0  0  0  0  0  0
    2.7133    2.7656   -2.3164 H   0  0  0  0  0  0  0  0  0  0  0  0
    1.2618    3.1911   -3.2459 H   0  0  0  0  0  0  0  0  0  0  0  0
    1.7263    3.5095   -0.3817 H   0  0  0  0  0  0  0  0  0  0  0  0
    0.3680    4.1148   -1.3579 H   0  0  0  0  0  0  0  0  0  0  0  0
   -1.3172   -1.0412   -0.9616 N   0  0  0  0  0  0  0  0  0  0  0  0
   -1.7465   -2.1101   -0.0367 C   0  0  2  0  0  0  0  0  0  0  0  0
   -0.6955   -3.1938    0.3087 C   0  0  0  0  0  0  0  0  0  0  0  0
   -0.4156   -4.0821   -0.4902 O   0  0  0  0  0  0  0  0  0  0  0  0
   -2.9852   -2.7589   -0.6648 C   0  0  0  0  0  0  0  0  0  0  0  0
   -2.0231   -0.6658   -1.5857 H   0  0  0  0  0  0  0  0  0  0  0  0
   -2.0547   -1.6572    0.9090 H   0  0  0  0  0  0  0  0  0  0  0  0
   -2.7378   -3.2005   -1.6360 H   0  0  0  0  0  0  0  0  0  0  0  0
   -3.3686   -3.5512   -0.0136 H   0  0  0  0  0  0  0  0  0  0  0  0
   -3.7768   -2.0173   -0.8074 H   0  0  0  0  0  0  0  0  0  0  0  0
   -0.1507   -3.2102    1.5793 N   0  0  0  0  0  0  0  0  0  0  0  0
    0.9347   -4.1024    1.9592 C   0  0  0  0  0  0  0  0  0  0  0  0
   -0.3208   -2.3804    2.1497 H   0  0  0  0  0  0  0  0  0  0  0  0
    0.6467   -5.1474    1.8041 H   0  0  0  0  0  0  0  0  0  0  0  0
    1.8287   -3.8895    1.3637 H   0  0  0  0  0  0  0  0  0  0  0  0
    1.1799   -3.9666    3.0167 H   0  0  0  0  0  0  0  0  0  0  0  0
  1  2  2  0  0  0  0
  1  3  1  0  0  0  0
  1  7  1  0  0  0  0
  3  4  1  0  0  0  0
  3  5  1  0  0  0  0
  3  6  1  0  0  0  0
  7  8  1  0  0  0  0
  7 12  1  0  0  0  0
  8  9  1  0  0  0  0
  8 11  1  0  0  0  0
  8 13  1  0  0  0  0
  9 10  2  0  0  0  0
  9 17  1  0  0  0  0
 11 14  1  0  0  0  0
 11 15  1  0  0  0  0
 11 16  1  0  0  0  0
 17 18  1  0  0  0  0
 17 23  1  0  0  0  0
 18 19  1  0  0  0  0
 18 21  1  0  0  0  0
 18 24  1  0  0  0  0
 19 20  2  0  0  0  0
 19 31  1  0  0  0  0
 21 22  1  0  0  0  0
 21 25  1  0  0  0  0
 21 26  1  0  0  0  0
 22 23  1  0  0  0  0
 22 27  1  0  0  0  0
 22 28  1  0  0  0  0
 23 29  1  0  0  0  0
 23 30  1  0  0  0  0
 31 32  1  0  0  0  0
 31 36  1  0  0  0  0
 32 33  1  0  0  0  0
 32 35  1  0  0  0  0
 32 37  1  0  0  0  0
 33 34  2  0  0  0  0
 33 41  1  0  0  0  0
 35 38  1  0  0  0  0
 35 39  1  0  0  0  0
 35 40  1  0  0  0  0
 41 42  1  0  0  0  0
 41 43  1  0  0  0  0
 42 44  1  0  0  0  0
 42 45  1  0  0  0  0
 42 46  1  0  0  0  0
M  END
$$$$

  -OEChem-05262217223D

 46 46  0     1  0  0  0  0  0999 V2000
   -1.5042    0.3602    3.2869 C   0  0  0  0  0  0  0  0  0  0  0  0
   -1.4270   -0.7591    2.7997 O   0  0  0  0  0  0  0  0  0  0  0  0
   -1.2160    0.5529    4.7635 C   0  0  0  0  0  0  0  0  0  0  0  0
   -2.0839    0.9938    5.2596 H   0  0  0  0  0  0  0  0  0  0  0  0
   -0.9935   -0.4090    5.2342 H   0  0  0  0  0  0  0  0  0  0  0  0
   -0.3560    1.2151    4.8909 H   0  0  0  0  0  0  0  0  0  0  0  0
   -1.8618    1.4522    2.5199 N   0  0  0  0  0  0  0  0  0  0  0  0
   -1.8706    1.4586    1.0496 C   0  0  2  0  0  0  0  0  0  0  0  0
   -0.7914    2.4234    0.4890 C   0  0  0  0  0  0  0  0  0  0  0  0
   -0.7028    3.5121    1.0550 O   0  0  0  0  0  0  0  0  0  0  0  0
   -3.2637    1.8920    0.5896 C   0  0  0  0  0  0  0  0  0  0  0  0
   -1.7454    2.3611    2.9649 H   0  0  0  0  0  0  0  0  0  0  0  0
   -1.7018    0.4541    0.6828 H   0  0  0  0  0  0  0  0  0  0  0  0
   -3.4925    2.9002    0.9505 H   0  0  0  0  0  0  0  0  0  0  0  0
   -3.3214    1.8920   -0.5029 H   0  0  0  0  0  0  0  0  0  0  0  0
   -4.0203    1.2031    0.9776 H   0  0  0  0  0  0  0  0  0  0  0  0
    0.0323    2.2017   -0.6248 N   0  0  0  0  0  0  0  0  0  0  0  0
    0.0716    1.0266   -1.5113 C   0  0  2  0  0  0  0  0  0  0  0  0
    0.0498   -0.3661   -0.8467 C   0  0  0  0  0  0  0  0  0  0  0  0
    0.7387   -0.5606    0.1434 O   0  0  0  0  0  0  0  0  0  0  0  0
    1.3811    1.2010   -2.2868 C   0  0  0  0  0  0  0  0  0  0  0  0
    1.6879    2.6937   -2.2759 C   0  0  0  0  0  0  0  0  0  0  0  0
    0.8615    3.2879   -1.1394 C   0  0  0  0  0  0  0  0  0  0  0  0
   -0.7721    1.0938   -2.2041 H   0  0  0  0  0  0  0  0  0  0  0  0
    1.3023    0.8091   -3.3056 H   0  0  0  0  0  0  0  0  0  0  0  0
    2.1953    0.6698   -1.7799 H   0  0  0  0  0  0  0  0  0  0  0  0
    2.7570    2.8788   -2.1315 H   0  0  0  0  0  0  0  0  0  0  0  0
    1.3847    3.1459   -3.2255 H   0  0  0  0  0  0  0  0  0  0  0  0
    1.5277    3.6660   -0.3556 H   0  0  0  0  0  0  0  0  0  0  0  0
    0.2444    4.1174   -1.5020 H   0  0  0  0  0  0  0  0  0  0  0  0
   -0.9847   -1.2382   -1.1514 N   0  0  0  0  0  0  0  0  0  0  0  0
   -1.4675   -2.3174   -0.2721 C   0  0  2  0  0  0  0  0  0  0  0  0
   -0.3785   -3.2799    0.2615 C   0  0  0  0  0  0  0  0  0  0  0  0
    0.0865   -4.1660   -0.4487 O   0  0  0  0  0  0  0  0  0  0  0  0
   -2.5344   -3.0924   -1.0531 C   0  0  0  0  0  0  0  0  0  0  0  0
   -1.5403   -1.0220   -1.9720 H   0  0  0  0  0  0  0  0  0  0  0  0
   -1.9561   -1.8706    0.5966 H   0  0  0  0  0  0  0  0  0  0  0  0
   -2.1038   -3.5398   -1.9551 H   0  0  0  0  0  0  0  0  0  0  0  0
   -2.9469   -3.8949   -0.4332 H   0  0  0  0  0  0  0  0  0  0  0  0
   -3.3534   -2.4288   -1.3463 H   0  0  0  0  0  0  0  0  0  0  0  0
    0.0093   -3.1803    1.5836 N   0  0  0  0  0  0  0  0  0  0  0  0
    1.1282   -3.9294    2.1349 C   0  0  0  0  0  0  0  0  0  0  0  0
   -0.2881   -2.3260    2.0637 H   0  0  0  0  0  0  0  0  0  0  0  0
    0.9394   -5.0056    2.0674 H   0  0  0  0  0  0  0  0  0  0  0  0
    2.0492   -3.6965    1.5903 H   0  0  0  0  0  0  0  0  0  0  0  0
    1.2720   -3.6688    3.1879 H   0  0  0  0  0  0  0  0  0  0  0  0
  1  2  2  0  0  0  0
  1  3  1  0  0  0  0
  1  7  1  0  0  0  0
  3  4  1  0  0  0  0
  3  5  1  0  0  0  0
  3  6  1  0  0  0  0
  7  8  1  0  0  0  0
  7 12  1  0  0  0  0
  8  9  1  0  0  0  0
  8 11  1  0  0  0  0
  8 13  1  0  0  0  0
  9 10  2  0  0  0  0
  9 17  1  0  0  0  0
 11 14  1  0  0  0  0
 11 15  1  0  0  0  0
 11 16  1  0  0  0  0
 17 18  1  0  0  0  0
 17 23  1  0  0  0  0
 18 19  1  0  0  0  0
 18 21  1  0  0  0  0
 18 24  1  0  0  0  0
 19 20  2  0  0  0  0
 19 31  1  0  0  0  0
 21 22  1  0  0  0  0
 21 25  1  0  0  0  0
 21 26  1  0  0  0  0
 22 23  1  0  0  0  0
 22 27  1  0  0  0  0
 22 28  1  0  0  0  0
 23 29  1  0  0  0  0
 23 30  1  0  0  0  0
 31 32  1  0  0  0  0
 31 36  1  0  0  0  0
 32 33  1  0  0  0  0
 32 35  1  0  0  0  0
 32 37  1  0  0  0  0
 33 34  2  0  0  0  0
 33 41  1  0  0  0  0
 35 38  1  0  0  0  0
 35 39  1  0  0  0  0
 35 40  1  0  0  0  0
 41 42  1  0  0  0  0
 41 43  1  0  0  0  0
 42 44  1  0  0  0  0
 42 45  1  0  0  0  0
 42 46  1  0  0  0  0
M  END
$$$$

  -OEChem-05262217223D

 46 46  0     1  0  0  0  0  0999 V2000
   -1.5409    0.1998    3.0917 C   0  0  0  0  0  0  0  0  0  0  0  0
   -1.6308   -0.8943    2.5528 O   0  0  0  0  0  0  0  0  0  0  0  0
   -1.1193    0.2857    4.5464 C   0  0  0  0  0  0  0  0  0  0  0  0
   -1.9140    0.7457    5.1389 H   0  0  0  0  0  0  0  0  0  0  0  0
   -0.9170   -0.7137    4.9418 H   0  0  0  0  0  0  0  0  0  0  0  0
   -0.2123    0.8891    4.6351 H   0  0  0  0  0  0  0  0  0  0  0  0
   -1.8373    1.3626    2.4090 N   0  0  0  0  0  0  0  0  0  0  0  0
   -1.9492    1.4642    0.9472 C   0  0  2  0  0  0  0  0  0  0  0  0
   -0.8943    2.4639    0.3941 C   0  0  0  0  0  0  0  0  0  0  0  0
   -0.8672    3.5676    0.9364 O   0  0  0  0  0  0  0  0  0  0  0  0
   -3.3663    1.9428    0.6201 C   0  0  0  0  0  0  0  0  0  0  0  0
   -1.6259    2.2306    2.8983 H   0  0  0  0  0  0  0  0  0  0  0  0
   -1.8292    0.4860    0.4900 H   0  0  0  0  0  0  0  0  0  0  0  0
   -3.5604    2.9189    1.0766 H   0  0  0  0  0  0  0  0  0  0  0  0
   -3.4969    2.0329   -0.4624 H   0  0  0  0  0  0  0  0  0  0  0  0
   -4.1033    1.2287    1.0007 H   0  0  0  0  0  0  0  0  0  0  0  0
   -0.0090    2.2482   -0.6731 N   0  0  0  0  0  0  0  0  0  0  0  0
    0.1222    1.0407   -1.5013 C   0  0  2  0  0  0  0  0  0  0  0  0
    0.1387   -0.3154   -0.7672 C   0  0  0  0  0  0  0  0  0  0  0  0
    0.6455   -0.3951    0.3424 O   0  0  0  0  0  0  0  0  0  0  0  0
    1.4618    1.2393   -2.2168 C   0  0  0  0  0  0  0  0  0  0  0  0
    1.7071    2.7434   -2.2564 C   0  0  0  0  0  0  0  0  0  0  0  0
    0.7991    3.3485   -1.1896 C   0  0  0  0  0  0  0  0  0  0  0  0
   -0.6911    1.0349   -2.2324 H   0  0  0  0  0  0  0  0  0  0  0  0
    1.4523    0.8033   -3.2205 H   0  0  0  0  0  0  0  0  0  0  0  0
    2.2684    0.7644   -1.6456 H   0  0  0  0  0  0  0  0  0  0  0  0
    2.7590    2.9787   -2.0650 H   0  0  0  0  0  0  0  0  0  0  0  0
    1.4368    3.1434   -3.2389 H   0  0  0  0  0  0  0  0  0  0  0  0
    1.4070    3.7861   -0.3897 H   0  0  0  0  0  0  0  0  0  0  0  0
    0.1683    4.1350   -1.6177 H   0  0  0  0  0  0  0  0  0  0  0  0
   -0.6225   -1.3606   -1.2629 N   0  0  0  0  0  0  0  0  0  0  0  0
   -1.1067   -2.4868   -0.4490 C   0  0  2  0  0  0  0  0  0  0  0  0
    0.0028   -3.3064    0.2531 C   0  0  0  0  0  0  0  0  0  0  0  0
    0.6707   -4.1292   -0.3658 O   0  0  0  0  0  0  0  0  0  0  0  0
   -1.9448   -3.3815   -1.3683 C   0  0  0  0  0  0  0  0  0  0  0  0
   -1.0294   -1.2401   -2.1842 H   0  0  0  0  0  0  0  0  0  0  0  0
   -1.7691   -2.0997    0.3300 H   0  0  0  0  0  0  0  0  0  0  0  0
   -1.3327   -3.7730   -2.1877 H   0  0  0  0  0  0  0  0  0  0  0  0
   -2.3490   -4.2279   -0.8040 H   0  0  0  0  0  0  0  0  0  0  0  0
   -2.7814   -2.8183   -1.7921 H   0  0  0  0  0  0  0  0  0  0  0  0
    0.1933   -3.1452    1.6114 N   0  0  0  0  0  0  0  0  0  0  0  0
    1.3153   -3.7358    2.3250 C   0  0  0  0  0  0  0  0  0  0  0  0
   -0.2689   -2.3274    2.0194 H   0  0  0  0  0  0  0  0  0  0  0  0
    1.2930   -4.8271    2.2388 H   0  0  0  0  0  0  0  0  0  0  0  0
    2.2627   -3.3679    1.9173 H   0  0  0  0  0  0  0  0  0  0  0  0
    1.2668   -3.4715    3.3855 H   0  0  0  0  0  0  0  0  0  0  0  0
  1  2  2  0  0  0  0
  1  3  1  0  0  0  0
  1  7  1  0  0  0  0
  3  4  1  0  0  0  0
  3  5  1  0  0  0  0
  3  6  1  0  0  0  0
  7  8  1  0  0  0  0
  7 12  1  0  0  0  0
  8  9  1  0  0  0  0
  8 11  1  0  0  0  0
  8 13  1  0  0  0  0
  9 10  2  0  0  0  0
  9 17  1  0  0  0  0
 11 14  1  0  0  0  0
 11 15  1  0  0  0  0
 11 16  1  0  0  0  0
 17 18  1  0  0  0  0
 17 23  1  0  0  0  0
 18 19  1  0  0  0  0
 18 21  1  0  0  0  0
 18 24  1  0  0  0  0
 19 20  2  0  0  0  0
 19 31  1  0  0  0  0
 21 22  1  0  0  0  0
 21 25  1  0  0  0  0
 21 26  1  0  0  0  0
 22 23  1  0  0  0  0
 22 27  1  0  0  0  0
 22 28  1  0  0  0  0
 23 29  1  0  0  0  0
 23 30  1  0  0  0  0
 31 32  1  0  0  0  0
 31 36  1  0  0  0  0
 32 33  1  0  0  0  0
 32 35  1  0  0  0  0
 32 37  1  0  0  0  0
 33 34  2  0  0  0  0
 33 41  1  0  0  0  0
 35 38  1  0  0  0  0
 35 39  1  0  0  0  0
 35 40  1  0  0  0  0
 41 42  1  0  0  0  0
 41 43  1  0  0  0  0
 42 44  1  0  0  0  0
 42 45  1  0  0  0  0
 42 46  1  0  0  0  0
M  END
$$$$

  -OEChem-05262217223D

 46 46  0     1  0  0  0  0  0999 V2000
   -1.5790   -0.0438    2.7926 C   0  0  0  0  0  0  0  0  0  0  0  0
   -1.9985   -1.0117    2.1723 O   0  0  0  0  0  0  0  0  0  0  0  0
   -0.9402   -0.2520    4.1524 C   0  0  0  0  0  0  0  0  0  0  0  0
   -1.4318    0.3781    4.8978 H   0  0  0  0  0  0  0  0  0  0  0  0
   -1.0333   -1.2975    4.4590 H   0  0  0  0  0  0  0  0  0  0  0  0
    0.1204    0.0082    4.1058 H   0  0  0  0  0  0  0  0  0  0  0  0
   -1.6713    1.2329    2.2771 N   0  0  0  0  0  0  0  0  0  0  0  0
   -1.9896    1.5477    0.8773 C   0  0  2  0  0  0  0  0  0  0  0  0
   -0.9644    2.5651    0.3011 C   0  0  0  0  0  0  0  0  0  0  0  0
   -0.9657    3.6877    0.8013 O   0  0  0  0  0  0  0  0  0  0  0  0
   -3.4125    2.1163    0.8451 C   0  0  0  0  0  0  0  0  0  0  0  0
   -1.2180    1.9685    2.8150 H   0  0  0  0  0  0  0  0  0  0  0  0
   -1.9905    0.6455    0.2652 H   0  0  0  0  0  0  0  0  0  0  0  0
   -3.4875    3.0098    1.4738 H   0  0  0  0  0  0  0  0  0  0  0  0
   -3.6911    2.3869   -0.1779 H   0  0  0  0  0  0  0  0  0  0  0  0
   -4.1241    1.3711    1.2144 H   0  0  0  0  0  0  0  0  0  0  0  0
   -0.0526    2.3253   -0.7380 N   0  0  0  0  0  0  0  0  0  0  0  0
    0.1297    1.0784   -1.4950 C   0  0  2  0  0  0  0  0  0  0  0  0
    0.1795   -0.2450   -0.7019 C   0  0  0  0  0  0  0  0  0  0  0  0
    0.5333   -0.2458    0.4684 O   0  0  0  0  0  0  0  0  0  0  0  0
    1.4757    1.2834   -2.1962 C   0  0  0  0  0  0  0  0  0  0  0  0
    1.6749    2.7902   -2.3146 C   0  0  0  0  0  0  0  0  0  0  0  0
    0.7278    3.4230   -1.2996 C   0  0  0  0  0  0  0  0  0  0  0  0
   -0.6708    1.0086   -2.2370 H   0  0  0  0  0  0  0  0  0  0  0  0
    1.5016    0.7930   -3.1744 H   0  0  0  0  0  0  0  0  0  0  0  0
    2.2843    0.8672   -1.5839 H   0  0  0  0  0  0  0  0  0  0  0  0
    2.7149    3.0697   -2.1179 H   0  0  0  0  0  0  0  0  0  0  0  0
    1.4119    3.1266   -3.3223 H   0  0  0  0  0  0  0  0  0  0  0  0
    1.3054    3.9251   -0.5150 H   0  0  0  0  0  0  0  0  0  0  0  0
    0.0793    4.1624   -1.7818 H   0  0  0  0  0  0  0  0  0  0  0  0
   -0.2686   -1.4108   -1.2999 N   0  0  0  0  0  0  0  0  0  0  0  0
   -0.6716   -2.6177   -0.5599 C   0  0  2  0  0  0  0  0  0  0  0  0
    0.4052   -3.1919    0.3928 C   0  0  0  0  0  0  0  0  0  0  0  0
    1.3641   -3.8242   -0.0386 O   0  0  0  0  0  0  0  0  0  0  0  0
   -1.0878   -3.6677   -1.5957 C   0  0  0  0  0  0  0  0  0  0  0  0
   -0.5306   -1.3539   -2.2782 H   0  0  0  0  0  0  0  0  0  0  0  0
   -1.5509   -2.3790    0.0455 H   0  0  0  0  0  0  0  0  0  0  0  0
   -0.2457   -3.9202   -2.2486 H   0  0  0  0  0  0  0  0  0  0  0  0
   -1.4212   -4.5815   -1.0936 H   0  0  0  0  0  0  0  0  0  0  0  0
   -1.9100   -3.2934   -2.2125 H   0  0  0  0  0  0  0  0  0  0  0  0
    0.2432   -3.0279    1.7550 N   0  0  0  0  0  0  0  0  0  0  0  0
    1.2930   -3.3408    2.7132 C   0  0  0  0  0  0  0  0  0  0  0  0
   -0.4738   -2.3495    2.0222 H   0  0  0  0  0  0  0  0  0  0  0  0
    1.5813   -4.3945    2.6384 H   0  0  0  0  0  0  0  0  0  0  0  0
    2.1752   -2.7190    2.5273 H   0  0  0  0  0  0  0  0  0  0  0  0
    0.9421   -3.1517    3.7319 H   0  0  0  0  0  0  0  0  0  0  0  0
  1  2  2  0  0  0  0
  1  3  1  0  0  0  0
  1  7  1  0  0  0  0
  3  4  1  0  0  0  0
  3  5  1  0  0  0  0
  3  6  1  0  0  0  0
  7  8  1  0  0  0  0
  7 12  1  0  0  0  0
  8  9  1  0  0  0  0
  8 11  1  0  0  0  0
  8 13  1  0  0  0  0
  9 10  2  0  0  0  0
  9 17  1  0  0  0  0
 11 14  1  0  0  0  0
 11 15  1  0  0  0  0
 11 16  1  0  0  0  0
 17 18  1  0  0  0  0
 17 23  1  0  0  0  0
 18 19  1  0  0  0  0
 18 21  1  0  0  0  0
 18 24  1  0  0  0  0
 19 20  2  0  0  0  0
 19 31  1  0  0  0  0
 21 22  1  0  0  0  0
 21 25  1  0  0  0  0
 21 26  1  0  0  0  0
 22 23  1  0  0  0  0
 22 27  1  0  0  0  0
 22 28  1  0  0  0  0
 23 29  1  0  0  0  0
 23 30  1  0  0  0  0
 31 32  1  0  0  0  0
 31 36  1  0  0  0  0
 32 33  1  0  0  0  0
 32 35  1  0  0  0  0
 32 37  1  0  0  0  0
 33 34  2  0  0  0  0
 33 41  1  0  0  0  0
 35 38  1  0  0  0  0
 35 39  1  0  0  0  0
 35 40  1  0  0  0  0
 41 42  1  0  0  0  0
 41 43  1  0  0  0  0
 42 44  1  0  0  0  0
 42 45  1  0  0  0  0
 42 46  1  0  0  0  0
M  END
$$$$

  -OEChem-05262217223D

 46 46  0     1  0  0  0  0  0999 V2000
   -1.7250   -0.0780    2.7111 C   0  0  0  0  0  0  0  0  0  0  0  0
   -2.1024   -1.0319    2.0439 O   0  0  0  0  0  0  0  0  0  0  0  0
   -1.1374   -0.3162    4.0889 C   0  0  0  0  0  0  0  0  0  0  0  0
   -1.7082    0.2358    4.8391 H   0  0  0  0  0  0  0  0  0  0  0  0
   -1.1691   -1.3812    4.3349 H   0  0  0  0  0  0  0  0  0  0  0  0
   -0.0976    0.0198    4.1107 H   0  0  0  0  0  0  0  0  0  0  0  0
   -1.7983    1.2103    2.2200 N   0  0  0  0  0  0  0  0  0  0  0  0
   -2.0632    1.5446    0.8139 C   0  0  2  0  0  0  0  0  0  0  0  0
   -1.0404    2.5828    0.2695 C   0  0  0  0  0  0  0  0  0  0  0  0
   -1.0937    3.7127    0.7498 O   0  0  0  0  0  0  0  0  0  0  0  0
   -3.4946    2.0868    0.7357 C   0  0  0  0  0  0  0  0  0  0  0  0
   -1.3771    1.9386    2.7920 H   0  0  0  0  0  0  0  0  0  0  0  0
   -2.0293    0.6516    0.1893 H   0  0  0  0  0  0  0  0  0  0  0  0
   -3.6118    2.9666    1.3767 H   0  0  0  0  0  0  0  0  0  0  0  0
   -3.7387    2.3705   -0.2924 H   0  0  0  0  0  0  0  0  0  0  0  0
   -4.2054    1.3215    1.0627 H   0  0  0  0  0  0  0  0  0  0  0  0
   -0.0750    2.3507   -0.7234 N   0  0  0  0  0  0  0  0  0  0  0  0
    0.1736    1.0938   -1.4464 C   0  0  2  0  0  0  0  0  0  0  0  0
    0.2276   -0.2156   -0.6279 C   0  0  0  0  0  0  0  0  0  0  0  0
    0.4480   -0.1847    0.5743 O   0  0  0  0  0  0  0  0  0  0  0  0
    1.5390    1.3301   -2.0999 C   0  0  0  0  0  0  0  0  0  0  0  0
    1.6954    2.8403   -2.2422 C   0  0  0  0  0  0  0  0  0  0  0  0
    0.6907    3.4623   -1.2778 C   0  0  0  0  0  0  0  0  0  0  0  0
   -0.5951    0.9833   -2.2166 H   0  0  0  0  0  0  0  0  0  0  0  0
    1.6181    0.8229   -3.0667 H   0  0  0  0  0  0  0  0  0  0  0  0
    2.3360    0.9518   -1.4489 H   0  0  0  0  0  0  0  0  0  0  0  0
    2.7177    3.1575   -2.0123 H   0  0  0  0  0  0  0  0  0  0  0  0
    1.4605    3.1482   -3.2660 H   0  0  0  0  0  0  0  0  0  0  0  0
    1.2210    3.9985   -0.4826 H   0  0  0  0  0  0  0  0  0  0  0  0
    0.0377    4.1701   -1.7996 H   0  0  0  0  0  0  0  0  0  0  0  0
    0.1433   -1.4411   -1.2646 N   0  0  0  0  0  0  0  0  0  0  0  0
   -0.2032   -2.6842   -0.5563 C   0  0  2  0  0  0  0  0  0  0  0  0
    0.8792   -3.1892    0.4287 C   0  0  0  0  0  0  0  0  0  0  0  0
    1.7955   -3.9150    0.0568 O   0  0  0  0  0  0  0  0  0  0  0  0
   -0.5254   -3.7401   -1.6200 C   0  0  0  0  0  0  0  0  0  0  0  0
    0.0181   -1.4278   -2.2714 H   0  0  0  0  0  0  0  0  0  0  0  0
   -1.1139   -2.5136    0.0275 H   0  0  0  0  0  0  0  0  0  0  0  0
    0.3485   -3.9313   -2.2519 H   0  0  0  0  0  0  0  0  0  0  0  0
   -0.8169   -4.6805   -1.1413 H   0  0  0  0  0  0  0  0  0  0  0  0
   -1.3517   -3.4059   -2.2543 H   0  0  0  0  0  0  0  0  0  0  0  0
    0.7618   -2.8650    1.7658 N   0  0  0  0  0  0  0  0  0  0  0  0
    1.7882   -3.1754    2.7505 C   0  0  0  0  0  0  0  0  0  0  0  0
    0.1110   -2.1028    1.9613 H   0  0  0  0  0  0  0  0  0  0  0  0
    1.9848   -4.2524    2.7740 H   0  0  0  0  0  0  0  0  0  0  0  0
    2.7188   -2.6514    2.5097 H   0  0  0  0  0  0  0  0  0  0  0  0
    1.4597   -2.8642    3.7466 H   0  0  0  0  0  0  0  0  0  0  0  0
  1  2  2  0  0  0  0
  1  3  1  0  0  0  0
  1  7  1  0  0  0  0
  3  4  1  0  0  0  0
  3  5  1  0  0  0  0
  3  6  1  0  0  0  0
  7  8  1  0  0  0  0
  7 12  1  0  0  0  0
  8  9  1  0  0  0  0
  8 11  1  0  0  0  0
  8 13  1  0  0  0  0
  9 10  2  0  0  0  0
  9 17  1  0  0  0  0
 11 14  1  0  0  0  0
 11 15  1  0  0  0  0
 11 16  1  0  0  0  0
 17 18  1  0  0  0  0
 17 23  1  0  0  0  0
 18 19  1  0  0  0  0
 18 21  1  0  0  0  0
 18 24  1  0  0  0  0
 19 20  2  0  0  0  0
 19 31  1  0  0  0  0
 21 22  1  0  0  0  0
 21 25  1  0  0  0  0
 21 26  1  0  0  0  0
 22 23  1  0  0  0  0
 22 27  1  0  0  0  0
 22 28  1  0  0  0  0
 23 29  1  0  0  0  0
 23 30  1  0  0  0  0
 31 32  1  0  0  0  0
 31 36  1  0  0  0  0
 32 33  1  0  0  0  0
 32 35  1  0  0  0  0
 32 37  1  0  0  0  0
 33 34  2  0  0  0  0
 33 41  1  0  0  0  0
 35 38  1  0  0  0  0
 35 39  1  0  0  0  0
 35 40  1  0  0  0  0
 41 42  1  0  0  0  0
 41 43  1  0  0  0  0
 42 44  1  0  0  0  0
 42 45  1  0  0  0  0
 42 46  1  0  0  0  0
M  END
$$$$

  -OEChem-05262217223D

 46 46  0     1  0  0  0  0  0999 V2000
   -2.9317    1.3461    3.2384 C   0  0  0  0  0  0  0  0  0  0  0  0
   -3.9459    2.0195    3.3338 O   0  0  0  0  0  0  0  0  0  0  0  0
   -2.6338    0.2777    4.2734 C   0  0  0  0  0  0  0  0  0  0  0  0
   -3.4677    0.1885    4.9750 H   0  0  0  0  0  0  0  0  0  0  0  0
   -2.4810   -0.6861    3.7818 H   0  0  0  0  0  0  0  0  0  0  0  0
   -1.7310    0.5420    4.8291 H   0  0  0  0  0  0  0  0  0  0  0  0
   -2.0659    1.5188    2.1801 N   0  0  0  0  0  0  0  0  0  0  0  0
   -2.2873    2.4281    1.0515 C   0  0  2  0  0  0  0  0  0  0  0  0
   -0.9939    3.0036    0.4047 C   0  0  0  0  0  0  0  0  0  0  0  0
   -0.8110    4.1944    0.6420 O   0  0  0  0  0  0  0  0  0  0  0  0
   -3.2395    1.7986    0.0260 C   0  0  0  0  0  0  0  0  0  0  0  0
   -1.3348    0.8126    2.0741 H   0  0  0  0  0  0  0  0  0  0  0  0
   -2.8136    3.3042    1.4495 H   0  0  0  0  0  0  0  0  0  0  0  0
   -3.3817    2.4761   -0.8214 H   0  0  0  0  0  0  0  0  0  0  0  0
   -2.8642    0.8463   -0.3474 H   0  0  0  0  0  0  0  0  0  0  0  0
   -4.2154    1.6195    0.4877 H   0  0  0  0  0  0  0  0  0  0  0  0
   -0.0592    2.3947   -0.4641 N   0  0  0  0  0  0  0  0  0  0  0  0
    0.0268    1.0360   -1.0490 C   0  0  2  0  0  0  0  0  0  0  0  0
   -0.4985   -0.2559   -0.3792 C   0  0  0  0  0  0  0  0  0  0  0  0
   -0.6539   -0.3365    0.8303 O   0  0  0  0  0  0  0  0  0  0  0  0
    1.5391    0.8620   -1.2548 C   0  0  0  0  0  0  0  0  0  0  0  0
    2.1314    2.2580   -1.3778 C   0  0  0  0  0  0  0  0  0  0  0  0
    0.9947    3.2182   -1.0681 C   0  0  0  0  0  0  0  0  0  0  0  0
   -0.4694    1.0895   -2.0228 H   0  0  0  0  0  0  0  0  0  0  0  0
    1.7553    0.2607   -2.1437 H   0  0  0  0  0  0  0  0  0  0  0  0
    1.9865    0.3590   -0.3894 H   0  0  0  0  0  0  0  0  0  0  0  0
    2.9496    2.3862   -0.6618 H   0  0  0  0  0  0  0  0  0  0  0  0
    2.5222    2.4381   -2.3840 H   0  0  0  0  0  0  0  0  0  0  0  0
    1.3647    4.0019   -0.3973 H   0  0  0  0  0  0  0  0  0  0  0  0
    0.6240    3.6940   -1.9824 H   0  0  0  0  0  0  0  0  0  0  0  0
   -0.3454   -1.4495   -1.0653 N   0  0  0  0  0  0  0  0  0  0  0  0
   -0.1698   -2.7443   -0.3905 C   0  0  2  0  0  0  0  0  0  0  0  0
    1.3205   -3.0213   -0.0977 C   0  0  0  0  0  0  0  0  0  0  0  0
    2.1789   -2.6165   -0.8750 O   0  0  0  0  0  0  0  0  0  0  0  0
   -0.7480   -3.8278   -1.3022 C   0  0  0  0  0  0  0  0  0  0  0  0
    0.1174   -1.3640   -1.9672 H   0  0  0  0  0  0  0  0  0  0  0  0
   -0.7207   -2.7668    0.5556 H   0  0  0  0  0  0  0  0  0  0  0  0
   -0.2123   -3.8536   -2.2568 H   0  0  0  0  0  0  0  0  0  0  0  0
   -0.6613   -4.8106   -0.8288 H   0  0  0  0  0  0  0  0  0  0  0  0
   -1.8063   -3.6319   -1.5000 H   0  0  0  0  0  0  0  0  0  0  0  0
    1.6976   -3.7314    1.0265 N   0  0  0  0  0  0  0  0  0  0  0  0
    3.0892   -3.9674    1.3914 C   0  0  0  0  0  0  0  0  0  0  0  0
    0.9685   -3.9848    1.6867 H   0  0  0  0  0  0  0  0  0  0  0  0
    3.5840   -4.5849    0.6343 H   0  0  0  0  0  0  0  0  0  0  0  0
    3.6294   -3.0189    1.4811 H   0  0  0  0  0  0  0  0  0  0  0  0
    3.1445   -4.4876    2.3526 H   0  0  0  0  0  0  0  0  0  0  0  0
  1  2  2  0  0  0  0
  1  3  1  0  0  0  0
  1  7  1  0  0  0  0
  3  4  1  0  0  0  0
  3  5  1  0  0  0  0
  3  6  1  0  0  0  0
  7  8  1  0  0  0  0
  7 12  1  0  0  0  0
  8  9  1  0  0  0  0
  8 11  1  0  0  0  0
  8 13  1  0  0  0  0
  9 10  2  0  0  0  0
  9 17  1  0  0  0  0
 11 14  1  0  0  0  0
 11 15  1  0  0  0  0
 11 16  1  0  0  0  0
 17 18  1  0  0  0  0
 17 23  1  0  0  0  0
 18 19  1  0  0  0  0
 18 21  1  0  0  0  0
 18 24  1  0  0  0  0
 19 20  2  0  0  0  0
 19 31  1  0  0  0  0
 21 22  1  0  0  0  0
 21 25  1  0  0  0  0
 21 26  1  0  0  0  0
 22 23  1  0  0  0  0
 22 27  1  0  0  0  0
 22 28  1  0  0  0  0
 23 29  1  0  0  0  0
 23 30  1  0  0  0  0
 31 32  1  0  0  0  0
 31 36  1  0  0  0  0
 32 33  1  0  0  0  0
 32 35  1  0  0  0  0
 32 37  1  0  0  0  0
 33 34  2  0  0  0  0
 33 41  1  0  0  0  0
 35 38  1  0  0  0  0
 35 39  1  0  0  0  0
 35 40  1  0  0  0  0
 41 42  1  0  0  0  0
 41 43  1  0  0  0  0
 42 44  1  0  0  0  0
 42 45  1  0  0  0  0
 42 46  1  0  0  0  0
M  END
$$$$

  -OEChem-05262217223D

 46 46  0     1  0  0  0  0  0999 V2000
   -2.5661    1.5459    3.3771 C   0  0  0  0  0  0  0  0  0  0  0  0
   -3.1744    2.5408    3.7356 O   0  0  0  0  0  0  0  0  0  0  0  0
   -2.1875    0.4875    4.3962 C   0  0  0  0  0  0  0  0  0  0  0  0
   -2.4723    0.8111    5.4013 H   0  0  0  0  0  0  0  0  0  0  0  0
   -2.7011   -0.4490    4.1670 H   0  0  0  0  0  0  0  0  0  0  0  0
   -1.1080    0.3182    4.3731 H   0  0  0  0  0  0  0  0  0  0  0  0
   -2.2382    1.3440    2.0537 N   0  0  0  0  0  0  0  0  0  0  0  0
   -2.4496    2.2928    0.9555 C   0  0  2  0  0  0  0  0  0  0  0  0
   -1.1530    2.9235    0.3708 C   0  0  0  0  0  0  0  0  0  0  0  0
   -1.0462    4.1211    0.6218 O   0  0  0  0  0  0  0  0  0  0  0  0
   -3.3458    1.6712   -0.1215 C   0  0  0  0  0  0  0  0  0  0  0  0
   -1.7322    0.4851    1.8332 H   0  0  0  0  0  0  0  0  0  0  0  0
   -3.0274    3.1352    1.3539 H   0  0  0  0  0  0  0  0  0  0  0  0
   -3.5808    2.4170   -0.8870 H   0  0  0  0  0  0  0  0  0  0  0  0
   -2.8732    0.8180   -0.6076 H   0  0  0  0  0  0  0  0  0  0  0  0
   -4.2843    1.3332    0.3283 H   0  0  0  0  0  0  0  0  0  0  0  0
   -0.1509    2.3774   -0.4695 N   0  0  0  0  0  0  0  0  0  0  0  0
    0.0531    1.0435   -1.0958 C   0  0  2  0  0  0  0  0  0  0  0  0
   -0.4031   -0.3333   -0.5382 C   0  0  0  0  0  0  0  0  0  0  0  0
   -0.9848   -0.4751    0.5234 O   0  0  0  0  0  0  0  0  0  0  0  0
    1.5841    0.9934   -1.2520 C   0  0  0  0  0  0  0  0  0  0  0  0
    2.0783    2.4283   -1.3109 C   0  0  0  0  0  0  0  0  0  0  0  0
    0.8652    3.2891   -1.0143 C   0  0  0  0  0  0  0  0  0  0  0  0
   -0.4056    1.1091   -2.0870 H   0  0  0  0  0  0  0  0  0  0  0  0
    1.8783    0.4431   -2.1513 H   0  0  0  0  0  0  0  0  0  0  0  0
    2.0387    0.4996   -0.3848 H   0  0  0  0  0  0  0  0  0  0  0  0
    2.8592    2.5916   -0.5610 H   0  0  0  0  0  0  0  0  0  0  0  0
    2.4888    2.6699   -2.2963 H   0  0  0  0  0  0  0  0  0  0  0  0
    1.1595    4.0765   -0.3110 H   0  0  0  0  0  0  0  0  0  0  0  0
    0.4905    3.7648   -1.9268 H   0  0  0  0  0  0  0  0  0  0  0  0
    0.1380   -1.4816   -1.0952 N   0  0  0  0  0  0  0  0  0  0  0  0
    0.2602   -2.7564   -0.3708 C   0  0  2  0  0  0  0  0  0  0  0  0
    1.6229   -2.8567    0.3483 C   0  0  0  0  0  0  0  0  0  0  0  0
    2.6075   -2.3102   -0.1378 O   0  0  0  0  0  0  0  0  0  0  0  0
    0.1036   -3.8868   -1.3897 C   0  0  0  0  0  0  0  0  0  0  0  0
    0.8544   -1.3139   -1.7977 H   0  0  0  0  0  0  0  0  0  0  0  0
   -0.5341   -2.8602    0.3755 H   0  0  0  0  0  0  0  0  0  0  0  0
    0.8931   -3.8354   -2.1465 H   0  0  0  0  0  0  0  0  0  0  0  0
    0.1624   -4.8598   -0.8923 H   0  0  0  0  0  0  0  0  0  0  0  0
   -0.8665   -3.8130   -1.8913 H   0  0  0  0  0  0  0  0  0  0  0  0
    1.7499   -3.5634    1.5294 N   0  0  0  0  0  0  0  0  0  0  0  0
    2.9919   -3.6220    2.2913 C   0  0  0  0  0  0  0  0  0  0  0  0
    0.9032   -3.9428    1.9431 H   0  0  0  0  0  0  0  0  0  0  0  0
    3.8027   -4.0231    1.6743 H   0  0  0  0  0  0  0  0  0  0  0  0
    3.2755   -2.6230    2.6392 H   0  0  0  0  0  0  0  0  0  0  0  0
    2.8706   -4.2710    3.1638 H   0  0  0  0  0  0  0  0  0  0  0  0
  1  2  2  0  0  0  0
  1  3  1  0  0  0  0
  1  7  1  0  0  0  0
  3  4  1  0  0  0  0
  3  5  1  0  0  0  0
  3  6  1  0  0  0  0
  7  8  1  0  0  0  0
  7 12  1  0  0  0  0
  8  9  1  0  0  0  0
  8 11  1  0  0  0  0
  8 13  1  0  0  0  0
  9 10  2  0  0  0  0
  9 17  1  0  0  0  0
 11 14  1  0  0  0  0
 11 15  1  0  0  0  0
 11 16  1  0  0  0  0
 17 18  1  0  0  0  0
 17 23  1  0  0  0  0
 18 19  1  0  0  0  0
 18 21  1  0  0  0  0
 18 24  1  0  0  0  0
 19 20  2  0  0  0  0
 19 31  1  0  0  0  0
 21 22  1  0  0  0  0
 21 25  1  0  0  0  0
 21 26  1  0  0  0  0
 22 23  1  0  0  0  0
 22 27  1  0  0  0  0
 22 28  1  0  0  0  0
 23 29  1  0  0  0  0
 23 30  1  0  0  0  0
 31 32  1  0  0  0  0
 31 36  1  0  0  0  0
 32 33  1  0  0  0  0
 32 35  1  0  0  0  0
 32 37  1  0  0  0  0
 33 34  2  0  0  0  0
 33 41  1  0  0  0  0
 35 38  1  0  0  0  0
 35 39  1  0  0  0  0
 35 40  1  0  0  0  0
 41 42  1  0  0  0  0
 41 43  1  0  0  0  0
 42 44  1  0  0  0  0
 42 45  1  0  0  0  0
 42 46  1  0  0  0  0
M  END
$$$$

  -OEChem-05262217223D

 46 46  0     1  0  0  0  0  0999 V2000
   -1.4378    1.3388    3.4734 C   0  0  0  0  0  0  0  0  0  0  0  0
   -1.7063    2.4273    3.9515 O   0  0  0  0  0  0  0  0  0  0  0  0
   -0.7640    0.2882    4.3344 C   0  0  0  0  0  0  0  0  0  0  0  0
   -0.6896    0.6387    5.3678 H   0  0  0  0  0  0  0  0  0  0  0  0
   -1.3464   -0.6360    4.3183 H   0  0  0  0  0  0  0  0  0  0  0  0
    0.2412    0.0890    3.9562 H   0  0  0  0  0  0  0  0  0  0  0  0
   -1.7327    1.0490    2.1578 N   0  0  0  0  0  0  0  0  0  0  0  0
   -2.3068    1.9923    1.1944 C   0  0  2  0  0  0  0  0  0  0  0  0
   -1.2730    2.7969    0.3648 C   0  0  0  0  0  0  0  0  0  0  0  0
   -1.4197    4.0118    0.4652 O   0  0  0  0  0  0  0  0  0  0  0  0
   -3.3318    1.2955    0.2923 C   0  0  0  0  0  0  0  0  0  0  0  0
   -1.4465    0.1376    1.8024 H   0  0  0  0  0  0  0  0  0  0  0  0
   -2.8808    2.7289    1.7698 H   0  0  0  0  0  0  0  0  0  0  0  0
   -3.9047    2.0447   -0.2628 H   0  0  0  0  0  0  0  0  0  0  0  0
   -2.8529    0.6337   -0.4311 H   0  0  0  0  0  0  0  0  0  0  0  0
   -4.0292    0.7079    0.8968 H   0  0  0  0  0  0  0  0  0  0  0  0
   -0.3110    2.3609   -0.5796 N   0  0  0  0  0  0  0  0  0  0  0  0
    0.0791    1.0319   -1.1296 C   0  0  2  0  0  0  0  0  0  0  0  0
    0.0112   -0.3596   -0.4274 C   0  0  0  0  0  0  0  0  0  0  0  0
   -0.8905   -0.7274    0.3090 O   0  0  0  0  0  0  0  0  0  0  0  0
    1.5377    1.2881   -1.5573 C   0  0  0  0  0  0  0  0  0  0  0  0
    1.6843    2.7770   -1.8149 C   0  0  0  0  0  0  0  0  0  0  0  0
    0.3739    3.3938   -1.3710 C   0  0  0  0  0  0  0  0  0  0  0  0
   -0.5297    0.9026   -2.0302 H   0  0  0  0  0  0  0  0  0  0  0  0
    1.7963    0.7130   -2.4528 H   0  0  0  0  0  0  0  0  0  0  0  0
    2.2255    1.0080   -0.7510 H   0  0  0  0  0  0  0  0  0  0  0  0
    2.5181    3.1841   -1.2332 H   0  0  0  0  0  0  0  0  0  0  0  0
    1.8669    2.9849   -2.8739 H   0  0  0  0  0  0  0  0  0  0  0  0
    0.5936    4.3025   -0.7984 H   0  0  0  0  0  0  0  0  0  0  0  0
   -0.2397    3.6717   -2.2349 H   0  0  0  0  0  0  0  0  0  0  0  0
    0.9278   -1.3413   -0.7753 N   0  0  0  0  0  0  0  0  0  0  0  0
    0.8528   -2.7566   -0.3805 C   0  0  2  0  0  0  0  0  0  0  0  0
    1.4096   -3.0007    1.0408 C   0  0  0  0  0  0  0  0  0  0  0  0
    2.4970   -3.5333    1.2222 O   0  0  0  0  0  0  0  0  0  0  0  0
    1.5886   -3.5727   -1.4510 C   0  0  0  0  0  0  0  0  0  0  0  0
    1.7043   -1.0594   -1.3665 H   0  0  0  0  0  0  0  0  0  0  0  0
   -0.1914   -3.0861   -0.3816 H   0  0  0  0  0  0  0  0  0  0  0  0
    2.6429   -3.2818   -1.5045 H   0  0  0  0  0  0  0  0  0  0  0  0
    1.5378   -4.6402   -1.2126 H   0  0  0  0  0  0  0  0  0  0  0  0
    1.1311   -3.4171   -2.4328 H   0  0  0  0  0  0  0  0  0  0  0  0
    0.6617   -2.6031    2.1312 N   0  0  0  0  0  0  0  0  0  0  0  0
    1.0963   -2.7708    3.5127 C   0  0  0  0  0  0  0  0  0  0  0  0
   -0.1920   -2.0847    1.9269 H   0  0  0  0  0  0  0  0  0  0  0  0
    1.9274   -2.0939    3.7363 H   0  0  0  0  0  0  0  0  0  0  0  0
    0.2727   -2.5535    4.1987 H   0  0  0  0  0  0  0  0  0  0  0  0
    1.4237   -3.8005    3.6916 H   0  0  0  0  0  0  0  0  0  0  0  0
  1  2  2  0  0  0  0
  1  3  1  0  0  0  0
  1  7  1  0  0  0  0
  3  4  1  0  0  0  0
  3  5  1  0  0  0  0
  3  6  1  0  0  0  0
  7  8  1  0  0  0  0
  7 12  1  0  0  0  0
  8  9  1  0  0  0  0
  8 11  1  0  0  0  0
  8 13  1  0  0  0  0
  9 10  2  0  0  0  0
  9 17  1  0  0  0  0
 11 14  1  0  0  0  0
 11 15  1  0  0  0  0
 11 16  1  0  0  0  0
 17 18  1  0  0  0  0
 17 23  1  0  0  0  0
 18 19  1  0  0  0  0
 18 21  1  0  0  0  0
 18 24  1  0  0  0  0
 19 20  2  0  0  0  0
 19 31  1  0  0  0  0
 21 22  1  0  0  0  0
 21 25  1  0  0  0  0
 21 26  1  0  0  0  0
 22 23  1  0  0  0  0
 22 27  1  0  0  0  0
 22 28  1  0  0  0  0
 23 29  1  0  0  0  0
 23 30  1  0  0  0  0
 31 32  1  0  0  0  0
 31 36  1  0  0  0  0
 32 33  1  0  0  0  0
 32 35  1  0  0  0  0
 32 37  1  0  0  0  0
 33 34  2  0  0  0  0
 33 41  1  0  0  0  0
 35 38  1  0  0  0  0
 35 39  1  0  0  0  0
 35 40  1  0  0  0  0
 41 42  1  0  0  0  0
 41 43  1  0  0  0  0
 42 44  1  0  0  0  0
 42 45  1  0  0  0  0
 42 46  1  0  0  0  0
M  END
$$$$

  -OEChem-05262217223D

 46 46  0     1  0  0  0  0  0999 V2000
   -1.0638    1.3591    3.2349 C   0  0  0  0  0  0  0  0  0  0  0  0
   -1.0378    2.4568    3.7650 O   0  0  0  0  0  0  0  0  0  0  0  0
   -0.3904    0.1826    3.9132 C   0  0  0  0  0  0  0  0  0  0  0  0
   -0.3828    0.3294    4.9965 H   0  0  0  0  0  0  0  0  0  0  0  0
   -0.9260   -0.7424    3.6876 H   0  0  0  0  0  0  0  0  0  0  0  0
    0.6399    0.0949    3.5600 H   0  0  0  0  0  0  0  0  0  0  0  0
   -1.6794    1.1848    2.0135 N   0  0  0  0  0  0  0  0  0  0  0  0
   -2.2432    2.2669    1.2019 C   0  0  2  0  0  0  0  0  0  0  0  0
   -1.2225    3.0475    0.3351 C   0  0  0  0  0  0  0  0  0  0  0  0
   -1.3549    4.2665    0.4074 O   0  0  0  0  0  0  0  0  0  0  0  0
   -3.4048    1.7467    0.3490 C   0  0  0  0  0  0  0  0  0  0  0  0
   -1.6162    0.2605    1.5852 H   0  0  0  0  0  0  0  0  0  0  0  0
   -2.6806    2.9934    1.8972 H   0  0  0  0  0  0  0  0  0  0  0  0
   -3.9431    2.5891   -0.0967 H   0  0  0  0  0  0  0  0  0  0  0  0
   -3.0524    1.1040   -0.4606 H   0  0  0  0  0  0  0  0  0  0  0  0
   -4.1055    1.1790    0.9685 H   0  0  0  0  0  0  0  0  0  0  0  0
   -0.3045    2.5739   -0.6309 N   0  0  0  0  0  0  0  0  0  0  0  0
    0.0152    1.2216   -1.1581 C   0  0  2  0  0  0  0  0  0  0  0  0
   -0.1080   -0.1127   -0.3681 C   0  0  0  0  0  0  0  0  0  0  0  0
   -1.2011   -0.5383   -0.0219 O   0  0  0  0  0  0  0  0  0  0  0  0
    1.4597    1.4119   -1.6590 C   0  0  0  0  0  0  0  0  0  0  0  0
    1.6396    2.8897   -1.9655 C   0  0  0  0  0  0  0  0  0  0  0  0
    0.3716    3.5639   -1.4785 C   0  0  0  0  0  0  0  0  0  0  0  0
   -0.6341    1.0796   -2.0280 H   0  0  0  0  0  0  0  0  0  0  0  0
    1.6565    0.7949   -2.5422 H   0  0  0  0  0  0  0  0  0  0  0  0
    2.1783    1.1433   -0.8774 H   0  0  0  0  0  0  0  0  0  0  0  0
    2.5134    3.2850   -1.4369 H   0  0  0  0  0  0  0  0  0  0  0  0
    1.7765    3.0614   -3.0376 H   0  0  0  0  0  0  0  0  0  0  0  0
    0.6427    4.4770   -0.9360 H   0  0  0  0  0  0  0  0  0  0  0  0
   -0.2725    3.8412   -2.3198 H   0  0  0  0  0  0  0  0  0  0  0  0
    0.9032   -1.0609   -0.4132 N   0  0  0  0  0  0  0  0  0  0  0  0
    0.8263   -2.3844    0.2270 C   0  0  2  0  0  0  0  0  0  0  0  0
    1.3095   -2.3560    1.6924 C   0  0  0  0  0  0  0  0  0  0  0  0
    2.1750   -1.5607    2.0374 O   0  0  0  0  0  0  0  0  0  0  0  0
    1.6917   -3.3426   -0.5943 C   0  0  0  0  0  0  0  0  0  0  0  0
    1.8375   -0.6919   -0.5700 H   0  0  0  0  0  0  0  0  0  0  0  0
   -0.2026   -2.7592    0.2114 H   0  0  0  0  0  0  0  0  0  0  0  0
    2.7365   -3.0148   -0.5926 H   0  0  0  0  0  0  0  0  0  0  0  0
    1.6453   -4.3526   -0.1755 H   0  0  0  0  0  0  0  0  0  0  0  0
    1.3385   -3.3811   -1.6294 H   0  0  0  0  0  0  0  0  0  0  0  0
    0.7985   -3.2473    2.6177 N   0  0  0  0  0  0  0  0  0  0  0  0
    1.2573   -3.3188    4.0000 C   0  0  0  0  0  0  0  0  0  0  0  0
    0.0833   -3.8967    2.3031 H   0  0  0  0  0  0  0  0  0  0  0  0
    2.3169   -3.5925    4.0378 H   0  0  0  0  0  0  0  0  0  0  0  0
    1.1253   -2.3546    4.5014 H   0  0  0  0  0  0  0  0  0  0  0  0
    0.6855   -4.0728    4.5495 H   0  0  0  0  0  0  0  0  0  0  0  0
  1  2  2  0  0  0  0
  1  3  1  0  0  0  0
  1  7  1  0  0  0  0
  3  4  1  0  0  0  0
  3  5  1  0  0  0  0
  3  6  1  0  0  0  0
  7  8  1  0  0  0  0
  7 12  1  0  0  0  0
  8  9  1  0  0  0  0
  8 11  1  0  0  0  0
  8 13  1  0  0  0  0
  9 10  2  0  0  0  0
  9 17  1  0  0  0  0
 11 14  1  0  0  0  0
 11 15  1  0  0  0  0
 11 16  1  0  0  0  0
 17 18  1  0  0  0  0
 17 23  1  0  0  0  0
 18 19  1  0  0  0  0
 18 21  1  0  0  0  0
 18 24  1  0  0  0  0
 19 20  2  0  0  0  0
 19 31  1  0  0  0  0
 21 22  1  0  0  0  0
 21 25  1  0  0  0  0
 21 26  1  0  0  0  0
 22 23  1  0  0  0  0
 22 27  1  0  0  0  0
 22 28  1  0  0  0  0
 23 29  1  0  0  0  0
 23 30  1  0  0  0  0
 31 32  1  0  0  0  0
 31 36  1  0  0  0  0
 32 33  1  0  0  0  0
 32 35  1  0  0  0  0
 32 37  1  0  0  0  0
 33 34  2  0  0  0  0
 33 41  1  0  0  0  0
 35 38  1  0  0  0  0
 35 39  1  0  0  0  0
 35 40  1  0  0  0  0
 41 42  1  0  0  0  0
 41 43  1  0  0  0  0
 42 44  1  0  0  0  0
 42 45  1  0  0  0  0
 42 46  1  0  0  0  0
M  END
$$$$

  -OEChem-05262217223D

 46 46  0     1  0  0  0  0  0999 V2000
   -0.9415    0.8061    3.6061 C   0  0  0  0  0  0  0  0  0  0  0  0
   -2.0555    1.0635    4.0318 O   0  0  0  0  0  0  0  0  0  0  0  0
    0.1287    0.3410    4.5768 C   0  0  0  0  0  0  0  0  0  0  0  0
    0.1175    0.9722    5.4691 H   0  0  0  0  0  0  0  0  0  0  0  0
   -0.0548   -0.6934    4.8745 H   0  0  0  0  0  0  0  0  0  0  0  0
    1.1188    0.4033    4.1195 H   0  0  0  0  0  0  0  0  0  0  0  0
   -0.6152    1.0639    2.2863 N   0  0  0  0  0  0  0  0  0  0  0  0
   -1.3769    2.0378    1.4820 C   0  0  2  0  0  0  0  0  0  0  0  0
   -0.5242    2.7219    0.3838 C   0  0  0  0  0  0  0  0  0  0  0  0
   -0.2972    3.9118    0.5726 O   0  0  0  0  0  0  0  0  0  0  0  0
   -2.7060    1.4919    0.9337 C   0  0  0  0  0  0  0  0  0  0  0  0
    0.3760    0.9839    2.0887 H   0  0  0  0  0  0  0  0  0  0  0  0
   -1.6584    2.8413    2.1742 H   0  0  0  0  0  0  0  0  0  0  0  0
   -3.4530    2.2913    0.9243 H   0  0  0  0  0  0  0  0  0  0  0  0
   -2.6078    1.1267   -0.0893 H   0  0  0  0  0  0  0  0  0  0  0  0
   -3.0842    0.6794    1.5616 H   0  0  0  0  0  0  0  0  0  0  0  0
    0.0100    2.1525   -0.7882 N   0  0  0  0  0  0  0  0  0  0  0  0
   -0.0641    0.7811   -1.3301 C   0  0  2  0  0  0  0  0  0  0  0  0
   -0.1825   -0.4604   -0.4071 C   0  0  0  0  0  0  0  0  0  0  0  0
   -1.2820   -0.9602   -0.2386 O   0  0  0  0  0  0  0  0  0  0  0  0
    1.1631    0.7123   -2.2521 C   0  0  0  0  0  0  0  0  0  0  0  0
    1.4770    2.1479   -2.6566 C   0  0  0  0  0  0  0  0  0  0  0  0
    0.5500    3.0292   -1.8312 C   0  0  0  0  0  0  0  0  0  0  0  0
   -0.9568    0.7500   -1.9643 H   0  0  0  0  0  0  0  0  0  0  0  0
    0.9584    0.0858   -3.1264 H   0  0  0  0  0  0  0  0  0  0  0  0
    2.0319    0.2984   -1.7373 H   0  0  0  0  0  0  0  0  0  0  0  0
    2.5240    2.3828   -2.4392 H   0  0  0  0  0  0  0  0  0  0  0  0
    1.3029    2.3059   -3.7256 H   0  0  0  0  0  0  0  0  0  0  0  0
    1.1190    3.8732   -1.4251 H   0  0  0  0  0  0  0  0  0  0  0  0
   -0.2636    3.4260   -2.4480 H   0  0  0  0  0  0  0  0  0  0  0  0
    0.7450   -1.4782   -0.3753 N   0  0  0  0  0  0  0  0  0  0  0  0
    1.6484   -1.6234    0.7835 C   0  0  2  0  0  0  0  0  0  0  0  0
    0.9307   -2.0985    2.0768 C   0  0  0  0  0  0  0  0  0  0  0  0
    1.5666   -2.1924    3.1163 O   0  0  0  0  0  0  0  0  0  0  0  0
    2.4865   -0.3529    1.0179 C   0  0  0  0  0  0  0  0  0  0  0  0
    0.2675   -2.3509   -0.5949 H   0  0  0  0  0  0  0  0  0  0  0  0
    2.3547   -2.4227    0.5368 H   0  0  0  0  0  0  0  0  0  0  0  0
    1.8564    0.5209    1.1938 H   0  0  0  0  0  0  0  0  0  0  0  0
    3.1414   -0.4837    1.8858 H   0  0  0  0  0  0  0  0  0  0  0  0
    3.1240   -0.1549    0.1524 H   0  0  0  0  0  0  0  0  0  0  0  0
   -0.4123   -2.4350    2.0739 N   0  0  0  0  0  0  0  0  0  0  0  0
   -1.1567   -2.9075    3.2366 C   0  0  0  0  0  0  0  0  0  0  0  0
   -0.9497   -2.1461    1.2527 H   0  0  0  0  0  0  0  0  0  0  0  0
   -0.5114   -3.4646    3.9240 H   0  0  0  0  0  0  0  0  0  0  0  0
   -1.6025   -2.0666    3.7755 H   0  0  0  0  0  0  0  0  0  0  0  0
   -1.9612   -3.5760    2.9153 H   0  0  0  0  0  0  0  0  0  0  0  0
  1  2  2  0  0  0  0
  1  3  1  0  0  0  0
  1  7  1  0  0  0  0
  3  4  1  0  0  0  0
  3  5  1  0  0  0  0
  3  6  1  0  0  0  0
  7  8  1  0  0  0  0
  7 12  1  0  0  0  0
  8  9  1  0  0  0  0
  8 11  1  0  0  0  0
  8 13  1  0  0  0  0
  9 10  2  0  0  0  0
  9 17  1  0  0  0  0
 11 14  1  0  0  0  0
 11 15  1  0  0  0  0
 11 16  1  0  0  0  0
 17 18  1  0  0  0  0
 17 23  1  0  0  0  0
 18 19  1  0  0  0  0
 18 21  1  0  0  0  0
 18 24  1  0  0  0  0
 19 20  2  0  0  0  0
 19 31  1  0  0  0  0
 21 22  1  0  0  0  0
 21 25  1  0  0  0  0
 21 26  1  0  0  0  0
 22 23  1  0  0  0  0
 22 27  1  0  0  0  0
 22 28  1  0  0  0  0
 23 29  1  0  0  0  0
 23 30  1  0  0  0  0
 31 32  1  0  0  0  0
 31 36  1  0  0  0  0
 32 33  1  0  0  0  0
 32 35  1  0  0  0  0
 32 37  1  0  0  0  0
 33 34  2  0  0  0  0
 33 41  1  0  0  0  0
 35 38  1  0  0  0  0
 35 39  1  0  0  0  0
 35 40  1  0  0  0  0
 41 42  1  0  0  0  0
 41 43  1  0  0  0  0
 42 44  1  0  0  0  0
 42 45  1  0  0  0  0
 42 46  1  0  0  0  0
M  END
$$$$

  -OEChem-05262217223D

 46 46  0     1  0  0  0  0  0999 V2000
   -1.2075    1.0846    3.8393 C   0  0  0  0  0  0  0  0  0  0  0  0
   -2.4065    1.2053    4.0353 O   0  0  0  0  0  0  0  0  0  0  0  0
   -0.2907    0.8193    5.0183 C   0  0  0  0  0  0  0  0  0  0  0  0
   -0.6195    1.4001    5.8841 H   0  0  0  0  0  0  0  0  0  0  0  0
   -0.3115   -0.2427    5.2740 H   0  0  0  0  0  0  0  0  0  0  0  0
    0.7364    1.1028    4.7762 H   0  0  0  0  0  0  0  0  0  0  0  0
   -0.6859    1.2524    2.5689 N   0  0  0  0  0  0  0  0  0  0  0  0
   -1.4419    1.9325    1.5014 C   0  0  2  0  0  0  0  0  0  0  0  0
   -0.5434    2.6186    0.4352 C   0  0  0  0  0  0  0  0  0  0  0  0
   -0.2886    3.7924    0.6819 O   0  0  0  0  0  0  0  0  0  0  0  0
   -2.5672    1.0513    0.9404 C   0  0  0  0  0  0  0  0  0  0  0  0
    0.3285    1.3008    2.5357 H   0  0  0  0  0  0  0  0  0  0  0  0
   -1.9604    2.7728    1.9802 H   0  0  0  0  0  0  0  0  0  0  0  0
   -3.5231    1.3553    1.3786 H   0  0  0  0  0  0  0  0  0  0  0  0
   -2.6492    1.1467   -0.1460 H   0  0  0  0  0  0  0  0  0  0  0  0
   -2.4125    0.0024    1.2033 H   0  0  0  0  0  0  0  0  0  0  0  0
    0.0428    2.0910   -0.7325 N   0  0  0  0  0  0  0  0  0  0  0  0
    0.0093    0.7435   -1.3293 C   0  0  2  0  0  0  0  0  0  0  0  0
   -0.1295   -0.5345   -0.4643 C   0  0  0  0  0  0  0  0  0  0  0  0
   -1.1449   -1.2035   -0.5651 O   0  0  0  0  0  0  0  0  0  0  0  0
    1.2681    0.7138   -2.2094 C   0  0  0  0  0  0  0  0  0  0  0  0
    1.5818    2.1649   -2.5495 C   0  0  0  0  0  0  0  0  0  0  0  0
    0.6182    3.0070   -1.7242 C   0  0  0  0  0  0  0  0  0  0  0  0
   -0.8605    0.7311   -1.9957 H   0  0  0  0  0  0  0  0  0  0  0  0
    1.0951    0.1200   -3.1127 H   0  0  0  0  0  0  0  0  0  0  0  0
    2.1239    0.2839   -1.6851 H   0  0  0  0  0  0  0  0  0  0  0  0
    2.6184    2.4008   -2.2878 H   0  0  0  0  0  0  0  0  0  0  0  0
    1.4424    2.3611   -3.6174 H   0  0  0  0  0  0  0  0  0  0  0  0
    1.1679    3.8382   -1.2681 H   0  0  0  0  0  0  0  0  0  0  0  0
   -0.1741    3.4232   -2.3558 H   0  0  0  0  0  0  0  0  0  0  0  0
    0.9093   -1.3973   -0.1941 N   0  0  0  0  0  0  0  0  0  0  0  0
    1.6785   -1.2856    1.0582 C   0  0  2  0  0  0  0  0  0  0  0  0
    0.8373   -1.6369    2.3136 C   0  0  0  0  0  0  0  0  0  0  0  0
    1.2955   -1.4247    3.4271 O   0  0  0  0  0  0  0  0  0  0  0  0
    2.3788    0.0784    1.1857 C   0  0  0  0  0  0  0  0  0  0  0  0
    0.5990   -2.3486   -0.3833 H   0  0  0  0  0  0  0  0  0  0  0  0
    2.4700   -2.0407    1.0150 H   0  0  0  0  0  0  0  0  0  0  0  0
    1.6590    0.8974    1.2077 H   0  0  0  0  0  0  0  0  0  0  0  0
    2.9695    0.1182    2.1066 H   0  0  0  0  0  0  0  0  0  0  0  0
    3.0625    0.2355    0.3475 H   0  0  0  0  0  0  0  0  0  0  0  0
   -0.4274   -2.1879    2.1925 N   0  0  0  0  0  0  0  0  0  0  0  0
   -1.2910   -2.5203    3.3203 C   0  0  0  0  0  0  0  0  0  0  0  0
   -0.8489   -2.1602    1.2621 H   0  0  0  0  0  0  0  0  0  0  0  0
   -0.7102   -2.9261    4.1554 H   0  0  0  0  0  0  0  0  0  0  0  0
   -1.8335   -1.6355    3.6648 H   0  0  0  0  0  0  0  0  0  0  0  0
   -2.0216   -3.2769    3.0190 H   0  0  0  0  0  0  0  0  0  0  0  0
  1  2  2  0  0  0  0
  1  3  1  0  0  0  0
  1  7  1  0  0  0  0
  3  4  1  0  0  0  0
  3  5  1  0  0  0  0
  3  6  1  0  0  0  0
  7  8  1  0  0  0  0
  7 12  1  0  0  0  0
  8  9  1  0  0  0  0
  8 11  1  0  0  0  0
  8 13  1  0  0  0  0
  9 10  2  0  0  0  0
  9 17  1  0  0  0  0
 11 14  1  0  0  0  0
 11 15  1  0  0  0  0
 11 16  1  0  0  0  0
 17 18  1  0  0  0  0
 17 23  1  0  0  0  0
 18 19  1  0  0  0  0
 18 21  1  0  0  0  0
 18 24  1  0  0  0  0
 19 20  2  0  0  0  0
 19 31  1  0  0  0  0
 21 22  1  0  0  0  0
 21 25  1  0  0  0  0
 21 26  1  0  0  0  0
 22 23  1  0  0  0  0
 22 27  1  0  0  0  0
 22 28  1  0  0  0  0
 23 29  1  0  0  0  0
 23 30  1  0  0  0  0
 31 32  1  0  0  0  0
 31 36  1  0  0  0  0
 32 33  1  0  0  0  0
 32 35  1  0  0  0  0
 32 37  1  0  0  0  0
 33 34  2  0  0  0  0
 33 41  1  0  0  0  0
 35 38  1  0  0  0  0
 35 39  1  0  0  0  0
 35 40  1  0  0  0  0
 41 42  1  0  0  0  0
 41 43  1  0  0  0  0
 42 44  1  0  0  0  0
 42 45  1  0  0  0  0
 42 46  1  0  0  0  0
M  END
$$$$

  -OEChem-05262217223D

 46 46  0     1  0  0  0  0  0999 V2000
   -1.6899    1.1938    3.6548 C   0  0  0  0  0  0  0  0  0  0  0  0
   -1.1797    0.0932    3.4846 O   0  0  0  0  0  0  0  0  0  0  0  0
   -1.7615    1.7817    5.0516 C   0  0  0  0  0  0  0  0  0  0  0  0
   -2.8016    1.9866    5.3171 H   0  0  0  0  0  0  0  0  0  0  0  0
   -1.3445    1.0808    5.7803 H   0  0  0  0  0  0  0  0  0  0  0  0
   -1.1922    2.7137    5.0937 H   0  0  0  0  0  0  0  0  0  0  0  0
   -2.1722    1.9243    2.5862 N   0  0  0  0  0  0  0  0  0  0  0  0
   -1.9425    1.5598    1.1790 C   0  0  2  0  0  0  0  0  0  0  0  0
   -0.8500    2.4411    0.5104 C   0  0  0  0  0  0  0  0  0  0  0  0
   -0.7382    3.5849    0.9468 O   0  0  0  0  0  0  0  0  0  0  0  0
   -3.2683    1.7085    0.4298 C   0  0  0  0  0  0  0  0  0  0  0  0
   -2.3737    2.9044    2.7727 H   0  0  0  0  0  0  0  0  0  0  0  0
   -1.6531    0.5150    1.1495 H   0  0  0  0  0  0  0  0  0  0  0  0
   -3.6081    2.7489    0.4514 H   0  0  0  0  0  0  0  0  0  0  0  0
   -3.1531    1.4007   -0.6144 H   0  0  0  0  0  0  0  0  0  0  0  0
   -4.0360    1.0788    0.8902 H   0  0  0  0  0  0  0  0  0  0  0  0
   -0.0313    2.0883   -0.5763 N   0  0  0  0  0  0  0  0  0  0  0  0
    0.0164    0.8397   -1.3498 C   0  0  2  0  0  0  0  0  0  0  0  0
   -0.3553   -0.4823   -0.6401 C   0  0  0  0  0  0  0  0  0  0  0  0
   -1.4531   -0.9623   -0.8702 O   0  0  0  0  0  0  0  0  0  0  0  0
    1.4123    0.8449   -1.9810 C   0  0  0  0  0  0  0  0  0  0  0  0
    1.8202    2.3169   -2.0458 C   0  0  0  0  0  0  0  0  0  0  0  0
    0.7422    3.1002   -1.2956 C   0  0  0  0  0  0  0  0  0  0  0  0
   -0.7106    0.9471   -2.1624 H   0  0  0  0  0  0  0  0  0  0  0  0
    1.3832    0.3973   -2.9798 H   0  0  0  0  0  0  0  0  0  0  0  0
    2.1395    0.2852   -1.3916 H   0  0  0  0  0  0  0  0  0  0  0  0
    2.7957    2.4585   -1.5694 H   0  0  0  0  0  0  0  0  0  0  0  0
    1.8910    2.6615   -3.0824 H   0  0  0  0  0  0  0  0  0  0  0  0
    1.2117    3.8238   -0.6197 H   0  0  0  0  0  0  0  0  0  0  0  0
    0.0981    3.6448   -1.9947 H   0  0  0  0  0  0  0  0  0  0  0  0
    0.4460   -1.3674    0.0494 N   0  0  0  0  0  0  0  0  0  0  0  0
    1.6678   -1.1304    0.8476 C   0  0  2  0  0  0  0  0  0  0  0  0
    1.7079   -2.1470    2.0084 C   0  0  0  0  0  0  0  0  0  0  0  0
    2.6199   -2.9597    2.0708 O   0  0  0  0  0  0  0  0  0  0  0  0
    1.7751    0.2702    1.4748 C   0  0  0  0  0  0  0  0  0  0  0  0
   -0.0598   -2.2261    0.2643 H   0  0  0  0  0  0  0  0  0  0  0  0
    2.5485   -1.3061    0.2213 H   0  0  0  0  0  0  0  0  0  0  0  0
    0.8414    0.5522    1.9635 H   0  0  0  0  0  0  0  0  0  0  0  0
    2.5713    0.2847    2.2265 H   0  0  0  0  0  0  0  0  0  0  0  0
    2.0234    1.0258    0.7293 H   0  0  0  0  0  0  0  0  0  0  0  0
    0.6889   -2.1878    2.9438 N   0  0  0  0  0  0  0  0  0  0  0  0
    0.6742   -3.1119    4.0690 C   0  0  0  0  0  0  0  0  0  0  0  0
    0.0017   -1.4277    2.9325 H   0  0  0  0  0  0  0  0  0  0  0  0
    1.5397   -2.9411    4.7176 H   0  0  0  0  0  0  0  0  0  0  0  0
   -0.2362   -2.9692    4.6596 H   0  0  0  0  0  0  0  0  0  0  0  0
    0.6965   -4.1476    3.7144 H   0  0  0  0  0  0  0  0  0  0  0  0
  1  2  2  0  0  0  0
  1  3  1  0  0  0  0
  1  7  1  0  0  0  0
  3  4  1  0  0  0  0
  3  5  1  0  0  0  0
  3  6  1  0  0  0  0
  7  8  1  0  0  0  0
  7 12  1  0  0  0  0
  8  9  1  0  0  0  0
  8 11  1  0  0  0  0
  8 13  1  0  0  0  0
  9 10  2  0  0  0  0
  9 17  1  0  0  0  0
 11 14  1  0  0  0  0
 11 15  1  0  0  0  0
 11 16  1  0  0  0  0
 17 18  1  0  0  0  0
 17 23  1  0  0  0  0
 18 19  1  0  0  0  0
 18 21  1  0  0  0  0
 18 24  1  0  0  0  0
 19 20  2  0  0  0  0
 19 31  1  0  0  0  0
 21 22  1  0  0  0  0
 21 25  1  0  0  0  0
 21 26  1  0  0  0  0
 22 23  1  0  0  0  0
 22 27  1  0  0  0  0
 22 28  1  0  0  0  0
 23 29  1  0  0  0  0
 23 30  1  0  0  0  0
 31 32  1  0  0  0  0
 31 36  1  0  0  0  0
 32 33  1  0  0  0  0
 32 35  1  0  0  0  0
 32 37  1  0  0  0  0
 33 34  2  0  0  0  0
 33 41  1  0  0  0  0
 35 38  1  0  0  0  0
 35 39  1  0  0  0  0
 35 40  1  0  0  0  0
 41 42  1  0  0  0  0
 41 43  1  0  0  0  0
 42 44  1  0  0  0  0
 42 45  1  0  0  0  0
 42 46  1  0  0  0  0
M  END
$$$$

  -OEChem-05262217223D

 46 46  0     1  0  0  0  0  0999 V2000
   -2.1963    1.7649    4.1101 C   0  0  0  0  0  0  0  0  0  0  0  0
   -3.4073    1.9014    4.0282 O   0  0  0  0  0  0  0  0  0  0  0  0
   -1.5343    1.6852    5.4724 C   0  0  0  0  0  0  0  0  0  0  0  0
   -2.2651    1.8868    6.2602 H   0  0  0  0  0  0  0  0  0  0  0  0
   -1.1122    0.6895    5.6248 H   0  0  0  0  0  0  0  0  0  0  0  0
   -0.7318    2.4241    5.5392 H   0  0  0  0  0  0  0  0  0  0  0  0
   -1.4241    1.6504    2.9743 N   0  0  0  0  0  0  0  0  0  0  0  0
   -1.9105    1.8858    1.6093 C   0  0  2  0  0  0  0  0  0  0  0  0
   -0.8752    2.6166    0.7005 C   0  0  0  0  0  0  0  0  0  0  0  0
   -0.6773    3.7763    1.0497 O   0  0  0  0  0  0  0  0  0  0  0  0
   -2.5958    0.6226    1.0905 C   0  0  0  0  0  0  0  0  0  0  0  0
   -0.4181    1.5457    3.1274 H   0  0  0  0  0  0  0  0  0  0  0  0
   -2.7190    2.6237    1.6769 H   0  0  0  0  0  0  0  0  0  0  0  0
   -2.7799    0.6909    0.0145 H   0  0  0  0  0  0  0  0  0  0  0  0
   -2.0049   -0.2650    1.3166 H   0  0  0  0  0  0  0  0  0  0  0  0
   -3.5628    0.5012    1.5887 H   0  0  0  0  0  0  0  0  0  0  0  0
   -0.1380    2.1971   -0.4294 N   0  0  0  0  0  0  0  0  0  0  0  0
   -0.0577    0.9266   -1.1711 C   0  0  2  0  0  0  0  0  0  0  0  0
   -0.2584   -0.4730   -0.5398 C   0  0  0  0  0  0  0  0  0  0  0  0
   -1.0840   -1.2198   -1.0395 O   0  0  0  0  0  0  0  0  0  0  0  0
    1.2462    1.0040   -1.9653 C   0  0  0  0  0  0  0  0  0  0  0  0
    1.5285    2.4910   -2.1317 C   0  0  0  0  0  0  0  0  0  0  0  0
    0.4881    3.2180   -1.2834 C   0  0  0  0  0  0  0  0  0  0  0  0
   -0.8720    0.9954   -1.9015 H   0  0  0  0  0  0  0  0  0  0  0  0
    1.1260    0.5183   -2.9394 H   0  0  0  0  0  0  0  0  0  0  0  0
    2.0737    0.5129   -1.4589 H   0  0  0  0  0  0  0  0  0  0  0  0
    2.5381    2.7256   -1.7794 H   0  0  0  0  0  0  0  0  0  0  0  0
    1.4492    2.7955   -3.1804 H   0  0  0  0  0  0  0  0  0  0  0  0
    0.9880    4.0033   -0.7050 H   0  0  0  0  0  0  0  0  0  0  0  0
   -0.2689    3.6888   -1.9201 H   0  0  0  0  0  0  0  0  0  0  0  0
    0.5874   -1.2147    0.2683 N   0  0  0  0  0  0  0  0  0  0  0  0
    1.4578   -0.8498    1.4104 C   0  0  2  0  0  0  0  0  0  0  0  0
    0.6923   -0.6974    2.7515 C   0  0  0  0  0  0  0  0  0  0  0  0
    0.9231    0.2196    3.5263 O   0  0  0  0  0  0  0  0  0  0  0  0
    2.4159    0.3243    1.1582 C   0  0  0  0  0  0  0  0  0  0  0  0
    0.2831   -2.1851    0.2560 H   0  0  0  0  0  0  0  0  0  0  0  0
    2.1103   -1.7144    1.5665 H   0  0  0  0  0  0  0  0  0  0  0  0
    1.8725    1.2458    0.9424 H   0  0  0  0  0  0  0  0  0  0  0  0
    3.0358    0.5019    2.0430 H   0  0  0  0  0  0  0  0  0  0  0  0
    3.0953    0.0928    0.3353 H   0  0  0  0  0  0  0  0  0  0  0  0
   -0.2492   -1.5856    3.2255 N   0  0  0  0  0  0  0  0  0  0  0  0
   -0.6857   -2.8141    2.5761 C   0  0  0  0  0  0  0  0  0  0  0  0
   -0.6503   -1.3397    4.1272 H   0  0  0  0  0  0  0  0  0  0  0  0
   -1.2367   -3.4353    3.2892 H   0  0  0  0  0  0  0  0  0  0  0  0
   -1.3480   -2.5928    1.7328 H   0  0  0  0  0  0  0  0  0  0  0  0
    0.1722   -3.3917    2.2167 H   0  0  0  0  0  0  0  0  0  0  0  0
  1  2  2  0  0  0  0
  1  3  1  0  0  0  0
  1  7  1  0  0  0  0
  3  4  1  0  0  0  0
  3  5  1  0  0  0  0
  3  6  1  0  0  0  0
  7  8  1  0  0  0  0
  7 12  1  0  0  0  0
  8  9  1  0  0  0  0
  8 11  1  0  0  0  0
  8 13  1  0  0  0  0
  9 10  2  0  0  0  0
  9 17  1  0  0  0  0
 11 14  1  0  0  0  0
 11 15  1  0  0  0  0
 11 16  1  0  0  0  0
 17 18  1  0  0  0  0
 17 23  1  0  0  0  0
 18 19  1  0  0  0  0
 18 21  1  0  0  0  0
 18 24  1  0  0  0  0
 19 20  2  0  0  0  0
 19 31  1  0  0  0  0
 21 22  1  0  0  0  0
 21 25  1  0  0  0  0
 21 26  1  0  0  0  0
 22 23  1  0  0  0  0
 22 27  1  0  0  0  0
 22 28  1  0  0  0  0
 23 29  1  0  0  0  0
 23 30  1  0  0  0  0
 31 32  1  0  0  0  0
 31 36  1  0  0  0  0
 32 33  1  0  0  0  0
 32 35  1  0  0  0  0
 32 37  1  0  0  0  0
 33 34  2  0  0  0  0
 33 41  1  0  0  0  0
 35 38  1  0  0  0  0
 35 39  1  0  0  0  0
 35 40  1  0  0  0  0
 41 42  1  0  0  0  0
 41 43  1  0  0  0  0
 42 44  1  0  0  0  0
 42 45  1  0  0  0  0
 42 46  1  0  0  0  0
M  END
$$$$

  -OEChem-05262217223D

 46 46  0     1  0  0  0  0  0999 V2000
   -2.0378    1.5255    3.7202 C   0  0  0  0  0  0  0  0  0  0  0  0
   -1.7237    0.3548    3.5467 O   0  0  0  0  0  0  0  0  0  0  0  0
   -2.1358    2.0777    5.1298 C   0  0  0  0  0  0  0  0  0  0  0  0
   -1.9590    1.2837    5.8608 H   0  0  0  0  0  0  0  0  0  0  0  0
   -1.3905    2.8636    5.2755 H   0  0  0  0  0  0  0  0  0  0  0  0
   -3.1317    2.4951    5.2979 H   0  0  0  0  0  0  0  0  0  0  0  0
   -2.2763    2.3612    2.6473 N   0  0  0  0  0  0  0  0  0  0  0  0
   -1.9708    2.0043    1.2524 C   0  0  2  0  0  0  0  0  0  0  0  0
   -0.6888    2.7098    0.7268 C   0  0  0  0  0  0  0  0  0  0  0  0
   -0.3804    3.7633    1.2805 O   0  0  0  0  0  0  0  0  0  0  0  0
   -3.1774    2.3967    0.3974 C   0  0  0  0  0  0  0  0  0  0  0  0
   -2.3064    3.3558    2.8615 H   0  0  0  0  0  0  0  0  0  0  0  0
   -1.8523    0.9273    1.1944 H   0  0  0  0  0  0  0  0  0  0  0  0
   -3.3470    3.4769    0.4425 H   0  0  0  0  0  0  0  0  0  0  0  0
   -3.0149    2.1129   -0.6469 H   0  0  0  0  0  0  0  0  0  0  0  0
   -4.0761    1.8853    0.7555 H   0  0  0  0  0  0  0  0  0  0  0  0
    0.1047    2.3001   -0.3575 N   0  0  0  0  0  0  0  0  0  0  0  0
   -0.0606    1.1416   -1.2455 C   0  0  2  0  0  0  0  0  0  0  0  0
   -0.7243   -0.1462   -0.7051 C   0  0  0  0  0  0  0  0  0  0  0  0
   -1.8246   -0.4512   -1.1327 O   0  0  0  0  0  0  0  0  0  0  0  0
    1.3501    0.9008   -1.7892 C   0  0  0  0  0  0  0  0  0  0  0  0
    2.0661    2.2480   -1.6856 C   0  0  0  0  0  0  0  0  0  0  0  0
    1.1233    3.1810   -0.9266 C   0  0  0  0  0  0  0  0  0  0  0  0
   -0.6900    1.4707   -2.0795 H   0  0  0  0  0  0  0  0  0  0  0  0
    1.3108    0.5503   -2.8257 H   0  0  0  0  0  0  0  0  0  0  0  0
    1.8891    0.1531   -1.2051 H   0  0  0  0  0  0  0  0  0  0  0  0
    3.0101    2.1331   -1.1430 H   0  0  0  0  0  0  0  0  0  0  0  0
    2.2874    2.6541   -2.6777 H   0  0  0  0  0  0  0  0  0  0  0  0
    1.6803    3.7266   -0.1566 H   0  0  0  0  0  0  0  0  0  0  0  0
    0.6620    3.9075   -1.6040 H   0  0  0  0  0  0  0  0  0  0  0  0
   -0.3342   -0.9628    0.3394 N   0  0  0  0  0  0  0  0  0  0  0  0
    0.9479   -1.0873    1.0607 C   0  0  2  0  0  0  0  0  0  0  0  0
    0.8201   -2.1767    2.1457 C   0  0  0  0  0  0  0  0  0  0  0  0
    1.6203   -3.1017    2.1732 O   0  0  0  0  0  0  0  0  0  0  0  0
    1.4131    0.2026    1.7502 C   0  0  0  0  0  0  0  0  0  0  0  0
   -1.0189   -1.6977    0.5140 H   0  0  0  0  0  0  0  0  0  0  0  0
    1.7243   -1.4199    0.3648 H   0  0  0  0  0  0  0  0  0  0  0  0
    0.5980    0.6587    2.3164 H   0  0  0  0  0  0  0  0  0  0  0  0
    2.2306   -0.0166    2.4448 H   0  0  0  0  0  0  0  0  0  0  0  0
    1.7906    0.9241    1.0260 H   0  0  0  0  0  0  0  0  0  0  0  0
   -0.2154   -2.1377    3.0616 N   0  0  0  0  0  0  0  0  0  0  0  0
   -0.3722   -3.1127    4.1318 C   0  0  0  0  0  0  0  0  0  0  0  0
   -0.7865   -1.2867    3.0905 H   0  0  0  0  0  0  0  0  0  0  0  0
   -1.2635   -2.8804    4.7228 H   0  0  0  0  0  0  0  0  0  0  0  0
   -0.4848   -4.1207    3.7189 H   0  0  0  0  0  0  0  0  0  0  0  0
    0.4986   -3.0973    4.7952 H   0  0  0  0  0  0  0  0  0  0  0  0
  1  2  2  0  0  0  0
  1  3  1  0  0  0  0
  1  7  1  0  0  0  0
  3  4  1  0  0  0  0
  3  5  1  0  0  0  0
  3  6  1  0  0  0  0
  7  8  1  0  0  0  0
  7 12  1  0  0  0  0
  8  9  1  0  0  0  0
  8 11  1  0  0  0  0
  8 13  1  0  0  0  0
  9 10  2  0  0  0  0
  9 17  1  0  0  0  0
 11 14  1  0  0  0  0
 11 15  1  0  0  0  0
 11 16  1  0  0  0  0
 17 18  1  0  0  0  0
 17 23  1  0  0  0  0
 18 19  1  0  0  0  0
 18 21  1  0  0  0  0
 18 24  1  0  0  0  0
 19 20  2  0  0  0  0
 19 31  1  0  0  0  0
 21 22  1  0  0  0  0
 21 25  1  0  0  0  0
 21 26  1  0  0  0  0
 22 23  1  0  0  0  0
 22 27  1  0  0  0  0
 22 28  1  0  0  0  0
 23 29  1  0  0  0  0
 23 30  1  0  0  0  0
 31 32  1  0  0  0  0
 31 36  1  0  0  0  0
 32 33  1  0  0  0  0
 32 35  1  0  0  0  0
 32 37  1  0  0  0  0
 33 34  2  0  0  0  0
 33 41  1  0  0  0  0
 35 38  1  0  0  0  0
 35 39  1  0  0  0  0
 35 40  1  0  0  0  0
 41 42  1  0  0  0  0
 41 43  1  0  0  0  0
 42 44  1  0  0  0  0
 42 45  1  0  0  0  0
 42 46  1  0  0  0  0
M  END
$$$$

  -OEChem-05262217223D

 46 46  0     1  0  0  0  0  0999 V2000
   -1.8368    1.4343    3.9222 C   0  0  0  0  0  0  0  0  0  0  0  0
   -3.0490    1.3147    4.0055 O   0  0  0  0  0  0  0  0  0  0  0  0
   -0.9884    1.3007    5.1724 C   0  0  0  0  0  0  0  0  0  0  0  0
   -1.4056    0.5263    5.8219 H   0  0  0  0  0  0  0  0  0  0  0  0
    0.0344    1.0190    4.9126 H   0  0  0  0  0  0  0  0  0  0  0  0
   -0.9703    2.2502    5.7126 H   0  0  0  0  0  0  0  0  0  0  0  0
   -1.2488    1.8087    2.7268 N   0  0  0  0  0  0  0  0  0  0  0  0
   -2.0228    2.3091    1.5772 C   0  0  2  0  0  0  0  0  0  0  0  0
   -1.1989    3.1213    0.5374 C   0  0  0  0  0  0  0  0  0  0  0  0
   -1.1470    4.3236    0.7702 O   0  0  0  0  0  0  0  0  0  0  0  0
   -2.9126    1.2228    0.9479 C   0  0  0  0  0  0  0  0  0  0  0  0
   -0.2773    2.0905    2.8012 H   0  0  0  0  0  0  0  0  0  0  0  0
   -2.7262    3.0467    1.9830 H   0  0  0  0  0  0  0  0  0  0  0  0
   -3.8692    1.1773    1.4773 H   0  0  0  0  0  0  0  0  0  0  0  0
   -3.1215    1.4428   -0.1033 H   0  0  0  0  0  0  0  0  0  0  0  0
   -2.4572    0.2368    1.0250 H   0  0  0  0  0  0  0  0  0  0  0  0
   -0.4592    2.6739   -0.5766 N   0  0  0  0  0  0  0  0  0  0  0  0
   -0.2200    1.3210   -1.1109 C   0  0  2  0  0  0  0  0  0  0  0  0
   -0.1742    0.0898   -0.1904 C   0  0  0  0  0  0  0  0  0  0  0  0
   -0.6771   -0.9690   -0.5423 O   0  0  0  0  0  0  0  0  0  0  0  0
    1.1246    1.4596   -1.8313 C   0  0  0  0  0  0  0  0  0  0  0  0
    1.2584    2.9335   -2.1986 C   0  0  0  0  0  0  0  0  0  0  0  0
    0.0846    3.6426   -1.5339 C   0  0  0  0  0  0  0  0  0  0  0  0
   -1.0039    1.1229   -1.8502 H   0  0  0  0  0  0  0  0  0  0  0  0
    1.1596    0.8197   -2.7196 H   0  0  0  0  0  0  0  0  0  0  0  0
    1.9528    1.1738   -1.1738 H   0  0  0  0  0  0  0  0  0  0  0  0
    2.2086    3.3328   -1.8292 H   0  0  0  0  0  0  0  0  0  0  0  0
    1.2237    3.0750   -3.2836 H   0  0  0  0  0  0  0  0  0  0  0  0
    0.4413    4.5632   -1.0581 H   0  0  0  0  0  0  0  0  0  0  0  0
   -0.6785    3.9105   -2.2724 H   0  0  0  0  0  0  0  0  0  0  0  0
    0.5368    0.1382    0.9930 N   0  0  0  0  0  0  0  0  0  0  0  0
    0.9092   -1.0507    1.7749 C   0  0  2  0  0  0  0  0  0  0  0  0
   -0.2325   -1.5476    2.6933 C   0  0  0  0  0  0  0  0  0  0  0  0
   -0.1310   -1.5026    3.9134 O   0  0  0  0  0  0  0  0  0  0  0  0
    2.1851   -0.6975    2.5496 C   0  0  0  0  0  0  0  0  0  0  0  0
    1.0137    1.0122    1.1913 H   0  0  0  0  0  0  0  0  0  0  0  0
    1.1529   -1.8742    1.0948 H   0  0  0  0  0  0  0  0  0  0  0  0
    1.9971    0.1196    3.2533 H   0  0  0  0  0  0  0  0  0  0  0  0
    2.5354   -1.5665    3.1160 H   0  0  0  0  0  0  0  0  0  0  0  0
    2.9793   -0.3935    1.8611 H   0  0  0  0  0  0  0  0  0  0  0  0
   -1.3967   -2.0207    2.1236 N   0  0  0  0  0  0  0  0  0  0  0  0
   -2.5993   -2.3256    2.8878 C   0  0  0  0  0  0  0  0  0  0  0  0
   -1.4669   -1.9235    1.1082 H   0  0  0  0  0  0  0  0  0  0  0  0
   -3.0145   -1.4133    3.3278 H   0  0  0  0  0  0  0  0  0  0  0  0
   -3.3560   -2.7728    2.2365 H   0  0  0  0  0  0  0  0  0  0  0  0
   -2.3763   -3.0349    3.6917 H   0  0  0  0  0  0  0  0  0  0  0  0
  1  2  2  0  0  0  0
  1  3  1  0  0  0  0
  1  7  1  0  0  0  0
  3  4  1  0  0  0  0
  3  5  1  0  0  0  0
  3  6  1  0  0  0  0
  7  8  1  0  0  0  0
  7 12  1  0  0  0  0
  8  9  1  0  0  0  0
  8 11  1  0  0  0  0
  8 13  1  0  0  0  0
  9 10  2  0  0  0  0
  9 17  1  0  0  0  0
 11 14  1  0  0  0  0
 11 15  1  0  0  0  0
 11 16  1  0  0  0  0
 17 18  1  0  0  0  0
 17 23  1  0  0  0  0
 18 19  1  0  0  0  0
 18 21  1  0  0  0  0
 18 24  1  0  0  0  0
 19 20  2  0  0  0  0
 19 31  1  0  0  0  0
 21 22  1  0  0  0  0
 21 25  1  0  0  0  0
 21 26  1  0  0  0  0
 22 23  1  0  0  0  0
 22 27  1  0  0  0  0
 22 28  1  0  0  0  0
 23 29  1  0  0  0  0
 23 30  1  0  0  0  0
 31 32  1  0  0  0  0
 31 36  1  0  0  0  0
 32 33  1  0  0  0  0
 32 35  1  0  0  0  0
 32 37  1  0  0  0  0
 33 34  2  0  0  0  0
 33 41  1  0  0  0  0
 35 38  1  0  0  0  0
 35 39  1  0  0  0  0
 35 40  1  0  0  0  0
 41 42  1  0  0  0  0
 41 43  1  0  0  0  0
 42 44  1  0  0  0  0
 42 45  1  0  0  0  0
 42 46  1  0  0  0  0
M  END
$$$$

  -OEChem-05262217223D

 46 46  0     1  0  0  0  0  0999 V2000
   -0.7720    2.3734    3.3250 C   0  0  0  0  0  0  0  0  0  0  0  0
    0.2823    2.3619    2.7049 O   0  0  0  0  0  0  0  0  0  0  0  0
   -0.7682    2.6582    4.8142 C   0  0  0  0  0  0  0  0  0  0  0  0
   -1.1380    1.7858    5.3596 H   0  0  0  0  0  0  0  0  0  0  0  0
    0.2468    2.8825    5.1536 H   0  0  0  0  0  0  0  0  0  0  0  0
   -1.4095    3.5158    5.0318 H   0  0  0  0  0  0  0  0  0  0  0  0
   -1.9633    2.0853    2.6908 N   0  0  0  0  0  0  0  0  0  0  0  0
   -2.1135    1.7324    1.2693 C   0  0  2  0  0  0  0  0  0  0  0  0
   -1.3373    2.6525    0.2827 C   0  0  0  0  0  0  0  0  0  0  0  0
   -1.6573    3.8393    0.2846 O   0  0  0  0  0  0  0  0  0  0  0  0
   -3.6143    1.8073    0.9645 C   0  0  0  0  0  0  0  0  0  0  0  0
   -2.7883    2.0495    3.2817 H   0  0  0  0  0  0  0  0  0  0  0  0
   -1.8292    0.6980    1.1183 H   0  0  0  0  0  0  0  0  0  0  0  0
   -3.9957    2.8191    1.1377 H   0  0  0  0  0  0  0  0  0  0  0  0
   -3.8026    1.5409   -0.0801 H   0  0  0  0  0  0  0  0  0  0  0  0
   -4.1682    1.1126    1.6028 H   0  0  0  0  0  0  0  0  0  0  0  0
   -0.4026    2.2371   -0.6836 N   0  0  0  0  0  0  0  0  0  0  0  0
    0.0959    0.8897   -1.0294 C   0  0  2  0  0  0  0  0  0  0  0  0
    0.2201   -0.2760   -0.0204 C   0  0  0  0  0  0  0  0  0  0  0  0
   -0.0607   -1.4072   -0.3994 O   0  0  0  0  0  0  0  0  0  0  0  0
    1.5010    1.1914   -1.5609 C   0  0  0  0  0  0  0  0  0  0  0  0
    1.4801    2.6334   -2.0583 C   0  0  0  0  0  0  0  0  0  0  0  0
    0.1271    3.1990   -1.6497 C   0  0  0  0  0  0  0  0  0  0  0  0
   -0.5302    0.5209   -1.8488 H   0  0  0  0  0  0  0  0  0  0  0  0
    1.7756    0.4951   -2.3601 H   0  0  0  0  0  0  0  0  0  0  0  0
    2.2423    1.1005   -0.7590 H   0  0  0  0  0  0  0  0  0  0  0  0
    2.2903    3.2050   -1.5938 H   0  0  0  0  0  0  0  0  0  0  0  0
    1.6019    2.6811   -3.1448 H   0  0  0  0  0  0  0  0  0  0  0  0
    0.2633    4.1985   -1.2214 H   0  0  0  0  0  0  0  0  0  0  0  0
   -0.5434    3.2787   -2.5122 H   0  0  0  0  0  0  0  0  0  0  0  0
    0.4733   -0.0940    1.3267 N   0  0  0  0  0  0  0  0  0  0  0  0
    0.4139   -1.1650    2.3332 C   0  0  2  0  0  0  0  0  0  0  0  0
   -1.0426   -1.4409    2.7703 C   0  0  0  0  0  0  0  0  0  0  0  0
   -1.4814   -1.0765    3.8562 O   0  0  0  0  0  0  0  0  0  0  0  0
    1.3310   -0.7899    3.5031 C   0  0  0  0  0  0  0  0  0  0  0  0
    0.5929    0.8704    1.6570 H   0  0  0  0  0  0  0  0  0  0  0  0
    0.8068   -2.0922    1.9031 H   0  0  0  0  0  0  0  0  0  0  0  0
    0.9767    0.1141    4.0055 H   0  0  0  0  0  0  0  0  0  0  0  0
    1.3569   -1.6017    4.2367 H   0  0  0  0  0  0  0  0  0  0  0  0
    2.3497   -0.6125    3.1456 H   0  0  0  0  0  0  0  0  0  0  0  0
   -1.8954   -2.0439    1.8668 N   0  0  0  0  0  0  0  0  0  0  0  0
   -3.3087   -2.2874    2.1180 C   0  0  0  0  0  0  0  0  0  0  0  0
   -1.5101   -2.2224    0.9362 H   0  0  0  0  0  0  0  0  0  0  0  0
   -3.4339   -2.9455    2.9840 H   0  0  0  0  0  0  0  0  0  0  0  0
   -3.8320   -1.3458    2.3114 H   0  0  0  0  0  0  0  0  0  0  0  0
   -3.7693   -2.7676    1.2494 H   0  0  0  0  0  0  0  0  0  0  0  0
  1  2  2  0  0  0  0
  1  3  1  0  0  0  0
  1  7  1  0  0  0  0
  3  4  1  0  0  0  0
  3  5  1  0  0  0  0
  3  6  1  0  0  0  0
  7  8  1  0  0  0  0
  7 12  1  0  0  0  0
  8  9  1  0  0  0  0
  8 11  1  0  0  0  0
  8 13  1  0  0  0  0
  9 10  2  0  0  0  0
  9 17  1  0  0  0  0
 11 14  1  0  0  0  0
 11 15  1  0  0  0  0
 11 16  1  0  0  0  0
 17 18  1  0  0  0  0
 17 23  1  0  0  0  0
 18 19  1  0  0  0  0
 18 21  1  0  0  0  0
 18 24  1  0  0  0  0
 19 20  2  0  0  0  0
 19 31  1  0  0  0  0
 21 22  1  0  0  0  0
 21 25  1  0  0  0  0
 21 26  1  0  0  0  0
 22 23  1  0  0  0  0
 22 27  1  0  0  0  0
 22 28  1  0  0  0  0
 23 29  1  0  0  0  0
 23 30  1  0  0  0  0
 31 32  1  0  0  0  0
 31 36  1  0  0  0  0
 32 33  1  0  0  0  0
 32 35  1  0  0  0  0
 32 37  1  0  0  0  0
 33 34  2  0  0  0  0
 33 41  1  0  0  0  0
 35 38  1  0  0  0  0
 35 39  1  0  0  0  0
 35 40  1  0  0  0  0
 41 42  1  0  0  0  0
 41 43  1  0  0  0  0
 42 44  1  0  0  0  0
 42 45  1  0  0  0  0
 42 46  1  0  0  0  0
M  END
$$$$

  -OEChem-05262217223D

 46 46  0     1  0  0  0  0  0999 V2000
   -1.1151    2.6172    3.2944 C   0  0  0  0  0  0  0  0  0  0  0  0
   -0.0395    2.5301    2.7201 O   0  0  0  0  0  0  0  0  0  0  0  0
   -1.1860    3.2019    4.6917 C   0  0  0  0  0  0  0  0  0  0  0  0
   -1.5255    2.4391    5.3970 H   0  0  0  0  0  0  0  0  0  0  0  0
   -0.1996    3.5567    5.0030 H   0  0  0  0  0  0  0  0  0  0  0  0
   -1.8840    4.0427    4.7100 H   0  0  0  0  0  0  0  0  0  0  0  0
   -2.2625    2.1460    2.6920 N   0  0  0  0  0  0  0  0  0  0  0  0
   -2.3466    1.6327    1.3151 C   0  0  2  0  0  0  0  0  0  0  0  0
   -1.6946    2.5574    0.2470 C   0  0  0  0  0  0  0  0  0  0  0  0
   -2.1680    3.6897    0.1727 O   0  0  0  0  0  0  0  0  0  0  0  0
   -3.8412    1.4757    1.0113 C   0  0  0  0  0  0  0  0  0  0  0  0
   -3.1293    2.2777    3.2044 H   0  0  0  0  0  0  0  0  0  0  0  0
   -1.9379    0.6327    1.2552 H   0  0  0  0  0  0  0  0  0  0  0  0
   -4.3592    2.4371    1.0916 H   0  0  0  0  0  0  0  0  0  0  0  0
   -3.9828    1.0904   -0.0031 H   0  0  0  0  0  0  0  0  0  0  0  0
   -4.2993    0.7724    1.7138 H   0  0  0  0  0  0  0  0  0  0  0  0
   -0.7036    2.2095   -0.6913 N   0  0  0  0  0  0  0  0  0  0  0  0
    0.0039    0.9345   -0.9511 C   0  0  2  0  0  0  0  0  0  0  0  0
    0.3419   -0.1611    0.0927 C   0  0  0  0  0  0  0  0  0  0  0  0
    0.4416   -1.3119   -0.3180 O   0  0  0  0  0  0  0  0  0  0  0  0
    1.3408    1.4211   -1.5224 C   0  0  0  0  0  0  0  0  0  0  0  0
    1.0925    2.8014   -2.1187 C   0  0  0  0  0  0  0  0  0  0  0  0
   -0.3310    3.1704   -1.7320 C   0  0  0  0  0  0  0  0  0  0  0  0
   -0.5632    0.4270   -1.7385 H   0  0  0  0  0  0  0  0  0  0  0  0
    1.7227    0.7229   -2.2748 H   0  0  0  0  0  0  0  0  0  0  0  0
    2.0880    1.5057   -0.7249 H   0  0  0  0  0  0  0  0  0  0  0  0
    1.8023    3.5256   -1.7060 H   0  0  0  0  0  0  0  0  0  0  0  0
    1.2033    2.7903   -3.2075 H   0  0  0  0  0  0  0  0  0  0  0  0
   -0.3527    4.2085   -1.3812 H   0  0  0  0  0  0  0  0  0  0  0  0
   -1.0066    3.0800   -2.5894 H   0  0  0  0  0  0  0  0  0  0  0  0
    0.3087    0.0096    1.4629 N   0  0  0  0  0  0  0  0  0  0  0  0
    0.3457   -1.0856    2.4442 C   0  0  2  0  0  0  0  0  0  0  0  0
   -1.0532   -1.7224    2.6089 C   0  0  0  0  0  0  0  0  0  0  0  0
   -1.7416   -1.5366    3.6062 O   0  0  0  0  0  0  0  0  0  0  0  0
    0.9164   -0.5428    3.7592 C   0  0  0  0  0  0  0  0  0  0  0  0
    0.2317    0.9702    1.8137 H   0  0  0  0  0  0  0  0  0  0  0  0
    1.0262   -1.8698    2.0961 H   0  0  0  0  0  0  0  0  0  0  0  0
    0.2557    0.2161    4.1872 H   0  0  0  0  0  0  0  0  0  0  0  0
    1.0237   -1.3537    4.4862 H   0  0  0  0  0  0  0  0  0  0  0  0
    1.9001   -0.0945    3.5907 H   0  0  0  0  0  0  0  0  0  0  0  0
   -1.5798   -2.4372    1.5512 N   0  0  0  0  0  0  0  0  0  0  0  0
   -2.9395   -2.9577    1.5203 C   0  0  0  0  0  0  0  0  0  0  0  0
   -1.0138   -2.4570    0.6995 H   0  0  0  0  0  0  0  0  0  0  0  0
   -3.1240   -3.6001    2.3879 H   0  0  0  0  0  0  0  0  0  0  0  0
   -3.6631   -2.1361    1.5287 H   0  0  0  0  0  0  0  0  0  0  0  0
   -3.0961   -3.5511    0.6143 H   0  0  0  0  0  0  0  0  0  0  0  0
  1  2  2  0  0  0  0
  1  3  1  0  0  0  0
  1  7  1  0  0  0  0
  3  4  1  0  0  0  0
  3  5  1  0  0  0  0
  3  6  1  0  0  0  0
  7  8  1  0  0  0  0
  7 12  1  0  0  0  0
  8  9  1  0  0  0  0
  8 11  1  0  0  0  0
  8 13  1  0  0  0  0
  9 10  2  0  0  0  0
  9 17  1  0  0  0  0
 11 14  1  0  0  0  0
 11 15  1  0  0  0  0
 11 16  1  0  0  0  0
 17 18  1  0  0  0  0
 17 23  1  0  0  0  0
 18 19  1  0  0  0  0
 18 21  1  0  0  0  0
 18 24  1  0  0  0  0
 19 20  2  0  0  0  0
 19 31  1  0  0  0  0
 21 22  1  0  0  0  0
 21 25  1  0  0  0  0
 21 26  1  0  0  0  0
 22 23  1  0  0  0  0
 22 27  1  0  0  0  0
 22 28  1  0  0  0  0
 23 29  1  0  0  0  0
 23 30  1  0  0  0  0
 31 32  1  0  0  0  0
 31 36  1  0  0  0  0
 32 33  1  0  0  0  0
 32 35  1  0  0  0  0
 32 37  1  0  0  0  0
 33 34  2  0  0  0  0
 33 41  1  0  0  0  0
 35 38  1  0  0  0  0
 35 39  1  0  0  0  0
 35 40  1  0  0  0  0
 41 42  1  0  0  0  0
 41 43  1  0  0  0  0
 42 44  1  0  0  0  0
 42 45  1  0  0  0  0
 42 46  1  0  0  0  0
M  END
$$$$

  -OEChem-05262217223D

 46 46  0     1  0  0  0  0  0999 V2000
   -0.4535    2.7558    3.3065 C   0  0  0  0  0  0  0  0  0  0  0  0
    0.2801    1.8552    2.9288 O   0  0  0  0  0  0  0  0  0  0  0  0
   -0.1216    3.5372    4.5631 C   0  0  0  0  0  0  0  0  0  0  0  0
   -0.9487    3.4705    5.2744 H   0  0  0  0  0  0  0  0  0  0  0  0
    0.7802    3.1331    5.0319 H   0  0  0  0  0  0  0  0  0  0  0  0
    0.0523    4.5869    4.3135 H   0  0  0  0  0  0  0  0  0  0  0  0
   -1.5845    3.0626    2.5808 N   0  0  0  0  0  0  0  0  0  0  0  0
   -1.8619    2.5228    1.2399 C   0  0  2  0  0  0  0  0  0  0  0  0
   -0.7365    2.8383    0.2137 C   0  0  0  0  0  0  0  0  0  0  0  0
   -0.4992    4.0380    0.0835 O   0  0  0  0  0  0  0  0  0  0  0  0
   -3.1763    3.1660    0.7815 C   0  0  0  0  0  0  0  0  0  0  0  0
   -2.0636    3.9176    2.8479 H   0  0  0  0  0  0  0  0  0  0  0  0
   -2.0672    1.4634    1.2855 H   0  0  0  0  0  0  0  0  0  0  0  0
   -3.0868    4.2567    0.7458 H   0  0  0  0  0  0  0  0  0  0  0  0
   -3.4449    2.8084   -0.2174 H   0  0  0  0  0  0  0  0  0  0  0  0
   -3.9863    2.9052    1.4700 H   0  0  0  0  0  0  0  0  0  0  0  0
   -0.0206    1.9477   -0.6131 N   0  0  0  0  0  0  0  0  0  0  0  0
   -0.0670    0.4737   -0.7960 C   0  0  2  0  0  0  0  0  0  0  0  0
   -0.4277   -0.6189    0.2484 C   0  0  0  0  0  0  0  0  0  0  0  0
   -0.6001   -1.7524   -0.1884 O   0  0  0  0  0  0  0  0  0  0  0  0
    1.3631    0.1620   -1.2591 C   0  0  0  0  0  0  0  0  0  0  0  0
    1.9151    1.4297   -1.8930 C   0  0  0  0  0  0  0  0  0  0  0  0
    0.8734    2.5044   -1.6350 C   0  0  0  0  0  0  0  0  0  0  0  0
   -0.7593    0.3034   -1.6274 H   0  0  0  0  0  0  0  0  0  0  0  0
    1.3723   -0.6737   -1.9671 H   0  0  0  0  0  0  0  0  0  0  0  0
    1.9888   -0.1111   -0.4018 H   0  0  0  0  0  0  0  0  0  0  0  0
    2.8702    1.7000   -1.4310 H   0  0  0  0  0  0  0  0  0  0  0  0
    2.0749    1.3001   -2.9680 H   0  0  0  0  0  0  0  0  0  0  0  0
    1.3808    3.4196   -1.3104 H   0  0  0  0  0  0  0  0  0  0  0  0
    0.3092    2.7271   -2.5468 H   0  0  0  0  0  0  0  0  0  0  0  0
   -0.7703   -0.4151    1.5688 N   0  0  0  0  0  0  0  0  0  0  0  0
   -1.2732   -1.4573    2.4775 C   0  0  2  0  0  0  0  0  0  0  0  0
   -2.7697   -1.7695    2.2312 C   0  0  0  0  0  0  0  0  0  0  0  0
   -3.6389   -1.4739    3.0434 O   0  0  0  0  0  0  0  0  0  0  0  0
   -0.9971   -0.9958    3.9134 C   0  0  0  0  0  0  0  0  0  0  0  0
   -0.4494    0.4620    1.9901 H   0  0  0  0  0  0  0  0  0  0  0  0
   -0.7146   -2.3853    2.3167 H   0  0  0  0  0  0  0  0  0  0  0  0
   -1.5386   -0.0699    4.1313 H   0  0  0  0  0  0  0  0  0  0  0  0
   -1.3191   -1.7609    4.6267 H   0  0  0  0  0  0  0  0  0  0  0  0
    0.0728   -0.8170    4.0576 H   0  0  0  0  0  0  0  0  0  0  0  0
   -3.1386   -2.3797    1.0488 N   0  0  0  0  0  0  0  0  0  0  0  0
   -4.5156   -2.6658    0.6721 C   0  0  0  0  0  0  0  0  0  0  0  0
   -2.3915   -2.5060    0.3612 H   0  0  0  0  0  0  0  0  0  0  0  0
   -4.9987   -3.2887    1.4321 H   0  0  0  0  0  0  0  0  0  0  0  0
   -5.0839   -1.7365    0.5635 H   0  0  0  0  0  0  0  0  0  0  0  0
   -4.5419   -3.2036   -0.2804 H   0  0  0  0  0  0  0  0  0  0  0  0
  1  2  2  0  0  0  0
  1  3  1  0  0  0  0
  1  7  1  0  0  0  0
  3  4  1  0  0  0  0
  3  5  1  0  0  0  0
  3  6  1  0  0  0  0
  7  8  1  0  0  0  0
  7 12  1  0  0  0  0
  8  9  1  0  0  0  0
  8 11  1  0  0  0  0
  8 13  1  0  0  0  0
  9 10  2  0  0  0  0
  9 17  1  0  0  0  0
 11 14  1  0  0  0  0
 11 15  1  0  0  0  0
 11 16  1  0  0  0  0
 17 18  1  0  0  0  0
 17 23  1  0  0  0  0
 18 19  1  0  0  0  0
 18 21  1  0  0  0  0
 18 24  1  0  0  0  0
 19 20  2  0  0  0  0
 19 31  1  0  0  0  0
 21 22  1  0  0  0  0
 21 25  1  0  0  0  0
 21 26  1  0  0  0  0
 22 23  1  0  0  0  0
 22 27  1  0  0  0  0
 22 28  1  0  0  0  0
 23 29  1  0  0  0  0
 23 30  1  0  0  0  0
 31 32  1  0  0  0  0
 31 36  1  0  0  0  0
 32 33  1  0  0  0  0
 32 35  1  0  0  0  0
 32 37  1  0  0  0  0
 33 34  2  0  0  0  0
 33 41  1  0  0  0  0
 35 38  1  0  0  0  0
 35 39  1  0  0  0  0
 35 40  1  0  0  0  0
 41 42  1  0  0  0  0
 41 43  1  0  0  0  0
 42 44  1  0  0  0  0
 42 45  1  0  0  0  0
 42 46  1  0  0  0  0
M  END
$$$$

  -OEChem-05262217223D

 46 46  0     1  0  0  0  0  0999 V2000
   -0.5391    2.6719    3.0343 C   0  0  0  0  0  0  0  0  0  0  0  0
    0.4763    2.4379    2.4073 O   0  0  0  0  0  0  0  0  0  0  0  0
   -0.4459    2.9152    4.5289 C   0  0  0  0  0  0  0  0  0  0  0  0
   -1.4213    3.1895    4.9380 H   0  0  0  0  0  0  0  0  0  0  0  0
   -0.0930    2.0122    5.0327 H   0  0  0  0  0  0  0  0  0  0  0  0
    0.2571    3.7291    4.7257 H   0  0  0  0  0  0  0  0  0  0  0  0
   -1.7776    2.5891    2.4196 N   0  0  0  0  0  0  0  0  0  0  0  0
   -2.0544    2.8192    0.9830 C   0  0  2  0  0  0  0  0  0  0  0  0
   -0.8792    2.9962   -0.0290 C   0  0  0  0  0  0  0  0  0  0  0  0
   -0.7346    4.1685   -0.3686 O   0  0  0  0  0  0  0  0  0  0  0  0
   -3.1420    1.8708    0.4514 C   0  0  0  0  0  0  0  0  0  0  0  0
   -2.5602    2.7631    3.0463 H   0  0  0  0  0  0  0  0  0  0  0  0
   -2.5404    3.8020    0.9896 H   0  0  0  0  0  0  0  0  0  0  0  0
   -3.8819    1.6574    1.2297 H   0  0  0  0  0  0  0  0  0  0  0  0
   -3.6590    2.3434   -0.3897 H   0  0  0  0  0  0  0  0  0  0  0  0
   -2.7376    0.9258    0.0907 H   0  0  0  0  0  0  0  0  0  0  0  0
   -0.0684    2.0399   -0.6820 N   0  0  0  0  0  0  0  0  0  0  0  0
   -0.0070    0.5536   -0.6683 C   0  0  2  0  0  0  0  0  0  0  0  0
   -0.3598   -0.4233    0.4875 C   0  0  0  0  0  0  0  0  0  0  0  0
   -0.2364   -1.6218    0.2507 O   0  0  0  0  0  0  0  0  0  0  0  0
    1.4661    0.2888   -1.0155 C   0  0  0  0  0  0  0  0  0  0  0  0
    1.9727    1.4962   -1.7850 C   0  0  0  0  0  0  0  0  0  0  0  0
    0.8506    2.5157   -1.7245 C   0  0  0  0  0  0  0  0  0  0  0  0
   -0.6361    0.2288   -1.5030 H   0  0  0  0  0  0  0  0  0  0  0  0
    1.5729   -0.6294   -1.6029 H   0  0  0  0  0  0  0  0  0  0  0  0
    2.0558    0.1776   -0.0981 H   0  0  0  0  0  0  0  0  0  0  0  0
    2.8787    1.8920   -1.3148 H   0  0  0  0  0  0  0  0  0  0  0  0
    2.2039    1.2398   -2.8235 H   0  0  0  0  0  0  0  0  0  0  0  0
    1.2820    3.4984   -1.5020 H   0  0  0  0  0  0  0  0  0  0  0  0
    0.3278    2.5777   -2.6849 H   0  0  0  0  0  0  0  0  0  0  0  0
   -1.0630   -0.1169    1.6311 N   0  0  0  0  0  0  0  0  0  0  0  0
   -1.6932   -1.1080    2.5179 C   0  0  2  0  0  0  0  0  0  0  0  0
   -3.0489   -1.5724    1.9409 C   0  0  0  0  0  0  0  0  0  0  0  0
   -4.1141   -1.1755    2.3999 O   0  0  0  0  0  0  0  0  0  0  0  0
   -1.8171   -0.5150    3.9247 C   0  0  0  0  0  0  0  0  0  0  0  0
   -1.1834    0.8729    1.8332 H   0  0  0  0  0  0  0  0  0  0  0  0
   -1.0509   -1.9913    2.6000 H   0  0  0  0  0  0  0  0  0  0  0  0
   -2.4664    0.3647    3.9211 H   0  0  0  0  0  0  0  0  0  0  0  0
   -2.2466   -1.2551    4.6072 H   0  0  0  0  0  0  0  0  0  0  0  0
   -0.8309   -0.2294    4.3017 H   0  0  0  0  0  0  0  0  0  0  0  0
   -3.0488   -2.3838    0.8240 N   0  0  0  0  0  0  0  0  0  0  0  0
   -4.2529   -2.7746    0.1043 C   0  0  0  0  0  0  0  0  0  0  0  0
   -2.1340   -2.5565    0.4005 H   0  0  0  0  0  0  0  0  0  0  0  0
   -4.9568   -3.2753    0.7773 H   0  0  0  0  0  0  0  0  0  0  0  0
   -4.7423   -1.8961   -0.3282 H   0  0  0  0  0  0  0  0  0  0  0  0
   -4.0001   -3.4663   -0.7050 H   0  0  0  0  0  0  0  0  0  0  0  0
  1  2  2  0  0  0  0
  1  3  1  0  0  0  0
  1  7  1  0  0  0  0
  3  4  1  0  0  0  0
  3  5  1  0  0  0  0
  3  6  1  0  0  0  0
  7  8  1  0  0  0  0
  7 12  1  0  0  0  0
  8  9  1  0  0  0  0
  8 11  1  0  0  0  0
  8 13  1  0  0  0  0
  9 10  2  0  0  0  0
  9 17  1  0  0  0  0
 11 14  1  0  0  0  0
 11 15  1  0  0  0  0
 11 16  1  0  0  0  0
 17 18  1  0  0  0  0
 17 23  1  0  0  0  0
 18 19  1  0  0  0  0
 18 21  1  0  0  0  0
 18 24  1  0  0  0  0
 19 20  2  0  0  0  0
 19 31  1  0  0  0  0
 21 22  1  0  0  0  0
 21 25  1  0  0  0  0
 21 26  1  0  0  0  0
 22 23  1  0  0  0  0
 22 27  1  0  0  0  0
 22 28  1  0  0  0  0
 23 29  1  0  0  0  0
 23 30  1  0  0  0  0
 31 32  1  0  0  0  0
 31 36  1  0  0  0  0
 32 33  1  0  0  0  0
 32 35  1  0  0  0  0
 32 37  1  0  0  0  0
 33 34  2  0  0  0  0
 33 41  1  0  0  0  0
 35 38  1  0  0  0  0
 35 39  1  0  0  0  0
 35 40  1  0  0  0  0
 41 42  1  0  0  0  0
 41 43  1  0  0  0  0
 42 44  1  0  0  0  0
 42 45  1  0  0  0  0
 42 46  1  0  0  0  0
M  END
$$$$

  -OEChem-05262217223D

 46 46  0     1  0  0  0  0  0999 V2000
   -0.8596    0.9247    2.9887 C   0  0  0  0  0  0  0  0  0  0  0  0
   -0.0070    0.4843    2.2400 O   0  0  0  0  0  0  0  0  0  0  0  0
   -1.1159    0.2408    4.3177 C   0  0  0  0  0  0  0  0  0  0  0  0
   -2.1890    0.1857    4.5169 H   0  0  0  0  0  0  0  0  0  0  0  0
   -0.7152   -0.7766    4.3004 H   0  0  0  0  0  0  0  0  0  0  0  0
   -0.6323    0.7990    5.1228 H   0  0  0  0  0  0  0  0  0  0  0  0
   -1.6285    2.0199    2.6242 N   0  0  0  0  0  0  0  0  0  0  0  0
   -1.2553    3.0725    1.6481 C   0  0  2  0  0  0  0  0  0  0  0  0
    0.0313    2.9249    0.7788 C   0  0  0  0  0  0  0  0  0  0  0  0
    0.8855    3.7545    1.0835 O   0  0  0  0  0  0  0  0  0  0  0  0
   -2.4524    3.5243    0.7967 C   0  0  0  0  0  0  0  0  0  0  0  0
   -2.2908    2.3001    3.3440 H   0  0  0  0  0  0  0  0  0  0  0  0
   -1.0422    3.9317    2.2952 H   0  0  0  0  0  0  0  0  0  0  0  0
   -3.3763    3.4946    1.3824 H   0  0  0  0  0  0  0  0  0  0  0  0
   -2.2923    4.5550    0.4640 H   0  0  0  0  0  0  0  0  0  0  0  0
   -2.5823    2.9133   -0.0975 H   0  0  0  0  0  0  0  0  0  0  0  0
    0.2993    2.1188   -0.3518 N   0  0  0  0  0  0  0  0  0  0  0  0
   -0.4883    1.1291   -1.1416 C   0  0  2  0  0  0  0  0  0  0  0  0
   -1.6339    0.1917   -0.6510 C   0  0  0  0  0  0  0  0  0  0  0  0
   -1.8679   -0.8375   -1.2783 O   0  0  0  0  0  0  0  0  0  0  0  0
    0.6230    0.2339   -1.7202 C   0  0  0  0  0  0  0  0  0  0  0  0
    1.8957    1.0584   -1.7720 C   0  0  0  0  0  0  0  0  0  0  0  0
    1.5615    2.3574   -1.0666 C   0  0  0  0  0  0  0  0  0  0  0  0
   -0.9411    1.7002   -1.9575 H   0  0  0  0  0  0  0  0  0  0  0  0
    0.3520   -0.1390   -2.7134 H   0  0  0  0  0  0  0  0  0  0  0  0
    0.7897   -0.6288   -1.0647 H   0  0  0  0  0  0  0  0  0  0  0  0
    2.7073    0.5360   -1.2551 H   0  0  0  0  0  0  0  0  0  0  0  0
    2.2066    1.2496   -2.8038 H   0  0  0  0  0  0  0  0  0  0  0  0
    2.3922    2.6127   -0.3987 H   0  0  0  0  0  0  0  0  0  0  0  0
    1.4363    3.1721   -1.7878 H   0  0  0  0  0  0  0  0  0  0  0  0
   -2.5104    0.4653    0.3756 N   0  0  0  0  0  0  0  0  0  0  0  0
   -3.5984   -0.4260    0.8097 C   0  0  2  0  0  0  0  0  0  0  0  0
   -3.0746   -1.5561    1.7254 C   0  0  0  0  0  0  0  0  0  0  0  0
   -3.3929   -1.6203    2.9079 O   0  0  0  0  0  0  0  0  0  0  0  0
   -4.6733    0.4406    1.4773 C   0  0  0  0  0  0  0  0  0  0  0  0
   -2.1959    1.1770    1.0293 H   0  0  0  0  0  0  0  0  0  0  0  0
   -4.0604   -0.9028   -0.0614 H   0  0  0  0  0  0  0  0  0  0  0  0
   -5.5255   -0.1795    1.7738 H   0  0  0  0  0  0  0  0  0  0  0  0
   -4.2769    0.9315    2.3707 H   0  0  0  0  0  0  0  0  0  0  0  0
   -5.0292    1.2074    0.7827 H   0  0  0  0  0  0  0  0  0  0  0  0
   -2.1708   -2.4634    1.2116 N   0  0  0  0  0  0  0  0  0  0  0  0
   -1.4460   -3.4298    2.0242 C   0  0  0  0  0  0  0  0  0  0  0  0
   -1.8483   -2.2740    0.2600 H   0  0  0  0  0  0  0  0  0  0  0  0
   -0.7847   -2.9160    2.7297 H   0  0  0  0  0  0  0  0  0  0  0  0
   -2.1435   -4.0596    2.5865 H   0  0  0  0  0  0  0  0  0  0  0  0
   -0.8372   -4.0767    1.3853 H   0  0  0  0  0  0  0  0  0  0  0  0
  1  2  2  0  0  0  0
  1  3  1  0  0  0  0
  1  7  1  0  0  0  0
  3  4  1  0  0  0  0
  3  5  1  0  0  0  0
  3  6  1  0  0  0  0
  7  8  1  0  0  0  0
  7 12  1  0  0  0  0
  8  9  1  0  0  0  0
  8 11  1  0  0  0  0
  8 13  1  0  0  0  0
  9 10  2  0  0  0  0
  9 17  1  0  0  0  0
 11 14  1  0  0  0  0
 11 15  1  0  0  0  0
 11 16  1  0  0  0  0
 17 18  1  0  0  0  0
 17 23  1  0  0  0  0
 18 19  1  0  0  0  0
 18 21  1  0  0  0  0
 18 24  1  0  0  0  0
 19 20  2  0  0  0  0
 19 31  1  0  0  0  0
 21 22  1  0  0  0  0
 21 25  1  0  0  0  0
 21 26  1  0  0  0  0
 22 23  1  0  0  0  0
 22 27  1  0  0  0  0
 22 28  1  0  0  0  0
 23 29  1  0  0  0  0
 23 30  1  0  0  0  0
 31 32  1  0  0  0  0
 31 36  1  0  0  0  0
 32 33  1  0  0  0  0
 32 35  1  0  0  0  0
 32 37  1  0  0  0  0
 33 34  2  0  0  0  0
 33 41  1  0  0  0  0
 35 38  1  0  0  0  0
 35 39  1  0  0  0  0
 35 40  1  0  0  0  0
 41 42  1  0  0  0  0
 41 43  1  0  0  0  0
 42 44  1  0  0  0  0
 42 45  1  0  0  0  0
 42 46  1  0  0  0  0
M  END
$$$$

  -OEChem-05262217223D

 46 46  0     1  0  0  0  0  0999 V2000
   -1.7250    2.9774    4.0286 C   0  0  0  0  0  0  0  0  0  0  0  0
   -2.2673    1.9051    4.2441 O   0  0  0  0  0  0  0  0  0  0  0  0
   -1.5631    3.9926    5.1437 C   0  0  0  0  0  0  0  0  0  0  0  0
   -2.1521    4.8856    4.9212 H   0  0  0  0  0  0  0  0  0  0  0  0
   -1.9070    3.5700    6.0920 H   0  0  0  0  0  0  0  0  0  0  0  0
   -0.5119    4.2738    5.2441 H   0  0  0  0  0  0  0  0  0  0  0  0
   -1.2561    3.2636    2.7645 N   0  0  0  0  0  0  0  0  0  0  0  0
   -1.2422    2.3103    1.6463 C   0  0  2  0  0  0  0  0  0  0  0  0
   -0.1071    2.6006    0.6370 C   0  0  0  0  0  0  0  0  0  0  0  0
    0.4271    3.7020    0.7630 O   0  0  0  0  0  0  0  0  0  0  0  0
   -2.6143    2.4151    0.9595 C   0  0  0  0  0  0  0  0  0  0  0  0
   -0.7112    4.1178    2.6450 H   0  0  0  0  0  0  0  0  0  0  0  0
   -1.0583    1.3231    2.0677 H   0  0  0  0  0  0  0  0  0  0  0  0
   -2.8223    3.4556    0.6889 H   0  0  0  0  0  0  0  0  0  0  0  0
   -2.6531    1.8181    0.0446 H   0  0  0  0  0  0  0  0  0  0  0  0
   -3.4043    2.0705    1.6349 H   0  0  0  0  0  0  0  0  0  0  0  0
    0.3178    1.7864   -0.4309 N   0  0  0  0  0  0  0  0  0  0  0  0
   -0.1236    0.4597   -0.9459 C   0  0  2  0  0  0  0  0  0  0  0  0
   -0.7454   -0.7164   -0.1238 C   0  0  0  0  0  0  0  0  0  0  0  0
   -0.4250   -1.8705   -0.3906 O   0  0  0  0  0  0  0  0  0  0  0  0
    1.1522   -0.0368   -1.6535 C   0  0  0  0  0  0  0  0  0  0  0  0
    1.9665    1.1869   -2.0389 C   0  0  0  0  0  0  0  0  0  0  0  0
    1.2540    2.3655   -1.4035 C   0  0  0  0  0  0  0  0  0  0  0  0
   -0.8772    0.6773   -1.7094 H   0  0  0  0  0  0  0  0  0  0  0  0
    0.9052   -0.6441   -2.5309 H   0  0  0  0  0  0  0  0  0  0  0  0
    1.7510   -0.6517   -0.9718 H   0  0  0  0  0  0  0  0  0  0  0  0
    2.9882    1.0998   -1.6550 H   0  0  0  0  0  0  0  0  0  0  0  0
    2.0142    1.3071   -3.1258 H   0  0  0  0  0  0  0  0  0  0  0  0
    2.0010    3.0221   -0.9430 H   0  0  0  0  0  0  0  0  0  0  0  0
    0.7057    2.9424   -2.1560 H   0  0  0  0  0  0  0  0  0  0  0  0
   -1.7395   -0.5882    0.8276 N   0  0  0  0  0  0  0  0  0  0  0  0
   -2.3922   -1.7111    1.5208 C   0  0  2  0  0  0  0  0  0  0  0  0
   -3.4441   -2.4157    0.6293 C   0  0  0  0  0  0  0  0  0  0  0  0
   -4.6470   -2.2789    0.8163 O   0  0  0  0  0  0  0  0  0  0  0  0
   -2.9882   -1.1587    2.8212 C   0  0  0  0  0  0  0  0  0  0  0  0
   -2.1405    0.3326    0.9677 H   0  0  0  0  0  0  0  0  0  0  0  0
   -1.6436   -2.4616    1.7967 H   0  0  0  0  0  0  0  0  0  0  0  0
   -3.7260   -0.3775    2.6118 H   0  0  0  0  0  0  0  0  0  0  0  0
   -3.4825   -1.9581    3.3824 H   0  0  0  0  0  0  0  0  0  0  0  0
   -2.2005   -0.7341    3.4509 H   0  0  0  0  0  0  0  0  0  0  0  0
   -3.0128   -3.1796   -0.4372 N   0  0  0  0  0  0  0  0  0  0  0  0
   -3.9063   -3.7926   -1.4106 C   0  0  0  0  0  0  0  0  0  0  0  0
   -2.0093   -3.1434   -0.6318 H   0  0  0  0  0  0  0  0  0  0  0  0
   -4.6197   -4.4566   -0.9113 H   0  0  0  0  0  0  0  0  0  0  0  0
   -4.4620   -3.0236   -1.9570 H   0  0  0  0  0  0  0  0  0  0  0  0
   -3.3317   -4.3843   -2.1299 H   0  0  0  0  0  0  0  0  0  0  0  0
  1  2  2  0  0  0  0
  1  3  1  0  0  0  0
  1  7  1  0  0  0  0
  3  4  1  0  0  0  0
  3  5  1  0  0  0  0
  3  6  1  0  0  0  0
  7  8  1  0  0  0  0
  7 12  1  0  0  0  0
  8  9  1  0  0  0  0
  8 11  1  0  0  0  0
  8 13  1  0  0  0  0
  9 10  2  0  0  0  0
  9 17  1  0  0  0  0
 11 14  1  0  0  0  0
 11 15  1  0  0  0  0
 11 16  1  0  0  0  0
 17 18  1  0  0  0  0
 17 23  1  0  0  0  0
 18 19  1  0  0  0  0
 18 21  1  0  0  0  0
 18 24  1  0  0  0  0
 19 20  2  0  0  0  0
 19 31  1  0  0  0  0
 21 22  1  0  0  0  0
 21 25  1  0  0  0  0
 21 26  1  0  0  0  0
 22 23  1  0  0  0  0
 22 27  1  0  0  0  0
 22 28  1  0  0  0  0
 23 29  1  0  0  0  0
 23 30  1  0  0  0  0
 31 32  1  0  0  0  0
 31 36  1  0  0  0  0
 32 33  1  0  0  0  0
 32 35  1  0  0  0  0
 32 37  1  0  0  0  0
 33 34  2  0  0  0  0
 33 41  1  0  0  0  0
 35 38  1  0  0  0  0
 35 39  1  0  0  0  0
 35 40  1  0  0  0  0
 41 42  1  0  0  0  0
 41 43  1  0  0  0  0
 42 44  1  0  0  0  0
 42 45  1  0  0  0  0
 42 46  1  0  0  0  0
M  END
$$$$

  -OEChem-05262217223D

 46 46  0     1  0  0  0  0  0999 V2000
   -2.0521    2.7349    3.9887 C   0  0  0  0  0  0  0  0  0  0  0  0
   -2.6041    1.6545    4.1190 O   0  0  0  0  0  0  0  0  0  0  0  0
   -1.9417    3.6837    5.1676 C   0  0  0  0  0  0  0  0  0  0  0  0
   -2.4372    4.6293    4.9334 H   0  0  0  0  0  0  0  0  0  0  0  0
   -2.4171    3.2454    6.0500 H   0  0  0  0  0  0  0  0  0  0  0  0
   -0.8901    3.8774    5.3938 H   0  0  0  0  0  0  0  0  0  0  0  0
   -1.5227    3.0903    2.7667 N   0  0  0  0  0  0  0  0  0  0  0  0
   -1.4583    2.2128    1.5882 C   0  0  2  0  0  0  0  0  0  0  0  0
   -0.3013    2.6063    0.6393 C   0  0  0  0  0  0  0  0  0  0  0  0
    0.1392    3.7442    0.8003 O   0  0  0  0  0  0  0  0  0  0  0  0
   -2.8066    2.3384    0.8616 C   0  0  0  0  0  0  0  0  0  0  0  0
   -1.0007    3.9651    2.7142 H   0  0  0  0  0  0  0  0  0  0  0  0
   -1.2726    1.1984    1.9410 H   0  0  0  0  0  0  0  0  0  0  0  0
   -3.0415    3.3927    0.6821 H   0  0  0  0  0  0  0  0  0  0  0  0
   -2.7871    1.8318   -0.1069 H   0  0  0  0  0  0  0  0  0  0  0  0
   -3.6073    1.9051    1.4697 H   0  0  0  0  0  0  0  0  0  0  0  0
    0.2356    1.8437   -0.4150 N   0  0  0  0  0  0  0  0  0  0  0  0
   -0.0865    0.4971   -0.9552 C   0  0  2  0  0  0  0  0  0  0  0  0
   -0.6597   -0.6996   -0.1338 C   0  0  0  0  0  0  0  0  0  0  0  0
   -0.0941   -1.7879   -0.1416 O   0  0  0  0  0  0  0  0  0  0  0  0
    1.2443    0.0995   -1.6234 C   0  0  0  0  0  0  0  0  0  0  0  0
    1.9765    1.3866   -1.9696 C   0  0  0  0  0  0  0  0  0  0  0  0
    1.1578    2.5032   -1.3476 C   0  0  0  0  0  0  0  0  0  0  0  0
   -0.8262    0.6605   -1.7450 H   0  0  0  0  0  0  0  0  0  0  0  0
    1.0698   -0.5160   -2.5122 H   0  0  0  0  0  0  0  0  0  0  0  0
    1.8709   -0.4729   -0.9300 H   0  0  0  0  0  0  0  0  0  0  0  0
    2.9888    1.3716   -1.5522 H   0  0  0  0  0  0  0  0  0  0  0  0
    2.0513    1.5222   -3.0533 H   0  0  0  0  0  0  0  0  0  0  0  0
    1.8358    3.2081   -0.8530 H   0  0  0  0  0  0  0  0  0  0  0  0
    0.5944    3.0464   -2.1139 H   0  0  0  0  0  0  0  0  0  0  0  0
   -1.8704   -0.6540    0.5334 N   0  0  0  0  0  0  0  0  0  0  0  0
   -2.5095   -1.8131    1.1788 C   0  0  2  0  0  0  0  0  0  0  0  0
   -3.1521   -2.7748    0.1489 C   0  0  0  0  0  0  0  0  0  0  0  0
   -4.3654   -2.8314   -0.0116 O   0  0  0  0  0  0  0  0  0  0  0  0
   -3.5251   -1.2781    2.1951 C   0  0  0  0  0  0  0  0  0  0  0  0
   -2.4272    0.1885    0.4378 H   0  0  0  0  0  0  0  0  0  0  0  0
   -1.7595   -2.3840    1.7366 H   0  0  0  0  0  0  0  0  0  0  0  0
   -4.2889   -0.6698    1.7004 H   0  0  0  0  0  0  0  0  0  0  0  0
   -4.0231   -2.1080    2.7066 H   0  0  0  0  0  0  0  0  0  0  0  0
   -3.0223   -0.6653    2.9484 H   0  0  0  0  0  0  0  0  0  0  0  0
   -2.3334   -3.5522   -0.6459 N   0  0  0  0  0  0  0  0  0  0  0  0
   -2.8215   -4.4085   -1.7183 C   0  0  0  0  0  0  0  0  0  0  0  0
   -1.3320   -3.3542   -0.5797 H   0  0  0  0  0  0  0  0  0  0  0  0
   -3.5414   -5.1365   -1.3299 H   0  0  0  0  0  0  0  0  0  0  0  0
   -3.3087   -3.8093   -2.4941 H   0  0  0  0  0  0  0  0  0  0  0  0
   -1.9904   -4.9563   -2.1725 H   0  0  0  0  0  0  0  0  0  0  0  0
  1  2  2  0  0  0  0
  1  3  1  0  0  0  0
  1  7  1  0  0  0  0
  3  4  1  0  0  0  0
  3  5  1  0  0  0  0
  3  6  1  0  0  0  0
  7  8  1  0  0  0  0
  7 12  1  0  0  0  0
  8  9  1  0  0  0  0
  8 11  1  0  0  0  0
  8 13  1  0  0  0  0
  9 10  2  0  0  0  0
  9 17  1  0  0  0  0
 11 14  1  0  0  0  0
 11 15  1  0  0  0  0
 11 16  1  0  0  0  0
 17 18  1  0  0  0  0
 17 23  1  0  0  0  0
 18 19  1  0  0  0  0
 18 21  1  0  0  0  0
 18 24  1  0  0  0  0
 19 20  2  0  0  0  0
 19 31  1  0  0  0  0
 21 22  1  0  0  0  0
 21 25  1  0  0  0  0
 21 26  1  0  0  0  0
 22 23  1  0  0  0  0
 22 27  1  0  0  0  0
 22 28  1  0  0  0  0
 23 29  1  0  0  0  0
 23 30  1  0  0  0  0
 31 32  1  0  0  0  0
 31 36  1  0  0  0  0
 32 33  1  0  0  0  0
 32 35  1  0  0  0  0
 32 37  1  0  0  0  0
 33 34  2  0  0  0  0
 33 41  1  0  0  0  0
 35 38  1  0  0  0  0
 35 39  1  0  0  0  0
 35 40  1  0  0  0  0
 41 42  1  0  0  0  0
 41 43  1  0  0  0  0
 42 44  1  0  0  0  0
 42 45  1  0  0  0  0
 42 46  1  0  0  0  0
M  END
$$$$

  -OEChem-05262217223D

 46 46  0     1  0  0  0  0  0999 V2000
   -1.9172    2.0467    4.0923 C   0  0  0  0  0  0  0  0  0  0  0  0
   -2.4967    0.9740    4.0287 O   0  0  0  0  0  0  0  0  0  0  0  0
   -1.7313    2.7360    5.4306 C   0  0  0  0  0  0  0  0  0  0  0  0
   -2.2230    3.7119    5.4187 H   0  0  0  0  0  0  0  0  0  0  0  0
   -2.1674    2.1311    6.2306 H   0  0  0  0  0  0  0  0  0  0  0  0
   -0.6665    2.8742    5.6340 H   0  0  0  0  0  0  0  0  0  0  0  0
   -1.4306    2.6357    2.9447 N   0  0  0  0  0  0  0  0  0  0  0  0
   -1.4350    2.0084    1.6153 C   0  0  2  0  0  0  0  0  0  0  0  0
   -0.2545    2.4952    0.7421 C   0  0  0  0  0  0  0  0  0  0  0  0
    0.2229    3.5836    1.0606 O   0  0  0  0  0  0  0  0  0  0  0  0
   -2.7678    2.3770    0.9487 C   0  0  0  0  0  0  0  0  0  0  0  0
   -0.8786    3.4871    3.0479 H   0  0  0  0  0  0  0  0  0  0  0  0
   -1.3344    0.9320    1.7530 H   0  0  0  0  0  0  0  0  0  0  0  0
   -2.8916    3.4648    0.9287 H   0  0  0  0  0  0  0  0  0  0  0  0
   -2.8083    2.0142   -0.0813 H   0  0  0  0  0  0  0  0  0  0  0  0
   -3.6045    1.9450    1.5066 H   0  0  0  0  0  0  0  0  0  0  0  0
    0.2624    1.8673   -0.4047 N   0  0  0  0  0  0  0  0  0  0  0  0
   -0.1228    0.6222   -1.1086 C   0  0  2  0  0  0  0  0  0  0  0  0
   -0.7519   -0.6068   -0.3914 C   0  0  0  0  0  0  0  0  0  0  0  0
   -0.1055   -1.6259   -0.1783 O   0  0  0  0  0  0  0  0  0  0  0  0
    1.1859    0.2402   -1.8258 C   0  0  0  0  0  0  0  0  0  0  0  0
    1.9819    1.5262   -2.0052 C   0  0  0  0  0  0  0  0  0  0  0  0
    1.2187    2.5969   -1.2424 C   0  0  0  0  0  0  0  0  0  0  0  0
   -0.8531    0.9098   -1.8713 H   0  0  0  0  0  0  0  0  0  0  0  0
    0.9818   -0.2459   -2.7854 H   0  0  0  0  0  0  0  0  0  0  0  0
    1.7847   -0.4465   -1.2176 H   0  0  0  0  0  0  0  0  0  0  0  0
    2.9902    1.4071   -1.5948 H   0  0  0  0  0  0  0  0  0  0  0  0
    2.0688    1.7959   -3.0624 H   0  0  0  0  0  0  0  0  0  0  0  0
    1.9261    3.1961   -0.6577 H   0  0  0  0  0  0  0  0  0  0  0  0
    0.6873    3.2632   -1.9304 H   0  0  0  0  0  0  0  0  0  0  0  0
   -2.0739   -0.6069    0.0191 N   0  0  0  0  0  0  0  0  0  0  0  0
   -2.7449   -1.7469    0.6660 C   0  0  2  0  0  0  0  0  0  0  0  0
   -3.0835   -2.8794   -0.3352 C   0  0  0  0  0  0  0  0  0  0  0  0
   -4.2326   -3.0949   -0.7023 O   0  0  0  0  0  0  0  0  0  0  0  0
   -3.9893   -1.2073    1.3812 C   0  0  0  0  0  0  0  0  0  0  0  0
   -2.6485    0.1860   -0.2478 H   0  0  0  0  0  0  0  0  0  0  0  0
   -2.0864   -2.1725    1.4308 H   0  0  0  0  0  0  0  0  0  0  0  0
   -4.6765   -0.7427    0.6673 H   0  0  0  0  0  0  0  0  0  0  0  0
   -4.5165   -2.0212    1.8889 H   0  0  0  0  0  0  0  0  0  0  0  0
   -3.7067   -0.4646    2.1318 H   0  0  0  0  0  0  0  0  0  0  0  0
   -2.0579   -3.6412   -0.8587 N   0  0  0  0  0  0  0  0  0  0  0  0
   -2.2449   -4.6760   -1.8661 C   0  0  0  0  0  0  0  0  0  0  0  0
   -1.1107   -3.3291   -0.6296 H   0  0  0  0  0  0  0  0  0  0  0  0
   -2.9466   -5.4365   -1.5073 H   0  0  0  0  0  0  0  0  0  0  0  0
   -2.6360   -4.2429   -2.7924 H   0  0  0  0  0  0  0  0  0  0  0  0
   -1.2906   -5.1643   -2.0854 H   0  0  0  0  0  0  0  0  0  0  0  0
  1  2  2  0  0  0  0
  1  3  1  0  0  0  0
  1  7  1  0  0  0  0
  3  4  1  0  0  0  0
  3  5  1  0  0  0  0
  3  6  1  0  0  0  0
  7  8  1  0  0  0  0
  7 12  1  0  0  0  0
  8  9  1  0  0  0  0
  8 11  1  0  0  0  0
  8 13  1  0  0  0  0
  9 10  2  0  0  0  0
  9 17  1  0  0  0  0
 11 14  1  0  0  0  0
 11 15  1  0  0  0  0
 11 16  1  0  0  0  0
 17 18  1  0  0  0  0
 17 23  1  0  0  0  0
 18 19  1  0  0  0  0
 18 21  1  0  0  0  0
 18 24  1  0  0  0  0
 19 20  2  0  0  0  0
 19 31  1  0  0  0  0
 21 22  1  0  0  0  0
 21 25  1  0  0  0  0
 21 26  1  0  0  0  0
 22 23  1  0  0  0  0
 22 27  1  0  0  0  0
 22 28  1  0  0  0  0
 23 29  1  0  0  0  0
 23 30  1  0  0  0  0
 31 32  1  0  0  0  0
 31 36  1  0  0  0  0
 32 33  1  0  0  0  0
 32 35  1  0  0  0  0
 32 37  1  0  0  0  0
 33 34  2  0  0  0  0
 33 41  1  0  0  0  0
 35 38  1  0  0  0  0
 35 39  1  0  0  0  0
 35 40  1  0  0  0  0
 41 42  1  0  0  0  0
 41 43  1  0  0  0  0
 42 44  1  0  0  0  0
 42 45  1  0  0  0  0
 42 46  1  0  0  0  0
M  END
$$$$

  -OEChem-05262217223D

 46 46  0     1  0  0  0  0  0999 V2000
   -2.0711    1.6705    3.9492 C   0  0  0  0  0  0  0  0  0  0  0  0
   -2.6781    0.6288    3.7514 O   0  0  0  0  0  0  0  0  0  0  0  0
   -1.9369    2.2184    5.3575 C   0  0  0  0  0  0  0  0  0  0  0  0
   -2.3325    3.2360    5.4032 H   0  0  0  0  0  0  0  0  0  0  0  0
   -2.4942    1.5923    6.0601 H   0  0  0  0  0  0  0  0  0  0  0  0
   -0.8851    2.2300    5.6537 H   0  0  0  0  0  0  0  0  0  0  0  0
   -1.5055    2.3490    2.8900 N   0  0  0  0  0  0  0  0  0  0  0  0
   -1.4822    1.8538    1.5073 C   0  0  2  0  0  0  0  0  0  0  0  0
   -0.3245    2.4643    0.6798 C   0  0  0  0  0  0  0  0  0  0  0  0
    0.1042    3.5477    1.0734 O   0  0  0  0  0  0  0  0  0  0  0  0
   -2.8225    2.2319    0.8607 C   0  0  0  0  0  0  0  0  0  0  0  0
   -0.9561    3.1835    3.0939 H   0  0  0  0  0  0  0  0  0  0  0  0
   -1.3536    0.7731    1.5488 H   0  0  0  0  0  0  0  0  0  0  0  0
   -2.9664    3.3167    0.8970 H   0  0  0  0  0  0  0  0  0  0  0  0
   -2.8560    1.9179   -0.1855 H   0  0  0  0  0  0  0  0  0  0  0  0
   -3.6519    1.7576    1.3935 H   0  0  0  0  0  0  0  0  0  0  0  0
    0.2229    1.9354   -0.5007 N   0  0  0  0  0  0  0  0  0  0  0  0
   -0.1211    0.7146   -1.2557 C   0  0  2  0  0  0  0  0  0  0  0  0
   -0.6863   -0.5360   -0.5336 C   0  0  0  0  0  0  0  0  0  0  0  0
    0.0559   -1.3829   -0.0511 O   0  0  0  0  0  0  0  0  0  0  0  0
    1.1945    0.3998   -1.9881 C   0  0  0  0  0  0  0  0  0  0  0  0
    1.9492    1.7205   -2.1084 C   0  0  0  0  0  0  0  0  0  0  0  0
    1.1547    2.7351   -1.2972 C   0  0  0  0  0  0  0  0  0  0  0  0
   -0.8686    0.9969   -2.0033 H   0  0  0  0  0  0  0  0  0  0  0  0
    1.0014   -0.0450   -2.9696 H   0  0  0  0  0  0  0  0  0  0  0  0
    1.8127   -0.2998   -1.4154 H   0  0  0  0  0  0  0  0  0  0  0  0
    2.9621    1.6145   -1.7062 H   0  0  0  0  0  0  0  0  0  0  0  0
    2.0249    2.0406   -3.1524 H   0  0  0  0  0  0  0  0  0  0  0  0
    1.8406    3.3250   -0.6789 H   0  0  0  0  0  0  0  0  0  0  0  0
    0.6040    3.4176   -1.9532 H   0  0  0  0  0  0  0  0  0  0  0  0
   -2.0499   -0.7077   -0.3613 N   0  0  0  0  0  0  0  0  0  0  0  0
   -2.6498   -1.8405    0.3643 C   0  0  2  0  0  0  0  0  0  0  0  0
   -2.6526   -3.1379   -0.4799 C   0  0  0  0  0  0  0  0  0  0  0  0
   -3.6799   -3.5820   -0.9788 O   0  0  0  0  0  0  0  0  0  0  0  0
   -4.0555   -1.4265    0.8142 C   0  0  0  0  0  0  0  0  0  0  0  0
   -2.6744   -0.0521   -0.8212 H   0  0  0  0  0  0  0  0  0  0  0  0
   -2.0689   -2.0442    1.2708 H   0  0  0  0  0  0  0  0  0  0  0  0
   -4.6761   -1.1565   -0.0460 H   0  0  0  0  0  0  0  0  0  0  0  0
   -4.5399   -2.2526    1.3445 H   0  0  0  0  0  0  0  0  0  0  0  0
   -4.0015   -0.5725    1.4949 H   0  0  0  0  0  0  0  0  0  0  0  0
   -1.4551   -3.7838   -0.7150 N   0  0  0  0  0  0  0  0  0  0  0  0
   -1.3168   -4.9556   -1.5684 C   0  0  0  0  0  0  0  0  0  0  0  0
   -0.6153   -3.2972   -0.3922 H   0  0  0  0  0  0  0  0  0  0  0  0
   -1.9655   -5.7648   -1.2166 H   0  0  0  0  0  0  0  0  0  0  0  0
   -1.5850   -4.7115   -2.6014 H   0  0  0  0  0  0  0  0  0  0  0  0
   -0.2825   -5.3124   -1.5523 H   0  0  0  0  0  0  0  0  0  0  0  0
  1  2  2  0  0  0  0
  1  3  1  0  0  0  0
  1  7  1  0  0  0  0
  3  4  1  0  0  0  0
  3  5  1  0  0  0  0
  3  6  1  0  0  0  0
  7  8  1  0  0  0  0
  7 12  1  0  0  0  0
  8  9  1  0  0  0  0
  8 11  1  0  0  0  0
  8 13  1  0  0  0  0
  9 10  2  0  0  0  0
  9 17  1  0  0  0  0
 11 14  1  0  0  0  0
 11 15  1  0  0  0  0
 11 16  1  0  0  0  0
 17 18  1  0  0  0  0
 17 23  1  0  0  0  0
 18 19  1  0  0  0  0
 18 21  1  0  0  0  0
 18 24  1  0  0  0  0
 19 20  2  0  0  0  0
 19 31  1  0  0  0  0
 21 22  1  0  0  0  0
 21 25  1  0  0  0  0
 21 26  1  0  0  0  0
 22 23  1  0  0  0  0
 22 27  1  0  0  0  0
 22 28  1  0  0  0  0
 23 29  1  0  0  0  0
 23 30  1  0  0  0  0
 31 32  1  0  0  0  0
 31 36  1  0  0  0  0
 32 33  1  0  0  0  0
 32 35  1  0  0  0  0
 32 37  1  0  0  0  0
 33 34  2  0  0  0  0
 33 41  1  0  0  0  0
 35 38  1  0  0  0  0
 35 39  1  0  0  0  0
 35 40  1  0  0  0  0
 41 42  1  0  0  0  0
 41 43  1  0  0  0  0
 42 44  1  0  0  0  0
 42 45  1  0  0  0  0
 42 46  1  0  0  0  0
M  END
$$$$

  -OEChem-05262217223D

 46 46  0     1  0  0  0  0  0999 V2000
   -2.3538    1.4619    3.7872 C   0  0  0  0  0  0  0  0  0  0  0  0
   -2.8763    0.3863    3.5361 O   0  0  0  0  0  0  0  0  0  0  0  0
   -2.3454    1.9910    5.2087 C   0  0  0  0  0  0  0  0  0  0  0  0
   -2.8203    2.9742    5.2442 H   0  0  0  0  0  0  0  0  0  0  0  0
   -2.8927    1.3103    5.8667 H   0  0  0  0  0  0  0  0  0  0  0  0
   -1.3169    2.0771    5.5673 H   0  0  0  0  0  0  0  0  0  0  0  0
   -1.7673    2.1961    2.7775 N   0  0  0  0  0  0  0  0  0  0  0  0
   -1.5960    1.7157    1.4003 C   0  0  2  0  0  0  0  0  0  0  0  0
   -0.4371    2.4369    0.6632 C   0  0  0  0  0  0  0  0  0  0  0  0
   -0.0997    3.5297    1.1159 O   0  0  0  0  0  0  0  0  0  0  0  0
   -2.9120    1.9689    0.6523 C   0  0  0  0  0  0  0  0  0  0  0  0
   -1.2770    3.0530    3.0329 H   0  0  0  0  0  0  0  0  0  0  0  0
   -1.3783    0.6492    1.4516 H   0  0  0  0  0  0  0  0  0  0  0  0
   -3.1558    3.0361    0.6661 H   0  0  0  0  0  0  0  0  0  0  0  0
   -2.8376    1.6480   -0.3893 H   0  0  0  0  0  0  0  0  0  0  0  0
   -3.7323    1.4210    1.1255 H   0  0  0  0  0  0  0  0  0  0  0  0
    0.2073    1.9872   -0.5008 N   0  0  0  0  0  0  0  0  0  0  0  0
   -0.0288    0.7700   -1.2957 C   0  0  2  0  0  0  0  0  0  0  0  0
   -0.5492   -0.5039   -0.5908 C   0  0  0  0  0  0  0  0  0  0  0  0
    0.1744   -1.1473    0.1597 O   0  0  0  0  0  0  0  0  0  0  0  0
    1.3445    0.5242   -1.9381 C   0  0  0  0  0  0  0  0  0  0  0  0
    2.0460    1.8802   -1.9822 C   0  0  0  0  0  0  0  0  0  0  0  0
    1.1532    2.8460   -1.2119 C   0  0  0  0  0  0  0  0  0  0  0  0
   -0.7465    1.0189   -2.0830 H   0  0  0  0  0  0  0  0  0  0  0  0
    1.2388    0.0930   -2.9387 H   0  0  0  0  0  0  0  0  0  0  0  0
    1.9467   -0.1637   -1.3346 H   0  0  0  0  0  0  0  0  0  0  0  0
    3.0307    1.8100   -1.5084 H   0  0  0  0  0  0  0  0  0  0  0  0
    2.1824    2.2231   -3.0126 H   0  0  0  0  0  0  0  0  0  0  0  0
    1.7640    3.4518   -0.5334 H   0  0  0  0  0  0  0  0  0  0  0  0
    0.6204    3.5181   -1.8928 H   0  0  0  0  0  0  0  0  0  0  0  0
   -1.8663   -0.9060   -0.7286 N   0  0  0  0  0  0  0  0  0  0  0  0
   -2.4578   -2.0404    0.0003 C   0  0  2  0  0  0  0  0  0  0  0  0
   -2.0584   -3.4036   -0.6159 C   0  0  0  0  0  0  0  0  0  0  0  0
   -2.8637   -4.0969   -1.2260 O   0  0  0  0  0  0  0  0  0  0  0  0
   -3.9764   -1.8327    0.0402 C   0  0  0  0  0  0  0  0  0  0  0  0
   -2.4525   -0.4037   -1.3885 H   0  0  0  0  0  0  0  0  0  0  0  0
   -2.1023   -2.0357    1.0371 H   0  0  0  0  0  0  0  0  0  0  0  0
   -4.3925   -1.8153   -0.9723 H   0  0  0  0  0  0  0  0  0  0  0  0
   -4.4527   -2.6471    0.5959 H   0  0  0  0  0  0  0  0  0  0  0  0
   -4.2207   -0.8907    0.5394 H   0  0  0  0  0  0  0  0  0  0  0  0
   -0.7479   -3.8270   -0.5161 N   0  0  0  0  0  0  0  0  0  0  0  0
   -0.2396   -5.0475   -1.1272 C   0  0  0  0  0  0  0  0  0  0  0  0
   -0.0925   -3.1636   -0.0955 H   0  0  0  0  0  0  0  0  0  0  0  0
   -0.7847   -5.9193   -0.7504 H   0  0  0  0  0  0  0  0  0  0  0  0
   -0.3505   -5.0052   -2.2156 H   0  0  0  0  0  0  0  0  0  0  0  0
    0.8209   -5.1753   -0.8903 H   0  0  0  0  0  0  0  0  0  0  0  0
  1  2  2  0  0  0  0
  1  3  1  0  0  0  0
  1  7  1  0  0  0  0
  3  4  1  0  0  0  0
  3  5  1  0  0  0  0
  3  6  1  0  0  0  0
  7  8  1  0  0  0  0
  7 12  1  0  0  0  0
  8  9  1  0  0  0  0
  8 11  1  0  0  0  0
  8 13  1  0  0  0  0
  9 10  2  0  0  0  0
  9 17  1  0  0  0  0
 11 14  1  0  0  0  0
 11 15  1  0  0  0  0
 11 16  1  0  0  0  0
 17 18  1  0  0  0  0
 17 23  1  0  0  0  0
 18 19  1  0  0  0  0
 18 21  1  0  0  0  0
 18 24  1  0  0  0  0
 19 20  2  0  0  0  0
 19 31  1  0  0  0  0
 21 22  1  0  0  0  0
 21 25  1  0  0  0  0
 21 26  1  0  0  0  0
 22 23  1  0  0  0  0
 22 27  1  0  0  0  0
 22 28  1  0  0  0  0
 23 29  1  0  0  0  0
 23 30  1  0  0  0  0
 31 32  1  0  0  0  0
 31 36  1  0  0  0  0
 32 33  1  0  0  0  0
 32 35  1  0  0  0  0
 32 37  1  0  0  0  0
 33 34  2  0  0  0  0
 33 41  1  0  0  0  0
 35 38  1  0  0  0  0
 35 39  1  0  0  0  0
 35 40  1  0  0  0  0
 41 42  1  0  0  0  0
 41 43  1  0  0  0  0
 42 44  1  0  0  0  0
 42 45  1  0  0  0  0
 42 46  1  0  0  0  0
M  END
$$$$

  -OEChem-05262217223D

 46 46  0     1  0  0  0  0  0999 V2000
   -2.4060    1.3216    3.7842 C   0  0  0  0  0  0  0  0  0  0  0  0
   -2.8405    0.2059    3.5420 O   0  0  0  0  0  0  0  0  0  0  0  0
   -2.5028    1.8860    5.1886 C   0  0  0  0  0  0  0  0  0  0  0  0
   -3.0752    2.8166    5.1781 H   0  0  0  0  0  0  0  0  0  0  0  0
   -3.0031    1.1714    5.8479 H   0  0  0  0  0  0  0  0  0  0  0  0
   -1.5023    2.0851    5.5800 H   0  0  0  0  0  0  0  0  0  0  0  0
   -1.8306    2.0733    2.7812 N   0  0  0  0  0  0  0  0  0  0  0  0
   -1.5624    1.5777    1.4245 C   0  0  2  0  0  0  0  0  0  0  0  0
   -0.4367    2.3803    0.7157 C   0  0  0  0  0  0  0  0  0  0  0  0
   -0.1484    3.4709    1.2060 O   0  0  0  0  0  0  0  0  0  0  0  0
   -2.8692    1.6884    0.6262 C   0  0  0  0  0  0  0  0  0  0  0  0
   -1.4094    2.9660    3.0369 H   0  0  0  0  0  0  0  0  0  0  0  0
   -1.2537    0.5359    1.5116 H   0  0  0  0  0  0  0  0  0  0  0  0
   -3.2240    2.7240    0.6229 H   0  0  0  0  0  0  0  0  0  0  0  0
   -2.7268    1.3716   -0.4091 H   0  0  0  0  0  0  0  0  0  0  0  0
   -3.6434    1.0576    1.0741 H   0  0  0  0  0  0  0  0  0  0  0  0
    0.2207    2.0082   -0.4688 N   0  0  0  0  0  0  0  0  0  0  0  0
    0.0234    0.8145   -1.3056 C   0  0  2  0  0  0  0  0  0  0  0  0
   -0.4413   -0.4975   -0.6377 C   0  0  0  0  0  0  0  0  0  0  0  0
    0.2382   -1.0311    0.2308 O   0  0  0  0  0  0  0  0  0  0  0  0
    1.4036    0.6314   -1.9498 C   0  0  0  0  0  0  0  0  0  0  0  0
    2.0644    2.0092   -1.9433 C   0  0  0  0  0  0  0  0  0  0  0  0
    1.1406    2.9215   -1.1434 C   0  0  0  0  0  0  0  0  0  0  0  0
   -0.7048    1.0664   -2.0824 H   0  0  0  0  0  0  0  0  0  0  0  0
    1.3146    0.2333   -2.9655 H   0  0  0  0  0  0  0  0  0  0  0  0
    2.0200   -0.0614   -1.3660 H   0  0  0  0  0  0  0  0  0  0  0  0
    3.0493    1.9516   -1.4687 H   0  0  0  0  0  0  0  0  0  0  0  0
    2.1937    2.3920   -2.9605 H   0  0  0  0  0  0  0  0  0  0  0  0
    1.7293    3.5225   -0.4410 H   0  0  0  0  0  0  0  0  0  0  0  0
    0.5889    3.5988   -1.8039 H   0  0  0  0  0  0  0  0  0  0  0  0
   -1.6275   -1.1024   -1.0117 N   0  0  0  0  0  0  0  0  0  0  0  0
   -2.2015   -2.2721   -0.3268 C   0  0  2  0  0  0  0  0  0  0  0  0
   -1.5420   -3.6000   -0.7734 C   0  0  0  0  0  0  0  0  0  0  0  0
   -2.1643   -4.4534   -1.3946 O   0  0  0  0  0  0  0  0  0  0  0  0
   -3.7160   -2.2474   -0.5654 C   0  0  0  0  0  0  0  0  0  0  0  0
   -2.1576   -0.6839   -1.7706 H   0  0  0  0  0  0  0  0  0  0  0  0
   -2.0402   -2.1792    0.7535 H   0  0  0  0  0  0  0  0  0  0  0  0
   -3.9420   -2.3395   -1.6325 H   0  0  0  0  0  0  0  0  0  0  0  0
   -4.1939   -3.0793   -0.0380 H   0  0  0  0  0  0  0  0  0  0  0  0
   -4.1472   -1.3133   -0.1927 H   0  0  0  0  0  0  0  0  0  0  0  0
   -0.2064   -3.8112   -0.4943 N   0  0  0  0  0  0  0  0  0  0  0  0
    0.5358   -4.9976   -0.8971 C   0  0  0  0  0  0  0  0  0  0  0  0
    0.2841   -3.0429   -0.0297 H   0  0  0  0  0  0  0  0  0  0  0  0
    0.1198   -5.8896   -0.4175 H   0  0  0  0  0  0  0  0  0  0  0  0
    0.4917   -5.1270   -1.9833 H   0  0  0  0  0  0  0  0  0  0  0  0
    1.5853   -4.9028   -0.6021 H   0  0  0  0  0  0  0  0  0  0  0  0
  1  2  2  0  0  0  0
  1  3  1  0  0  0  0
  1  7  1  0  0  0  0
  3  4  1  0  0  0  0
  3  5  1  0  0  0  0
  3  6  1  0  0  0  0
  7  8  1  0  0  0  0
  7 12  1  0  0  0  0
  8  9  1  0  0  0  0
  8 11  1  0  0  0  0
  8 13  1  0  0  0  0
  9 10  2  0  0  0  0
  9 17  1  0  0  0  0
 11 14  1  0  0  0  0
 11 15  1  0  0  0  0
 11 16  1  0  0  0  0
 17 18  1  0  0  0  0
 17 23  1  0  0  0  0
 18 19  1  0  0  0  0
 18 21  1  0  0  0  0
 18 24  1  0  0  0  0
 19 20  2  0  0  0  0
 19 31  1  0  0  0  0
 21 22  1  0  0  0  0
 21 25  1  0  0  0  0
 21 26  1  0  0  0  0
 22 23  1  0  0  0  0
 22 27  1  0  0  0  0
 22 28  1  0  0  0  0
 23 29  1  0  0  0  0
 23 30  1  0  0  0  0
 31 32  1  0  0  0  0
 31 36  1  0  0  0  0
 32 33  1  0  0  0  0
 32 35  1  0  0  0  0
 32 37  1  0  0  0  0
 33 34  2  0  0  0  0
 33 41  1  0  0  0  0
 35 38  1  0  0  0  0
 35 39  1  0  0  0  0
 35 40  1  0  0  0  0
 41 42  1  0  0  0  0
 41 43  1  0  0  0  0
 42 44  1  0  0  0  0
 42 45  1  0  0  0  0
 42 46  1  0  0  0  0
M  END
$$$$

  -OEChem-05262217223D

 46 46  0     1  0  0  0  0  0999 V2000
   -2.4998    1.3666    3.8322 C   0  0  0  0  0  0  0  0  0  0  0  0
   -2.8982    0.2288    3.6366 O   0  0  0  0  0  0  0  0  0  0  0  0
   -2.6427    1.9959    5.2054 C   0  0  0  0  0  0  0  0  0  0  0  0
   -3.2611    2.8945    5.1413 H   0  0  0  0  0  0  0  0  0  0  0  0
   -3.1147    1.2913    5.8961 H   0  0  0  0  0  0  0  0  0  0  0  0
   -1.6585    2.2659    5.5959 H   0  0  0  0  0  0  0  0  0  0  0  0
   -1.9242    2.0867    2.8066 N   0  0  0  0  0  0  0  0  0  0  0  0
   -1.5886    1.5356    1.4856 C   0  0  2  0  0  0  0  0  0  0  0  0
   -0.4640    2.3535    0.7889 C   0  0  0  0  0  0  0  0  0  0  0  0
   -0.2002    3.4501    1.2810 O   0  0  0  0  0  0  0  0  0  0  0  0
   -2.8688    1.5529    0.6375 C   0  0  0  0  0  0  0  0  0  0  0  0
   -1.5241    2.9964    3.0353 H   0  0  0  0  0  0  0  0  0  0  0  0
   -1.2455    0.5116    1.6325 H   0  0  0  0  0  0  0  0  0  0  0  0
   -3.2515    2.5749    0.5514 H   0  0  0  0  0  0  0  0  0  0  0  0
   -2.6826    1.1690   -0.3677 H   0  0  0  0  0  0  0  0  0  0  0  0
   -3.6408    0.9310    1.1015 H   0  0  0  0  0  0  0  0  0  0  0  0
    0.2192    1.9962   -0.3861 N   0  0  0  0  0  0  0  0  0  0  0  0
    0.0584    0.8022   -1.2300 C   0  0  2  0  0  0  0  0  0  0  0  0
   -0.3911   -0.5268   -0.5872 C   0  0  0  0  0  0  0  0  0  0  0  0
    0.2037   -0.9843    0.3810 O   0  0  0  0  0  0  0  0  0  0  0  0
    1.4554    0.6407   -1.8414 C   0  0  0  0  0  0  0  0  0  0  0  0
    2.0971    2.0271   -1.8167 C   0  0  0  0  0  0  0  0  0  0  0  0
    1.1420    2.9239   -1.0370 C   0  0  0  0  0  0  0  0  0  0  0  0
   -0.6574    1.0472   -2.0203 H   0  0  0  0  0  0  0  0  0  0  0  0
    1.3974    0.2428   -2.8597 H   0  0  0  0  0  0  0  0  0  0  0  0
    2.0651   -0.0450   -1.2423 H   0  0  0  0  0  0  0  0  0  0  0  0
    3.0715    1.9822   -1.3193 H   0  0  0  0  0  0  0  0  0  0  0  0
    2.2442    2.4142   -2.8297 H   0  0  0  0  0  0  0  0  0  0  0  0
    1.7063    3.5303   -0.3196 H   0  0  0  0  0  0  0  0  0  0  0  0
    0.5970    3.5967   -1.7075 H   0  0  0  0  0  0  0  0  0  0  0  0
   -1.3688   -1.3016   -1.1834 N   0  0  0  0  0  0  0  0  0  0  0  0
   -1.8544   -2.5764   -0.6322 C   0  0  2  0  0  0  0  0  0  0  0  0
   -0.9165   -3.7607   -0.9722 C   0  0  0  0  0  0  0  0  0  0  0  0
   -1.2707   -4.6720   -1.7104 O   0  0  0  0  0  0  0  0  0  0  0  0
   -3.2864   -2.7792   -1.1418 C   0  0  0  0  0  0  0  0  0  0  0  0
   -1.7719   -0.9724   -2.0560 H   0  0  0  0  0  0  0  0  0  0  0  0
   -1.9027   -2.5080    0.4603 H   0  0  0  0  0  0  0  0  0  0  0  0
   -3.3019   -2.8527   -2.2339 H   0  0  0  0  0  0  0  0  0  0  0  0
   -3.7073   -3.7011   -0.7277 H   0  0  0  0  0  0  0  0  0  0  0  0
   -3.9229   -1.9431   -0.8359 H   0  0  0  0  0  0  0  0  0  0  0  0
    0.3628   -3.7737   -0.4528 N   0  0  0  0  0  0  0  0  0  0  0  0
    1.3442   -4.8145   -0.7245 C   0  0  0  0  0  0  0  0  0  0  0  0
    0.6327   -2.9586    0.1036 H   0  0  0  0  0  0  0  0  0  0  0  0
    0.9685   -5.7895   -0.3965 H   0  0  0  0  0  0  0  0  0  0  0  0
    1.5658   -4.8635   -1.7957 H   0  0  0  0  0  0  0  0  0  0  0  0
    2.2739   -4.6049   -0.1869 H   0  0  0  0  0  0  0  0  0  0  0  0
  1  2  2  0  0  0  0
  1  3  1  0  0  0  0
  1  7  1  0  0  0  0
  3  4  1  0  0  0  0
  3  5  1  0  0  0  0
  3  6  1  0  0  0  0
  7  8  1  0  0  0  0
  7 12  1  0  0  0  0
  8  9  1  0  0  0  0
  8 11  1  0  0  0  0
  8 13  1  0  0  0  0
  9 10  2  0  0  0  0
  9 17  1  0  0  0  0
 11 14  1  0  0  0  0
 11 15  1  0  0  0  0
 11 16  1  0  0  0  0
 17 18  1  0  0  0  0
 17 23  1  0  0  0  0
 18 19  1  0  0  0  0
 18 21  1  0  0  0  0
 18 24  1  0  0  0  0
 19 20  2  0  0  0  0
 19 31  1  0  0  0  0
 21 22  1  0  0  0  0
 21 25  1  0  0  0  0
 21 26  1  0  0  0  0
 22 23  1  0  0  0  0
 22 27  1  0  0  0  0
 22 28  1  0  0  0  0
 23 29  1  0  0  0  0
 23 30  1  0  0  0  0
 31 32  1  0  0  0  0
 31 36  1  0  0  0  0
 32 33  1  0  0  0  0
 32 35  1  0  0  0  0
 32 37  1  0  0  0  0
 33 34  2  0  0  0  0
 33 41  1  0  0  0  0
 35 38  1  0  0  0  0
 35 39  1  0  0  0  0
 35 40  1  0  0  0  0
 41 42  1  0  0  0  0
 41 43  1  0  0  0  0
 42 44  1  0  0  0  0
 42 45  1  0  0  0  0
 42 46  1  0  0  0  0
M  END
$$$$

  -OEChem-05262217223D

 46 46  0     1  0  0  0  0  0999 V2000
   -2.7274    1.4028    3.1997 C   0  0  0  0  0  0  0  0  0  0  0  0
   -3.7511    2.0529    3.3404 O   0  0  0  0  0  0  0  0  0  0  0  0
   -2.3783    0.3101    4.1925 C   0  0  0  0  0  0  0  0  0  0  0  0
   -3.1818    0.1938    4.9250 H   0  0  0  0  0  0  0  0  0  0  0  0
   -2.2376   -0.6384    3.6683 H   0  0  0  0  0  0  0  0  0  0  0  0
   -1.4549    0.5670    4.7175 H   0  0  0  0  0  0  0  0  0  0  0  0
   -1.8956    1.6258    2.1243 N   0  0  0  0  0  0  0  0  0  0  0  0
   -2.1230    2.6193    1.0701 C   0  0  2  0  0  0  0  0  0  0  0  0
   -0.8404    3.1210    0.3493 C   0  0  0  0  0  0  0  0  0  0  0  0
   -0.6056    4.3170    0.4904 O   0  0  0  0  0  0  0  0  0  0  0  0
   -3.1800    2.1210    0.0748 C   0  0  0  0  0  0  0  0  0  0  0  0
   -1.0931    0.9987    2.0346 H   0  0  0  0  0  0  0  0  0  0  0  0
   -2.5474    3.5061    1.5564 H   0  0  0  0  0  0  0  0  0  0  0  0
   -3.3592    2.8801   -0.6931 H   0  0  0  0  0  0  0  0  0  0  0  0
   -2.8726    1.1972   -0.4160 H   0  0  0  0  0  0  0  0  0  0  0  0
   -4.1247    1.9330    0.5944 H   0  0  0  0  0  0  0  0  0  0  0  0
    0.0214    2.4090   -0.5098 N   0  0  0  0  0  0  0  0  0  0  0  0
   -0.0115    1.0117   -0.9820 C   0  0  2  0  0  0  0  0  0  0  0  0
   -0.6001   -0.1388   -0.1389 C   0  0  0  0  0  0  0  0  0  0  0  0
   -0.2740   -0.2817    1.0349 O   0  0  0  0  0  0  0  0  0  0  0  0
    1.4672    0.7085   -1.2526 C   0  0  0  0  0  0  0  0  0  0  0  0
    2.1387    2.0509   -1.5209 C   0  0  0  0  0  0  0  0  0  0  0  0
    1.0861    3.1129   -1.2289 C   0  0  0  0  0  0  0  0  0  0  0  0
   -0.5566    1.0156   -1.9306 H   0  0  0  0  0  0  0  0  0  0  0  0
    1.5815    0.0238   -2.0998 H   0  0  0  0  0  0  0  0  0  0  0  0
    1.9339    0.2432   -0.3769 H   0  0  0  0  0  0  0  0  0  0  0  0
    3.0042    2.1775   -0.8622 H   0  0  0  0  0  0  0  0  0  0  0  0
    2.4805    2.1240   -2.5581 H   0  0  0  0  0  0  0  0  0  0  0  0
    1.5376    3.9178   -0.6380 H   0  0  0  0  0  0  0  0  0  0  0  0
    0.6944    3.5422   -2.1570 H   0  0  0  0  0  0  0  0  0  0  0  0
   -1.1722   -1.2160   -0.7918 N   0  0  0  0  0  0  0  0  0  0  0  0
   -1.1395   -2.5737   -0.2292 C   0  0  2  0  0  0  0  0  0  0  0  0
    0.1879   -3.2860   -0.5719 C   0  0  0  0  0  0  0  0  0  0  0  0
    0.7844   -2.9996   -1.6053 O   0  0  0  0  0  0  0  0  0  0  0  0
   -2.3271   -3.3491   -0.8022 C   0  0  0  0  0  0  0  0  0  0  0  0
   -1.1274   -1.1674   -1.8071 H   0  0  0  0  0  0  0  0  0  0  0  0
   -1.2473   -2.5415    0.8602 H   0  0  0  0  0  0  0  0  0  0  0  0
   -2.2511   -3.4187   -1.8921 H   0  0  0  0  0  0  0  0  0  0  0  0
   -2.3542   -4.3631   -0.3913 H   0  0  0  0  0  0  0  0  0  0  0  0
   -3.2664   -2.8481   -0.5483 H   0  0  0  0  0  0  0  0  0  0  0  0
    0.7042   -4.2563    0.2661 N   0  0  0  0  0  0  0  0  0  0  0  0
    1.9860   -4.9100    0.0303 C   0  0  0  0  0  0  0  0  0  0  0  0
    0.2355   -4.4055    1.1548 H   0  0  0  0  0  0  0  0  0  0  0  0
    1.9972   -5.3910   -0.9533 H   0  0  0  0  0  0  0  0  0  0  0  0
    2.8018   -4.1806    0.0747 H   0  0  0  0  0  0  0  0  0  0  0  0
    2.1646   -5.6777    0.7893 H   0  0  0  0  0  0  0  0  0  0  0  0
  1  2  2  0  0  0  0
  1  3  1  0  0  0  0
  1  7  1  0  0  0  0
  3  4  1  0  0  0  0
  3  5  1  0  0  0  0
  3  6  1  0  0  0  0
  7  8  1  0  0  0  0
  7 12  1  0  0  0  0
  8  9  1  0  0  0  0
  8 11  1  0  0  0  0
  8 13  1  0  0  0  0
  9 10  2  0  0  0  0
  9 17  1  0  0  0  0
 11 14  1  0  0  0  0
 11 15  1  0  0  0  0
 11 16  1  0  0  0  0
 17 18  1  0  0  0  0
 17 23  1  0  0  0  0
 18 19  1  0  0  0  0
 18 21  1  0  0  0  0
 18 24  1  0  0  0  0
 19 20  2  0  0  0  0
 19 31  1  0  0  0  0
 21 22  1  0  0  0  0
 21 25  1  0  0  0  0
 21 26  1  0  0  0  0
 22 23  1  0  0  0  0
 22 27  1  0  0  0  0
 22 28  1  0  0  0  0
 23 29  1  0  0  0  0
 23 30  1  0  0  0  0
 31 32  1  0  0  0  0
 31 36  1  0  0  0  0
 32 33  1  0  0  0  0
 32 35  1  0  0  0  0
 32 37  1  0  0  0  0
 33 34  2  0  0  0  0
 33 41  1  0  0  0  0
 35 38  1  0  0  0  0
 35 39  1  0  0  0  0
 35 40  1  0  0  0  0
 41 42  1  0  0  0  0
 41 43  1  0  0  0  0
 42 44  1  0  0  0  0
 42 45  1  0  0  0  0
 42 46  1  0  0  0  0
M  END
$$$$

  -OEChem-05262217223D

 46 46  0     1  0  0  0  0  0999 V2000
   -2.9402    1.3863    3.1601 C   0  0  0  0  0  0  0  0  0  0  0  0
   -3.9647    2.0462    3.2356 O   0  0  0  0  0  0  0  0  0  0  0  0
   -2.6642    0.2947    4.1766 C   0  0  0  0  0  0  0  0  0  0  0  0
   -3.5029    0.2056    4.8726 H   0  0  0  0  0  0  0  0  0  0  0  0
   -2.5242   -0.6620    3.6671 H   0  0  0  0  0  0  0  0  0  0  0  0
   -1.7597    0.5340    4.7410 H   0  0  0  0  0  0  0  0  0  0  0  0
   -2.0436    1.5919    2.1342 N   0  0  0  0  0  0  0  0  0  0  0  0
   -2.2279    2.5397    1.0315 C   0  0  2  0  0  0  0  0  0  0  0  0
   -0.9156    3.0605    0.3778 C   0  0  0  0  0  0  0  0  0  0  0  0
   -0.6922    4.2512    0.5739 O   0  0  0  0  0  0  0  0  0  0  0  0
   -3.2145    1.9806   -0.0031 C   0  0  0  0  0  0  0  0  0  0  0  0
   -1.2695    0.9274    2.0682 H   0  0  0  0  0  0  0  0  0  0  0  0
   -2.7058    3.4306    1.4571 H   0  0  0  0  0  0  0  0  0  0  0  0
   -3.3286    2.6852   -0.8325 H   0  0  0  0  0  0  0  0  0  0  0  0
   -2.8860    1.0211   -0.4027 H   0  0  0  0  0  0  0  0  0  0  0  0
   -4.1959    1.8367    0.4592 H   0  0  0  0  0  0  0  0  0  0  0  0
   -0.0045    2.3851   -0.4627 N   0  0  0  0  0  0  0  0  0  0  0  0
    0.0134    1.0032   -0.9846 C   0  0  2  0  0  0  0  0  0  0  0  0
   -0.5834   -0.2040   -0.2303 C   0  0  0  0  0  0  0  0  0  0  0  0
   -0.4771   -0.2986    0.9862 O   0  0  0  0  0  0  0  0  0  0  0  0
    1.5117    0.7373   -1.1803 C   0  0  0  0  0  0  0  0  0  0  0  0
    2.1740    2.0967   -1.3639 C   0  0  0  0  0  0  0  0  0  0  0  0
    1.0877    3.1290   -1.0974 C   0  0  0  0  0  0  0  0  0  0  0  0
   -0.4818    1.0330   -1.9599 H   0  0  0  0  0  0  0  0  0  0  0  0
    1.6912    0.0846   -2.0410 H   0  0  0  0  0  0  0  0  0  0  0  0
    1.9338    0.2508   -0.2933 H   0  0  0  0  0  0  0  0  0  0  0  0
    2.9975    2.2144   -0.6519 H   0  0  0  0  0  0  0  0  0  0  0  0
    2.5731    2.2115   -2.3769 H   0  0  0  0  0  0  0  0  0  0  0  0
    1.4928    3.9211   -0.4575 H   0  0  0  0  0  0  0  0  0  0  0  0
    0.7416    3.5836   -2.0316 H   0  0  0  0  0  0  0  0  0  0  0  0
   -0.7961   -1.3715   -0.9423 N   0  0  0  0  0  0  0  0  0  0  0  0
   -0.6478   -2.7017   -0.3341 C   0  0  2  0  0  0  0  0  0  0  0  0
    0.8204   -3.1772   -0.3975 C   0  0  0  0  0  0  0  0  0  0  0  0
    1.5299   -2.8338   -1.3376 O   0  0  0  0  0  0  0  0  0  0  0  0
   -1.5608   -3.6674   -1.0920 C   0  0  0  0  0  0  0  0  0  0  0  0
   -0.5392   -1.3176   -1.9255 H   0  0  0  0  0  0  0  0  0  0  0  0
   -0.9651   -2.6860    0.7137 H   0  0  0  0  0  0  0  0  0  0  0  0
   -1.2646   -3.7321   -2.1441 H   0  0  0  0  0  0  0  0  0  0  0  0
   -1.5039   -4.6686   -0.6539 H   0  0  0  0  0  0  0  0  0  0  0  0
   -2.5996   -3.3261   -1.0415 H   0  0  0  0  0  0  0  0  0  0  0  0
    1.3427   -3.9950    0.5869 N   0  0  0  0  0  0  0  0  0  0  0  0
    2.7391   -4.4138    0.6139 C   0  0  0  0  0  0  0  0  0  0  0  0
    0.7592   -4.1842    1.3967 H   0  0  0  0  0  0  0  0  0  0  0  0
    2.9931   -4.9602   -0.3005 H   0  0  0  0  0  0  0  0  0  0  0  0
    3.3991   -3.5441    0.6997 H   0  0  0  0  0  0  0  0  0  0  0  0
    2.9200   -5.0713    1.4696 H   0  0  0  0  0  0  0  0  0  0  0  0
  1  2  2  0  0  0  0
  1  3  1  0  0  0  0
  1  7  1  0  0  0  0
  3  4  1  0  0  0  0
  3  5  1  0  0  0  0
  3  6  1  0  0  0  0
  7  8  1  0  0  0  0
  7 12  1  0  0  0  0
  8  9  1  0  0  0  0
  8 11  1  0  0  0  0
  8 13  1  0  0  0  0
  9 10  2  0  0  0  0
  9 17  1  0  0  0  0
 11 14  1  0  0  0  0
 11 15  1  0  0  0  0
 11 16  1  0  0  0  0
 17 18  1  0  0  0  0
 17 23  1  0  0  0  0
 18 19  1  0  0  0  0
 18 21  1  0  0  0  0
 18 24  1  0  0  0  0
 19 20  2  0  0  0  0
 19 31  1  0  0  0  0
 21 22  1  0  0  0  0
 21 25  1  0  0  0  0
 21 26  1  0  0  0  0
 22 23  1  0  0  0  0
 22 27  1  0  0  0  0
 22 28  1  0  0  0  0
 23 29  1  0  0  0  0
 23 30  1  0  0  0  0
 31 32  1  0  0  0  0
 31 36  1  0  0  0  0
 32 33  1  0  0  0  0
 32 35  1  0  0  0  0
 32 37  1  0  0  0  0
 33 34  2  0  0  0  0
 33 41  1  0  0  0  0
 35 38  1  0  0  0  0
 35 39  1  0  0  0  0
 35 40  1  0  0  0  0
 41 42  1  0  0  0  0
 41 43  1  0  0  0  0
 42 44  1  0  0  0  0
 42 45  1  0  0  0  0
 42 46  1  0  0  0  0
M  END
$$$$

  -OEChem-05262217223D

 46 46  0     1  0  0  0  0  0999 V2000
   -1.2976    0.6106    4.1090 C   0  0  0  0  0  0  0  0  0  0  0  0
   -1.4525   -0.5677    3.8269 O   0  0  0  0  0  0  0  0  0  0  0  0
   -0.9281    1.0032    5.5274 C   0  0  0  0  0  0  0  0  0  0  0  0
   -1.6480    1.7290    5.9133 H   0  0  0  0  0  0  0  0  0  0  0  0
   -0.9341    0.1232    6.1767 H   0  0  0  0  0  0  0  0  0  0  0  0
    0.0702    1.4474    5.5436 H   0  0  0  0  0  0  0  0  0  0  0  0
   -1.4432    1.5923    3.1516 N   0  0  0  0  0  0  0  0  0  0  0  0
   -1.5916    1.3410    1.7080 C   0  0  2  0  0  0  0  0  0  0  0  0
   -0.4883    2.0505    0.8834 C   0  0  0  0  0  0  0  0  0  0  0  0
   -0.0072    3.0523    1.4132 O   0  0  0  0  0  0  0  0  0  0  0  0
   -2.9767    1.8701    1.3184 C   0  0  0  0  0  0  0  0  0  0  0  0
   -1.1209    2.5235    3.4091 H   0  0  0  0  0  0  0  0  0  0  0  0
   -1.5191    0.2698    1.5289 H   0  0  0  0  0  0  0  0  0  0  0  0
   -3.0796    2.9205    1.6085 H   0  0  0  0  0  0  0  0  0  0  0  0
   -3.1349    1.7988    0.2388 H   0  0  0  0  0  0  0  0  0  0  0  0
   -3.7552    1.2887    1.8218 H   0  0  0  0  0  0  0  0  0  0  0  0
   -0.0139    1.7153   -0.3988 N   0  0  0  0  0  0  0  0  0  0  0  0
   -0.3559    0.6523   -1.3694 C   0  0  2  0  0  0  0  0  0  0  0  0
   -1.1836   -0.6131   -1.0189 C   0  0  0  0  0  0  0  0  0  0  0  0
   -2.3012   -0.4901   -0.5544 O   0  0  0  0  0  0  0  0  0  0  0  0
    1.0452    0.2947   -1.8862 C   0  0  0  0  0  0  0  0  0  0  0  0
    1.9111    1.5308   -1.6537 C   0  0  0  0  0  0  0  0  0  0  0  0
    0.9565    2.5693   -1.0979 C   0  0  0  0  0  0  0  0  0  0  0  0
   -0.9192    1.1278   -2.1792 H   0  0  0  0  0  0  0  0  0  0  0  0
    1.0093    0.0319   -2.9480 H   0  0  0  0  0  0  0  0  0  0  0  0
    1.4734   -0.5419   -1.3297 H   0  0  0  0  0  0  0  0  0  0  0  0
    2.6945    1.3082   -0.9211 H   0  0  0  0  0  0  0  0  0  0  0  0
    2.3858    1.8792   -2.5762 H   0  0  0  0  0  0  0  0  0  0  0  0
    1.4977    3.2698   -0.4528 H   0  0  0  0  0  0  0  0  0  0  0  0
    0.4686    3.1417   -1.8945 H   0  0  0  0  0  0  0  0  0  0  0  0
   -1.2490   -1.7327   -1.8172 N   0  0  0  0  0  0  0  0  0  0  0  0
   -0.3532   -2.8897   -1.6108 C   0  0  2  0  0  0  0  0  0  0  0  0
    0.4865   -2.8787   -0.3028 C   0  0  0  0  0  0  0  0  0  0  0  0
    1.7043   -2.9937   -0.3358 O   0  0  0  0  0  0  0  0  0  0  0  0
    0.4964   -3.0866   -2.8749 C   0  0  0  0  0  0  0  0  0  0  0  0
   -2.2282   -2.0012   -1.8936 H   0  0  0  0  0  0  0  0  0  0  0  0
   -0.9944   -3.7725   -1.5226 H   0  0  0  0  0  0  0  0  0  0  0  0
    1.2289   -2.2846   -2.9890 H   0  0  0  0  0  0  0  0  0  0  0  0
    1.0387   -4.0360   -2.8190 H   0  0  0  0  0  0  0  0  0  0  0  0
   -0.1409   -3.1066   -3.7642 H   0  0  0  0  0  0  0  0  0  0  0  0
   -0.1383   -2.7139    0.9207 N   0  0  0  0  0  0  0  0  0  0  0  0
    0.5803   -2.5885    2.1836 C   0  0  0  0  0  0  0  0  0  0  0  0
   -1.1383   -2.5194    0.9184 H   0  0  0  0  0  0  0  0  0  0  0  0
    1.3727   -3.3405    2.2588 H   0  0  0  0  0  0  0  0  0  0  0  0
    1.0274   -1.5931    2.2716 H   0  0  0  0  0  0  0  0  0  0  0  0
   -0.1065   -2.7378    3.0221 H   0  0  0  0  0  0  0  0  0  0  0  0
  1  2  2  0  0  0  0
  1  3  1  0  0  0  0
  1  7  1  0  0  0  0
  3  4  1  0  0  0  0
  3  5  1  0  0  0  0
  3  6  1  0  0  0  0
  7  8  1  0  0  0  0
  7 12  1  0  0  0  0
  8  9  1  0  0  0  0
  8 11  1  0  0  0  0
  8 13  1  0  0  0  0
  9 10  2  0  0  0  0
  9 17  1  0  0  0  0
 11 14  1  0  0  0  0
 11 15  1  0  0  0  0
 11 16  1  0  0  0  0
 17 18  1  0  0  0  0
 17 23  1  0  0  0  0
 18 19  1  0  0  0  0
 18 21  1  0  0  0  0
 18 24  1  0  0  0  0
 19 20  2  0  0  0  0
 19 31  1  0  0  0  0
 21 22  1  0  0  0  0
 21 25  1  0  0  0  0
 21 26  1  0  0  0  0
 22 23  1  0  0  0  0
 22 27  1  0  0  0  0
 22 28  1  0  0  0  0
 23 29  1  0  0  0  0
 23 30  1  0  0  0  0
 31 32  1  0  0  0  0
 31 36  1  0  0  0  0
 32 33  1  0  0  0  0
 32 35  1  0  0  0  0
 32 37  1  0  0  0  0
 33 34  2  0  0  0  0
 33 41  1  0  0  0  0
 35 38  1  0  0  0  0
 35 39  1  0  0  0  0
 35 40  1  0  0  0  0
 41 42  1  0  0  0  0
 41 43  1  0  0  0  0
 42 44  1  0  0  0  0
 42 45  1  0  0  0  0
 42 46  1  0  0  0  0
M  END
$$$$

  -OEChem-05262217223D

 46 46  0     1  0  0  0  0  0999 V2000
   -1.6068    0.4991    4.0896 C   0  0  0  0  0  0  0  0  0  0  0  0
   -1.9724   -0.6133    3.7400 O   0  0  0  0  0  0  0  0  0  0  0  0
   -1.3195    0.7766    5.5531 C   0  0  0  0  0  0  0  0  0  0  0  0
   -1.9333    1.6107    5.9019 H   0  0  0  0  0  0  0  0  0  0  0  0
   -1.5497   -0.1052    6.1578 H   0  0  0  0  0  0  0  0  0  0  0  0
   -0.2647    1.0301    5.6843 H   0  0  0  0  0  0  0  0  0  0  0  0
   -1.4269    1.5004    3.1595 N   0  0  0  0  0  0  0  0  0  0  0  0
   -1.5520    1.3286    1.7043 C   0  0  2  0  0  0  0  0  0  0  0  0
   -0.4254    2.0641    0.9359 C   0  0  0  0  0  0  0  0  0  0  0  0
    0.0459    3.0468    1.5074 O   0  0  0  0  0  0  0  0  0  0  0  0
   -2.9244    1.8873    1.3108 C   0  0  0  0  0  0  0  0  0  0  0  0
   -0.9994    2.3679    3.4802 H   0  0  0  0  0  0  0  0  0  0  0  0
   -1.4881    0.2668    1.4771 H   0  0  0  0  0  0  0  0  0  0  0  0
   -3.0276    2.9237    1.6478 H   0  0  0  0  0  0  0  0  0  0  0  0
   -3.0582    1.8676    0.2258 H   0  0  0  0  0  0  0  0  0  0  0  0
   -3.7185    1.2888    1.7676 H   0  0  0  0  0  0  0  0  0  0  0  0
    0.0877    1.7521   -0.3357 N   0  0  0  0  0  0  0  0  0  0  0  0
   -0.2341    0.6996   -1.3191 C   0  0  2  0  0  0  0  0  0  0  0  0
   -1.0754   -0.5515   -0.9482 C   0  0  0  0  0  0  0  0  0  0  0  0
   -2.2568   -0.3922   -0.6999 O   0  0  0  0  0  0  0  0  0  0  0  0
    1.1689    0.3794   -1.8570 C   0  0  0  0  0  0  0  0  0  0  0  0
    2.0059    1.6338   -1.6087 C   0  0  0  0  0  0  0  0  0  0  0  0
    1.0339    2.6411   -1.0232 C   0  0  0  0  0  0  0  0  0  0  0  0
   -0.8064    1.1760   -2.1225 H   0  0  0  0  0  0  0  0  0  0  0  0
    1.1282    0.1256   -2.9210 H   0  0  0  0  0  0  0  0  0  0  0  0
    1.6299   -0.4476   -1.3199 H   0  0  0  0  0  0  0  0  0  0  0  0
    2.8025    1.4166   -0.8889 H   0  0  0  0  0  0  0  0  0  0  0  0
    2.4620    2.0104   -2.5293 H   0  0  0  0  0  0  0  0  0  0  0  0
    1.5616    3.3374   -0.3627 H   0  0  0  0  0  0  0  0  0  0  0  0
    0.5293    3.2205   -1.8040 H   0  0  0  0  0  0  0  0  0  0  0  0
   -0.9683   -1.8016   -1.5146 N   0  0  0  0  0  0  0  0  0  0  0  0
    0.0154   -2.8135   -1.0791 C   0  0  2  0  0  0  0  0  0  0  0  0
    0.8573   -2.4742    0.1828 C   0  0  0  0  0  0  0  0  0  0  0  0
    2.0804   -2.5030    0.1459 O   0  0  0  0  0  0  0  0  0  0  0  0
    0.8689   -3.1958   -2.2980 C   0  0  0  0  0  0  0  0  0  0  0  0
   -1.9084   -2.1754   -1.6307 H   0  0  0  0  0  0  0  0  0  0  0  0
   -0.5520   -3.7061   -0.7979 H   0  0  0  0  0  0  0  0  0  0  0  0
    1.4926   -2.3596   -2.6234 H   0  0  0  0  0  0  0  0  0  0  0  0
    1.5248   -4.0373   -2.0518 H   0  0  0  0  0  0  0  0  0  0  0  0
    0.2270   -3.4940   -3.1327 H   0  0  0  0  0  0  0  0  0  0  0  0
    0.2391   -2.1323    1.3730 N   0  0  0  0  0  0  0  0  0  0  0  0
    0.9685   -1.7842    2.5875 C   0  0  0  0  0  0  0  0  0  0  0  0
   -0.7793   -2.1068    1.3990 H   0  0  0  0  0  0  0  0  0  0  0  0
    1.8247   -2.4507    2.7356 H   0  0  0  0  0  0  0  0  0  0  0  0
    1.3294   -0.7521    2.5328 H   0  0  0  0  0  0  0  0  0  0  0  0
    0.3162   -1.8821    3.4597 H   0  0  0  0  0  0  0  0  0  0  0  0
  1  2  2  0  0  0  0
  1  3  1  0  0  0  0
  1  7  1  0  0  0  0
  3  4  1  0  0  0  0
  3  5  1  0  0  0  0
  3  6  1  0  0  0  0
  7  8  1  0  0  0  0
  7 12  1  0  0  0  0
  8  9  1  0  0  0  0
  8 11  1  0  0  0  0
  8 13  1  0  0  0  0
  9 10  2  0  0  0  0
  9 17  1  0  0  0  0
 11 14  1  0  0  0  0
 11 15  1  0  0  0  0
 11 16  1  0  0  0  0
 17 18  1  0  0  0  0
 17 23  1  0  0  0  0
 18 19  1  0  0  0  0
 18 21  1  0  0  0  0
 18 24  1  0  0  0  0
 19 20  2  0  0  0  0
 19 31  1  0  0  0  0
 21 22  1  0  0  0  0
 21 25  1  0  0  0  0
 21 26  1  0  0  0  0
 22 23  1  0  0  0  0
 22 27  1  0  0  0  0
 22 28  1  0  0  0  0
 23 29  1  0  0  0  0
 23 30  1  0  0  0  0
 31 32  1  0  0  0  0
 31 36  1  0  0  0  0
 32 33  1  0  0  0  0
 32 35  1  0  0  0  0
 32 37  1  0  0  0  0
 33 34  2  0  0  0  0
 33 41  1  0  0  0  0
 35 38  1  0  0  0  0
 35 39  1  0  0  0  0
 35 40  1  0  0  0  0
 41 42  1  0  0  0  0
 41 43  1  0  0  0  0
 42 44  1  0  0  0  0
 42 45  1  0  0  0  0
 42 46  1  0  0  0  0
M  END
$$$$

  -OEChem-05262217223D

 46 46  0     1  0  0  0  0  0999 V2000
   -1.5619    0.3034    3.6018 C   0  0  0  0  0  0  0  0  0  0  0  0
   -0.9476   -0.6097    3.0630 O   0  0  0  0  0  0  0  0  0  0  0  0
   -1.4998    0.4708    5.1076 C   0  0  0  0  0  0  0  0  0  0  0  0
   -2.5095    0.4711    5.5252 H   0  0  0  0  0  0  0  0  0  0  0  0
   -0.9335   -0.3494    5.5569 H   0  0  0  0  0  0  0  0  0  0  0  0
   -1.0097    1.4153    5.3564 H   0  0  0  0  0  0  0  0  0  0  0  0
   -2.2712    1.2121    2.8433 N   0  0  0  0  0  0  0  0  0  0  0  0
   -2.1275    1.2886    1.3821 C   0  0  2  0  0  0  0  0  0  0  0  0
   -0.9413    2.1997    0.9668 C   0  0  0  0  0  0  0  0  0  0  0  0
   -0.7692    3.1946    1.6692 O   0  0  0  0  0  0  0  0  0  0  0  0
   -3.4393    1.8207    0.8015 C   0  0  0  0  0  0  0  0  0  0  0  0
   -2.5400    2.0693    3.3198 H   0  0  0  0  0  0  0  0  0  0  0  0
   -1.9763    0.2778    1.0188 H   0  0  0  0  0  0  0  0  0  0  0  0
   -3.6438    2.8294    1.1741 H   0  0  0  0  0  0  0  0  0  0  0  0
   -3.3841    1.8586   -0.2909 H   0  0  0  0  0  0  0  0  0  0  0  0
   -4.2707    1.1667    1.0816 H   0  0  0  0  0  0  0  0  0  0  0  0
   -0.0844    2.0363   -0.1339 N   0  0  0  0  0  0  0  0  0  0  0  0
   -0.0189    1.0217   -1.1977 C   0  0  2  0  0  0  0  0  0  0  0  0
   -0.7824   -0.3164   -1.0628 C   0  0  0  0  0  0  0  0  0  0  0  0
   -1.9773   -0.3061   -1.3151 O   0  0  0  0  0  0  0  0  0  0  0  0
    1.5012    0.8602   -1.3552 C   0  0  0  0  0  0  0  0  0  0  0  0
    2.1027    2.1726   -0.8496 C   0  0  0  0  0  0  0  0  0  0  0  0
    0.9089    3.0493   -0.5100 C   0  0  0  0  0  0  0  0  0  0  0  0
   -0.4128    1.4783   -2.1123 H   0  0  0  0  0  0  0  0  0  0  0  0
    1.7648    0.6717   -2.4009 H   0  0  0  0  0  0  0  0  0  0  0  0
    1.8913    0.0403   -0.7528 H   0  0  0  0  0  0  0  0  0  0  0  0
    2.7007    1.9876    0.0489 H   0  0  0  0  0  0  0  0  0  0  0  0
    2.7418    2.6455   -1.6015 H   0  0  0  0  0  0  0  0  0  0  0  0
    1.1660    3.7467    0.2944 H   0  0  0  0  0  0  0  0  0  0  0  0
    0.5686    3.6275   -1.3760 H   0  0  0  0  0  0  0  0  0  0  0  0
   -0.2530   -1.5501   -1.3500 N   0  0  0  0  0  0  0  0  0  0  0  0
    0.0122   -2.4166   -0.1874 C   0  0  2  0  0  0  0  0  0  0  0  0
    1.3803   -2.1834    0.4939 C   0  0  0  0  0  0  0  0  0  0  0  0
    2.4238   -2.4872   -0.0715 O   0  0  0  0  0  0  0  0  0  0  0  0
   -0.1051   -3.8659   -0.6697 C   0  0  0  0  0  0  0  0  0  0  0  0
   -0.8562   -2.0094   -2.0271 H   0  0  0  0  0  0  0  0  0  0  0  0
   -0.7627   -2.2556    0.5714 H   0  0  0  0  0  0  0  0  0  0  0  0
    0.6301   -4.0705   -1.4555 H   0  0  0  0  0  0  0  0  0  0  0  0
    0.0739   -4.5572    0.1598 H   0  0  0  0  0  0  0  0  0  0  0  0
   -1.1062   -4.0575   -1.0682 H   0  0  0  0  0  0  0  0  0  0  0  0
    1.4425   -1.5939    1.7421 N   0  0  0  0  0  0  0  0  0  0  0  0
    2.6900   -1.2794    2.4242 C   0  0  0  0  0  0  0  0  0  0  0  0
    0.5605   -1.3241    2.1885 H   0  0  0  0  0  0  0  0  0  0  0  0
    3.2948   -2.1827    2.5562 H   0  0  0  0  0  0  0  0  0  0  0  0
    3.2667   -0.5478    1.8489 H   0  0  0  0  0  0  0  0  0  0  0  0
    2.4817   -0.8570    3.4119 H   0  0  0  0  0  0  0  0  0  0  0  0
  1  2  2  0  0  0  0
  1  3  1  0  0  0  0
  1  7  1  0  0  0  0
  3  4  1  0  0  0  0
  3  5  1  0  0  0  0
  3  6  1  0  0  0  0
  7  8  1  0  0  0  0
  7 12  1  0  0  0  0
  8  9  1  0  0  0  0
  8 11  1  0  0  0  0
  8 13  1  0  0  0  0
  9 10  2  0  0  0  0
  9 17  1  0  0  0  0
 11 14  1  0  0  0  0
 11 15  1  0  0  0  0
 11 16  1  0  0  0  0
 17 18  1  0  0  0  0
 17 23  1  0  0  0  0
 18 19  1  0  0  0  0
 18 21  1  0  0  0  0
 18 24  1  0  0  0  0
 19 20  2  0  0  0  0
 19 31  1  0  0  0  0
 21 22  1  0  0  0  0
 21 25  1  0  0  0  0
 21 26  1  0  0  0  0
 22 23  1  0  0  0  0
 22 27  1  0  0  0  0
 22 28  1  0  0  0  0
 23 29  1  0  0  0  0
 23 30  1  0  0  0  0
 31 32  1  0  0  0  0
 31 36  1  0  0  0  0
 32 33  1  0  0  0  0
 32 35  1  0  0  0  0
 32 37  1  0  0  0  0
 33 34  2  0  0  0  0
 33 41  1  0  0  0  0
 35 38  1  0  0  0  0
 35 39  1  0  0  0  0
 35 40  1  0  0  0  0
 41 42  1  0  0  0  0
 41 43  1  0  0  0  0
 42 44  1  0  0  0  0
 42 45  1  0  0  0  0
 42 46  1  0  0  0  0
M  END
$$$$

  -OEChem-05262217223D

 46 46  0     1  0  0  0  0  0999 V2000
   -1.7730    0.3753    3.6231 C   0  0  0  0  0  0  0  0  0  0  0  0
   -0.9588   -0.4425    3.2134 O   0  0  0  0  0  0  0  0  0  0  0  0
   -1.9201    0.6165    5.1133 C   0  0  0  0  0  0  0  0  0  0  0  0
   -2.9431    0.3962    5.4275 H   0  0  0  0  0  0  0  0  0  0  0  0
   -1.2340   -0.0272    5.6710 H   0  0  0  0  0  0  0  0  0  0  0  0
   -1.6916    1.6594    5.3466 H   0  0  0  0  0  0  0  0  0  0  0  0
   -2.5291    1.1101    2.7339 N   0  0  0  0  0  0  0  0  0  0  0  0
   -2.2242    1.1482    1.2955 C   0  0  2  0  0  0  0  0  0  0  0  0
   -1.1008    2.1685    0.9678 C   0  0  0  0  0  0  0  0  0  0  0  0
   -1.0649    3.1714    1.6783 O   0  0  0  0  0  0  0  0  0  0  0  0
   -3.5117    1.5222    0.5566 C   0  0  0  0  0  0  0  0  0  0  0  0
   -2.9832    1.9317    3.1242 H   0  0  0  0  0  0  0  0  0  0  0  0
   -1.9277    0.1478    0.9909 H   0  0  0  0  0  0  0  0  0  0  0  0
   -3.8656    2.5080    0.8744 H   0  0  0  0  0  0  0  0  0  0  0  0
   -3.3392    1.5498   -0.5237 H   0  0  0  0  0  0  0  0  0  0  0  0
   -4.2943    0.7852    0.7613 H   0  0  0  0  0  0  0  0  0  0  0  0
   -0.1726    2.0936   -0.0821 N   0  0  0  0  0  0  0  0  0  0  0  0
    0.0339    1.1008   -1.1459 C   0  0  2  0  0  0  0  0  0  0  0  0
   -0.6213   -0.2988   -1.0599 C   0  0  0  0  0  0  0  0  0  0  0  0
   -1.7621   -0.4295   -1.4740 O   0  0  0  0  0  0  0  0  0  0  0  0
    1.5665    1.0816   -1.2459 C   0  0  0  0  0  0  0  0  0  0  0  0
    2.0207    2.4403   -0.7087 C   0  0  0  0  0  0  0  0  0  0  0  0
    0.7370    3.1986   -0.4096 C   0  0  0  0  0  0  0  0  0  0  0  0
   -0.3606    1.5327   -2.0722 H   0  0  0  0  0  0  0  0  0  0  0  0
    1.8824    0.9327   -2.2835 H   0  0  0  0  0  0  0  0  0  0  0  0
    2.0126    0.2945   -0.6408 H   0  0  0  0  0  0  0  0  0  0  0  0
    2.5982    2.3027    0.2117 H   0  0  0  0  0  0  0  0  0  0  0  0
    2.6417    2.9782   -1.4317 H   0  0  0  0  0  0  0  0  0  0  0  0
    0.8957    3.9058    0.4117 H   0  0  0  0  0  0  0  0  0  0  0  0
    0.3794    3.7546   -1.2832 H   0  0  0  0  0  0  0  0  0  0  0  0
    0.0510   -1.4978   -1.0350 N   0  0  0  0  0  0  0  0  0  0  0  0
    0.2963   -2.0995    0.2884 C   0  0  2  0  0  0  0  0  0  0  0  0
    1.6466   -1.7317    0.9434 C   0  0  0  0  0  0  0  0  0  0  0  0
    2.7071   -1.9864    0.3853 O   0  0  0  0  0  0  0  0  0  0  0  0
    0.1987   -3.6182    0.1180 C   0  0  0  0  0  0  0  0  0  0  0  0
   -0.4151   -2.1467   -1.6635 H   0  0  0  0  0  0  0  0  0  0  0  0
   -0.4985   -1.7955    0.9774 H   0  0  0  0  0  0  0  0  0  0  0  0
    0.9689   -3.9782   -0.5723 H   0  0  0  0  0  0  0  0  0  0  0  0
    0.3378   -4.1174    1.0823 H   0  0  0  0  0  0  0  0  0  0  0  0
   -0.7836   -3.8974   -0.2757 H   0  0  0  0  0  0  0  0  0  0  0  0
    1.6676   -1.1031    2.1726 N   0  0  0  0  0  0  0  0  0  0  0  0
    2.8882   -0.6696    2.8374 C   0  0  0  0  0  0  0  0  0  0  0  0
    0.7656   -0.8882    2.6081 H   0  0  0  0  0  0  0  0  0  0  0  0
    3.5836   -1.5079    2.9497 H   0  0  0  0  0  0  0  0  0  0  0  0
    3.3773    0.1210    2.2595 H   0  0  0  0  0  0  0  0  0  0  0  0
    2.6556   -0.2796    3.8330 H   0  0  0  0  0  0  0  0  0  0  0  0
  1  2  2  0  0  0  0
  1  3  1  0  0  0  0
  1  7  1  0  0  0  0
  3  4  1  0  0  0  0
  3  5  1  0  0  0  0
  3  6  1  0  0  0  0
  7  8  1  0  0  0  0
  7 12  1  0  0  0  0
  8  9  1  0  0  0  0
  8 11  1  0  0  0  0
  8 13  1  0  0  0  0
  9 10  2  0  0  0  0
  9 17  1  0  0  0  0
 11 14  1  0  0  0  0
 11 15  1  0  0  0  0
 11 16  1  0  0  0  0
 17 18  1  0  0  0  0
 17 23  1  0  0  0  0
 18 19  1  0  0  0  0
 18 21  1  0  0  0  0
 18 24  1  0  0  0  0
 19 20  2  0  0  0  0
 19 31  1  0  0  0  0
 21 22  1  0  0  0  0
 21 25  1  0  0  0  0
 21 26  1  0  0  0  0
 22 23  1  0  0  0  0
 22 27  1  0  0  0  0
 22 28  1  0  0  0  0
 23 29  1  0  0  0  0
 23 30  1  0  0  0  0
 31 32  1  0  0  0  0
 31 36  1  0  0  0  0
 32 33  1  0  0  0  0
 32 35  1  0  0  0  0
 32 37  1  0  0  0  0
 33 34  2  0  0  0  0
 33 41  1  0  0  0  0
 35 38  1  0  0  0  0
 35 39  1  0  0  0  0
 35 40  1  0  0  0  0
 41 42  1  0  0  0  0
 41 43  1  0  0  0  0
 42 44  1  0  0  0  0
 42 45  1  0  0  0  0
 42 46  1  0  0  0  0
M  END
$$$$

  -OEChem-05262217223D

 46 46  0     1  0  0  0  0  0999 V2000
   -2.2746    1.1459    4.2226 C   0  0  0  0  0  0  0  0  0  0  0  0
   -2.7239    0.0425    3.9545 O   0  0  0  0  0  0  0  0  0  0  0  0
   -2.2978    1.6456    5.6544 C   0  0  0  0  0  0  0  0  0  0  0  0
   -2.8379    0.9398    6.2915 H   0  0  0  0  0  0  0  0  0  0  0  0
   -2.7978    2.6160    5.7032 H   0  0  0  0  0  0  0  0  0  0  0  0
   -1.2766    1.7505    6.0290 H   0  0  0  0  0  0  0  0  0  0  0  0
   -1.7105    1.9262    3.2371 N   0  0  0  0  0  0  0  0  0  0  0  0
   -1.6435    1.5812    1.8091 C   0  0  2  0  0  0  0  0  0  0  0  0
   -0.5342    2.3857    1.0838 C   0  0  0  0  0  0  0  0  0  0  0  0
   -0.2313    3.4630    1.5956 O   0  0  0  0  0  0  0  0  0  0  0  0
   -3.0099    1.9157    1.1959 C   0  0  0  0  0  0  0  0  0  0  0  0
   -1.3227    2.8297    3.5068 H   0  0  0  0  0  0  0  0  0  0  0  0
   -1.4358    0.5171    1.7134 H   0  0  0  0  0  0  0  0  0  0  0  0
   -3.2743    2.9582    1.3993 H   0  0  0  0  0  0  0  0  0  0  0  0
   -2.9987    1.7738    0.1121 H   0  0  0  0  0  0  0  0  0  0  0  0
   -3.7849    1.2690    1.6187 H   0  0  0  0  0  0  0  0  0  0  0  0
    0.1123    2.0383   -0.1123 N   0  0  0  0  0  0  0  0  0  0  0  0
   -0.0320    0.8832   -1.0103 C   0  0  2  0  0  0  0  0  0  0  0  0
   -0.7800   -0.4021   -0.5516 C   0  0  0  0  0  0  0  0  0  0  0  0
   -1.9875   -0.4380   -0.7133 O   0  0  0  0  0  0  0  0  0  0  0  0
    1.3951    0.7305   -1.5456 C   0  0  0  0  0  0  0  0  0  0  0  0
    2.0293    2.1147   -1.3969 C   0  0  0  0  0  0  0  0  0  0  0  0
    0.9197    3.0069   -0.8663 C   0  0  0  0  0  0  0  0  0  0  0  0
   -0.6425    1.2308   -1.8518 H   0  0  0  0  0  0  0  0  0  0  0  0
    1.3845    0.3995   -2.5888 H   0  0  0  0  0  0  0  0  0  0  0  0
    1.9832    0.0292   -0.9710 H   0  0  0  0  0  0  0  0  0  0  0  0
    2.8522    2.0714   -0.6749 H   0  0  0  0  0  0  0  0  0  0  0  0
    2.4199    2.4900   -2.3478 H   0  0  0  0  0  0  0  0  0  0  0  0
    1.3411    3.8097   -0.2513 H   0  0  0  0  0  0  0  0  0  0  0  0
    0.3365    3.4580   -1.6765 H   0  0  0  0  0  0  0  0  0  0  0  0
   -0.3522   -1.6609   -0.1650 N   0  0  0  0  0  0  0  0  0  0  0  0
    0.9243   -2.1521    0.3903 C   0  0  2  0  0  0  0  0  0  0  0  0
    1.6701   -1.1936    1.3590 C   0  0  0  0  0  0  0  0  0  0  0  0
    2.8079   -0.8024    1.1543 O   0  0  0  0  0  0  0  0  0  0  0  0
    1.7889   -2.7423   -0.7366 C   0  0  0  0  0  0  0  0  0  0  0  0
   -1.1499   -2.2860   -0.0701 H   0  0  0  0  0  0  0  0  0  0  0  0
    0.6659   -3.0059    1.0235 H   0  0  0  0  0  0  0  0  0  0  0  0
    2.0271   -2.0082   -1.5066 H   0  0  0  0  0  0  0  0  0  0  0  0
    2.7280   -3.1300   -0.3291 H   0  0  0  0  0  0  0  0  0  0  0  0
    1.2573   -3.5689   -1.2174 H   0  0  0  0  0  0  0  0  0  0  0  0
    1.1624   -0.7945    2.5734 N   0  0  0  0  0  0  0  0  0  0  0  0
    0.0535   -1.4569    3.2476 C   0  0  0  0  0  0  0  0  0  0  0  0
    1.8233   -0.2635    3.1359 H   0  0  0  0  0  0  0  0  0  0  0  0
   -0.1890   -0.9262    4.1730 H   0  0  0  0  0  0  0  0  0  0  0  0
    0.3207   -2.4869    3.5044 H   0  0  0  0  0  0  0  0  0  0  0  0
   -0.8409   -1.4738    2.6178 H   0  0  0  0  0  0  0  0  0  0  0  0
  1  2  2  0  0  0  0
  1  3  1  0  0  0  0
  1  7  1  0  0  0  0
  3  4  1  0  0  0  0
  3  5  1  0  0  0  0
  3  6  1  0  0  0  0
  7  8  1  0  0  0  0
  7 12  1  0  0  0  0
  8  9  1  0  0  0  0
  8 11  1  0  0  0  0
  8 13  1  0  0  0  0
  9 10  2  0  0  0  0
  9 17  1  0  0  0  0
 11 14  1  0  0  0  0
 11 15  1  0  0  0  0
 11 16  1  0  0  0  0
 17 18  1  0  0  0  0
 17 23  1  0  0  0  0
 18 19  1  0  0  0  0
 18 21  1  0  0  0  0
 18 24  1  0  0  0  0
 19 20  2  0  0  0  0
 19 31  1  0  0  0  0
 21 22  1  0  0  0  0
 21 25  1  0  0  0  0
 21 26  1  0  0  0  0
 22 23  1  0  0  0  0
 22 27  1  0  0  0  0
 22 28  1  0  0  0  0
 23 29  1  0  0  0  0
 23 30  1  0  0  0  0
 31 32  1  0  0  0  0
 31 36  1  0  0  0  0
 32 33  1  0  0  0  0
 32 35  1  0  0  0  0
 32 37  1  0  0  0  0
 33 34  2  0  0  0  0
 33 41  1  0  0  0  0
 35 38  1  0  0  0  0
 35 39  1  0  0  0  0
 35 40  1  0  0  0  0
 41 42  1  0  0  0  0
 41 43  1  0  0  0  0
 42 44  1  0  0  0  0
 42 45  1  0  0  0  0
 42 46  1  0  0  0  0
M  END
$$$$

  -OEChem-05262217223D

 46 46  0     1  0  0  0  0  0999 V2000
   -2.0245    1.7501    4.1482 C   0  0  0  0  0  0  0  0  0  0  0  0
   -2.3348    0.5693    4.1473 O   0  0  0  0  0  0  0  0  0  0  0  0
   -1.9570    2.5138    5.4574 C   0  0  0  0  0  0  0  0  0  0  0  0
   -2.1948    1.8521    6.2948 H   0  0  0  0  0  0  0  0  0  0  0  0
   -2.6740    3.3383    5.4450 H   0  0  0  0  0  0  0  0  0  0  0  0
   -0.9521    2.9182    5.6022 H   0  0  0  0  0  0  0  0  0  0  0  0
   -1.7072    2.3925    2.9736 N   0  0  0  0  0  0  0  0  0  0  0  0
   -1.5855    1.7687    1.6465 C   0  0  2  0  0  0  0  0  0  0  0  0
   -0.5407    2.5339    0.7909 C   0  0  0  0  0  0  0  0  0  0  0  0
   -0.3250    3.7022    1.1171 O   0  0  0  0  0  0  0  0  0  0  0  0
   -2.9678    1.8344    0.9891 C   0  0  0  0  0  0  0  0  0  0  0  0
   -1.3432    3.3425    3.0481 H   0  0  0  0  0  0  0  0  0  0  0  0
   -1.2810    0.7290    1.7454 H   0  0  0  0  0  0  0  0  0  0  0  0
   -3.3347    2.8654    0.9731 H   0  0  0  0  0  0  0  0  0  0  0  0
   -2.9292    1.4700   -0.0405 H   0  0  0  0  0  0  0  0  0  0  0  0
   -3.6800    1.2177    1.5461 H   0  0  0  0  0  0  0  0  0  0  0  0
    0.0793    2.0772   -0.3806 N   0  0  0  0  0  0  0  0  0  0  0  0
   -0.0396    0.8223   -1.1293 C   0  0  2  0  0  0  0  0  0  0  0  0
   -0.6928   -0.4643   -0.5468 C   0  0  0  0  0  0  0  0  0  0  0  0
   -1.8261   -0.7331   -0.9098 O   0  0  0  0  0  0  0  0  0  0  0  0
    1.3583    0.6640   -1.7282 C   0  0  0  0  0  0  0  0  0  0  0  0
    1.9254    2.0845   -1.7770 C   0  0  0  0  0  0  0  0  0  0  0  0
    0.8006    2.9840   -1.2851 C   0  0  0  0  0  0  0  0  0  0  0  0
   -0.7037    1.0603   -1.9689 H   0  0  0  0  0  0  0  0  0  0  0  0
    1.2976    0.2230   -2.7282 H   0  0  0  0  0  0  0  0  0  0  0  0
    2.0036    0.0417   -1.1271 H   0  0  0  0  0  0  0  0  0  0  0  0
    2.7877    2.1642   -1.1063 H   0  0  0  0  0  0  0  0  0  0  0  0
    2.2429    2.3638   -2.7863 H   0  0  0  0  0  0  0  0  0  0  0  0
    1.2135    3.8682   -0.7876 H   0  0  0  0  0  0  0  0  0  0  0  0
    0.1554    3.3157   -2.1060 H   0  0  0  0  0  0  0  0  0  0  0  0
   -0.1988   -1.5492    0.1624 N   0  0  0  0  0  0  0  0  0  0  0  0
    0.8847   -1.7135    1.1584 C   0  0  2  0  0  0  0  0  0  0  0  0
    0.7691   -0.7694    2.3770 C   0  0  0  0  0  0  0  0  0  0  0  0
    1.2789    0.3399    2.3796 O   0  0  0  0  0  0  0  0  0  0  0  0
    2.3097   -1.7676    0.5926 C   0  0  0  0  0  0  0  0  0  0  0  0
   -0.9225   -2.2636    0.2007 H   0  0  0  0  0  0  0  0  0  0  0  0
    0.7317   -2.7210    1.5533 H   0  0  0  0  0  0  0  0  0  0  0  0
    2.7860   -0.7836    0.6028 H   0  0  0  0  0  0  0  0  0  0  0  0
    2.9262   -2.4251    1.2135 H   0  0  0  0  0  0  0  0  0  0  0  0
    2.3062   -2.1651   -0.4267 H   0  0  0  0  0  0  0  0  0  0  0  0
    0.0474   -1.0861    3.5056 N   0  0  0  0  0  0  0  0  0  0  0  0
   -0.8577   -2.2231    3.6057 C   0  0  0  0  0  0  0  0  0  0  0  0
   -0.1637   -0.2796    4.0913 H   0  0  0  0  0  0  0  0  0  0  0  0
   -0.3024   -3.1659    3.5889 H   0  0  0  0  0  0  0  0  0  0  0  0
   -1.5816   -2.2147    2.7840 H   0  0  0  0  0  0  0  0  0  0  0  0
   -1.4131   -2.1719    4.5477 H   0  0  0  0  0  0  0  0  0  0  0  0
  1  2  2  0  0  0  0
  1  3  1  0  0  0  0
  1  7  1  0  0  0  0
  3  4  1  0  0  0  0
  3  5  1  0  0  0  0
  3  6  1  0  0  0  0
  7  8  1  0  0  0  0
  7 12  1  0  0  0  0
  8  9  1  0  0  0  0
  8 11  1  0  0  0  0
  8 13  1  0  0  0  0
  9 10  2  0  0  0  0
  9 17  1  0  0  0  0
 11 14  1  0  0  0  0
 11 15  1  0  0  0  0
 11 16  1  0  0  0  0
 17 18  1  0  0  0  0
 17 23  1  0  0  0  0
 18 19  1  0  0  0  0
 18 21  1  0  0  0  0
 18 24  1  0  0  0  0
 19 20  2  0  0  0  0
 19 31  1  0  0  0  0
 21 22  1  0  0  0  0
 21 25  1  0  0  0  0
 21 26  1  0  0  0  0
 22 23  1  0  0  0  0
 22 27  1  0  0  0  0
 22 28  1  0  0  0  0
 23 29  1  0  0  0  0
 23 30  1  0  0  0  0
 31 32  1  0  0  0  0
 31 36  1  0  0  0  0
 32 33  1  0  0  0  0
 32 35  1  0  0  0  0
 32 37  1  0  0  0  0
 33 34  2  0  0  0  0
 33 41  1  0  0  0  0
 35 38  1  0  0  0  0
 35 39  1  0  0  0  0
 35 40  1  0  0  0  0
 41 42  1  0  0  0  0
 41 43  1  0  0  0  0
 42 44  1  0  0  0  0
 42 45  1  0  0  0  0
 42 46  1  0  0  0  0
M  END
$$$$

  -OEChem-05262217223D

 46 46  0     1  0  0  0  0  0999 V2000
   -1.3050    2.6266    4.0848 C   0  0  0  0  0  0  0  0  0  0  0  0
   -1.2292    1.4393    4.3605 O   0  0  0  0  0  0  0  0  0  0  0  0
   -1.2750    3.6676    5.1879 C   0  0  0  0  0  0  0  0  0  0  0  0
   -1.2415    3.1803    6.1662 H   0  0  0  0  0  0  0  0  0  0  0  0
   -0.3917    4.3012    5.0794 H   0  0  0  0  0  0  0  0  0  0  0  0
   -2.1704    4.2918    5.1367 H   0  0  0  0  0  0  0  0  0  0  0  0
   -1.4069    3.0267    2.7697 N   0  0  0  0  0  0  0  0  0  0  0  0
   -1.3550    2.1270    1.6082 C   0  0  2  0  0  0  0  0  0  0  0  0
   -0.7308    2.8209    0.3698 C   0  0  0  0  0  0  0  0  0  0  0  0
   -0.7045    4.0500    0.3877 O   0  0  0  0  0  0  0  0  0  0  0  0
   -2.7940    1.6938    1.3035 C   0  0  0  0  0  0  0  0  0  0  0  0
   -1.3716    4.0271    2.5755 H   0  0  0  0  0  0  0  0  0  0  0  0
   -0.7464    1.2632    1.8692 H   0  0  0  0  0  0  0  0  0  0  0  0
   -3.4185    2.5677    1.0936 H   0  0  0  0  0  0  0  0  0  0  0  0
   -2.8286    1.0320    0.4342 H   0  0  0  0  0  0  0  0  0  0  0  0
   -3.2200    1.1602    2.1587 H   0  0  0  0  0  0  0  0  0  0  0  0
   -0.1996    2.1836   -0.7618 N   0  0  0  0  0  0  0  0  0  0  0  0
   -0.0695    0.7642   -1.1152 C   0  0  2  0  0  0  0  0  0  0  0  0
   -0.2342   -0.3406   -0.0485 C   0  0  0  0  0  0  0  0  0  0  0  0
   -1.2534   -1.0082   -0.0585 O   0  0  0  0  0  0  0  0  0  0  0  0
    1.3179    0.7461   -1.7790 C   0  0  0  0  0  0  0  0  0  0  0  0
    1.5408    2.1790   -2.2726 C   0  0  0  0  0  0  0  0  0  0  0  0
    0.2511    2.9191   -1.9488 C   0  0  0  0  0  0  0  0  0  0  0  0
   -0.8267    0.5457   -1.8774 H   0  0  0  0  0  0  0  0  0  0  0  0
    1.3347    0.0304   -2.6079 H   0  0  0  0  0  0  0  0  0  0  0  0
    2.1133    0.4754   -1.0784 H   0  0  0  0  0  0  0  0  0  0  0  0
    2.3792    2.6352   -1.7357 H   0  0  0  0  0  0  0  0  0  0  0  0
    1.7564    2.2118   -3.3453 H   0  0  0  0  0  0  0  0  0  0  0  0
    0.4527    3.9806   -1.7686 H   0  0  0  0  0  0  0  0  0  0  0  0
   -0.4804    2.8381   -2.7605 H   0  0  0  0  0  0  0  0  0  0  0  0
    0.7762   -0.5727    0.8746 N   0  0  0  0  0  0  0  0  0  0  0  0
    0.9445   -1.7229    1.7909 C   0  0  2  0  0  0  0  0  0  0  0  0
   -0.1468   -2.8322    1.8522 C   0  0  0  0  0  0  0  0  0  0  0  0
    0.0863   -3.9201    1.3464 O   0  0  0  0  0  0  0  0  0  0  0  0
    1.2614   -1.1533    3.1789 C   0  0  0  0  0  0  0  0  0  0  0  0
    1.5721    0.0529    0.7946 H   0  0  0  0  0  0  0  0  0  0  0  0
    1.8408   -2.2542    1.4539 H   0  0  0  0  0  0  0  0  0  0  0  0
    0.4790   -0.4684    3.5131 H   0  0  0  0  0  0  0  0  0  0  0  0
    1.3548   -1.9618    3.9110 H   0  0  0  0  0  0  0  0  0  0  0  0
    2.2055   -0.6014    3.1542 H   0  0  0  0  0  0  0  0  0  0  0  0
   -1.3392   -2.7976    2.5451 N   0  0  0  0  0  0  0  0  0  0  0  0
   -1.9453   -1.6243    3.1564 C   0  0  0  0  0  0  0  0  0  0  0  0
   -1.9154   -3.6218    2.4028 H   0  0  0  0  0  0  0  0  0  0  0  0
   -1.5759   -1.4878    4.1775 H   0  0  0  0  0  0  0  0  0  0  0  0
   -1.7269   -0.7253    2.5772 H   0  0  0  0  0  0  0  0  0  0  0  0
   -3.0322   -1.7430    3.1952 H   0  0  0  0  0  0  0  0  0  0  0  0
  1  2  2  0  0  0  0
  1  3  1  0  0  0  0
  1  7  1  0  0  0  0
  3  4  1  0  0  0  0
  3  5  1  0  0  0  0
  3  6  1  0  0  0  0
  7  8  1  0  0  0  0
  7 12  1  0  0  0  0
  8  9  1  0  0  0  0
  8 11  1  0  0  0  0
  8 13  1  0  0  0  0
  9 10  2  0  0  0  0
  9 17  1  0  0  0  0
 11 14  1  0  0  0  0
 11 15  1  0  0  0  0
 11 16  1  0  0  0  0
 17 18  1  0  0  0  0
 17 23  1  0  0  0  0
 18 19  1  0  0  0  0
 18 21  1  0  0  0  0
 18 24  1  0  0  0  0
 19 20  2  0  0  0  0
 19 31  1  0  0  0  0
 21 22  1  0  0  0  0
 21 25  1  0  0  0  0
 21 26  1  0  0  0  0
 22 23  1  0  0  0  0
 22 27  1  0  0  0  0
 22 28  1  0  0  0  0
 23 29  1  0  0  0  0
 23 30  1  0  0  0  0
 31 32  1  0  0  0  0
 31 36  1  0  0  0  0
 32 33  1  0  0  0  0
 32 35  1  0  0  0  0
 32 37  1  0  0  0  0
 33 34  2  0  0  0  0
 33 41  1  0  0  0  0
 35 38  1  0  0  0  0
 35 39  1  0  0  0  0
 35 40  1  0  0  0  0
 41 42  1  0  0  0  0
 41 43  1  0  0  0  0
 42 44  1  0  0  0  0
 42 45  1  0  0  0  0
 42 46  1  0  0  0  0
M  END
$$$$

  -OEChem-05262217223D

 46 46  0     1  0  0  0  0  0999 V2000
   -2.1573    2.4814    3.5610 C   0  0  0  0  0  0  0  0  0  0  0  0
   -2.2298    1.2640    3.6673 O   0  0  0  0  0  0  0  0  0  0  0  0
   -2.1390    3.3473    4.8060 C   0  0  0  0  0  0  0  0  0  0  0  0
   -2.9725    4.0535    4.7808 H   0  0  0  0  0  0  0  0  0  0  0  0
   -1.2003    3.9043    4.8599 H   0  0  0  0  0  0  0  0  0  0  0  0
   -2.2315    2.7253    5.7007 H   0  0  0  0  0  0  0  0  0  0  0  0
   -2.0566    3.0742    2.3186 N   0  0  0  0  0  0  0  0  0  0  0  0
   -1.8596    2.3385    1.0596 C   0  0  2  0  0  0  0  0  0  0  0  0
   -0.5959    2.8032    0.2870 C   0  0  0  0  0  0  0  0  0  0  0  0
   -0.2170    3.9501    0.5149 O   0  0  0  0  0  0  0  0  0  0  0  0
   -3.1069    2.5532    0.1996 C   0  0  0  0  0  0  0  0  0  0  0  0
   -1.8199    4.0652    2.3040 H   0  0  0  0  0  0  0  0  0  0  0  0
   -1.7773    1.2856    1.2847 H   0  0  0  0  0  0  0  0  0  0  0  0
   -3.2385    3.6156   -0.0291 H   0  0  0  0  0  0  0  0  0  0  0  0
   -3.0237    2.0028   -0.7426 H   0  0  0  0  0  0  0  0  0  0  0  0
   -3.9963    2.1962    0.7281 H   0  0  0  0  0  0  0  0  0  0  0  0
    0.1309    2.0641   -0.6612 N   0  0  0  0  0  0  0  0  0  0  0  0
   -0.0432    0.7071   -1.1968 C   0  0  2  0  0  0  0  0  0  0  0  0
   -0.9568   -0.3338   -0.5031 C   0  0  0  0  0  0  0  0  0  0  0  0
   -2.0297   -0.5972   -1.0180 O   0  0  0  0  0  0  0  0  0  0  0  0
    1.4057    0.2386   -1.3832 C   0  0  0  0  0  0  0  0  0  0  0  0
    2.2129    1.5337   -1.5216 C   0  0  0  0  0  0  0  0  0  0  0  0
    1.1853    2.6590   -1.4924 C   0  0  0  0  0  0  0  0  0  0  0  0
   -0.4834    0.8257   -2.1938 H   0  0  0  0  0  0  0  0  0  0  0  0
    1.4906   -0.3792   -2.2830 H   0  0  0  0  0  0  0  0  0  0  0  0
    1.7770   -0.3456   -0.5410 H   0  0  0  0  0  0  0  0  0  0  0  0
    2.9028    1.6356   -0.6775 H   0  0  0  0  0  0  0  0  0  0  0  0
    2.7948    1.5534   -2.4486 H   0  0  0  0  0  0  0  0  0  0  0  0
    1.6259    3.5677   -1.0679 H   0  0  0  0  0  0  0  0  0  0  0  0
    0.8089    2.8914   -2.4945 H   0  0  0  0  0  0  0  0  0  0  0  0
   -0.8677   -0.8540    0.7755 N   0  0  0  0  0  0  0  0  0  0  0  0
    0.3055   -1.0260    1.6546 C   0  0  2  0  0  0  0  0  0  0  0  0
   -0.0864   -1.8611    2.8915 C   0  0  0  0  0  0  0  0  0  0  0  0
    0.5455   -2.8725    3.1634 O   0  0  0  0  0  0  0  0  0  0  0  0
    0.9154    0.2923    2.1555 C   0  0  0  0  0  0  0  0  0  0  0  0
   -1.6784   -1.4321    0.9958 H   0  0  0  0  0  0  0  0  0  0  0  0
    1.0727   -1.5945    1.1203 H   0  0  0  0  0  0  0  0  0  0  0  0
    0.1653    0.9031    2.6608 H   0  0  0  0  0  0  0  0  0  0  0  0
    1.7181    0.0815    2.8696 H   0  0  0  0  0  0  0  0  0  0  0  0
    1.3463    0.8736    1.3415 H   0  0  0  0  0  0  0  0  0  0  0  0
   -1.1639   -1.4929    3.6766 N   0  0  0  0  0  0  0  0  0  0  0  0
   -1.5435   -2.1994    4.8921 C   0  0  0  0  0  0  0  0  0  0  0  0
   -1.5801   -0.5725    3.5029 H   0  0  0  0  0  0  0  0  0  0  0  0
   -0.7337   -2.1585    5.6279 H   0  0  0  0  0  0  0  0  0  0  0  0
   -2.4345   -1.7391    5.3303 H   0  0  0  0  0  0  0  0  0  0  0  0
   -1.7695   -3.2480    4.6724 H   0  0  0  0  0  0  0  0  0  0  0  0
  1  2  2  0  0  0  0
  1  3  1  0  0  0  0
  1  7  1  0  0  0  0
  3  4  1  0  0  0  0
  3  5  1  0  0  0  0
  3  6  1  0  0  0  0
  7  8  1  0  0  0  0
  7 12  1  0  0  0  0
  8  9  1  0  0  0  0
  8 11  1  0  0  0  0
  8 13  1  0  0  0  0
  9 10  2  0  0  0  0
  9 17  1  0  0  0  0
 11 14  1  0  0  0  0
 11 15  1  0  0  0  0
 11 16  1  0  0  0  0
 17 18  1  0  0  0  0
 17 23  1  0  0  0  0
 18 19  1  0  0  0  0
 18 21  1  0  0  0  0
 18 24  1  0  0  0  0
 19 20  2  0  0  0  0
 19 31  1  0  0  0  0
 21 22  1  0  0  0  0
 21 25  1  0  0  0  0
 21 26  1  0  0  0  0
 22 23  1  0  0  0  0
 22 27  1  0  0  0  0
 22 28  1  0  0  0  0
 23 29  1  0  0  0  0
 23 30  1  0  0  0  0
 31 32  1  0  0  0  0
 31 36  1  0  0  0  0
 32 33  1  0  0  0  0
 32 35  1  0  0  0  0
 32 37  1  0  0  0  0
 33 34  2  0  0  0  0
 33 41  1  0  0  0  0
 35 38  1  0  0  0  0
 35 39  1  0  0  0  0
 35 40  1  0  0  0  0
 41 42  1  0  0  0  0
 41 43  1  0  0  0  0
 42 44  1  0  0  0  0
 42 45  1  0  0  0  0
 42 46  1  0  0  0  0
M  END
$$$$

  -OEChem-05262217223D

 46 46  0     1  0  0  0  0  0999 V2000
   -1.9326    2.4547    3.9678 C   0  0  0  0  0  0  0  0  0  0  0  0
   -2.2973    1.2925    3.8438 O   0  0  0  0  0  0  0  0  0  0  0  0
   -1.7449    3.0434    5.3531 C   0  0  0  0  0  0  0  0  0  0  0  0
   -2.4762    3.8376    5.5220 H   0  0  0  0  0  0  0  0  0  0  0  0
   -1.8814    2.2700    6.1142 H   0  0  0  0  0  0  0  0  0  0  0  0
   -0.7385    3.4581    5.4500 H   0  0  0  0  0  0  0  0  0  0  0  0
   -1.6628    3.2283    2.8569 N   0  0  0  0  0  0  0  0  0  0  0  0
   -1.5911    2.7047    1.4835 C   0  0  2  0  0  0  0  0  0  0  0  0
   -0.2399    3.0186    0.7877 C   0  0  0  0  0  0  0  0  0  0  0  0
    0.4115    3.9380    1.2798 O   0  0  0  0  0  0  0  0  0  0  0  0
   -2.7461    3.3219    0.6919 C   0  0  0  0  0  0  0  0  0  0  0  0
   -1.1874    4.1138    3.0254 H   0  0  0  0  0  0  0  0  0  0  0  0
   -1.7320    1.6389    1.5221 H   0  0  0  0  0  0  0  0  0  0  0  0
   -2.6448    4.4112    0.6535 H   0  0  0  0  0  0  0  0  0  0  0  0
   -2.7601    2.9376   -0.3325 H   0  0  0  0  0  0  0  0  0  0  0  0
   -3.7025    3.0754    1.1639 H   0  0  0  0  0  0  0  0  0  0  0  0
    0.2956    2.3918   -0.3514 N   0  0  0  0  0  0  0  0  0  0  0  0
   -0.1871    1.3018   -1.2173 C   0  0  2  0  0  0  0  0  0  0  0  0
   -1.3325    0.3273   -0.8379 C   0  0  0  0  0  0  0  0  0  0  0  0
   -2.3566    0.3624   -1.4979 O   0  0  0  0  0  0  0  0  0  0  0  0
    1.1114    0.5512   -1.5402 C   0  0  0  0  0  0  0  0  0  0  0  0
    2.2208    1.5897   -1.3568 C   0  0  0  0  0  0  0  0  0  0  0  0
    1.5026    2.8909   -1.0250 C   0  0  0  0  0  0  0  0  0  0  0  0
   -0.5383    1.7826   -2.1378 H   0  0  0  0  0  0  0  0  0  0  0  0
    1.0869    0.1751   -2.5683 H   0  0  0  0  0  0  0  0  0  0  0  0
    1.2791   -0.2986   -0.8754 H   0  0  0  0  0  0  0  0  0  0  0  0
    2.8718    1.2986   -0.5260 H   0  0  0  0  0  0  0  0  0  0  0  0
    2.8338    1.6945   -2.2575 H   0  0  0  0  0  0  0  0  0  0  0  0
    2.1371    3.5245   -0.3957 H   0  0  0  0  0  0  0  0  0  0  0  0
    1.2415    3.4525   -1.9287 H   0  0  0  0  0  0  0  0  0  0  0  0
   -1.5355   -0.3367    0.3550 N   0  0  0  0  0  0  0  0  0  0  0  0
   -0.5230   -1.0803    1.1310 C   0  0  2  0  0  0  0  0  0  0  0  0
   -1.2171   -2.0365    2.1233 C   0  0  0  0  0  0  0  0  0  0  0  0
   -0.9696   -3.2334    2.0803 O   0  0  0  0  0  0  0  0  0  0  0  0
    0.4434   -0.1906    1.9281 C   0  0  0  0  0  0  0  0  0  0  0  0
   -2.4769   -0.7277    0.3866 H   0  0  0  0  0  0  0  0  0  0  0  0
    0.0597   -1.7024    0.4436 H   0  0  0  0  0  0  0  0  0  0  0  0
   -0.0968    0.4430    2.6343 H   0  0  0  0  0  0  0  0  0  0  0  0
    1.1360   -0.8172    2.4993 H   0  0  0  0  0  0  0  0  0  0  0  0
    1.0388    0.4457    1.2745 H   0  0  0  0  0  0  0  0  0  0  0  0
   -2.1473   -1.5594    3.0292 N   0  0  0  0  0  0  0  0  0  0  0  0
   -2.8047   -2.4033    4.0172 C   0  0  0  0  0  0  0  0  0  0  0  0
   -2.2354   -0.5428    3.1264 H   0  0  0  0  0  0  0  0  0  0  0  0
   -3.3613   -3.2077    3.5249 H   0  0  0  0  0  0  0  0  0  0  0  0
   -2.0677   -2.8460    4.6951 H   0  0  0  0  0  0  0  0  0  0  0  0
   -3.5080   -1.8092    4.6090 H   0  0  0  0  0  0  0  0  0  0  0  0
  1  2  2  0  0  0  0
  1  3  1  0  0  0  0
  1  7  1  0  0  0  0
  3  4  1  0  0  0  0
  3  5  1  0  0  0  0
  3  6  1  0  0  0  0
  7  8  1  0  0  0  0
  7 12  1  0  0  0  0
  8  9  1  0  0  0  0
  8 11  1  0  0  0  0
  8 13  1  0  0  0  0
  9 10  2  0  0  0  0
  9 17  1  0  0  0  0
 11 14  1  0  0  0  0
 11 15  1  0  0  0  0
 11 16  1  0  0  0  0
 17 18  1  0  0  0  0
 17 23  1  0  0  0  0
 18 19  1  0  0  0  0
 18 21  1  0  0  0  0
 18 24  1  0  0  0  0
 19 20  2  0  0  0  0
 19 31  1  0  0  0  0
 21 22  1  0  0  0  0
 21 25  1  0  0  0  0
 21 26  1  0  0  0  0
 22 23  1  0  0  0  0
 22 27  1  0  0  0  0
 22 28  1  0  0  0  0
 23 29  1  0  0  0  0
 23 30  1  0  0  0  0
 31 32  1  0  0  0  0
 31 36  1  0  0  0  0
 32 33  1  0  0  0  0
 32 35  1  0  0  0  0
 32 37  1  0  0  0  0
 33 34  2  0  0  0  0
 33 41  1  0  0  0  0
 35 38  1  0  0  0  0
 35 39  1  0  0  0  0
 35 40  1  0  0  0  0
 41 42  1  0  0  0  0
 41 43  1  0  0  0  0
 42 44  1  0  0  0  0
 42 45  1  0  0  0  0
 42 46  1  0  0  0  0
M  END
$$$$

  -OEChem-05262217223D

 46 46  0     1  0  0  0  0  0999 V2000
   -2.2503    2.6115    3.9074 C   0  0  0  0  0  0  0  0  0  0  0  0
   -2.5981    1.4400    3.8275 O   0  0  0  0  0  0  0  0  0  0  0  0
   -2.1624    3.2857    5.2634 C   0  0  0  0  0  0  0  0  0  0  0  0
   -2.8404    4.1421    5.2983 H   0  0  0  0  0  0  0  0  0  0  0  0
   -2.4409    2.5837    6.0544 H   0  0  0  0  0  0  0  0  0  0  0  0
   -1.1413    3.6316    5.4432 H   0  0  0  0  0  0  0  0  0  0  0  0
   -1.9124    3.3196    2.7718 N   0  0  0  0  0  0  0  0  0  0  0  0
   -1.7379    2.7079    1.4451 C   0  0  2  0  0  0  0  0  0  0  0  0
   -0.3845    3.0727    0.7812 C   0  0  0  0  0  0  0  0  0  0  0  0
    0.2183    4.0125    1.2971 O   0  0  0  0  0  0  0  0  0  0  0  0
   -2.9075    3.1630    0.5684 C   0  0  0  0  0  0  0  0  0  0  0  0
   -1.4480    4.2153    2.9171 H   0  0  0  0  0  0  0  0  0  0  0  0
   -1.7830    1.6421    1.5711 H   0  0  0  0  0  0  0  0  0  0  0  0
   -2.8939    4.2507    0.4471 H   0  0  0  0  0  0  0  0  0  0  0  0
   -2.8522    2.7030   -0.4225 H   0  0  0  0  0  0  0  0  0  0  0  0
   -3.8580    2.8746    1.0281 H   0  0  0  0  0  0  0  0  0  0  0  0
    0.2059    2.4747   -0.3478 N   0  0  0  0  0  0  0  0  0  0  0  0
   -0.1923    1.3717   -1.2470 C   0  0  2  0  0  0  0  0  0  0  0  0
   -1.2912    0.3097   -0.9748 C   0  0  0  0  0  0  0  0  0  0  0  0
   -2.1576    0.1633   -1.8190 O   0  0  0  0  0  0  0  0  0  0  0  0
    1.1502    0.6684   -1.4873 C   0  0  0  0  0  0  0  0  0  0  0  0
    2.2135    1.7386   -1.2356 C   0  0  0  0  0  0  0  0  0  0  0  0
    1.4337    3.0131   -0.9510 C   0  0  0  0  0  0  0  0  0  0  0  0
   -0.5064    1.8509   -2.1817 H   0  0  0  0  0  0  0  0  0  0  0  0
    1.2033    0.2913   -2.5141 H   0  0  0  0  0  0  0  0  0  0  0  0
    1.2993   -0.1769   -0.8096 H   0  0  0  0  0  0  0  0  0  0  0  0
    2.8189    1.4676   -0.3644 H   0  0  0  0  0  0  0  0  0  0  0  0
    2.8786    1.8643   -2.0958 H   0  0  0  0  0  0  0  0  0  0  0  0
    2.0119    3.6694   -0.2916 H   0  0  0  0  0  0  0  0  0  0  0  0
    1.2061    3.5633   -1.8705 H   0  0  0  0  0  0  0  0  0  0  0  0
   -1.6996   -0.2092    0.2318 N   0  0  0  0  0  0  0  0  0  0  0  0
   -0.8066   -1.0259    1.0800 C   0  0  2  0  0  0  0  0  0  0  0  0
   -1.6339   -1.9336    2.0143 C   0  0  0  0  0  0  0  0  0  0  0  0
   -1.4888   -3.1464    1.9567 O   0  0  0  0  0  0  0  0  0  0  0  0
    0.1744   -0.2133    1.9404 C   0  0  0  0  0  0  0  0  0  0  0  0
   -2.6358   -0.6005    0.1259 H   0  0  0  0  0  0  0  0  0  0  0  0
   -0.2216   -1.6850    0.4285 H   0  0  0  0  0  0  0  0  0  0  0  0
   -0.3536    0.3838    2.6878 H   0  0  0  0  0  0  0  0  0  0  0  0
    0.8466   -0.8942    2.4721 H   0  0  0  0  0  0  0  0  0  0  0  0
    0.7872    0.4523    1.3324 H   0  0  0  0  0  0  0  0  0  0  0  0
   -2.5708   -1.3962    2.8788 N   0  0  0  0  0  0  0  0  0  0  0  0
   -3.3531   -2.2025    3.8055 C   0  0  0  0  0  0  0  0  0  0  0  0
   -2.5801   -0.3790    2.9989 H   0  0  0  0  0  0  0  0  0  0  0  0
   -3.9609   -2.9322    3.2602 H   0  0  0  0  0  0  0  0  0  0  0  0
   -2.6952   -2.7369    4.4986 H   0  0  0  0  0  0  0  0  0  0  0  0
   -4.0227   -1.5615    4.3872 H   0  0  0  0  0  0  0  0  0  0  0  0
  1  2  2  0  0  0  0
  1  3  1  0  0  0  0
  1  7  1  0  0  0  0
  3  4  1  0  0  0  0
  3  5  1  0  0  0  0
  3  6  1  0  0  0  0
  7  8  1  0  0  0  0
  7 12  1  0  0  0  0
  8  9  1  0  0  0  0
  8 11  1  0  0  0  0
  8 13  1  0  0  0  0
  9 10  2  0  0  0  0
  9 17  1  0  0  0  0
 11 14  1  0  0  0  0
 11 15  1  0  0  0  0
 11 16  1  0  0  0  0
 17 18  1  0  0  0  0
 17 23  1  0  0  0  0
 18 19  1  0  0  0  0
 18 21  1  0  0  0  0
 18 24  1  0  0  0  0
 19 20  2  0  0  0  0
 19 31  1  0  0  0  0
 21 22  1  0  0  0  0
 21 25  1  0  0  0  0
 21 26  1  0  0  0  0
 22 23  1  0  0  0  0
 22 27  1  0  0  0  0
 22 28  1  0  0  0  0
 23 29  1  0  0  0  0
 23 30  1  0  0  0  0
 31 32  1  0  0  0  0
 31 36  1  0  0  0  0
 32 33  1  0  0  0  0
 32 35  1  0  0  0  0
 32 37  1  0  0  0  0
 33 34  2  0  0  0  0
 33 41  1  0  0  0  0
 35 38  1  0  0  0  0
 35 39  1  0  0  0  0
 35 40  1  0  0  0  0
 41 42  1  0  0  0  0
 41 43  1  0  0  0  0
 42 44  1  0  0  0  0
 42 45  1  0  0  0  0
 42 46  1  0  0  0  0
M  END
$$$$

  -OEChem-05262217223D

 46 46  0     1  0  0  0  0  0999 V2000
   -2.4811    1.7646    3.6594 C   0  0  0  0  0  0  0  0  0  0  0  0
   -3.4806    1.1042    3.4218 O   0  0  0  0  0  0  0  0  0  0  0  0
   -1.9483    1.8565    5.0767 C   0  0  0  0  0  0  0  0  0  0  0  0
   -2.5475    1.2314    5.7445 H   0  0  0  0  0  0  0  0  0  0  0  0
   -0.9131    1.5072    5.1096 H   0  0  0  0  0  0  0  0  0  0  0  0
   -1.9894    2.8902    5.4277 H   0  0  0  0  0  0  0  0  0  0  0  0
   -1.8499    2.4590    2.6432 N   0  0  0  0  0  0  0  0  0  0  0  0
   -2.4294    2.6739    1.3050 C   0  0  2  0  0  0  0  0  0  0  0  0
   -1.4758    3.4856    0.3922 C   0  0  0  0  0  0  0  0  0  0  0  0
   -1.4121    4.6864    0.6382 O   0  0  0  0  0  0  0  0  0  0  0  0
   -3.7646    3.4398    1.4342 C   0  0  0  0  0  0  0  0  0  0  0  0
   -1.1452    3.1277    2.9500 H   0  0  0  0  0  0  0  0  0  0  0  0
   -2.6675    1.7286    0.8173 H   0  0  0  0  0  0  0  0  0  0  0  0
   -3.6384    4.3405    2.0440 H   0  0  0  0  0  0  0  0  0  0  0  0
   -4.1274    3.7394    0.4458 H   0  0  0  0  0  0  0  0  0  0  0  0
   -4.5359    2.8171    1.8952 H   0  0  0  0  0  0  0  0  0  0  0  0
   -0.6081    3.0000   -0.6001 N   0  0  0  0  0  0  0  0  0  0  0  0
   -0.2759    1.6572   -1.1215 C   0  0  2  0  0  0  0  0  0  0  0  0
   -0.5721    0.2748   -0.4890 C   0  0  0  0  0  0  0  0  0  0  0  0
   -0.4266   -0.6981   -1.2171 O   0  0  0  0  0  0  0  0  0  0  0  0
    1.2500    1.7728   -1.2613 C   0  0  0  0  0  0  0  0  0  0  0  0
    1.5455    3.2632   -1.4080 C   0  0  0  0  0  0  0  0  0  0  0  0
    0.1792    3.9222   -1.4350 C   0  0  0  0  0  0  0  0  0  0  0  0
   -0.7313    1.5995   -2.1165 H   0  0  0  0  0  0  0  0  0  0  0  0
    1.5995    1.2096   -2.1334 H   0  0  0  0  0  0  0  0  0  0  0  0
    1.7586    1.3803   -0.3739 H   0  0  0  0  0  0  0  0  0  0  0  0
    2.1203    3.6205   -0.5469 H   0  0  0  0  0  0  0  0  0  0  0  0
    2.1107    3.4815   -2.3196 H   0  0  0  0  0  0  0  0  0  0  0  0
    0.2496    4.9464   -1.0537 H   0  0  0  0  0  0  0  0  0  0  0  0
   -0.2277    3.9661   -2.4514 H   0  0  0  0  0  0  0  0  0  0  0  0
   -0.9410    0.0380    0.8230 N   0  0  0  0  0  0  0  0  0  0  0  0
   -0.7882   -1.2883    1.4542 C   0  0  2  0  0  0  0  0  0  0  0  0
   -1.5296   -1.3763    2.8076 C   0  0  0  0  0  0  0  0  0  0  0  0
   -0.9932   -1.0178    3.8476 O   0  0  0  0  0  0  0  0  0  0  0  0
    0.7097   -1.5862    1.6422 C   0  0  0  0  0  0  0  0  0  0  0  0
   -0.9755    0.8439    1.4458 H   0  0  0  0  0  0  0  0  0  0  0  0
   -1.2059   -2.0594    0.7995 H   0  0  0  0  0  0  0  0  0  0  0  0
    1.2198   -1.6444    0.6763 H   0  0  0  0  0  0  0  0  0  0  0  0
    1.1869   -0.8037    2.2408 H   0  0  0  0  0  0  0  0  0  0  0  0
    0.8423   -2.5444    2.1543 H   0  0  0  0  0  0  0  0  0  0  0  0
   -2.8337   -1.7943    2.9384 N   0  0  0  0  0  0  0  0  0  0  0  0
   -3.7316   -1.9617    1.8050 C   0  0  0  0  0  0  0  0  0  0  0  0
   -3.2455   -1.5206    3.8280 H   0  0  0  0  0  0  0  0  0  0  0  0
   -3.7565   -1.0525    1.1946 H   0  0  0  0  0  0  0  0  0  0  0  0
   -3.4151   -2.8034    1.1808 H   0  0  0  0  0  0  0  0  0  0  0  0
   -4.7466   -2.1632    2.1612 H   0  0  0  0  0  0  0  0  0  0  0  0
  1  2  2  0  0  0  0
  1  3  1  0  0  0  0
  1  7  1  0  0  0  0
  3  4  1  0  0  0  0
  3  5  1  0  0  0  0
  3  6  1  0  0  0  0
  7  8  1  0  0  0  0
  7 12  1  0  0  0  0
  8  9  1  0  0  0  0
  8 11  1  0  0  0  0
  8 13  1  0  0  0  0
  9 10  2  0  0  0  0
  9 17  1  0  0  0  0
 11 14  1  0  0  0  0
 11 15  1  0  0  0  0
 11 16  1  0  0  0  0
 17 18  1  0  0  0  0
 17 23  1  0  0  0  0
 18 19  1  0  0  0  0
 18 21  1  0  0  0  0
 18 24  1  0  0  0  0
 19 20  2  0  0  0  0
 19 31  1  0  0  0  0
 21 22  1  0  0  0  0
 21 25  1  0  0  0  0
 21 26  1  0  0  0  0
 22 23  1  0  0  0  0
 22 27  1  0  0  0  0
 22 28  1  0  0  0  0
 23 29  1  0  0  0  0
 23 30  1  0  0  0  0
 31 32  1  0  0  0  0
 31 36  1  0  0  0  0
 32 33  1  0  0  0  0
 32 35  1  0  0  0  0
 32 37  1  0  0  0  0
 33 34  2  0  0  0  0
 33 41  1  0  0  0  0
 35 38  1  0  0  0  0
 35 39  1  0  0  0  0
 35 40  1  0  0  0  0
 41 42  1  0  0  0  0
 41 43  1  0  0  0  0
 42 44  1  0  0  0  0
 42 45  1  0  0  0  0
 42 46  1  0  0  0  0
M  END
$$$$

  -OEChem-05262217223D

 46 46  0     1  0  0  0  0  0999 V2000
    0.2183    2.4105    3.2560 C   0  0  0  0  0  0  0  0  0  0  0  0
    0.2722    1.2963    2.7596 O   0  0  0  0  0  0  0  0  0  0  0  0
    1.1281    2.7823    4.4108 C   0  0  0  0  0  0  0  0  0  0  0  0
    0.5310    3.0761    5.2777 H   0  0  0  0  0  0  0  0  0  0  0  0
    1.7549    1.9297    4.6872 H   0  0  0  0  0  0  0  0  0  0  0  0
    1.7745    3.6151    4.1230 H   0  0  0  0  0  0  0  0  0  0  0  0
   -0.6675    3.3340    2.7463 N   0  0  0  0  0  0  0  0  0  0  0  0
   -1.4064    3.1341    1.4905 C   0  0  2  0  0  0  0  0  0  0  0  0
   -0.4706    3.1071    0.2518 C   0  0  0  0  0  0  0  0  0  0  0  0
    0.1386    4.1602    0.0751 O   0  0  0  0  0  0  0  0  0  0  0  0
   -2.4075    4.2922    1.3850 C   0  0  0  0  0  0  0  0  0  0  0  0
   -0.5393    4.2919    3.0615 H   0  0  0  0  0  0  0  0  0  0  0  0
   -2.0150    2.2461    1.5346 H   0  0  0  0  0  0  0  0  0  0  0  0
   -3.1015    4.2715    2.2313 H   0  0  0  0  0  0  0  0  0  0  0  0
   -1.8924    5.2585    1.3813 H   0  0  0  0  0  0  0  0  0  0  0  0
   -2.9889    4.2071    0.4614 H   0  0  0  0  0  0  0  0  0  0  0  0
   -0.2329    2.0680   -0.6728 N   0  0  0  0  0  0  0  0  0  0  0  0
   -0.7118    0.6725   -0.8637 C   0  0  2  0  0  0  0  0  0  0  0  0
   -1.4578   -0.2891    0.1034 C   0  0  0  0  0  0  0  0  0  0  0  0
   -1.9368   -1.2975   -0.4055 O   0  0  0  0  0  0  0  0  0  0  0  0
    0.6057   -0.0296   -1.2311 C   0  0  0  0  0  0  0  0  0  0  0  0
    1.5175    1.0497   -1.8027 C   0  0  0  0  0  0  0  0  0  0  0  0
    0.6590    2.2982   -1.8226 C   0  0  0  0  0  0  0  0  0  0  0  0
   -1.3648    0.7099   -1.7426 H   0  0  0  0  0  0  0  0  0  0  0  0
    0.4281   -0.8276   -1.9599 H   0  0  0  0  0  0  0  0  0  0  0  0
    1.0733   -0.4722   -0.3441 H   0  0  0  0  0  0  0  0  0  0  0  0
    2.3832    1.1970   -1.1486 H   0  0  0  0  0  0  0  0  0  0  0  0
    1.8755    0.7956   -2.8052 H   0  0  0  0  0  0  0  0  0  0  0  0
    1.2973    3.1847   -1.7461 H   0  0  0  0  0  0  0  0  0  0  0  0
    0.0815    2.3762   -2.7501 H   0  0  0  0  0  0  0  0  0  0  0  0
   -1.8375   -0.0297    1.4016 N   0  0  0  0  0  0  0  0  0  0  0  0
   -2.6670   -0.9220    2.2276 C   0  0  2  0  0  0  0  0  0  0  0  0
   -4.1754   -0.7716    1.9118 C   0  0  0  0  0  0  0  0  0  0  0  0
   -4.9741   -0.3474    2.7392 O   0  0  0  0  0  0  0  0  0  0  0  0
   -2.3375   -0.6209    3.6948 C   0  0  0  0  0  0  0  0  0  0  0  0
   -1.2199    0.6142    1.9033 H   0  0  0  0  0  0  0  0  0  0  0  0
   -2.3948   -1.9650    2.0346 H   0  0  0  0  0  0  0  0  0  0  0  0
   -2.5863    0.4163    3.9403 H   0  0  0  0  0  0  0  0  0  0  0  0
   -2.9090   -1.2807    4.3551 H   0  0  0  0  0  0  0  0  0  0  0  0
   -1.2721   -0.7806    3.8868 H   0  0  0  0  0  0  0  0  0  0  0  0
   -4.6307   -1.1034    0.6513 N   0  0  0  0  0  0  0  0  0  0  0  0
   -6.0071   -0.9325    0.2088 C   0  0  0  0  0  0  0  0  0  0  0  0
   -3.9135   -1.3812   -0.0231 H   0  0  0  0  0  0  0  0  0  0  0  0
   -6.6897   -1.4944    0.8549 H   0  0  0  0  0  0  0  0  0  0  0  0
   -6.2878    0.1255    0.2329 H   0  0  0  0  0  0  0  0  0  0  0  0
   -6.1216   -1.2994   -0.8158 H   0  0  0  0  0  0  0  0  0  0  0  0
  1  2  2  0  0  0  0
  1  3  1  0  0  0  0
  1  7  1  0  0  0  0
  3  4  1  0  0  0  0
  3  5  1  0  0  0  0
  3  6  1  0  0  0  0
  7  8  1  0  0  0  0
  7 12  1  0  0  0  0
  8  9  1  0  0  0  0
  8 11  1  0  0  0  0
  8 13  1  0  0  0  0
  9 10  2  0  0  0  0
  9 17  1  0  0  0  0
 11 14  1  0  0  0  0
 11 15  1  0  0  0  0
 11 16  1  0  0  0  0
 17 18  1  0  0  0  0
 17 23  1  0  0  0  0
 18 19  1  0  0  0  0
 18 21  1  0  0  0  0
 18 24  1  0  0  0  0
 19 20  2  0  0  0  0
 19 31  1  0  0  0  0
 21 22  1  0  0  0  0
 21 25  1  0  0  0  0
 21 26  1  0  0  0  0
 22 23  1  0  0  0  0
 22 27  1  0  0  0  0
 22 28  1  0  0  0  0
 23 29  1  0  0  0  0
 23 30  1  0  0  0  0
 31 32  1  0  0  0  0
 31 36  1  0  0  0  0
 32 33  1  0  0  0  0
 32 35  1  0  0  0  0
 32 37  1  0  0  0  0
 33 34  2  0  0  0  0
 33 41  1  0  0  0  0
 35 38  1  0  0  0  0
 35 39  1  0  0  0  0
 35 40  1  0  0  0  0
 41 42  1  0  0  0  0
 41 43  1  0  0  0  0
 42 44  1  0  0  0  0
 42 45  1  0  0  0  0
 42 46  1  0  0  0  0
M  END
$$$$

  -OEChem-05262217223D

 46 46  0     1  0  0  0  0  0999 V2000
   -0.6842    1.9580    4.0282 C   0  0  0  0  0  0  0  0  0  0  0  0
   -1.3039    0.9566    3.6954 O   0  0  0  0  0  0  0  0  0  0  0  0
   -0.0472    2.0278    5.4032 C   0  0  0  0  0  0  0  0  0  0  0  0
   -0.4635    2.8676    5.9651 H   0  0  0  0  0  0  0  0  0  0  0  0
   -0.2391    1.1042    5.9566 H   0  0  0  0  0  0  0  0  0  0  0  0
    1.0331    2.1620    5.3068 H   0  0  0  0  0  0  0  0  0  0  0  0
   -0.5395    3.0199    3.1571 N   0  0  0  0  0  0  0  0  0  0  0  0
   -0.8538    2.9103    1.7232 C   0  0  2  0  0  0  0  0  0  0  0  0
    0.3515    2.4765    0.8712 C   0  0  0  0  0  0  0  0  0  0  0  0
    1.4540    2.7585    1.3383 O   0  0  0  0  0  0  0  0  0  0  0  0
   -1.4013    4.2571    1.2483 C   0  0  0  0  0  0  0  0  0  0  0  0
    0.1835    3.6894    3.4094 H   0  0  0  0  0  0  0  0  0  0  0  0
   -1.6103    2.1633    1.5997 H   0  0  0  0  0  0  0  0  0  0  0  0
   -0.6394    5.0368    1.3465 H   0  0  0  0  0  0  0  0  0  0  0  0
   -1.7048    4.1976    0.1986 H   0  0  0  0  0  0  0  0  0  0  0  0
   -2.2740    4.5423    1.8436 H   0  0  0  0  0  0  0  0  0  0  0  0
    0.3096    1.8678   -0.3936 N   0  0  0  0  0  0  0  0  0  0  0  0
   -0.7680    1.4397   -1.3209 C   0  0  2  0  0  0  0  0  0  0  0  0
   -2.3012    1.2235   -1.1235 C   0  0  0  0  0  0  0  0  0  0  0  0
   -2.9291    1.0177   -2.1479 O   0  0  0  0  0  0  0  0  0  0  0  0
   -0.1956    0.0910   -1.7929 C   0  0  0  0  0  0  0  0  0  0  0  0
    1.3162    0.1779   -1.6064 C   0  0  0  0  0  0  0  0  0  0  0  0
    1.5570    1.5938   -1.1232 C   0  0  0  0  0  0  0  0  0  0  0  0
   -0.7286    2.1605   -2.1453 H   0  0  0  0  0  0  0  0  0  0  0  0
   -0.4536   -0.0908   -2.8420 H   0  0  0  0  0  0  0  0  0  0  0  0
   -0.5950   -0.7351   -1.1943 H   0  0  0  0  0  0  0  0  0  0  0  0
    1.6450   -0.5409   -0.8486 H   0  0  0  0  0  0  0  0  0  0  0  0
    1.8573   -0.0225   -2.5363 H   0  0  0  0  0  0  0  0  0  0  0  0
    2.4652    1.6298   -0.5124 H   0  0  0  0  0  0  0  0  0  0  0  0
    1.6797    2.2914   -1.9589 H   0  0  0  0  0  0  0  0  0  0  0  0
   -3.1750    1.5984   -0.1301 N   0  0  0  0  0  0  0  0  0  0  0  0
   -3.4298    0.6224    0.9486 C   0  0  2  0  0  0  0  0  0  0  0  0
   -4.2750   -0.5904    0.5001 C   0  0  0  0  0  0  0  0  0  0  0  0
   -5.2541   -0.4306   -0.2162 O   0  0  0  0  0  0  0  0  0  0  0  0
   -4.1933    1.3439    2.0691 C   0  0  0  0  0  0  0  0  0  0  0  0
   -4.0556    1.8275   -0.5936 H   0  0  0  0  0  0  0  0  0  0  0  0
   -2.4830    0.2386    1.3417 H   0  0  0  0  0  0  0  0  0  0  0  0
   -3.6501    2.2250    2.4191 H   0  0  0  0  0  0  0  0  0  0  0  0
   -4.3362    0.6726    2.9217 H   0  0  0  0  0  0  0  0  0  0  0  0
   -5.1772    1.6680    1.7142 H   0  0  0  0  0  0  0  0  0  0  0  0
   -3.9813   -1.8537    0.9791 N   0  0  0  0  0  0  0  0  0  0  0  0
   -4.7803   -3.0310    0.6627 C   0  0  0  0  0  0  0  0  0  0  0  0
   -3.2174   -1.9397    1.6441 H   0  0  0  0  0  0  0  0  0  0  0  0
   -5.8018   -2.9125    1.0387 H   0  0  0  0  0  0  0  0  0  0  0  0
   -4.8197   -3.1872   -0.4206 H   0  0  0  0  0  0  0  0  0  0  0  0
   -4.3419   -3.9213    1.1237 H   0  0  0  0  0  0  0  0  0  0  0  0
  1  2  2  0  0  0  0
  1  3  1  0  0  0  0
  1  7  1  0  0  0  0
  3  4  1  0  0  0  0
  3  5  1  0  0  0  0
  3  6  1  0  0  0  0
  7  8  1  0  0  0  0
  7 12  1  0  0  0  0
  8  9  1  0  0  0  0
  8 11  1  0  0  0  0
  8 13  1  0  0  0  0
  9 10  2  0  0  0  0
  9 17  1  0  0  0  0
 11 14  1  0  0  0  0
 11 15  1  0  0  0  0
 11 16  1  0  0  0  0
 17 18  1  0  0  0  0
 17 23  1  0  0  0  0
 18 19  1  0  0  0  0
 18 21  1  0  0  0  0
 18 24  1  0  0  0  0
 19 20  2  0  0  0  0
 19 31  1  0  0  0  0
 21 22  1  0  0  0  0
 21 25  1  0  0  0  0
 21 26  1  0  0  0  0
 22 23  1  0  0  0  0
 22 27  1  0  0  0  0
 22 28  1  0  0  0  0
 23 29  1  0  0  0  0
 23 30  1  0  0  0  0
 31 32  1  0  0  0  0
 31 36  1  0  0  0  0
 32 33  1  0  0  0  0
 32 35  1  0  0  0  0
 32 37  1  0  0  0  0
 33 34  2  0  0  0  0
 33 41  1  0  0  0  0
 35 38  1  0  0  0  0
 35 39  1  0  0  0  0
 35 40  1  0  0  0  0
 41 42  1  0  0  0  0
 41 43  1  0  0  0  0
 42 44  1  0  0  0  0
 42 45  1  0  0  0  0
 42 46  1  0  0  0  0
M  END
$$$$

  -OEChem-05262217223D

 46 46  0     1  0  0  0  0  0999 V2000
   -1.3432    1.2202    3.6356 C   0  0  0  0  0  0  0  0  0  0  0  0
   -2.5386    0.9733    3.6364 O   0  0  0  0  0  0  0  0  0  0  0  0
   -0.4348    0.5502    4.6490 C   0  0  0  0  0  0  0  0  0  0  0  0
    0.0204    1.3025    5.2977 H   0  0  0  0  0  0  0  0  0  0  0  0
   -1.0076   -0.1467    5.2675 H   0  0  0  0  0  0  0  0  0  0  0  0
    0.3546   -0.0039    4.1352 H   0  0  0  0  0  0  0  0  0  0  0  0
   -0.8032    2.0795    2.7005 N   0  0  0  0  0  0  0  0  0  0  0  0
   -1.5765    2.8895    1.7425 C   0  0  2  0  0  0  0  0  0  0  0  0
   -0.7255    3.1899    0.4779 C   0  0  0  0  0  0  0  0  0  0  0  0
   -0.1930    4.2958    0.4498 O   0  0  0  0  0  0  0  0  0  0  0  0
   -2.0236    4.1589    2.4879 C   0  0  0  0  0  0  0  0  0  0  0  0
    0.1872    2.2893    2.7979 H   0  0  0  0  0  0  0  0  0  0  0  0
   -2.4922    2.3984    1.4301 H   0  0  0  0  0  0  0  0  0  0  0  0
   -1.1613    4.7032    2.8865 H   0  0  0  0  0  0  0  0  0  0  0  0
   -2.5706    4.8228    1.8113 H   0  0  0  0  0  0  0  0  0  0  0  0
   -2.6839    3.8978    3.3206 H   0  0  0  0  0  0  0  0  0  0  0  0
   -0.4689    2.3481   -0.6242 N   0  0  0  0  0  0  0  0  0  0  0  0
   -0.8651    0.9696   -1.0012 C   0  0  2  0  0  0  0  0  0  0  0  0
   -1.4876   -0.0974   -0.0532 C   0  0  0  0  0  0  0  0  0  0  0  0
   -0.9653   -1.1849    0.1435 O   0  0  0  0  0  0  0  0  0  0  0  0
    0.4587    0.4546   -1.6027 C   0  0  0  0  0  0  0  0  0  0  0  0
    1.2226    1.6924   -2.0634 C   0  0  0  0  0  0  0  0  0  0  0  0
    0.2777    2.8462   -1.7918 C   0  0  0  0  0  0  0  0  0  0  0  0
   -1.5881    1.0686   -1.8142 H   0  0  0  0  0  0  0  0  0  0  0  0
    0.2662   -0.2318   -2.4335 H   0  0  0  0  0  0  0  0  0  0  0  0
    1.0604   -0.0728   -0.8544 H   0  0  0  0  0  0  0  0  0  0  0  0
    2.1404    1.8096   -1.4775 H   0  0  0  0  0  0  0  0  0  0  0  0
    1.4899    1.6383   -3.1235 H   0  0  0  0  0  0  0  0  0  0  0  0
    0.8513    3.7629   -1.6182 H   0  0  0  0  0  0  0  0  0  0  0  0
   -0.3974    3.0230   -2.6362 H   0  0  0  0  0  0  0  0  0  0  0  0
   -2.5018    0.1139    0.8428 N   0  0  0  0  0  0  0  0  0  0  0  0
   -3.9176    0.2071    0.4325 C   0  0  2  0  0  0  0  0  0  0  0  0
   -4.5420   -1.1725    0.1065 C   0  0  0  0  0  0  0  0  0  0  0  0
   -5.7353   -1.2555   -0.1491 O   0  0  0  0  0  0  0  0  0  0  0  0
   -4.1461    1.1778   -0.7367 C   0  0  0  0  0  0  0  0  0  0  0  0
   -2.3700   -0.4402    1.6890 H   0  0  0  0  0  0  0  0  0  0  0  0
   -4.4671    0.6019    1.2941 H   0  0  0  0  0  0  0  0  0  0  0  0
   -3.7885    0.7471   -1.6761 H   0  0  0  0  0  0  0  0  0  0  0  0
   -5.2169    1.3783   -0.8481 H   0  0  0  0  0  0  0  0  0  0  0  0
   -3.6397    2.1308   -0.5618 H   0  0  0  0  0  0  0  0  0  0  0  0
   -3.7590   -2.3111    0.0302 N   0  0  0  0  0  0  0  0  0  0  0  0
   -4.2731   -3.6199   -0.3501 C   0  0  0  0  0  0  0  0  0  0  0  0
   -2.7526   -2.1955    0.1677 H   0  0  0  0  0  0  0  0  0  0  0  0
   -5.0598   -3.9379    0.3421 H   0  0  0  0  0  0  0  0  0  0  0  0
   -4.6854   -3.5896   -1.3641 H   0  0  0  0  0  0  0  0  0  0  0  0
   -3.4699   -4.3627   -0.3245 H   0  0  0  0  0  0  0  0  0  0  0  0
  1  2  2  0  0  0  0
  1  3  1  0  0  0  0
  1  7  1  0  0  0  0
  3  4  1  0  0  0  0
  3  5  1  0  0  0  0
  3  6  1  0  0  0  0
  7  8  1  0  0  0  0
  7 12  1  0  0  0  0
  8  9  1  0  0  0  0
  8 11  1  0  0  0  0
  8 13  1  0  0  0  0
  9 10  2  0  0  0  0
  9 17  1  0  0  0  0
 11 14  1  0  0  0  0
 11 15  1  0  0  0  0
 11 16  1  0  0  0  0
 17 18  1  0  0  0  0
 17 23  1  0  0  0  0
 18 19  1  0  0  0  0
 18 21  1  0  0  0  0
 18 24  1  0  0  0  0
 19 20  2  0  0  0  0
 19 31  1  0  0  0  0
 21 22  1  0  0  0  0
 21 25  1  0  0  0  0
 21 26  1  0  0  0  0
 22 23  1  0  0  0  0
 22 27  1  0  0  0  0
 22 28  1  0  0  0  0
 23 29  1  0  0  0  0
 23 30  1  0  0  0  0
 31 32  1  0  0  0  0
 31 36  1  0  0  0  0
 32 33  1  0  0  0  0
 32 35  1  0  0  0  0
 32 37  1  0  0  0  0
 33 34  2  0  0  0  0
 33 41  1  0  0  0  0
 35 38  1  0  0  0  0
 35 39  1  0  0  0  0
 35 40  1  0  0  0  0
 41 42  1  0  0  0  0
 41 43  1  0  0  0  0
 42 44  1  0  0  0  0
 42 45  1  0  0  0  0
 42 46  1  0  0  0  0
M  END
$$$$

  -OEChem-05262217223D

 46 46  0     1  0  0  0  0  0999 V2000
   -1.2854    1.9681    4.2009 C   0  0  0  0  0  0  0  0  0  0  0  0
   -2.1555    1.1138    4.1370 O   0  0  0  0  0  0  0  0  0  0  0  0
   -0.7313    2.3945    5.5474 C   0  0  0  0  0  0  0  0  0  0  0  0
   -1.2055    1.8217    6.3492 H   0  0  0  0  0  0  0  0  0  0  0  0
    0.3467    2.2192    5.5804 H   0  0  0  0  0  0  0  0  0  0  0  0
   -0.9257    3.4571    5.7118 H   0  0  0  0  0  0  0  0  0  0  0  0
   -0.8080    2.5494    3.0455 N   0  0  0  0  0  0  0  0  0  0  0  0
   -1.2162    2.1696    1.6857 C   0  0  2  0  0  0  0  0  0  0  0  0
   -0.1077    2.4644    0.6486 C   0  0  0  0  0  0  0  0  0  0  0  0
    0.6401    3.3977    0.9335 O   0  0  0  0  0  0  0  0  0  0  0  0
   -2.4713    2.9895    1.3512 C   0  0  0  0  0  0  0  0  0  0  0  0
   -0.0462    3.2217    3.1293 H   0  0  0  0  0  0  0  0  0  0  0  0
   -1.4163    1.0985    1.6833 H   0  0  0  0  0  0  0  0  0  0  0  0
   -2.2713    4.0577    1.4855 H   0  0  0  0  0  0  0  0  0  0  0  0
   -2.7831    2.8347    0.3155 H   0  0  0  0  0  0  0  0  0  0  0  0
   -3.2963    2.7083    2.0127 H   0  0  0  0  0  0  0  0  0  0  0  0
    0.1047    1.8143   -0.5797 N   0  0  0  0  0  0  0  0  0  0  0  0
   -0.5763    0.7095   -1.2900 C   0  0  2  0  0  0  0  0  0  0  0  0
   -1.5984   -0.2733   -0.6512 C   0  0  0  0  0  0  0  0  0  0  0  0
   -1.4352   -1.4859   -0.7275 O   0  0  0  0  0  0  0  0  0  0  0  0
    0.6449   -0.0440   -1.8574 C   0  0  0  0  0  0  0  0  0  0  0  0
    1.7693    0.9851   -1.9491 C   0  0  0  0  0  0  0  0  0  0  0  0
    1.1306    2.2916   -1.5190 C   0  0  0  0  0  0  0  0  0  0  0  0
   -1.1254    1.1621   -2.1218 H   0  0  0  0  0  0  0  0  0  0  0  0
    0.4133   -0.4763   -2.8365 H   0  0  0  0  0  0  0  0  0  0  0  0
    0.9611   -0.8539   -1.1905 H   0  0  0  0  0  0  0  0  0  0  0  0
    2.5800    0.7180   -1.2628 H   0  0  0  0  0  0  0  0  0  0  0  0
    2.1786    1.0560   -2.9617 H   0  0  0  0  0  0  0  0  0  0  0  0
    1.8855    2.9494   -1.0753 H   0  0  0  0  0  0  0  0  0  0  0  0
    0.6716    2.8165   -2.3639 H   0  0  0  0  0  0  0  0  0  0  0  0
   -2.7853    0.1583   -0.0865 N   0  0  0  0  0  0  0  0  0  0  0  0
   -3.8337   -0.7414    0.4241 C   0  0  2  0  0  0  0  0  0  0  0  0
   -4.6892   -1.3362   -0.7204 C   0  0  0  0  0  0  0  0  0  0  0  0
   -5.8377   -0.9640   -0.9292 O   0  0  0  0  0  0  0  0  0  0  0  0
   -4.6706    0.0378    1.4451 C   0  0  0  0  0  0  0  0  0  0  0  0
   -3.0100    1.1444   -0.1672 H   0  0  0  0  0  0  0  0  0  0  0  0
   -3.3727   -1.5806    0.9564 H   0  0  0  0  0  0  0  0  0  0  0  0
   -5.1328    0.9148    0.9814 H   0  0  0  0  0  0  0  0  0  0  0  0
   -5.4650   -0.5992    1.8470 H   0  0  0  0  0  0  0  0  0  0  0  0
   -4.0436    0.3679    2.2785 H   0  0  0  0  0  0  0  0  0  0  0  0
   -4.1176   -2.2643   -1.5678 N   0  0  0  0  0  0  0  0  0  0  0  0
   -4.7803   -2.8012   -2.7482 C   0  0  0  0  0  0  0  0  0  0  0  0
   -3.1190   -2.4374   -1.4311 H   0  0  0  0  0  0  0  0  0  0  0  0
   -5.7236   -3.2839   -2.4719 H   0  0  0  0  0  0  0  0  0  0  0  0
   -4.9901   -2.0016   -3.4661 H   0  0  0  0  0  0  0  0  0  0  0  0
   -4.1417   -3.5456   -3.2332 H   0  0  0  0  0  0  0  0  0  0  0  0
  1  2  2  0  0  0  0
  1  3  1  0  0  0  0
  1  7  1  0  0  0  0
  3  4  1  0  0  0  0
  3  5  1  0  0  0  0
  3  6  1  0  0  0  0
  7  8  1  0  0  0  0
  7 12  1  0  0  0  0
  8  9  1  0  0  0  0
  8 11  1  0  0  0  0
  8 13  1  0  0  0  0
  9 10  2  0  0  0  0
  9 17  1  0  0  0  0
 11 14  1  0  0  0  0
 11 15  1  0  0  0  0
 11 16  1  0  0  0  0
 17 18  1  0  0  0  0
 17 23  1  0  0  0  0
 18 19  1  0  0  0  0
 18 21  1  0  0  0  0
 18 24  1  0  0  0  0
 19 20  2  0  0  0  0
 19 31  1  0  0  0  0
 21 22  1  0  0  0  0
 21 25  1  0  0  0  0
 21 26  1  0  0  0  0
 22 23  1  0  0  0  0
 22 27  1  0  0  0  0
 22 28  1  0  0  0  0
 23 29  1  0  0  0  0
 23 30  1  0  0  0  0
 31 32  1  0  0  0  0
 31 36  1  0  0  0  0
 32 33  1  0  0  0  0
 32 35  1  0  0  0  0
 32 37  1  0  0  0  0
 33 34  2  0  0  0  0
 33 41  1  0  0  0  0
 35 38  1  0  0  0  0
 35 39  1  0  0  0  0
 35 40  1  0  0  0  0
 41 42  1  0  0  0  0
 41 43  1  0  0  0  0
 42 44  1  0  0  0  0
 42 45  1  0  0  0  0
 42 46  1  0  0  0  0
M  END
$$$$

  -OEChem-05262217223D

 46 46  0     1  0  0  0  0  0999 V2000
   -1.5767    1.6934    4.0454 C   0  0  0  0  0  0  0  0  0  0  0  0
   -2.4779    0.8885    3.8662 O   0  0  0  0  0  0  0  0  0  0  0  0
   -1.0922    1.9965    5.4507 C   0  0  0  0  0  0  0  0  0  0  0  0
   -1.6550    1.4056    6.1787 H   0  0  0  0  0  0  0  0  0  0  0  0
   -0.0319    1.7485    5.5412 H   0  0  0  0  0  0  0  0  0  0  0  0
   -1.2315    3.0569    5.6745 H   0  0  0  0  0  0  0  0  0  0  0  0
   -0.9963    2.3271    2.9669 N   0  0  0  0  0  0  0  0  0  0  0  0
   -1.3281    2.0507    1.5631 C   0  0  2  0  0  0  0  0  0  0  0  0
   -0.1671    2.4205    0.6093 C   0  0  0  0  0  0  0  0  0  0  0  0
    0.5370    3.3609    0.9711 O   0  0  0  0  0  0  0  0  0  0  0  0
   -2.5611    2.8936    1.2092 C   0  0  0  0  0  0  0  0  0  0  0  0
   -0.2237    2.9676    3.1455 H   0  0  0  0  0  0  0  0  0  0  0  0
   -1.5381    0.9856    1.4757 H   0  0  0  0  0  0  0  0  0  0  0  0
   -2.3477    3.9568    1.3611 H   0  0  0  0  0  0  0  0  0  0  0  0
   -2.8480    2.7494    0.1649 H   0  0  0  0  0  0  0  0  0  0  0  0
   -3.4078    2.6201    1.8453 H   0  0  0  0  0  0  0  0  0  0  0  0
    0.1378    1.8190   -0.6226 N   0  0  0  0  0  0  0  0  0  0  0  0
   -0.4806    0.7175   -1.3831 C   0  0  2  0  0  0  0  0  0  0  0  0
   -1.4985   -0.2705   -0.7546 C   0  0  0  0  0  0  0  0  0  0  0  0
   -1.2005   -1.4361   -0.5221 O   0  0  0  0  0  0  0  0  0  0  0  0
    0.7806    0.0019   -1.9093 C   0  0  0  0  0  0  0  0  0  0  0  0
    1.8821    1.0621   -1.9255 C   0  0  0  0  0  0  0  0  0  0  0  0
    1.1949    2.3452   -1.4966 C   0  0  0  0  0  0  0  0  0  0  0  0
   -1.0081    1.1640   -2.2321 H   0  0  0  0  0  0  0  0  0  0  0  0
    0.6036   -0.4108   -2.9075 H   0  0  0  0  0  0  0  0  0  0  0  0
    1.0901   -0.8162   -1.2499 H   0  0  0  0  0  0  0  0  0  0  0  0
    2.6671    0.7983   -1.2089 H   0  0  0  0  0  0  0  0  0  0  0  0
    2.3356    1.1666   -2.9161 H   0  0  0  0  0  0  0  0  0  0  0  0
    1.9087    3.0080   -0.9954 H   0  0  0  0  0  0  0  0  0  0  0  0
    0.7663    2.8819   -2.3499 H   0  0  0  0  0  0  0  0  0  0  0  0
   -2.8048    0.1136   -0.5041 N   0  0  0  0  0  0  0  0  0  0  0  0
   -3.8385   -0.7953    0.0204 C   0  0  2  0  0  0  0  0  0  0  0  0
   -4.3998   -1.7241   -1.0824 C   0  0  0  0  0  0  0  0  0  0  0  0
   -5.5077   -1.5449   -1.5739 O   0  0  0  0  0  0  0  0  0  0  0  0
   -4.9260    0.0498    0.6928 C   0  0  0  0  0  0  0  0  0  0  0  0
   -3.0960    1.0319   -0.8256 H   0  0  0  0  0  0  0  0  0  0  0  0
   -3.4059   -1.4369    0.7962 H   0  0  0  0  0  0  0  0  0  0  0  0
   -5.3506    0.7710   -0.0126 H   0  0  0  0  0  0  0  0  0  0  0  0
   -5.7332   -0.5935    1.0575 H   0  0  0  0  0  0  0  0  0  0  0  0
   -4.5115    0.5900    1.5484 H   0  0  0  0  0  0  0  0  0  0  0  0
   -3.6035   -2.7442   -1.5637 N   0  0  0  0  0  0  0  0  0  0  0  0
   -3.9769   -3.6105   -2.6732 C   0  0  0  0  0  0  0  0  0  0  0  0
   -2.6400   -2.7577   -1.2202 H   0  0  0  0  0  0  0  0  0  0  0  0
   -4.9358   -4.0998   -2.4719 H   0  0  0  0  0  0  0  0  0  0  0  0
   -4.0631   -3.0316   -3.5986 H   0  0  0  0  0  0  0  0  0  0  0  0
   -3.2184   -4.3861   -2.8168 H   0  0  0  0  0  0  0  0  0  0  0  0
  1  2  2  0  0  0  0
  1  3  1  0  0  0  0
  1  7  1  0  0  0  0
  3  4  1  0  0  0  0
  3  5  1  0  0  0  0
  3  6  1  0  0  0  0
  7  8  1  0  0  0  0
  7 12  1  0  0  0  0
  8  9  1  0  0  0  0
  8 11  1  0  0  0  0
  8 13  1  0  0  0  0
  9 10  2  0  0  0  0
  9 17  1  0  0  0  0
 11 14  1  0  0  0  0
 11 15  1  0  0  0  0
 11 16  1  0  0  0  0
 17 18  1  0  0  0  0
 17 23  1  0  0  0  0
 18 19  1  0  0  0  0
 18 21  1  0  0  0  0
 18 24  1  0  0  0  0
 19 20  2  0  0  0  0
 19 31  1  0  0  0  0
 21 22  1  0  0  0  0
 21 25  1  0  0  0  0
 21 26  1  0  0  0  0
 22 23  1  0  0  0  0
 22 27  1  0  0  0  0
 22 28  1  0  0  0  0
 23 29  1  0  0  0  0
 23 30  1  0  0  0  0
 31 32  1  0  0  0  0
 31 36  1  0  0  0  0
 32 33  1  0  0  0  0
 32 35  1  0  0  0  0
 32 37  1  0  0  0  0
 33 34  2  0  0  0  0
 33 41  1  0  0  0  0
 35 38  1  0  0  0  0
 35 39  1  0  0  0  0
 35 40  1  0  0  0  0
 41 42  1  0  0  0  0
 41 43  1  0  0  0  0
 42 44  1  0  0  0  0
 42 45  1  0  0  0  0
 42 46  1  0  0  0  0
M  END
$$$$

  -OEChem-05262217223D

 46 46  0     1  0  0  0  0  0999 V2000
   -1.9345    1.3806    3.9413 C   0  0  0  0  0  0  0  0  0  0  0  0
   -2.7296    0.4963    3.6630 O   0  0  0  0  0  0  0  0  0  0  0  0
   -1.6180    1.6931    5.3915 C   0  0  0  0  0  0  0  0  0  0  0  0
   -1.8685    2.7338    5.6115 H   0  0  0  0  0  0  0  0  0  0  0  0
   -2.1983    1.0437    6.0529 H   0  0  0  0  0  0  0  0  0  0  0  0
   -0.5544    1.5323    5.5844 H   0  0  0  0  0  0  0  0  0  0  0  0
   -1.3297    2.1070    2.9373 N   0  0  0  0  0  0  0  0  0  0  0  0
   -1.5063    1.8545    1.5011 C   0  0  2  0  0  0  0  0  0  0  0  0
   -0.3182    2.4016    0.6688 C   0  0  0  0  0  0  0  0  0  0  0  0
    0.2716    3.3689    1.1461 O   0  0  0  0  0  0  0  0  0  0  0  0
   -2.7990    2.5575    1.0690 C   0  0  0  0  0  0  0  0  0  0  0  0
   -0.6445    2.8131    3.2036 H   0  0  0  0  0  0  0  0  0  0  0  0
   -1.5845    0.7767    1.3575 H   0  0  0  0  0  0  0  0  0  0  0  0
   -2.7421    3.6274    1.2944 H   0  0  0  0  0  0  0  0  0  0  0  0
   -2.9661    2.4426   -0.0045 H   0  0  0  0  0  0  0  0  0  0  0  0
   -3.6566    2.1378    1.6030 H   0  0  0  0  0  0  0  0  0  0  0  0
    0.1204    1.9316   -0.5795 N   0  0  0  0  0  0  0  0  0  0  0  0
   -0.3601    0.8473   -1.4488 C   0  0  2  0  0  0  0  0  0  0  0  0
   -1.3251   -0.2349   -0.9110 C   0  0  0  0  0  0  0  0  0  0  0  0
   -0.9075   -1.2502   -0.3677 O   0  0  0  0  0  0  0  0  0  0  0  0
    0.9760    0.2529   -1.9325 C   0  0  0  0  0  0  0  0  0  0  0  0
    1.9957    1.3869   -1.8014 C   0  0  0  0  0  0  0  0  0  0  0  0
    1.1921    2.5902   -1.3364 C   0  0  0  0  0  0  0  0  0  0  0  0
   -0.8706    1.3051   -2.3022 H   0  0  0  0  0  0  0  0  0  0  0  0
    0.8916   -0.0961   -2.9665 H   0  0  0  0  0  0  0  0  0  0  0  0
    1.2998   -0.5899   -1.3125 H   0  0  0  0  0  0  0  0  0  0  0  0
    2.7490    1.1265   -1.0502 H   0  0  0  0  0  0  0  0  0  0  0  0
    2.5053    1.5907   -2.7483 H   0  0  0  0  0  0  0  0  0  0  0  0
    1.8199    3.2596   -0.7380 H   0  0  0  0  0  0  0  0  0  0  0  0
    0.7842    3.1590   -2.1788 H   0  0  0  0  0  0  0  0  0  0  0  0
   -2.6952   -0.0559   -0.9917 N   0  0  0  0  0  0  0  0  0  0  0  0
   -3.6824   -1.0273   -0.4914 C   0  0  2  0  0  0  0  0  0  0  0  0
   -3.8028   -2.2704   -1.4079 C   0  0  0  0  0  0  0  0  0  0  0  0
   -4.7721   -2.4397   -2.1379 O   0  0  0  0  0  0  0  0  0  0  0  0
   -5.0184   -0.2922   -0.3269 C   0  0  0  0  0  0  0  0  0  0  0  0
   -3.0363    0.7426   -1.5191 H   0  0  0  0  0  0  0  0  0  0  0  0
   -3.3779   -1.3809    0.5003 H   0  0  0  0  0  0  0  0  0  0  0  0
   -5.3599    0.1111   -1.2856 H   0  0  0  0  0  0  0  0  0  0  0  0
   -5.7829   -0.9792    0.0500 H   0  0  0  0  0  0  0  0  0  0  0  0
   -4.9188    0.5302    0.3860 H   0  0  0  0  0  0  0  0  0  0  0  0
   -2.7683   -3.1844   -1.4414 N   0  0  0  0  0  0  0  0  0  0  0  0
   -2.7182   -4.3202   -2.3517 C   0  0  0  0  0  0  0  0  0  0  0  0
   -1.9239   -2.9182   -0.9286 H   0  0  0  0  0  0  0  0  0  0  0  0
   -3.6058   -4.9498   -2.2297 H   0  0  0  0  0  0  0  0  0  0  0  0
   -2.6696   -3.9763   -3.3898 H   0  0  0  0  0  0  0  0  0  0  0  0
   -1.8338   -4.9303   -2.1450 H   0  0  0  0  0  0  0  0  0  0  0  0
  1  2  2  0  0  0  0
  1  3  1  0  0  0  0
  1  7  1  0  0  0  0
  3  4  1  0  0  0  0
  3  5  1  0  0  0  0
  3  6  1  0  0  0  0
  7  8  1  0  0  0  0
  7 12  1  0  0  0  0
  8  9  1  0  0  0  0
  8 11  1  0  0  0  0
  8 13  1  0  0  0  0
  9 10  2  0  0  0  0
  9 17  1  0  0  0  0
 11 14  1  0  0  0  0
 11 15  1  0  0  0  0
 11 16  1  0  0  0  0
 17 18  1  0  0  0  0
 17 23  1  0  0  0  0
 18 19  1  0  0  0  0
 18 21  1  0  0  0  0
 18 24  1  0  0  0  0
 19 20  2  0  0  0  0
 19 31  1  0  0  0  0
 21 22  1  0  0  0  0
 21 25  1  0  0  0  0
 21 26  1  0  0  0  0
 22 23  1  0  0  0  0
 22 27  1  0  0  0  0
 22 28  1  0  0  0  0
 23 29  1  0  0  0  0
 23 30  1  0  0  0  0
 31 32  1  0  0  0  0
 31 36  1  0  0  0  0
 32 33  1  0  0  0  0
 32 35  1  0  0  0  0
 32 37  1  0  0  0  0
 33 34  2  0  0  0  0
 33 41  1  0  0  0  0
 35 38  1  0  0  0  0
 35 39  1  0  0  0  0
 35 40  1  0  0  0  0
 41 42  1  0  0  0  0
 41 43  1  0  0  0  0
 42 44  1  0  0  0  0
 42 45  1  0  0  0  0
 42 46  1  0  0  0  0
M  END
$$$$

  -OEChem-05262217223D

 46 46  0     1  0  0  0  0  0999 V2000
   -2.0235    1.2962    3.9205 C   0  0  0  0  0  0  0  0  0  0  0  0
   -2.7409    0.3465    3.6477 O   0  0  0  0  0  0  0  0  0  0  0  0
   -1.8037    1.6922    5.3685 C   0  0  0  0  0  0  0  0  0  0  0  0
   -2.1279    2.7235    5.5263 H   0  0  0  0  0  0  0  0  0  0  0  0
   -2.3774    1.0373    6.0300 H   0  0  0  0  0  0  0  0  0  0  0  0
   -0.7443    1.6080    5.6218 H   0  0  0  0  0  0  0  0  0  0  0  0
   -1.4183    2.0185    2.9139 N   0  0  0  0  0  0  0  0  0  0  0  0
   -1.4842    1.6816    1.4850 C   0  0  2  0  0  0  0  0  0  0  0  0
   -0.3202    2.3247    0.6853 C   0  0  0  0  0  0  0  0  0  0  0  0
    0.2133    3.3077    1.1962 O   0  0  0  0  0  0  0  0  0  0  0  0
   -2.8259    2.1989    0.9490 C   0  0  0  0  0  0  0  0  0  0  0  0
   -0.7886    2.7746    3.1811 H   0  0  0  0  0  0  0  0  0  0  0  0
   -1.4261    0.5967    1.3941 H   0  0  0  0  0  0  0  0  0  0  0  0
   -2.9339    3.2669    1.1638 H   0  0  0  0  0  0  0  0  0  0  0  0
   -2.8961    2.0607   -0.1319 H   0  0  0  0  0  0  0  0  0  0  0  0
   -3.6560    1.6645    1.4208 H   0  0  0  0  0  0  0  0  0  0  0  0
    0.1499    1.9203   -0.5744 N   0  0  0  0  0  0  0  0  0  0  0  0
   -0.2725    0.8395   -1.4753 C   0  0  2  0  0  0  0  0  0  0  0  0
   -1.1791   -0.2997   -0.9585 C   0  0  0  0  0  0  0  0  0  0  0  0
   -0.7298   -1.2034   -0.2641 O   0  0  0  0  0  0  0  0  0  0  0  0
    1.0912    0.3161   -1.9605 C   0  0  0  0  0  0  0  0  0  0  0  0
    2.0582    1.4912   -1.7893 C   0  0  0  0  0  0  0  0  0  0  0  0
    1.1977    2.6463   -1.3010 C   0  0  0  0  0  0  0  0  0  0  0  0
   -0.7991    1.2934   -2.3206 H   0  0  0  0  0  0  0  0  0  0  0  0
    1.0326   -0.0077   -3.0046 H   0  0  0  0  0  0  0  0  0  0  0  0
    1.4419   -0.5294   -1.3590 H   0  0  0  0  0  0  0  0  0  0  0  0
    2.8163    1.2450   -1.0381 H   0  0  0  0  0  0  0  0  0  0  0  0
    2.5657    1.7426   -2.7259 H   0  0  0  0  0  0  0  0  0  0  0  0
    1.7881    3.3258   -0.6765 H   0  0  0  0  0  0  0  0  0  0  0  0
    0.7738    3.2192   -2.1329 H   0  0  0  0  0  0  0  0  0  0  0  0
   -2.5199   -0.3389   -1.2972 N   0  0  0  0  0  0  0  0  0  0  0  0
   -3.4611   -1.3609   -0.8119 C   0  0  2  0  0  0  0  0  0  0  0  0
   -3.3311   -2.6938   -1.5891 C   0  0  0  0  0  0  0  0  0  0  0  0
   -4.2048   -3.0800   -2.3563 O   0  0  0  0  0  0  0  0  0  0  0  0
   -4.8710   -0.7631   -0.8903 C   0  0  0  0  0  0  0  0  0  0  0  0
   -2.8691    0.3661   -1.9397 H   0  0  0  0  0  0  0  0  0  0  0  0
   -3.2550   -1.5780    0.2424 H   0  0  0  0  0  0  0  0  0  0  0  0
   -5.1290   -0.5142   -1.9248 H   0  0  0  0  0  0  0  0  0  0  0  0
   -5.6066   -1.4818   -0.5146 H   0  0  0  0  0  0  0  0  0  0  0  0
   -4.9362    0.1442   -0.2828 H   0  0  0  0  0  0  0  0  0  0  0  0
   -2.1794   -3.4423   -1.4500 N   0  0  0  0  0  0  0  0  0  0  0  0
   -1.9081   -4.6639   -2.1949 C   0  0  0  0  0  0  0  0  0  0  0  0
   -1.4399   -3.0265   -0.8785 H   0  0  0  0  0  0  0  0  0  0  0  0
   -2.6903   -5.4074   -2.0089 H   0  0  0  0  0  0  0  0  0  0  0  0
   -1.8674   -4.4559   -3.2689 H   0  0  0  0  0  0  0  0  0  0  0  0
   -0.9481   -5.0886   -1.8864 H   0  0  0  0  0  0  0  0  0  0  0  0
  1  2  2  0  0  0  0
  1  3  1  0  0  0  0
  1  7  1  0  0  0  0
  3  4  1  0  0  0  0
  3  5  1  0  0  0  0
  3  6  1  0  0  0  0
  7  8  1  0  0  0  0
  7 12  1  0  0  0  0
  8  9  1  0  0  0  0
  8 11  1  0  0  0  0
  8 13  1  0  0  0  0
  9 10  2  0  0  0  0
  9 17  1  0  0  0  0
 11 14  1  0  0  0  0
 11 15  1  0  0  0  0
 11 16  1  0  0  0  0
 17 18  1  0  0  0  0
 17 23  1  0  0  0  0
 18 19  1  0  0  0  0
 18 21  1  0  0  0  0
 18 24  1  0  0  0  0
 19 20  2  0  0  0  0
 19 31  1  0  0  0  0
 21 22  1  0  0  0  0
 21 25  1  0  0  0  0
 21 26  1  0  0  0  0
 22 23  1  0  0  0  0
 22 27  1  0  0  0  0
 22 28  1  0  0  0  0
 23 29  1  0  0  0  0
 23 30  1  0  0  0  0
 31 32  1  0  0  0  0
 31 36  1  0  0  0  0
 32 33  1  0  0  0  0
 32 35  1  0  0  0  0
 32 37  1  0  0  0  0
 33 34  2  0  0  0  0
 33 41  1  0  0  0  0
 35 38  1  0  0  0  0
 35 39  1  0  0  0  0
 35 40  1  0  0  0  0
 41 42  1  0  0  0  0
 41 43  1  0  0  0  0
 42 44  1  0  0  0  0
 42 45  1  0  0  0  0
 42 46  1  0  0  0  0
M  END
$$$$

  -OEChem-05262217223D

 46 46  0     1  0  0  0  0  0999 V2000
   -2.2520    1.3699    3.2513 C   0  0  0  0  0  0  0  0  0  0  0  0
   -3.1114    2.1344    3.6602 O   0  0  0  0  0  0  0  0  0  0  0  0
   -1.9743    0.0749    3.9907 C   0  0  0  0  0  0  0  0  0  0  0  0
   -2.6703   -0.0403    4.8260 H   0  0  0  0  0  0  0  0  0  0  0  0
   -2.0919   -0.7735    3.3122 H   0  0  0  0  0  0  0  0  0  0  0  0
   -0.9532    0.0806    4.3795 H   0  0  0  0  0  0  0  0  0  0  0  0
   -1.5498    1.6514    2.0993 N   0  0  0  0  0  0  0  0  0  0  0  0
   -1.7630    2.8272    1.2471 C   0  0  2  0  0  0  0  0  0  0  0  0
   -0.5702    3.2145    0.3310 C   0  0  0  0  0  0  0  0  0  0  0  0
   -0.1904    4.3747    0.4450 O   0  0  0  0  0  0  0  0  0  0  0  0
   -3.0547    2.6895    0.4294 C   0  0  0  0  0  0  0  0  0  0  0  0
   -0.8969    0.9300    1.7867 H   0  0  0  0  0  0  0  0  0  0  0  0
   -1.9057    3.6805    1.9213 H   0  0  0  0  0  0  0  0  0  0  0  0
   -3.9081    2.5157    1.0919 H   0  0  0  0  0  0  0  0  0  0  0  0
   -3.2415    3.6118   -0.1296 H   0  0  0  0  0  0  0  0  0  0  0  0
   -2.9955    1.8645   -0.2802 H   0  0  0  0  0  0  0  0  0  0  0  0
    0.0699    2.4411   -0.6581 N   0  0  0  0  0  0  0  0  0  0  0  0
   -0.1321    1.0720   -1.1616 C   0  0  2  0  0  0  0  0  0  0  0  0
   -0.9751    0.0224   -0.4063 C   0  0  0  0  0  0  0  0  0  0  0  0
   -0.5712   -0.4695    0.6428 O   0  0  0  0  0  0  0  0  0  0  0  0
    1.3192    0.5932   -1.3285 C   0  0  0  0  0  0  0  0  0  0  0  0
    2.1454    1.8681   -1.5010 C   0  0  0  0  0  0  0  0  0  0  0  0
    1.1288    2.9986   -1.5120 C   0  0  0  0  0  0  0  0  0  0  0  0
   -0.5880    1.1612   -2.1528 H   0  0  0  0  0  0  0  0  0  0  0  0
    1.4116   -0.0674   -2.1967 H   0  0  0  0  0  0  0  0  0  0  0  0
    1.6722    0.0494   -0.4457 H   0  0  0  0  0  0  0  0  0  0  0  0
    2.8309    1.9880   -0.6555 H   0  0  0  0  0  0  0  0  0  0  0  0
    2.7313    1.8533   -2.4252 H   0  0  0  0  0  0  0  0  0  0  0  0
    1.5838    3.9179   -1.1276 H   0  0  0  0  0  0  0  0  0  0  0  0
    0.7520    3.1970   -2.5210 H   0  0  0  0  0  0  0  0  0  0  0  0
   -2.0877   -0.5332   -1.0112 N   0  0  0  0  0  0  0  0  0  0  0  0
   -2.6816   -1.8049   -0.5751 C   0  0  2  0  0  0  0  0  0  0  0  0
   -2.0743   -3.0019   -1.3374 C   0  0  0  0  0  0  0  0  0  0  0  0
   -1.6633   -2.8512   -2.4829 O   0  0  0  0  0  0  0  0  0  0  0  0
   -4.1894   -1.7223   -0.8184 C   0  0  0  0  0  0  0  0  0  0  0  0
   -2.2127   -0.2996   -1.9938 H   0  0  0  0  0  0  0  0  0  0  0  0
   -2.5178   -1.9599    0.4965 H   0  0  0  0  0  0  0  0  0  0  0  0
   -4.4000   -1.5832   -1.8839 H   0  0  0  0  0  0  0  0  0  0  0  0
   -4.6804   -2.6419   -0.4853 H   0  0  0  0  0  0  0  0  0  0  0  0
   -4.6181   -0.8811   -0.2643 H   0  0  0  0  0  0  0  0  0  0  0  0
   -2.0071   -4.2501   -0.7475 N   0  0  0  0  0  0  0  0  0  0  0  0
   -1.4024   -5.4068   -1.3967 C   0  0  0  0  0  0  0  0  0  0  0  0
   -2.2953   -4.3275    0.2234 H   0  0  0  0  0  0  0  0  0  0  0  0
   -1.9311   -5.6451   -2.3257 H   0  0  0  0  0  0  0  0  0  0  0  0
   -0.3508   -5.2089   -1.6302 H   0  0  0  0  0  0  0  0  0  0  0  0
   -1.4523   -6.2793   -0.7380 H   0  0  0  0  0  0  0  0  0  0  0  0
  1  2  2  0  0  0  0
  1  3  1  0  0  0  0
  1  7  1  0  0  0  0
  3  4  1  0  0  0  0
  3  5  1  0  0  0  0
  3  6  1  0  0  0  0
  7  8  1  0  0  0  0
  7 12  1  0  0  0  0
  8  9  1  0  0  0  0
  8 11  1  0  0  0  0
  8 13  1  0  0  0  0
  9 10  2  0  0  0  0
  9 17  1  0  0  0  0
 11 14  1  0  0  0  0
 11 15  1  0  0  0  0
 11 16  1  0  0  0  0
 17 18  1  0  0  0  0
 17 23  1  0  0  0  0
 18 19  1  0  0  0  0
 18 21  1  0  0  0  0
 18 24  1  0  0  0  0
 19 20  2  0  0  0  0
 19 31  1  0  0  0  0
 21 22  1  0  0  0  0
 21 25  1  0  0  0  0
 21 26  1  0  0  0  0
 22 23  1  0  0  0  0
 22 27  1  0  0  0  0
 22 28  1  0  0  0  0
 23 29  1  0  0  0  0
 23 30  1  0  0  0  0
 31 32  1  0  0  0  0
 31 36  1  0  0  0  0
 32 33  1  0  0  0  0
 32 35  1  0  0  0  0
 32 37  1  0  0  0  0
 33 34  2  0  0  0  0
 33 41  1  0  0  0  0
 35 38  1  0  0  0  0
 35 39  1  0  0  0  0
 35 40  1  0  0  0  0
 41 42  1  0  0  0  0
 41 43  1  0  0  0  0
 42 44  1  0  0  0  0
 42 45  1  0  0  0  0
 42 46  1  0  0  0  0
M  END
$$$$

  -OEChem-05262217223D

 46 46  0     1  0  0  0  0  0999 V2000
   -2.3496    1.3974    3.3190 C   0  0  0  0  0  0  0  0  0  0  0  0
   -3.2082    2.1779    3.6985 O   0  0  0  0  0  0  0  0  0  0  0  0
   -2.0618    0.1383    4.1144 C   0  0  0  0  0  0  0  0  0  0  0  0
   -2.7333    0.0719    4.9748 H   0  0  0  0  0  0  0  0  0  0  0  0
   -2.2074   -0.7413    3.4827 H   0  0  0  0  0  0  0  0  0  0  0  0
   -1.0292    0.1528    4.4717 H   0  0  0  0  0  0  0  0  0  0  0  0
   -1.6551    1.6280    2.1513 N   0  0  0  0  0  0  0  0  0  0  0  0
   -1.8844    2.7571    1.2440 C   0  0  2  0  0  0  0  0  0  0  0  0
   -0.6664    3.1633    0.3703 C   0  0  0  0  0  0  0  0  0  0  0  0
   -0.2881    4.3194    0.5257 O   0  0  0  0  0  0  0  0  0  0  0  0
   -3.1381    2.5246    0.3899 C   0  0  0  0  0  0  0  0  0  0  0  0
   -1.0274    0.8806    1.8481 H   0  0  0  0  0  0  0  0  0  0  0  0
   -2.0940    3.6302    1.8739 H   0  0  0  0  0  0  0  0  0  0  0  0
   -3.3334    3.4037   -0.2321 H   0  0  0  0  0  0  0  0  0  0  0  0
   -3.0294    1.6573   -0.2618 H   0  0  0  0  0  0  0  0  0  0  0  0
   -4.0086    2.3629    1.0335 H   0  0  0  0  0  0  0  0  0  0  0  0
    0.0069    2.4135   -0.6153 N   0  0  0  0  0  0  0  0  0  0  0  0
   -0.1685    1.0547   -1.1574 C   0  0  2  0  0  0  0  0  0  0  0  0
   -1.0192   -0.0368   -0.4742 C   0  0  0  0  0  0  0  0  0  0  0  0
   -0.7317   -0.4489    0.6444 O   0  0  0  0  0  0  0  0  0  0  0  0
    1.2888    0.5844   -1.2765 C   0  0  0  0  0  0  0  0  0  0  0  0
    2.1164    1.8648   -1.3871 C   0  0  0  0  0  0  0  0  0  0  0  0
    1.0973    2.9921   -1.4141 C   0  0  0  0  0  0  0  0  0  0  0  0
   -0.5881    1.1714   -2.1617 H   0  0  0  0  0  0  0  0  0  0  0  0
    1.4185   -0.0572   -2.1545 H   0  0  0  0  0  0  0  0  0  0  0  0
    1.6042    0.0208   -0.3915 H   0  0  0  0  0  0  0  0  0  0  0  0
    2.7650    1.9671   -0.5108 H   0  0  0  0  0  0  0  0  0  0  0  0
    2.7407    1.8720   -2.2859 H   0  0  0  0  0  0  0  0  0  0  0  0
    1.5342    3.9042   -0.9928 H   0  0  0  0  0  0  0  0  0  0  0  0
    0.7602    3.2115   -2.4327 H   0  0  0  0  0  0  0  0  0  0  0  0
   -1.8873   -0.7933   -1.2411 N   0  0  0  0  0  0  0  0  0  0  0  0
   -2.3255   -2.1384   -0.8426 C   0  0  2  0  0  0  0  0  0  0  0  0
   -1.3154   -3.2195   -1.2854 C   0  0  0  0  0  0  0  0  0  0  0  0
   -0.6653   -3.0631   -2.3137 O   0  0  0  0  0  0  0  0  0  0  0  0
   -3.6934   -2.3888   -1.4801 C   0  0  0  0  0  0  0  0  0  0  0  0
   -1.8403   -0.6224   -2.2429 H   0  0  0  0  0  0  0  0  0  0  0  0
   -2.4404   -2.1957    0.2449 H   0  0  0  0  0  0  0  0  0  0  0  0
   -3.6202   -2.3578   -2.5722 H   0  0  0  0  0  0  0  0  0  0  0  0
   -4.0776   -3.3705   -1.1864 H   0  0  0  0  0  0  0  0  0  0  0  0
   -4.4085   -1.6263   -1.1558 H   0  0  0  0  0  0  0  0  0  0  0  0
   -1.1535   -4.3760   -0.5453 N   0  0  0  0  0  0  0  0  0  0  0  0
   -0.1714   -5.4020   -0.8744 C   0  0  0  0  0  0  0  0  0  0  0  0
   -1.6447   -4.4362    0.3417 H   0  0  0  0  0  0  0  0  0  0  0  0
   -0.3486   -5.7953   -1.8809 H   0  0  0  0  0  0  0  0  0  0  0  0
    0.8423   -4.9903   -0.8303 H   0  0  0  0  0  0  0  0  0  0  0  0
   -0.2391   -6.2316   -0.1639 H   0  0  0  0  0  0  0  0  0  0  0  0
  1  2  2  0  0  0  0
  1  3  1  0  0  0  0
  1  7  1  0  0  0  0
  3  4  1  0  0  0  0
  3  5  1  0  0  0  0
  3  6  1  0  0  0  0
  7  8  1  0  0  0  0
  7 12  1  0  0  0  0
  8  9  1  0  0  0  0
  8 11  1  0  0  0  0
  8 13  1  0  0  0  0
  9 10  2  0  0  0  0
  9 17  1  0  0  0  0
 11 14  1  0  0  0  0
 11 15  1  0  0  0  0
 11 16  1  0  0  0  0
 17 18  1  0  0  0  0
 17 23  1  0  0  0  0
 18 19  1  0  0  0  0
 18 21  1  0  0  0  0
 18 24  1  0  0  0  0
 19 20  2  0  0  0  0
 19 31  1  0  0  0  0
 21 22  1  0  0  0  0
 21 25  1  0  0  0  0
 21 26  1  0  0  0  0
 22 23  1  0  0  0  0
 22 27  1  0  0  0  0
 22 28  1  0  0  0  0
 23 29  1  0  0  0  0
 23 30  1  0  0  0  0
 31 32  1  0  0  0  0
 31 36  1  0  0  0  0
 32 33  1  0  0  0  0
 32 35  1  0  0  0  0
 32 37  1  0  0  0  0
 33 34  2  0  0  0  0
 33 41  1  0  0  0  0
 35 38  1  0  0  0  0
 35 39  1  0  0  0  0
 35 40  1  0  0  0  0
 41 42  1  0  0  0  0
 41 43  1  0  0  0  0
 42 44  1  0  0  0  0
 42 45  1  0  0  0  0
 42 46  1  0  0  0  0
M  END
$$$$

  -OEChem-05262217223D

 46 46  0     1  0  0  0  0  0999 V2000
   -2.3717    1.4255    3.4096 C   0  0  0  0  0  0  0  0  0  0  0  0
   -3.1927    2.2475    3.7850 O   0  0  0  0  0  0  0  0  0  0  0  0
   -2.1249    0.1721    4.2279 C   0  0  0  0  0  0  0  0  0  0  0  0
   -2.7360    0.1853    5.1346 H   0  0  0  0  0  0  0  0  0  0  0  0
   -2.3829   -0.7120    3.6396 H   0  0  0  0  0  0  0  0  0  0  0  0
   -1.0716    0.1158    4.5130 H   0  0  0  0  0  0  0  0  0  0  0  0
   -1.6909    1.5991    2.2240 N   0  0  0  0  0  0  0  0  0  0  0  0
   -1.9187    2.6952    1.2770 C   0  0  2  0  0  0  0  0  0  0  0  0
   -0.6903    3.0889    0.4103 C   0  0  0  0  0  0  0  0  0  0  0  0
   -0.2931    4.2357    0.5892 O   0  0  0  0  0  0  0  0  0  0  0  0
   -3.1634    2.4239    0.4220 C   0  0  0  0  0  0  0  0  0  0  0  0
   -1.1271    0.8064    1.9110 H   0  0  0  0  0  0  0  0  0  0  0  0
   -2.1449    3.5878    1.8731 H   0  0  0  0  0  0  0  0  0  0  0  0
   -3.3373    3.2608   -0.2612 H   0  0  0  0  0  0  0  0  0  0  0  0
   -3.0614    1.5116   -0.1657 H   0  0  0  0  0  0  0  0  0  0  0  0
   -4.0433    2.3199    1.0645 H   0  0  0  0  0  0  0  0  0  0  0  0
   -0.0217    2.3505   -0.5886 N   0  0  0  0  0  0  0  0  0  0  0  0
   -0.2029    1.0065   -1.1688 C   0  0  2  0  0  0  0  0  0  0  0  0
   -1.0586   -0.1153   -0.5450 C   0  0  0  0  0  0  0  0  0  0  0  0
   -0.9102   -0.4460    0.6251 O   0  0  0  0  0  0  0  0  0  0  0  0
    1.2501    0.5220   -1.2792 C   0  0  0  0  0  0  0  0  0  0  0  0
    2.0953    1.7933   -1.3455 C   0  0  0  0  0  0  0  0  0  0  0  0
    1.0886    2.9321   -1.3585 C   0  0  0  0  0  0  0  0  0  0  0  0
   -0.6103    1.1583   -2.1736 H   0  0  0  0  0  0  0  0  0  0  0  0
    1.3861   -0.0993   -2.1709 H   0  0  0  0  0  0  0  0  0  0  0  0
    1.5419   -0.0691   -0.4040 H   0  0  0  0  0  0  0  0  0  0  0  0
    2.7322    1.8654   -0.4574 H   0  0  0  0  0  0  0  0  0  0  0  0
    2.7328    1.8163   -2.2350 H   0  0  0  0  0  0  0  0  0  0  0  0
    1.5325    3.8283   -0.9120 H   0  0  0  0  0  0  0  0  0  0  0  0
    0.7680    3.1797   -2.3761 H   0  0  0  0  0  0  0  0  0  0  0  0
   -1.6615   -1.0280   -1.3927 N   0  0  0  0  0  0  0  0  0  0  0  0
   -1.9129   -2.4180   -0.9874 C   0  0  2  0  0  0  0  0  0  0  0  0
   -0.6368   -3.2800   -1.1087 C   0  0  0  0  0  0  0  0  0  0  0  0
    0.1763   -3.0464   -1.9970 O   0  0  0  0  0  0  0  0  0  0  0  0
   -3.0201   -2.9757   -1.8825 C   0  0  0  0  0  0  0  0  0  0  0  0
   -1.4627   -0.8886   -2.3803 H   0  0  0  0  0  0  0  0  0  0  0  0
   -2.2622   -2.4533    0.0498 H   0  0  0  0  0  0  0  0  0  0  0  0
   -2.7051   -2.9714   -2.9312 H   0  0  0  0  0  0  0  0  0  0  0  0
   -3.2578   -4.0048   -1.5961 H   0  0  0  0  0  0  0  0  0  0  0  0
   -3.9276   -2.3714   -1.7864 H   0  0  0  0  0  0  0  0  0  0  0  0
   -0.4115   -4.3262   -0.2336 N   0  0  0  0  0  0  0  0  0  0  0  0
    0.8094   -5.1229   -0.2443 C   0  0  0  0  0  0  0  0  0  0  0  0
   -1.0555   -4.4294    0.5451 H   0  0  0  0  0  0  0  0  0  0  0  0
    0.9561   -5.5879   -1.2248 H   0  0  0  0  0  0  0  0  0  0  0  0
    1.6779   -4.4957   -0.0174 H   0  0  0  0  0  0  0  0  0  0  0  0
    0.7496   -5.9168    0.5063 H   0  0  0  0  0  0  0  0  0  0  0  0
  1  2  2  0  0  0  0
  1  3  1  0  0  0  0
  1  7  1  0  0  0  0
  3  4  1  0  0  0  0
  3  5  1  0  0  0  0
  3  6  1  0  0  0  0
  7  8  1  0  0  0  0
  7 12  1  0  0  0  0
  8  9  1  0  0  0  0
  8 11  1  0  0  0  0
  8 13  1  0  0  0  0
  9 10  2  0  0  0  0
  9 17  1  0  0  0  0
 11 14  1  0  0  0  0
 11 15  1  0  0  0  0
 11 16  1  0  0  0  0
 17 18  1  0  0  0  0
 17 23  1  0  0  0  0
 18 19  1  0  0  0  0
 18 21  1  0  0  0  0
 18 24  1  0  0  0  0
 19 20  2  0  0  0  0
 19 31  1  0  0  0  0
 21 22  1  0  0  0  0
 21 25  1  0  0  0  0
 21 26  1  0  0  0  0
 22 23  1  0  0  0  0
 22 27  1  0  0  0  0
 22 28  1  0  0  0  0
 23 29  1  0  0  0  0
 23 30  1  0  0  0  0
 31 32  1  0  0  0  0
 31 36  1  0  0  0  0
 32 33  1  0  0  0  0
 32 35  1  0  0  0  0
 32 37  1  0  0  0  0
 33 34  2  0  0  0  0
 33 41  1  0  0  0  0
 35 38  1  0  0  0  0
 35 39  1  0  0  0  0
 35 40  1  0  0  0  0
 41 42  1  0  0  0  0
 41 43  1  0  0  0  0
 42 44  1  0  0  0  0
 42 45  1  0  0  0  0
 42 46  1  0  0  0  0
M  END
$$$$

  -OEChem-05262217223D

 46 46  0     1  0  0  0  0  0999 V2000
   -2.4503    1.5653    3.4840 C   0  0  0  0  0  0  0  0  0  0  0  0
   -3.2356    2.4358    3.8253 O   0  0  0  0  0  0  0  0  0  0  0  0
   -2.2305    0.3578    4.3749 C   0  0  0  0  0  0  0  0  0  0  0  0
   -2.8226    0.4507    5.2897 H   0  0  0  0  0  0  0  0  0  0  0  0
   -2.5317   -0.5512    3.8485 H   0  0  0  0  0  0  0  0  0  0  0  0
   -1.1744    0.2817    4.6444 H   0  0  0  0  0  0  0  0  0  0  0  0
   -1.7912    1.6393    2.2757 N   0  0  0  0  0  0  0  0  0  0  0  0
   -2.0221    2.6702    1.2588 C   0  0  2  0  0  0  0  0  0  0  0  0
   -0.7738    3.0715    0.4236 C   0  0  0  0  0  0  0  0  0  0  0  0
   -0.4082    4.2290    0.6036 O   0  0  0  0  0  0  0  0  0  0  0  0
   -3.2245    2.3009    0.3817 C   0  0  0  0  0  0  0  0  0  0  0  0
   -1.2829    0.8007    1.9885 H   0  0  0  0  0  0  0  0  0  0  0  0
   -2.3090    3.5851    1.7917 H   0  0  0  0  0  0  0  0  0  0  0  0
   -3.4112    3.0928   -0.3500 H   0  0  0  0  0  0  0  0  0  0  0  0
   -3.0664    1.3644   -0.1523 H   0  0  0  0  0  0  0  0  0  0  0  0
   -4.1186    2.1924    1.0036 H   0  0  0  0  0  0  0  0  0  0  0  0
   -0.0491    2.3405   -0.5436 N   0  0  0  0  0  0  0  0  0  0  0  0
   -0.1606    0.9861   -1.1247 C   0  0  2  0  0  0  0  0  0  0  0  0
   -0.9896   -0.1874   -0.5591 C   0  0  0  0  0  0  0  0  0  0  0  0
   -1.0744   -0.3922    0.6432 O   0  0  0  0  0  0  0  0  0  0  0  0
    1.3137    0.5532   -1.1596 C   0  0  0  0  0  0  0  0  0  0  0  0
    2.1198    1.8490   -1.1938 C   0  0  0  0  0  0  0  0  0  0  0  0
    1.0783    2.9518   -1.2662 C   0  0  0  0  0  0  0  0  0  0  0  0
   -0.5262    1.1242   -2.1473 H   0  0  0  0  0  0  0  0  0  0  0  0
    1.5192   -0.0694   -2.0368 H   0  0  0  0  0  0  0  0  0  0  0  0
    1.5782   -0.0212   -0.2643 H   0  0  0  0  0  0  0  0  0  0  0  0
    2.7093    1.9483   -0.2763 H   0  0  0  0  0  0  0  0  0  0  0  0
    2.7996    1.8864   -2.0506 H   0  0  0  0  0  0  0  0  0  0  0  0
    1.4744    3.8661   -0.8115 H   0  0  0  0  0  0  0  0  0  0  0  0
    0.7984    3.1789   -2.3006 H   0  0  0  0  0  0  0  0  0  0  0  0
   -1.2292   -1.2619   -1.3986 N   0  0  0  0  0  0  0  0  0  0  0  0
   -1.3478   -2.6452   -0.9138 C   0  0  2  0  0  0  0  0  0  0  0  0
    0.0300   -3.3423   -0.8847 C   0  0  0  0  0  0  0  0  0  0  0  0
    0.9058   -2.9943   -1.6704 O   0  0  0  0  0  0  0  0  0  0  0  0
   -2.3040   -3.3865   -1.8497 C   0  0  0  0  0  0  0  0  0  0  0  0
   -0.8250   -1.1669   -2.3277 H   0  0  0  0  0  0  0  0  0  0  0  0
   -1.7708   -2.6696    0.0957 H   0  0  0  0  0  0  0  0  0  0  0  0
   -1.9051   -3.4071   -2.8690 H   0  0  0  0  0  0  0  0  0  0  0  0
   -2.4458   -4.4174   -1.5119 H   0  0  0  0  0  0  0  0  0  0  0  0
   -3.2793   -2.8902   -1.8660 H   0  0  0  0  0  0  0  0  0  0  0  0
    0.2821   -4.3709    0.0036 N   0  0  0  0  0  0  0  0  0  0  0  0
    1.5771   -5.0330    0.1083 C   0  0  0  0  0  0  0  0  0  0  0  0
   -0.4376   -4.5899    0.6864 H   0  0  0  0  0  0  0  0  0  0  0  0
    1.8480   -5.4993   -0.8451 H   0  0  0  0  0  0  0  0  0  0  0  0
    2.3553   -4.3125    0.3817 H   0  0  0  0  0  0  0  0  0  0  0  0
    1.5425   -5.8128    0.8753 H   0  0  0  0  0  0  0  0  0  0  0  0
  1  2  2  0  0  0  0
  1  3  1  0  0  0  0
  1  7  1  0  0  0  0
  3  4  1  0  0  0  0
  3  5  1  0  0  0  0
  3  6  1  0  0  0  0
  7  8  1  0  0  0  0
  7 12  1  0  0  0  0
  8  9  1  0  0  0  0
  8 11  1  0  0  0  0
  8 13  1  0  0  0  0
  9 10  2  0  0  0  0
  9 17  1  0  0  0  0
 11 14  1  0  0  0  0
 11 15  1  0  0  0  0
 11 16  1  0  0  0  0
 17 18  1  0  0  0  0
 17 23  1  0  0  0  0
 18 19  1  0  0  0  0
 18 21  1  0  0  0  0
 18 24  1  0  0  0  0
 19 20  2  0  0  0  0
 19 31  1  0  0  0  0
 21 22  1  0  0  0  0
 21 25  1  0  0  0  0
 21 26  1  0  0  0  0
 22 23  1  0  0  0  0
 22 27  1  0  0  0  0
 22 28  1  0  0  0  0
 23 29  1  0  0  0  0
 23 30  1  0  0  0  0
 31 32  1  0  0  0  0
 31 36  1  0  0  0  0
 32 33  1  0  0  0  0
 32 35  1  0  0  0  0
 32 37  1  0  0  0  0
 33 34  2  0  0  0  0
 33 41  1  0  0  0  0
 35 38  1  0  0  0  0
 35 39  1  0  0  0  0
 35 40  1  0  0  0  0
 41 42  1  0  0  0  0
 41 43  1  0  0  0  0
 42 44  1  0  0  0  0
 42 45  1  0  0  0  0
 42 46  1  0  0  0  0
M  END
$$$$

  -OEChem-05262217223D

 46 46  0     1  0  0  0  0  0999 V2000
   -1.2607    0.8024    4.2159 C   0  0  0  0  0  0  0  0  0  0  0  0
   -1.4402   -0.3892    4.0200 O   0  0  0  0  0  0  0  0  0  0  0  0
   -0.9161    1.2945    5.6093 C   0  0  0  0  0  0  0  0  0  0  0  0
   -1.6572    2.0268    5.9398 H   0  0  0  0  0  0  0  0  0  0  0  0
   -0.9085    0.4581    6.3137 H   0  0  0  0  0  0  0  0  0  0  0  0
    0.0715    1.7618    5.6060 H   0  0  0  0  0  0  0  0  0  0  0  0
   -1.3573    1.7092    3.1814 N   0  0  0  0  0  0  0  0  0  0  0  0
   -1.5064    1.3504    1.7611 C   0  0  2  0  0  0  0  0  0  0  0  0
   -0.6153    2.2318    0.8503 C   0  0  0  0  0  0  0  0  0  0  0  0
   -0.2238    3.2847    1.3539 O   0  0  0  0  0  0  0  0  0  0  0  0
   -2.9891    1.5383    1.4164 C   0  0  0  0  0  0  0  0  0  0  0  0
   -1.0479    2.6611    3.3725 H   0  0  0  0  0  0  0  0  0  0  0  0
   -1.1947    0.3138    1.6354 H   0  0  0  0  0  0  0  0  0  0  0  0
   -3.3146    2.5521    1.6697 H   0  0  0  0  0  0  0  0  0  0  0  0
   -3.1685    1.3803    0.3499 H   0  0  0  0  0  0  0  0  0  0  0  0
   -3.5975    0.8234    1.9793 H   0  0  0  0  0  0  0  0  0  0  0  0
   -0.1878    1.9827   -0.4666 N   0  0  0  0  0  0  0  0  0  0  0  0
   -0.3564    0.9200   -1.4690 C   0  0  2  0  0  0  0  0  0  0  0  0
   -1.1629   -0.3941   -1.3248 C   0  0  0  0  0  0  0  0  0  0  0  0
   -1.8445   -0.6883   -0.3597 O   0  0  0  0  0  0  0  0  0  0  0  0
    1.1276    0.5780   -1.6970 C   0  0  0  0  0  0  0  0  0  0  0  0
    1.8617    1.8491   -1.2603 C   0  0  0  0  0  0  0  0  0  0  0  0
    0.7651    2.8799   -1.1880 C   0  0  0  0  0  0  0  0  0  0  0  0
   -0.7860    1.3820   -2.3648 H   0  0  0  0  0  0  0  0  0  0  0  0
    1.3195    0.3452   -2.7492 H   0  0  0  0  0  0  0  0  0  0  0  0
    1.4481   -0.2724   -1.0841 H   0  0  0  0  0  0  0  0  0  0  0  0
    2.3266    1.7122   -0.2769 H   0  0  0  0  0  0  0  0  0  0  0  0
    2.6394    2.1380   -1.9738 H   0  0  0  0  0  0  0  0  0  0  0  0
    1.0810    3.7657   -0.6268 H   0  0  0  0  0  0  0  0  0  0  0  0
    0.4049    3.2058   -2.1706 H   0  0  0  0  0  0  0  0  0  0  0  0
   -1.1934   -1.2701   -2.3969 N   0  0  0  0  0  0  0  0  0  0  0  0
   -1.8724   -2.5756   -2.3737 C   0  0  2  0  0  0  0  0  0  0  0  0
   -1.0922   -3.6215   -1.5394 C   0  0  0  0  0  0  0  0  0  0  0  0
   -0.4782   -4.5378   -2.0728 O   0  0  0  0  0  0  0  0  0  0  0  0
   -2.0795   -3.0098   -3.8301 C   0  0  0  0  0  0  0  0  0  0  0  0
   -0.5597   -1.0817   -3.1680 H   0  0  0  0  0  0  0  0  0  0  0  0
   -2.8627   -2.4688   -1.9174 H   0  0  0  0  0  0  0  0  0  0  0  0
   -1.1178   -3.1275   -4.3401 H   0  0  0  0  0  0  0  0  0  0  0  0
   -2.6091   -3.9673   -3.8674 H   0  0  0  0  0  0  0  0  0  0  0  0
   -2.6737   -2.2657   -4.3691 H   0  0  0  0  0  0  0  0  0  0  0  0
   -1.0441   -3.4842   -0.1661 N   0  0  0  0  0  0  0  0  0  0  0  0
   -0.2560   -4.3389    0.7105 C   0  0  0  0  0  0  0  0  0  0  0  0
   -1.4671   -2.6352    0.2177 H   0  0  0  0  0  0  0  0  0  0  0  0
   -0.5656   -5.3838    0.6057 H   0  0  0  0  0  0  0  0  0  0  0  0
    0.8086   -4.2588    0.4677 H   0  0  0  0  0  0  0  0  0  0  0  0
   -0.3978   -4.0399    1.7539 H   0  0  0  0  0  0  0  0  0  0  0  0
  1  2  2  0  0  0  0
  1  3  1  0  0  0  0
  1  7  1  0  0  0  0
  3  4  1  0  0  0  0
  3  5  1  0  0  0  0
  3  6  1  0  0  0  0
  7  8  1  0  0  0  0
  7 12  1  0  0  0  0
  8  9  1  0  0  0  0
  8 11  1  0  0  0  0
  8 13  1  0  0  0  0
  9 10  2  0  0  0  0
  9 17  1  0  0  0  0
 11 14  1  0  0  0  0
 11 15  1  0  0  0  0
 11 16  1  0  0  0  0
 17 18  1  0  0  0  0
 17 23  1  0  0  0  0
 18 19  1  0  0  0  0
 18 21  1  0  0  0  0
 18 24  1  0  0  0  0
 19 20  2  0  0  0  0
 19 31  1  0  0  0  0
 21 22  1  0  0  0  0
 21 25  1  0  0  0  0
 21 26  1  0  0  0  0
 22 23  1  0  0  0  0
 22 27  1  0  0  0  0
 22 28  1  0  0  0  0
 23 29  1  0  0  0  0
 23 30  1  0  0  0  0
 31 32  1  0  0  0  0
 31 36  1  0  0  0  0
 32 33  1  0  0  0  0
 32 35  1  0  0  0  0
 32 37  1  0  0  0  0
 33 34  2  0  0  0  0
 33 41  1  0  0  0  0
 35 38  1  0  0  0  0
 35 39  1  0  0  0  0
 35 40  1  0  0  0  0
 41 42  1  0  0  0  0
 41 43  1  0  0  0  0
 42 44  1  0  0  0  0
 42 45  1  0  0  0  0
 42 46  1  0  0  0  0
M  END
$$$$

  -OEChem-05262217223D

 46 46  0     1  0  0  0  0  0999 V2000
   -1.6077    0.5663    3.6948 C   0  0  0  0  0  0  0  0  0  0  0  0
   -1.6853   -0.5939    3.3119 O   0  0  0  0  0  0  0  0  0  0  0  0
   -1.3685    0.8586    5.1639 C   0  0  0  0  0  0  0  0  0  0  0  0
   -2.1451    1.5276    5.5429 H   0  0  0  0  0  0  0  0  0  0  0  0
   -1.3917   -0.0695    5.7420 H   0  0  0  0  0  0  0  0  0  0  0  0
   -0.3930    1.3330    5.2957 H   0  0  0  0  0  0  0  0  0  0  0  0
   -1.7176    1.6129    2.8020 N   0  0  0  0  0  0  0  0  0  0  0  0
   -1.8301    1.4568    1.3443 C   0  0  2  0  0  0  0  0  0  0  0  0
   -0.8883    2.4160    0.5713 C   0  0  0  0  0  0  0  0  0  0  0  0
   -0.6905    3.5110    1.0944 O   0  0  0  0  0  0  0  0  0  0  0  0
   -3.2919    1.7273    0.9729 C   0  0  0  0  0  0  0  0  0  0  0  0
   -1.5249    2.5511    3.1491 H   0  0  0  0  0  0  0  0  0  0  0  0
   -1.5610    0.4338    1.0978 H   0  0  0  0  0  0  0  0  0  0  0  0
   -3.5937    2.7248    1.3072 H   0  0  0  0  0  0  0  0  0  0  0  0
   -3.4345    1.6717   -0.1102 H   0  0  0  0  0  0  0  0  0  0  0  0
   -3.9439    0.9862    1.4453 H   0  0  0  0  0  0  0  0  0  0  0  0
   -0.1900    2.1478   -0.6177 N   0  0  0  0  0  0  0  0  0  0  0  0
   -0.0795    0.9907   -1.5089 C   0  0  2  0  0  0  0  0  0  0  0  0
   -0.8493   -0.3147   -1.2163 C   0  0  0  0  0  0  0  0  0  0  0  0
   -2.0661   -0.2910   -1.1083 O   0  0  0  0  0  0  0  0  0  0  0  0
    1.4515    0.8081   -1.4569 C   0  0  0  0  0  0  0  0  0  0  0  0
    1.9597    2.1955   -1.0464 C   0  0  0  0  0  0  0  0  0  0  0  0
    0.7676    3.0929   -1.2596 C   0  0  0  0  0  0  0  0  0  0  0  0
   -0.3923    1.2802   -2.5184 H   0  0  0  0  0  0  0  0  0  0  0  0
    1.8405    0.5066   -2.4350 H   0  0  0  0  0  0  0  0  0  0  0  0
    1.7614    0.0699   -0.7088 H   0  0  0  0  0  0  0  0  0  0  0  0
    2.2612    2.2016    0.0076 H   0  0  0  0  0  0  0  0  0  0  0  0
    2.8141    2.5118   -1.6526 H   0  0  0  0  0  0  0  0  0  0  0  0
    0.8783    4.0503   -0.7393 H   0  0  0  0  0  0  0  0  0  0  0  0
    0.5495    3.2902   -2.3156 H   0  0  0  0  0  0  0  0  0  0  0  0
   -0.2516   -1.5557   -1.3112 N   0  0  0  0  0  0  0  0  0  0  0  0
   -0.6263   -2.5939   -0.3410 C   0  0  2  0  0  0  0  0  0  0  0  0
    0.4548   -2.6605    0.7587 C   0  0  0  0  0  0  0  0  0  0  0  0
    1.6351   -2.6904    0.4236 O   0  0  0  0  0  0  0  0  0  0  0  0
   -0.7532   -3.9278   -1.0784 C   0  0  0  0  0  0  0  0  0  0  0  0
    0.7494   -1.5239   -1.4987 H   0  0  0  0  0  0  0  0  0  0  0  0
   -1.5881   -2.3720    0.1347 H   0  0  0  0  0  0  0  0  0  0  0  0
    0.1941   -4.1964   -1.5568 H   0  0  0  0  0  0  0  0  0  0  0  0
   -1.0277   -4.7231   -0.3788 H   0  0  0  0  0  0  0  0  0  0  0  0
   -1.5274   -3.8606   -1.8488 H   0  0  0  0  0  0  0  0  0  0  0  0
    0.1329   -2.5668    2.0992 N   0  0  0  0  0  0  0  0  0  0  0  0
    1.1465   -2.4525    3.1398 C   0  0  0  0  0  0  0  0  0  0  0  0
   -0.8071   -2.2317    2.3271 H   0  0  0  0  0  0  0  0  0  0  0  0
    1.8482   -3.2916    3.0884 H   0  0  0  0  0  0  0  0  0  0  0  0
    1.7045   -1.5170    3.0297 H   0  0  0  0  0  0  0  0  0  0  0  0
    0.6725   -2.4607    4.1260 H   0  0  0  0  0  0  0  0  0  0  0  0
  1  2  2  0  0  0  0
  1  3  1  0  0  0  0
  1  7  1  0  0  0  0
  3  4  1  0  0  0  0
  3  5  1  0  0  0  0
  3  6  1  0  0  0  0
  7  8  1  0  0  0  0
  7 12  1  0  0  0  0
  8  9  1  0  0  0  0
  8 11  1  0  0  0  0
  8 13  1  0  0  0  0
  9 10  2  0  0  0  0
  9 17  1  0  0  0  0
 11 14  1  0  0  0  0
 11 15  1  0  0  0  0
 11 16  1  0  0  0  0
 17 18  1  0  0  0  0
 17 23  1  0  0  0  0
 18 19  1  0  0  0  0
 18 21  1  0  0  0  0
 18 24  1  0  0  0  0
 19 20  2  0  0  0  0
 19 31  1  0  0  0  0
 21 22  1  0  0  0  0
 21 25  1  0  0  0  0
 21 26  1  0  0  0  0
 22 23  1  0  0  0  0
 22 27  1  0  0  0  0
 22 28  1  0  0  0  0
 23 29  1  0  0  0  0
 23 30  1  0  0  0  0
 31 32  1  0  0  0  0
 31 36  1  0  0  0  0
 32 33  1  0  0  0  0
 32 35  1  0  0  0  0
 32 37  1  0  0  0  0
 33 34  2  0  0  0  0
 33 41  1  0  0  0  0
 35 38  1  0  0  0  0
 35 39  1  0  0  0  0
 35 40  1  0  0  0  0
 41 42  1  0  0  0  0
 41 43  1  0  0  0  0
 42 44  1  0  0  0  0
 42 45  1  0  0  0  0
 42 46  1  0  0  0  0
M  END
$$$$

  -OEChem-05262217223D

 46 46  0     1  0  0  0  0  0999 V2000
   -1.9983    0.6383    3.8486 C   0  0  0  0  0  0  0  0  0  0  0  0
   -2.4774   -0.4175    3.4589 O   0  0  0  0  0  0  0  0  0  0  0  0
   -1.8000    0.8726    5.3342 C   0  0  0  0  0  0  0  0  0  0  0  0
   -2.4184    1.7111    5.6633 H   0  0  0  0  0  0  0  0  0  0  0  0
   -2.0849   -0.0192    5.8992 H   0  0  0  0  0  0  0  0  0  0  0  0
   -0.7514    1.1005    5.5400 H   0  0  0  0  0  0  0  0  0  0  0  0
   -1.6127    1.6110    2.9516 N   0  0  0  0  0  0  0  0  0  0  0  0
   -1.6793    1.4777    1.4911 C   0  0  2  0  0  0  0  0  0  0  0  0
   -0.5717    2.2962    0.7757 C   0  0  0  0  0  0  0  0  0  0  0  0
   -0.1987    3.3255    1.3375 O   0  0  0  0  0  0  0  0  0  0  0  0
   -3.0619    1.9771    1.0565 C   0  0  0  0  0  0  0  0  0  0  0  0
   -1.1328    2.4335    3.3140 H   0  0  0  0  0  0  0  0  0  0  0  0
   -1.5729    0.4279    1.2316 H   0  0  0  0  0  0  0  0  0  0  0  0
   -3.2233    3.0030    1.4022 H   0  0  0  0  0  0  0  0  0  0  0  0
   -3.1566    1.9656   -0.0326 H   0  0  0  0  0  0  0  0  0  0  0  0
   -3.8445    1.3381    1.4770 H   0  0  0  0  0  0  0  0  0  0  0  0
    0.0184    1.9915   -0.4578 N   0  0  0  0  0  0  0  0  0  0  0  0
   -0.1555    0.9170   -1.4279 C   0  0  2  0  0  0  0  0  0  0  0  0
   -1.1883   -0.2036   -1.1506 C   0  0  0  0  0  0  0  0  0  0  0  0
   -2.3433   -0.0102   -1.4928 O   0  0  0  0  0  0  0  0  0  0  0  0
    1.3009    0.4907   -1.6599 C   0  0  0  0  0  0  0  0  0  0  0  0
    2.0701    1.7505   -1.2363 C   0  0  0  0  0  0  0  0  0  0  0  0
    1.0221    2.8382   -1.1666 C   0  0  0  0  0  0  0  0  0  0  0  0
   -0.5245    1.3618   -2.3596 H   0  0  0  0  0  0  0  0  0  0  0  0
    1.4626    0.2585   -2.7168 H   0  0  0  0  0  0  0  0  0  0  0  0
    1.6147   -0.3709   -1.0756 H   0  0  0  0  0  0  0  0  0  0  0  0
    2.5235    1.6011   -0.2495 H   0  0  0  0  0  0  0  0  0  0  0  0
    2.8633    2.0008   -1.9468 H   0  0  0  0  0  0  0  0  0  0  0  0
    1.3701    3.6976   -0.5840 H   0  0  0  0  0  0  0  0  0  0  0  0
    0.6873    3.1892   -2.1493 H   0  0  0  0  0  0  0  0  0  0  0  0
   -0.9715   -1.5607   -1.0282 N   0  0  0  0  0  0  0  0  0  0  0  0
   -0.3350   -2.2794    0.1008 C   0  0  2  0  0  0  0  0  0  0  0  0
    0.2442   -1.5305    1.3332 C   0  0  0  0  0  0  0  0  0  0  0  0
    0.9524   -0.5423    1.2255 O   0  0  0  0  0  0  0  0  0  0  0  0
    0.7454   -3.1896   -0.4932 C   0  0  0  0  0  0  0  0  0  0  0  0
   -1.8089   -2.0277   -1.3685 H   0  0  0  0  0  0  0  0  0  0  0  0
   -1.1187   -2.9230    0.5124 H   0  0  0  0  0  0  0  0  0  0  0  0
    1.5673   -2.6017   -0.9100 H   0  0  0  0  0  0  0  0  0  0  0  0
    1.1530   -3.8499    0.2789 H   0  0  0  0  0  0  0  0  0  0  0  0
    0.3251   -3.8107   -1.2903 H   0  0  0  0  0  0  0  0  0  0  0  0
    0.1040   -2.0825    2.5934 N   0  0  0  0  0  0  0  0  0  0  0  0
    0.7483   -1.5417    3.7853 C   0  0  0  0  0  0  0  0  0  0  0  0
   -0.6112   -2.7941    2.7136 H   0  0  0  0  0  0  0  0  0  0  0  0
    1.8182   -1.7734    3.7761 H   0  0  0  0  0  0  0  0  0  0  0  0
    0.6276   -0.4550    3.8377 H   0  0  0  0  0  0  0  0  0  0  0  0
    0.3043   -1.9792    4.6846 H   0  0  0  0  0  0  0  0  0  0  0  0
  1  2  2  0  0  0  0
  1  3  1  0  0  0  0
  1  7  1  0  0  0  0
  3  4  1  0  0  0  0
  3  5  1  0  0  0  0
  3  6  1  0  0  0  0
  7  8  1  0  0  0  0
  7 12  1  0  0  0  0
  8  9  1  0  0  0  0
  8 11  1  0  0  0  0
  8 13  1  0  0  0  0
  9 10  2  0  0  0  0
  9 17  1  0  0  0  0
 11 14  1  0  0  0  0
 11 15  1  0  0  0  0
 11 16  1  0  0  0  0
 17 18  1  0  0  0  0
 17 23  1  0  0  0  0
 18 19  1  0  0  0  0
 18 21  1  0  0  0  0
 18 24  1  0  0  0  0
 19 20  2  0  0  0  0
 19 31  1  0  0  0  0
 21 22  1  0  0  0  0
 21 25  1  0  0  0  0
 21 26  1  0  0  0  0
 22 23  1  0  0  0  0
 22 27  1  0  0  0  0
 22 28  1  0  0  0  0
 23 29  1  0  0  0  0
 23 30  1  0  0  0  0
 31 32  1  0  0  0  0
 31 36  1  0  0  0  0
 32 33  1  0  0  0  0
 32 35  1  0  0  0  0
 32 37  1  0  0  0  0
 33 34  2  0  0  0  0
 33 41  1  0  0  0  0
 35 38  1  0  0  0  0
 35 39  1  0  0  0  0
 35 40  1  0  0  0  0
 41 42  1  0  0  0  0
 41 43  1  0  0  0  0
 42 44  1  0  0  0  0
 42 45  1  0  0  0  0
 42 46  1  0  0  0  0
M  END
$$$$

  -OEChem-05262217223D

 46 46  0     1  0  0  0  0  0999 V2000
   -2.1306    0.9683    3.8000 C   0  0  0  0  0  0  0  0  0  0  0  0
   -2.3956   -0.1853    3.4886 O   0  0  0  0  0  0  0  0  0  0  0  0
   -1.8154    1.2955    5.2477 C   0  0  0  0  0  0  0  0  0  0  0  0
   -2.5250    2.0356    5.6253 H   0  0  0  0  0  0  0  0  0  0  0  0
   -1.8838    0.3945    5.8634 H   0  0  0  0  0  0  0  0  0  0  0  0
   -0.8029    1.6993    5.3244 H   0  0  0  0  0  0  0  0  0  0  0  0
   -2.1205    1.9856    2.8676 N   0  0  0  0  0  0  0  0  0  0  0  0
   -2.0790    1.7616    1.4160 C   0  0  2  0  0  0  0  0  0  0  0  0
   -0.8916    2.5232    0.7654 C   0  0  0  0  0  0  0  0  0  0  0  0
   -0.6172    3.6207    1.2518 O   0  0  0  0  0  0  0  0  0  0  0  0
   -3.4099    2.2438    0.8344 C   0  0  0  0  0  0  0  0  0  0  0  0
   -1.7404    2.8770    3.1808 H   0  0  0  0  0  0  0  0  0  0  0  0
   -1.9722    0.6966    1.2299 H   0  0  0  0  0  0  0  0  0  0  0  0
   -3.5665    3.3029    1.0617 H   0  0  0  0  0  0  0  0  0  0  0  0
   -3.4235    2.1180   -0.2520 H   0  0  0  0  0  0  0  0  0  0  0  0
   -4.2371    1.6675    1.2598 H   0  0  0  0  0  0  0  0  0  0  0  0
   -0.1280    2.1111   -0.3360 N   0  0  0  0  0  0  0  0  0  0  0  0
   -0.1553    0.9348   -1.1985 C   0  0  2  0  0  0  0  0  0  0  0  0
   -1.2172   -0.1675   -0.9375 C   0  0  0  0  0  0  0  0  0  0  0  0
   -2.3203    0.0036   -1.4319 O   0  0  0  0  0  0  0  0  0  0  0  0
    1.3348    0.5592   -1.1711 C   0  0  0  0  0  0  0  0  0  0  0  0
    2.0080    1.8854   -0.7918 C   0  0  0  0  0  0  0  0  0  0  0  0
    0.9340    2.9246   -0.9952 C   0  0  0  0  0  0  0  0  0  0  0  0
   -0.3953    1.2647   -2.2160 H   0  0  0  0  0  0  0  0  0  0  0  0
    1.6594    0.2005   -2.1526 H   0  0  0  0  0  0  0  0  0  0  0  0
    1.5857   -0.1882   -0.4252 H   0  0  0  0  0  0  0  0  0  0  0  0
    2.3224    1.8657    0.2583 H   0  0  0  0  0  0  0  0  0  0  0  0
    2.8863    2.0883   -1.4119 H   0  0  0  0  0  0  0  0  0  0  0  0
    1.1706    3.8585   -0.4744 H   0  0  0  0  0  0  0  0  0  0  0  0
    0.7293    3.1481   -2.0484 H   0  0  0  0  0  0  0  0  0  0  0  0
   -1.1848   -1.4345   -0.3821 N   0  0  0  0  0  0  0  0  0  0  0  0
   -0.2613   -2.1173    0.5457 C   0  0  2  0  0  0  0  0  0  0  0  0
    0.3415   -1.3365    1.7461 C   0  0  0  0  0  0  0  0  0  0  0  0
    0.4614   -0.1210    1.7539 O   0  0  0  0  0  0  0  0  0  0  0  0
    0.7928   -2.8934   -0.2578 C   0  0  0  0  0  0  0  0  0  0  0  0
   -2.1094   -1.8522   -0.4587 H   0  0  0  0  0  0  0  0  0  0  0  0
   -0.8812   -2.8754    1.0345 H   0  0  0  0  0  0  0  0  0  0  0  0
    1.3946   -2.2387   -0.8886 H   0  0  0  0  0  0  0  0  0  0  0  0
    1.4640   -3.4362    0.4149 H   0  0  0  0  0  0  0  0  0  0  0  0
    0.2987   -3.6213   -0.9090 H   0  0  0  0  0  0  0  0  0  0  0  0
    0.7663   -2.0362    2.8619 N   0  0  0  0  0  0  0  0  0  0  0  0
    1.2079   -1.3785    4.0863 C   0  0  0  0  0  0  0  0  0  0  0  0
    0.5368   -3.0243    2.9027 H   0  0  0  0  0  0  0  0  0  0  0  0
    1.5314   -2.1227    4.8202 H   0  0  0  0  0  0  0  0  0  0  0  0
    2.0502   -0.7093    3.8817 H   0  0  0  0  0  0  0  0  0  0  0  0
    0.3911   -0.7939    4.5218 H   0  0  0  0  0  0  0  0  0  0  0  0
  1  2  2  0  0  0  0
  1  3  1  0  0  0  0
  1  7  1  0  0  0  0
  3  4  1  0  0  0  0
  3  5  1  0  0  0  0
  3  6  1  0  0  0  0
  7  8  1  0  0  0  0
  7 12  1  0  0  0  0
  8  9  1  0  0  0  0
  8 11  1  0  0  0  0
  8 13  1  0  0  0  0
  9 10  2  0  0  0  0
  9 17  1  0  0  0  0
 11 14  1  0  0  0  0
 11 15  1  0  0  0  0
 11 16  1  0  0  0  0
 17 18  1  0  0  0  0
 17 23  1  0  0  0  0
 18 19  1  0  0  0  0
 18 21  1  0  0  0  0
 18 24  1  0  0  0  0
 19 20  2  0  0  0  0
 19 31  1  0  0  0  0
 21 22  1  0  0  0  0
 21 25  1  0  0  0  0
 21 26  1  0  0  0  0
 22 23  1  0  0  0  0
 22 27  1  0  0  0  0
 22 28  1  0  0  0  0
 23 29  1  0  0  0  0
 23 30  1  0  0  0  0
 31 32  1  0  0  0  0
 31 36  1  0  0  0  0
 32 33  1  0  0  0  0
 32 35  1  0  0  0  0
 32 37  1  0  0  0  0
 33 34  2  0  0  0  0
 33 41  1  0  0  0  0
 35 38  1  0  0  0  0
 35 39  1  0  0  0  0
 35 40  1  0  0  0  0
 41 42  1  0  0  0  0
 41 43  1  0  0  0  0
 42 44  1  0  0  0  0
 42 45  1  0  0  0  0
 42 46  1  0  0  0  0
M  END
$$$$

  -OEChem-05262217223D

 46 46  0     1  0  0  0  0  0999 V2000
   -2.8225    1.3272    3.6558 C   0  0  0  0  0  0  0  0  0  0  0  0
   -2.6975    0.1144    3.5602 O   0  0  0  0  0  0  0  0  0  0  0  0
   -3.0875    1.9600    5.0084 C   0  0  0  0  0  0  0  0  0  0  0  0
   -4.0400    2.4950    4.9884 H   0  0  0  0  0  0  0  0  0  0  0  0
   -3.1318    1.1899    5.7837 H   0  0  0  0  0  0  0  0  0  0  0  0
   -2.2883    2.6631    5.2554 H   0  0  0  0  0  0  0  0  0  0  0  0
   -2.6576    2.1277    2.5459 N   0  0  0  0  0  0  0  0  0  0  0  0
   -2.2502    1.6468    1.2167 C   0  0  2  0  0  0  0  0  0  0  0  0
   -1.0199    2.4092    0.6626 C   0  0  0  0  0  0  0  0  0  0  0  0
   -0.9060    3.5826    1.0099 O   0  0  0  0  0  0  0  0  0  0  0  0
   -3.4516    1.8506    0.2885 C   0  0  0  0  0  0  0  0  0  0  0  0
   -2.6072    3.1334    2.7021 H   0  0  0  0  0  0  0  0  0  0  0  0
   -2.0168    0.5883    1.2714 H   0  0  0  0  0  0  0  0  0  0  0  0
   -4.2963    1.2417    0.6248 H   0  0  0  0  0  0  0  0  0  0  0  0
   -3.2050    1.5615   -0.7369 H   0  0  0  0  0  0  0  0  0  0  0  0
   -3.7569    2.9017    0.2823 H   0  0  0  0  0  0  0  0  0  0  0  0
   -0.0364    1.8997   -0.1960 N   0  0  0  0  0  0  0  0  0  0  0  0
    0.1935    0.6033   -0.8308 C   0  0  2  0  0  0  0  0  0  0  0  0
   -0.8035   -0.5627   -0.5746 C   0  0  0  0  0  0  0  0  0  0  0  0
   -1.8296   -0.5804   -1.2329 O   0  0  0  0  0  0  0  0  0  0  0  0
    1.6897    0.4267   -0.5305 C   0  0  0  0  0  0  0  0  0  0  0  0
    2.1604    1.8689   -0.3028 C   0  0  0  0  0  0  0  0  0  0  0  0
    1.0355    2.7201   -0.8343 C   0  0  0  0  0  0  0  0  0  0  0  0
    0.0998    0.7419   -1.9147 H   0  0  0  0  0  0  0  0  0  0  0  0
    2.1983   -0.0352   -1.3825 H   0  0  0  0  0  0  0  0  0  0  0  0
    1.9056   -0.1579    0.3531 H   0  0  0  0  0  0  0  0  0  0  0  0
    2.3071    2.0574    0.7672 H   0  0  0  0  0  0  0  0  0  0  0  0
    3.1016    2.0759   -0.8211 H   0  0  0  0  0  0  0  0  0  0  0  0
    1.0969    3.7481   -0.4612 H   0  0  0  0  0  0  0  0  0  0  0  0
    0.9808    2.7446   -1.9288 H   0  0  0  0  0  0  0  0  0  0  0  0
   -0.8578   -1.5633    0.3827 N   0  0  0  0  0  0  0  0  0  0  0  0
    0.1651   -2.1689    1.2568 C   0  0  2  0  0  0  0  0  0  0  0  0
    0.8309   -1.2389    2.3032 C   0  0  0  0  0  0  0  0  0  0  0  0
    2.0155   -1.3732    2.5848 O   0  0  0  0  0  0  0  0  0  0  0  0
    1.1579   -2.9608    0.3883 C   0  0  0  0  0  0  0  0  0  0  0  0
   -1.7262   -2.0874    0.2932 H   0  0  0  0  0  0  0  0  0  0  0  0
   -0.3616   -2.9083    1.8682 H   0  0  0  0  0  0  0  0  0  0  0  0
    1.7438   -2.3050   -0.2580 H   0  0  0  0  0  0  0  0  0  0  0  0
    1.8503   -3.5248    1.0217 H   0  0  0  0  0  0  0  0  0  0  0  0
    0.6191   -3.6730   -0.2443 H   0  0  0  0  0  0  0  0  0  0  0  0
    0.1247   -0.2102    2.8953 N   0  0  0  0  0  0  0  0  0  0  0  0
    0.7144    0.6949    3.8746 C   0  0  0  0  0  0  0  0  0  0  0  0
   -0.8961   -0.2571    2.8375 H   0  0  0  0  0  0  0  0  0  0  0  0
    1.6669    1.0928    3.5092 H   0  0  0  0  0  0  0  0  0  0  0  0
    0.8896    0.1719    4.8201 H   0  0  0  0  0  0  0  0  0  0  0  0
    0.0456    1.5398    4.0602 H   0  0  0  0  0  0  0  0  0  0  0  0
  1  2  2  0  0  0  0
  1  3  1  0  0  0  0
  1  7  1  0  0  0  0
  3  4  1  0  0  0  0
  3  5  1  0  0  0  0
  3  6  1  0  0  0  0
  7  8  1  0  0  0  0
  7 12  1  0  0  0  0
  8  9  1  0  0  0  0
  8 11  1  0  0  0  0
  8 13  1  0  0  0  0
  9 10  2  0  0  0  0
  9 17  1  0  0  0  0
 11 14  1  0  0  0  0
 11 15  1  0  0  0  0
 11 16  1  0  0  0  0
 17 18  1  0  0  0  0
 17 23  1  0  0  0  0
 18 19  1  0  0  0  0
 18 21  1  0  0  0  0
 18 24  1  0  0  0  0
 19 20  2  0  0  0  0
 19 31  1  0  0  0  0
 21 22  1  0  0  0  0
 21 25  1  0  0  0  0
 21 26  1  0  0  0  0
 22 23  1  0  0  0  0
 22 27  1  0  0  0  0
 22 28  1  0  0  0  0
 23 29  1  0  0  0  0
 23 30  1  0  0  0  0
 31 32  1  0  0  0  0
 31 36  1  0  0  0  0
 32 33  1  0  0  0  0
 32 35  1  0  0  0  0
 32 37  1  0  0  0  0
 33 34  2  0  0  0  0
 33 41  1  0  0  0  0
 35 38  1  0  0  0  0
 35 39  1  0  0  0  0
 35 40  1  0  0  0  0
 41 42  1  0  0  0  0
 41 43  1  0  0  0  0
 42 44  1  0  0  0  0
 42 45  1  0  0  0  0
 42 46  1  0  0  0  0
M  END
$$$$

  -OEChem-05262217223D

 46 46  0     1  0  0  0  0  0999 V2000
   -2.8372    1.8395    3.7925 C   0  0  0  0  0  0  0  0  0  0  0  0
   -2.8595    0.6179    3.7395 O   0  0  0  0  0  0  0  0  0  0  0  0
   -3.0552    2.5496    5.1148 C   0  0  0  0  0  0  0  0  0  0  0  0
   -3.8843    3.2562    5.0270 H   0  0  0  0  0  0  0  0  0  0  0  0
   -3.2928    1.8241    5.8982 H   0  0  0  0  0  0  0  0  0  0  0  0
   -2.1514    3.0940    5.4000 H   0  0  0  0  0  0  0  0  0  0  0  0
   -2.5490    2.5722    2.6614 N   0  0  0  0  0  0  0  0  0  0  0  0
   -2.1871    1.9980    1.3559 C   0  0  2  0  0  0  0  0  0  0  0  0
   -0.8960    2.6193    0.7685 C   0  0  0  0  0  0  0  0  0  0  0  0
   -0.6301    3.7646    1.1268 O   0  0  0  0  0  0  0  0  0  0  0  0
   -3.3668    2.2660    0.4168 C   0  0  0  0  0  0  0  0  0  0  0  0
   -2.3709    3.5677    2.7860 H   0  0  0  0  0  0  0  0  0  0  0  0
   -2.0471    0.9285    1.4555 H   0  0  0  0  0  0  0  0  0  0  0  0
   -3.5703    3.3397    0.3539 H   0  0  0  0  0  0  0  0  0  0  0  0
   -3.1532    1.9003   -0.5912 H   0  0  0  0  0  0  0  0  0  0  0  0
   -4.2648    1.7599    0.7839 H   0  0  0  0  0  0  0  0  0  0  0  0
   -0.0170    2.0121   -0.1378 N   0  0  0  0  0  0  0  0  0  0  0  0
    0.0362    0.7135   -0.8076 C   0  0  2  0  0  0  0  0  0  0  0  0
   -1.0600   -0.3619   -0.5591 C   0  0  0  0  0  0  0  0  0  0  0  0
   -2.0394   -0.3513   -1.2853 O   0  0  0  0  0  0  0  0  0  0  0  0
    1.5077    0.3460   -0.5751 C   0  0  0  0  0  0  0  0  0  0  0  0
    2.1584    1.7146   -0.3358 C   0  0  0  0  0  0  0  0  0  0  0  0
    1.1251    2.7108   -0.8007 C   0  0  0  0  0  0  0  0  0  0  0  0
   -0.0786    0.8980   -1.8828 H   0  0  0  0  0  0  0  0  0  0  0  0
    1.9217   -0.1479   -1.4601 H   0  0  0  0  0  0  0  0  0  0  0  0
    1.6798   -0.2929    0.2807 H   0  0  0  0  0  0  0  0  0  0  0  0
    2.3696    1.8549    0.7308 H   0  0  0  0  0  0  0  0  0  0  0  0
    3.0962    1.8204   -0.8898 H   0  0  0  0  0  0  0  0  0  0  0  0
    1.3274    3.7132   -0.4084 H   0  0  0  0  0  0  0  0  0  0  0  0
    1.0329    2.7723   -1.8912 H   0  0  0  0  0  0  0  0  0  0  0  0
   -1.2929   -1.2007    0.5196 N   0  0  0  0  0  0  0  0  0  0  0  0
   -0.3583   -1.8997    1.4248 C   0  0  2  0  0  0  0  0  0  0  0  0
    0.4882   -1.0228    2.3834 C   0  0  0  0  0  0  0  0  0  0  0  0
    1.6753   -1.2636    2.5671 O   0  0  0  0  0  0  0  0  0  0  0  0
    0.4641   -2.9097    0.6056 C   0  0  0  0  0  0  0  0  0  0  0  0
   -2.2091   -1.6347    0.4249 H   0  0  0  0  0  0  0  0  0  0  0  0
   -0.9827   -2.4925    2.1008 H   0  0  0  0  0  0  0  0  0  0  0  0
    1.0705   -3.5331    1.2707 H   0  0  0  0  0  0  0  0  0  0  0  0
   -0.2022   -3.5660    0.0378 H   0  0  0  0  0  0  0  0  0  0  0  0
    1.1330   -2.4103   -0.0979 H   0  0  0  0  0  0  0  0  0  0  0  0
   -0.0737    0.0470    3.0502 N   0  0  0  0  0  0  0  0  0  0  0  0
    0.6801    0.9084    3.9524 C   0  0  0  0  0  0  0  0  0  0  0  0
   -1.0955    0.1042    3.0637 H   0  0  0  0  0  0  0  0  0  0  0  0
    1.0371    0.3398    4.8171 H   0  0  0  0  0  0  0  0  0  0  0  0
    1.5410    1.3443    3.4352 H   0  0  0  0  0  0  0  0  0  0  0  0
    0.0492    1.7265    4.3110 H   0  0  0  0  0  0  0  0  0  0  0  0
  1  2  2  0  0  0  0
  1  3  1  0  0  0  0
  1  7  1  0  0  0  0
  3  4  1  0  0  0  0
  3  5  1  0  0  0  0
  3  6  1  0  0  0  0
  7  8  1  0  0  0  0
  7 12  1  0  0  0  0
  8  9  1  0  0  0  0
  8 11  1  0  0  0  0
  8 13  1  0  0  0  0
  9 10  2  0  0  0  0
  9 17  1  0  0  0  0
 11 14  1  0  0  0  0
 11 15  1  0  0  0  0
 11 16  1  0  0  0  0
 17 18  1  0  0  0  0
 17 23  1  0  0  0  0
 18 19  1  0  0  0  0
 18 21  1  0  0  0  0
 18 24  1  0  0  0  0
 19 20  2  0  0  0  0
 19 31  1  0  0  0  0
 21 22  1  0  0  0  0
 21 25  1  0  0  0  0
 21 26  1  0  0  0  0
 22 23  1  0  0  0  0
 22 27  1  0  0  0  0
 22 28  1  0  0  0  0
 23 29  1  0  0  0  0
 23 30  1  0  0  0  0
 31 32  1  0  0  0  0
 31 36  1  0  0  0  0
 32 33  1  0  0  0  0
 32 35  1  0  0  0  0
 32 37  1  0  0  0  0
 33 34  2  0  0  0  0
 33 41  1  0  0  0  0
 35 38  1  0  0  0  0
 35 39  1  0  0  0  0
 35 40  1  0  0  0  0
 41 42  1  0  0  0  0
 41 43  1  0  0  0  0
 42 44  1  0  0  0  0
 42 45  1  0  0  0  0
 42 46  1  0  0  0  0
M  END
$$$$

  -OEChem-05262217223D

 46 46  0     1  0  0  0  0  0999 V2000
   -0.8720    2.4663    4.2156 C   0  0  0  0  0  0  0  0  0  0  0  0
   -1.7614    1.6330    4.0917 O   0  0  0  0  0  0  0  0  0  0  0  0
   -0.3177    2.7854    5.5910 C   0  0  0  0  0  0  0  0  0  0  0  0
   -0.5037    3.8347    5.8327 H   0  0  0  0  0  0  0  0  0  0  0  0
   -0.7986    2.1591    6.3475 H   0  0  0  0  0  0  0  0  0  0  0  0
    0.7590    2.5998    5.6132 H   0  0  0  0  0  0  0  0  0  0  0  0
   -0.3536    3.1010    3.1050 N   0  0  0  0  0  0  0  0  0  0  0  0
   -0.7362    2.7910    1.7205 C   0  0  2  0  0  0  0  0  0  0  0  0
    0.4587    2.7833    0.7352 C   0  0  0  0  0  0  0  0  0  0  0  0
    1.4483    3.4270    1.0754 O   0  0  0  0  0  0  0  0  0  0  0  0
   -1.7744    3.8261    1.2808 C   0  0  0  0  0  0  0  0  0  0  0  0
    0.4638    3.6954    3.2366 H   0  0  0  0  0  0  0  0  0  0  0  0
   -1.1899    1.8161    1.7151 H   0  0  0  0  0  0  0  0  0  0  0  0
   -1.3503    4.8344    1.3203 H   0  0  0  0  0  0  0  0  0  0  0  0
   -2.1060    3.6301    0.2569 H   0  0  0  0  0  0  0  0  0  0  0  0
   -2.6486    3.7880    1.9380 H   0  0  0  0  0  0  0  0  0  0  0  0
    0.5324    2.1022   -0.4897 N   0  0  0  0  0  0  0  0  0  0  0  0
   -0.3584    1.2255   -1.2531 C   0  0  2  0  0  0  0  0  0  0  0  0
   -1.7696    0.8230   -0.7494 C   0  0  0  0  0  0  0  0  0  0  0  0
   -2.7372    1.3865   -1.2311 O   0  0  0  0  0  0  0  0  0  0  0  0
    0.5843    0.0558   -1.5728 C   0  0  0  0  0  0  0  0  0  0  0  0
    1.9656    0.7148   -1.4471 C   0  0  0  0  0  0  0  0  0  0  0  0
    1.6820    2.1999   -1.4399 C   0  0  0  0  0  0  0  0  0  0  0  0
   -0.5846    1.7386   -2.1961 H   0  0  0  0  0  0  0  0  0  0  0  0
    0.4047   -0.3054   -2.5908 H   0  0  0  0  0  0  0  0  0  0  0  0
    0.4935   -0.7923   -0.8945 H   0  0  0  0  0  0  0  0  0  0  0  0
    2.4494    0.4166   -0.5100 H   0  0  0  0  0  0  0  0  0  0  0  0
    2.6230    0.4373   -2.2769 H   0  0  0  0  0  0  0  0  0  0  0  0
    2.5347    2.7703   -1.0563 H   0  0  0  0  0  0  0  0  0  0  0  0
    1.4086    2.5997   -2.4234 H   0  0  0  0  0  0  0  0  0  0  0  0
   -2.1181    0.1432    0.4025 N   0  0  0  0  0  0  0  0  0  0  0  0
   -1.4283   -1.0001    1.0351 C   0  0  2  0  0  0  0  0  0  0  0  0
   -2.3759   -1.6852    2.0413 C   0  0  0  0  0  0  0  0  0  0  0  0
   -2.6535   -2.8680    1.9023 O   0  0  0  0  0  0  0  0  0  0  0  0
   -0.1355   -0.6411    1.7908 C   0  0  0  0  0  0  0  0  0  0  0  0
   -3.1269    0.1804    0.5475 H   0  0  0  0  0  0  0  0  0  0  0  0
   -1.1916   -1.7353    0.2590 H   0  0  0  0  0  0  0  0  0  0  0  0
    0.5509   -0.0567    1.1803 H   0  0  0  0  0  0  0  0  0  0  0  0
   -0.3534   -0.0691    2.6947 H   0  0  0  0  0  0  0  0  0  0  0  0
    0.3792   -1.5587    2.0929 H   0  0  0  0  0  0  0  0  0  0  0  0
   -2.9438   -0.9600    3.0745 N   0  0  0  0  0  0  0  0  0  0  0  0
   -3.8023   -1.5566    4.0880 C   0  0  0  0  0  0  0  0  0  0  0  0
   -2.5886   -0.0131    3.2396 H   0  0  0  0  0  0  0  0  0  0  0  0
   -4.6854   -2.0090    3.6250 H   0  0  0  0  0  0  0  0  0  0  0  0
   -3.2601   -2.3281    4.6443 H   0  0  0  0  0  0  0  0  0  0  0  0
   -4.1373   -0.7907    4.7943 H   0  0  0  0  0  0  0  0  0  0  0  0
  1  2  2  0  0  0  0
  1  3  1  0  0  0  0
  1  7  1  0  0  0  0
  3  4  1  0  0  0  0
  3  5  1  0  0  0  0
  3  6  1  0  0  0  0
  7  8  1  0  0  0  0
  7 12  1  0  0  0  0
  8  9  1  0  0  0  0
  8 11  1  0  0  0  0
  8 13  1  0  0  0  0
  9 10  2  0  0  0  0
  9 17  1  0  0  0  0
 11 14  1  0  0  0  0
 11 15  1  0  0  0  0
 11 16  1  0  0  0  0
 17 18  1  0  0  0  0
 17 23  1  0  0  0  0
 18 19  1  0  0  0  0
 18 21  1  0  0  0  0
 18 24  1  0  0  0  0
 19 20  2  0  0  0  0
 19 31  1  0  0  0  0
 21 22  1  0  0  0  0
 21 25  1  0  0  0  0
 21 26  1  0  0  0  0
 22 23  1  0  0  0  0
 22 27  1  0  0  0  0
 22 28  1  0  0  0  0
 23 29  1  0  0  0  0
 23 30  1  0  0  0  0
 31 32  1  0  0  0  0
 31 36  1  0  0  0  0
 32 33  1  0  0  0  0
 32 35  1  0  0  0  0
 32 37  1  0  0  0  0
 33 34  2  0  0  0  0
 33 41  1  0  0  0  0
 35 38  1  0  0  0  0
 35 39  1  0  0  0  0
 35 40  1  0  0  0  0
 41 42  1  0  0  0  0
 41 43  1  0  0  0  0
 42 44  1  0  0  0  0
 42 45  1  0  0  0  0
 42 46  1  0  0  0  0
M  END
$$$$

  -OEChem-05262217223D

 46 46  0     1  0  0  0  0  0999 V2000
   -1.6413    2.4590    3.4943 C   0  0  0  0  0  0  0  0  0  0  0  0
   -2.8096    2.2416    3.2111 O   0  0  0  0  0  0  0  0  0  0  0  0
   -1.1848    2.1894    4.9170 C   0  0  0  0  0  0  0  0  0  0  0  0
   -1.3682    3.0718    5.5353 H   0  0  0  0  0  0  0  0  0  0  0  0
   -1.7366    1.3422    5.3344 H   0  0  0  0  0  0  0  0  0  0  0  0
   -0.1174    1.9573    4.9429 H   0  0  0  0  0  0  0  0  0  0  0  0
   -0.7148    2.8805    2.5564 N   0  0  0  0  0  0  0  0  0  0  0  0
   -0.9760    3.6811    1.3413 C   0  0  2  0  0  0  0  0  0  0  0  0
    0.0721    3.5075    0.2033 C   0  0  0  0  0  0  0  0  0  0  0  0
    0.9251    4.3894    0.2044 O   0  0  0  0  0  0  0  0  0  0  0  0
   -2.4088    3.7212    0.7730 C   0  0  0  0  0  0  0  0  0  0  0  0
    0.2293    2.9701    2.9236 H   0  0  0  0  0  0  0  0  0  0  0  0
   -0.8299    4.7114    1.6853 H   0  0  0  0  0  0  0  0  0  0  0  0
   -3.0831    4.1958    1.4924 H   0  0  0  0  0  0  0  0  0  0  0  0
   -2.4312    4.3149   -0.1463 H   0  0  0  0  0  0  0  0  0  0  0  0
   -2.8059    2.7358    0.5465 H   0  0  0  0  0  0  0  0  0  0  0  0
    0.2602    2.4931   -0.7563 N   0  0  0  0  0  0  0  0  0  0  0  0
   -0.3668    1.2176   -1.1238 C   0  0  2  0  0  0  0  0  0  0  0  0
   -1.5783    0.5949   -0.3977 C   0  0  0  0  0  0  0  0  0  0  0  0
   -2.6536    0.5496   -0.9705 O   0  0  0  0  0  0  0  0  0  0  0  0
    0.8581    0.2909   -1.1149 C   0  0  0  0  0  0  0  0  0  0  0  0
    2.0198    1.2667   -1.3210 C   0  0  0  0  0  0  0  0  0  0  0  0
    1.3494    2.5371   -1.7828 C   0  0  0  0  0  0  0  0  0  0  0  0
   -0.7259    1.3175   -2.1554 H   0  0  0  0  0  0  0  0  0  0  0  0
    0.7921   -0.4359   -1.9313 H   0  0  0  0  0  0  0  0  0  0  0  0
    0.9799   -0.2550   -0.1788 H   0  0  0  0  0  0  0  0  0  0  0  0
    2.5536    1.4374   -0.3793 H   0  0  0  0  0  0  0  0  0  0  0  0
    2.7347    0.8970   -2.0626 H   0  0  0  0  0  0  0  0  0  0  0  0
    2.0246    3.3954   -1.7019 H   0  0  0  0  0  0  0  0  0  0  0  0
    0.9820    2.4875   -2.8143 H   0  0  0  0  0  0  0  0  0  0  0  0
   -1.6996    0.5116    0.9674 N   0  0  0  0  0  0  0  0  0  0  0  0
   -1.1699   -0.6978    1.6226 C   0  0  2  0  0  0  0  0  0  0  0  0
   -2.2163   -1.3950    2.5188 C   0  0  0  0  0  0  0  0  0  0  0  0
   -2.1179   -2.5955    2.7296 O   0  0  0  0  0  0  0  0  0  0  0  0
    0.0708   -0.3644    2.4595 C   0  0  0  0  0  0  0  0  0  0  0  0
   -2.6641    0.7168    1.2271 H   0  0  0  0  0  0  0  0  0  0  0  0
   -0.8840   -1.4266    0.8555 H   0  0  0  0  0  0  0  0  0  0  0  0
    0.7227    0.3428    1.9403 H   0  0  0  0  0  0  0  0  0  0  0  0
   -0.2161    0.0707    3.4178 H   0  0  0  0  0  0  0  0  0  0  0  0
    0.6378   -1.2786    2.6620 H   0  0  0  0  0  0  0  0  0  0  0  0
   -3.2095   -0.6720    3.1566 N   0  0  0  0  0  0  0  0  0  0  0  0
   -4.1640   -1.2696    4.0807 C   0  0  0  0  0  0  0  0  0  0  0  0
   -3.1932    0.3470    3.0666 H   0  0  0  0  0  0  0  0  0  0  0  0
   -4.8508   -0.5055    4.4578 H   0  0  0  0  0  0  0  0  0  0  0  0
   -4.7516   -2.0439    3.5764 H   0  0  0  0  0  0  0  0  0  0  0  0
   -3.6436   -1.7193    4.9329 H   0  0  0  0  0  0  0  0  0  0  0  0
  1  2  2  0  0  0  0
  1  3  1  0  0  0  0
  1  7  1  0  0  0  0
  3  4  1  0  0  0  0
  3  5  1  0  0  0  0
  3  6  1  0  0  0  0
  7  8  1  0  0  0  0
  7 12  1  0  0  0  0
  8  9  1  0  0  0  0
  8 11  1  0  0  0  0
  8 13  1  0  0  0  0
  9 10  2  0  0  0  0
  9 17  1  0  0  0  0
 11 14  1  0  0  0  0
 11 15  1  0  0  0  0
 11 16  1  0  0  0  0
 17 18  1  0  0  0  0
 17 23  1  0  0  0  0
 18 19  1  0  0  0  0
 18 21  1  0  0  0  0
 18 24  1  0  0  0  0
 19 20  2  0  0  0  0
 19 31  1  0  0  0  0
 21 22  1  0  0  0  0
 21 25  1  0  0  0  0
 21 26  1  0  0  0  0
 22 23  1  0  0  0  0
 22 27  1  0  0  0  0
 22 28  1  0  0  0  0
 23 29  1  0  0  0  0
 23 30  1  0  0  0  0
 31 32  1  0  0  0  0
 31 36  1  0  0  0  0
 32 33  1  0  0  0  0
 32 35  1  0  0  0  0
 32 37  1  0  0  0  0
 33 34  2  0  0  0  0
 33 41  1  0  0  0  0
 35 38  1  0  0  0  0
 35 39  1  0  0  0  0
 35 40  1  0  0  0  0
 41 42  1  0  0  0  0
 41 43  1  0  0  0  0
 42 44  1  0  0  0  0
 42 45  1  0  0  0  0
 42 46  1  0  0  0  0
M  END
$$$$

  -OEChem-05262217223D

 46 46  0     1  0  0  0  0  0999 V2000
   -0.9324    2.4919    3.2634 C   0  0  0  0  0  0  0  0  0  0  0  0
   -0.6291    1.4845    2.6443 O   0  0  0  0  0  0  0  0  0  0  0  0
   -0.6211    2.5890    4.7446 C   0  0  0  0  0  0  0  0  0  0  0  0
    0.0560    3.4270    4.9285 H   0  0  0  0  0  0  0  0  0  0  0  0
   -1.5423    2.7441    5.3117 H   0  0  0  0  0  0  0  0  0  0  0  0
   -0.1436    1.6689    5.0933 H   0  0  0  0  0  0  0  0  0  0  0  0
   -1.5997    3.5223    2.6398 N   0  0  0  0  0  0  0  0  0  0  0  0
   -1.7666    3.6916    1.1840 C   0  0  2  0  0  0  0  0  0  0  0  0
   -0.4377    3.7139    0.3699 C   0  0  0  0  0  0  0  0  0  0  0  0
    0.1693    4.7636    0.5664 O   0  0  0  0  0  0  0  0  0  0  0  0
   -2.9683    2.9329    0.6167 C   0  0  0  0  0  0  0  0  0  0  0  0
   -1.7240    4.3575    3.2064 H   0  0  0  0  0  0  0  0  0  0  0  0
   -2.0963    4.7321    1.0837 H   0  0  0  0  0  0  0  0  0  0  0  0
   -3.8395    3.5945    0.5792 H   0  0  0  0  0  0  0  0  0  0  0  0
   -2.7735    2.5860   -0.4018 H   0  0  0  0  0  0  0  0  0  0  0  0
   -3.2399    2.0924    1.2551 H   0  0  0  0  0  0  0  0  0  0  0  0
    0.2257    2.7841   -0.4616 N   0  0  0  0  0  0  0  0  0  0  0  0
    0.0660    1.4081   -0.9782 C   0  0  2  0  0  0  0  0  0  0  0  0
   -1.0454    0.3602   -0.7398 C   0  0  0  0  0  0  0  0  0  0  0  0
   -1.2813   -0.4224   -1.6504 O   0  0  0  0  0  0  0  0  0  0  0  0
    1.3773    0.7937   -0.4596 C   0  0  0  0  0  0  0  0  0  0  0  0
    2.2942    2.0004   -0.2725 C   0  0  0  0  0  0  0  0  0  0  0  0
    1.5805    3.0889   -1.0289 C   0  0  0  0  0  0  0  0  0  0  0  0
    0.0879    1.4840   -2.0723 H   0  0  0  0  0  0  0  0  0  0  0  0
    1.7840    0.0842   -1.1881 H   0  0  0  0  0  0  0  0  0  0  0  0
    1.2366    0.2745    0.4951 H   0  0  0  0  0  0  0  0  0  0  0  0
    2.3828    2.2620    0.7881 H   0  0  0  0  0  0  0  0  0  0  0  0
    3.2962    1.8191   -0.6727 H   0  0  0  0  0  0  0  0  0  0  0  0
    1.9876    4.0743   -0.7806 H   0  0  0  0  0  0  0  0  0  0  0  0
    1.6379    2.9703   -2.1173 H   0  0  0  0  0  0  0  0  0  0  0  0
   -1.7909    0.2495    0.4118 N   0  0  0  0  0  0  0  0  0  0  0  0
   -2.7118   -0.8679    0.6994 C   0  0  2  0  0  0  0  0  0  0  0  0
   -3.6283   -0.5954    1.9091 C   0  0  0  0  0  0  0  0  0  0  0  0
   -4.8175   -0.8776    1.8660 O   0  0  0  0  0  0  0  0  0  0  0  0
   -1.9009   -2.1430    0.9697 C   0  0  0  0  0  0  0  0  0  0  0  0
   -1.4553    0.8108    1.1966 H   0  0  0  0  0  0  0  0  0  0  0  0
   -3.3599   -1.0331   -0.1688 H   0  0  0  0  0  0  0  0  0  0  0  0
   -1.2161   -1.9936    1.8101 H   0  0  0  0  0  0  0  0  0  0  0  0
   -2.5725   -2.9735    1.2095 H   0  0  0  0  0  0  0  0  0  0  0  0
   -1.3153   -2.4243    0.0896 H   0  0  0  0  0  0  0  0  0  0  0  0
   -3.1117   -0.0363    3.0636 N   0  0  0  0  0  0  0  0  0  0  0  0
   -3.9142    0.2688    4.2400 C   0  0  0  0  0  0  0  0  0  0  0  0
   -2.1216    0.2106    3.0547 H   0  0  0  0  0  0  0  0  0  0  0  0
   -3.2852    0.6959    5.0266 H   0  0  0  0  0  0  0  0  0  0  0  0
   -4.6980    0.9919    3.9912 H   0  0  0  0  0  0  0  0  0  0  0  0
   -4.3840   -0.6406    4.6293 H   0  0  0  0  0  0  0  0  0  0  0  0
  1  2  2  0  0  0  0
  1  3  1  0  0  0  0
  1  7  1  0  0  0  0
  3  4  1  0  0  0  0
  3  5  1  0  0  0  0
  3  6  1  0  0  0  0
  7  8  1  0  0  0  0
  7 12  1  0  0  0  0
  8  9  1  0  0  0  0
  8 11  1  0  0  0  0
  8 13  1  0  0  0  0
  9 10  2  0  0  0  0
  9 17  1  0  0  0  0
 11 14  1  0  0  0  0
 11 15  1  0  0  0  0
 11 16  1  0  0  0  0
 17 18  1  0  0  0  0
 17 23  1  0  0  0  0
 18 19  1  0  0  0  0
 18 21  1  0  0  0  0
 18 24  1  0  0  0  0
 19 20  2  0  0  0  0
 19 31  1  0  0  0  0
 21 22  1  0  0  0  0
 21 25  1  0  0  0  0
 21 26  1  0  0  0  0
 22 23  1  0  0  0  0
 22 27  1  0  0  0  0
 22 28  1  0  0  0  0
 23 29  1  0  0  0  0
 23 30  1  0  0  0  0
 31 32  1  0  0  0  0
 31 36  1  0  0  0  0
 32 33  1  0  0  0  0
 32 35  1  0  0  0  0
 32 37  1  0  0  0  0
 33 34  2  0  0  0  0
 33 41  1  0  0  0  0
 35 38  1  0  0  0  0
 35 39  1  0  0  0  0
 35 40  1  0  0  0  0
 41 42  1  0  0  0  0
 41 43  1  0  0  0  0
 42 44  1  0  0  0  0
 42 45  1  0  0  0  0
 42 46  1  0  0  0  0
M  END
$$$$

  -OEChem-05262217223D

 46 46  0     1  0  0  0  0  0999 V2000
    0.0443    1.2607    3.6051 C   0  0  0  0  0  0  0  0  0  0  0  0
    0.5430    0.2121    3.9675 O   0  0  0  0  0  0  0  0  0  0  0  0
   -0.8446    2.0471    4.5548 C   0  0  0  0  0  0  0  0  0  0  0  0
   -1.6929    2.4779    4.0219 H   0  0  0  0  0  0  0  0  0  0  0  0
   -1.2276    1.3885    5.3389 H   0  0  0  0  0  0  0  0  0  0  0  0
   -0.2701    2.8495    5.0234 H   0  0  0  0  0  0  0  0  0  0  0  0
    0.3232    1.5783    2.2940 N   0  0  0  0  0  0  0  0  0  0  0  0
   -0.0729    2.7735    1.5247 C   0  0  2  0  0  0  0  0  0  0  0  0
    0.6300    2.7510    0.1409 C   0  0  0  0  0  0  0  0  0  0  0  0
    1.6731    3.3890    0.0414 O   0  0  0  0  0  0  0  0  0  0  0  0
    0.2840    4.0669    2.2882 C   0  0  0  0  0  0  0  0  0  0  0  0
    1.0622    0.9932    1.9054 H   0  0  0  0  0  0  0  0  0  0  0  0
   -1.1492    2.7996    1.3479 H   0  0  0  0  0  0  0  0  0  0  0  0
    1.3125    4.0249    2.6619 H   0  0  0  0  0  0  0  0  0  0  0  0
    0.1926    4.9348    1.6266 H   0  0  0  0  0  0  0  0  0  0  0  0
   -0.3916    4.2323    3.1292 H   0  0  0  0  0  0  0  0  0  0  0  0
    0.2600    2.0075   -0.9912 N   0  0  0  0  0  0  0  0  0  0  0  0
   -0.7898    1.0470   -1.3664 C   0  0  2  0  0  0  0  0  0  0  0  0
   -1.9579    0.4833   -0.5186 C   0  0  0  0  0  0  0  0  0  0  0  0
   -2.8699   -0.0406   -1.1450 O   0  0  0  0  0  0  0  0  0  0  0  0
    0.1054   -0.1308   -1.7888 C   0  0  0  0  0  0  0  0  0  0  0  0
    1.4393    0.5332   -2.1380 C   0  0  0  0  0  0  0  0  0  0  0  0
    1.0817    1.9928   -2.2426 C   0  0  0  0  0  0  0  0  0  0  0  0
   -1.3044    1.4664   -2.2393 H   0  0  0  0  0  0  0  0  0  0  0  0
   -0.3261   -0.6506   -2.6508 H   0  0  0  0  0  0  0  0  0  0  0  0
    0.2411   -0.8538   -0.9769 H   0  0  0  0  0  0  0  0  0  0  0  0
    2.1765    0.3724   -1.3430 H   0  0  0  0  0  0  0  0  0  0  0  0
    1.8519    0.1508   -3.0767 H   0  0  0  0  0  0  0  0  0  0  0  0
    1.9748    2.6263   -2.2207 H   0  0  0  0  0  0  0  0  0  0  0  0
    0.5118    2.2384   -3.1466 H   0  0  0  0  0  0  0  0  0  0  0  0
   -2.0917    0.5437    0.8546 N   0  0  0  0  0  0  0  0  0  0  0  0
   -3.3266    0.1904    1.5799 C   0  0  2  0  0  0  0  0  0  0  0  0
   -4.1209    1.4342    2.0333 C   0  0  0  0  0  0  0  0  0  0  0  0
   -3.5457    2.4948    2.2527 O   0  0  0  0  0  0  0  0  0  0  0  0
   -2.9545   -0.6869    2.7767 C   0  0  0  0  0  0  0  0  0  0  0  0
   -1.3442    0.9917    1.3783 H   0  0  0  0  0  0  0  0  0  0  0  0
   -3.9888   -0.4015    0.9403 H   0  0  0  0  0  0  0  0  0  0  0  0
   -2.3744   -0.1217    3.5091 H   0  0  0  0  0  0  0  0  0  0  0  0
   -3.8576   -1.0601    3.2690 H   0  0  0  0  0  0  0  0  0  0  0  0
   -2.3602   -1.5457    2.4486 H   0  0  0  0  0  0  0  0  0  0  0  0
   -5.4889    1.3585    2.2173 N   0  0  0  0  0  0  0  0  0  0  0  0
   -6.3103    2.5053    2.5863 C   0  0  0  0  0  0  0  0  0  0  0  0
   -5.9479    0.4906    1.9555 H   0  0  0  0  0  0  0  0  0  0  0  0
   -5.9782    2.9238    3.5422 H   0  0  0  0  0  0  0  0  0  0  0  0
   -6.2470    3.2844    1.8194 H   0  0  0  0  0  0  0  0  0  0  0  0
   -7.3572    2.2040    2.6877 H   0  0  0  0  0  0  0  0  0  0  0  0
  1  2  2  0  0  0  0
  1  3  1  0  0  0  0
  1  7  1  0  0  0  0
  3  4  1  0  0  0  0
  3  5  1  0  0  0  0
  3  6  1  0  0  0  0
  7  8  1  0  0  0  0
  7 12  1  0  0  0  0
  8  9  1  0  0  0  0
  8 11  1  0  0  0  0
  8 13  1  0  0  0  0
  9 10  2  0  0  0  0
  9 17  1  0  0  0  0
 11 14  1  0  0  0  0
 11 15  1  0  0  0  0
 11 16  1  0  0  0  0
 17 18  1  0  0  0  0
 17 23  1  0  0  0  0
 18 19  1  0  0  0  0
 18 21  1  0  0  0  0
 18 24  1  0  0  0  0
 19 20  2  0  0  0  0
 19 31  1  0  0  0  0
 21 22  1  0  0  0  0
 21 25  1  0  0  0  0
 21 26  1  0  0  0  0
 22 23  1  0  0  0  0
 22 27  1  0  0  0  0
 22 28  1  0  0  0  0
 23 29  1  0  0  0  0
 23 30  1  0  0  0  0
 31 32  1  0  0  0  0
 31 36  1  0  0  0  0
 32 33  1  0  0  0  0
 32 35  1  0  0  0  0
 32 37  1  0  0  0  0
 33 34  2  0  0  0  0
 33 41  1  0  0  0  0
 35 38  1  0  0  0  0
 35 39  1  0  0  0  0
 35 40  1  0  0  0  0
 41 42  1  0  0  0  0
 41 43  1  0  0  0  0
 42 44  1  0  0  0  0
 42 45  1  0  0  0  0
 42 46  1  0  0  0  0
M  END
$$$$

  -OEChem-05262217223D

 46 46  0     1  0  0  0  0  0999 V2000
    0.2224    1.4148    3.1984 C   0  0  0  0  0  0  0  0  0  0  0  0
   -0.2284    0.5261    2.4941 O   0  0  0  0  0  0  0  0  0  0  0  0
    1.1453    1.0834    4.3552 C   0  0  0  0  0  0  0  0  0  0  0  0
    0.7129    1.4416    5.2926 H   0  0  0  0  0  0  0  0  0  0  0  0
    1.2899    0.0017    4.4253 H   0  0  0  0  0  0  0  0  0  0  0  0
    2.1176    1.5590    4.2052 H   0  0  0  0  0  0  0  0  0  0  0  0
   -0.0966    2.7253    2.9222 N   0  0  0  0  0  0  0  0  0  0  0  0
   -0.8106    3.1509    1.7097 C   0  0  2  0  0  0  0  0  0  0  0  0
    0.0889    3.0802    0.4460 C   0  0  0  0  0  0  0  0  0  0  0  0
    0.9991    3.9066    0.4365 O   0  0  0  0  0  0  0  0  0  0  0  0
   -1.2936    4.5852    1.9652 C   0  0  0  0  0  0  0  0  0  0  0  0
    0.4307    3.4338    3.4251 H   0  0  0  0  0  0  0  0  0  0  0  0
   -1.7159    2.5838    1.5683 H   0  0  0  0  0  0  0  0  0  0  0  0
   -1.9794    4.6066    2.8179 H   0  0  0  0  0  0  0  0  0  0  0  0
   -0.4531    5.2541    2.1769 H   0  0  0  0  0  0  0  0  0  0  0  0
   -1.8264    4.9652    1.0876 H   0  0  0  0  0  0  0  0  0  0  0  0
    0.0638    2.1786   -0.6380 N   0  0  0  0  0  0  0  0  0  0  0  0
   -0.7039    0.9971   -1.0903 C   0  0  2  0  0  0  0  0  0  0  0  0
   -1.8942    0.2494   -0.4328 C   0  0  0  0  0  0  0  0  0  0  0  0
   -2.5078   -0.5315   -1.1512 O   0  0  0  0  0  0  0  0  0  0  0  0
    0.4575   -0.0068   -1.2029 C   0  0  0  0  0  0  0  0  0  0  0  0
    1.6926    0.8771   -1.3758 C   0  0  0  0  0  0  0  0  0  0  0  0
    1.1051    2.2216   -1.7130 C   0  0  0  0  0  0  0  0  0  0  0  0
   -1.0990    1.2416   -2.0833 H   0  0  0  0  0  0  0  0  0  0  0  0
    0.3100   -0.6709   -2.0612 H   0  0  0  0  0  0  0  0  0  0  0  0
    0.5540   -0.6191   -0.2991 H   0  0  0  0  0  0  0  0  0  0  0  0
    2.2674    0.9298   -0.4441 H   0  0  0  0  0  0  0  0  0  0  0  0
    2.3493    0.5111   -2.1708 H   0  0  0  0  0  0  0  0  0  0  0  0
    1.8491    3.0185   -1.6127 H   0  0  0  0  0  0  0  0  0  0  0  0
    0.6890    2.2729   -2.7260 H   0  0  0  0  0  0  0  0  0  0  0  0
   -2.4779    0.5700    0.7678 N   0  0  0  0  0  0  0  0  0  0  0  0
   -3.7857    0.1090    1.2462 C   0  0  2  0  0  0  0  0  0  0  0  0
   -4.8292    1.2449    1.2049 C   0  0  0  0  0  0  0  0  0  0  0  0
   -4.5737    2.3447    1.6858 O   0  0  0  0  0  0  0  0  0  0  0  0
   -3.5967   -0.4029    2.6759 C   0  0  0  0  0  0  0  0  0  0  0  0
   -1.8239    0.9121    1.4738 H   0  0  0  0  0  0  0  0  0  0  0  0
   -4.1551   -0.7203    0.6351 H   0  0  0  0  0  0  0  0  0  0  0  0
   -3.2391    0.4006    3.3284 H   0  0  0  0  0  0  0  0  0  0  0  0
   -4.5438   -0.7795    3.0741 H   0  0  0  0  0  0  0  0  0  0  0  0
   -2.8642   -1.2163    2.6927 H   0  0  0  0  0  0  0  0  0  0  0  0
   -6.0747    1.0235    0.6467 N   0  0  0  0  0  0  0  0  0  0  0  0
   -7.0815    2.0681    0.5076 C   0  0  0  0  0  0  0  0  0  0  0  0
   -6.2132    0.1415    0.1615 H   0  0  0  0  0  0  0  0  0  0  0  0
   -7.3282    2.4962    1.4849 H   0  0  0  0  0  0  0  0  0  0  0  0
   -6.7153    2.8674   -0.1453 H   0  0  0  0  0  0  0  0  0  0  0  0
   -7.9968    1.6557    0.0723 H   0  0  0  0  0  0  0  0  0  0  0  0
  1  2  2  0  0  0  0
  1  3  1  0  0  0  0
  1  7  1  0  0  0  0
  3  4  1  0  0  0  0
  3  5  1  0  0  0  0
  3  6  1  0  0  0  0
  7  8  1  0  0  0  0
  7 12  1  0  0  0  0
  8  9  1  0  0  0  0
  8 11  1  0  0  0  0
  8 13  1  0  0  0  0
  9 10  2  0  0  0  0
  9 17  1  0  0  0  0
 11 14  1  0  0  0  0
 11 15  1  0  0  0  0
 11 16  1  0  0  0  0
 17 18  1  0  0  0  0
 17 23  1  0  0  0  0
 18 19  1  0  0  0  0
 18 21  1  0  0  0  0
 18 24  1  0  0  0  0
 19 20  2  0  0  0  0
 19 31  1  0  0  0  0
 21 22  1  0  0  0  0
 21 25  1  0  0  0  0
 21 26  1  0  0  0  0
 22 23  1  0  0  0  0
 22 27  1  0  0  0  0
 22 28  1  0  0  0  0
 23 29  1  0  0  0  0
 23 30  1  0  0  0  0
 31 32  1  0  0  0  0
 31 36  1  0  0  0  0
 32 33  1  0  0  0  0
 32 35  1  0  0  0  0
 32 37  1  0  0  0  0
 33 34  2  0  0  0  0
 33 41  1  0  0  0  0
 35 38  1  0  0  0  0
 35 39  1  0  0  0  0
 35 40  1  0  0  0  0
 41 42  1  0  0  0  0
 41 43  1  0  0  0  0
 42 44  1  0  0  0  0
 42 45  1  0  0  0  0
 42 46  1  0  0  0  0
M  END
$$$$

  -OEChem-05262217223D

 46 46  0     1  0  0  0  0  0999 V2000
    0.1598    1.3741    3.1456 C   0  0  0  0  0  0  0  0  0  0  0  0
   -0.5576    0.5836    2.5551 O   0  0  0  0  0  0  0  0  0  0  0  0
    1.2017    0.8838    4.1326 C   0  0  0  0  0  0  0  0  0  0  0  0
    1.0155    1.3178    5.1181 H   0  0  0  0  0  0  0  0  0  0  0  0
    1.1608   -0.2060    4.2149 H   0  0  0  0  0  0  0  0  0  0  0  0
    2.2004    1.1739    3.7970 H   0  0  0  0  0  0  0  0  0  0  0  0
    0.0233    2.7199    2.8894 N   0  0  0  0  0  0  0  0  0  0  0  0
   -0.8159    3.2586    1.8104 C   0  0  2  0  0  0  0  0  0  0  0  0
   -0.0919    3.2080    0.4407 C   0  0  0  0  0  0  0  0  0  0  0  0
    0.8243    4.0188    0.3287 O   0  0  0  0  0  0  0  0  0  0  0  0
   -1.1743    4.6976    2.2079 C   0  0  0  0  0  0  0  0  0  0  0  0
    0.7491    3.3267    3.2629 H   0  0  0  0  0  0  0  0  0  0  0  0
   -1.7613    2.7435    1.7521 H   0  0  0  0  0  0  0  0  0  0  0  0
   -1.7413    4.7023    3.1440 H   0  0  0  0  0  0  0  0  0  0  0  0
   -0.2735    5.3046    2.3454 H   0  0  0  0  0  0  0  0  0  0  0  0
   -1.7887    5.1625    1.4304 H   0  0  0  0  0  0  0  0  0  0  0  0
   -0.2815    2.3304   -0.6445 N   0  0  0  0  0  0  0  0  0  0  0  0
   -1.1271    1.1728   -1.0101 C   0  0  2  0  0  0  0  0  0  0  0  0
   -2.2386    0.4250   -0.2220 C   0  0  0  0  0  0  0  0  0  0  0  0
   -2.7941   -0.4876   -0.8265 O   0  0  0  0  0  0  0  0  0  0  0  0
   -0.0064    0.1595   -1.3129 C   0  0  0  0  0  0  0  0  0  0  0  0
    1.2053    1.0320   -1.6394 C   0  0  0  0  0  0  0  0  0  0  0  0
    0.5964    2.3907   -1.8562 C   0  0  0  0  0  0  0  0  0  0  0  0
   -1.6511    1.4508   -1.9318 H   0  0  0  0  0  0  0  0  0  0  0  0
   -0.2826   -0.4793   -2.1585 H   0  0  0  0  0  0  0  0  0  0  0  0
    0.2070   -0.4789   -0.4481 H   0  0  0  0  0  0  0  0  0  0  0  0
    1.9089    1.0531   -0.7995 H   0  0  0  0  0  0  0  0  0  0  0  0
    1.7350    0.6795   -2.5296 H   0  0  0  0  0  0  0  0  0  0  0  0
    1.3586    3.1765   -1.8437 H   0  0  0  0  0  0  0  0  0  0  0  0
    0.0420    2.4737   -2.7984 H   0  0  0  0  0  0  0  0  0  0  0  0
   -2.8712    0.8758    0.9159 N   0  0  0  0  0  0  0  0  0  0  0  0
   -4.0840    0.2569    1.4781 C   0  0  2  0  0  0  0  0  0  0  0  0
   -5.3760    0.7008    0.7466 C   0  0  0  0  0  0  0  0  0  0  0  0
   -6.2686    1.3143    1.3209 O   0  0  0  0  0  0  0  0  0  0  0  0
   -4.1049    0.6028    2.9727 C   0  0  0  0  0  0  0  0  0  0  0  0
   -2.1985    1.1976    1.6115 H   0  0  0  0  0  0  0  0  0  0  0  0
   -4.0192   -0.8331    1.3914 H   0  0  0  0  0  0  0  0  0  0  0  0
   -4.1566    1.6869    3.1163 H   0  0  0  0  0  0  0  0  0  0  0  0
   -4.9753    0.1473    3.4558 H   0  0  0  0  0  0  0  0  0  0  0  0
   -3.2032    0.2257    3.4644 H   0  0  0  0  0  0  0  0  0  0  0  0
   -5.5320    0.3944   -0.5908 N   0  0  0  0  0  0  0  0  0  0  0  0
   -6.6828    0.7856   -1.3920 C   0  0  0  0  0  0  0  0  0  0  0  0
   -4.7431   -0.0807   -1.0360 H   0  0  0  0  0  0  0  0  0  0  0  0
   -7.6009    0.3542   -0.9798 H   0  0  0  0  0  0  0  0  0  0  0  0
   -6.7829    1.8757   -1.4117 H   0  0  0  0  0  0  0  0  0  0  0  0
   -6.5641    0.4291   -2.4196 H   0  0  0  0  0  0  0  0  0  0  0  0
  1  2  2  0  0  0  0
  1  3  1  0  0  0  0
  1  7  1  0  0  0  0
  3  4  1  0  0  0  0
  3  5  1  0  0  0  0
  3  6  1  0  0  0  0
  7  8  1  0  0  0  0
  7 12  1  0  0  0  0
  8  9  1  0  0  0  0
  8 11  1  0  0  0  0
  8 13  1  0  0  0  0
  9 10  2  0  0  0  0
  9 17  1  0  0  0  0
 11 14  1  0  0  0  0
 11 15  1  0  0  0  0
 11 16  1  0  0  0  0
 17 18  1  0  0  0  0
 17 23  1  0  0  0  0
 18 19  1  0  0  0  0
 18 21  1  0  0  0  0
 18 24  1  0  0  0  0
 19 20  2  0  0  0  0
 19 31  1  0  0  0  0
 21 22  1  0  0  0  0
 21 25  1  0  0  0  0
 21 26  1  0  0  0  0
 22 23  1  0  0  0  0
 22 27  1  0  0  0  0
 22 28  1  0  0  0  0
 23 29  1  0  0  0  0
 23 30  1  0  0  0  0
 31 32  1  0  0  0  0
 31 36  1  0  0  0  0
 32 33  1  0  0  0  0
 32 35  1  0  0  0  0
 32 37  1  0  0  0  0
 33 34  2  0  0  0  0
 33 41  1  0  0  0  0
 35 38  1  0  0  0  0
 35 39  1  0  0  0  0
 35 40  1  0  0  0  0
 41 42  1  0  0  0  0
 41 43  1  0  0  0  0
 42 44  1  0  0  0  0
 42 45  1  0  0  0  0
 42 46  1  0  0  0  0
M  END
$$$$

  -OEChem-05262217223D

 46 46  0     1  0  0  0  0  0999 V2000
   -1.2373   -0.1565    4.0452 C   0  0  0  0  0  0  0  0  0  0  0  0
   -2.2738   -0.6167    3.5896 O   0  0  0  0  0  0  0  0  0  0  0  0
   -0.5862   -0.8001    5.2548 C   0  0  0  0  0  0  0  0  0  0  0  0
   -0.5480   -0.0869    6.0818 H   0  0  0  0  0  0  0  0  0  0  0  0
   -1.1596   -1.6762    5.5708 H   0  0  0  0  0  0  0  0  0  0  0  0
    0.4302   -1.1162    5.0076 H   0  0  0  0  0  0  0  0  0  0  0  0
   -0.6585    0.9512    3.4616 N   0  0  0  0  0  0  0  0  0  0  0  0
   -1.1733    1.6231    2.2606 C   0  0  2  0  0  0  0  0  0  0  0  0
   -0.0402    2.2908    1.4473 C   0  0  0  0  0  0  0  0  0  0  0  0
    0.8153    2.8546    2.1266 O   0  0  0  0  0  0  0  0  0  0  0  0
   -2.1900    2.6647    2.7436 C   0  0  0  0  0  0  0  0  0  0  0  0
    0.2163    1.2984    3.8522 H   0  0  0  0  0  0  0  0  0  0  0  0
   -1.6398    0.8660    1.6426 H   0  0  0  0  0  0  0  0  0  0  0  0
   -2.5269    3.2974    1.9224 H   0  0  0  0  0  0  0  0  0  0  0  0
   -3.0603    2.1679    3.1835 H   0  0  0  0  0  0  0  0  0  0  0  0
   -1.7387    3.3128    3.5021 H   0  0  0  0  0  0  0  0  0  0  0  0
    0.1506    2.3035    0.0539 N   0  0  0  0  0  0  0  0  0  0  0  0
   -0.5330    1.7703   -1.1389 C   0  0  2  0  0  0  0  0  0  0  0  0
   -1.8474    0.9326   -1.1807 C   0  0  0  0  0  0  0  0  0  0  0  0
   -1.9013   -0.1073   -1.8163 O   0  0  0  0  0  0  0  0  0  0  0  0
    0.6556    0.9806   -1.7315 C   0  0  0  0  0  0  0  0  0  0  0  0
    1.8892    1.6599   -1.1328 C   0  0  0  0  0  0  0  0  0  0  0  0
    1.3399    2.9481   -0.5830 C   0  0  0  0  0  0  0  0  0  0  0  0
   -0.7642    2.6155   -1.7953 H   0  0  0  0  0  0  0  0  0  0  0  0
    0.6492    1.0380   -2.8248 H   0  0  0  0  0  0  0  0  0  0  0  0
    0.6374   -0.0749   -1.4377 H   0  0  0  0  0  0  0  0  0  0  0  0
    2.3200    1.0497   -0.3309 H   0  0  0  0  0  0  0  0  0  0  0  0
    2.6621    1.8392   -1.8865 H   0  0  0  0  0  0  0  0  0  0  0  0
    2.0404    3.4185    0.1149 H   0  0  0  0  0  0  0  0  0  0  0  0
    1.0832    3.6797   -1.3578 H   0  0  0  0  0  0  0  0  0  0  0  0
   -2.9049    0.9881   -0.3078 N   0  0  0  0  0  0  0  0  0  0  0  0
   -3.8783    2.1015   -0.3233 C   0  0  2  0  0  0  0  0  0  0  0  0
   -5.1545    1.7029   -1.1070 C   0  0  0  0  0  0  0  0  0  0  0  0
   -5.5901    2.3910   -2.0206 O   0  0  0  0  0  0  0  0  0  0  0  0
   -3.2948    3.4345   -0.8373 C   0  0  0  0  0  0  0  0  0  0  0  0
   -3.3463    0.0702   -0.3155 H   0  0  0  0  0  0  0  0  0  0  0  0
   -4.1997    2.2692    0.7082 H   0  0  0  0  0  0  0  0  0  0  0  0
   -3.0511    3.3676   -1.9026 H   0  0  0  0  0  0  0  0  0  0  0  0
   -4.0290    4.2367   -0.7105 H   0  0  0  0  0  0  0  0  0  0  0  0
   -2.3935    3.7134   -0.2866 H   0  0  0  0  0  0  0  0  0  0  0  0
   -5.8382    0.5533   -0.7525 N   0  0  0  0  0  0  0  0  0  0  0  0
   -7.0544    0.1083   -1.4225 C   0  0  0  0  0  0  0  0  0  0  0  0
   -5.5044    0.0313    0.0526 H   0  0  0  0  0  0  0  0  0  0  0  0
   -7.8510    0.8502   -1.3032 H   0  0  0  0  0  0  0  0  0  0  0  0
   -6.8698   -0.0428   -2.4915 H   0  0  0  0  0  0  0  0  0  0  0  0
   -7.3964   -0.8393   -0.9954 H   0  0  0  0  0  0  0  0  0  0  0  0
  1  2  2  0  0  0  0
  1  3  1  0  0  0  0
  1  7  1  0  0  0  0
  3  4  1  0  0  0  0
  3  5  1  0  0  0  0
  3  6  1  0  0  0  0
  7  8  1  0  0  0  0
  7 12  1  0  0  0  0
  8  9  1  0  0  0  0
  8 11  1  0  0  0  0
  8 13  1  0  0  0  0
  9 10  2  0  0  0  0
  9 17  1  0  0  0  0
 11 14  1  0  0  0  0
 11 15  1  0  0  0  0
 11 16  1  0  0  0  0
 17 18  1  0  0  0  0
 17 23  1  0  0  0  0
 18 19  1  0  0  0  0
 18 21  1  0  0  0  0
 18 24  1  0  0  0  0
 19 20  2  0  0  0  0
 19 31  1  0  0  0  0
 21 22  1  0  0  0  0
 21 25  1  0  0  0  0
 21 26  1  0  0  0  0
 22 23  1  0  0  0  0
 22 27  1  0  0  0  0
 22 28  1  0  0  0  0
 23 29  1  0  0  0  0
 23 30  1  0  0  0  0
 31 32  1  0  0  0  0
 31 36  1  0  0  0  0
 32 33  1  0  0  0  0
 32 35  1  0  0  0  0
 32 37  1  0  0  0  0
 33 34  2  0  0  0  0
 33 41  1  0  0  0  0
 35 38  1  0  0  0  0
 35 39  1  0  0  0  0
 35 40  1  0  0  0  0
 41 42  1  0  0  0  0
 41 43  1  0  0  0  0
 42 44  1  0  0  0  0
 42 45  1  0  0  0  0
 42 46  1  0  0  0  0
M  END
$$$$

  -OEChem-05262217223D

 46 46  0     1  0  0  0  0  0999 V2000
   -1.3835    1.2244    3.5557 C   0  0  0  0  0  0  0  0  0  0  0  0
   -1.4934    2.0332    4.4618 O   0  0  0  0  0  0  0  0  0  0  0  0
   -1.6650   -0.2448    3.8086 C   0  0  0  0  0  0  0  0  0  0  0  0
   -1.9737   -0.3963    4.8467 H   0  0  0  0  0  0  0  0  0  0  0  0
   -2.4627   -0.5935    3.1484 H   0  0  0  0  0  0  0  0  0  0  0  0
   -0.7641   -0.8337    3.6196 H   0  0  0  0  0  0  0  0  0  0  0  0
   -1.0356    1.6353    2.2863 N   0  0  0  0  0  0  0  0  0  0  0  0
   -0.7276    3.0239    1.9060 C   0  0  2  0  0  0  0  0  0  0  0  0
    0.2522    3.1755    0.7149 C   0  0  0  0  0  0  0  0  0  0  0  0
    1.0465    4.1011    0.8323 O   0  0  0  0  0  0  0  0  0  0  0  0
   -1.9862    3.8799    1.7060 C   0  0  0  0  0  0  0  0  0  0  0  0
   -1.0275    0.9149    1.5692 H   0  0  0  0  0  0  0  0  0  0  0  0
   -0.1991    3.4586    2.7633 H   0  0  0  0  0  0  0  0  0  0  0  0
   -1.7134    4.9398    1.7247 H   0  0  0  0  0  0  0  0  0  0  0  0
   -2.4689    3.6795    0.7494 H   0  0  0  0  0  0  0  0  0  0  0  0
   -2.7044    3.6998    2.5116 H   0  0  0  0  0  0  0  0  0  0  0  0
    0.3254    2.4489   -0.4904 N   0  0  0  0  0  0  0  0  0  0  0  0
   -0.3913    1.3393   -1.1406 C   0  0  2  0  0  0  0  0  0  0  0  0
   -1.6105    0.5776   -0.5630 C   0  0  0  0  0  0  0  0  0  0  0  0
   -1.6189   -0.6444   -0.5009 O   0  0  0  0  0  0  0  0  0  0  0  0
    0.8106    0.4045   -1.3934 C   0  0  0  0  0  0  0  0  0  0  0  0
    2.0121    1.3521   -1.3936 C   0  0  0  0  0  0  0  0  0  0  0  0
    1.3820    2.7140   -1.5161 C   0  0  0  0  0  0  0  0  0  0  0  0
   -0.7746    1.7079   -2.0990 H   0  0  0  0  0  0  0  0  0  0  0  0
    0.7006   -0.1155   -2.3506 H   0  0  0  0  0  0  0  0  0  0  0  0
    0.9291   -0.3426   -0.6012 H   0  0  0  0  0  0  0  0  0  0  0  0
    2.5738    1.2706   -0.4560 H   0  0  0  0  0  0  0  0  0  0  0  0
    2.6931    1.1471   -2.2252 H   0  0  0  0  0  0  0  0  0  0  0  0
    2.0923    3.5063   -1.2569 H   0  0  0  0  0  0  0  0  0  0  0  0
    0.9835    2.9239   -2.5157 H   0  0  0  0  0  0  0  0  0  0  0  0
   -2.6714    1.2443    0.0141 N   0  0  0  0  0  0  0  0  0  0  0  0
   -3.9650    0.5941    0.2763 C   0  0  2  0  0  0  0  0  0  0  0  0
   -4.8603    0.5903   -0.9824 C   0  0  0  0  0  0  0  0  0  0  0  0
   -4.7531    1.4904   -1.8081 O   0  0  0  0  0  0  0  0  0  0  0  0
   -4.6570    1.3580    1.4080 C   0  0  0  0  0  0  0  0  0  0  0  0
   -2.7221    2.2305   -0.2304 H   0  0  0  0  0  0  0  0  0  0  0  0
   -3.8166   -0.4412    0.6003 H   0  0  0  0  0  0  0  0  0  0  0  0
   -4.8412    2.3965    1.1138 H   0  0  0  0  0  0  0  0  0  0  0  0
   -5.6171    0.8922    1.6509 H   0  0  0  0  0  0  0  0  0  0  0  0
   -4.0372    1.3570    2.3089 H   0  0  0  0  0  0  0  0  0  0  0  0
   -5.8063   -0.3996   -1.1730 N   0  0  0  0  0  0  0  0  0  0  0  0
   -6.6641   -0.4665   -2.3501 C   0  0  0  0  0  0  0  0  0  0  0  0
   -5.8284   -1.1648   -0.5053 H   0  0  0  0  0  0  0  0  0  0  0  0
   -7.2853    0.4325   -2.4230 H   0  0  0  0  0  0  0  0  0  0  0  0
   -6.0608   -0.5531   -3.2601 H   0  0  0  0  0  0  0  0  0  0  0  0
   -7.3240   -1.3374   -2.2888 H   0  0  0  0  0  0  0  0  0  0  0  0
  1  2  2  0  0  0  0
  1  3  1  0  0  0  0
  1  7  1  0  0  0  0
  3  4  1  0  0  0  0
  3  5  1  0  0  0  0
  3  6  1  0  0  0  0
  7  8  1  0  0  0  0
  7 12  1  0  0  0  0
  8  9  1  0  0  0  0
  8 11  1  0  0  0  0
  8 13  1  0  0  0  0
  9 10  2  0  0  0  0
  9 17  1  0  0  0  0
 11 14  1  0  0  0  0
 11 15  1  0  0  0  0
 11 16  1  0  0  0  0
 17 18  1  0  0  0  0
 17 23  1  0  0  0  0
 18 19  1  0  0  0  0
 18 21  1  0  0  0  0
 18 24  1  0  0  0  0
 19 20  2  0  0  0  0
 19 31  1  0  0  0  0
 21 22  1  0  0  0  0
 21 25  1  0  0  0  0
 21 26  1  0  0  0  0
 22 23  1  0  0  0  0
 22 27  1  0  0  0  0
 22 28  1  0  0  0  0
 23 29  1  0  0  0  0
 23 30  1  0  0  0  0
 31 32  1  0  0  0  0
 31 36  1  0  0  0  0
 32 33  1  0  0  0  0
 32 35  1  0  0  0  0
 32 37  1  0  0  0  0
 33 34  2  0  0  0  0
 33 41  1  0  0  0  0
 35 38  1  0  0  0  0
 35 39  1  0  0  0  0
 35 40  1  0  0  0  0
 41 42  1  0  0  0  0
 41 43  1  0  0  0  0
 42 44  1  0  0  0  0
 42 45  1  0  0  0  0
 42 46  1  0  0  0  0
M  END
$$$$

  -OEChem-05262217223D

 46 46  0     1  0  0  0  0  0999 V2000
   -0.7180    0.6566    4.2368 C   0  0  0  0  0  0  0  0  0  0  0  0
   -1.5529   -0.2253    4.1085 O   0  0  0  0  0  0  0  0  0  0  0  0
    0.2120    0.6543    5.4353 C   0  0  0  0  0  0  0  0  0  0  0  0
    0.1024    1.5858    5.9959 H   0  0  0  0  0  0  0  0  0  0  0  0
   -0.0262   -0.1844    6.0954 H   0  0  0  0  0  0  0  0  0  0  0  0
    1.2479    0.5573    5.1018 H   0  0  0  0  0  0  0  0  0  0  0  0
   -0.6243    1.6660    3.3019 N   0  0  0  0  0  0  0  0  0  0  0  0
   -1.4068    1.7367    2.0594 C   0  0  2  0  0  0  0  0  0  0  0  0
   -0.6273    2.5463    0.9851 C   0  0  0  0  0  0  0  0  0  0  0  0
   -0.0329    3.5380    1.4044 O   0  0  0  0  0  0  0  0  0  0  0  0
   -2.7487    2.3833    2.4305 C   0  0  0  0  0  0  0  0  0  0  0  0
    0.0902    2.3793    3.4397 H   0  0  0  0  0  0  0  0  0  0  0  0
   -1.5578    0.7186    1.7038 H   0  0  0  0  0  0  0  0  0  0  0  0
   -3.2067    1.8534    3.2715 H   0  0  0  0  0  0  0  0  0  0  0  0
   -3.4489    2.3447    1.5988 H   0  0  0  0  0  0  0  0  0  0  0  0
   -2.6014    3.4291    2.7185 H   0  0  0  0  0  0  0  0  0  0  0  0
   -0.4873    2.2743   -0.3863 N   0  0  0  0  0  0  0  0  0  0  0  0
   -0.9679    1.2281   -1.2923 C   0  0  2  0  0  0  0  0  0  0  0  0
   -1.8634    0.0756   -0.7821 C   0  0  0  0  0  0  0  0  0  0  0  0
   -1.4053   -1.0121   -0.4732 O   0  0  0  0  0  0  0  0  0  0  0  0
    0.3970    0.7400   -1.8234 C   0  0  0  0  0  0  0  0  0  0  0  0
    1.3198    1.9414   -1.5890 C   0  0  0  0  0  0  0  0  0  0  0  0
    0.3657    3.0744   -1.3126 C   0  0  0  0  0  0  0  0  0  0  0  0
   -1.5168    1.6754   -2.1234 H   0  0  0  0  0  0  0  0  0  0  0  0
    0.3257    0.4800   -2.8845 H   0  0  0  0  0  0  0  0  0  0  0  0
    0.7795   -0.1290   -1.2775 H   0  0  0  0  0  0  0  0  0  0  0  0
    1.9708    1.7667   -0.7248 H   0  0  0  0  0  0  0  0  0  0  0  0
    1.9486    2.1471   -2.4604 H   0  0  0  0  0  0  0  0  0  0  0  0
    0.8716    3.9263   -0.8462 H   0  0  0  0  0  0  0  0  0  0  0  0
   -0.1649    3.4278   -2.2043 H   0  0  0  0  0  0  0  0  0  0  0  0
   -3.0997    0.2720   -0.2049 N   0  0  0  0  0  0  0  0  0  0  0  0
   -4.2166    0.9383   -0.9072 C   0  0  2  0  0  0  0  0  0  0  0  0
   -4.6190    0.1688   -2.1883 C   0  0  0  0  0  0  0  0  0  0  0  0
   -3.9147    0.2289   -3.1884 O   0  0  0  0  0  0  0  0  0  0  0  0
   -3.9823    2.4286   -1.2325 C   0  0  0  0  0  0  0  0  0  0  0  0
   -3.3521   -0.5600    0.3262 H   0  0  0  0  0  0  0  0  0  0  0  0
   -5.0700    0.9058   -0.2232 H   0  0  0  0  0  0  0  0  0  0  0  0
   -3.4543    2.5595   -2.1802 H   0  0  0  0  0  0  0  0  0  0  0  0
   -3.4043    2.9268   -0.4533 H   0  0  0  0  0  0  0  0  0  0  0  0
   -4.9456    2.9393   -1.3243 H   0  0  0  0  0  0  0  0  0  0  0  0
   -5.7681   -0.5995   -2.2152 N   0  0  0  0  0  0  0  0  0  0  0  0
   -6.1576   -1.4038   -3.3675 C   0  0  0  0  0  0  0  0  0  0  0  0
   -6.3009   -0.6873   -1.3551 H   0  0  0  0  0  0  0  0  0  0  0  0
   -6.3439   -0.7633   -4.2359 H   0  0  0  0  0  0  0  0  0  0  0  0
   -5.3680   -2.1195   -3.6206 H   0  0  0  0  0  0  0  0  0  0  0  0
   -7.0723   -1.9630   -3.1482 H   0  0  0  0  0  0  0  0  0  0  0  0
  1  2  2  0  0  0  0
  1  3  1  0  0  0  0
  1  7  1  0  0  0  0
  3  4  1  0  0  0  0
  3  5  1  0  0  0  0
  3  6  1  0  0  0  0
  7  8  1  0  0  0  0
  7 12  1  0  0  0  0
  8  9  1  0  0  0  0
  8 11  1  0  0  0  0
  8 13  1  0  0  0  0
  9 10  2  0  0  0  0
  9 17  1  0  0  0  0
 11 14  1  0  0  0  0
 11 15  1  0  0  0  0
 11 16  1  0  0  0  0
 17 18  1  0  0  0  0
 17 23  1  0  0  0  0
 18 19  1  0  0  0  0
 18 21  1  0  0  0  0
 18 24  1  0  0  0  0
 19 20  2  0  0  0  0
 19 31  1  0  0  0  0
 21 22  1  0  0  0  0
 21 25  1  0  0  0  0
 21 26  1  0  0  0  0
 22 23  1  0  0  0  0
 22 27  1  0  0  0  0
 22 28  1  0  0  0  0
 23 29  1  0  0  0  0
 23 30  1  0  0  0  0
 31 32  1  0  0  0  0
 31 36  1  0  0  0  0
 32 33  1  0  0  0  0
 32 35  1  0  0  0  0
 32 37  1  0  0  0  0
 33 34  2  0  0  0  0
 33 41  1  0  0  0  0
 35 38  1  0  0  0  0
 35 39  1  0  0  0  0
 35 40  1  0  0  0  0
 41 42  1  0  0  0  0
 41 43  1  0  0  0  0
 42 44  1  0  0  0  0
 42 45  1  0  0  0  0
 42 46  1  0  0  0  0
M  END
$$$$

  -OEChem-05262217223D

 46 46  0     1  0  0  0  0  0999 V2000
   -0.9153    1.1087    4.2532 C   0  0  0  0  0  0  0  0  0  0  0  0
   -1.8312    0.3013    4.2671 O   0  0  0  0  0  0  0  0  0  0  0  0
    0.0004    1.2388    5.4559 C   0  0  0  0  0  0  0  0  0  0  0  0
   -0.1066    2.2310    5.9006 H   0  0  0  0  0  0  0  0  0  0  0  0
   -0.2543    0.4855    6.2068 H   0  0  0  0  0  0  0  0  0  0  0  0
    1.0396    1.0937    5.1510 H   0  0  0  0  0  0  0  0  0  0  0  0
   -0.7150    1.9114    3.1499 N   0  0  0  0  0  0  0  0  0  0  0  0
   -1.4897    1.8323    1.9040 C   0  0  2  0  0  0  0  0  0  0  0  0
   -0.6740    2.3709    0.7000 C   0  0  0  0  0  0  0  0  0  0  0  0
    0.0783    3.3141    0.9354 O   0  0  0  0  0  0  0  0  0  0  0  0
   -2.7583    2.6622    2.1079 C   0  0  0  0  0  0  0  0  0  0  0  0
    0.0675    2.5636    3.1690 H   0  0  0  0  0  0  0  0  0  0  0  0
   -1.7459    0.7881    1.7281 H   0  0  0  0  0  0  0  0  0  0  0  0
   -2.5030    3.6926    2.3754 H   0  0  0  0  0  0  0  0  0  0  0  0
   -3.3478    2.6818    1.1938 H   0  0  0  0  0  0  0  0  0  0  0  0
   -3.3713    2.2343    2.9071 H   0  0  0  0  0  0  0  0  0  0  0  0
   -0.6702    1.8744   -0.6112 N   0  0  0  0  0  0  0  0  0  0  0  0
   -1.3534    0.7788   -1.2949 C   0  0  2  0  0  0  0  0  0  0  0  0
   -2.3469   -0.1365   -0.5392 C   0  0  0  0  0  0  0  0  0  0  0  0
   -2.0181   -1.1951   -0.0316 O   0  0  0  0  0  0  0  0  0  0  0  0
   -0.1187    0.0226   -1.8240 C   0  0  0  0  0  0  0  0  0  0  0  0
    0.9681    1.1042   -1.8529 C   0  0  0  0  0  0  0  0  0  0  0  0
    0.1987    2.3928   -1.7071 C   0  0  0  0  0  0  0  0  0  0  0  0
   -1.9138    1.1802   -2.1444 H   0  0  0  0  0  0  0  0  0  0  0  0
   -0.3152   -0.3856   -2.8207 H   0  0  0  0  0  0  0  0  0  0  0  0
    0.1917   -0.7956   -1.1658 H   0  0  0  0  0  0  0  0  0  0  0  0
    1.6639    0.9757   -1.0158 H   0  0  0  0  0  0  0  0  0  0  0  0
    1.5401    1.0806   -2.7854 H   0  0  0  0  0  0  0  0  0  0  0  0
    0.8493    3.2247   -1.4168 H   0  0  0  0  0  0  0  0  0  0  0  0
   -0.3544    2.6781   -2.6097 H   0  0  0  0  0  0  0  0  0  0  0  0
   -3.6270    0.2322   -0.1801 N   0  0  0  0  0  0  0  0  0  0  0  0
   -4.5873    0.7287   -1.1886 C   0  0  2  0  0  0  0  0  0  0  0  0
   -4.4265    0.0395   -2.5721 C   0  0  0  0  0  0  0  0  0  0  0  0
   -4.3175    0.6931   -3.6001 O   0  0  0  0  0  0  0  0  0  0  0  0
   -4.5570    2.2640   -1.2700 C   0  0  0  0  0  0  0  0  0  0  0  0
   -4.0036   -0.4152    0.5108 H   0  0  0  0  0  0  0  0  0  0  0  0
   -5.5906    0.4550   -0.8478 H   0  0  0  0  0  0  0  0  0  0  0  0
   -3.5497    2.6344   -1.4782 H   0  0  0  0  0  0  0  0  0  0  0  0
   -5.2233    2.6177   -2.0635 H   0  0  0  0  0  0  0  0  0  0  0  0
   -4.9070    2.6989   -0.3308 H   0  0  0  0  0  0  0  0  0  0  0  0
   -4.2917   -1.3357   -2.6417 N   0  0  0  0  0  0  0  0  0  0  0  0
   -3.9674   -2.0455   -3.8732 C   0  0  0  0  0  0  0  0  0  0  0  0
   -4.2143   -1.8374   -1.7593 H   0  0  0  0  0  0  0  0  0  0  0  0
   -4.7395   -1.8728   -4.6303 H   0  0  0  0  0  0  0  0  0  0  0  0
   -3.0036   -1.7075   -4.2680 H   0  0  0  0  0  0  0  0  0  0  0  0
   -3.9058   -3.1214   -3.6832 H   0  0  0  0  0  0  0  0  0  0  0  0
  1  2  2  0  0  0  0
  1  3  1  0  0  0  0
  1  7  1  0  0  0  0
  3  4  1  0  0  0  0
  3  5  1  0  0  0  0
  3  6  1  0  0  0  0
  7  8  1  0  0  0  0
  7 12  1  0  0  0  0
  8  9  1  0  0  0  0
  8 11  1  0  0  0  0
  8 13  1  0  0  0  0
  9 10  2  0  0  0  0
  9 17  1  0  0  0  0
 11 14  1  0  0  0  0
 11 15  1  0  0  0  0
 11 16  1  0  0  0  0
 17 18  1  0  0  0  0
 17 23  1  0  0  0  0
 18 19  1  0  0  0  0
 18 21  1  0  0  0  0
 18 24  1  0  0  0  0
 19 20  2  0  0  0  0
 19 31  1  0  0  0  0
 21 22  1  0  0  0  0
 21 25  1  0  0  0  0
 21 26  1  0  0  0  0
 22 23  1  0  0  0  0
 22 27  1  0  0  0  0
 22 28  1  0  0  0  0
 23 29  1  0  0  0  0
 23 30  1  0  0  0  0
 31 32  1  0  0  0  0
 31 36  1  0  0  0  0
 32 33  1  0  0  0  0
 32 35  1  0  0  0  0
 32 37  1  0  0  0  0
 33 34  2  0  0  0  0
 33 41  1  0  0  0  0
 35 38  1  0  0  0  0
 35 39  1  0  0  0  0
 35 40  1  0  0  0  0
 41 42  1  0  0  0  0
 41 43  1  0  0  0  0
 42 44  1  0  0  0  0
 42 45  1  0  0  0  0
 42 46  1  0  0  0  0
M  END
$$$$

  -OEChem-05262217223D

 46 46  0     1  0  0  0  0  0999 V2000
   -1.0880    1.6766    3.8262 C   0  0  0  0  0  0  0  0  0  0  0  0
   -1.5524    2.5989    4.4775 O   0  0  0  0  0  0  0  0  0  0  0  0
   -0.5659    0.4377    4.5288 C   0  0  0  0  0  0  0  0  0  0  0  0
   -0.7813    0.4908    5.5995 H   0  0  0  0  0  0  0  0  0  0  0  0
   -1.0428   -0.4551    4.1165 H   0  0  0  0  0  0  0  0  0  0  0  0
    0.5148    0.3595    4.3881 H   0  0  0  0  0  0  0  0  0  0  0  0
   -1.0485    1.7394    2.4498 N   0  0  0  0  0  0  0  0  0  0  0  0
   -1.5577    2.8576    1.6450 C   0  0  2  0  0  0  0  0  0  0  0  0
   -0.8826    3.0360    0.2570 C   0  0  0  0  0  0  0  0  0  0  0  0
   -0.5673    4.1896   -0.0138 O   0  0  0  0  0  0  0  0  0  0  0  0
   -3.0829    2.7924    1.5624 C   0  0  0  0  0  0  0  0  0  0  0  0
   -0.7152    0.8988    1.9747 H   0  0  0  0  0  0  0  0  0  0  0  0
   -1.3160    3.7787    2.1892 H   0  0  0  0  0  0  0  0  0  0  0  0
   -3.5190    3.0367    2.5362 H   0  0  0  0  0  0  0  0  0  0  0  0
   -3.4595    3.5112    0.8280 H   0  0  0  0  0  0  0  0  0  0  0  0
   -3.4137    1.7929    1.2901 H   0  0  0  0  0  0  0  0  0  0  0  0
   -0.6342    2.0885   -0.7533 N   0  0  0  0  0  0  0  0  0  0  0  0
   -0.8723    0.6557   -0.9477 C   0  0  2  0  0  0  0  0  0  0  0  0
   -1.5695   -0.2320    0.1114 C   0  0  0  0  0  0  0  0  0  0  0  0
   -0.9638   -0.6858    1.0728 O   0  0  0  0  0  0  0  0  0  0  0  0
    0.5756    0.2016   -1.2170 C   0  0  0  0  0  0  0  0  0  0  0  0
    1.2606    1.4837   -1.7012 C   0  0  0  0  0  0  0  0  0  0  0  0
    0.1100    2.4075   -2.0095 C   0  0  0  0  0  0  0  0  0  0  0  0
   -1.4476    0.5208   -1.8654 H   0  0  0  0  0  0  0  0  0  0  0  0
    0.5944   -0.5844   -1.9791 H   0  0  0  0  0  0  0  0  0  0  0  0
    1.0787   -0.1724   -0.3191 H   0  0  0  0  0  0  0  0  0  0  0  0
    1.8923    1.9074   -0.9122 H   0  0  0  0  0  0  0  0  0  0  0  0
    1.8815    1.3049   -2.5844 H   0  0  0  0  0  0  0  0  0  0  0  0
    0.4423    3.4475   -2.0958 H   0  0  0  0  0  0  0  0  0  0  0  0
   -0.4326    2.1402   -2.9237 H   0  0  0  0  0  0  0  0  0  0  0  0
   -2.9290   -0.4692    0.1953 N   0  0  0  0  0  0  0  0  0  0  0  0
   -3.9115   -0.4333   -0.9122 C   0  0  2  0  0  0  0  0  0  0  0  0
   -3.5620   -1.2979   -2.1538 C   0  0  0  0  0  0  0  0  0  0  0  0
   -2.4396   -1.7553   -2.3223 O   0  0  0  0  0  0  0  0  0  0  0  0
   -4.2601    1.0067   -1.3250 C   0  0  0  0  0  0  0  0  0  0  0  0
   -3.1421   -1.0880    0.9740 H   0  0  0  0  0  0  0  0  0  0  0  0
   -4.8311   -0.8716   -0.5126 H   0  0  0  0  0  0  0  0  0  0  0  0
   -3.3767    1.5673   -1.6375 H   0  0  0  0  0  0  0  0  0  0  0  0
   -4.9705    1.0052   -2.1572 H   0  0  0  0  0  0  0  0  0  0  0  0
   -4.7304    1.5349   -0.4919 H   0  0  0  0  0  0  0  0  0  0  0  0
   -4.5377   -1.5850   -3.0916 N   0  0  0  0  0  0  0  0  0  0  0  0
   -4.3028   -2.4229   -4.2627 C   0  0  0  0  0  0  0  0  0  0  0  0
   -5.4731   -1.2237   -2.9294 H   0  0  0  0  0  0  0  0  0  0  0  0
   -3.4830   -2.0191   -4.8663 H   0  0  0  0  0  0  0  0  0  0  0  0
   -4.0471   -3.4435   -3.9586 H   0  0  0  0  0  0  0  0  0  0  0  0
   -5.2011   -2.4625   -4.8864 H   0  0  0  0  0  0  0  0  0  0  0  0
  1  2  2  0  0  0  0
  1  3  1  0  0  0  0
  1  7  1  0  0  0  0
  3  4  1  0  0  0  0
  3  5  1  0  0  0  0
  3  6  1  0  0  0  0
  7  8  1  0  0  0  0
  7 12  1  0  0  0  0
  8  9  1  0  0  0  0
  8 11  1  0  0  0  0
  8 13  1  0  0  0  0
  9 10  2  0  0  0  0
  9 17  1  0  0  0  0
 11 14  1  0  0  0  0
 11 15  1  0  0  0  0
 11 16  1  0  0  0  0
 17 18  1  0  0  0  0
 17 23  1  0  0  0  0
 18 19  1  0  0  0  0
 18 21  1  0  0  0  0
 18 24  1  0  0  0  0
 19 20  2  0  0  0  0
 19 31  1  0  0  0  0
 21 22  1  0  0  0  0
 21 25  1  0  0  0  0
 21 26  1  0  0  0  0
 22 23  1  0  0  0  0
 22 27  1  0  0  0  0
 22 28  1  0  0  0  0
 23 29  1  0  0  0  0
 23 30  1  0  0  0  0
 31 32  1  0  0  0  0
 31 36  1  0  0  0  0
 32 33  1  0  0  0  0
 32 35  1  0  0  0  0
 32 37  1  0  0  0  0
 33 34  2  0  0  0  0
 33 41  1  0  0  0  0
 35 38  1  0  0  0  0
 35 39  1  0  0  0  0
 35 40  1  0  0  0  0
 41 42  1  0  0  0  0
 41 43  1  0  0  0  0
 42 44  1  0  0  0  0
 42 45  1  0  0  0  0
 42 46  1  0  0  0  0
M  END
$$$$

  -OEChem-05262217223D

 46 46  0     1  0  0  0  0  0999 V2000
   -2.0084    1.3154    3.2964 C   0  0  0  0  0  0  0  0  0  0  0  0
   -2.5802    2.1697    3.9546 O   0  0  0  0  0  0  0  0  0  0  0  0
   -1.9382   -0.1128    3.8025 C   0  0  0  0  0  0  0  0  0  0  0  0
   -2.4518   -0.1993    4.7640 H   0  0  0  0  0  0  0  0  0  0  0  0
   -2.4135   -0.7852    3.0842 H   0  0  0  0  0  0  0  0  0  0  0  0
   -0.8947   -0.4103    3.9305 H   0  0  0  0  0  0  0  0  0  0  0  0
   -1.4474    1.6258    2.0763 N   0  0  0  0  0  0  0  0  0  0  0  0
   -1.5002    2.9494    1.4417 C   0  0  2  0  0  0  0  0  0  0  0  0
   -0.3502    3.2611    0.4480 C   0  0  0  0  0  0  0  0  0  0  0  0
    0.2126    4.3365    0.6169 O   0  0  0  0  0  0  0  0  0  0  0  0
   -2.8697    3.1839    0.7932 C   0  0  0  0  0  0  0  0  0  0  0  0
   -1.0673    0.8382    1.5487 H   0  0  0  0  0  0  0  0  0  0  0  0
   -1.3985    3.6905    2.2436 H   0  0  0  0  0  0  0  0  0  0  0  0
   -3.6663    3.0540    1.5324 H   0  0  0  0  0  0  0  0  0  0  0  0
   -2.9287    4.2053    0.4040 H   0  0  0  0  0  0  0  0  0  0  0  0
   -3.0463    2.4914   -0.0295 H   0  0  0  0  0  0  0  0  0  0  0  0
    0.1040    2.4968   -0.6414 N   0  0  0  0  0  0  0  0  0  0  0  0
   -0.2600    1.2188   -1.2525 C   0  0  2  0  0  0  0  0  0  0  0  0
   -1.4053    0.3391   -0.7057 C   0  0  0  0  0  0  0  0  0  0  0  0
   -1.2213   -0.4349    0.2279 O   0  0  0  0  0  0  0  0  0  0  0  0
    1.1110    0.5167   -1.1898 C   0  0  0  0  0  0  0  0  0  0  0  0
    2.0974    1.6870   -1.1080 C   0  0  0  0  0  0  0  0  0  0  0  0
    1.2675    2.8850   -1.4944 C   0  0  0  0  0  0  0  0  0  0  0  0
   -0.5245    1.3980   -2.3002 H   0  0  0  0  0  0  0  0  0  0  0  0
    1.2737   -0.0922   -2.0849 H   0  0  0  0  0  0  0  0  0  0  0  0
    1.2210   -0.1229   -0.3078 H   0  0  0  0  0  0  0  0  0  0  0  0
    2.4802    1.8004   -0.0872 H   0  0  0  0  0  0  0  0  0  0  0  0
    2.9474    1.5517   -1.7838 H   0  0  0  0  0  0  0  0  0  0  0  0
    1.7546    3.8223   -1.2050 H   0  0  0  0  0  0  0  0  0  0  0  0
    1.0343    2.9301   -2.5643 H   0  0  0  0  0  0  0  0  0  0  0  0
   -2.6091    0.2890   -1.3839 N   0  0  0  0  0  0  0  0  0  0  0  0
   -3.5966   -0.7859   -1.2084 C   0  0  2  0  0  0  0  0  0  0  0  0
   -3.4846   -1.8391   -2.3314 C   0  0  0  0  0  0  0  0  0  0  0  0
   -3.0355   -1.5180   -3.4265 O   0  0  0  0  0  0  0  0  0  0  0  0
   -4.9853   -0.1440   -1.2085 C   0  0  0  0  0  0  0  0  0  0  0  0
   -2.6183    0.7508   -2.2913 H   0  0  0  0  0  0  0  0  0  0  0  0
   -3.4553   -1.2945   -0.2493 H   0  0  0  0  0  0  0  0  0  0  0  0
   -5.1745    0.3639   -2.1600 H   0  0  0  0  0  0  0  0  0  0  0  0
   -5.7580   -0.9049   -1.0618 H   0  0  0  0  0  0  0  0  0  0  0  0
   -5.0641    0.5891   -0.3995 H   0  0  0  0  0  0  0  0  0  0  0  0
   -3.8998   -3.1408   -2.1212 N   0  0  0  0  0  0  0  0  0  0  0  0
   -3.7780   -4.1883   -3.1280 C   0  0  0  0  0  0  0  0  0  0  0  0
   -4.2129   -3.3907   -1.1877 H   0  0  0  0  0  0  0  0  0  0  0  0
   -4.3455   -3.9247   -4.0268 H   0  0  0  0  0  0  0  0  0  0  0  0
   -2.7282   -4.3340   -3.4040 H   0  0  0  0  0  0  0  0  0  0  0  0
   -4.1677   -5.1342   -2.7395 H   0  0  0  0  0  0  0  0  0  0  0  0
  1  2  2  0  0  0  0
  1  3  1  0  0  0  0
  1  7  1  0  0  0  0
  3  4  1  0  0  0  0
  3  5  1  0  0  0  0
  3  6  1  0  0  0  0
  7  8  1  0  0  0  0
  7 12  1  0  0  0  0
  8  9  1  0  0  0  0
  8 11  1  0  0  0  0
  8 13  1  0  0  0  0
  9 10  2  0  0  0  0
  9 17  1  0  0  0  0
 11 14  1  0  0  0  0
 11 15  1  0  0  0  0
 11 16  1  0  0  0  0
 17 18  1  0  0  0  0
 17 23  1  0  0  0  0
 18 19  1  0  0  0  0
 18 21  1  0  0  0  0
 18 24  1  0  0  0  0
 19 20  2  0  0  0  0
 19 31  1  0  0  0  0
 21 22  1  0  0  0  0
 21 25  1  0  0  0  0
 21 26  1  0  0  0  0
 22 23  1  0  0  0  0
 22 27  1  0  0  0  0
 22 28  1  0  0  0  0
 23 29  1  0  0  0  0
 23 30  1  0  0  0  0
 31 32  1  0  0  0  0
 31 36  1  0  0  0  0
 32 33  1  0  0  0  0
 32 35  1  0  0  0  0
 32 37  1  0  0  0  0
 33 34  2  0  0  0  0
 33 41  1  0  0  0  0
 35 38  1  0  0  0  0
 35 39  1  0  0  0  0
 35 40  1  0  0  0  0
 41 42  1  0  0  0  0
 41 43  1  0  0  0  0
 42 44  1  0  0  0  0
 42 45  1  0  0  0  0
 42 46  1  0  0  0  0
M  END
$$$$

  -OEChem-05262217223D

 46 46  0     1  0  0  0  0  0999 V2000
   -1.9650    1.4289    3.3896 C   0  0  0  0  0  0  0  0  0  0  0  0
   -2.5364    2.3138    4.0070 O   0  0  0  0  0  0  0  0  0  0  0  0
   -1.8335    0.0433    3.9927 C   0  0  0  0  0  0  0  0  0  0  0  0
   -2.2811    0.0197    4.9899 H   0  0  0  0  0  0  0  0  0  0  0  0
   -2.3410   -0.6876    3.3584 H   0  0  0  0  0  0  0  0  0  0  0  0
   -0.7783   -0.2283    4.0732 H   0  0  0  0  0  0  0  0  0  0  0  0
   -1.4609    1.6617    2.1284 N   0  0  0  0  0  0  0  0  0  0  0  0
   -1.5998    2.9214    1.3887 C   0  0  2  0  0  0  0  0  0  0  0  0
   -0.4444    3.2397    0.4032 C   0  0  0  0  0  0  0  0  0  0  0  0
    0.0898    4.3320    0.5578 O   0  0  0  0  0  0  0  0  0  0  0  0
   -2.9675    2.9878    0.6987 C   0  0  0  0  0  0  0  0  0  0  0  0
   -1.1076    0.8414    1.6326 H   0  0  0  0  0  0  0  0  0  0  0  0
   -1.5800    3.7332    2.1258 H   0  0  0  0  0  0  0  0  0  0  0  0
   -3.7667    2.9018    1.4417 H   0  0  0  0  0  0  0  0  0  0  0  0
   -3.0804    3.9480    0.1855 H   0  0  0  0  0  0  0  0  0  0  0  0
   -3.0898    2.1873   -0.0319 H   0  0  0  0  0  0  0  0  0  0  0  0
    0.0458    2.4667   -0.6649 N   0  0  0  0  0  0  0  0  0  0  0  0
   -0.2701    1.1681   -1.2611 C   0  0  2  0  0  0  0  0  0  0  0  0
   -1.3929    0.2506   -0.7297 C   0  0  0  0  0  0  0  0  0  0  0  0
   -1.2517   -0.3855    0.3087 O   0  0  0  0  0  0  0  0  0  0  0  0
    1.1150    0.5021   -1.1595 C   0  0  0  0  0  0  0  0  0  0  0  0
    2.0691    1.6984   -1.0782 C   0  0  0  0  0  0  0  0  0  0  0  0
    1.2168    2.8686   -1.5017 C   0  0  0  0  0  0  0  0  0  0  0  0
   -0.5169    1.3290   -2.3161 H   0  0  0  0  0  0  0  0  0  0  0  0
    1.3111   -0.1166   -2.0412 H   0  0  0  0  0  0  0  0  0  0  0  0
    1.2206   -0.1213   -0.2653 H   0  0  0  0  0  0  0  0  0  0  0  0
    2.4284    1.8378   -0.0521 H   0  0  0  0  0  0  0  0  0  0  0  0
    2.9355    1.5733   -1.7348 H   0  0  0  0  0  0  0  0  0  0  0  0
    1.6753    3.8229   -1.2210 H   0  0  0  0  0  0  0  0  0  0  0  0
    1.0035    2.8900   -2.5766 H   0  0  0  0  0  0  0  0  0  0  0  0
   -2.4369   -0.0908   -1.5703 N   0  0  0  0  0  0  0  0  0  0  0  0
   -3.2799   -1.2832   -1.3932 C   0  0  2  0  0  0  0  0  0  0  0  0
   -2.8949   -2.3956   -2.3924 C   0  0  0  0  0  0  0  0  0  0  0  0
   -2.3208   -2.1063   -3.4369 O   0  0  0  0  0  0  0  0  0  0  0  0
   -4.7338   -0.8533   -1.5989 C   0  0  0  0  0  0  0  0  0  0  0  0
   -2.3527    0.2444   -2.5283 H   0  0  0  0  0  0  0  0  0  0  0  0
   -3.1814   -1.6893   -0.3814 H   0  0  0  0  0  0  0  0  0  0  0  0
   -4.8768   -0.4549   -2.6086 H   0  0  0  0  0  0  0  0  0  0  0  0
   -5.4085   -1.7040   -1.4627 H   0  0  0  0  0  0  0  0  0  0  0  0
   -5.0057   -0.0782   -0.8754 H   0  0  0  0  0  0  0  0  0  0  0  0
   -3.2076   -3.7168   -2.1312 N   0  0  0  0  0  0  0  0  0  0  0  0
   -2.8441   -4.8143   -3.0195 C   0  0  0  0  0  0  0  0  0  0  0  0
   -3.6425   -3.9313   -1.2386 H   0  0  0  0  0  0  0  0  0  0  0  0
   -3.2818   -4.6659   -4.0124 H   0  0  0  0  0  0  0  0  0  0  0  0
   -1.7556   -4.8807   -3.1200 H   0  0  0  0  0  0  0  0  0  0  0  0
   -3.2132   -5.7636   -2.6191 H   0  0  0  0  0  0  0  0  0  0  0  0
  1  2  2  0  0  0  0
  1  3  1  0  0  0  0
  1  7  1  0  0  0  0
  3  4  1  0  0  0  0
  3  5  1  0  0  0  0
  3  6  1  0  0  0  0
  7  8  1  0  0  0  0
  7 12  1  0  0  0  0
  8  9  1  0  0  0  0
  8 11  1  0  0  0  0
  8 13  1  0  0  0  0
  9 10  2  0  0  0  0
  9 17  1  0  0  0  0
 11 14  1  0  0  0  0
 11 15  1  0  0  0  0
 11 16  1  0  0  0  0
 17 18  1  0  0  0  0
 17 23  1  0  0  0  0
 18 19  1  0  0  0  0
 18 21  1  0  0  0  0
 18 24  1  0  0  0  0
 19 20  2  0  0  0  0
 19 31  1  0  0  0  0
 21 22  1  0  0  0  0
 21 25  1  0  0  0  0
 21 26  1  0  0  0  0
 22 23  1  0  0  0  0
 22 27  1  0  0  0  0
 22 28  1  0  0  0  0
 23 29  1  0  0  0  0
 23 30  1  0  0  0  0
 31 32  1  0  0  0  0
 31 36  1  0  0  0  0
 32 33  1  0  0  0  0
 32 35  1  0  0  0  0
 32 37  1  0  0  0  0
 33 34  2  0  0  0  0
 33 41  1  0  0  0  0
 35 38  1  0  0  0  0
 35 39  1  0  0  0  0
 35 40  1  0  0  0  0
 41 42  1  0  0  0  0
 41 43  1  0  0  0  0
 42 44  1  0  0  0  0
 42 45  1  0  0  0  0
 42 46  1  0  0  0  0
M  END
$$$$

  -OEChem-05262217223D

 46 46  0     1  0  0  0  0  0999 V2000
   -1.7663    1.4600    3.5498 C   0  0  0  0  0  0  0  0  0  0  0  0
   -2.1418    2.4092    4.2191 O   0  0  0  0  0  0  0  0  0  0  0  0
   -1.5742    0.1047    4.2034 C   0  0  0  0  0  0  0  0  0  0  0  0
   -1.7708    0.1719    5.2771 H   0  0  0  0  0  0  0  0  0  0  0  0
   -2.2607   -0.6220    3.7622 H   0  0  0  0  0  0  0  0  0  0  0  0
   -0.5472   -0.2375    4.0540 H   0  0  0  0  0  0  0  0  0  0  0  0
   -1.5356    1.5918    2.1973 N   0  0  0  0  0  0  0  0  0  0  0  0
   -1.6893    2.8292    1.4236 C   0  0  2  0  0  0  0  0  0  0  0  0
   -0.5111    3.1463    0.4646 C   0  0  0  0  0  0  0  0  0  0  0  0
    0.0456    4.2204    0.6639 O   0  0  0  0  0  0  0  0  0  0  0  0
   -3.0453    2.8387    0.7098 C   0  0  0  0  0  0  0  0  0  0  0  0
   -1.3153    0.7324    1.6910 H   0  0  0  0  0  0  0  0  0  0  0  0
   -1.7118    3.6660    2.1317 H   0  0  0  0  0  0  0  0  0  0  0  0
   -3.8512    2.7397    1.4437 H   0  0  0  0  0  0  0  0  0  0  0  0
   -3.1812    3.7841    0.1756 H   0  0  0  0  0  0  0  0  0  0  0  0
   -3.1341    2.0214   -0.0059 H   0  0  0  0  0  0  0  0  0  0  0  0
   -0.0160    2.3996   -0.6212 N   0  0  0  0  0  0  0  0  0  0  0  0
   -0.3369    1.1291   -1.2771 C   0  0  2  0  0  0  0  0  0  0  0  0
   -1.4763    0.1857   -0.8338 C   0  0  0  0  0  0  0  0  0  0  0  0
   -1.4692   -0.3472    0.2689 O   0  0  0  0  0  0  0  0  0  0  0  0
    1.0291    0.4306   -1.1533 C   0  0  0  0  0  0  0  0  0  0  0  0
    2.0054    1.6008   -0.9947 C   0  0  0  0  0  0  0  0  0  0  0  0
    1.1921    2.8029   -1.4040 C   0  0  0  0  0  0  0  0  0  0  0  0
   -0.5482    1.3424   -2.3305 H   0  0  0  0  0  0  0  0  0  0  0  0
    1.2441   -0.1608   -2.0494 H   0  0  0  0  0  0  0  0  0  0  0  0
    1.0852   -0.2277   -0.2796 H   0  0  0  0  0  0  0  0  0  0  0  0
    2.3299    1.6952    0.0481 H   0  0  0  0  0  0  0  0  0  0  0  0
    2.8927    1.4818   -1.6240 H   0  0  0  0  0  0  0  0  0  0  0  0
    1.6626    3.7360   -1.0766 H   0  0  0  0  0  0  0  0  0  0  0  0
    1.0174    2.8652   -2.4843 H   0  0  0  0  0  0  0  0  0  0  0  0
   -2.3055   -0.3502   -1.8029 N   0  0  0  0  0  0  0  0  0  0  0  0
   -3.0326   -1.6187   -1.6436 C   0  0  2  0  0  0  0  0  0  0  0  0
   -2.2671   -2.7906   -2.2953 C   0  0  0  0  0  0  0  0  0  0  0  0
   -1.4703   -2.5709   -3.2017 O   0  0  0  0  0  0  0  0  0  0  0  0
   -4.4068   -1.4462   -2.2943 C   0  0  0  0  0  0  0  0  0  0  0  0
   -2.0571   -0.1106   -2.7604 H   0  0  0  0  0  0  0  0  0  0  0  0
   -3.1817   -1.8553   -0.5851 H   0  0  0  0  0  0  0  0  0  0  0  0
   -4.3015   -1.2176   -3.3599 H   0  0  0  0  0  0  0  0  0  0  0  0
   -4.9966   -2.3624   -2.1926 H   0  0  0  0  0  0  0  0  0  0  0  0
   -4.9533   -0.6283   -1.8140 H   0  0  0  0  0  0  0  0  0  0  0  0
   -2.4896   -4.0922   -1.8853 N   0  0  0  0  0  0  0  0  0  0  0  0
   -1.7776   -5.2369   -2.4407 C   0  0  0  0  0  0  0  0  0  0  0  0
   -3.1169   -4.2386   -1.0998 H   0  0  0  0  0  0  0  0  0  0  0  0
   -1.9472   -5.3075   -3.5204 H   0  0  0  0  0  0  0  0  0  0  0  0
   -0.7019   -5.1443   -2.2580 H   0  0  0  0  0  0  0  0  0  0  0  0
   -2.1291   -6.1631   -1.9760 H   0  0  0  0  0  0  0  0  0  0  0  0
  1  2  2  0  0  0  0
  1  3  1  0  0  0  0
  1  7  1  0  0  0  0
  3  4  1  0  0  0  0
  3  5  1  0  0  0  0
  3  6  1  0  0  0  0
  7  8  1  0  0  0  0
  7 12  1  0  0  0  0
  8  9  1  0  0  0  0
  8 11  1  0  0  0  0
  8 13  1  0  0  0  0
  9 10  2  0  0  0  0
  9 17  1  0  0  0  0
 11 14  1  0  0  0  0
 11 15  1  0  0  0  0
 11 16  1  0  0  0  0
 17 18  1  0  0  0  0
 17 23  1  0  0  0  0
 18 19  1  0  0  0  0
 18 21  1  0  0  0  0
 18 24  1  0  0  0  0
 19 20  2  0  0  0  0
 19 31  1  0  0  0  0
 21 22  1  0  0  0  0
 21 25  1  0  0  0  0
 21 26  1  0  0  0  0
 22 23  1  0  0  0  0
 22 27  1  0  0  0  0
 22 28  1  0  0  0  0
 23 29  1  0  0  0  0
 23 30  1  0  0  0  0
 31 32  1  0  0  0  0
 31 36  1  0  0  0  0
 32 33  1  0  0  0  0
 32 35  1  0  0  0  0
 32 37  1  0  0  0  0
 33 34  2  0  0  0  0
 33 41  1  0  0  0  0
 35 38  1  0  0  0  0
 35 39  1  0  0  0  0
 35 40  1  0  0  0  0
 41 42  1  0  0  0  0
 41 43  1  0  0  0  0
 42 44  1  0  0  0  0
 42 45  1  0  0  0  0
 42 46  1  0  0  0  0
M  END
$$$$

  -OEChem-05262217223D

 46 46  0     1  0  0  0  0  0999 V2000
   -0.9755    1.4487    3.5373 C   0  0  0  0  0  0  0  0  0  0  0  0
   -0.7052    2.4397    4.1947 O   0  0  0  0  0  0  0  0  0  0  0  0
   -0.7616    0.0686    4.1291 C   0  0  0  0  0  0  0  0  0  0  0  0
   -1.7078   -0.4770    4.1526 H   0  0  0  0  0  0  0  0  0  0  0  0
   -0.0439   -0.4879    3.5216 H   0  0  0  0  0  0  0  0  0  0  0  0
   -0.3744    0.1499    5.1483 H   0  0  0  0  0  0  0  0  0  0  0  0
   -1.4781    1.5564    2.2587 N   0  0  0  0  0  0  0  0  0  0  0  0
   -1.5947    2.8018    1.4934 C   0  0  2  0  0  0  0  0  0  0  0  0
   -0.4377    3.0546    0.4908 C   0  0  0  0  0  0  0  0  0  0  0  0
    0.1733    4.1031    0.6658 O   0  0  0  0  0  0  0  0  0  0  0  0
   -2.9695    2.8749    0.8218 C   0  0  0  0  0  0  0  0  0  0  0  0
   -1.6146    0.6791    1.7549 H   0  0  0  0  0  0  0  0  0  0  0  0
   -1.5664    3.6372    2.2029 H   0  0  0  0  0  0  0  0  0  0  0  0
   -3.0925    3.8442    0.3284 H   0  0  0  0  0  0  0  0  0  0  0  0
   -3.0990    2.0906    0.0757 H   0  0  0  0  0  0  0  0  0  0  0  0
   -3.7576    2.7688    1.5738 H   0  0  0  0  0  0  0  0  0  0  0  0
   -0.0301    2.2975   -0.6258 N   0  0  0  0  0  0  0  0  0  0  0  0
   -0.4409    1.0607   -1.3031 C   0  0  2  0  0  0  0  0  0  0  0  0
   -1.6066    0.1350   -0.8894 C   0  0  0  0  0  0  0  0  0  0  0  0
   -1.7471   -0.2639    0.2581 O   0  0  0  0  0  0  0  0  0  0  0  0
    0.8820    0.2806   -1.2238 C   0  0  0  0  0  0  0  0  0  0  0  0
    1.9311    1.3843   -1.0626 C   0  0  0  0  0  0  0  0  0  0  0  0
    1.1836    2.6414   -1.4295 C   0  0  0  0  0  0  0  0  0  0  0  0
   -0.6631    1.3207   -2.3436 H   0  0  0  0  0  0  0  0  0  0  0  0
    1.0434   -0.3052   -2.1348 H   0  0  0  0  0  0  0  0  0  0  0  0
    0.9110   -0.3971   -0.3634 H   0  0  0  0  0  0  0  0  0  0  0  0
    2.2827    1.4369   -0.0256 H   0  0  0  0  0  0  0  0  0  0  0  0
    2.7960    1.2245   -1.7137 H   0  0  0  0  0  0  0  0  0  0  0  0
    1.7204    3.5362   -1.0968 H   0  0  0  0  0  0  0  0  0  0  0  0
    0.9882    2.7379   -2.5038 H   0  0  0  0  0  0  0  0  0  0  0  0
   -2.2585   -0.5694   -1.8870 N   0  0  0  0  0  0  0  0  0  0  0  0
   -2.9102   -1.8682   -1.6584 C   0  0  2  0  0  0  0  0  0  0  0  0
   -1.9365   -3.0401   -1.9107 C   0  0  0  0  0  0  0  0  0  0  0  0
   -0.9850   -2.8924   -2.6708 O   0  0  0  0  0  0  0  0  0  0  0  0
   -4.1103   -1.9576   -2.6026 C   0  0  0  0  0  0  0  0  0  0  0  0
   -1.8746   -0.4370   -2.8200 H   0  0  0  0  0  0  0  0  0  0  0  0
   -3.2796   -1.9427   -0.6305 H   0  0  0  0  0  0  0  0  0  0  0  0
   -3.7830   -1.9050   -3.6461 H   0  0  0  0  0  0  0  0  0  0  0  0
   -4.6440   -2.9014   -2.4536 H   0  0  0  0  0  0  0  0  0  0  0  0
   -4.8052   -1.1338   -2.4116 H   0  0  0  0  0  0  0  0  0  0  0  0
   -2.1468   -4.2686   -1.3130 N   0  0  0  0  0  0  0  0  0  0  0  0
   -1.2643   -5.4130   -1.5046 C   0  0  0  0  0  0  0  0  0  0  0  0
   -2.9144   -4.3458   -0.6523 H   0  0  0  0  0  0  0  0  0  0  0  0
   -1.2231   -5.6922   -2.5627 H   0  0  0  0  0  0  0  0  0  0  0  0
   -0.2512   -5.1781   -1.1617 H   0  0  0  0  0  0  0  0  0  0  0  0
   -1.6312   -6.2728   -0.9356 H   0  0  0  0  0  0  0  0  0  0  0  0
  1  2  2  0  0  0  0
  1  3  1  0  0  0  0
  1  7  1  0  0  0  0
  3  4  1  0  0  0  0
  3  5  1  0  0  0  0
  3  6  1  0  0  0  0
  7  8  1  0  0  0  0
  7 12  1  0  0  0  0
  8  9  1  0  0  0  0
  8 11  1  0  0  0  0
  8 13  1  0  0  0  0
  9 10  2  0  0  0  0
  9 17  1  0  0  0  0
 11 14  1  0  0  0  0
 11 15  1  0  0  0  0
 11 16  1  0  0  0  0
 17 18  1  0  0  0  0
 17 23  1  0  0  0  0
 18 19  1  0  0  0  0
 18 21  1  0  0  0  0
 18 24  1  0  0  0  0
 19 20  2  0  0  0  0
 19 31  1  0  0  0  0
 21 22  1  0  0  0  0
 21 25  1  0  0  0  0
 21 26  1  0  0  0  0
 22 23  1  0  0  0  0
 22 27  1  0  0  0  0
 22 28  1  0  0  0  0
 23 29  1  0  0  0  0
 23 30  1  0  0  0  0
 31 32  1  0  0  0  0
 31 36  1  0  0  0  0
 32 33  1  0  0  0  0
 32 35  1  0  0  0  0
 32 37  1  0  0  0  0
 33 34  2  0  0  0  0
 33 41  1  0  0  0  0
 35 38  1  0  0  0  0
 35 39  1  0  0  0  0
 35 40  1  0  0  0  0
 41 42  1  0  0  0  0
 41 43  1  0  0  0  0
 42 44  1  0  0  0  0
 42 45  1  0  0  0  0
 42 46  1  0  0  0  0
M  END
$$$$

  -OEChem-05262217223D

 46 46  0     1  0  0  0  0  0999 V2000
   -1.6710    1.0149    4.2963 C   0  0  0  0  0  0  0  0  0  0  0  0
   -2.2000   -0.0744    4.1444 O   0  0  0  0  0  0  0  0  0  0  0  0
   -1.3874    1.5308    5.6946 C   0  0  0  0  0  0  0  0  0  0  0  0
   -1.8745    2.4979    5.8409 H   0  0  0  0  0  0  0  0  0  0  0  0
   -1.7688    0.8278    6.4405 H   0  0  0  0  0  0  0  0  0  0  0  0
   -0.3104    1.6479    5.8377 H   0  0  0  0  0  0  0  0  0  0  0  0
   -1.3257    1.7855    3.2068 N   0  0  0  0  0  0  0  0  0  0  0  0
   -1.4162    1.3543    1.8024 C   0  0  2  0  0  0  0  0  0  0  0  0
   -0.3939    2.1101    0.9098 C   0  0  0  0  0  0  0  0  0  0  0  0
    0.1834    3.0577    1.4433 O   0  0  0  0  0  0  0  0  0  0  0  0
   -2.8553    1.6291    1.3436 C   0  0  0  0  0  0  0  0  0  0  0  0
   -0.7886    2.6335    3.3837 H   0  0  0  0  0  0  0  0  0  0  0  0
   -1.1845    0.2893    1.7653 H   0  0  0  0  0  0  0  0  0  0  0  0
   -3.1090    2.6826    1.4969 H   0  0  0  0  0  0  0  0  0  0  0  0
   -2.9852    1.3972    0.2848 H   0  0  0  0  0  0  0  0  0  0  0  0
   -3.5566    1.0143    1.9165 H   0  0  0  0  0  0  0  0  0  0  0  0
   -0.0349    1.8522   -0.4253 N   0  0  0  0  0  0  0  0  0  0  0  0
   -0.4081    0.8783   -1.4573 C   0  0  2  0  0  0  0  0  0  0  0  0
   -1.4339   -0.2652   -1.2927 C   0  0  0  0  0  0  0  0  0  0  0  0
   -1.6169   -0.8399   -0.2324 O   0  0  0  0  0  0  0  0  0  0  0  0
    0.9802    0.2749   -1.7325 C   0  0  0  0  0  0  0  0  0  0  0  0
    1.9430    1.3722   -1.2682 C   0  0  0  0  0  0  0  0  0  0  0  0
    1.0582    2.5856   -1.1332 C   0  0  0  0  0  0  0  0  0  0  0  0
   -0.7645    1.4393   -2.3282 H   0  0  0  0  0  0  0  0  0  0  0  0
    1.1050    0.0502   -2.7964 H   0  0  0  0  0  0  0  0  0  0  0  0
    1.1476   -0.6438   -1.1582 H   0  0  0  0  0  0  0  0  0  0  0  0
    2.3903    1.1135   -0.3014 H   0  0  0  0  0  0  0  0  0  0  0  0
    2.7495    1.5394   -1.9890 H   0  0  0  0  0  0  0  0  0  0  0  0
    1.5424    3.3727   -0.5452 H   0  0  0  0  0  0  0  0  0  0  0  0
    0.7511    3.0125   -2.0950 H   0  0  0  0  0  0  0  0  0  0  0  0
   -1.9086   -0.8927   -2.4322 N   0  0  0  0  0  0  0  0  0  0  0  0
   -2.6011   -2.1915   -2.4269 C   0  0  2  0  0  0  0  0  0  0  0  0
   -1.6092   -3.3695   -2.2678 C   0  0  0  0  0  0  0  0  0  0  0  0
   -1.3297   -4.1049   -3.2067 O   0  0  0  0  0  0  0  0  0  0  0  0
   -3.4313   -2.2800   -3.7134 C   0  0  0  0  0  0  0  0  0  0  0  0
   -1.5774   -0.5409   -3.3262 H   0  0  0  0  0  0  0  0  0  0  0  0
   -3.2978   -2.2372   -1.5828 H   0  0  0  0  0  0  0  0  0  0  0  0
   -2.7868   -2.2202   -4.5966 H   0  0  0  0  0  0  0  0  0  0  0  0
   -3.9752   -3.2296   -3.7472 H   0  0  0  0  0  0  0  0  0  0  0  0
   -4.1596   -1.4643   -3.7543 H   0  0  0  0  0  0  0  0  0  0  0  0
   -0.9764   -3.5524   -1.0544 N   0  0  0  0  0  0  0  0  0  0  0  0
    0.0513   -4.5557   -0.8149 C   0  0  0  0  0  0  0  0  0  0  0  0
   -1.1525   -2.8368   -0.3445 H   0  0  0  0  0  0  0  0  0  0  0  0
   -0.3383   -5.5592   -1.0156 H   0  0  0  0  0  0  0  0  0  0  0  0
    0.9179   -4.3773   -1.4595 H   0  0  0  0  0  0  0  0  0  0  0  0
    0.3798   -4.5159    0.2281 H   0  0  0  0  0  0  0  0  0  0  0  0
  1  2  2  0  0  0  0
  1  3  1  0  0  0  0
  1  7  1  0  0  0  0
  3  4  1  0  0  0  0
  3  5  1  0  0  0  0
  3  6  1  0  0  0  0
  7  8  1  0  0  0  0
  7 12  1  0  0  0  0
  8  9  1  0  0  0  0
  8 11  1  0  0  0  0
  8 13  1  0  0  0  0
  9 10  2  0  0  0  0
  9 17  1  0  0  0  0
 11 14  1  0  0  0  0
 11 15  1  0  0  0  0
 11 16  1  0  0  0  0
 17 18  1  0  0  0  0
 17 23  1  0  0  0  0
 18 19  1  0  0  0  0
 18 21  1  0  0  0  0
 18 24  1  0  0  0  0
 19 20  2  0  0  0  0
 19 31  1  0  0  0  0
 21 22  1  0  0  0  0
 21 25  1  0  0  0  0
 21 26  1  0  0  0  0
 22 23  1  0  0  0  0
 22 27  1  0  0  0  0
 22 28  1  0  0  0  0
 23 29  1  0  0  0  0
 23 30  1  0  0  0  0
 31 32  1  0  0  0  0
 31 36  1  0  0  0  0
 32 33  1  0  0  0  0
 32 35  1  0  0  0  0
 32 37  1  0  0  0  0
 33 34  2  0  0  0  0
 33 41  1  0  0  0  0
 35 38  1  0  0  0  0
 35 39  1  0  0  0  0
 35 40  1  0  0  0  0
 41 42  1  0  0  0  0
 41 43  1  0  0  0  0
 42 44  1  0  0  0  0
 42 45  1  0  0  0  0
 42 46  1  0  0  0  0
M  END
$$$$

  -OEChem-05262217223D

 46 46  0     1  0  0  0  0  0999 V2000
   -0.4865    1.0278    3.6226 C   0  0  0  0  0  0  0  0  0  0  0  0
    0.1445    0.1655    3.0291 O   0  0  0  0  0  0  0  0  0  0  0  0
   -0.0355    1.4791    4.9986 C   0  0  0  0  0  0  0  0  0  0  0  0
   -0.8502    1.3582    5.7168 H   0  0  0  0  0  0  0  0  0  0  0  0
    0.8183    0.8818    5.3305 H   0  0  0  0  0  0  0  0  0  0  0  0
    0.2607    2.5303    4.9671 H   0  0  0  0  0  0  0  0  0  0  0  0
   -1.5819    1.6289    3.0363 N   0  0  0  0  0  0  0  0  0  0  0  0
   -1.8764    1.4713    1.6036 C   0  0  2  0  0  0  0  0  0  0  0  0
   -1.0248    2.4368    0.7415 C   0  0  0  0  0  0  0  0  0  0  0  0
   -0.8211    3.5489    1.2288 O   0  0  0  0  0  0  0  0  0  0  0  0
   -3.3718    1.7479    1.4147 C   0  0  0  0  0  0  0  0  0  0  0  0
   -1.8794    2.5004    3.4657 H   0  0  0  0  0  0  0  0  0  0  0  0
   -1.6502    0.4419    1.3292 H   0  0  0  0  0  0  0  0  0  0  0  0
   -3.6246    2.7500    1.7743 H   0  0  0  0  0  0  0  0  0  0  0  0
   -3.6470    1.6853    0.3578 H   0  0  0  0  0  0  0  0  0  0  0  0
   -3.9644    1.0148    1.9697 H   0  0  0  0  0  0  0  0  0  0  0  0
   -0.4194    2.1791   -0.4992 N   0  0  0  0  0  0  0  0  0  0  0  0
   -0.3484    1.0234   -1.3990 C   0  0  2  0  0  0  0  0  0  0  0  0
   -1.2548   -0.2281   -1.3442 C   0  0  0  0  0  0  0  0  0  0  0  0
   -2.3405   -0.2386   -0.7862 O   0  0  0  0  0  0  0  0  0  0  0  0
    1.1238    0.6385   -1.1724 C   0  0  0  0  0  0  0  0  0  0  0  0
    1.7569    1.9439   -0.6737 C   0  0  0  0  0  0  0  0  0  0  0  0
    0.7218    2.9915   -1.0110 C   0  0  0  0  0  0  0  0  0  0  0  0
   -0.4891    1.3897   -2.4216 H   0  0  0  0  0  0  0  0  0  0  0  0
    1.5886    0.2939   -2.1016 H   0  0  0  0  0  0  0  0  0  0  0  0
    1.2265   -0.1465   -0.4140 H   0  0  0  0  0  0  0  0  0  0  0  0
    1.9278    1.9026    0.4088 H   0  0  0  0  0  0  0  0  0  0  0  0
    2.7122    2.1487   -1.1664 H   0  0  0  0  0  0  0  0  0  0  0  0
    0.8957    3.9280   -0.4707 H   0  0  0  0  0  0  0  0  0  0  0  0
    0.6595    3.2167   -2.0818 H   0  0  0  0  0  0  0  0  0  0  0  0
   -1.0338   -1.2252   -2.2785 N   0  0  0  0  0  0  0  0  0  0  0  0
   -1.7169   -2.5251   -2.2244 C   0  0  2  0  0  0  0  0  0  0  0  0
   -0.8905   -3.5300   -1.3969 C   0  0  0  0  0  0  0  0  0  0  0  0
    0.3115   -3.6429   -1.6111 O   0  0  0  0  0  0  0  0  0  0  0  0
   -1.9023   -3.0220   -3.6594 C   0  0  0  0  0  0  0  0  0  0  0  0
   -0.0957   -1.2429   -2.6721 H   0  0  0  0  0  0  0  0  0  0  0  0
   -2.7084   -2.4314   -1.7698 H   0  0  0  0  0  0  0  0  0  0  0  0
   -0.9330   -3.1399   -4.1547 H   0  0  0  0  0  0  0  0  0  0  0  0
   -2.4139   -3.9894   -3.6630 H   0  0  0  0  0  0  0  0  0  0  0  0
   -2.5035   -2.3092   -4.2324 H   0  0  0  0  0  0  0  0  0  0  0  0
   -1.4854   -4.2817   -0.4016 N   0  0  0  0  0  0  0  0  0  0  0  0
   -0.7242   -5.1299    0.5075 C   0  0  0  0  0  0  0  0  0  0  0  0
   -2.4435   -4.0459   -0.1579 H   0  0  0  0  0  0  0  0  0  0  0  0
   -0.1311   -5.8601   -0.0532 H   0  0  0  0  0  0  0  0  0  0  0  0
   -0.0487   -4.5242    1.1210 H   0  0  0  0  0  0  0  0  0  0  0  0
   -1.4017   -5.6755    1.1714 H   0  0  0  0  0  0  0  0  0  0  0  0
  1  2  2  0  0  0  0
  1  3  1  0  0  0  0
  1  7  1  0  0  0  0
  3  4  1  0  0  0  0
  3  5  1  0  0  0  0
  3  6  1  0  0  0  0
  7  8  1  0  0  0  0
  7 12  1  0  0  0  0
  8  9  1  0  0  0  0
  8 11  1  0  0  0  0
  8 13  1  0  0  0  0
  9 10  2  0  0  0  0
  9 17  1  0  0  0  0
 11 14  1  0  0  0  0
 11 15  1  0  0  0  0
 11 16  1  0  0  0  0
 17 18  1  0  0  0  0
 17 23  1  0  0  0  0
 18 19  1  0  0  0  0
 18 21  1  0  0  0  0
 18 24  1  0  0  0  0
 19 20  2  0  0  0  0
 19 31  1  0  0  0  0
 21 22  1  0  0  0  0
 21 25  1  0  0  0  0
 21 26  1  0  0  0  0
 22 23  1  0  0  0  0
 22 27  1  0  0  0  0
 22 28  1  0  0  0  0
 23 29  1  0  0  0  0
 23 30  1  0  0  0  0
 31 32  1  0  0  0  0
 31 36  1  0  0  0  0
 32 33  1  0  0  0  0
 32 35  1  0  0  0  0
 32 37  1  0  0  0  0
 33 34  2  0  0  0  0
 33 41  1  0  0  0  0
 35 38  1  0  0  0  0
 35 39  1  0  0  0  0
 35 40  1  0  0  0  0
 41 42  1  0  0  0  0
 41 43  1  0  0  0  0
 42 44  1  0  0  0  0
 42 45  1  0  0  0  0
 42 46  1  0  0  0  0
M  END
$$$$

  -OEChem-05262217223D

 46 46  0     1  0  0  0  0  0999 V2000
   -0.0546    0.7162    3.3924 C   0  0  0  0  0  0  0  0  0  0  0  0
    0.5503   -0.0720    2.6796 O   0  0  0  0  0  0  0  0  0  0  0  0
    0.5371    1.1427    4.7221 C   0  0  0  0  0  0  0  0  0  0  0  0
   -0.1507    0.8932    5.5337 H   0  0  0  0  0  0  0  0  0  0  0  0
    1.4871    0.6290    4.8942 H   0  0  0  0  0  0  0  0  0  0  0  0
    0.7150    2.2211    4.7217 H   0  0  0  0  0  0  0  0  0  0  0  0
   -1.2546    1.2564    2.9757 N   0  0  0  0  0  0  0  0  0  0  0  0
   -1.7138    1.1346    1.5846 C   0  0  2  0  0  0  0  0  0  0  0  0
   -1.0766    2.2249    0.6851 C   0  0  0  0  0  0  0  0  0  0  0  0
   -0.9892    3.3462    1.1833 O   0  0  0  0  0  0  0  0  0  0  0  0
   -3.2411    1.2498    1.5868 C   0  0  0  0  0  0  0  0  0  0  0  0
   -1.5625    2.0808    3.4850 H   0  0  0  0  0  0  0  0  0  0  0  0
   -1.4274    0.1477    1.2292 H   0  0  0  0  0  0  0  0  0  0  0  0
   -3.5531    2.2111    2.0071 H   0  0  0  0  0  0  0  0  0  0  0  0
   -3.6335    1.1773    0.5682 H   0  0  0  0  0  0  0  0  0  0  0  0
   -3.6809    0.4459    2.1848 H   0  0  0  0  0  0  0  0  0  0  0  0
   -0.5181    2.0587   -0.5919 N   0  0  0  0  0  0  0  0  0  0  0  0
   -0.3370    0.9141   -1.4868 C   0  0  2  0  0  0  0  0  0  0  0  0
   -1.0711   -0.4339   -1.3181 C   0  0  0  0  0  0  0  0  0  0  0  0
   -2.2150   -0.4861   -0.8867 O   0  0  0  0  0  0  0  0  0  0  0  0
    1.1881    0.7544   -1.3573 C   0  0  0  0  0  0  0  0  0  0  0  0
    1.6500    2.1474   -0.9087 C   0  0  0  0  0  0  0  0  0  0  0  0
    0.4514    3.0260   -1.1802 C   0  0  0  0  0  0  0  0  0  0  0  0
   -0.5976    1.2275   -2.5037 H   0  0  0  0  0  0  0  0  0  0  0  0
    1.6361    0.4700   -2.3148 H   0  0  0  0  0  0  0  0  0  0  0  0
    1.4576    0.0073   -0.6015 H   0  0  0  0  0  0  0  0  0  0  0  0
    1.8960    2.1482    0.1599 H   0  0  0  0  0  0  0  0  0  0  0  0
    2.5295    2.4844   -1.4655 H   0  0  0  0  0  0  0  0  0  0  0  0
    0.5163    3.9840   -0.6534 H   0  0  0  0  0  0  0  0  0  0  0  0
    0.2849    3.2253   -2.2450 H   0  0  0  0  0  0  0  0  0  0  0  0
   -0.6182   -1.5514   -1.9991 N   0  0  0  0  0  0  0  0  0  0  0  0
   -1.2588   -2.8739   -1.9020 C   0  0  2  0  0  0  0  0  0  0  0  0
   -1.0311   -3.5209   -0.5125 C   0  0  0  0  0  0  0  0  0  0  0  0
   -0.3026   -4.4954   -0.3707 O   0  0  0  0  0  0  0  0  0  0  0  0
   -0.7183   -3.7307   -3.0534 C   0  0  0  0  0  0  0  0  0  0  0  0
    0.3425   -1.5216   -2.3286 H   0  0  0  0  0  0  0  0  0  0  0  0
   -2.3404   -2.7730   -2.0428 H   0  0  0  0  0  0  0  0  0  0  0  0
    0.3647   -3.8621   -2.9626 H   0  0  0  0  0  0  0  0  0  0  0  0
   -1.1878   -4.7196   -3.0411 H   0  0  0  0  0  0  0  0  0  0  0  0
   -0.9350   -3.2576   -4.0161 H   0  0  0  0  0  0  0  0  0  0  0  0
   -1.5989   -2.9291    0.5989 N   0  0  0  0  0  0  0  0  0  0  0  0
   -1.2233   -3.2637    1.9662 C   0  0  0  0  0  0  0  0  0  0  0  0
   -2.0870   -2.0483    0.4262 H   0  0  0  0  0  0  0  0  0  0  0  0
   -0.1698   -3.0225    2.1434 H   0  0  0  0  0  0  0  0  0  0  0  0
   -1.8325   -2.6932    2.6739 H   0  0  0  0  0  0  0  0  0  0  0  0
   -1.3792   -4.3304    2.1584 H   0  0  0  0  0  0  0  0  0  0  0  0
  1  2  2  0  0  0  0
  1  3  1  0  0  0  0
  1  7  1  0  0  0  0
  3  4  1  0  0  0  0
  3  5  1  0  0  0  0
  3  6  1  0  0  0  0
  7  8  1  0  0  0  0
  7 12  1  0  0  0  0
  8  9  1  0  0  0  0
  8 11  1  0  0  0  0
  8 13  1  0  0  0  0
  9 10  2  0  0  0  0
  9 17  1  0  0  0  0
 11 14  1  0  0  0  0
 11 15  1  0  0  0  0
 11 16  1  0  0  0  0
 17 18  1  0  0  0  0
 17 23  1  0  0  0  0
 18 19  1  0  0  0  0
 18 21  1  0  0  0  0
 18 24  1  0  0  0  0
 19 20  2  0  0  0  0
 19 31  1  0  0  0  0
 21 22  1  0  0  0  0
 21 25  1  0  0  0  0
 21 26  1  0  0  0  0
 22 23  1  0  0  0  0
 22 27  1  0  0  0  0
 22 28  1  0  0  0  0
 23 29  1  0  0  0  0
 23 30  1  0  0  0  0
 31 32  1  0  0  0  0
 31 36  1  0  0  0  0
 32 33  1  0  0  0  0
 32 35  1  0  0  0  0
 32 37  1  0  0  0  0
 33 34  2  0  0  0  0
 33 41  1  0  0  0  0
 35 38  1  0  0  0  0
 35 39  1  0  0  0  0
 35 40  1  0  0  0  0
 41 42  1  0  0  0  0
 41 43  1  0  0  0  0
 42 44  1  0  0  0  0
 42 45  1  0  0  0  0
 42 46  1  0  0  0  0
M  END
$$$$

  -OEChem-05262217223D

 46 46  0     1  0  0  0  0  0999 V2000
   -1.2666    0.5342    3.6679 C   0  0  0  0  0  0  0  0  0  0  0  0
   -1.4434   -0.6246    3.3198 O   0  0  0  0  0  0  0  0  0  0  0  0
   -0.8613    0.8409    5.0973 C   0  0  0  0  0  0  0  0  0  0  0  0
   -1.6412    1.4286    5.5878 H   0  0  0  0  0  0  0  0  0  0  0  0
   -0.7147   -0.0875    5.6563 H   0  0  0  0  0  0  0  0  0  0  0  0
    0.0724    1.4083    5.1064 H   0  0  0  0  0  0  0  0  0  0  0  0
   -1.4223    1.5664    2.7666 N   0  0  0  0  0  0  0  0  0  0  0  0
   -1.7281    1.3910    1.3397 C   0  0  2  0  0  0  0  0  0  0  0  0
   -1.0002    2.4365    0.4556 C   0  0  0  0  0  0  0  0  0  0  0  0
   -0.8635    3.5543    0.9503 O   0  0  0  0  0  0  0  0  0  0  0  0
   -3.2479    1.5244    1.1848 C   0  0  0  0  0  0  0  0  0  0  0  0
   -1.2063    2.5113    3.0805 H   0  0  0  0  0  0  0  0  0  0  0  0
   -1.4019    0.3954    1.0449 H   0  0  0  0  0  0  0  0  0  0  0  0
   -3.5893    2.4856    1.5817 H   0  0  0  0  0  0  0  0  0  0  0  0
   -3.5398    1.4675    0.1324 H   0  0  0  0  0  0  0  0  0  0  0  0
   -3.7545    0.7205    1.7272 H   0  0  0  0  0  0  0  0  0  0  0  0
   -0.3557    2.2064   -0.7715 N   0  0  0  0  0  0  0  0  0  0  0  0
   -0.1470    1.0160   -1.5975 C   0  0  2  0  0  0  0  0  0  0  0  0
   -0.9473   -0.2866   -1.3867 C   0  0  0  0  0  0  0  0  0  0  0  0
   -2.1458   -0.2536   -1.1540 O   0  0  0  0  0  0  0  0  0  0  0  0
    1.3665    0.8376   -1.3776 C   0  0  0  0  0  0  0  0  0  0  0  0
    1.8275    2.2454   -0.9730 C   0  0  0  0  0  0  0  0  0  0  0  0
    0.6613    3.1286   -1.3512 C   0  0  0  0  0  0  0  0  0  0  0  0
   -0.3427    1.2764   -2.6437 H   0  0  0  0  0  0  0  0  0  0  0  0
    1.8579    0.4989   -2.2955 H   0  0  0  0  0  0  0  0  0  0  0  0
    1.5853    0.1250   -0.5739 H   0  0  0  0  0  0  0  0  0  0  0  0
    2.0184    2.2980    0.1053 H   0  0  0  0  0  0  0  0  0  0  0  0
    2.7400    2.5414   -1.4995 H   0  0  0  0  0  0  0  0  0  0  0  0
    0.7122    4.1101   -0.8679 H   0  0  0  0  0  0  0  0  0  0  0  0
    0.5567    3.2778   -2.4323 H   0  0  0  0  0  0  0  0  0  0  0  0
   -0.3827   -1.5128   -1.6827 N   0  0  0  0  0  0  0  0  0  0  0  0
   -0.8527   -2.7388   -1.0244 C   0  0  2  0  0  0  0  0  0  0  0  0
    0.0618   -3.0503    0.1788 C   0  0  0  0  0  0  0  0  0  0  0  0
    1.2699   -3.1598   -0.0048 O   0  0  0  0  0  0  0  0  0  0  0  0
   -0.8308   -3.8717   -2.0531 C   0  0  0  0  0  0  0  0  0  0  0  0
    0.6180   -1.4899   -1.8681 H   0  0  0  0  0  0  0  0  0  0  0  0
   -1.8801   -2.6327   -0.6602 H   0  0  0  0  0  0  0  0  0  0  0  0
    0.1805   -4.0178   -2.4466 H   0  0  0  0  0  0  0  0  0  0  0  0
   -1.1633   -4.8080   -1.5943 H   0  0  0  0  0  0  0  0  0  0  0  0
   -1.4994   -3.6375   -2.8872 H   0  0  0  0  0  0  0  0  0  0  0  0
   -0.4396   -3.0965    1.4654 N   0  0  0  0  0  0  0  0  0  0  0  0
    0.4211   -3.1950    2.6374 C   0  0  0  0  0  0  0  0  0  0  0  0
   -1.3777   -2.7247    1.6065 H   0  0  0  0  0  0  0  0  0  0  0  0
    1.0543   -4.0862    2.5777 H   0  0  0  0  0  0  0  0  0  0  0  0
    1.0608   -2.3102    2.7171 H   0  0  0  0  0  0  0  0  0  0  0  0
   -0.1871   -3.2660    3.5445 H   0  0  0  0  0  0  0  0  0  0  0  0
  1  2  2  0  0  0  0
  1  3  1  0  0  0  0
  1  7  1  0  0  0  0
  3  4  1  0  0  0  0
  3  5  1  0  0  0  0
  3  6  1  0  0  0  0
  7  8  1  0  0  0  0
  7 12  1  0  0  0  0
  8  9  1  0  0  0  0
  8 11  1  0  0  0  0
  8 13  1  0  0  0  0
  9 10  2  0  0  0  0
  9 17  1  0  0  0  0
 11 14  1  0  0  0  0
 11 15  1  0  0  0  0
 11 16  1  0  0  0  0
 17 18  1  0  0  0  0
 17 23  1  0  0  0  0
 18 19  1  0  0  0  0
 18 21  1  0  0  0  0
 18 24  1  0  0  0  0
 19 20  2  0  0  0  0
 19 31  1  0  0  0  0
 21 22  1  0  0  0  0
 21 25  1  0  0  0  0
 21 26  1  0  0  0  0
 22 23  1  0  0  0  0
 22 27  1  0  0  0  0
 22 28  1  0  0  0  0
 23 29  1  0  0  0  0
 23 30  1  0  0  0  0
 31 32  1  0  0  0  0
 31 36  1  0  0  0  0
 32 33  1  0  0  0  0
 32 35  1  0  0  0  0
 32 37  1  0  0  0  0
 33 34  2  0  0  0  0
 33 41  1  0  0  0  0
 35 38  1  0  0  0  0
 35 39  1  0  0  0  0
 35 40  1  0  0  0  0
 41 42  1  0  0  0  0
 41 43  1  0  0  0  0
 42 44  1  0  0  0  0
 42 45  1  0  0  0  0
 42 46  1  0  0  0  0
M  END
$$$$

  -OEChem-05262217223D

 46 46  0     1  0  0  0  0  0999 V2000
   -1.6938    0.7334    3.7004 C   0  0  0  0  0  0  0  0  0  0  0  0
   -2.3212   -0.2756    3.4110 O   0  0  0  0  0  0  0  0  0  0  0  0
   -1.1473    0.8989    5.1056 C   0  0  0  0  0  0  0  0  0  0  0  0
   -1.5955    1.7764    5.5776 H   0  0  0  0  0  0  0  0  0  0  0  0
   -1.3781    0.0165    5.7086 H   0  0  0  0  0  0  0  0  0  0  0  0
   -0.0627    1.0268    5.0687 H   0  0  0  0  0  0  0  0  0  0  0  0
   -1.4897    1.7392    2.7796 N   0  0  0  0  0  0  0  0  0  0  0  0
   -1.7625    1.6148    1.3423 C   0  0  2  0  0  0  0  0  0  0  0  0
   -0.7300    2.4141    0.5014 C   0  0  0  0  0  0  0  0  0  0  0  0
   -0.3733    3.4961    0.9670 O   0  0  0  0  0  0  0  0  0  0  0  0
   -3.1773    2.1442    1.0899 C   0  0  0  0  0  0  0  0  0  0  0  0
   -0.9023    2.5213    3.0622 H   0  0  0  0  0  0  0  0  0  0  0  0
   -1.7219    0.5636    1.0707 H   0  0  0  0  0  0  0  0  0  0  0  0
   -3.2654    3.1793    1.4343 H   0  0  0  0  0  0  0  0  0  0  0  0
   -3.4162    2.1138    0.0232 H   0  0  0  0  0  0  0  0  0  0  0  0
   -3.9096    1.5327    1.6256 H   0  0  0  0  0  0  0  0  0  0  0  0
   -0.0976    2.0050   -0.6820 N   0  0  0  0  0  0  0  0  0  0  0  0
   -0.1636    0.7906   -1.4891 C   0  0  2  0  0  0  0  0  0  0  0  0
   -1.3323   -0.2032   -1.2516 C   0  0  0  0  0  0  0  0  0  0  0  0
   -2.4566    0.1974   -1.5070 O   0  0  0  0  0  0  0  0  0  0  0  0
    1.3066    0.3506   -1.4004 C   0  0  0  0  0  0  0  0  0  0  0  0
    2.0315    1.6639   -1.0684 C   0  0  0  0  0  0  0  0  0  0  0  0
    1.0115    2.7389   -1.3554 C   0  0  0  0  0  0  0  0  0  0  0  0
   -0.3441    1.0860   -2.5289 H   0  0  0  0  0  0  0  0  0  0  0  0
    1.6405   -0.0666   -2.3554 H   0  0  0  0  0  0  0  0  0  0  0  0
    1.5075   -0.3693   -0.6132 H   0  0  0  0  0  0  0  0  0  0  0  0
    2.3203    1.6857   -0.0111 H   0  0  0  0  0  0  0  0  0  0  0  0
    2.9324    1.7946   -1.6752 H   0  0  0  0  0  0  0  0  0  0  0  0
    1.2754    3.6904   -0.8813 H   0  0  0  0  0  0  0  0  0  0  0  0
    0.8419    2.9139   -2.4239 H   0  0  0  0  0  0  0  0  0  0  0  0
   -1.3900   -1.5787   -1.1297 N   0  0  0  0  0  0  0  0  0  0  0  0
   -0.5257   -2.5276   -0.4005 C   0  0  2  0  0  0  0  0  0  0  0  0
   -0.0145   -2.1202    1.0088 C   0  0  0  0  0  0  0  0  0  0  0  0
    0.2362   -0.9617    1.3058 O   0  0  0  0  0  0  0  0  0  0  0  0
    0.5869   -3.0659   -1.3095 C   0  0  0  0  0  0  0  0  0  0  0  0
   -2.3647   -1.8619   -1.2033 H   0  0  0  0  0  0  0  0  0  0  0  0
   -1.1772   -3.3840   -0.2014 H   0  0  0  0  0  0  0  0  0  0  0  0
    1.3320   -2.3076   -1.5430 H   0  0  0  0  0  0  0  0  0  0  0  0
    1.0980   -3.9024   -0.8233 H   0  0  0  0  0  0  0  0  0  0  0  0
    0.1598   -3.4254   -2.2508 H   0  0  0  0  0  0  0  0  0  0  0  0
    0.1692   -3.0954    1.9730 N   0  0  0  0  0  0  0  0  0  0  0  0
    0.4689   -2.7800    3.3657 C   0  0  0  0  0  0  0  0  0  0  0  0
   -0.1522   -4.0326    1.7521 H   0  0  0  0  0  0  0  0  0  0  0  0
    1.3739   -2.1679    3.4376 H   0  0  0  0  0  0  0  0  0  0  0  0
   -0.3633   -2.2330    3.8209 H   0  0  0  0  0  0  0  0  0  0  0  0
    0.6315   -3.7000    3.9351 H   0  0  0  0  0  0  0  0  0  0  0  0
  1  2  2  0  0  0  0
  1  3  1  0  0  0  0
  1  7  1  0  0  0  0
  3  4  1  0  0  0  0
  3  5  1  0  0  0  0
  3  6  1  0  0  0  0
  7  8  1  0  0  0  0
  7 12  1  0  0  0  0
  8  9  1  0  0  0  0
  8 11  1  0  0  0  0
  8 13  1  0  0  0  0
  9 10  2  0  0  0  0
  9 17  1  0  0  0  0
 11 14  1  0  0  0  0
 11 15  1  0  0  0  0
 11 16  1  0  0  0  0
 17 18  1  0  0  0  0
 17 23  1  0  0  0  0
 18 19  1  0  0  0  0
 18 21  1  0  0  0  0
 18 24  1  0  0  0  0
 19 20  2  0  0  0  0
 19 31  1  0  0  0  0
 21 22  1  0  0  0  0
 21 25  1  0  0  0  0
 21 26  1  0  0  0  0
 22 23  1  0  0  0  0
 22 27  1  0  0  0  0
 22 28  1  0  0  0  0
 23 29  1  0  0  0  0
 23 30  1  0  0  0  0
 31 32  1  0  0  0  0
 31 36  1  0  0  0  0
 32 33  1  0  0  0  0
 32 35  1  0  0  0  0
 32 37  1  0  0  0  0
 33 34  2  0  0  0  0
 33 41  1  0  0  0  0
 35 38  1  0  0  0  0
 35 39  1  0  0  0  0
 35 40  1  0  0  0  0
 41 42  1  0  0  0  0
 41 43  1  0  0  0  0
 42 44  1  0  0  0  0
 42 45  1  0  0  0  0
 42 46  1  0  0  0  0
M  END
$$$$

  -OEChem-05262217223D

 46 46  0     1  0  0  0  0  0999 V2000
   -1.8938    0.9013    3.7083 C   0  0  0  0  0  0  0  0  0  0  0  0
   -2.4302   -0.1600    3.4203 O   0  0  0  0  0  0  0  0  0  0  0  0
   -1.4191    1.1376    5.1295 C   0  0  0  0  0  0  0  0  0  0  0  0
   -1.8774    2.0454    5.5294 H   0  0  0  0  0  0  0  0  0  0  0  0
   -1.6965    0.2928    5.7658 H   0  0  0  0  0  0  0  0  0  0  0  0
   -0.3321    1.2492    5.1429 H   0  0  0  0  0  0  0  0  0  0  0  0
   -1.7247    1.8974    2.7693 N   0  0  0  0  0  0  0  0  0  0  0  0
   -1.8893    1.6987    1.3240 C   0  0  2  0  0  0  0  0  0  0  0  0
   -0.8286    2.4970    0.5171 C   0  0  0  0  0  0  0  0  0  0  0  0
   -0.5484    3.6155    0.9477 O   0  0  0  0  0  0  0  0  0  0  0  0
   -3.3000    2.1590    0.9467 C   0  0  0  0  0  0  0  0  0  0  0  0
   -1.1882    2.7154    3.0509 H   0  0  0  0  0  0  0  0  0  0  0  0
   -1.7933    0.6388    1.1077 H   0  0  0  0  0  0  0  0  0  0  0  0
   -3.4394    3.2136    1.2041 H   0  0  0  0  0  0  0  0  0  0  0  0
   -3.4700    2.0394   -0.1271 H   0  0  0  0  0  0  0  0  0  0  0  0
   -4.0466    1.5654    1.4830 H   0  0  0  0  0  0  0  0  0  0  0  0
   -0.1031    2.0568   -0.5997 N   0  0  0  0  0  0  0  0  0  0  0  0
   -0.0722    0.8055   -1.3488 C   0  0  2  0  0  0  0  0  0  0  0  0
   -1.2257   -0.2102   -1.1320 C   0  0  0  0  0  0  0  0  0  0  0  0
   -2.3264    0.1023   -1.5576 O   0  0  0  0  0  0  0  0  0  0  0  0
    1.4055    0.4259   -1.1604 C   0  0  0  0  0  0  0  0  0  0  0  0
    2.0581    1.7821   -0.8510 C   0  0  0  0  0  0  0  0  0  0  0  0
    1.0160    2.8024   -1.2428 C   0  0  0  0  0  0  0  0  0  0  0  0
   -0.2005    1.0464   -2.4104 H   0  0  0  0  0  0  0  0  0  0  0  0
    1.8058   -0.0150   -2.0785 H   0  0  0  0  0  0  0  0  0  0  0  0
    1.5938   -0.2552   -0.3373 H   0  0  0  0  0  0  0  0  0  0  0  0
    2.2830    1.8621    0.2192 H   0  0  0  0  0  0  0  0  0  0  0  0
    2.9874    1.9236   -1.4105 H   0  0  0  0  0  0  0  0  0  0  0  0
    1.2162    3.7835   -0.7992 H   0  0  0  0  0  0  0  0  0  0  0  0
    0.9022    2.9225   -2.3263 H   0  0  0  0  0  0  0  0  0  0  0  0
   -1.2860   -1.5181   -0.6863 N   0  0  0  0  0  0  0  0  0  0  0  0
   -0.3832   -2.3520    0.1302 C   0  0  2  0  0  0  0  0  0  0  0  0
    0.1567   -1.7710    1.4667 C   0  0  0  0  0  0  0  0  0  0  0  0
    0.3247   -0.5737    1.6466 O   0  0  0  0  0  0  0  0  0  0  0  0
    0.7126   -2.9784   -0.7428 C   0  0  0  0  0  0  0  0  0  0  0  0
   -2.2486   -1.8431   -0.7443 H   0  0  0  0  0  0  0  0  0  0  0  0
   -1.0107   -3.1878    0.4542 H   0  0  0  0  0  0  0  0  0  0  0  0
    1.3788   -2.2312   -1.1703 H   0  0  0  0  0  0  0  0  0  0  0  0
    1.3157   -3.6744   -0.1517 H   0  0  0  0  0  0  0  0  0  0  0  0
    0.2569   -3.5341   -1.5681 H   0  0  0  0  0  0  0  0  0  0  0  0
    0.4670   -2.6342    2.5029 N   0  0  0  0  0  0  0  0  0  0  0  0
    0.8144   -2.1694    3.8412 C   0  0  0  0  0  0  0  0  0  0  0  0
    0.2041   -3.6077    2.3872 H   0  0  0  0  0  0  0  0  0  0  0  0
    1.6592   -1.4736    3.8016 H   0  0  0  0  0  0  0  0  0  0  0  0
   -0.0399   -1.6620    4.3014 H   0  0  0  0  0  0  0  0  0  0  0  0
    1.0976   -3.0161    4.4740 H   0  0  0  0  0  0  0  0  0  0  0  0
  1  2  2  0  0  0  0
  1  3  1  0  0  0  0
  1  7  1  0  0  0  0
  3  4  1  0  0  0  0
  3  5  1  0  0  0  0
  3  6  1  0  0  0  0
  7  8  1  0  0  0  0
  7 12  1  0  0  0  0
  8  9  1  0  0  0  0
  8 11  1  0  0  0  0
  8 13  1  0  0  0  0
  9 10  2  0  0  0  0
  9 17  1  0  0  0  0
 11 14  1  0  0  0  0
 11 15  1  0  0  0  0
 11 16  1  0  0  0  0
 17 18  1  0  0  0  0
 17 23  1  0  0  0  0
 18 19  1  0  0  0  0
 18 21  1  0  0  0  0
 18 24  1  0  0  0  0
 19 20  2  0  0  0  0
 19 31  1  0  0  0  0
 21 22  1  0  0  0  0
 21 25  1  0  0  0  0
 21 26  1  0  0  0  0
 22 23  1  0  0  0  0
 22 27  1  0  0  0  0
 22 28  1  0  0  0  0
 23 29  1  0  0  0  0
 23 30  1  0  0  0  0
 31 32  1  0  0  0  0
 31 36  1  0  0  0  0
 32 33  1  0  0  0  0
 32 35  1  0  0  0  0
 32 37  1  0  0  0  0
 33 34  2  0  0  0  0
 33 41  1  0  0  0  0
 35 38  1  0  0  0  0
 35 39  1  0  0  0  0
 35 40  1  0  0  0  0
 41 42  1  0  0  0  0
 41 43  1  0  0  0  0
 42 44  1  0  0  0  0
 42 45  1  0  0  0  0
 42 46  1  0  0  0  0
M  END
$$$$

  -OEChem-05262217223D

 46 46  0     1  0  0  0  0  0999 V2000
   -1.9988    1.0521    3.8098 C   0  0  0  0  0  0  0  0  0  0  0  0
   -2.4074   -0.0714    3.5472 O   0  0  0  0  0  0  0  0  0  0  0  0
   -1.5717    1.3814    5.2278 C   0  0  0  0  0  0  0  0  0  0  0  0
   -1.6979    0.5085    5.8737 H   0  0  0  0  0  0  0  0  0  0  0  0
   -2.1792    2.2010    5.6189 H   0  0  0  0  0  0  0  0  0  0  0  0
   -0.5202    1.6790    5.2382 H   0  0  0  0  0  0  0  0  0  0  0  0
   -1.9271    2.0340    2.8439 N   0  0  0  0  0  0  0  0  0  0  0  0
   -2.0030    1.7677    1.4021 C   0  0  2  0  0  0  0  0  0  0  0  0
   -0.9583    2.6048    0.6153 C   0  0  0  0  0  0  0  0  0  0  0  0
   -0.7459    3.7428    1.0332 O   0  0  0  0  0  0  0  0  0  0  0  0
   -3.4209    2.1094    0.9363 C   0  0  0  0  0  0  0  0  0  0  0  0
   -1.4736    2.9063    3.1094 H   0  0  0  0  0  0  0  0  0  0  0  0
   -1.8222    0.7112    1.2324 H   0  0  0  0  0  0  0  0  0  0  0  0
   -3.6508    3.1588    1.1455 H   0  0  0  0  0  0  0  0  0  0  0  0
   -3.5237    1.9405   -0.1395 H   0  0  0  0  0  0  0  0  0  0  0  0
   -4.1501    1.4805    1.4562 H   0  0  0  0  0  0  0  0  0  0  0  0
   -0.1905    2.1841   -0.4803 N   0  0  0  0  0  0  0  0  0  0  0  0
   -0.0895    0.9298   -1.2179 C   0  0  2  0  0  0  0  0  0  0  0  0
   -1.2004   -0.1368   -1.0226 C   0  0  0  0  0  0  0  0  0  0  0  0
   -2.2738    0.0681   -1.5663 O   0  0  0  0  0  0  0  0  0  0  0  0
    1.3987    0.6111   -1.0067 C   0  0  0  0  0  0  0  0  0  0  0  0
    1.9869    1.9967   -0.6973 C   0  0  0  0  0  0  0  0  0  0  0  0
    0.9085    2.9715   -1.1096 C   0  0  0  0  0  0  0  0  0  0  0  0
   -0.2073    1.1606   -2.2831 H   0  0  0  0  0  0  0  0  0  0  0  0
    1.8301    0.1831   -1.9168 H   0  0  0  0  0  0  0  0  0  0  0  0
    1.6052   -0.0594   -0.1800 H   0  0  0  0  0  0  0  0  0  0  0  0
    2.1926    2.0914    0.3754 H   0  0  0  0  0  0  0  0  0  0  0  0
    2.9177    2.1740   -1.2441 H   0  0  0  0  0  0  0  0  0  0  0  0
    1.0617    3.9613   -0.6665 H   0  0  0  0  0  0  0  0  0  0  0  0
    0.8069    3.0841   -2.1949 H   0  0  0  0  0  0  0  0  0  0  0  0
   -1.2694   -1.3395   -0.3408 N   0  0  0  0  0  0  0  0  0  0  0  0
   -0.3336   -2.0986    0.5105 C   0  0  2  0  0  0  0  0  0  0  0  0
    0.2489   -1.4173    1.7799 C   0  0  0  0  0  0  0  0  0  0  0  0
    0.4096   -0.2086    1.8708 O   0  0  0  0  0  0  0  0  0  0  0  0
    0.7351   -2.7853   -0.3523 C   0  0  0  0  0  0  0  0  0  0  0  0
   -2.2139   -1.7130   -0.4011 H   0  0  0  0  0  0  0  0  0  0  0  0
   -0.9426   -2.9099    0.9205 H   0  0  0  0  0  0  0  0  0  0  0  0
    1.3614   -2.0694   -0.8827 H   0  0  0  0  0  0  0  0  0  0  0  0
    1.3816   -3.4110    0.2705 H   0  0  0  0  0  0  0  0  0  0  0  0
    0.2542   -3.4257   -1.0985 H   0  0  0  0  0  0  0  0  0  0  0  0
    0.6114   -2.2047    2.8589 N   0  0  0  0  0  0  0  0  0  0  0  0
    1.0015   -1.6465    4.1484 C   0  0  0  0  0  0  0  0  0  0  0  0
    0.3508   -3.1851    2.8211 H   0  0  0  0  0  0  0  0  0  0  0  0
    0.1515   -1.1387    4.6154 H   0  0  0  0  0  0  0  0  0  0  0  0
    1.8197   -0.9283    4.0284 H   0  0  0  0  0  0  0  0  0  0  0  0
    1.3411   -2.4430    4.8175 H   0  0  0  0  0  0  0  0  0  0  0  0
  1  2  2  0  0  0  0
  1  3  1  0  0  0  0
  1  7  1  0  0  0  0
  3  4  1  0  0  0  0
  3  5  1  0  0  0  0
  3  6  1  0  0  0  0
  7  8  1  0  0  0  0
  7 12  1  0  0  0  0
  8  9  1  0  0  0  0
  8 11  1  0  0  0  0
  8 13  1  0  0  0  0
  9 10  2  0  0  0  0
  9 17  1  0  0  0  0
 11 14  1  0  0  0  0
 11 15  1  0  0  0  0
 11 16  1  0  0  0  0
 17 18  1  0  0  0  0
 17 23  1  0  0  0  0
 18 19  1  0  0  0  0
 18 21  1  0  0  0  0
 18 24  1  0  0  0  0
 19 20  2  0  0  0  0
 19 31  1  0  0  0  0
 21 22  1  0  0  0  0
 21 25  1  0  0  0  0
 21 26  1  0  0  0  0
 22 23  1  0  0  0  0
 22 27  1  0  0  0  0
 22 28  1  0  0  0  0
 23 29  1  0  0  0  0
 23 30  1  0  0  0  0
 31 32  1  0  0  0  0
 31 36  1  0  0  0  0
 32 33  1  0  0  0  0
 32 35  1  0  0  0  0
 32 37  1  0  0  0  0
 33 34  2  0  0  0  0
 33 41  1  0  0  0  0
 35 38  1  0  0  0  0
 35 39  1  0  0  0  0
 35 40  1  0  0  0  0
 41 42  1  0  0  0  0
 41 43  1  0  0  0  0
 42 44  1  0  0  0  0
 42 45  1  0  0  0  0
 42 46  1  0  0  0  0
M  END
$$$$

  -OEChem-05262217223D

 46 46  0     1  0  0  0  0  0999 V2000
   -2.7030    1.5690    3.6187 C   0  0  0  0  0  0  0  0  0  0  0  0
   -2.6885    0.3458    3.5897 O   0  0  0  0  0  0  0  0  0  0  0  0
   -2.9325    2.2985    4.9286 C   0  0  0  0  0  0  0  0  0  0  0  0
   -3.8090    2.9459    4.8463 H   0  0  0  0  0  0  0  0  0  0  0  0
   -3.0997    1.5810    5.7368 H   0  0  0  0  0  0  0  0  0  0  0  0
   -2.0601    2.9093    5.1738 H   0  0  0  0  0  0  0  0  0  0  0  0
   -2.4665    2.2869    2.4666 N   0  0  0  0  0  0  0  0  0  0  0  0
   -2.1638    1.6906    1.1587 C   0  0  2  0  0  0  0  0  0  0  0  0
   -1.1052    2.4982    0.3713 C   0  0  0  0  0  0  0  0  0  0  0  0
   -1.0767    3.7098    0.5768 O   0  0  0  0  0  0  0  0  0  0  0  0
   -3.4810    1.6345    0.3784 C   0  0  0  0  0  0  0  0  0  0  0  0
   -2.3867    3.3001    2.5424 H   0  0  0  0  0  0  0  0  0  0  0  0
   -1.7812    0.6876    1.3132 H   0  0  0  0  0  0  0  0  0  0  0  0
   -4.1982    0.9877    0.8932 H   0  0  0  0  0  0  0  0  0  0  0  0
   -3.3224    1.2407   -0.6289 H   0  0  0  0  0  0  0  0  0  0  0  0
   -3.9139    2.6360    0.2878 H   0  0  0  0  0  0  0  0  0  0  0  0
   -0.1268    1.9667   -0.4787 N   0  0  0  0  0  0  0  0  0  0  0  0
    0.2290    0.6103   -0.8960 C   0  0  2  0  0  0  0  0  0  0  0  0
   -0.7513   -0.5741   -0.6495 C   0  0  0  0  0  0  0  0  0  0  0  0
   -1.7398   -0.6367   -1.3598 O   0  0  0  0  0  0  0  0  0  0  0  0
    1.6609    0.5639   -0.3397 C   0  0  0  0  0  0  0  0  0  0  0  0
    2.0466    2.0465   -0.2414 C   0  0  0  0  0  0  0  0  0  0  0  0
    0.9974    2.7540   -1.0617 C   0  0  0  0  0  0  0  0  0  0  0  0
    0.3056    0.6058   -1.9899 H   0  0  0  0  0  0  0  0  0  0  0  0
    2.3249    0.0180   -1.0171 H   0  0  0  0  0  0  0  0  0  0  0  0
    1.7250    0.1229    0.6477 H   0  0  0  0  0  0  0  0  0  0  0  0
    2.0128    2.3860    0.8004 H   0  0  0  0  0  0  0  0  0  0  0  0
    3.0523    2.2304   -0.6310 H   0  0  0  0  0  0  0  0  0  0  0  0
    0.9594    3.8266   -0.8437 H   0  0  0  0  0  0  0  0  0  0  0  0
    1.1193    2.6200   -2.1428 H   0  0  0  0  0  0  0  0  0  0  0  0
   -0.9032   -1.4505    0.4122 N   0  0  0  0  0  0  0  0  0  0  0  0
    0.1127   -2.1904    1.1854 C   0  0  2  0  0  0  0  0  0  0  0  0
    0.7880   -1.4251    2.3510 C   0  0  0  0  0  0  0  0  0  0  0  0
    1.9817   -1.5784    2.5795 O   0  0  0  0  0  0  0  0  0  0  0  0
    1.1052   -2.8745    0.2293 C   0  0  0  0  0  0  0  0  0  0  0  0
   -1.7993   -1.9264    0.3237 H   0  0  0  0  0  0  0  0  0  0  0  0
   -0.4281   -3.0009    1.6835 H   0  0  0  0  0  0  0  0  0  0  0  0
    1.7602   -2.1485   -0.2550 H   0  0  0  0  0  0  0  0  0  0  0  0
    1.7327   -3.5813    0.7817 H   0  0  0  0  0  0  0  0  0  0  0  0
    0.5675   -3.4298   -0.5454 H   0  0  0  0  0  0  0  0  0  0  0  0
    0.0776   -0.5384    3.1382 N   0  0  0  0  0  0  0  0  0  0  0  0
    0.6749    0.1910    4.2501 C   0  0  0  0  0  0  0  0  0  0  0  0
   -0.9370   -0.4860    3.0125 H   0  0  0  0  0  0  0  0  0  0  0  0
    1.4419    0.8816    3.8850 H   0  0  0  0  0  0  0  0  0  0  0  0
    1.1331   -0.5021    4.9635 H   0  0  0  0  0  0  0  0  0  0  0  0
   -0.0885    0.7698    4.7775 H   0  0  0  0  0  0  0  0  0  0  0  0
  1  2  2  0  0  0  0
  1  3  1  0  0  0  0
  1  7  1  0  0  0  0
  3  4  1  0  0  0  0
  3  5  1  0  0  0  0
  3  6  1  0  0  0  0
  7  8  1  0  0  0  0
  7 12  1  0  0  0  0
  8  9  1  0  0  0  0
  8 11  1  0  0  0  0
  8 13  1  0  0  0  0
  9 10  2  0  0  0  0
  9 17  1  0  0  0  0
 11 14  1  0  0  0  0
 11 15  1  0  0  0  0
 11 16  1  0  0  0  0
 17 18  1  0  0  0  0
 17 23  1  0  0  0  0
 18 19  1  0  0  0  0
 18 21  1  0  0  0  0
 18 24  1  0  0  0  0
 19 20  2  0  0  0  0
 19 31  1  0  0  0  0
 21 22  1  0  0  0  0
 21 25  1  0  0  0  0
 21 26  1  0  0  0  0
 22 23  1  0  0  0  0
 22 27  1  0  0  0  0
 22 28  1  0  0  0  0
 23 29  1  0  0  0  0
 23 30  1  0  0  0  0
 31 32  1  0  0  0  0
 31 36  1  0  0  0  0
 32 33  1  0  0  0  0
 32 35  1  0  0  0  0
 32 37  1  0  0  0  0
 33 34  2  0  0  0  0
 33 41  1  0  0  0  0
 35 38  1  0  0  0  0
 35 39  1  0  0  0  0
 35 40  1  0  0  0  0
 41 42  1  0  0  0  0
 41 43  1  0  0  0  0
 42 44  1  0  0  0  0
 42 45  1  0  0  0  0
 42 46  1  0  0  0  0
M  END
$$$$

  -OEChem-05262217223D

 46 46  0     1  0  0  0  0  0999 V2000
   -2.5853    2.1052    3.5743 C   0  0  0  0  0  0  0  0  0  0  0  0
   -2.8681    0.9142    3.5667 O   0  0  0  0  0  0  0  0  0  0  0  0
   -2.5358    2.8571    4.8910 C   0  0  0  0  0  0  0  0  0  0  0  0
   -3.2462    3.6873    4.8728 H   0  0  0  0  0  0  0  0  0  0  0  0
   -2.7937    2.1900    5.7182 H   0  0  0  0  0  0  0  0  0  0  0  0
   -1.5300    3.2515    5.0557 H   0  0  0  0  0  0  0  0  0  0  0  0
   -2.3141    2.7807    2.4031 N   0  0  0  0  0  0  0  0  0  0  0  0
   -2.0715    2.1197    1.1147 C   0  0  2  0  0  0  0  0  0  0  0  0
   -0.9050    2.7723    0.3324 C   0  0  0  0  0  0  0  0  0  0  0  0
   -0.7223    3.9736    0.5301 O   0  0  0  0  0  0  0  0  0  0  0  0
   -3.3641    2.1906    0.2986 C   0  0  0  0  0  0  0  0  0  0  0  0
   -1.9537    3.7297    2.4903 H   0  0  0  0  0  0  0  0  0  0  0  0
   -1.8272    1.0849    1.2993 H   0  0  0  0  0  0  0  0  0  0  0  0
   -3.6577    3.2327    0.1387 H   0  0  0  0  0  0  0  0  0  0  0  0
   -3.2310    1.7147   -0.6770 H   0  0  0  0  0  0  0  0  0  0  0  0
   -4.1721    1.6755    0.8268 H   0  0  0  0  0  0  0  0  0  0  0  0
   -0.0278    2.1330   -0.5547 N   0  0  0  0  0  0  0  0  0  0  0  0
    0.1328    0.7641   -1.0417 C   0  0  2  0  0  0  0  0  0  0  0  0
   -0.9801   -0.3030   -0.8447 C   0  0  0  0  0  0  0  0  0  0  0  0
   -1.8258   -0.4030   -1.7192 O   0  0  0  0  0  0  0  0  0  0  0  0
    1.5687    0.4608   -0.5935 C   0  0  0  0  0  0  0  0  0  0  0  0
    2.1601    1.8722   -0.4553 C   0  0  0  0  0  0  0  0  0  0  0  0
    1.1748    2.7770   -1.1619 C   0  0  0  0  0  0  0  0  0  0  0  0
    0.1619    0.8224   -2.1366 H   0  0  0  0  0  0  0  0  0  0  0  0
    2.0909   -0.1222   -1.3587 H   0  0  0  0  0  0  0  0  0  0  0  0
    1.6459   -0.0704    0.3496 H   0  0  0  0  0  0  0  0  0  0  0  0
    2.2345    2.1486    0.6031 H   0  0  0  0  0  0  0  0  0  0  0  0
    3.1572    1.9399   -0.9001 H   0  0  0  0  0  0  0  0  0  0  0  0
    1.3133    3.8255   -0.8783 H   0  0  0  0  0  0  0  0  0  0  0  0
    1.2130    2.7026   -2.2548 H   0  0  0  0  0  0  0  0  0  0  0  0
   -1.3974   -1.0282    0.2587 N   0  0  0  0  0  0  0  0  0  0  0  0
   -0.6787   -1.5909    1.4224 C   0  0  2  0  0  0  0  0  0  0  0  0
   -0.1115   -0.6484    2.5210 C   0  0  0  0  0  0  0  0  0  0  0  0
    0.3540    0.4557    2.2782 O   0  0  0  0  0  0  0  0  0  0  0  0
    0.3617   -2.6132    0.9441 C   0  0  0  0  0  0  0  0  0  0  0  0
   -2.3032   -1.4481    0.0635 H   0  0  0  0  0  0  0  0  0  0  0  0
   -1.4424   -2.1668    1.9543 H   0  0  0  0  0  0  0  0  0  0  0  0
    1.1528   -2.1473    0.3563 H   0  0  0  0  0  0  0  0  0  0  0  0
    0.8223   -3.1146    1.8010 H   0  0  0  0  0  0  0  0  0  0  0  0
   -0.1205   -3.3726    0.3205 H   0  0  0  0  0  0  0  0  0  0  0  0
   -0.0803   -1.0887    3.8326 N   0  0  0  0  0  0  0  0  0  0  0  0
    0.3393   -0.2405    4.9421 C   0  0  0  0  0  0  0  0  0  0  0  0
   -0.6167   -1.9237    4.0467 H   0  0  0  0  0  0  0  0  0  0  0  0
    1.3613    0.1200    4.7858 H   0  0  0  0  0  0  0  0  0  0  0  0
   -0.3281    0.6217    5.0385 H   0  0  0  0  0  0  0  0  0  0  0  0
    0.3144   -0.8051    5.8789 H   0  0  0  0  0  0  0  0  0  0  0  0
  1  2  2  0  0  0  0
  1  3  1  0  0  0  0
  1  7  1  0  0  0  0
  3  4  1  0  0  0  0
  3  5  1  0  0  0  0
  3  6  1  0  0  0  0
  7  8  1  0  0  0  0
  7 12  1  0  0  0  0
  8  9  1  0  0  0  0
  8 11  1  0  0  0  0
  8 13  1  0  0  0  0
  9 10  2  0  0  0  0
  9 17  1  0  0  0  0
 11 14  1  0  0  0  0
 11 15  1  0  0  0  0
 11 16  1  0  0  0  0
 17 18  1  0  0  0  0
 17 23  1  0  0  0  0
 18 19  1  0  0  0  0
 18 21  1  0  0  0  0
 18 24  1  0  0  0  0
 19 20  2  0  0  0  0
 19 31  1  0  0  0  0
 21 22  1  0  0  0  0
 21 25  1  0  0  0  0
 21 26  1  0  0  0  0
 22 23  1  0  0  0  0
 22 27  1  0  0  0  0
 22 28  1  0  0  0  0
 23 29  1  0  0  0  0
 23 30  1  0  0  0  0
 31 32  1  0  0  0  0
 31 36  1  0  0  0  0
 32 33  1  0  0  0  0
 32 35  1  0  0  0  0
 32 37  1  0  0  0  0
 33 34  2  0  0  0  0
 33 41  1  0  0  0  0
 35 38  1  0  0  0  0
 35 39  1  0  0  0  0
 35 40  1  0  0  0  0
 41 42  1  0  0  0  0
 41 43  1  0  0  0  0
 42 44  1  0  0  0  0
 42 45  1  0  0  0  0
 42 46  1  0  0  0  0
M  END
$$$$

  -OEChem-05262217223D

 46 46  0     1  0  0  0  0  0999 V2000
   -0.4962    2.5193    4.3052 C   0  0  0  0  0  0  0  0  0  0  0  0
   -1.3799    1.6710    4.2870 O   0  0  0  0  0  0  0  0  0  0  0  0
    0.1455    2.9254    5.6187 C   0  0  0  0  0  0  0  0  0  0  0  0
   -0.0314    3.9871    5.8071 H   0  0  0  0  0  0  0  0  0  0  0  0
   -0.2792    2.3459    6.4431 H   0  0  0  0  0  0  0  0  0  0  0  0
    1.2227    2.7455    5.5799 H   0  0  0  0  0  0  0  0  0  0  0  0
   -0.0706    3.1008    3.1281 N   0  0  0  0  0  0  0  0  0  0  0  0
   -0.5705    2.7295    1.7985 C   0  0  2  0  0  0  0  0  0  0  0  0
    0.4618    2.9192    0.6625 C   0  0  0  0  0  0  0  0  0  0  0  0
    1.4008    3.6731    0.9078 O   0  0  0  0  0  0  0  0  0  0  0  0
   -1.8193    3.5738    1.5193 C   0  0  0  0  0  0  0  0  0  0  0  0
    0.7187    3.7448    3.1658 H   0  0  0  0  0  0  0  0  0  0  0  0
   -0.8312    1.6874    1.8374 H   0  0  0  0  0  0  0  0  0  0  0  0
   -1.5725    4.6398    1.5509 H   0  0  0  0  0  0  0  0  0  0  0  0
   -2.2326    3.3466    0.5328 H   0  0  0  0  0  0  0  0  0  0  0  0
   -2.5903    3.3715    2.2691 H   0  0  0  0  0  0  0  0  0  0  0  0
    0.4803    2.2564   -0.5753 N   0  0  0  0  0  0  0  0  0  0  0  0
   -0.3398    1.2381   -1.2415 C   0  0  2  0  0  0  0  0  0  0  0  0
   -1.7549    0.8263   -0.7527 C   0  0  0  0  0  0  0  0  0  0  0  0
   -2.7221    1.3470   -1.2810 O   0  0  0  0  0  0  0  0  0  0  0  0
    0.6824    0.1093   -1.4305 C   0  0  0  0  0  0  0  0  0  0  0  0
    2.0125    0.8769   -1.3779 C   0  0  0  0  0  0  0  0  0  0  0  0
    1.6229    2.3320   -1.5362 C   0  0  0  0  0  0  0  0  0  0  0  0
   -0.5710    1.6286   -2.2406 H   0  0  0  0  0  0  0  0  0  0  0  0
    0.5376   -0.3719   -2.4033 H   0  0  0  0  0  0  0  0  0  0  0  0
    0.6458   -0.6638   -0.6650 H   0  0  0  0  0  0  0  0  0  0  0  0
    2.5083    0.7200   -0.4133 H   0  0  0  0  0  0  0  0  0  0  0  0
    2.6959    0.5579   -2.1710 H   0  0  0  0  0  0  0  0  0  0  0  0
    2.4308    3.0033   -1.2263 H   0  0  0  0  0  0  0  0  0  0  0  0
    1.3255    2.5989   -2.5571 H   0  0  0  0  0  0  0  0  0  0  0  0
   -2.1030    0.2867    0.4684 N   0  0  0  0  0  0  0  0  0  0  0  0
   -1.5578   -0.9797    0.9992 C   0  0  2  0  0  0  0  0  0  0  0  0
   -2.6299   -1.6927    1.8473 C   0  0  0  0  0  0  0  0  0  0  0  0
   -2.9739   -2.8314    1.5656 O   0  0  0  0  0  0  0  0  0  0  0  0
   -0.3063   -0.8056    1.8798 C   0  0  0  0  0  0  0  0  0  0  0  0
   -3.1056    0.4049    0.6139 H   0  0  0  0  0  0  0  0  0  0  0  0
   -1.3105   -1.6380    0.1592 H   0  0  0  0  0  0  0  0  0  0  0  0
    0.4407   -0.1646    1.4086 H   0  0  0  0  0  0  0  0  0  0  0  0
   -0.5649   -0.3632    2.8452 H   0  0  0  0  0  0  0  0  0  0  0  0
    0.1496   -1.7824    2.0704 H   0  0  0  0  0  0  0  0  0  0  0  0
   -3.2249   -1.0291    2.9064 N   0  0  0  0  0  0  0  0  0  0  0  0
   -4.1969   -1.6570    3.7916 C   0  0  0  0  0  0  0  0  0  0  0  0
   -2.8151   -0.1362    3.1860 H   0  0  0  0  0  0  0  0  0  0  0  0
   -5.0662   -2.0032    3.2230 H   0  0  0  0  0  0  0  0  0  0  0  0
   -3.7489   -2.5129    4.3067 H   0  0  0  0  0  0  0  0  0  0  0  0
   -4.5409   -0.9402    4.5435 H   0  0  0  0  0  0  0  0  0  0  0  0
  1  2  2  0  0  0  0
  1  3  1  0  0  0  0
  1  7  1  0  0  0  0
  3  4  1  0  0  0  0
  3  5  1  0  0  0  0
  3  6  1  0  0  0  0
  7  8  1  0  0  0  0
  7 12  1  0  0  0  0
  8  9  1  0  0  0  0
  8 11  1  0  0  0  0
  8 13  1  0  0  0  0
  9 10  2  0  0  0  0
  9 17  1  0  0  0  0
 11 14  1  0  0  0  0
 11 15  1  0  0  0  0
 11 16  1  0  0  0  0
 17 18  1  0  0  0  0
 17 23  1  0  0  0  0
 18 19  1  0  0  0  0
 18 21  1  0  0  0  0
 18 24  1  0  0  0  0
 19 20  2  0  0  0  0
 19 31  1  0  0  0  0
 21 22  1  0  0  0  0
 21 25  1  0  0  0  0
 21 26  1  0  0  0  0
 22 23  1  0  0  0  0
 22 27  1  0  0  0  0
 22 28  1  0  0  0  0
 23 29  1  0  0  0  0
 23 30  1  0  0  0  0
 31 32  1  0  0  0  0
 31 36  1  0  0  0  0
 32 33  1  0  0  0  0
 32 35  1  0  0  0  0
 32 37  1  0  0  0  0
 33 34  2  0  0  0  0
 33 41  1  0  0  0  0
 35 38  1  0  0  0  0
 35 39  1  0  0  0  0
 35 40  1  0  0  0  0
 41 42  1  0  0  0  0
 41 43  1  0  0  0  0
 42 44  1  0  0  0  0
 42 45  1  0  0  0  0
 42 46  1  0  0  0  0
M  END
$$$$

  -OEChem-05262217223D

 46 46  0     1  0  0  0  0  0999 V2000
   -0.6556    2.4798    3.2328 C   0  0  0  0  0  0  0  0  0  0  0  0
   -0.3850    1.4394    2.6556 O   0  0  0  0  0  0  0  0  0  0  0  0
   -0.1850    2.6929    4.6586 C   0  0  0  0  0  0  0  0  0  0  0  0
   -1.0440    2.8349    5.3191 H   0  0  0  0  0  0  0  0  0  0  0  0
    0.3853    1.8259    5.0038 H   0  0  0  0  0  0  0  0  0  0  0  0
    0.4554    3.5770    4.7111 H   0  0  0  0  0  0  0  0  0  0  0  0
   -1.4113    3.4507    2.6148 N   0  0  0  0  0  0  0  0  0  0  0  0
   -1.7801    3.5027    1.1873 C   0  0  2  0  0  0  0  0  0  0  0  0
   -0.5763    3.6209    0.2047 C   0  0  0  0  0  0  0  0  0  0  0  0
   -0.1200    4.7615    0.2223 O   0  0  0  0  0  0  0  0  0  0  0  0
   -2.9393    2.5757    0.8167 C   0  0  0  0  0  0  0  0  0  0  0  0
   -1.5062    4.3195    3.1347 H   0  0  0  0  0  0  0  0  0  0  0  0
   -2.2472    4.4888    1.0809 H   0  0  0  0  0  0  0  0  0  0  0  0
   -3.8831    3.1285    0.8578 H   0  0  0  0  0  0  0  0  0  0  0  0
   -2.8276    2.1885   -0.2001 H   0  0  0  0  0  0  0  0  0  0  0  0
   -3.0264    1.7531    1.5256 H   0  0  0  0  0  0  0  0  0  0  0  0
    0.1432    2.7010   -0.5916 N   0  0  0  0  0  0  0  0  0  0  0  0
    0.1669    1.2570   -0.9102 C   0  0  2  0  0  0  0  0  0  0  0  0
   -0.8858    0.1570   -0.6426 C   0  0  0  0  0  0  0  0  0  0  0  0
   -1.1436   -0.6235   -1.5490 O   0  0  0  0  0  0  0  0  0  0  0  0
    1.4976    0.8570   -0.2573 C   0  0  0  0  0  0  0  0  0  0  0  0
    2.2686    2.1767   -0.2085 C   0  0  0  0  0  0  0  0  0  0  0  0
    1.4884    3.0708   -1.1433 C   0  0  0  0  0  0  0  0  0  0  0  0
    0.2671    1.1942   -2.0008 H   0  0  0  0  0  0  0  0  0  0  0  0
    2.0142    0.1070   -0.8656 H   0  0  0  0  0  0  0  0  0  0  0  0
    1.3591    0.4556    0.7522 H   0  0  0  0  0  0  0  0  0  0  0  0
    2.2701    2.5882    0.8074 H   0  0  0  0  0  0  0  0  0  0  0  0
    3.3054    2.0557   -0.5369 H   0  0  0  0  0  0  0  0  0  0  0  0
    1.7785    4.1196   -1.0241 H   0  0  0  0  0  0  0  0  0  0  0  0
    1.6188    2.8125   -2.2009 H   0  0  0  0  0  0  0  0  0  0  0  0
   -1.5459   -0.0034    0.5545 N   0  0  0  0  0  0  0  0  0  0  0  0
   -2.3825   -1.1698    0.8985 C   0  0  2  0  0  0  0  0  0  0  0  0
   -3.2051   -0.9626    2.1873 C   0  0  0  0  0  0  0  0  0  0  0  0
   -4.3549   -1.3730    2.2628 O   0  0  0  0  0  0  0  0  0  0  0  0
   -1.4909   -2.4062    1.0802 C   0  0  0  0  0  0  0  0  0  0  0  0
   -1.2082    0.5896    1.3142 H   0  0  0  0  0  0  0  0  0  0  0  0
   -3.0920   -1.3550    0.0841 H   0  0  0  0  0  0  0  0  0  0  0  0
   -0.7525   -2.2362    1.8697 H   0  0  0  0  0  0  0  0  0  0  0  0
   -2.1009   -3.2733    1.3532 H   0  0  0  0  0  0  0  0  0  0  0  0
   -0.9612   -2.6438    0.1531 H   0  0  0  0  0  0  0  0  0  0  0  0
   -2.6428   -0.3357    3.2848 N   0  0  0  0  0  0  0  0  0  0  0  0
   -3.3553   -0.1048    4.5339 C   0  0  0  0  0  0  0  0  0  0  0  0
   -1.6923    0.0207    3.1801 H   0  0  0  0  0  0  0  0  0  0  0  0
   -2.6928    0.3702    5.2635 H   0  0  0  0  0  0  0  0  0  0  0  0
   -4.2166    0.5506    4.3675 H   0  0  0  0  0  0  0  0  0  0  0  0
   -3.7087   -1.0524    4.9542 H   0  0  0  0  0  0  0  0  0  0  0  0
  1  2  2  0  0  0  0
  1  3  1  0  0  0  0
  1  7  1  0  0  0  0
  3  4  1  0  0  0  0
  3  5  1  0  0  0  0
  3  6  1  0  0  0  0
  7  8  1  0  0  0  0
  7 12  1  0  0  0  0
  8  9  1  0  0  0  0
  8 11  1  0  0  0  0
  8 13  1  0  0  0  0
  9 10  2  0  0  0  0
  9 17  1  0  0  0  0
 11 14  1  0  0  0  0
 11 15  1  0  0  0  0
 11 16  1  0  0  0  0
 17 18  1  0  0  0  0
 17 23  1  0  0  0  0
 18 19  1  0  0  0  0
 18 21  1  0  0  0  0
 18 24  1  0  0  0  0
 19 20  2  0  0  0  0
 19 31  1  0  0  0  0
 21 22  1  0  0  0  0
 21 25  1  0  0  0  0
 21 26  1  0  0  0  0
 22 23  1  0  0  0  0
 22 27  1  0  0  0  0
 22 28  1  0  0  0  0
 23 29  1  0  0  0  0
 23 30  1  0  0  0  0
 31 32  1  0  0  0  0
 31 36  1  0  0  0  0
 32 33  1  0  0  0  0
 32 35  1  0  0  0  0
 32 37  1  0  0  0  0
 33 34  2  0  0  0  0
 33 41  1  0  0  0  0
 35 38  1  0  0  0  0
 35 39  1  0  0  0  0
 35 40  1  0  0  0  0
 41 42  1  0  0  0  0
 41 43  1  0  0  0  0
 42 44  1  0  0  0  0
 42 45  1  0  0  0  0
 42 46  1  0  0  0  0
M  END
$$$$

  -OEChem-05262217223D

 46 46  0     1  0  0  0  0  0999 V2000
   -0.0314    1.1116    3.3348 C   0  0  0  0  0  0  0  0  0  0  0  0
    0.4241    0.0077    3.5658 O   0  0  0  0  0  0  0  0  0  0  0  0
   -0.8780    1.8188    4.3801 C   0  0  0  0  0  0  0  0  0  0  0  0
   -1.3435    1.0841    5.0422 H   0  0  0  0  0  0  0  0  0  0  0  0
   -0.2488    2.4807    4.9796 H   0  0  0  0  0  0  0  0  0  0  0  0
   -1.6657    2.4072    3.9093 H   0  0  0  0  0  0  0  0  0  0  0  0
    0.2653    1.5785    2.0734 N   0  0  0  0  0  0  0  0  0  0  0  0
   -0.1084    2.8576    1.4409 C   0  0  2  0  0  0  0  0  0  0  0  0
    0.4901    2.9167    0.0073 C   0  0  0  0  0  0  0  0  0  0  0  0
    1.3876    3.7301   -0.1885 O   0  0  0  0  0  0  0  0  0  0  0  0
    0.3836    4.0379    2.3071 C   0  0  0  0  0  0  0  0  0  0  0  0
    0.9416    0.9899    1.5893 H   0  0  0  0  0  0  0  0  0  0  0  0
   -1.1909    2.9597    1.3452 H   0  0  0  0  0  0  0  0  0  0  0  0
   -0.1645    4.1014    3.2482 H   0  0  0  0  0  0  0  0  0  0  0  0
    1.4508    3.9340    2.5283 H   0  0  0  0  0  0  0  0  0  0  0  0
    0.2301    4.9853    1.7798 H   0  0  0  0  0  0  0  0  0  0  0  0
    0.1874    2.0749   -1.0778 N   0  0  0  0  0  0  0  0  0  0  0  0
   -0.6920    0.9231   -1.3479 C   0  0  2  0  0  0  0  0  0  0  0  0
   -1.8911    0.3801   -0.5301 C   0  0  0  0  0  0  0  0  0  0  0  0
   -2.6338   -0.3977   -1.1149 O   0  0  0  0  0  0  0  0  0  0  0  0
    0.3721   -0.1732   -1.5057 C   0  0  0  0  0  0  0  0  0  0  0  0
    1.6323    0.6116   -1.8844 C   0  0  0  0  0  0  0  0  0  0  0  0
    1.0975    1.9733   -2.2617 C   0  0  0  0  0  0  0  0  0  0  0  0
   -1.1636    1.1192   -2.3185 H   0  0  0  0  0  0  0  0  0  0  0  0
    0.0827   -0.8804   -2.2903 H   0  0  0  0  0  0  0  0  0  0  0  0
    0.5281   -0.7279   -0.5740 H   0  0  0  0  0  0  0  0  0  0  0  0
    2.3174    0.6873   -1.0322 H   0  0  0  0  0  0  0  0  0  0  0  0
    2.1663    0.1443   -2.7178 H   0  0  0  0  0  0  0  0  0  0  0  0
    1.8950    2.7225   -2.3036 H   0  0  0  0  0  0  0  0  0  0  0  0
    0.5741    1.9849   -3.2249 H   0  0  0  0  0  0  0  0  0  0  0  0
   -2.2138    0.6903    0.7737 N   0  0  0  0  0  0  0  0  0  0  0  0
   -3.4855    0.3393    1.4308 C   0  0  2  0  0  0  0  0  0  0  0  0
   -4.1836    1.5635    2.0606 C   0  0  0  0  0  0  0  0  0  0  0  0
   -3.5690    2.6104    2.2327 O   0  0  0  0  0  0  0  0  0  0  0  0
   -3.1986   -0.7327    2.4848 C   0  0  0  0  0  0  0  0  0  0  0  0
   -1.5853    1.3133    1.2710 H   0  0  0  0  0  0  0  0  0  0  0  0
   -4.1887   -0.0758    0.7016 H   0  0  0  0  0  0  0  0  0  0  0  0
   -2.5505   -0.3403    3.2726 H   0  0  0  0  0  0  0  0  0  0  0  0
   -4.1304   -1.0780    2.9427 H   0  0  0  0  0  0  0  0  0  0  0  0
   -2.7019   -1.5921    2.0233 H   0  0  0  0  0  0  0  0  0  0  0  0
   -5.5115    1.4933    2.4384 N   0  0  0  0  0  0  0  0  0  0  0  0
   -6.2463    2.6207    2.9998 C   0  0  0  0  0  0  0  0  0  0  0  0
   -6.0098    0.6289    2.2461 H   0  0  0  0  0  0  0  0  0  0  0  0
   -5.7724    2.9657    3.9247 H   0  0  0  0  0  0  0  0  0  0  0  0
   -6.2755    3.4519    2.2873 H   0  0  0  0  0  0  0  0  0  0  0  0
   -7.2750    2.3258    3.2293 H   0  0  0  0  0  0  0  0  0  0  0  0
  1  2  2  0  0  0  0
  1  3  1  0  0  0  0
  1  7  1  0  0  0  0
  3  4  1  0  0  0  0
  3  5  1  0  0  0  0
  3  6  1  0  0  0  0
  7  8  1  0  0  0  0
  7 12  1  0  0  0  0
  8  9  1  0  0  0  0
  8 11  1  0  0  0  0
  8 13  1  0  0  0  0
  9 10  2  0  0  0  0
  9 17  1  0  0  0  0
 11 14  1  0  0  0  0
 11 15  1  0  0  0  0
 11 16  1  0  0  0  0
 17 18  1  0  0  0  0
 17 23  1  0  0  0  0
 18 19  1  0  0  0  0
 18 21  1  0  0  0  0
 18 24  1  0  0  0  0
 19 20  2  0  0  0  0
 19 31  1  0  0  0  0
 21 22  1  0  0  0  0
 21 25  1  0  0  0  0
 21 26  1  0  0  0  0
 22 23  1  0  0  0  0
 22 27  1  0  0  0  0
 22 28  1  0  0  0  0
 23 29  1  0  0  0  0
 23 30  1  0  0  0  0
 31 32  1  0  0  0  0
 31 36  1  0  0  0  0
 32 33  1  0  0  0  0
 32 35  1  0  0  0  0
 32 37  1  0  0  0  0
 33 34  2  0  0  0  0
 33 41  1  0  0  0  0
 35 38  1  0  0  0  0
 35 39  1  0  0  0  0
 35 40  1  0  0  0  0
 41 42  1  0  0  0  0
 41 43  1  0  0  0  0
 42 44  1  0  0  0  0
 42 45  1  0  0  0  0
 42 46  1  0  0  0  0
M  END
$$$$

  -OEChem-05262217223D

 46 46  0     1  0  0  0  0  0999 V2000
   -0.0985    1.5136    3.0509 C   0  0  0  0  0  0  0  0  0  0  0  0
   -0.6311    0.6546    2.3680 O   0  0  0  0  0  0  0  0  0  0  0  0
    0.7095    1.1270    4.2749 C   0  0  0  0  0  0  0  0  0  0  0  0
    0.2980    1.6141    5.1623 H   0  0  0  0  0  0  0  0  0  0  0  0
    0.6777    0.0436    4.4208 H   0  0  0  0  0  0  0  0  0  0  0  0
    1.7503    1.4348    4.1482 H   0  0  0  0  0  0  0  0  0  0  0  0
   -0.2036    2.8356    2.6823 N   0  0  0  0  0  0  0  0  0  0  0  0
   -0.8453    3.2967    1.4437 C   0  0  2  0  0  0  0  0  0  0  0  0
    0.1148    3.2128    0.2277 C   0  0  0  0  0  0  0  0  0  0  0  0
    0.9582    4.1065    0.1929 O   0  0  0  0  0  0  0  0  0  0  0  0
   -1.3199    4.7331    1.7042 C   0  0  0  0  0  0  0  0  0  0  0  0
    0.3634    3.5037    3.1968 H   0  0  0  0  0  0  0  0  0  0  0  0
   -1.7497    2.7483    1.2425 H   0  0  0  0  0  0  0  0  0  0  0  0
   -2.0613    4.7444    2.5095 H   0  0  0  0  0  0  0  0  0  0  0  0
   -0.4843    5.3799    1.9901 H   0  0  0  0  0  0  0  0  0  0  0  0
   -1.7854    5.1451    0.8035 H   0  0  0  0  0  0  0  0  0  0  0  0
    0.2301    2.2175   -0.7653 N   0  0  0  0  0  0  0  0  0  0  0  0
   -0.3988    0.9254   -1.1231 C   0  0  2  0  0  0  0  0  0  0  0  0
   -1.7203    0.2695   -0.6393 C   0  0  0  0  0  0  0  0  0  0  0  0
   -2.1179   -0.6914   -1.2888 O   0  0  0  0  0  0  0  0  0  0  0  0
    0.7763   -0.0167   -0.8164 C   0  0  0  0  0  0  0  0  0  0  0  0
    1.9998    0.8976   -0.9152 C   0  0  0  0  0  0  0  0  0  0  0  0
    1.4615    2.1242   -1.6119 C   0  0  0  0  0  0  0  0  0  0  0  0
   -0.5697    0.9628   -2.2054 H   0  0  0  0  0  0  0  0  0  0  0  0
    0.8180   -0.8317   -1.5465 H   0  0  0  0  0  0  0  0  0  0  0  0
    0.6994   -0.4498    0.1868 H   0  0  0  0  0  0  0  0  0  0  0  0
    2.3768    1.1525    0.0818 H   0  0  0  0  0  0  0  0  0  0  0  0
    2.8104    0.4332   -1.4849 H   0  0  0  0  0  0  0  0  0  0  0  0
    2.1528    2.9690   -1.5292 H   0  0  0  0  0  0  0  0  0  0  0  0
    1.2555    1.9642   -2.6766 H   0  0  0  0  0  0  0  0  0  0  0  0
   -2.5984    0.8057    0.2725 N   0  0  0  0  0  0  0  0  0  0  0  0
   -3.9281    0.2672    0.5852 C   0  0  2  0  0  0  0  0  0  0  0  0
   -4.8186    1.3150    1.2901 C   0  0  0  0  0  0  0  0  0  0  0  0
   -4.3253    2.2921    1.8452 O   0  0  0  0  0  0  0  0  0  0  0  0
   -3.7648   -0.9637    1.4856 C   0  0  0  0  0  0  0  0  0  0  0  0
   -2.1287    1.2576    1.0559 H   0  0  0  0  0  0  0  0  0  0  0  0
   -4.4295   -0.0243   -0.3434 H   0  0  0  0  0  0  0  0  0  0  0  0
   -3.2459   -0.6920    2.4107 H   0  0  0  0  0  0  0  0  0  0  0  0
   -4.7409   -1.3847    1.7434 H   0  0  0  0  0  0  0  0  0  0  0  0
   -3.1822   -1.7376    0.9765 H   0  0  0  0  0  0  0  0  0  0  0  0
   -6.1919    1.1517    1.3198 N   0  0  0  0  0  0  0  0  0  0  0  0
   -7.0954    2.0827    1.9852 C   0  0  0  0  0  0  0  0  0  0  0  0
   -6.5788    0.3380    0.8505 H   0  0  0  0  0  0  0  0  0  0  0  0
   -6.8694    2.1373    3.0555 H   0  0  0  0  0  0  0  0  0  0  0  0
   -6.9999    3.0843    1.5532 H   0  0  0  0  0  0  0  0  0  0  0  0
   -8.1322    1.7533    1.8675 H   0  0  0  0  0  0  0  0  0  0  0  0
  1  2  2  0  0  0  0
  1  3  1  0  0  0  0
  1  7  1  0  0  0  0
  3  4  1  0  0  0  0
  3  5  1  0  0  0  0
  3  6  1  0  0  0  0
  7  8  1  0  0  0  0
  7 12  1  0  0  0  0
  8  9  1  0  0  0  0
  8 11  1  0  0  0  0
  8 13  1  0  0  0  0
  9 10  2  0  0  0  0
  9 17  1  0  0  0  0
 11 14  1  0  0  0  0
 11 15  1  0  0  0  0
 11 16  1  0  0  0  0
 17 18  1  0  0  0  0
 17 23  1  0  0  0  0
 18 19  1  0  0  0  0
 18 21  1  0  0  0  0
 18 24  1  0  0  0  0
 19 20  2  0  0  0  0
 19 31  1  0  0  0  0
 21 22  1  0  0  0  0
 21 25  1  0  0  0  0
 21 26  1  0  0  0  0
 22 23  1  0  0  0  0
 22 27  1  0  0  0  0
 22 28  1  0  0  0  0
 23 29  1  0  0  0  0
 23 30  1  0  0  0  0
 31 32  1  0  0  0  0
 31 36  1  0  0  0  0
 32 33  1  0  0  0  0
 32 35  1  0  0  0  0
 32 37  1  0  0  0  0
 33 34  2  0  0  0  0
 33 41  1  0  0  0  0
 35 38  1  0  0  0  0
 35 39  1  0  0  0  0
 35 40  1  0  0  0  0
 41 42  1  0  0  0  0
 41 43  1  0  0  0  0
 42 44  1  0  0  0  0
 42 45  1  0  0  0  0
 42 46  1  0  0  0  0
M  END
$$$$

  -OEChem-05262217223D

 46 46  0     1  0  0  0  0  0999 V2000
   -0.5958    1.3023    3.4775 C   0  0  0  0  0  0  0  0  0  0  0  0
   -1.6626    0.9601    3.9652 O   0  0  0  0  0  0  0  0  0  0  0  0
    0.7035    0.7478    4.0285 C   0  0  0  0  0  0  0  0  0  0  0  0
    1.3639    1.5661    4.3255 H   0  0  0  0  0  0  0  0  0  0  0  0
    0.5068    0.1197    4.9019 H   0  0  0  0  0  0  0  0  0  0  0  0
    1.2019    0.1436    3.2656 H   0  0  0  0  0  0  0  0  0  0  0  0
   -0.5643    2.1566    2.3940 N   0  0  0  0  0  0  0  0  0  0  0  0
   -1.7527    2.7265    1.7360 C   0  0  2  0  0  0  0  0  0  0  0  0
   -1.4643    3.0509    0.2438 C   0  0  0  0  0  0  0  0  0  0  0  0
   -1.5428    4.2287   -0.0934 O   0  0  0  0  0  0  0  0  0  0  0  0
   -2.1737    3.9580    2.5561 C   0  0  0  0  0  0  0  0  0  0  0  0
    0.3518    2.4065    2.0313 H   0  0  0  0  0  0  0  0  0  0  0  0
   -2.5877    2.0359    1.7736 H   0  0  0  0  0  0  0  0  0  0  0  0
   -2.4096    3.6698    3.5851 H   0  0  0  0  0  0  0  0  0  0  0  0
   -1.3698    4.7009    2.5782 H   0  0  0  0  0  0  0  0  0  0  0  0
   -3.0634    4.4211    2.1183 H   0  0  0  0  0  0  0  0  0  0  0  0
   -1.0566    2.1522   -0.7565 N   0  0  0  0  0  0  0  0  0  0  0  0
   -0.7692    0.7111   -0.8303 C   0  0  2  0  0  0  0  0  0  0  0  0
   -1.1620   -0.3799    0.2062 C   0  0  0  0  0  0  0  0  0  0  0  0
   -0.3476   -1.2412    0.5024 O   0  0  0  0  0  0  0  0  0  0  0  0
    0.7461    0.7893   -1.0943 C   0  0  0  0  0  0  0  0  0  0  0  0
    0.9289    2.1879   -1.6973 C   0  0  0  0  0  0  0  0  0  0  0  0
   -0.4778    2.6058   -2.0556 C   0  0  0  0  0  0  0  0  0  0  0  0
   -1.2655    0.3330   -1.7311 H   0  0  0  0  0  0  0  0  0  0  0  0
    1.0574    0.0017   -1.7883 H   0  0  0  0  0  0  0  0  0  0  0  0
    1.3282    0.6936   -0.1716 H   0  0  0  0  0  0  0  0  0  0  0  0
    1.3624    2.8767   -0.9638 H   0  0  0  0  0  0  0  0  0  0  0  0
    1.5777    2.1677   -2.5785 H   0  0  0  0  0  0  0  0  0  0  0  0
   -0.5491    3.6825   -2.2412 H   0  0  0  0  0  0  0  0  0  0  0  0
   -0.8838    2.0803   -2.9280 H   0  0  0  0  0  0  0  0  0  0  0  0
   -2.0889   -0.2530    1.2080 N   0  0  0  0  0  0  0  0  0  0  0  0
   -3.5091   -0.4272    0.8572 C   0  0  2  0  0  0  0  0  0  0  0  0
   -4.0607    0.5883   -0.1731 C   0  0  0  0  0  0  0  0  0  0  0  0
   -3.8810    0.3781   -1.3646 O   0  0  0  0  0  0  0  0  0  0  0  0
   -4.3056   -0.4039    2.1679 C   0  0  0  0  0  0  0  0  0  0  0  0
   -1.8002   -0.7931    2.0215 H   0  0  0  0  0  0  0  0  0  0  0  0
   -3.6361   -1.4198    0.4099 H   0  0  0  0  0  0  0  0  0  0  0  0
   -5.3713   -0.5561    1.9696 H   0  0  0  0  0  0  0  0  0  0  0  0
   -3.9623   -1.2035    2.8320 H   0  0  0  0  0  0  0  0  0  0  0  0
   -4.1784    0.5491    2.6904 H   0  0  0  0  0  0  0  0  0  0  0  0
   -4.6853    1.7603    0.2151 N   0  0  0  0  0  0  0  0  0  0  0  0
   -5.0580    2.8157   -0.7198 C   0  0  0  0  0  0  0  0  0  0  0  0
   -4.7849    1.9297    1.2118 H   0  0  0  0  0  0  0  0  0  0  0  0
   -4.1730    3.1998   -1.2386 H   0  0  0  0  0  0  0  0  0  0  0  0
   -5.7659    2.4366   -1.4643 H   0  0  0  0  0  0  0  0  0  0  0  0
   -5.5305    3.6451   -0.1851 H   0  0  0  0  0  0  0  0  0  0  0  0
  1  2  2  0  0  0  0
  1  3  1  0  0  0  0
  1  7  1  0  0  0  0
  3  4  1  0  0  0  0
  3  5  1  0  0  0  0
  3  6  1  0  0  0  0
  7  8  1  0  0  0  0
  7 12  1  0  0  0  0
  8  9  1  0  0  0  0
  8 11  1  0  0  0  0
  8 13  1  0  0  0  0
  9 10  2  0  0  0  0
  9 17  1  0  0  0  0
 11 14  1  0  0  0  0
 11 15  1  0  0  0  0
 11 16  1  0  0  0  0
 17 18  1  0  0  0  0
 17 23  1  0  0  0  0
 18 19  1  0  0  0  0
 18 21  1  0  0  0  0
 18 24  1  0  0  0  0
 19 20  2  0  0  0  0
 19 31  1  0  0  0  0
 21 22  1  0  0  0  0
 21 25  1  0  0  0  0
 21 26  1  0  0  0  0
 22 23  1  0  0  0  0
 22 27  1  0  0  0  0
 22 28  1  0  0  0  0
 23 29  1  0  0  0  0
 23 30  1  0  0  0  0
 31 32  1  0  0  0  0
 31 36  1  0  0  0  0
 32 33  1  0  0  0  0
 32 35  1  0  0  0  0
 32 37  1  0  0  0  0
 33 34  2  0  0  0  0
 33 41  1  0  0  0  0
 35 38  1  0  0  0  0
 35 39  1  0  0  0  0
 35 40  1  0  0  0  0
 41 42  1  0  0  0  0
 41 43  1  0  0  0  0
 42 44  1  0  0  0  0
 42 45  1  0  0  0  0
 42 46  1  0  0  0  0
M  END
$$$$

  -OEChem-05262217223D

 46 46  0     1  0  0  0  0  0999 V2000
   -0.5787   -0.3806    4.0643 C   0  0  0  0  0  0  0  0  0  0  0  0
   -1.5099   -1.0582    3.6583 O   0  0  0  0  0  0  0  0  0  0  0  0
    0.3230   -0.9062    5.1649 C   0  0  0  0  0  0  0  0  0  0  0  0
    0.2887   -0.2358    6.0272 H   0  0  0  0  0  0  0  0  0  0  0  0
   -0.0063   -1.9007    5.4787 H   0  0  0  0  0  0  0  0  0  0  0  0
    1.3522   -0.9733    4.8042 H   0  0  0  0  0  0  0  0  0  0  0  0
   -0.3469    0.8667    3.5244 N   0  0  0  0  0  0  0  0  0  0  0  0
   -1.1295    1.4639    2.4338 C   0  0  2  0  0  0  0  0  0  0  0  0
   -0.2486    2.3743    1.5453 C   0  0  0  0  0  0  0  0  0  0  0  0
    0.5914    3.0449    2.1415 O   0  0  0  0  0  0  0  0  0  0  0  0
   -2.2616    2.2581    3.0956 C   0  0  0  0  0  0  0  0  0  0  0  0
    0.4589    1.3919    3.8608 H   0  0  0  0  0  0  0  0  0  0  0  0
   -1.5225    0.6569    1.8182 H   0  0  0  0  0  0  0  0  0  0  0  0
   -1.8535    2.9735    3.8169 H   0  0  0  0  0  0  0  0  0  0  0  0
   -2.8350    2.8165    2.3555 H   0  0  0  0  0  0  0  0  0  0  0  0
   -2.9402    1.5797    3.6224 H   0  0  0  0  0  0  0  0  0  0  0  0
   -0.2329    2.4420    0.1426 N   0  0  0  0  0  0  0  0  0  0  0  0
   -0.9583    1.7630   -0.9372 C   0  0  2  0  0  0  0  0  0  0  0  0
   -2.2609    0.9384   -0.7581 C   0  0  0  0  0  0  0  0  0  0  0  0
   -2.4452   -0.1029   -1.3679 O   0  0  0  0  0  0  0  0  0  0  0  0
    0.2024    0.9191   -1.4974 C   0  0  0  0  0  0  0  0  0  0  0  0
    1.4518    1.6863   -1.0455 C   0  0  0  0  0  0  0  0  0  0  0  0
    0.9076    3.0290   -0.6204 C   0  0  0  0  0  0  0  0  0  0  0  0
   -1.2412    2.5165   -1.6789 H   0  0  0  0  0  0  0  0  0  0  0  0
    0.1389    0.8479   -2.5881 H   0  0  0  0  0  0  0  0  0  0  0  0
    0.2106   -0.0941   -1.0804 H   0  0  0  0  0  0  0  0  0  0  0  0
    1.9360    1.1801   -0.2024 H   0  0  0  0  0  0  0  0  0  0  0  0
    2.1822    1.7856   -1.8544 H   0  0  0  0  0  0  0  0  0  0  0  0
    1.6260    3.5888   -0.0120 H   0  0  0  0  0  0  0  0  0  0  0  0
    0.5994    3.6616   -1.4608 H   0  0  0  0  0  0  0  0  0  0  0  0
   -3.2394    1.1449    0.1851 N   0  0  0  0  0  0  0  0  0  0  0  0
   -4.2425    2.2175    0.0110 C   0  0  2  0  0  0  0  0  0  0  0  0
   -5.3730    1.8397   -0.9782 C   0  0  0  0  0  0  0  0  0  0  0  0
   -6.3786    2.5327   -1.0343 O   0  0  0  0  0  0  0  0  0  0  0  0
   -3.6234    3.5639   -0.3991 C   0  0  0  0  0  0  0  0  0  0  0  0
   -3.6661    0.2488    0.4200 H   0  0  0  0  0  0  0  0  0  0  0  0
   -4.7240    2.3637    0.9832 H   0  0  0  0  0  0  0  0  0  0  0  0
   -3.2871    3.5395   -1.4396 H   0  0  0  0  0  0  0  0  0  0  0  0
   -4.3707    4.3589   -0.3076 H   0  0  0  0  0  0  0  0  0  0  0  0
   -2.7763    3.8196    0.2429 H   0  0  0  0  0  0  0  0  0  0  0  0
   -5.2584    0.7481   -1.8207 N   0  0  0  0  0  0  0  0  0  0  0  0
   -6.2810    0.3610   -2.7837 C   0  0  0  0  0  0  0  0  0  0  0  0
   -4.3821    0.2215   -1.7925 H   0  0  0  0  0  0  0  0  0  0  0  0
   -7.2207    0.1285   -2.2716 H   0  0  0  0  0  0  0  0  0  0  0  0
   -6.4600    1.1693   -3.5004 H   0  0  0  0  0  0  0  0  0  0  0  0
   -5.9604   -0.5273   -3.3367 H   0  0  0  0  0  0  0  0  0  0  0  0
  1  2  2  0  0  0  0
  1  3  1  0  0  0  0
  1  7  1  0  0  0  0
  3  4  1  0  0  0  0
  3  5  1  0  0  0  0
  3  6  1  0  0  0  0
  7  8  1  0  0  0  0
  7 12  1  0  0  0  0
  8  9  1  0  0  0  0
  8 11  1  0  0  0  0
  8 13  1  0  0  0  0
  9 10  2  0  0  0  0
  9 17  1  0  0  0  0
 11 14  1  0  0  0  0
 11 15  1  0  0  0  0
 11 16  1  0  0  0  0
 17 18  1  0  0  0  0
 17 23  1  0  0  0  0
 18 19  1  0  0  0  0
 18 21  1  0  0  0  0
 18 24  1  0  0  0  0
 19 20  2  0  0  0  0
 19 31  1  0  0  0  0
 21 22  1  0  0  0  0
 21 25  1  0  0  0  0
 21 26  1  0  0  0  0
 22 23  1  0  0  0  0
 22 27  1  0  0  0  0
 22 28  1  0  0  0  0
 23 29  1  0  0  0  0
 23 30  1  0  0  0  0
 31 32  1  0  0  0  0
 31 36  1  0  0  0  0
 32 33  1  0  0  0  0
 32 35  1  0  0  0  0
 32 37  1  0  0  0  0
 33 34  2  0  0  0  0
 33 41  1  0  0  0  0
 35 38  1  0  0  0  0
 35 39  1  0  0  0  0
 35 40  1  0  0  0  0
 41 42  1  0  0  0  0
 41 43  1  0  0  0  0
 42 44  1  0  0  0  0
 42 45  1  0  0  0  0
 42 46  1  0  0  0  0
M  END
$$$$

  -OEChem-05262217223D

 46 46  0     1  0  0  0  0  0999 V2000
   -0.1181    0.6171    4.1210 C   0  0  0  0  0  0  0  0  0  0  0  0
   -0.9280   -0.2955    4.0802 O   0  0  0  0  0  0  0  0  0  0  0  0
    1.0161    0.5825    5.1280 C   0  0  0  0  0  0  0  0  0  0  0  0
    0.9420    1.4383    5.8034 H   0  0  0  0  0  0  0  0  0  0  0  0
    0.9688   -0.3375    5.7176 H   0  0  0  0  0  0  0  0  0  0  0  0
    1.9770    0.6187    4.6089 H   0  0  0  0  0  0  0  0  0  0  0  0
   -0.2362    1.6879    3.2603 N   0  0  0  0  0  0  0  0  0  0  0  0
   -1.2485    1.8084    2.2010 C   0  0  2  0  0  0  0  0  0  0  0  0
   -0.6880    2.6772    1.0396 C   0  0  0  0  0  0  0  0  0  0  0  0
   -0.0615    3.6775    1.3848 O   0  0  0  0  0  0  0  0  0  0  0  0
   -2.4917    2.4161    2.8656 C   0  0  0  0  0  0  0  0  0  0  0  0
    0.4612    2.4282    3.3207 H   0  0  0  0  0  0  0  0  0  0  0  0
   -1.4671    0.8076    1.8299 H   0  0  0  0  0  0  0  0  0  0  0  0
   -2.3050    3.4574    3.1465 H   0  0  0  0  0  0  0  0  0  0  0  0
   -3.3528    2.3812    2.2014 H   0  0  0  0  0  0  0  0  0  0  0  0
   -2.7524    1.8550    3.7683 H   0  0  0  0  0  0  0  0  0  0  0  0
   -0.7172    2.4068   -0.3392 N   0  0  0  0  0  0  0  0  0  0  0  0
   -1.2426    1.3064   -1.1501 C   0  0  2  0  0  0  0  0  0  0  0  0
   -2.2466    0.2816   -0.5762 C   0  0  0  0  0  0  0  0  0  0  0  0
   -1.9720   -0.8999   -0.4524 O   0  0  0  0  0  0  0  0  0  0  0  0
    0.0934    0.6922   -1.6100 C   0  0  0  0  0  0  0  0  0  0  0  0
    1.0784    1.8619   -1.4763 C   0  0  0  0  0  0  0  0  0  0  0  0
    0.1827    3.0694   -1.3255 C   0  0  0  0  0  0  0  0  0  0  0  0
   -1.7552    1.7132   -2.0280 H   0  0  0  0  0  0  0  0  0  0  0  0
    0.0196    0.3336   -2.6419 H   0  0  0  0  0  0  0  0  0  0  0  0
    0.4121   -0.1391   -0.9719 H   0  0  0  0  0  0  0  0  0  0  0  0
    1.7122    1.7370   -0.5908 H   0  0  0  0  0  0  0  0  0  0  0  0
    1.7254    1.9488   -2.3545 H   0  0  0  0  0  0  0  0  0  0  0  0
    0.7242    3.9383   -0.9364 H   0  0  0  0  0  0  0  0  0  0  0  0
   -0.3203    3.3603   -2.2551 H   0  0  0  0  0  0  0  0  0  0  0  0
   -3.3479    0.6312    0.1747 N   0  0  0  0  0  0  0  0  0  0  0  0
   -4.4250    1.4515   -0.4203 C   0  0  2  0  0  0  0  0  0  0  0  0
   -4.9224    0.8400   -1.7555 C   0  0  0  0  0  0  0  0  0  0  0  0
   -4.5570    1.2995   -2.8299 O   0  0  0  0  0  0  0  0  0  0  0  0
   -4.0616    2.9422   -0.5889 C   0  0  0  0  0  0  0  0  0  0  0  0
   -3.6597   -0.1786    0.7075 H   0  0  0  0  0  0  0  0  0  0  0  0
   -5.2705    1.4213    0.2735 H   0  0  0  0  0  0  0  0  0  0  0  0
   -3.3078    3.0945   -1.3636 H   0  0  0  0  0  0  0  0  0  0  0  0
   -4.9531    3.5047   -0.8835 H   0  0  0  0  0  0  0  0  0  0  0  0
   -3.6858    3.3725    0.3396 H   0  0  0  0  0  0  0  0  0  0  0  0
   -5.7210   -0.2887   -1.7444 N   0  0  0  0  0  0  0  0  0  0  0  0
   -6.1011   -1.0038   -2.9575 C   0  0  0  0  0  0  0  0  0  0  0  0
   -5.8988   -0.7285   -0.8466 H   0  0  0  0  0  0  0  0  0  0  0  0
   -6.6217   -0.3349   -3.6511 H   0  0  0  0  0  0  0  0  0  0  0  0
   -5.2146   -1.4090   -3.4569 H   0  0  0  0  0  0  0  0  0  0  0  0
   -6.7710   -1.8337   -2.7131 H   0  0  0  0  0  0  0  0  0  0  0  0
  1  2  2  0  0  0  0
  1  3  1  0  0  0  0
  1  7  1  0  0  0  0
  3  4  1  0  0  0  0
  3  5  1  0  0  0  0
  3  6  1  0  0  0  0
  7  8  1  0  0  0  0
  7 12  1  0  0  0  0
  8  9  1  0  0  0  0
  8 11  1  0  0  0  0
  8 13  1  0  0  0  0
  9 10  2  0  0  0  0
  9 17  1  0  0  0  0
 11 14  1  0  0  0  0
 11 15  1  0  0  0  0
 11 16  1  0  0  0  0
 17 18  1  0  0  0  0
 17 23  1  0  0  0  0
 18 19  1  0  0  0  0
 18 21  1  0  0  0  0
 18 24  1  0  0  0  0
 19 20  2  0  0  0  0
 19 31  1  0  0  0  0
 21 22  1  0  0  0  0
 21 25  1  0  0  0  0
 21 26  1  0  0  0  0
 22 23  1  0  0  0  0
 22 27  1  0  0  0  0
 22 28  1  0  0  0  0
 23 29  1  0  0  0  0
 23 30  1  0  0  0  0
 31 32  1  0  0  0  0
 31 36  1  0  0  0  0
 32 33  1  0  0  0  0
 32 35  1  0  0  0  0
 32 37  1  0  0  0  0
 33 34  2  0  0  0  0
 33 41  1  0  0  0  0
 35 38  1  0  0  0  0
 35 39  1  0  0  0  0
 35 40  1  0  0  0  0
 41 42  1  0  0  0  0
 41 43  1  0  0  0  0
 42 44  1  0  0  0  0
 42 45  1  0  0  0  0
 42 46  1  0  0  0  0
M  END
$$$$

  -OEChem-05262217223D

 46 46  0     1  0  0  0  0  0999 V2000
   -0.2116    0.7739    4.2143 C   0  0  0  0  0  0  0  0  0  0  0  0
   -0.8545   -0.2633    4.1927 O   0  0  0  0  0  0  0  0  0  0  0  0
    0.8094    1.0110    5.3118 C   0  0  0  0  0  0  0  0  0  0  0  0
    0.5462    1.9063    5.8805 H   0  0  0  0  0  0  0  0  0  0  0  0
    0.8349    0.1556    5.9928 H   0  0  0  0  0  0  0  0  0  0  0  0
    1.8027    1.1436    4.8759 H   0  0  0  0  0  0  0  0  0  0  0  0
   -0.4249    1.7450    3.2588 N   0  0  0  0  0  0  0  0  0  0  0  0
   -1.3469    1.6241    2.1196 C   0  0  2  0  0  0  0  0  0  0  0  0
   -0.8713    2.5478    0.9625 C   0  0  0  0  0  0  0  0  0  0  0  0
   -0.4268    3.6429    1.3031 O   0  0  0  0  0  0  0  0  0  0  0  0
   -2.7390    2.0046    2.6409 C   0  0  0  0  0  0  0  0  0  0  0  0
    0.1378    2.5930    3.3079 H   0  0  0  0  0  0  0  0  0  0  0  0
   -1.3447    0.5866    1.7845 H   0  0  0  0  0  0  0  0  0  0  0  0
   -2.9812    1.4245    3.5369 H   0  0  0  0  0  0  0  0  0  0  0  0
   -3.5070    1.7964    1.8980 H   0  0  0  0  0  0  0  0  0  0  0  0
   -2.7746    3.0684    2.8963 H   0  0  0  0  0  0  0  0  0  0  0  0
   -0.8012    2.2491   -0.4075 N   0  0  0  0  0  0  0  0  0  0  0  0
   -1.1238    1.0616   -1.1968 C   0  0  2  0  0  0  0  0  0  0  0  0
   -1.9843   -0.0679   -0.5894 C   0  0  0  0  0  0  0  0  0  0  0  0
   -1.5001   -1.1204   -0.2074 O   0  0  0  0  0  0  0  0  0  0  0  0
    0.3062    0.6350   -1.5800 C   0  0  0  0  0  0  0  0  0  0  0  0
    1.1039    1.9403   -1.4490 C   0  0  0  0  0  0  0  0  0  0  0  0
    0.0371    3.0079   -1.3780 C   0  0  0  0  0  0  0  0  0  0  0  0
   -1.6450    1.3542   -2.1117 H   0  0  0  0  0  0  0  0  0  0  0  0
    0.3296    0.2407   -2.6009 H   0  0  0  0  0  0  0  0  0  0  0  0
    0.7160   -0.1218   -0.9026 H   0  0  0  0  0  0  0  0  0  0  0  0
    1.7078    1.9365   -0.5343 H   0  0  0  0  0  0  0  0  0  0  0  0
    1.7705    2.0947   -2.3029 H   0  0  0  0  0  0  0  0  0  0  0  0
    0.4278    3.9569   -0.9958 H   0  0  0  0  0  0  0  0  0  0  0  0
   -0.4592    3.1951   -2.3374 H   0  0  0  0  0  0  0  0  0  0  0  0
   -3.2763    0.0969   -0.1334 N   0  0  0  0  0  0  0  0  0  0  0  0
   -4.3436    0.8038   -0.8751 C   0  0  2  0  0  0  0  0  0  0  0  0
   -4.5820    0.2140   -2.2870 C   0  0  0  0  0  0  0  0  0  0  0  0
   -3.7273    0.3226   -3.1567 O   0  0  0  0  0  0  0  0  0  0  0  0
   -4.1540    2.3293   -0.9680 C   0  0  0  0  0  0  0  0  0  0  0  0
   -3.5633   -0.7327    0.3828 H   0  0  0  0  0  0  0  0  0  0  0  0
   -5.2637    0.6467   -0.3045 H   0  0  0  0  0  0  0  0  0  0  0  0
   -3.3547    2.5999   -1.6603 H   0  0  0  0  0  0  0  0  0  0  0  0
   -3.9251    2.7623    0.0068 H   0  0  0  0  0  0  0  0  0  0  0  0
   -5.0754    2.7914   -1.3350 H   0  0  0  0  0  0  0  0  0  0  0  0
   -5.7771   -0.4094   -2.5960 N   0  0  0  0  0  0  0  0  0  0  0  0
   -6.0508   -1.0070   -3.8981 C   0  0  0  0  0  0  0  0  0  0  0  0
   -6.4614   -0.5202   -1.8539 H   0  0  0  0  0  0  0  0  0  0  0  0
   -5.9940   -0.2502   -4.6878 H   0  0  0  0  0  0  0  0  0  0  0  0
   -5.3265   -1.7989   -4.1166 H   0  0  0  0  0  0  0  0  0  0  0  0
   -7.0541   -1.4434   -3.9110 H   0  0  0  0  0  0  0  0  0  0  0  0
  1  2  2  0  0  0  0
  1  3  1  0  0  0  0
  1  7  1  0  0  0  0
  3  4  1  0  0  0  0
  3  5  1  0  0  0  0
  3  6  1  0  0  0  0
  7  8  1  0  0  0  0
  7 12  1  0  0  0  0
  8  9  1  0  0  0  0
  8 11  1  0  0  0  0
  8 13  1  0  0  0  0
  9 10  2  0  0  0  0
  9 17  1  0  0  0  0
 11 14  1  0  0  0  0
 11 15  1  0  0  0  0
 11 16  1  0  0  0  0
 17 18  1  0  0  0  0
 17 23  1  0  0  0  0
 18 19  1  0  0  0  0
 18 21  1  0  0  0  0
 18 24  1  0  0  0  0
 19 20  2  0  0  0  0
 19 31  1  0  0  0  0
 21 22  1  0  0  0  0
 21 25  1  0  0  0  0
 21 26  1  0  0  0  0
 22 23  1  0  0  0  0
 22 27  1  0  0  0  0
 22 28  1  0  0  0  0
 23 29  1  0  0  0  0
 23 30  1  0  0  0  0
 31 32  1  0  0  0  0
 31 36  1  0  0  0  0
 32 33  1  0  0  0  0
 32 35  1  0  0  0  0
 32 37  1  0  0  0  0
 33 34  2  0  0  0  0
 33 41  1  0  0  0  0
 35 38  1  0  0  0  0
 35 39  1  0  0  0  0
 35 40  1  0  0  0  0
 41 42  1  0  0  0  0
 41 43  1  0  0  0  0
 42 44  1  0  0  0  0
 42 45  1  0  0  0  0
 42 46  1  0  0  0  0
M  END
$$$$

  -OEChem-05262217223D

 46 46  0     1  0  0  0  0  0999 V2000
   -0.5427    1.1897    4.2369 C   0  0  0  0  0  0  0  0  0  0  0  0
   -1.2656    0.2133    4.3533 O   0  0  0  0  0  0  0  0  0  0  0  0
    0.4344    1.5477    5.3407 C   0  0  0  0  0  0  0  0  0  0  0  0
    0.2269    2.5544    5.7111 H   0  0  0  0  0  0  0  0  0  0  0  0
    0.3418    0.8410    6.1700 H   0  0  0  0  0  0  0  0  0  0  0  0
    1.4575    1.5107    4.9591 H   0  0  0  0  0  0  0  0  0  0  0  0
   -0.6157    1.9780    3.1083 N   0  0  0  0  0  0  0  0  0  0  0  0
   -1.4776    1.7165    1.9465 C   0  0  2  0  0  0  0  0  0  0  0  0
   -0.8985    2.3975    0.6770 C   0  0  0  0  0  0  0  0  0  0  0  0
   -0.2776    3.4432    0.8572 O   0  0  0  0  0  0  0  0  0  0  0  0
   -2.8669    2.2625    2.2890 C   0  0  0  0  0  0  0  0  0  0  0  0
    0.0180    2.7735    3.0409 H   0  0  0  0  0  0  0  0  0  0  0  0
   -1.5247    0.6381    1.7870 H   0  0  0  0  0  0  0  0  0  0  0  0
   -2.8233    3.3445    2.4489 H   0  0  0  0  0  0  0  0  0  0  0  0
   -3.5706    2.0585    1.4846 H   0  0  0  0  0  0  0  0  0  0  0  0
   -3.2484    1.7908    3.1999 H   0  0  0  0  0  0  0  0  0  0  0  0
   -0.9208    1.9020   -0.6348 N   0  0  0  0  0  0  0  0  0  0  0  0
   -1.4469    0.6807   -1.2366 C   0  0  2  0  0  0  0  0  0  0  0  0
   -2.4466   -0.2075   -0.4588 C   0  0  0  0  0  0  0  0  0  0  0  0
   -2.1165   -1.2385    0.1004 O   0  0  0  0  0  0  0  0  0  0  0  0
   -0.1149   -0.0126   -1.5796 C   0  0  0  0  0  0  0  0  0  0  0  0
    0.8742    1.1602   -1.6529 C   0  0  0  0  0  0  0  0  0  0  0  0
   -0.0148    2.3807   -1.7174 C   0  0  0  0  0  0  0  0  0  0  0  0
   -1.9546    0.9324   -2.1726 H   0  0  0  0  0  0  0  0  0  0  0  0
   -0.1894   -0.5453   -2.5332 H   0  0  0  0  0  0  0  0  0  0  0  0
    0.2024   -0.7207   -0.8066 H   0  0  0  0  0  0  0  0  0  0  0  0
    1.5074    1.1908   -0.7586 H   0  0  0  0  0  0  0  0  0  0  0  0
    1.5222    1.0903   -2.5319 H   0  0  0  0  0  0  0  0  0  0  0  0
    0.5297    3.3006   -1.4790 H   0  0  0  0  0  0  0  0  0  0  0  0
   -0.5133    2.5106   -2.6853 H   0  0  0  0  0  0  0  0  0  0  0  0
   -3.7801    0.0878   -0.2605 N   0  0  0  0  0  0  0  0  0  0  0  0
   -4.6456    0.7319   -1.2707 C   0  0  2  0  0  0  0  0  0  0  0  0
   -4.4972    0.1006   -2.6815 C   0  0  0  0  0  0  0  0  0  0  0  0
   -4.5183    0.7897   -3.6913 O   0  0  0  0  0  0  0  0  0  0  0  0
   -4.4766    2.2620   -1.2761 C   0  0  0  0  0  0  0  0  0  0  0  0
   -4.2215   -0.5858    0.3631 H   0  0  0  0  0  0  0  0  0  0  0  0
   -5.6812    0.5370   -0.9749 H   0  0  0  0  0  0  0  0  0  0  0  0
   -3.4625    2.5556   -1.5556 H   0  0  0  0  0  0  0  0  0  0  0  0
   -5.1689    2.7140   -1.9939 H   0  0  0  0  0  0  0  0  0  0  0  0
   -4.7048    2.6775   -0.2922 H   0  0  0  0  0  0  0  0  0  0  0  0
   -4.2577   -1.2560   -2.8104 N   0  0  0  0  0  0  0  0  0  0  0  0
   -4.0093   -1.9110   -4.0890 C   0  0  0  0  0  0  0  0  0  0  0  0
   -4.1456   -1.7944   -1.9541 H   0  0  0  0  0  0  0  0  0  0  0  0
   -4.8718   -1.7935   -4.7535 H   0  0  0  0  0  0  0  0  0  0  0  0
   -3.1274   -1.4812   -4.5758 H   0  0  0  0  0  0  0  0  0  0  0  0
   -3.8338   -2.9804   -3.9374 H   0  0  0  0  0  0  0  0  0  0  0  0
  1  2  2  0  0  0  0
  1  3  1  0  0  0  0
  1  7  1  0  0  0  0
  3  4  1  0  0  0  0
  3  5  1  0  0  0  0
  3  6  1  0  0  0  0
  7  8  1  0  0  0  0
  7 12  1  0  0  0  0
  8  9  1  0  0  0  0
  8 11  1  0  0  0  0
  8 13  1  0  0  0  0
  9 10  2  0  0  0  0
  9 17  1  0  0  0  0
 11 14  1  0  0  0  0
 11 15  1  0  0  0  0
 11 16  1  0  0  0  0
 17 18  1  0  0  0  0
 17 23  1  0  0  0  0
 18 19  1  0  0  0  0
 18 21  1  0  0  0  0
 18 24  1  0  0  0  0
 19 20  2  0  0  0  0
 19 31  1  0  0  0  0
 21 22  1  0  0  0  0
 21 25  1  0  0  0  0
 21 26  1  0  0  0  0
 22 23  1  0  0  0  0
 22 27  1  0  0  0  0
 22 28  1  0  0  0  0
 23 29  1  0  0  0  0
 23 30  1  0  0  0  0
 31 32  1  0  0  0  0
 31 36  1  0  0  0  0
 32 33  1  0  0  0  0
 32 35  1  0  0  0  0
 32 37  1  0  0  0  0
 33 34  2  0  0  0  0
 33 41  1  0  0  0  0
 35 38  1  0  0  0  0
 35 39  1  0  0  0  0
 35 40  1  0  0  0  0
 41 42  1  0  0  0  0
 41 43  1  0  0  0  0
 42 44  1  0  0  0  0
 42 45  1  0  0  0  0
 42 46  1  0  0  0  0
M  END
$$$$

  -OEChem-05262217223D

 46 46  0     1  0  0  0  0  0999 V2000
   -0.6919    1.8411    3.7784 C   0  0  0  0  0  0  0  0  0  0  0  0
   -0.9934    2.8337    4.4219 O   0  0  0  0  0  0  0  0  0  0  0  0
   -0.0907    0.6362    4.4768 C   0  0  0  0  0  0  0  0  0  0  0  0
   -0.0211    0.8178    5.5529 H   0  0  0  0  0  0  0  0  0  0  0  0
   -0.7170   -0.2431    4.3059 H   0  0  0  0  0  0  0  0  0  0  0  0
    0.9106    0.4407    4.0853 H   0  0  0  0  0  0  0  0  0  0  0  0
   -0.9188    1.7869    2.4197 N   0  0  0  0  0  0  0  0  0  0  0  0
   -1.5934    2.8345    1.6409 C   0  0  2  0  0  0  0  0  0  0  0  0
   -1.0990    2.9917    0.1771 C   0  0  0  0  0  0  0  0  0  0  0  0
   -0.8944    4.1459   -0.1823 O   0  0  0  0  0  0  0  0  0  0  0  0
   -3.1098    2.6606    1.7425 C   0  0  0  0  0  0  0  0  0  0  0  0
   -0.7563    0.8781    1.9833 H   0  0  0  0  0  0  0  0  0  0  0  0
   -1.3589    3.7949    2.1154 H   0  0  0  0  0  0  0  0  0  0  0  0
   -3.4327    2.8120    2.7773 H   0  0  0  0  0  0  0  0  0  0  0  0
   -3.6196    3.3964    1.1130 H   0  0  0  0  0  0  0  0  0  0  0  0
   -3.4136    1.6607    1.4375 H   0  0  0  0  0  0  0  0  0  0  0  0
   -0.8709    2.0051   -0.7990 N   0  0  0  0  0  0  0  0  0  0  0  0
   -0.9903    0.5475   -0.8568 C   0  0  2  0  0  0  0  0  0  0  0  0
   -1.7787   -0.2575    0.2041 C   0  0  0  0  0  0  0  0  0  0  0  0
   -1.2424   -0.6999    1.2102 O   0  0  0  0  0  0  0  0  0  0  0  0
    0.5022    0.1774   -0.9289 C   0  0  0  0  0  0  0  0  0  0  0  0
    1.1455    1.4546   -1.4844 C   0  0  0  0  0  0  0  0  0  0  0  0
   -0.0281    2.2510   -2.0064 C   0  0  0  0  0  0  0  0  0  0  0  0
   -1.4478    0.2765   -1.8102 H   0  0  0  0  0  0  0  0  0  0  0  0
    0.6539   -0.6801   -1.5929 H   0  0  0  0  0  0  0  0  0  0  0  0
    0.9273   -0.0600    0.0516 H   0  0  0  0  0  0  0  0  0  0  0  0
    1.6630    2.0057   -0.6907 H   0  0  0  0  0  0  0  0  0  0  0  0
    1.8660    1.2342   -2.2781 H   0  0  0  0  0  0  0  0  0  0  0  0
    0.2354    3.3002   -2.1758 H   0  0  0  0  0  0  0  0  0  0  0  0
   -0.4534    1.8482   -2.9329 H   0  0  0  0  0  0  0  0  0  0  0  0
   -3.1211   -0.5795    0.1442 N   0  0  0  0  0  0  0  0  0  0  0  0
   -4.0352   -0.4727   -1.0127 C   0  0  2  0  0  0  0  0  0  0  0  0
   -3.6418   -1.3246   -2.2484 C   0  0  0  0  0  0  0  0  0  0  0  0
   -2.5735   -1.9199   -2.2952 O   0  0  0  0  0  0  0  0  0  0  0  0
   -4.2866    0.9935   -1.4004 C   0  0  0  0  0  0  0  0  0  0  0  0
   -3.3837   -1.2246    0.8857 H   0  0  0  0  0  0  0  0  0  0  0  0
   -4.9958   -0.8750   -0.6765 H   0  0  0  0  0  0  0  0  0  0  0  0
   -3.3890    1.4649   -1.8066 H   0  0  0  0  0  0  0  0  0  0  0  0
   -5.0718    1.0571   -2.1596 H   0  0  0  0  0  0  0  0  0  0  0  0
   -4.6180    1.5653   -0.5299 H   0  0  0  0  0  0  0  0  0  0  0  0
   -4.5150   -1.4503   -3.3140 N   0  0  0  0  0  0  0  0  0  0  0  0
   -4.2309   -2.2647   -4.4905 C   0  0  0  0  0  0  0  0  0  0  0  0
   -5.4033   -0.9607   -3.2606 H   0  0  0  0  0  0  0  0  0  0  0  0
   -3.3368   -1.8969   -5.0053 H   0  0  0  0  0  0  0  0  0  0  0  0
   -4.0679   -3.3091   -4.2037 H   0  0  0  0  0  0  0  0  0  0  0  0
   -5.0722   -2.2266   -5.1894 H   0  0  0  0  0  0  0  0  0  0  0  0
  1  2  2  0  0  0  0
  1  3  1  0  0  0  0
  1  7  1  0  0  0  0
  3  4  1  0  0  0  0
  3  5  1  0  0  0  0
  3  6  1  0  0  0  0
  7  8  1  0  0  0  0
  7 12  1  0  0  0  0
  8  9  1  0  0  0  0
  8 11  1  0  0  0  0
  8 13  1  0  0  0  0
  9 10  2  0  0  0  0
  9 17  1  0  0  0  0
 11 14  1  0  0  0  0
 11 15  1  0  0  0  0
 11 16  1  0  0  0  0
 17 18  1  0  0  0  0
 17 23  1  0  0  0  0
 18 19  1  0  0  0  0
 18 21  1  0  0  0  0
 18 24  1  0  0  0  0
 19 20  2  0  0  0  0
 19 31  1  0  0  0  0
 21 22  1  0  0  0  0
 21 25  1  0  0  0  0
 21 26  1  0  0  0  0
 22 23  1  0  0  0  0
 22 27  1  0  0  0  0
 22 28  1  0  0  0  0
 23 29  1  0  0  0  0
 23 30  1  0  0  0  0
 31 32  1  0  0  0  0
 31 36  1  0  0  0  0
 32 33  1  0  0  0  0
 32 35  1  0  0  0  0
 32 37  1  0  0  0  0
 33 34  2  0  0  0  0
 33 41  1  0  0  0  0
 35 38  1  0  0  0  0
 35 39  1  0  0  0  0
 35 40  1  0  0  0  0
 41 42  1  0  0  0  0
 41 43  1  0  0  0  0
 42 44  1  0  0  0  0
 42 45  1  0  0  0  0
 42 46  1  0  0  0  0
M  END
$$$$

  -OEChem-05262217223D

 46 46  0     1  0  0  0  0  0999 V2000
   -0.8862    1.6103    3.2396 C   0  0  0  0  0  0  0  0  0  0  0  0
   -0.2551    2.5367    3.7198 O   0  0  0  0  0  0  0  0  0  0  0  0
   -0.7068    0.2073    3.7870 C   0  0  0  0  0  0  0  0  0  0  0  0
    0.0655    0.1994    4.5611 H   0  0  0  0  0  0  0  0  0  0  0  0
   -1.6460   -0.1450    4.2199 H   0  0  0  0  0  0  0  0  0  0  0  0
   -0.4080   -0.4713    2.9840 H   0  0  0  0  0  0  0  0  0  0  0  0
   -1.7391    1.8174    2.1767 N   0  0  0  0  0  0  0  0  0  0  0  0
   -1.8282    3.0823    1.4385 C   0  0  2  0  0  0  0  0  0  0  0  0
   -0.6792    3.3310    0.4273 C   0  0  0  0  0  0  0  0  0  0  0  0
   -0.2017    4.4598    0.4358 O   0  0  0  0  0  0  0  0  0  0  0  0
   -3.2043    3.1978    0.7778 C   0  0  0  0  0  0  0  0  0  0  0  0
   -2.0946    0.9694    1.7326 H   0  0  0  0  0  0  0  0  0  0  0  0
   -1.7692    3.8955    2.1719 H   0  0  0  0  0  0  0  0  0  0  0  0
   -3.9907    3.1023    1.5328 H   0  0  0  0  0  0  0  0  0  0  0  0
   -3.3052    4.1764    0.2975 H   0  0  0  0  0  0  0  0  0  0  0  0
   -3.3542    2.4258    0.0215 H   0  0  0  0  0  0  0  0  0  0  0  0
   -0.1639    2.4569   -0.5459 N   0  0  0  0  0  0  0  0  0  0  0  0
   -0.4526    1.0903   -0.9812 C   0  0  2  0  0  0  0  0  0  0  0  0
   -1.7524    0.3512   -0.5901 C   0  0  0  0  0  0  0  0  0  0  0  0
   -1.8469   -0.3092    0.4387 O   0  0  0  0  0  0  0  0  0  0  0  0
    0.8257    0.3951   -0.4778 C   0  0  0  0  0  0  0  0  0  0  0  0
    1.8319    1.5503   -0.3891 C   0  0  0  0  0  0  0  0  0  0  0  0
    1.1746    2.6631   -1.1727 C   0  0  0  0  0  0  0  0  0  0  0  0
   -0.4542    1.0725   -2.0771 H   0  0  0  0  0  0  0  0  0  0  0  0
    1.1502   -0.3773   -1.1821 H   0  0  0  0  0  0  0  0  0  0  0  0
    0.6952   -0.0623    0.5085 H   0  0  0  0  0  0  0  0  0  0  0  0
    1.9850    1.8529    0.6536 H   0  0  0  0  0  0  0  0  0  0  0  0
    2.8025    1.2780   -0.8151 H   0  0  0  0  0  0  0  0  0  0  0  0
    1.6337    3.6349   -0.9612 H   0  0  0  0  0  0  0  0  0  0  0  0
    1.1858    2.5027   -2.2569 H   0  0  0  0  0  0  0  0  0  0  0  0
   -2.7401    0.2043   -1.5469 N   0  0  0  0  0  0  0  0  0  0  0  0
   -3.7614   -0.8542   -1.5295 C   0  0  2  0  0  0  0  0  0  0  0  0
   -3.4936   -1.8994   -2.6341 C   0  0  0  0  0  0  0  0  0  0  0  0
   -2.8198   -1.5936   -3.6121 O   0  0  0  0  0  0  0  0  0  0  0  0
   -5.1227   -0.1870   -1.7362 C   0  0  0  0  0  0  0  0  0  0  0  0
   -2.5019    0.5583   -2.4727 H   0  0  0  0  0  0  0  0  0  0  0  0
   -3.7747   -1.3784   -0.5686 H   0  0  0  0  0  0  0  0  0  0  0  0
   -5.1506    0.3380   -2.6966 H   0  0  0  0  0  0  0  0  0  0  0  0
   -5.9217   -0.9349   -1.7258 H   0  0  0  0  0  0  0  0  0  0  0  0
   -5.3158    0.5363   -0.9376 H   0  0  0  0  0  0  0  0  0  0  0  0
   -4.0112   -3.1777   -2.5381 N   0  0  0  0  0  0  0  0  0  0  0  0
   -3.7625   -4.2159   -3.5313 C   0  0  0  0  0  0  0  0  0  0  0  0
   -4.5208   -3.4184   -1.6930 H   0  0  0  0  0  0  0  0  0  0  0  0
   -4.1315   -3.9035   -4.5140 H   0  0  0  0  0  0  0  0  0  0  0  0
   -2.6902   -4.4247   -3.6078 H   0  0  0  0  0  0  0  0  0  0  0  0
   -4.2753   -5.1402   -3.2486 H   0  0  0  0  0  0  0  0  0  0  0  0
  1  2  2  0  0  0  0
  1  3  1  0  0  0  0
  1  7  1  0  0  0  0
  3  4  1  0  0  0  0
  3  5  1  0  0  0  0
  3  6  1  0  0  0  0
  7  8  1  0  0  0  0
  7 12  1  0  0  0  0
  8  9  1  0  0  0  0
  8 11  1  0  0  0  0
  8 13  1  0  0  0  0
  9 10  2  0  0  0  0
  9 17  1  0  0  0  0
 11 14  1  0  0  0  0
 11 15  1  0  0  0  0
 11 16  1  0  0  0  0
 17 18  1  0  0  0  0
 17 23  1  0  0  0  0
 18 19  1  0  0  0  0
 18 21  1  0  0  0  0
 18 24  1  0  0  0  0
 19 20  2  0  0  0  0
 19 31  1  0  0  0  0
 21 22  1  0  0  0  0
 21 25  1  0  0  0  0
 21 26  1  0  0  0  0
 22 23  1  0  0  0  0
 22 27  1  0  0  0  0
 22 28  1  0  0  0  0
 23 29  1  0  0  0  0
 23 30  1  0  0  0  0
 31 32  1  0  0  0  0
 31 36  1  0  0  0  0
 32 33  1  0  0  0  0
 32 35  1  0  0  0  0
 32 37  1  0  0  0  0
 33 34  2  0  0  0  0
 33 41  1  0  0  0  0
 35 38  1  0  0  0  0
 35 39  1  0  0  0  0
 35 40  1  0  0  0  0
 41 42  1  0  0  0  0
 41 43  1  0  0  0  0
 42 44  1  0  0  0  0
 42 45  1  0  0  0  0
 42 46  1  0  0  0  0
M  END
$$$$

  -OEChem-05262217223D

 46 46  0     1  0  0  0  0  0999 V2000
   -0.9216    1.6953    3.2502 C   0  0  0  0  0  0  0  0  0  0  0  0
   -0.3659    2.6783    3.7102 O   0  0  0  0  0  0  0  0  0  0  0  0
   -0.6489    0.3252    3.8407 C   0  0  0  0  0  0  0  0  0  0  0  0
   -1.5712   -0.0954    4.2480 H   0  0  0  0  0  0  0  0  0  0  0  0
   -0.2637   -0.3435    3.0670 H   0  0  0  0  0  0  0  0  0  0  0  0
    0.0901    0.3999    4.6430 H   0  0  0  0  0  0  0  0  0  0  0  0
   -1.7666    1.8069    2.1673 N   0  0  0  0  0  0  0  0  0  0  0  0
   -1.9241    3.0295    1.3738 C   0  0  2  0  0  0  0  0  0  0  0  0
   -0.7679    3.3065    0.3787 C   0  0  0  0  0  0  0  0  0  0  0  0
   -0.3200    4.4476    0.3988 O   0  0  0  0  0  0  0  0  0  0  0  0
   -3.2897    3.0241    0.6797 C   0  0  0  0  0  0  0  0  0  0  0  0
   -2.0557    0.9233    1.7447 H   0  0  0  0  0  0  0  0  0  0  0  0
   -1.9371    3.8753    2.0714 H   0  0  0  0  0  0  0  0  0  0  0  0
   -4.0861    2.9145    1.4221 H   0  0  0  0  0  0  0  0  0  0  0  0
   -3.4421    3.9691    0.1488 H   0  0  0  0  0  0  0  0  0  0  0  0
   -3.3740    2.2080   -0.0397 H   0  0  0  0  0  0  0  0  0  0  0  0
   -0.2105    2.4516   -0.5897 N   0  0  0  0  0  0  0  0  0  0  0  0
   -0.4385    1.0781   -1.0467 C   0  0  2  0  0  0  0  0  0  0  0  0
   -1.7053    0.2581   -0.7067 C   0  0  0  0  0  0  0  0  0  0  0  0
   -1.8767   -0.2548    0.3925 O   0  0  0  0  0  0  0  0  0  0  0  0
    0.8496    0.4212   -0.5204 C   0  0  0  0  0  0  0  0  0  0  0  0
    1.8132    1.6083   -0.3945 C   0  0  0  0  0  0  0  0  0  0  0  0
    1.1364    2.7064   -1.1821 C   0  0  0  0  0  0  0  0  0  0  0  0
   -0.4117    1.0830   -2.1419 H   0  0  0  0  0  0  0  0  0  0  0  0
    1.2177   -0.3307   -1.2257 H   0  0  0  0  0  0  0  0  0  0  0  0
    0.7081   -0.0532    0.4565 H   0  0  0  0  0  0  0  0  0  0  0  0
    1.9302    1.9032    0.6553 H   0  0  0  0  0  0  0  0  0  0  0  0
    2.8024    1.3748   -0.8002 H   0  0  0  0  0  0  0  0  0  0  0  0
    1.5599    3.6901   -0.9520 H   0  0  0  0  0  0  0  0  0  0  0  0
    1.1799    2.5578   -2.2673 H   0  0  0  0  0  0  0  0  0  0  0  0
   -2.4966   -0.1897   -1.7494 N   0  0  0  0  0  0  0  0  0  0  0  0
   -3.4037   -1.3462   -1.6802 C   0  0  2  0  0  0  0  0  0  0  0  0
   -2.9152   -2.4938   -2.5903 C   0  0  0  0  0  0  0  0  0  0  0  0
   -2.1330   -2.2572   -3.5049 O   0  0  0  0  0  0  0  0  0  0  0  0
   -4.7916   -0.8707   -2.1143 C   0  0  0  0  0  0  0  0  0  0  0  0
   -2.1579    0.0375   -2.6833 H   0  0  0  0  0  0  0  0  0  0  0  0
   -3.4718   -1.7375   -0.6602 H   0  0  0  0  0  0  0  0  0  0  0  0
   -4.7639   -0.4965   -3.1429 H   0  0  0  0  0  0  0  0  0  0  0  0
   -5.5123   -1.6925   -2.0631 H   0  0  0  0  0  0  0  0  0  0  0  0
   -5.1382   -0.0654   -1.4591 H   0  0  0  0  0  0  0  0  0  0  0  0
   -3.3626   -3.7873   -2.3949 N   0  0  0  0  0  0  0  0  0  0  0  0
   -2.9263   -4.9161   -3.2085 C   0  0  0  0  0  0  0  0  0  0  0  0
   -3.9856   -3.9584   -1.6110 H   0  0  0  0  0  0  0  0  0  0  0  0
   -3.1874   -4.7554   -4.2599 H   0  0  0  0  0  0  0  0  0  0  0  0
   -1.8419   -5.0483   -3.1307 H   0  0  0  0  0  0  0  0  0  0  0  0
   -3.4115   -5.8367   -2.8699 H   0  0  0  0  0  0  0  0  0  0  0  0
  1  2  2  0  0  0  0
  1  3  1  0  0  0  0
  1  7  1  0  0  0  0
  3  4  1  0  0  0  0
  3  5  1  0  0  0  0
  3  6  1  0  0  0  0
  7  8  1  0  0  0  0
  7 12  1  0  0  0  0
  8  9  1  0  0  0  0
  8 11  1  0  0  0  0
  8 13  1  0  0  0  0
  9 10  2  0  0  0  0
  9 17  1  0  0  0  0
 11 14  1  0  0  0  0
 11 15  1  0  0  0  0
 11 16  1  0  0  0  0
 17 18  1  0  0  0  0
 17 23  1  0  0  0  0
 18 19  1  0  0  0  0
 18 21  1  0  0  0  0
 18 24  1  0  0  0  0
 19 20  2  0  0  0  0
 19 31  1  0  0  0  0
 21 22  1  0  0  0  0
 21 25  1  0  0  0  0
 21 26  1  0  0  0  0
 22 23  1  0  0  0  0
 22 27  1  0  0  0  0
 22 28  1  0  0  0  0
 23 29  1  0  0  0  0
 23 30  1  0  0  0  0
 31 32  1  0  0  0  0
 31 36  1  0  0  0  0
 32 33  1  0  0  0  0
 32 35  1  0  0  0  0
 32 37  1  0  0  0  0
 33 34  2  0  0  0  0
 33 41  1  0  0  0  0
 35 38  1  0  0  0  0
 35 39  1  0  0  0  0
 35 40  1  0  0  0  0
 41 42  1  0  0  0  0
 41 43  1  0  0  0  0
 42 44  1  0  0  0  0
 42 45  1  0  0  0  0
 42 46  1  0  0  0  0
M  END
$$$$

  -OEChem-05262217223D

 46 46  0     1  0  0  0  0  0999 V2000
   -0.9298    1.5599    3.2405 C   0  0  0  0  0  0  0  0  0  0  0  0
   -0.3438    2.5211    3.7091 O   0  0  0  0  0  0  0  0  0  0  0  0
   -0.6627    0.1704    3.7868 C   0  0  0  0  0  0  0  0  0  0  0  0
   -1.5729   -0.2330    4.2366 H   0  0  0  0  0  0  0  0  0  0  0  0
   -0.3402   -0.4906    2.9785 H   0  0  0  0  0  0  0  0  0  0  0  0
    0.1227    0.2077    4.5470 H   0  0  0  0  0  0  0  0  0  0  0  0
   -1.8049    1.7131    2.1873 N   0  0  0  0  0  0  0  0  0  0  0  0
   -1.9592    2.9549    1.4254 C   0  0  2  0  0  0  0  0  0  0  0  0
   -0.7994    3.2550    0.4428 C   0  0  0  0  0  0  0  0  0  0  0  0
   -0.3373    4.3886    0.5157 O   0  0  0  0  0  0  0  0  0  0  0  0
   -3.3181    2.9694    0.7195 C   0  0  0  0  0  0  0  0  0  0  0  0
   -2.1163    0.8477    1.7434 H   0  0  0  0  0  0  0  0  0  0  0  0
   -1.9765    3.7804    2.1471 H   0  0  0  0  0  0  0  0  0  0  0  0
   -4.1212    2.8157    1.4464 H   0  0  0  0  0  0  0  0  0  0  0  0
   -3.4746    3.9371    0.2323 H   0  0  0  0  0  0  0  0  0  0  0  0
   -3.3846    2.1885   -0.0397 H   0  0  0  0  0  0  0  0  0  0  0  0
   -0.2512    2.4400   -0.5659 N   0  0  0  0  0  0  0  0  0  0  0  0
   -0.4840    1.0932   -1.1019 C   0  0  2  0  0  0  0  0  0  0  0  0
   -1.7391    0.2249   -0.8437 C   0  0  0  0  0  0  0  0  0  0  0  0
   -2.0410   -0.1816    0.2705 O   0  0  0  0  0  0  0  0  0  0  0  0
    0.7901    0.3951   -0.6009 C   0  0  0  0  0  0  0  0  0  0  0  0
    1.7633    1.5625   -0.3978 C   0  0  0  0  0  0  0  0  0  0  0  0
    1.1061    2.7106   -1.1293 C   0  0  0  0  0  0  0  0  0  0  0  0
   -0.4456    1.1721   -2.1938 H   0  0  0  0  0  0  0  0  0  0  0  0
    1.1585   -0.3202   -1.3439 H   0  0  0  0  0  0  0  0  0  0  0  0
    0.6285   -0.1331    0.3450 H   0  0  0  0  0  0  0  0  0  0  0  0
    1.8698    1.7972    0.6681 H   0  0  0  0  0  0  0  0  0  0  0  0
    2.7551    1.3413   -0.8038 H   0  0  0  0  0  0  0  0  0  0  0  0
    1.5408    3.6740   -0.8410 H   0  0  0  0  0  0  0  0  0  0  0  0
    1.1591    2.6230   -2.2205 H   0  0  0  0  0  0  0  0  0  0  0  0
   -2.3120   -0.4199   -1.9263 N   0  0  0  0  0  0  0  0  0  0  0  0
   -3.0841   -1.6697   -1.8356 C   0  0  2  0  0  0  0  0  0  0  0  0
   -2.2608   -2.8703   -2.3514 C   0  0  0  0  0  0  0  0  0  0  0  0
   -1.3067   -2.6802   -3.0985 O   0  0  0  0  0  0  0  0  0  0  0  0
   -4.3531   -1.4878   -2.6706 C   0  0  0  0  0  0  0  0  0  0  0  0
   -1.8290   -0.2803   -2.8123 H   0  0  0  0  0  0  0  0  0  0  0  0
   -3.3789   -1.8824   -0.8031 H   0  0  0  0  0  0  0  0  0  0  0  0
   -4.0991   -1.2907   -3.7172 H   0  0  0  0  0  0  0  0  0  0  0  0
   -4.9732   -2.3883   -2.6272 H   0  0  0  0  0  0  0  0  0  0  0  0
   -4.9392   -0.6457   -2.2892 H   0  0  0  0  0  0  0  0  0  0  0  0
   -2.5977   -4.1631   -1.9948 N   0  0  0  0  0  0  0  0  0  0  0  0
   -1.8470   -5.3342   -2.4323 C   0  0  0  0  0  0  0  0  0  0  0  0
   -3.3680   -4.2881   -1.3445 H   0  0  0  0  0  0  0  0  0  0  0  0
   -1.8294   -5.3932   -3.5257 H   0  0  0  0  0  0  0  0  0  0  0  0
   -0.8162   -5.2880   -2.0654 H   0  0  0  0  0  0  0  0  0  0  0  0
   -2.3107   -6.2469   -2.0460 H   0  0  0  0  0  0  0  0  0  0  0  0
  1  2  2  0  0  0  0
  1  3  1  0  0  0  0
  1  7  1  0  0  0  0
  3  4  1  0  0  0  0
  3  5  1  0  0  0  0
  3  6  1  0  0  0  0
  7  8  1  0  0  0  0
  7 12  1  0  0  0  0
  8  9  1  0  0  0  0
  8 11  1  0  0  0  0
  8 13  1  0  0  0  0
  9 10  2  0  0  0  0
  9 17  1  0  0  0  0
 11 14  1  0  0  0  0
 11 15  1  0  0  0  0
 11 16  1  0  0  0  0
 17 18  1  0  0  0  0
 17 23  1  0  0  0  0
 18 19  1  0  0  0  0
 18 21  1  0  0  0  0
 18 24  1  0  0  0  0
 19 20  2  0  0  0  0
 19 31  1  0  0  0  0
 21 22  1  0  0  0  0
 21 25  1  0  0  0  0
 21 26  1  0  0  0  0
 22 23  1  0  0  0  0
 22 27  1  0  0  0  0
 22 28  1  0  0  0  0
 23 29  1  0  0  0  0
 23 30  1  0  0  0  0
 31 32  1  0  0  0  0
 31 36  1  0  0  0  0
 32 33  1  0  0  0  0
 32 35  1  0  0  0  0
 32 37  1  0  0  0  0
 33 34  2  0  0  0  0
 33 41  1  0  0  0  0
 35 38  1  0  0  0  0
 35 39  1  0  0  0  0
 35 40  1  0  0  0  0
 41 42  1  0  0  0  0
 41 43  1  0  0  0  0
 42 44  1  0  0  0  0
 42 45  1  0  0  0  0
 42 46  1  0  0  0  0
M  END
$$$$

  -OEChem-05262217223D

 46 46  0     1  0  0  0  0  0999 V2000
   -0.5774    1.3767    3.1796 C   0  0  0  0  0  0  0  0  0  0  0  0
    0.1128    2.2791    3.6221 O   0  0  0  0  0  0  0  0  0  0  0  0
   -0.3638   -0.0455    3.6619 C   0  0  0  0  0  0  0  0  0  0  0  0
   -1.2897   -0.4354    4.0913 H   0  0  0  0  0  0  0  0  0  0  0  0
   -0.0632   -0.6801    2.8247 H   0  0  0  0  0  0  0  0  0  0  0  0
    0.4186   -0.0718    4.4257 H   0  0  0  0  0  0  0  0  0  0  0  0
   -1.5277    1.6249    2.2138 N   0  0  0  0  0  0  0  0  0  0  0  0
   -1.6785    2.9038    1.5155 C   0  0  2  0  0  0  0  0  0  0  0  0
   -0.6009    3.1832    0.4389 C   0  0  0  0  0  0  0  0  0  0  0  0
   -0.0856    4.2944    0.5053 O   0  0  0  0  0  0  0  0  0  0  0  0
   -3.0912    3.0242    0.9364 C   0  0  0  0  0  0  0  0  0  0  0  0
   -1.9423    0.8021    1.7731 H   0  0  0  0  0  0  0  0  0  0  0  0
   -1.5823    3.6971    2.2666 H   0  0  0  0  0  0  0  0  0  0  0  0
   -3.2397    4.0269    0.5229 H   0  0  0  0  0  0  0  0  0  0  0  0
   -3.2608    2.2972    0.1398 H   0  0  0  0  0  0  0  0  0  0  0  0
   -3.8355    2.8609    1.7216 H   0  0  0  0  0  0  0  0  0  0  0  0
   -0.1809    2.3852   -0.6435 N   0  0  0  0  0  0  0  0  0  0  0  0
   -0.5095    1.0705   -1.2155 C   0  0  2  0  0  0  0  0  0  0  0  0
   -1.7548    0.1985   -0.9197 C   0  0  0  0  0  0  0  0  0  0  0  0
   -2.1415   -0.0648    0.2093 O   0  0  0  0  0  0  0  0  0  0  0  0
    0.7701    0.3059   -0.8422 C   0  0  0  0  0  0  0  0  0  0  0  0
    1.8040    1.4236   -0.6680 C   0  0  0  0  0  0  0  0  0  0  0  0
    1.1402    2.6242   -1.3016 C   0  0  0  0  0  0  0  0  0  0  0  0
   -0.5546    1.2060   -2.3016 H   0  0  0  0  0  0  0  0  0  0  0  0
    1.0529   -0.3929   -1.6368 H   0  0  0  0  0  0  0  0  0  0  0  0
    0.6548   -0.2544    0.0920 H   0  0  0  0  0  0  0  0  0  0  0  0
    2.0005    1.6088    0.3948 H   0  0  0  0  0  0  0  0  0  0  0  0
    2.7520    1.1820   -1.1577 H   0  0  0  0  0  0  0  0  0  0  0  0
    1.6378    3.5568   -1.0150 H   0  0  0  0  0  0  0  0  0  0  0  0
    1.1060    2.5791   -2.3961 H   0  0  0  0  0  0  0  0  0  0  0  0
   -2.2077   -0.6187   -1.9417 N   0  0  0  0  0  0  0  0  0  0  0  0
   -2.8980   -1.9001   -1.7243 C   0  0  2  0  0  0  0  0  0  0  0  0
   -1.9245   -3.0899   -1.8738 C   0  0  0  0  0  0  0  0  0  0  0  0
   -0.8738   -2.9462   -2.4904 O   0  0  0  0  0  0  0  0  0  0  0  0
   -4.0264   -1.9977   -2.7528 C   0  0  0  0  0  0  0  0  0  0  0  0
   -1.6536   -0.5736   -2.7947 H   0  0  0  0  0  0  0  0  0  0  0  0
   -3.3422   -1.9474   -0.7250 H   0  0  0  0  0  0  0  0  0  0  0  0
   -3.6234   -1.9754   -3.7706 H   0  0  0  0  0  0  0  0  0  0  0  0
   -4.5847   -2.9297   -2.6213 H   0  0  0  0  0  0  0  0  0  0  0  0
   -4.7203   -1.1597   -2.6340 H   0  0  0  0  0  0  0  0  0  0  0  0
   -2.2360   -4.3273   -1.3418 N   0  0  0  0  0  0  0  0  0  0  0  0
   -1.3595   -5.4876   -1.4512 C   0  0  0  0  0  0  0  0  0  0  0  0
   -3.0970   -4.4096   -0.8089 H   0  0  0  0  0  0  0  0  0  0  0  0
   -1.1714   -5.7293   -2.5028 H   0  0  0  0  0  0  0  0  0  0  0  0
   -0.4015   -5.2923   -0.9580 H   0  0  0  0  0  0  0  0  0  0  0  0
   -1.8223   -6.3578   -0.9756 H   0  0  0  0  0  0  0  0  0  0  0  0
  1  2  2  0  0  0  0
  1  3  1  0  0  0  0
  1  7  1  0  0  0  0
  3  4  1  0  0  0  0
  3  5  1  0  0  0  0
  3  6  1  0  0  0  0
  7  8  1  0  0  0  0
  7 12  1  0  0  0  0
  8  9  1  0  0  0  0
  8 11  1  0  0  0  0
  8 13  1  0  0  0  0
  9 10  2  0  0  0  0
  9 17  1  0  0  0  0
 11 14  1  0  0  0  0
 11 15  1  0  0  0  0
 11 16  1  0  0  0  0
 17 18  1  0  0  0  0
 17 23  1  0  0  0  0
 18 19  1  0  0  0  0
 18 21  1  0  0  0  0
 18 24  1  0  0  0  0
 19 20  2  0  0  0  0
 19 31  1  0  0  0  0
 21 22  1  0  0  0  0
 21 25  1  0  0  0  0
 21 26  1  0  0  0  0
 22 23  1  0  0  0  0
 22 27  1  0  0  0  0
 22 28  1  0  0  0  0
 23 29  1  0  0  0  0
 23 30  1  0  0  0  0
 31 32  1  0  0  0  0
 31 36  1  0  0  0  0
 32 33  1  0  0  0  0
 32 35  1  0  0  0  0
 32 37  1  0  0  0  0
 33 34  2  0  0  0  0
 33 41  1  0  0  0  0
 35 38  1  0  0  0  0
 35 39  1  0  0  0  0
 35 40  1  0  0  0  0
 41 42  1  0  0  0  0
 41 43  1  0  0  0  0
 42 44  1  0  0  0  0
 42 45  1  0  0  0  0
 42 46  1  0  0  0  0
M  END
$$$$

  -OEChem-05262217223D

 46 46  0     1  0  0  0  0  0999 V2000
   -1.1617    0.7625    4.1369 C   0  0  0  0  0  0  0  0  0  0  0  0
   -1.3565   -0.4244    3.9289 O   0  0  0  0  0  0  0  0  0  0  0  0
   -0.7686    1.2317    5.5249 C   0  0  0  0  0  0  0  0  0  0  0  0
   -1.4797    1.9817    5.8796 H   0  0  0  0  0  0  0  0  0  0  0  0
   -0.7683    0.3891    6.2221 H   0  0  0  0  0  0  0  0  0  0  0  0
    0.2317    1.6707    5.5004 H   0  0  0  0  0  0  0  0  0  0  0  0
   -1.2874    1.6861    3.1212 N   0  0  0  0  0  0  0  0  0  0  0  0
   -1.5130    1.3555    1.7046 C   0  0  2  0  0  0  0  0  0  0  0  0
   -0.6918    2.2763    0.7671 C   0  0  0  0  0  0  0  0  0  0  0  0
   -0.2944    3.3268    1.2718 O   0  0  0  0  0  0  0  0  0  0  0  0
   -3.0173    1.5243    1.4544 C   0  0  0  0  0  0  0  0  0  0  0  0
   -0.9774    2.6368    3.3175 H   0  0  0  0  0  0  0  0  0  0  0  0
   -1.1926    0.3273    1.5341 H   0  0  0  0  0  0  0  0  0  0  0  0
   -3.3445    2.5241    1.7559 H   0  0  0  0  0  0  0  0  0  0  0  0
   -3.2597    1.3925    0.3968 H   0  0  0  0  0  0  0  0  0  0  0  0
   -3.5775    0.7829    2.0325 H   0  0  0  0  0  0  0  0  0  0  0  0
   -0.2912    2.0416   -0.5609 N   0  0  0  0  0  0  0  0  0  0  0  0
   -0.4457    0.9580   -1.5419 C   0  0  2  0  0  0  0  0  0  0  0  0
   -1.4358   -0.2294   -1.4748 C   0  0  0  0  0  0  0  0  0  0  0  0
   -1.9573   -0.6371   -0.4523 O   0  0  0  0  0  0  0  0  0  0  0  0
    1.0035    0.4500   -1.5838 C   0  0  0  0  0  0  0  0  0  0  0  0
    1.8107    1.6618   -1.1021 C   0  0  0  0  0  0  0  0  0  0  0  0
    0.8267    2.8055   -1.1935 C   0  0  0  0  0  0  0  0  0  0  0  0
   -0.7029    1.4315   -2.4958 H   0  0  0  0  0  0  0  0  0  0  0  0
    1.2867    0.1532   -2.5988 H   0  0  0  0  0  0  0  0  0  0  0  0
    1.1554   -0.4026   -0.9120 H   0  0  0  0  0  0  0  0  0  0  0  0
    2.1444    1.5205   -0.0675 H   0  0  0  0  0  0  0  0  0  0  0  0
    2.6916    1.8390   -1.7269 H   0  0  0  0  0  0  0  0  0  0  0  0
    1.1662    3.6799   -0.6280 H   0  0  0  0  0  0  0  0  0  0  0  0
    0.6196    3.1233   -2.2219 H   0  0  0  0  0  0  0  0  0  0  0  0
   -1.6572   -0.9675   -2.6254 N   0  0  0  0  0  0  0  0  0  0  0  0
   -2.4551   -2.2034   -2.6715 C   0  0  2  0  0  0  0  0  0  0  0  0
   -1.6731   -3.4221   -2.1236 C   0  0  0  0  0  0  0  0  0  0  0  0
   -1.2681   -4.3099   -2.8645 O   0  0  0  0  0  0  0  0  0  0  0  0
   -2.9230   -2.3970   -4.1188 C   0  0  0  0  0  0  0  0  0  0  0  0
   -1.1174   -0.7207   -3.4498 H   0  0  0  0  0  0  0  0  0  0  0  0
   -3.3497   -2.0873   -2.0502 H   0  0  0  0  0  0  0  0  0  0  0  0
   -2.0672   -2.5218   -4.7899 H   0  0  0  0  0  0  0  0  0  0  0  0
   -3.5535   -3.2887   -4.1946 H   0  0  0  0  0  0  0  0  0  0  0  0
   -3.5066   -1.5327   -4.4500 H   0  0  0  0  0  0  0  0  0  0  0  0
   -1.3909   -3.4865   -0.7738 N   0  0  0  0  0  0  0  0  0  0  0  0
   -0.6080   -4.5469   -0.1544 C   0  0  0  0  0  0  0  0  0  0  0  0
   -1.6598   -2.6723   -0.2153 H   0  0  0  0  0  0  0  0  0  0  0  0
   -1.0691   -5.5225   -0.3414 H   0  0  0  0  0  0  0  0  0  0  0  0
    0.4106   -4.5550   -0.5556 H   0  0  0  0  0  0  0  0  0  0  0  0
   -0.5550   -4.3924    0.9278 H   0  0  0  0  0  0  0  0  0  0  0  0
  1  2  2  0  0  0  0
  1  3  1  0  0  0  0
  1  7  1  0  0  0  0
  3  4  1  0  0  0  0
  3  5  1  0  0  0  0
  3  6  1  0  0  0  0
  7  8  1  0  0  0  0
  7 12  1  0  0  0  0
  8  9  1  0  0  0  0
  8 11  1  0  0  0  0
  8 13  1  0  0  0  0
  9 10  2  0  0  0  0
  9 17  1  0  0  0  0
 11 14  1  0  0  0  0
 11 15  1  0  0  0  0
 11 16  1  0  0  0  0
 17 18  1  0  0  0  0
 17 23  1  0  0  0  0
 18 19  1  0  0  0  0
 18 21  1  0  0  0  0
 18 24  1  0  0  0  0
 19 20  2  0  0  0  0
 19 31  1  0  0  0  0
 21 22  1  0  0  0  0
 21 25  1  0  0  0  0
 21 26  1  0  0  0  0
 22 23  1  0  0  0  0
 22 27  1  0  0  0  0
 22 28  1  0  0  0  0
 23 29  1  0  0  0  0
 23 30  1  0  0  0  0
 31 32  1  0  0  0  0
 31 36  1  0  0  0  0
 32 33  1  0  0  0  0
 32 35  1  0  0  0  0
 32 37  1  0  0  0  0
 33 34  2  0  0  0  0
 33 41  1  0  0  0  0
 35 38  1  0  0  0  0
 35 39  1  0  0  0  0
 35 40  1  0  0  0  0
 41 42  1  0  0  0  0
 41 43  1  0  0  0  0
 42 44  1  0  0  0  0
 42 45  1  0  0  0  0
 42 46  1  0  0  0  0
M  END
$$$$

  -OEChem-05262217223D

 46 46  0     1  0  0  0  0  0999 V2000
    0.1060    0.5132    3.1566 C   0  0  0  0  0  0  0  0  0  0  0  0
    0.6604   -0.1828    2.3179 O   0  0  0  0  0  0  0  0  0  0  0  0
    0.8013    0.8136    4.4706 C   0  0  0  0  0  0  0  0  0  0  0  0
    0.1487    0.5509    5.3067 H   0  0  0  0  0  0  0  0  0  0  0  0
    1.7256    0.2343    4.5501 H   0  0  0  0  0  0  0  0  0  0  0  0
    1.0449    1.8774    4.5276 H   0  0  0  0  0  0  0  0  0  0  0  0
   -1.1347    1.0607    2.9010 N   0  0  0  0  0  0  0  0  0  0  0  0
   -1.7326    1.0403    1.5587 C   0  0  2  0  0  0  0  0  0  0  0  0
   -1.2131    2.2168    0.6913 C   0  0  0  0  0  0  0  0  0  0  0  0
   -1.1507    3.3099    1.2523 O   0  0  0  0  0  0  0  0  0  0  0  0
   -3.2532    1.1146    1.7299 C   0  0  0  0  0  0  0  0  0  0  0  0
   -1.4183    1.8189    3.5159 H   0  0  0  0  0  0  0  0  0  0  0  0
   -1.4702    0.0915    1.0957 H   0  0  0  0  0  0  0  0  0  0  0  0
   -3.5361    2.0295    2.2601 H   0  0  0  0  0  0  0  0  0  0  0  0
   -3.7508    1.1161    0.7557 H   0  0  0  0  0  0  0  0  0  0  0  0
   -3.6124    0.2528    2.3003 H   0  0  0  0  0  0  0  0  0  0  0  0
   -0.6781    2.1407   -0.6055 N   0  0  0  0  0  0  0  0  0  0  0  0
   -0.4495    1.0120   -1.5088 C   0  0  2  0  0  0  0  0  0  0  0  0
   -1.3240   -0.2612   -1.5221 C   0  0  0  0  0  0  0  0  0  0  0  0
   -2.4372   -0.2947   -1.0143 O   0  0  0  0  0  0  0  0  0  0  0  0
    1.0268    0.7219   -1.2004 C   0  0  0  0  0  0  0  0  0  0  0  0
    1.5234    2.0649   -0.6442 C   0  0  0  0  0  0  0  0  0  0  0  0
    0.4310    3.0424   -1.0309 C   0  0  0  0  0  0  0  0  0  0  0  0
   -0.5423    1.3828   -2.5356 H   0  0  0  0  0  0  0  0  0  0  0  0
    1.5695    0.4318   -2.1056 H   0  0  0  0  0  0  0  0  0  0  0  0
    1.1406   -0.0683   -0.4493 H   0  0  0  0  0  0  0  0  0  0  0  0
    1.6359    2.0153    0.4453 H   0  0  0  0  0  0  0  0  0  0  0  0
    2.4876    2.3512   -1.0751 H   0  0  0  0  0  0  0  0  0  0  0  0
    0.4949    3.9783   -0.4654 H   0  0  0  0  0  0  0  0  0  0  0  0
    0.4191    3.2855   -2.0997 H   0  0  0  0  0  0  0  0  0  0  0  0
   -1.0210   -1.2774   -2.4123 N   0  0  0  0  0  0  0  0  0  0  0  0
   -1.7649   -2.5468   -2.4667 C   0  0  2  0  0  0  0  0  0  0  0  0
   -1.4947   -3.4182   -1.2147 C   0  0  0  0  0  0  0  0  0  0  0  0
   -0.7961   -4.4228   -1.2719 O   0  0  0  0  0  0  0  0  0  0  0  0
   -1.3836   -3.2509   -3.7743 C   0  0  0  0  0  0  0  0  0  0  0  0
   -0.0818   -1.2717   -2.8004 H   0  0  0  0  0  0  0  0  0  0  0  0
   -2.8409   -2.3446   -2.5009 H   0  0  0  0  0  0  0  0  0  0  0  0
   -0.3112   -3.4700   -3.7981 H   0  0  0  0  0  0  0  0  0  0  0  0
   -1.9303   -4.1946   -3.8676 H   0  0  0  0  0  0  0  0  0  0  0  0
   -1.6328   -2.6209   -4.6335 H   0  0  0  0  0  0  0  0  0  0  0  0
   -1.9753   -2.9924    0.0086 N   0  0  0  0  0  0  0  0  0  0  0  0
   -1.5369   -3.5518    1.2801 C   0  0  0  0  0  0  0  0  0  0  0  0
   -2.4214   -2.0729    0.0068 H   0  0  0  0  0  0  0  0  0  0  0  0
   -1.6777   -4.6376    1.2931 H   0  0  0  0  0  0  0  0  0  0  0  0
   -0.4778   -3.3309    1.4492 H   0  0  0  0  0  0  0  0  0  0  0  0
   -2.1172   -3.1201    2.1012 H   0  0  0  0  0  0  0  0  0  0  0  0
  1  2  2  0  0  0  0
  1  3  1  0  0  0  0
  1  7  1  0  0  0  0
  3  4  1  0  0  0  0
  3  5  1  0  0  0  0
  3  6  1  0  0  0  0
  7  8  1  0  0  0  0
  7 12  1  0  0  0  0
  8  9  1  0  0  0  0
  8 11  1  0  0  0  0
  8 13  1  0  0  0  0
  9 10  2  0  0  0  0
  9 17  1  0  0  0  0
 11 14  1  0  0  0  0
 11 15  1  0  0  0  0
 11 16  1  0  0  0  0
 17 18  1  0  0  0  0
 17 23  1  0  0  0  0
 18 19  1  0  0  0  0
 18 21  1  0  0  0  0
 18 24  1  0  0  0  0
 19 20  2  0  0  0  0
 19 31  1  0  0  0  0
 21 22  1  0  0  0  0
 21 25  1  0  0  0  0
 21 26  1  0  0  0  0
 22 23  1  0  0  0  0
 22 27  1  0  0  0  0
 22 28  1  0  0  0  0
 23 29  1  0  0  0  0
 23 30  1  0  0  0  0
 31 32  1  0  0  0  0
 31 36  1  0  0  0  0
 32 33  1  0  0  0  0
 32 35  1  0  0  0  0
 32 37  1  0  0  0  0
 33 34  2  0  0  0  0
 33 41  1  0  0  0  0
 35 38  1  0  0  0  0
 35 39  1  0  0  0  0
 35 40  1  0  0  0  0
 41 42  1  0  0  0  0
 41 43  1  0  0  0  0
 42 44  1  0  0  0  0
 42 45  1  0  0  0  0
 42 46  1  0  0  0  0
M  END
$$$$

  -OEChem-05262217223D

 46 46  0     1  0  0  0  0  0999 V2000
   -0.8779    0.6205    3.3041 C   0  0  0  0  0  0  0  0  0  0  0  0
   -0.7257   -0.4327    2.6996 O   0  0  0  0  0  0  0  0  0  0  0  0
   -0.1795    0.8329    4.6338 C   0  0  0  0  0  0  0  0  0  0  0  0
   -0.9136    1.0728    5.4069 H   0  0  0  0  0  0  0  0  0  0  0  0
    0.3581   -0.0731    4.9278 H   0  0  0  0  0  0  0  0  0  0  0  0
    0.5352    1.6557    4.5517 H   0  0  0  0  0  0  0  0  0  0  0  0
   -1.6486    1.6338    2.7701 N   0  0  0  0  0  0  0  0  0  0  0  0
   -2.1154    1.6205    1.3763 C   0  0  2  0  0  0  0  0  0  0  0  0
   -1.1013    2.3382    0.4450 C   0  0  0  0  0  0  0  0  0  0  0  0
   -0.7119    3.4385    0.8341 O   0  0  0  0  0  0  0  0  0  0  0  0
   -3.4829    2.3069    1.3229 C   0  0  0  0  0  0  0  0  0  0  0  0
   -1.5496    2.5470    3.2070 H   0  0  0  0  0  0  0  0  0  0  0  0
   -2.2457    0.5847    1.0784 H   0  0  0  0  0  0  0  0  0  0  0  0
   -3.4064    3.3473    1.6541 H   0  0  0  0  0  0  0  0  0  0  0  0
   -3.8727    2.2969    0.3003 H   0  0  0  0  0  0  0  0  0  0  0  0
   -4.1948    1.7844    1.9685 H   0  0  0  0  0  0  0  0  0  0  0  0
   -0.4552    1.7989   -0.6804 N   0  0  0  0  0  0  0  0  0  0  0  0
   -0.5294    0.4711   -1.2960 C   0  0  2  0  0  0  0  0  0  0  0  0
   -1.8389   -0.3616   -1.2110 C   0  0  0  0  0  0  0  0  0  0  0  0
   -2.9220    0.1997   -1.1756 O   0  0  0  0  0  0  0  0  0  0  0  0
    0.7223   -0.1312   -0.6265 C   0  0  0  0  0  0  0  0  0  0  0  0
    1.5683    1.0937   -0.2530 C   0  0  0  0  0  0  0  0  0  0  0  0
    0.9288    2.2074   -1.0480 C   0  0  0  0  0  0  0  0  0  0  0  0
   -0.3560    0.5727   -2.3721 H   0  0  0  0  0  0  0  0  0  0  0  0
    1.2698   -0.7916   -1.3038 H   0  0  0  0  0  0  0  0  0  0  0  0
    0.4650   -0.6816    0.2812 H   0  0  0  0  0  0  0  0  0  0  0  0
    1.5153    1.2947    0.8235 H   0  0  0  0  0  0  0  0  0  0  0  0
    2.6194    0.9590   -0.5257 H   0  0  0  0  0  0  0  0  0  0  0  0
    1.2206    3.1996   -0.6871 H   0  0  0  0  0  0  0  0  0  0  0  0
    1.1370    2.1538   -2.1229 H   0  0  0  0  0  0  0  0  0  0  0  0
   -2.0427   -1.7046   -1.4605 N   0  0  0  0  0  0  0  0  0  0  0  0
   -1.1046   -2.7511   -1.9031 C   0  0  2  0  0  0  0  0  0  0  0  0
   -0.0948   -3.2088   -0.8234 C   0  0  0  0  0  0  0  0  0  0  0  0
    1.0172   -3.6114   -1.1379 O   0  0  0  0  0  0  0  0  0  0  0  0
   -0.4638   -2.3729   -3.2486 C   0  0  0  0  0  0  0  0  0  0  0  0
   -3.0358   -1.9214   -1.5150 H   0  0  0  0  0  0  0  0  0  0  0  0
   -1.7118   -3.6402   -2.0987 H   0  0  0  0  0  0  0  0  0  0  0  0
    0.2543   -1.5586   -3.1410 H   0  0  0  0  0  0  0  0  0  0  0  0
    0.0652   -3.2356   -3.6666 H   0  0  0  0  0  0  0  0  0  0  0  0
   -1.2343   -2.0660   -3.9625 H   0  0  0  0  0  0  0  0  0  0  0  0
   -0.4402   -3.1527    0.5145 N   0  0  0  0  0  0  0  0  0  0  0  0
    0.4990   -3.4310    1.5940 C   0  0  0  0  0  0  0  0  0  0  0  0
   -1.2985   -2.6572    0.7457 H   0  0  0  0  0  0  0  0  0  0  0  0
    1.3361   -2.7260    1.5664 H   0  0  0  0  0  0  0  0  0  0  0  0
   -0.0020   -3.3326    2.5621 H   0  0  0  0  0  0  0  0  0  0  0  0
    0.8909   -4.4500    1.5094 H   0  0  0  0  0  0  0  0  0  0  0  0
  1  2  2  0  0  0  0
  1  3  1  0  0  0  0
  1  7  1  0  0  0  0
  3  4  1  0  0  0  0
  3  5  1  0  0  0  0
  3  6  1  0  0  0  0
  7  8  1  0  0  0  0
  7 12  1  0  0  0  0
  8  9  1  0  0  0  0
  8 11  1  0  0  0  0
  8 13  1  0  0  0  0
  9 10  2  0  0  0  0
  9 17  1  0  0  0  0
 11 14  1  0  0  0  0
 11 15  1  0  0  0  0
 11 16  1  0  0  0  0
 17 18  1  0  0  0  0
 17 23  1  0  0  0  0
 18 19  1  0  0  0  0
 18 21  1  0  0  0  0
 18 24  1  0  0  0  0
 19 20  2  0  0  0  0
 19 31  1  0  0  0  0
 21 22  1  0  0  0  0
 21 25  1  0  0  0  0
 21 26  1  0  0  0  0
 22 23  1  0  0  0  0
 22 27  1  0  0  0  0
 22 28  1  0  0  0  0
 23 29  1  0  0  0  0
 23 30  1  0  0  0  0
 31 32  1  0  0  0  0
 31 36  1  0  0  0  0
 32 33  1  0  0  0  0
 32 35  1  0  0  0  0
 32 37  1  0  0  0  0
 33 34  2  0  0  0  0
 33 41  1  0  0  0  0
 35 38  1  0  0  0  0
 35 39  1  0  0  0  0
 35 40  1  0  0  0  0
 41 42  1  0  0  0  0
 41 43  1  0  0  0  0
 42 44  1  0  0  0  0
 42 45  1  0  0  0  0
 42 46  1  0  0  0  0
M  END
$$$$

  -OEChem-05262217223D

 46 46  0     1  0  0  0  0  0999 V2000
   -1.0393    0.6068    3.4764 C   0  0  0  0  0  0  0  0  0  0  0  0
   -1.1691   -0.5675    3.1626 O   0  0  0  0  0  0  0  0  0  0  0  0
   -0.5304    0.9697    4.8582 C   0  0  0  0  0  0  0  0  0  0  0  0
   -1.2679    1.5861    5.3780 H   0  0  0  0  0  0  0  0  0  0  0  0
   -0.3515    0.0640    5.4445 H   0  0  0  0  0  0  0  0  0  0  0  0
    0.4063    1.5266    4.7751 H   0  0  0  0  0  0  0  0  0  0  0  0
   -1.3395    1.6079    2.5771 N   0  0  0  0  0  0  0  0  0  0  0  0
   -1.7371    1.3851    1.1806 C   0  0  2  0  0  0  0  0  0  0  0  0
   -1.1784    2.4932    0.2486 C   0  0  0  0  0  0  0  0  0  0  0  0
   -1.1848    3.6340    0.7087 O   0  0  0  0  0  0  0  0  0  0  0  0
   -3.2693    1.3607    1.1378 C   0  0  0  0  0  0  0  0  0  0  0  0
   -1.1795    2.5724    2.8639 H   0  0  0  0  0  0  0  0  0  0  0  0
   -1.3448    0.4202    0.8649 H   0  0  0  0  0  0  0  0  0  0  0  0
   -3.6790    2.2921    1.5407 H   0  0  0  0  0  0  0  0  0  0  0  0
   -3.6287    1.2455    0.1115 H   0  0  0  0  0  0  0  0  0  0  0  0
   -3.6491    0.5241    1.7319 H   0  0  0  0  0  0  0  0  0  0  0  0
   -0.4737    2.2984   -0.9512 N   0  0  0  0  0  0  0  0  0  0  0  0
   -0.0770    1.0727   -1.6420 C   0  0  2  0  0  0  0  0  0  0  0  0
   -0.9224   -0.2128   -1.5291 C   0  0  0  0  0  0  0  0  0  0  0  0
   -2.1404   -0.1559   -1.4441 O   0  0  0  0  0  0  0  0  0  0  0  0
    1.3639    0.9382   -1.1197 C   0  0  0  0  0  0  0  0  0  0  0  0
    1.7125    2.3805   -0.7177 C   0  0  0  0  0  0  0  0  0  0  0  0
    0.6271    3.2101   -1.3737 C   0  0  0  0  0  0  0  0  0  0  0  0
   -0.0565    1.2692   -2.7197 H   0  0  0  0  0  0  0  0  0  0  0  0
    2.0322    0.5607   -1.9006 H   0  0  0  0  0  0  0  0  0  0  0  0
    1.4260    0.2760   -0.2485 H   0  0  0  0  0  0  0  0  0  0  0  0
    1.6898    2.4994    0.3717 H   0  0  0  0  0  0  0  0  0  0  0  0
    2.7061    2.6705   -1.0732 H   0  0  0  0  0  0  0  0  0  0  0  0
    0.5626    4.2196   -0.9531 H   0  0  0  0  0  0  0  0  0  0  0  0
    0.7387    3.2948   -2.4609 H   0  0  0  0  0  0  0  0  0  0  0  0
   -0.3193   -1.4525   -1.6133 N   0  0  0  0  0  0  0  0  0  0  0  0
   -0.8728   -2.6198   -0.9146 C   0  0  2  0  0  0  0  0  0  0  0  0
    0.0323   -2.9818    0.2821 C   0  0  0  0  0  0  0  0  0  0  0  0
    1.2446   -2.8104    0.1859 O   0  0  0  0  0  0  0  0  0  0  0  0
   -0.9560   -3.7786   -1.9087 C   0  0  0  0  0  0  0  0  0  0  0  0
    0.6995   -1.4287   -1.6296 H   0  0  0  0  0  0  0  0  0  0  0  0
   -1.8779   -2.4160   -0.5307 H   0  0  0  0  0  0  0  0  0  0  0  0
    0.0372   -4.0214   -2.2999 H   0  0  0  0  0  0  0  0  0  0  0  0
   -1.3661   -4.6689   -1.4222 H   0  0  0  0  0  0  0  0  0  0  0  0
   -1.6060   -3.5106   -2.7475 H   0  0  0  0  0  0  0  0  0  0  0  0
   -0.5063   -3.4507    1.4644 N   0  0  0  0  0  0  0  0  0  0  0  0
    0.2921   -3.6125    2.6730 C   0  0  0  0  0  0  0  0  0  0  0  0
   -1.5115   -3.3468    1.5751 H   0  0  0  0  0  0  0  0  0  0  0  0
    1.1093   -4.3211    2.5023 H   0  0  0  0  0  0  0  0  0  0  0  0
    0.7167   -2.6522    2.9838 H   0  0  0  0  0  0  0  0  0  0  0  0
   -0.3307   -3.9946    3.4875 H   0  0  0  0  0  0  0  0  0  0  0  0
  1  2  2  0  0  0  0
  1  3  1  0  0  0  0
  1  7  1  0  0  0  0
  3  4  1  0  0  0  0
  3  5  1  0  0  0  0
  3  6  1  0  0  0  0
  7  8  1  0  0  0  0
  7 12  1  0  0  0  0
  8  9  1  0  0  0  0
  8 11  1  0  0  0  0
  8 13  1  0  0  0  0
  9 10  2  0  0  0  0
  9 17  1  0  0  0  0
 11 14  1  0  0  0  0
 11 15  1  0  0  0  0
 11 16  1  0  0  0  0
 17 18  1  0  0  0  0
 17 23  1  0  0  0  0
 18 19  1  0  0  0  0
 18 21  1  0  0  0  0
 18 24  1  0  0  0  0
 19 20  2  0  0  0  0
 19 31  1  0  0  0  0
 21 22  1  0  0  0  0
 21 25  1  0  0  0  0
 21 26  1  0  0  0  0
 22 23  1  0  0  0  0
 22 27  1  0  0  0  0
 22 28  1  0  0  0  0
 23 29  1  0  0  0  0
 23 30  1  0  0  0  0
 31 32  1  0  0  0  0
 31 36  1  0  0  0  0
 32 33  1  0  0  0  0
 32 35  1  0  0  0  0
 32 37  1  0  0  0  0
 33 34  2  0  0  0  0
 33 41  1  0  0  0  0
 35 38  1  0  0  0  0
 35 39  1  0  0  0  0
 35 40  1  0  0  0  0
 41 42  1  0  0  0  0
 41 43  1  0  0  0  0
 42 44  1  0  0  0  0
 42 45  1  0  0  0  0
 42 46  1  0  0  0  0
M  END
$$$$

  -OEChem-05262217223D

 46 46  0     1  0  0  0  0  0999 V2000
   -1.3881    0.9135    3.7114 C   0  0  0  0  0  0  0  0  0  0  0  0
   -2.0298   -0.1167    3.5646 O   0  0  0  0  0  0  0  0  0  0  0  0
   -0.7577    1.2209    5.0565 C   0  0  0  0  0  0  0  0  0  0  0  0
   -1.1618    2.1556    5.4526 H   0  0  0  0  0  0  0  0  0  0  0  0
   -0.9686    0.4160    5.7658 H   0  0  0  0  0  0  0  0  0  0  0  0
    0.3252    1.3176    4.9451 H   0  0  0  0  0  0  0  0  0  0  0  0
   -1.2487    1.8189    2.6801 N   0  0  0  0  0  0  0  0  0  0  0  0
   -1.6658    1.5770    1.2935 C   0  0  2  0  0  0  0  0  0  0  0  0
   -0.8909    2.4834    0.2989 C   0  0  0  0  0  0  0  0  0  0  0  0
   -0.6496    3.6288    0.6779 O   0  0  0  0  0  0  0  0  0  0  0  0
   -3.1709    1.8560    1.1904 C   0  0  0  0  0  0  0  0  0  0  0  0
   -0.6997    2.6581    2.8556 H   0  0  0  0  0  0  0  0  0  0  0  0
   -1.4704    0.5319    1.0610 H   0  0  0  0  0  0  0  0  0  0  0  0
   -3.3928    2.8765    1.5180 H   0  0  0  0  0  0  0  0  0  0  0  0
   -3.5173    1.7430    0.1595 H   0  0  0  0  0  0  0  0  0  0  0  0
   -3.7322    1.1584    1.8191 H   0  0  0  0  0  0  0  0  0  0  0  0
   -0.2788    2.0748   -0.8955 N   0  0  0  0  0  0  0  0  0  0  0  0
   -0.1802    0.7656   -1.5333 C   0  0  2  0  0  0  0  0  0  0  0  0
   -1.3329   -0.2493   -1.3005 C   0  0  0  0  0  0  0  0  0  0  0  0
   -2.4632    0.1180   -1.5761 O   0  0  0  0  0  0  0  0  0  0  0  0
    1.2883    0.4575   -1.2095 C   0  0  0  0  0  0  0  0  0  0  0  0
    1.8931    1.8518   -0.9798 C   0  0  0  0  0  0  0  0  0  0  0  0
    0.8552    2.7975   -1.5367 C   0  0  0  0  0  0  0  0  0  0  0  0
   -0.2420    0.9069   -2.6181 H   0  0  0  0  0  0  0  0  0  0  0  0
    1.7710   -0.0612   -2.0431 H   0  0  0  0  0  0  0  0  0  0  0  0
    1.4132   -0.1240   -0.3028 H   0  0  0  0  0  0  0  0  0  0  0  0
    2.0472    2.0343    0.0902 H   0  0  0  0  0  0  0  0  0  0  0  0
    2.8543    1.9666   -1.4899 H   0  0  0  0  0  0  0  0  0  0  0  0
    0.9949    3.8240   -1.1811 H   0  0  0  0  0  0  0  0  0  0  0  0
    0.8118    2.8092   -2.6317 H   0  0  0  0  0  0  0  0  0  0  0  0
   -1.3854   -1.5965   -0.9948 N   0  0  0  0  0  0  0  0  0  0  0  0
   -0.4215   -2.5592   -0.4288 C   0  0  2  0  0  0  0  0  0  0  0  0
   -0.0684   -2.3426    1.0660 C   0  0  0  0  0  0  0  0  0  0  0  0
    0.3655   -1.2739    1.4694 O   0  0  0  0  0  0  0  0  0  0  0  0
    0.8172   -2.7713   -1.3101 C   0  0  0  0  0  0  0  0  0  0  0  0
   -2.3584   -1.8945   -0.9886 H   0  0  0  0  0  0  0  0  0  0  0  0
   -0.9551   -3.5139   -0.4596 H   0  0  0  0  0  0  0  0  0  0  0  0
    1.6657   -2.1793   -0.9640 H   0  0  0  0  0  0  0  0  0  0  0  0
    1.1211   -3.8220   -1.2726 H   0  0  0  0  0  0  0  0  0  0  0  0
    0.6016   -2.5141   -2.3517 H   0  0  0  0  0  0  0  0  0  0  0  0
   -0.2003   -3.3845    1.9668 N   0  0  0  0  0  0  0  0  0  0  0  0
   -0.0205   -3.2078    3.4043 C   0  0  0  0  0  0  0  0  0  0  0  0
   -0.6586   -4.2289    1.6398 H   0  0  0  0  0  0  0  0  0  0  0  0
    0.9542   -2.7579    3.6205 H   0  0  0  0  0  0  0  0  0  0  0  0
   -0.8046   -2.5602    3.8102 H   0  0  0  0  0  0  0  0  0  0  0  0
   -0.0700   -4.1748    3.9137 H   0  0  0  0  0  0  0  0  0  0  0  0
  1  2  2  0  0  0  0
  1  3  1  0  0  0  0
  1  7  1  0  0  0  0
  3  4  1  0  0  0  0
  3  5  1  0  0  0  0
  3  6  1  0  0  0  0
  7  8  1  0  0  0  0
  7 12  1  0  0  0  0
  8  9  1  0  0  0  0
  8 11  1  0  0  0  0
  8 13  1  0  0  0  0
  9 10  2  0  0  0  0
  9 17  1  0  0  0  0
 11 14  1  0  0  0  0
 11 15  1  0  0  0  0
 11 16  1  0  0  0  0
 17 18  1  0  0  0  0
 17 23  1  0  0  0  0
 18 19  1  0  0  0  0
 18 21  1  0  0  0  0
 18 24  1  0  0  0  0
 19 20  2  0  0  0  0
 19 31  1  0  0  0  0
 21 22  1  0  0  0  0
 21 25  1  0  0  0  0
 21 26  1  0  0  0  0
 22 23  1  0  0  0  0
 22 27  1  0  0  0  0
 22 28  1  0  0  0  0
 23 29  1  0  0  0  0
 23 30  1  0  0  0  0
 31 32  1  0  0  0  0
 31 36  1  0  0  0  0
 32 33  1  0  0  0  0
 32 35  1  0  0  0  0
 32 37  1  0  0  0  0
 33 34  2  0  0  0  0
 33 41  1  0  0  0  0
 35 38  1  0  0  0  0
 35 39  1  0  0  0  0
 35 40  1  0  0  0  0
 41 42  1  0  0  0  0
 41 43  1  0  0  0  0
 42 44  1  0  0  0  0
 42 45  1  0  0  0  0
 42 46  1  0  0  0  0
M  END
$$$$

  -OEChem-05262217223D

 46 46  0     1  0  0  0  0  0999 V2000
   -1.5625    1.1378    3.7862 C   0  0  0  0  0  0  0  0  0  0  0  0
   -2.1144    0.0549    3.6512 O   0  0  0  0  0  0  0  0  0  0  0  0
   -1.0680    1.5659    5.1547 C   0  0  0  0  0  0  0  0  0  0  0  0
   -1.5596    2.4944    5.4546 H   0  0  0  0  0  0  0  0  0  0  0  0
   -1.2905    0.7938    5.8960 H   0  0  0  0  0  0  0  0  0  0  0  0
    0.0125    1.7261    5.1247 H   0  0  0  0  0  0  0  0  0  0  0  0
   -1.4082    1.9940    2.7164 N   0  0  0  0  0  0  0  0  0  0  0  0
   -1.7061    1.6465    1.3224 C   0  0  2  0  0  0  0  0  0  0  0  0
   -0.9396    2.5550    0.3256 C   0  0  0  0  0  0  0  0  0  0  0  0
   -0.7703    3.7252    0.6651 O   0  0  0  0  0  0  0  0  0  0  0  0
   -3.2168    1.7986    1.1058 C   0  0  0  0  0  0  0  0  0  0  0  0
   -0.9291    2.8777    2.8783 H   0  0  0  0  0  0  0  0  0  0  0  0
   -1.4121    0.6111    1.1637 H   0  0  0  0  0  0  0  0  0  0  0  0
   -3.5368    2.8141    1.3595 H   0  0  0  0  0  0  0  0  0  0  0  0
   -3.4820    1.6064    0.0630 H   0  0  0  0  0  0  0  0  0  0  0  0
   -3.7664    1.0924    1.7349 H   0  0  0  0  0  0  0  0  0  0  0  0
   -0.2717    2.1294   -0.8311 N   0  0  0  0  0  0  0  0  0  0  0  0
   -0.0963    0.8039   -1.4152 C   0  0  2  0  0  0  0  0  0  0  0  0
   -1.2093   -0.2553   -1.1830 C   0  0  0  0  0  0  0  0  0  0  0  0
   -2.3203    0.0020   -1.6156 O   0  0  0  0  0  0  0  0  0  0  0  0
    1.3752    0.5748   -1.0480 C   0  0  0  0  0  0  0  0  0  0  0  0
    1.9094    2.0042   -0.8581 C   0  0  0  0  0  0  0  0  0  0  0  0
    0.8434    2.8807   -1.4728 C   0  0  0  0  0  0  0  0  0  0  0  0
   -0.1333    0.9055   -2.5056 H   0  0  0  0  0  0  0  0  0  0  0  0
    1.9006    0.0447   -1.8483 H   0  0  0  0  0  0  0  0  0  0  0  0
    1.5033    0.0361   -0.1174 H   0  0  0  0  0  0  0  0  0  0  0  0
    2.0293    2.2334    0.2076 H   0  0  0  0  0  0  0  0  0  0  0  0
    2.8763    2.1451   -1.3504 H   0  0  0  0  0  0  0  0  0  0  0  0
    0.9273    3.9243   -1.1512 H   0  0  0  0  0  0  0  0  0  0  0  0
    0.8263    2.8519   -2.5682 H   0  0  0  0  0  0  0  0  0  0  0  0
   -1.2574   -1.5055   -0.5927 N   0  0  0  0  0  0  0  0  0  0  0  0
   -0.2815   -2.3898    0.0731 C   0  0  2  0  0  0  0  0  0  0  0  0
    0.1028   -2.0194    1.5303 C   0  0  0  0  0  0  0  0  0  0  0  0
    0.5751   -0.9284    1.8149 O   0  0  0  0  0  0  0  0  0  0  0  0
    0.9353   -2.7150   -0.8045 C   0  0  0  0  0  0  0  0  0  0  0  0
   -2.2162   -1.8462   -0.6124 H   0  0  0  0  0  0  0  0  0  0  0  0
   -0.8172   -3.3395    0.1622 H   0  0  0  0  0  0  0  0  0  0  0  0
    1.7629   -2.0289   -0.6258 H   0  0  0  0  0  0  0  0  0  0  0  0
    1.2963   -3.7220   -0.5739 H   0  0  0  0  0  0  0  0  0  0  0  0
    0.6667   -2.6825   -1.8650 H   0  0  0  0  0  0  0  0  0  0  0  0
   -0.0122   -2.9694    2.5300 N   0  0  0  0  0  0  0  0  0  0  0  0
    0.2537   -2.6772    3.9342 C   0  0  0  0  0  0  0  0  0  0  0  0
   -0.5062   -3.8265    2.3032 H   0  0  0  0  0  0  0  0  0  0  0  0
    1.2693   -2.2870    4.0612 H   0  0  0  0  0  0  0  0  0  0  0  0
   -0.4583   -1.9375    4.3134 H   0  0  0  0  0  0  0  0  0  0  0  0
    0.1584   -3.5875    4.5340 H   0  0  0  0  0  0  0  0  0  0  0  0
  1  2  2  0  0  0  0
  1  3  1  0  0  0  0
  1  7  1  0  0  0  0
  3  4  1  0  0  0  0
  3  5  1  0  0  0  0
  3  6  1  0  0  0  0
  7  8  1  0  0  0  0
  7 12  1  0  0  0  0
  8  9  1  0  0  0  0
  8 11  1  0  0  0  0
  8 13  1  0  0  0  0
  9 10  2  0  0  0  0
  9 17  1  0  0  0  0
 11 14  1  0  0  0  0
 11 15  1  0  0  0  0
 11 16  1  0  0  0  0
 17 18  1  0  0  0  0
 17 23  1  0  0  0  0
 18 19  1  0  0  0  0
 18 21  1  0  0  0  0
 18 24  1  0  0  0  0
 19 20  2  0  0  0  0
 19 31  1  0  0  0  0
 21 22  1  0  0  0  0
 21 25  1  0  0  0  0
 21 26  1  0  0  0  0
 22 23  1  0  0  0  0
 22 27  1  0  0  0  0
 22 28  1  0  0  0  0
 23 29  1  0  0  0  0
 23 30  1  0  0  0  0
 31 32  1  0  0  0  0
 31 36  1  0  0  0  0
 32 33  1  0  0  0  0
 32 35  1  0  0  0  0
 32 37  1  0  0  0  0
 33 34  2  0  0  0  0
 33 41  1  0  0  0  0
 35 38  1  0  0  0  0
 35 39  1  0  0  0  0
 35 40  1  0  0  0  0
 41 42  1  0  0  0  0
 41 43  1  0  0  0  0
 42 44  1  0  0  0  0
 42 45  1  0  0  0  0
 42 46  1  0  0  0  0
M  END
$$$$

  -OEChem-05262217223D

 46 46  0     1  0  0  0  0  0999 V2000
   -1.7646    1.2218    3.8699 C   0  0  0  0  0  0  0  0  0  0  0  0
   -2.2211    0.0981    3.7068 O   0  0  0  0  0  0  0  0  0  0  0  0
   -1.3421    1.6663    5.2574 C   0  0  0  0  0  0  0  0  0  0  0  0
   -1.5348    0.8720    5.9837 H   0  0  0  0  0  0  0  0  0  0  0  0
   -1.9039    2.5564    5.5509 H   0  0  0  0  0  0  0  0  0  0  0  0
   -0.2744    1.8987    5.2630 H   0  0  0  0  0  0  0  0  0  0  0  0
   -1.6477    2.1012    2.8139 N   0  0  0  0  0  0  0  0  0  0  0  0
   -1.8376    1.7272    1.4079 C   0  0  2  0  0  0  0  0  0  0  0  0
   -1.0697    2.6610    0.4387 C   0  0  0  0  0  0  0  0  0  0  0  0
   -0.9727    3.8414    0.7709 O   0  0  0  0  0  0  0  0  0  0  0  0
   -3.3376    1.7803    1.0960 C   0  0  0  0  0  0  0  0  0  0  0  0
   -1.2170    3.0062    2.9941 H   0  0  0  0  0  0  0  0  0  0  0  0
   -1.4776    0.7123    1.2767 H   0  0  0  0  0  0  0  0  0  0  0  0
   -3.7351    2.7787    1.3037 H   0  0  0  0  0  0  0  0  0  0  0  0
   -3.5225    1.5483    0.0435 H   0  0  0  0  0  0  0  0  0  0  0  0
   -3.8803    1.0541    1.7083 H   0  0  0  0  0  0  0  0  0  0  0  0
   -0.3455    2.2571   -0.6912 N   0  0  0  0  0  0  0  0  0  0  0  0
   -0.0906    0.9449   -1.2761 C   0  0  2  0  0  0  0  0  0  0  0  0
   -1.1586   -0.1690   -1.0916 C   0  0  0  0  0  0  0  0  0  0  0  0
   -2.2281   -0.0142   -1.6579 O   0  0  0  0  0  0  0  0  0  0  0  0
    1.3915    0.7787   -0.9167 C   0  0  0  0  0  0  0  0  0  0  0  0
    1.8466    2.2352   -0.7215 C   0  0  0  0  0  0  0  0  0  0  0  0
    0.7350    3.0647   -1.3257 C   0  0  0  0  0  0  0  0  0  0  0  0
   -0.1210    1.0584   -2.3661 H   0  0  0  0  0  0  0  0  0  0  0  0
    1.9343    0.2917   -1.7327 H   0  0  0  0  0  0  0  0  0  0  0  0
    1.5672    0.2258   -0.0029 H   0  0  0  0  0  0  0  0  0  0  0  0
    1.9567    2.4624    0.3456 H   0  0  0  0  0  0  0  0  0  0  0  0
    2.8037    2.4300   -1.2146 H   0  0  0  0  0  0  0  0  0  0  0  0
    0.7701    4.1076   -0.9931 H   0  0  0  0  0  0  0  0  0  0  0  0
    0.7175    3.0477   -2.4213 H   0  0  0  0  0  0  0  0  0  0  0  0
   -1.2440   -1.3018   -0.2998 N   0  0  0  0  0  0  0  0  0  0  0  0
   -0.2793   -2.1177    0.4654 C   0  0  2  0  0  0  0  0  0  0  0  0
    0.2025   -1.5911    1.8457 C   0  0  0  0  0  0  0  0  0  0  0  0
    0.6012   -0.4476    2.0126 O   0  0  0  0  0  0  0  0  0  0  0  0
    0.8737   -2.6168   -0.4154 C   0  0  0  0  0  0  0  0  0  0  0  0
   -2.1852   -1.6836   -0.3623 H   0  0  0  0  0  0  0  0  0  0  0  0
   -0.8493   -3.0177    0.7151 H   0  0  0  0  0  0  0  0  0  0  0  0
    1.6075   -1.8384   -0.6149 H   0  0  0  0  0  0  0  0  0  0  0  0
    1.3917   -3.4411    0.0844 H   0  0  0  0  0  0  0  0  0  0  0  0
    0.4880   -2.9833   -1.3718 H   0  0  0  0  0  0  0  0  0  0  0  0
    0.2691   -2.4663    2.9159 N   0  0  0  0  0  0  0  0  0  0  0  0
    0.6424   -2.0467    4.2620 C   0  0  0  0  0  0  0  0  0  0  0  0
   -0.1769   -3.3709    2.8024 H   0  0  0  0  0  0  0  0  0  0  0  0
   -0.0852   -1.3308    4.6568 H   0  0  0  0  0  0  0  0  0  0  0  0
    1.6320   -1.5778    4.2590 H   0  0  0  0  0  0  0  0  0  0  0  0
    0.6748   -2.9113    4.9314 H   0  0  0  0  0  0  0  0  0  0  0  0
  1  2  2  0  0  0  0
  1  3  1  0  0  0  0
  1  7  1  0  0  0  0
  3  4  1  0  0  0  0
  3  5  1  0  0  0  0
  3  6  1  0  0  0  0
  7  8  1  0  0  0  0
  7 12  1  0  0  0  0
  8  9  1  0  0  0  0
  8 11  1  0  0  0  0
  8 13  1  0  0  0  0
  9 10  2  0  0  0  0
  9 17  1  0  0  0  0
 11 14  1  0  0  0  0
 11 15  1  0  0  0  0
 11 16  1  0  0  0  0
 17 18  1  0  0  0  0
 17 23  1  0  0  0  0
 18 19  1  0  0  0  0
 18 21  1  0  0  0  0
 18 24  1  0  0  0  0
 19 20  2  0  0  0  0
 19 31  1  0  0  0  0
 21 22  1  0  0  0  0
 21 25  1  0  0  0  0
 21 26  1  0  0  0  0
 22 23  1  0  0  0  0
 22 27  1  0  0  0  0
 22 28  1  0  0  0  0
 23 29  1  0  0  0  0
 23 30  1  0  0  0  0
 31 32  1  0  0  0  0
 31 36  1  0  0  0  0
 32 33  1  0  0  0  0
 32 35  1  0  0  0  0
 32 37  1  0  0  0  0
 33 34  2  0  0  0  0
 33 41  1  0  0  0  0
 35 38  1  0  0  0  0
 35 39  1  0  0  0  0
 35 40  1  0  0  0  0
 41 42  1  0  0  0  0
 41 43  1  0  0  0  0
 42 44  1  0  0  0  0
 42 45  1  0  0  0  0
 42 46  1  0  0  0  0
M  END
$$$$

  -OEChem-05262217223D

 46 46  0     1  0  0  0  0  0999 V2000
   -2.5675    1.7851    3.5936 C   0  0  0  0  0  0  0  0  0  0  0  0
   -2.5593    0.5631    3.6607 O   0  0  0  0  0  0  0  0  0  0  0  0
   -2.7830    2.6194    4.8417 C   0  0  0  0  0  0  0  0  0  0  0  0
   -3.7045    3.1991    4.7459 H   0  0  0  0  0  0  0  0  0  0  0  0
   -2.8623    1.9725    5.7200 H   0  0  0  0  0  0  0  0  0  0  0  0
   -1.9433    3.3045    4.9836 H   0  0  0  0  0  0  0  0  0  0  0  0
   -2.3518    2.4043    2.3818 N   0  0  0  0  0  0  0  0  0  0  0  0
   -2.0670    1.6934    1.1294 C   0  0  2  0  0  0  0  0  0  0  0  0
   -1.1871    2.5174    0.1628 C   0  0  0  0  0  0  0  0  0  0  0  0
   -1.2546    3.7407    0.2639 O   0  0  0  0  0  0  0  0  0  0  0  0
   -3.4137    1.3549    0.4802 C   0  0  0  0  0  0  0  0  0  0  0  0
   -2.3043    3.4226    2.3605 H   0  0  0  0  0  0  0  0  0  0  0  0
   -1.5227    0.7871    1.3749 H   0  0  0  0  0  0  0  0  0  0  0  0
   -3.9819    0.6717    1.1187 H   0  0  0  0  0  0  0  0  0  0  0  0
   -3.2735    0.8791   -0.4930 H   0  0  0  0  0  0  0  0  0  0  0  0
   -4.0032    2.2650    0.3308 H   0  0  0  0  0  0  0  0  0  0  0  0
   -0.2021    1.9876   -0.6810 N   0  0  0  0  0  0  0  0  0  0  0  0
    0.2735    0.6209   -0.9028 C   0  0  2  0  0  0  0  0  0  0  0  0
   -0.6807   -0.5951   -0.7198 C   0  0  0  0  0  0  0  0  0  0  0  0
   -1.5799   -0.7292   -1.5313 O   0  0  0  0  0  0  0  0  0  0  0  0
    1.5817    0.6984   -0.0999 C   0  0  0  0  0  0  0  0  0  0  0  0
    1.8891    2.2043   -0.0770 C   0  0  0  0  0  0  0  0  0  0  0  0
    0.9772    2.7760   -1.1378 C   0  0  0  0  0  0  0  0  0  0  0  0
    0.5442    0.5262   -1.9610 H   0  0  0  0  0  0  0  0  0  0  0  0
    2.3788    0.1235   -0.5813 H   0  0  0  0  0  0  0  0  0  0  0  0
    1.4639    0.3587    0.9241 H   0  0  0  0  0  0  0  0  0  0  0  0
    1.6610    2.6345    0.9054 H   0  0  0  0  0  0  0  0  0  0  0  0
    2.9404    2.4059   -0.3036 H   0  0  0  0  0  0  0  0  0  0  0  0
    0.8591    3.8608   -1.0443 H   0  0  0  0  0  0  0  0  0  0  0  0
    1.2963    2.5475   -2.1612 H   0  0  0  0  0  0  0  0  0  0  0  0
   -0.9521   -1.3683    0.3944 N   0  0  0  0  0  0  0  0  0  0  0  0
    0.0133   -2.2188    1.1204 C   0  0  2  0  0  0  0  0  0  0  0  0
    0.7284   -1.5640    2.3282 C   0  0  0  0  0  0  0  0  0  0  0  0
    1.9275   -1.7386    2.5082 O   0  0  0  0  0  0  0  0  0  0  0  0
    0.9821   -2.8906    0.1298 C   0  0  0  0  0  0  0  0  0  0  0  0
   -1.8621   -1.8065    0.2625 H   0  0  0  0  0  0  0  0  0  0  0  0
   -0.5747   -3.0285    1.5634 H   0  0  0  0  0  0  0  0  0  0  0  0
    1.6794   -2.1643   -0.2951 H   0  0  0  0  0  0  0  0  0  0  0  0
    1.5660   -3.6638    0.6399 H   0  0  0  0  0  0  0  0  0  0  0  0
    0.4284   -3.3649   -0.6866 H   0  0  0  0  0  0  0  0  0  0  0  0
    0.0466   -0.7422    3.2063 N   0  0  0  0  0  0  0  0  0  0  0  0
    0.6782   -0.0958    4.3496 C   0  0  0  0  0  0  0  0  0  0  0  0
   -0.9581   -0.6044    3.0679 H   0  0  0  0  0  0  0  0  0  0  0  0
    1.4167    0.6390    4.0130 H   0  0  0  0  0  0  0  0  0  0  0  0
    1.1782   -0.8357    4.9834 H   0  0  0  0  0  0  0  0  0  0  0  0
   -0.0740    0.4194    4.9540 H   0  0  0  0  0  0  0  0  0  0  0  0
  1  2  2  0  0  0  0
  1  3  1  0  0  0  0
  1  7  1  0  0  0  0
  3  4  1  0  0  0  0
  3  5  1  0  0  0  0
  3  6  1  0  0  0  0
  7  8  1  0  0  0  0
  7 12  1  0  0  0  0
  8  9  1  0  0  0  0
  8 11  1  0  0  0  0
  8 13  1  0  0  0  0
  9 10  2  0  0  0  0
  9 17  1  0  0  0  0
 11 14  1  0  0  0  0
 11 15  1  0  0  0  0
 11 16  1  0  0  0  0
 17 18  1  0  0  0  0
 17 23  1  0  0  0  0
 18 19  1  0  0  0  0
 18 21  1  0  0  0  0
 18 24  1  0  0  0  0
 19 20  2  0  0  0  0
 19 31  1  0  0  0  0
 21 22  1  0  0  0  0
 21 25  1  0  0  0  0
 21 26  1  0  0  0  0
 22 23  1  0  0  0  0
 22 27  1  0  0  0  0
 22 28  1  0  0  0  0
 23 29  1  0  0  0  0
 23 30  1  0  0  0  0
 31 32  1  0  0  0  0
 31 36  1  0  0  0  0
 32 33  1  0  0  0  0
 32 35  1  0  0  0  0
 32 37  1  0  0  0  0
 33 34  2  0  0  0  0
 33 41  1  0  0  0  0
 35 38  1  0  0  0  0
 35 39  1  0  0  0  0
 35 40  1  0  0  0  0
 41 42  1  0  0  0  0
 41 43  1  0  0  0  0
 42 44  1  0  0  0  0
 42 45  1  0  0  0  0
 42 46  1  0  0  0  0
M  END
$$$$

  -OEChem-05262217223D

 46 46  0     1  0  0  0  0  0999 V2000
   -2.5637    2.2878    3.7279 C   0  0  0  0  0  0  0  0  0  0  0  0
   -2.7017    1.0759    3.8286 O   0  0  0  0  0  0  0  0  0  0  0  0
   -2.7787    3.1845    4.9319 C   0  0  0  0  0  0  0  0  0  0  0  0
   -3.5469    3.9293    4.7100 H   0  0  0  0  0  0  0  0  0  0  0  0
   -3.1022    2.5913    5.7917 H   0  0  0  0  0  0  0  0  0  0  0  0
   -1.8481    3.6972    5.1868 H   0  0  0  0  0  0  0  0  0  0  0  0
   -2.1888    2.8335    2.5193 N   0  0  0  0  0  0  0  0  0  0  0  0
   -1.9357    2.0541    1.3008 C   0  0  2  0  0  0  0  0  0  0  0  0
   -1.0094    2.7756    0.2994 C   0  0  0  0  0  0  0  0  0  0  0  0
   -0.9220    3.9968    0.4107 O   0  0  0  0  0  0  0  0  0  0  0  0
   -3.2960    1.7656    0.6504 C   0  0  0  0  0  0  0  0  0  0  0  0
   -2.0275    3.8392    2.4704 H   0  0  0  0  0  0  0  0  0  0  0  0
   -1.4368    1.1358    1.5912 H   0  0  0  0  0  0  0  0  0  0  0  0
   -3.8339    2.7010    0.4658 H   0  0  0  0  0  0  0  0  0  0  0  0
   -3.1751    1.2518   -0.3060 H   0  0  0  0  0  0  0  0  0  0  0  0
   -3.9068    1.1360    1.3045 H   0  0  0  0  0  0  0  0  0  0  0  0
   -0.1490    2.1396   -0.6051 N   0  0  0  0  0  0  0  0  0  0  0  0
    0.1475    0.7324   -0.8877 C   0  0  2  0  0  0  0  0  0  0  0  0
   -0.8999   -0.4014   -0.6919 C   0  0  0  0  0  0  0  0  0  0  0  0
   -1.7389   -0.5433   -1.5651 O   0  0  0  0  0  0  0  0  0  0  0  0
    1.5028    0.6120   -0.1795 C   0  0  0  0  0  0  0  0  0  0  0  0
    1.9950    2.0674   -0.1408 C   0  0  0  0  0  0  0  0  0  0  0  0
    1.0928    2.7879   -1.1188 C   0  0  0  0  0  0  0  0  0  0  0  0
    0.3399    0.6521   -1.9646 H   0  0  0  0  0  0  0  0  0  0  0  0
    2.1829   -0.0397   -0.7373 H   0  0  0  0  0  0  0  0  0  0  0  0
    1.4146    0.2436    0.8379 H   0  0  0  0  0  0  0  0  0  0  0  0
    1.8883    2.4871    0.8662 H   0  0  0  0  0  0  0  0  0  0  0  0
    3.0461    2.1460   -0.4349 H   0  0  0  0  0  0  0  0  0  0  0  0
    1.1239    3.8747   -0.9860 H   0  0  0  0  0  0  0  0  0  0  0  0
    1.3122    2.5614   -2.1687 H   0  0  0  0  0  0  0  0  0  0  0  0
   -1.3563   -0.9899    0.4727 N   0  0  0  0  0  0  0  0  0  0  0  0
   -0.5755   -1.9475    1.2867 C   0  0  2  0  0  0  0  0  0  0  0  0
    0.2807   -1.3514    2.4339 C   0  0  0  0  0  0  0  0  0  0  0  0
    1.4581   -1.6664    2.5591 O   0  0  0  0  0  0  0  0  0  0  0  0
    0.2308   -2.8842    0.3667 C   0  0  0  0  0  0  0  0  0  0  0  0
   -2.3127   -1.2988    0.3084 H   0  0  0  0  0  0  0  0  0  0  0  0
   -1.3095   -2.5789    1.7970 H   0  0  0  0  0  0  0  0  0  0  0  0
    1.0475   -2.3464   -0.1242 H   0  0  0  0  0  0  0  0  0  0  0  0
    0.6647   -3.7034    0.9494 H   0  0  0  0  0  0  0  0  0  0  0  0
   -0.4165   -3.3185   -0.4019 H   0  0  0  0  0  0  0  0  0  0  0  0
   -0.2514   -0.4535    3.3400 N   0  0  0  0  0  0  0  0  0  0  0  0
    0.5174    0.1350    4.4295 C   0  0  0  0  0  0  0  0  0  0  0  0
   -1.2419   -0.2066    3.2608 H   0  0  0  0  0  0  0  0  0  0  0  0
    0.9499   -0.6470    5.0622 H   0  0  0  0  0  0  0  0  0  0  0  0
    1.3267    0.7571    4.0338 H   0  0  0  0  0  0  0  0  0  0  0  0
   -0.1286    0.7614    5.0520 H   0  0  0  0  0  0  0  0  0  0  0  0
  1  2  2  0  0  0  0
  1  3  1  0  0  0  0
  1  7  1  0  0  0  0
  3  4  1  0  0  0  0
  3  5  1  0  0  0  0
  3  6  1  0  0  0  0
  7  8  1  0  0  0  0
  7 12  1  0  0  0  0
  8  9  1  0  0  0  0
  8 11  1  0  0  0  0
  8 13  1  0  0  0  0
  9 10  2  0  0  0  0
  9 17  1  0  0  0  0
 11 14  1  0  0  0  0
 11 15  1  0  0  0  0
 11 16  1  0  0  0  0
 17 18  1  0  0  0  0
 17 23  1  0  0  0  0
 18 19  1  0  0  0  0
 18 21  1  0  0  0  0
 18 24  1  0  0  0  0
 19 20  2  0  0  0  0
 19 31  1  0  0  0  0
 21 22  1  0  0  0  0
 21 25  1  0  0  0  0
 21 26  1  0  0  0  0
 22 23  1  0  0  0  0
 22 27  1  0  0  0  0
 22 28  1  0  0  0  0
 23 29  1  0  0  0  0
 23 30  1  0  0  0  0
 31 32  1  0  0  0  0
 31 36  1  0  0  0  0
 32 33  1  0  0  0  0
 32 35  1  0  0  0  0
 32 37  1  0  0  0  0
 33 34  2  0  0  0  0
 33 41  1  0  0  0  0
 35 38  1  0  0  0  0
 35 39  1  0  0  0  0
 35 40  1  0  0  0  0
 41 42  1  0  0  0  0
 41 43  1  0  0  0  0
 42 44  1  0  0  0  0
 42 45  1  0  0  0  0
 42 46  1  0  0  0  0
M  END
$$$$

  -OEChem-05262217223D

 46 46  0     1  0  0  0  0  0999 V2000
   -0.3649    2.5127    4.1489 C   0  0  0  0  0  0  0  0  0  0  0  0
   -0.9010    1.4122    4.1628 O   0  0  0  0  0  0  0  0  0  0  0  0
    0.2161    3.0970    5.4224 C   0  0  0  0  0  0  0  0  0  0  0  0
   -0.2792    4.0417    5.6597 H   0  0  0  0  0  0  0  0  0  0  0  0
    0.0712    2.4044    6.2563 H   0  0  0  0  0  0  0  0  0  0  0  0
    1.2865    3.2769    5.2963 H   0  0  0  0  0  0  0  0  0  0  0  0
   -0.2840    3.2160    2.9652 N   0  0  0  0  0  0  0  0  0  0  0  0
   -0.7099    2.6751    1.6684 C   0  0  2  0  0  0  0  0  0  0  0  0
    0.1580    3.1411    0.4823 C   0  0  0  0  0  0  0  0  0  0  0  0
    0.8385    4.1480    0.6655 O   0  0  0  0  0  0  0  0  0  0  0  0
   -2.1719    3.0938    1.4610 C   0  0  0  0  0  0  0  0  0  0  0  0
    0.2668    4.0740    2.9537 H   0  0  0  0  0  0  0  0  0  0  0  0
   -0.5959    1.5962    1.7205 H   0  0  0  0  0  0  0  0  0  0  0  0
   -2.2668    4.1822    1.5305 H   0  0  0  0  0  0  0  0  0  0  0  0
   -2.5354    2.7874    0.4764 H   0  0  0  0  0  0  0  0  0  0  0  0
   -2.8096    2.6395    2.2258 H   0  0  0  0  0  0  0  0  0  0  0  0
    0.3570    2.4227   -0.7063 N   0  0  0  0  0  0  0  0  0  0  0  0
   -0.1250    1.1239   -1.1985 C   0  0  2  0  0  0  0  0  0  0  0  0
   -1.4852    0.4739   -0.8134 C   0  0  0  0  0  0  0  0  0  0  0  0
   -2.4348    0.6492   -1.5567 O   0  0  0  0  0  0  0  0  0  0  0  0
    1.1166    0.2738   -0.8924 C   0  0  0  0  0  0  0  0  0  0  0  0
    2.2466    1.3147   -0.8460 C   0  0  0  0  0  0  0  0  0  0  0  0
    1.6288    2.5441   -1.4765 C   0  0  0  0  0  0  0  0  0  0  0  0
   -0.2198    1.2065   -2.2883 H   0  0  0  0  0  0  0  0  0  0  0  0
    1.2804   -0.4775   -1.6718 H   0  0  0  0  0  0  0  0  0  0  0  0
    1.0436   -0.2239    0.0771 H   0  0  0  0  0  0  0  0  0  0  0  0
    2.5507    1.5177    0.1874 H   0  0  0  0  0  0  0  0  0  0  0  0
    3.1275    0.9809   -1.4033 H   0  0  0  0  0  0  0  0  0  0  0  0
    2.2042    3.4517   -1.2646 H   0  0  0  0  0  0  0  0  0  0  0  0
    1.5019    2.4636   -2.5623 H   0  0  0  0  0  0  0  0  0  0  0  0
   -1.9007    0.1249    0.4503 N   0  0  0  0  0  0  0  0  0  0  0  0
   -2.1240   -1.2927    0.7778 C   0  0  2  0  0  0  0  0  0  0  0  0
   -3.0046   -1.4485    2.0368 C   0  0  0  0  0  0  0  0  0  0  0  0
   -3.8488   -2.3325    2.0713 O   0  0  0  0  0  0  0  0  0  0  0  0
   -0.8022   -2.0334    0.9948 C   0  0  0  0  0  0  0  0  0  0  0  0
   -2.7555    0.6480    0.6355 H   0  0  0  0  0  0  0  0  0  0  0  0
   -2.6616   -1.7715   -0.0493 H   0  0  0  0  0  0  0  0  0  0  0  0
   -0.1875   -1.5157    1.7380 H   0  0  0  0  0  0  0  0  0  0  0  0
   -0.9943   -3.0503    1.3528 H   0  0  0  0  0  0  0  0  0  0  0  0
   -0.2472   -2.1092    0.0564 H   0  0  0  0  0  0  0  0  0  0  0  0
   -2.8673   -0.6000    3.1220 N   0  0  0  0  0  0  0  0  0  0  0  0
   -3.6411   -0.7464    4.3475 C   0  0  0  0  0  0  0  0  0  0  0  0
   -2.0752    0.0472    3.1336 H   0  0  0  0  0  0  0  0  0  0  0  0
   -4.7094   -0.6233    4.1428 H   0  0  0  0  0  0  0  0  0  0  0  0
   -3.4773   -1.7341    4.7906 H   0  0  0  0  0  0  0  0  0  0  0  0
   -3.3392    0.0132    5.0752 H   0  0  0  0  0  0  0  0  0  0  0  0
  1  2  2  0  0  0  0
  1  3  1  0  0  0  0
  1  7  1  0  0  0  0
  3  4  1  0  0  0  0
  3  5  1  0  0  0  0
  3  6  1  0  0  0  0
  7  8  1  0  0  0  0
  7 12  1  0  0  0  0
  8  9  1  0  0  0  0
  8 11  1  0  0  0  0
  8 13  1  0  0  0  0
  9 10  2  0  0  0  0
  9 17  1  0  0  0  0
 11 14  1  0  0  0  0
 11 15  1  0  0  0  0
 11 16  1  0  0  0  0
 17 18  1  0  0  0  0
 17 23  1  0  0  0  0
 18 19  1  0  0  0  0
 18 21  1  0  0  0  0
 18 24  1  0  0  0  0
 19 20  2  0  0  0  0
 19 31  1  0  0  0  0
 21 22  1  0  0  0  0
 21 25  1  0  0  0  0
 21 26  1  0  0  0  0
 22 23  1  0  0  0  0
 22 27  1  0  0  0  0
 22 28  1  0  0  0  0
 23 29  1  0  0  0  0
 23 30  1  0  0  0  0
 31 32  1  0  0  0  0
 31 36  1  0  0  0  0
 32 33  1  0  0  0  0
 32 35  1  0  0  0  0
 32 37  1  0  0  0  0
 33 34  2  0  0  0  0
 33 41  1  0  0  0  0
 35 38  1  0  0  0  0
 35 39  1  0  0  0  0
 35 40  1  0  0  0  0
 41 42  1  0  0  0  0
 41 43  1  0  0  0  0
 42 44  1  0  0  0  0
 42 45  1  0  0  0  0
 42 46  1  0  0  0  0
M  END
$$$$

  -OEChem-05262217223D

 46 46  0     1  0  0  0  0  0999 V2000
   -0.5039    2.3902    3.2271 C   0  0  0  0  0  0  0  0  0  0  0  0
   -0.5274    1.2758    2.7337 O   0  0  0  0  0  0  0  0  0  0  0  0
    0.2010    2.6084    4.5524 C   0  0  0  0  0  0  0  0  0  0  0  0
   -0.5036    2.9975    5.2917 H   0  0  0  0  0  0  0  0  0  0  0  0
    0.6139    1.6655    4.9226 H   0  0  0  0  0  0  0  0  0  0  0  0
    1.0180    3.3237    4.4277 H   0  0  0  0  0  0  0  0  0  0  0  0
   -1.1202    3.4524    2.6041 N   0  0  0  0  0  0  0  0  0  0  0  0
   -1.7122    3.4966    1.2518 C   0  0  2  0  0  0  0  0  0  0  0  0
   -0.6751    3.6288    0.0980 C   0  0  0  0  0  0  0  0  0  0  0  0
   -0.3488    4.8036   -0.0521 O   0  0  0  0  0  0  0  0  0  0  0  0
   -2.9103    2.5712    1.0224 C   0  0  0  0  0  0  0  0  0  0  0  0
   -0.9767    4.3539    3.0535 H   0  0  0  0  0  0  0  0  0  0  0  0
   -2.2017    4.4777    1.2357 H   0  0  0  0  0  0  0  0  0  0  0  0
   -3.8421    3.1322    1.1449 H   0  0  0  0  0  0  0  0  0  0  0  0
   -2.9036    2.1630    0.0074 H   0  0  0  0  0  0  0  0  0  0  0  0
   -2.9326    1.7627    1.7499 H   0  0  0  0  0  0  0  0  0  0  0  0
    0.0430    2.7024   -0.6935 N   0  0  0  0  0  0  0  0  0  0  0  0
    0.1968    1.2379   -0.8493 C   0  0  2  0  0  0  0  0  0  0  0  0
   -0.8056    0.0861   -0.5895 C   0  0  0  0  0  0  0  0  0  0  0  0
   -0.8935   -0.7857   -1.4446 O   0  0  0  0  0  0  0  0  0  0  0  0
    1.5147    1.0034   -0.1035 C   0  0  0  0  0  0  0  0  0  0  0  0
    2.1833    2.3793   -0.1687 C   0  0  0  0  0  0  0  0  0  0  0  0
    1.3851    3.1097   -1.2296 C   0  0  0  0  0  0  0  0  0  0  0  0
    0.3767    1.0856   -1.9212 H   0  0  0  0  0  0  0  0  0  0  0  0
    2.1116    0.2357   -0.6071 H   0  0  0  0  0  0  0  0  0  0  0  0
    1.3536    0.6970    0.9346 H   0  0  0  0  0  0  0  0  0  0  0  0
    2.1103    2.8946    0.7956 H   0  0  0  0  0  0  0  0  0  0  0  0
    3.2402    2.3043   -0.4426 H   0  0  0  0  0  0  0  0  0  0  0  0
    1.5962    4.1837   -1.2184 H   0  0  0  0  0  0  0  0  0  0  0  0
    1.5858    2.7530   -2.2468 H   0  0  0  0  0  0  0  0  0  0  0  0
   -1.6081   -0.0329    0.5226 N   0  0  0  0  0  0  0  0  0  0  0  0
   -2.3875   -1.2418    0.8591 C   0  0  2  0  0  0  0  0  0  0  0  0
   -3.3416   -1.0223    2.0508 C   0  0  0  0  0  0  0  0  0  0  0  0
   -4.5086   -1.3833    1.9897 O   0  0  0  0  0  0  0  0  0  0  0  0
   -1.4365   -2.3972    1.2077 C   0  0  0  0  0  0  0  0  0  0  0  0
   -1.3767    0.6068    1.2842 H   0  0  0  0  0  0  0  0  0  0  0  0
   -2.9992   -1.5279   -0.0039 H   0  0  0  0  0  0  0  0  0  0  0  0
   -0.7723   -2.1150    2.0304 H   0  0  0  0  0  0  0  0  0  0  0  0
   -2.0099   -3.2795    1.5090 H   0  0  0  0  0  0  0  0  0  0  0  0
   -0.8233   -2.6728    0.3450 H   0  0  0  0  0  0  0  0  0  0  0  0
   -2.8827   -0.4210    3.2093 N   0  0  0  0  0  0  0  0  0  0  0  0
   -3.7345   -0.1233    4.3525 C   0  0  0  0  0  0  0  0  0  0  0  0
   -1.9266   -0.0626    3.1951 H   0  0  0  0  0  0  0  0  0  0  0  0
   -3.1514    0.3619    5.1409 H   0  0  0  0  0  0  0  0  0  0  0  0
   -4.5480    0.5483    4.0588 H   0  0  0  0  0  0  0  0  0  0  0  0
   -4.1664   -1.0441    4.7585 H   0  0  0  0  0  0  0  0  0  0  0  0
  1  2  2  0  0  0  0
  1  3  1  0  0  0  0
  1  7  1  0  0  0  0
  3  4  1  0  0  0  0
  3  5  1  0  0  0  0
  3  6  1  0  0  0  0
  7  8  1  0  0  0  0
  7 12  1  0  0  0  0
  8  9  1  0  0  0  0
  8 11  1  0  0  0  0
  8 13  1  0  0  0  0
  9 10  2  0  0  0  0
  9 17  1  0  0  0  0
 11 14  1  0  0  0  0
 11 15  1  0  0  0  0
 11 16  1  0  0  0  0
 17 18  1  0  0  0  0
 17 23  1  0  0  0  0
 18 19  1  0  0  0  0
 18 21  1  0  0  0  0
 18 24  1  0  0  0  0
 19 20  2  0  0  0  0
 19 31  1  0  0  0  0
 21 22  1  0  0  0  0
 21 25  1  0  0  0  0
 21 26  1  0  0  0  0
 22 23  1  0  0  0  0
 22 27  1  0  0  0  0
 22 28  1  0  0  0  0
 23 29  1  0  0  0  0
 23 30  1  0  0  0  0
 31 32  1  0  0  0  0
 31 36  1  0  0  0  0
 32 33  1  0  0  0  0
 32 35  1  0  0  0  0
 32 37  1  0  0  0  0
 33 34  2  0  0  0  0
 33 41  1  0  0  0  0
 35 38  1  0  0  0  0
 35 39  1  0  0  0  0
 35 40  1  0  0  0  0
 41 42  1  0  0  0  0
 41 43  1  0  0  0  0
 42 44  1  0  0  0  0
 42 45  1  0  0  0  0
 42 46  1  0  0  0  0
M  END
$$$$

  -OEChem-05262217223D

 46 46  0     1  0  0  0  0  0999 V2000
    0.7863    0.2955    3.1765 C   0  0  0  0  0  0  0  0  0  0  0  0
    0.5923   -0.9036    3.1364 O   0  0  0  0  0  0  0  0  0  0  0  0
    1.4807    0.9435    4.3636 C   0  0  0  0  0  0  0  0  0  0  0  0
    0.8396    1.7075    4.8080 H   0  0  0  0  0  0  0  0  0  0  0  0
    1.7002    0.1889    5.1242 H   0  0  0  0  0  0  0  0  0  0  0  0
    2.4202    1.4024    4.0465 H   0  0  0  0  0  0  0  0  0  0  0  0
    0.3043    0.9770    2.0840 N   0  0  0  0  0  0  0  0  0  0  0  0
    0.5599    2.3900    1.7773 C   0  0  2  0  0  0  0  0  0  0  0  0
    0.6468    2.6955    0.2648 C   0  0  0  0  0  0  0  0  0  0  0  0
    1.5434    3.4734   -0.0361 O   0  0  0  0  0  0  0  0  0  0  0  0
   -0.4293    3.3452    2.4637 C   0  0  0  0  0  0  0  0  0  0  0  0
    0.0283    0.3529    1.3282 H   0  0  0  0  0  0  0  0  0  0  0  0
    1.5519    2.6251    2.1795 H   0  0  0  0  0  0  0  0  0  0  0  0
   -0.6199    3.0382    3.4954 H   0  0  0  0  0  0  0  0  0  0  0  0
   -0.0080    4.3557    2.4824 H   0  0  0  0  0  0  0  0  0  0  0  0
   -1.3814    3.3997    1.9303 H   0  0  0  0  0  0  0  0  0  0  0  0
   -0.1137    2.1597   -0.7916 N   0  0  0  0  0  0  0  0  0  0  0  0
   -1.2097    1.1844   -0.9479 C   0  0  2  0  0  0  0  0  0  0  0  0
   -2.3455    0.8226    0.0449 C   0  0  0  0  0  0  0  0  0  0  0  0
   -3.3165    0.2377   -0.4190 O   0  0  0  0  0  0  0  0  0  0  0  0
   -0.4116   -0.0516   -1.3828 C   0  0  0  0  0  0  0  0  0  0  0  0
    0.8687    0.5619   -1.9646 C   0  0  0  0  0  0  0  0  0  0  0  0
    0.5156    2.0253   -2.1424 C   0  0  0  0  0  0  0  0  0  0  0  0
   -1.8031    1.5370   -1.8007 H   0  0  0  0  0  0  0  0  0  0  0  0
   -0.9656   -0.6252   -2.1337 H   0  0  0  0  0  0  0  0  0  0  0  0
   -0.1791   -0.7110   -0.5399 H   0  0  0  0  0  0  0  0  0  0  0  0
    1.7094    0.4455   -1.2710 H   0  0  0  0  0  0  0  0  0  0  0  0
    1.1432    0.0984   -2.9175 H   0  0  0  0  0  0  0  0  0  0  0  0
    1.4070    2.6418   -2.3010 H   0  0  0  0  0  0  0  0  0  0  0  0
   -0.1721    2.2109   -2.9761 H   0  0  0  0  0  0  0  0  0  0  0  0
   -2.4000    1.1315    1.3878 N   0  0  0  0  0  0  0  0  0  0  0  0
   -3.5070    0.7629    2.2855 C   0  0  2  0  0  0  0  0  0  0  0  0
   -4.6951    1.7456    2.1592 C   0  0  0  0  0  0  0  0  0  0  0  0
   -4.9968    2.5125    3.0659 O   0  0  0  0  0  0  0  0  0  0  0  0
   -2.9506    0.6782    3.7120 C   0  0  0  0  0  0  0  0  0  0  0  0
   -1.5810    1.5689    1.8011 H   0  0  0  0  0  0  0  0  0  0  0  0
   -3.8803   -0.2334    2.0243 H   0  0  0  0  0  0  0  0  0  0  0  0
   -2.5606    1.6477    4.0352 H   0  0  0  0  0  0  0  0  0  0  0  0
   -3.7405    0.3764    4.4072 H   0  0  0  0  0  0  0  0  0  0  0  0
   -2.1470   -0.0622    3.7650 H   0  0  0  0  0  0  0  0  0  0  0  0
   -5.3993    1.7895    0.9724 N   0  0  0  0  0  0  0  0  0  0  0  0
   -6.4704    2.7369    0.6968 C   0  0  0  0  0  0  0  0  0  0  0  0
   -5.0430    1.1994    0.2171 H   0  0  0  0  0  0  0  0  0  0  0  0
   -7.2628    2.6483    1.4473 H   0  0  0  0  0  0  0  0  0  0  0  0
   -6.0865    3.7621    0.7076 H   0  0  0  0  0  0  0  0  0  0  0  0
   -6.9050    2.5384   -0.2875 H   0  0  0  0  0  0  0  0  0  0  0  0
  1  2  2  0  0  0  0
  1  3  1  0  0  0  0
  1  7  1  0  0  0  0
  3  4  1  0  0  0  0
  3  5  1  0  0  0  0
  3  6  1  0  0  0  0
  7  8  1  0  0  0  0
  7 12  1  0  0  0  0
  8  9  1  0  0  0  0
  8 11  1  0  0  0  0
  8 13  1  0  0  0  0
  9 10  2  0  0  0  0
  9 17  1  0  0  0  0
 11 14  1  0  0  0  0
 11 15  1  0  0  0  0
 11 16  1  0  0  0  0
 17 18  1  0  0  0  0
 17 23  1  0  0  0  0
 18 19  1  0  0  0  0
 18 21  1  0  0  0  0
 18 24  1  0  0  0  0
 19 20  2  0  0  0  0
 19 31  1  0  0  0  0
 21 22  1  0  0  0  0
 21 25  1  0  0  0  0
 21 26  1  0  0  0  0
 22 23  1  0  0  0  0
 22 27  1  0  0  0  0
 22 28  1  0  0  0  0
 23 29  1  0  0  0  0
 23 30  1  0  0  0  0
 31 32  1  0  0  0  0
 31 36  1  0  0  0  0
 32 33  1  0  0  0  0
 32 35  1  0  0  0  0
 32 37  1  0  0  0  0
 33 34  2  0  0  0  0
 33 41  1  0  0  0  0
 35 38  1  0  0  0  0
 35 39  1  0  0  0  0
 35 40  1  0  0  0  0
 41 42  1  0  0  0  0
 41 43  1  0  0  0  0
 42 44  1  0  0  0  0
 42 45  1  0  0  0  0
 42 46  1  0  0  0  0
M  END
$$$$

  -OEChem-05262217223D

 46 46  0     1  0  0  0  0  0999 V2000
   -0.1359    0.9075    3.4131 C   0  0  0  0  0  0  0  0  0  0  0  0
   -1.1313    0.5234    4.0088 O   0  0  0  0  0  0  0  0  0  0  0  0
    1.2026    0.2388    3.6607 C   0  0  0  0  0  0  0  0  0  0  0  0
    1.9392    0.9801    3.9790 H   0  0  0  0  0  0  0  0  0  0  0  0
    1.1071   -0.5200    4.4424 H   0  0  0  0  0  0  0  0  0  0  0  0
    1.5520   -0.2437    2.7440 H   0  0  0  0  0  0  0  0  0  0  0  0
   -0.2291    1.9135    2.4721 N   0  0  0  0  0  0  0  0  0  0  0  0
   -1.4795    2.5917    2.0879 C   0  0  2  0  0  0  0  0  0  0  0  0
   -1.4430    3.0802    0.6113 C   0  0  0  0  0  0  0  0  0  0  0  0
   -1.6231    4.2782    0.4119 O   0  0  0  0  0  0  0  0  0  0  0  0
   -1.6895    3.7336    3.0967 C   0  0  0  0  0  0  0  0  0  0  0  0
    0.6306    2.1899    2.0064 H   0  0  0  0  0  0  0  0  0  0  0  0
   -2.3318    1.9259    2.1930 H   0  0  0  0  0  0  0  0  0  0  0  0
   -1.7424    3.3387    4.1160 H   0  0  0  0  0  0  0  0  0  0  0  0
   -0.8655    4.4522    3.0432 H   0  0  0  0  0  0  0  0  0  0  0  0
   -2.6250    4.2612    2.8863 H   0  0  0  0  0  0  0  0  0  0  0  0
   -1.1181    2.3110   -0.5191 N   0  0  0  0  0  0  0  0  0  0  0  0
   -0.7365    0.9071   -0.7217 C   0  0  2  0  0  0  0  0  0  0  0  0
   -1.1817   -0.3078    0.1386 C   0  0  0  0  0  0  0  0  0  0  0  0
   -0.4114   -1.2507    0.2373 O   0  0  0  0  0  0  0  0  0  0  0  0
    0.7847    1.0744   -0.8633 C   0  0  0  0  0  0  0  0  0  0  0  0
    0.9250    2.5398   -1.3038 C   0  0  0  0  0  0  0  0  0  0  0  0
   -0.4798    2.9288   -1.7182 C   0  0  0  0  0  0  0  0  0  0  0  0
   -1.1463    0.6116   -1.6945 H   0  0  0  0  0  0  0  0  0  0  0  0
    1.1811    0.3825   -1.6136 H   0  0  0  0  0  0  0  0  0  0  0  0
    1.3050    0.9001    0.0838 H   0  0  0  0  0  0  0  0  0  0  0  0
    1.2724    3.1663   -0.4747 H   0  0  0  0  0  0  0  0  0  0  0  0
    1.6298    2.6461   -2.1342 H   0  0  0  0  0  0  0  0  0  0  0  0
   -0.6014    4.0146   -1.7924 H   0  0  0  0  0  0  0  0  0  0  0  0
   -0.7967    2.4840   -2.6688 H   0  0  0  0  0  0  0  0  0  0  0  0
   -2.0159   -0.2791    1.2258 N   0  0  0  0  0  0  0  0  0  0  0  0
   -3.4617   -0.3767    0.9711 C   0  0  2  0  0  0  0  0  0  0  0  0
   -4.0377    0.7562    0.0887 C   0  0  0  0  0  0  0  0  0  0  0  0
   -3.9499    0.6584   -1.1275 O   0  0  0  0  0  0  0  0  0  0  0  0
   -4.1616   -0.4621    2.3334 C   0  0  0  0  0  0  0  0  0  0  0  0
   -1.6845   -0.9303    1.9353 H   0  0  0  0  0  0  0  0  0  0  0  0
   -3.6583   -1.3144    0.4384 H   0  0  0  0  0  0  0  0  0  0  0  0
   -3.9583    0.4259    2.9395 H   0  0  0  0  0  0  0  0  0  0  0  0
   -5.2441   -0.5565    2.2004 H   0  0  0  0  0  0  0  0  0  0  0  0
   -3.8063   -1.3384    2.8852 H   0  0  0  0  0  0  0  0  0  0  0  0
   -4.5694    1.9100    0.6363 N   0  0  0  0  0  0  0  0  0  0  0  0
   -4.9682    3.0640   -0.1616 C   0  0  0  0  0  0  0  0  0  0  0  0
   -4.5916    1.9820    1.6492 H   0  0  0  0  0  0  0  0  0  0  0  0
   -4.1415    3.3974   -0.7983 H   0  0  0  0  0  0  0  0  0  0  0  0
   -5.8230    2.8125   -0.7979 H   0  0  0  0  0  0  0  0  0  0  0  0
   -5.2529    3.8947    0.4912 H   0  0  0  0  0  0  0  0  0  0  0  0
  1  2  2  0  0  0  0
  1  3  1  0  0  0  0
  1  7  1  0  0  0  0
  3  4  1  0  0  0  0
  3  5  1  0  0  0  0
  3  6  1  0  0  0  0
  7  8  1  0  0  0  0
  7 12  1  0  0  0  0
  8  9  1  0  0  0  0
  8 11  1  0  0  0  0
  8 13  1  0  0  0  0
  9 10  2  0  0  0  0
  9 17  1  0  0  0  0
 11 14  1  0  0  0  0
 11 15  1  0  0  0  0
 11 16  1  0  0  0  0
 17 18  1  0  0  0  0
 17 23  1  0  0  0  0
 18 19  1  0  0  0  0
 18 21  1  0  0  0  0
 18 24  1  0  0  0  0
 19 20  2  0  0  0  0
 19 31  1  0  0  0  0
 21 22  1  0  0  0  0
 21 25  1  0  0  0  0
 21 26  1  0  0  0  0
 22 23  1  0  0  0  0
 22 27  1  0  0  0  0
 22 28  1  0  0  0  0
 23 29  1  0  0  0  0
 23 30  1  0  0  0  0
 31 32  1  0  0  0  0
 31 36  1  0  0  0  0
 32 33  1  0  0  0  0
 32 35  1  0  0  0  0
 32 37  1  0  0  0  0
 33 34  2  0  0  0  0
 33 41  1  0  0  0  0
 35 38  1  0  0  0  0
 35 39  1  0  0  0  0
 35 40  1  0  0  0  0
 41 42  1  0  0  0  0
 41 43  1  0  0  0  0
 42 44  1  0  0  0  0
 42 45  1  0  0  0  0
 42 46  1  0  0  0  0
M  END
$$$$

  -OEChem-05262217223D

 46 46  0     1  0  0  0  0  0999 V2000
   -0.3563    1.0108    3.3361 C   0  0  0  0  0  0  0  0  0  0  0  0
   -1.3623    0.5725    3.8757 O   0  0  0  0  0  0  0  0  0  0  0  0
    1.0033    0.4334    3.6794 C   0  0  0  0  0  0  0  0  0  0  0  0
    1.6889    1.2332    3.9698 H   0  0  0  0  0  0  0  0  0  0  0  0
    0.9140   -0.2730    4.5096 H   0  0  0  0  0  0  0  0  0  0  0  0
    1.4118   -0.0929    2.8126 H   0  0  0  0  0  0  0  0  0  0  0  0
   -0.4553    2.0108    2.3880 N   0  0  0  0  0  0  0  0  0  0  0  0
   -1.7207    2.6292    1.9545 C   0  0  2  0  0  0  0  0  0  0  0  0
   -1.7199    3.0350    0.4508 C   0  0  0  0  0  0  0  0  0  0  0  0
   -2.0232    4.1930    0.1786 O   0  0  0  0  0  0  0  0  0  0  0  0
   -1.9612    3.8188    2.8985 C   0  0  0  0  0  0  0  0  0  0  0  0
    0.4108    2.3335    1.9664 H   0  0  0  0  0  0  0  0  0  0  0  0
   -2.5567    1.9443    2.0975 H   0  0  0  0  0  0  0  0  0  0  0  0
   -1.9873    3.4807    3.9391 H   0  0  0  0  0  0  0  0  0  0  0  0
   -1.1650    4.5626    2.7923 H   0  0  0  0  0  0  0  0  0  0  0  0
   -2.9184    4.2992    2.6726 H   0  0  0  0  0  0  0  0  0  0  0  0
   -1.3046    2.2402   -0.6307 N   0  0  0  0  0  0  0  0  0  0  0  0
   -0.7769    0.8764   -0.7257 C   0  0  2  0  0  0  0  0  0  0  0  0
   -1.1370   -0.2742    0.2504 C   0  0  0  0  0  0  0  0  0  0  0  0
   -0.2444   -1.0095    0.6446 O   0  0  0  0  0  0  0  0  0  0  0  0
    0.7217    1.1897   -0.8647 C   0  0  0  0  0  0  0  0  0  0  0  0
    0.7141    2.6270   -1.4104 C   0  0  0  0  0  0  0  0  0  0  0  0
   -0.7170    2.8366   -1.8645 C   0  0  0  0  0  0  0  0  0  0  0  0
   -1.1318    0.4595   -1.6754 H   0  0  0  0  0  0  0  0  0  0  0  0
    1.2008    0.4898   -1.5571 H   0  0  0  0  0  0  0  0  0  0  0  0
    1.2429    1.1438    0.0968 H   0  0  0  0  0  0  0  0  0  0  0  0
    0.9817    3.3448   -0.6268 H   0  0  0  0  0  0  0  0  0  0  0  0
    1.4168    2.7472   -2.2408 H   0  0  0  0  0  0  0  0  0  0  0  0
   -0.9524    3.8955   -2.0149 H   0  0  0  0  0  0  0  0  0  0  0  0
   -0.9714    2.2944   -2.7828 H   0  0  0  0  0  0  0  0  0  0  0  0
   -2.1967   -0.2677    1.1241 N   0  0  0  0  0  0  0  0  0  0  0  0
   -3.5567   -0.5059    0.6217 C   0  0  2  0  0  0  0  0  0  0  0  0
   -4.0738    0.5461   -0.3850 C   0  0  0  0  0  0  0  0  0  0  0  0
   -3.8909    0.3596   -1.5803 O   0  0  0  0  0  0  0  0  0  0  0  0
   -4.4690   -0.6073    1.8491 C   0  0  0  0  0  0  0  0  0  0  0  0
   -1.9615   -0.7711    1.9797 H   0  0  0  0  0  0  0  0  0  0  0  0
   -3.5767   -1.4724    0.1055 H   0  0  0  0  0  0  0  0  0  0  0  0
   -5.5044   -0.7846    1.5409 H   0  0  0  0  0  0  0  0  0  0  0  0
   -4.1531   -1.4391    2.4867 H   0  0  0  0  0  0  0  0  0  0  0  0
   -4.4311    0.3113    2.4431 H   0  0  0  0  0  0  0  0  0  0  0  0
   -4.6669    1.7219    0.0373 N   0  0  0  0  0  0  0  0  0  0  0  0
   -5.0231    2.8071   -0.8693 C   0  0  0  0  0  0  0  0  0  0  0  0
   -4.7524    1.8712    1.0378 H   0  0  0  0  0  0  0  0  0  0  0  0
   -4.1579    3.1075   -1.4699 H   0  0  0  0  0  0  0  0  0  0  0  0
   -5.8278    2.4943   -1.5424 H   0  0  0  0  0  0  0  0  0  0  0  0
   -5.3637    3.6780   -0.3011 H   0  0  0  0  0  0  0  0  0  0  0  0
  1  2  2  0  0  0  0
  1  3  1  0  0  0  0
  1  7  1  0  0  0  0
  3  4  1  0  0  0  0
  3  5  1  0  0  0  0
  3  6  1  0  0  0  0
  7  8  1  0  0  0  0
  7 12  1  0  0  0  0
  8  9  1  0  0  0  0
  8 11  1  0  0  0  0
  8 13  1  0  0  0  0
  9 10  2  0  0  0  0
  9 17  1  0  0  0  0
 11 14  1  0  0  0  0
 11 15  1  0  0  0  0
 11 16  1  0  0  0  0
 17 18  1  0  0  0  0
 17 23  1  0  0  0  0
 18 19  1  0  0  0  0
 18 21  1  0  0  0  0
 18 24  1  0  0  0  0
 19 20  2  0  0  0  0
 19 31  1  0  0  0  0
 21 22  1  0  0  0  0
 21 25  1  0  0  0  0
 21 26  1  0  0  0  0
 22 23  1  0  0  0  0
 22 27  1  0  0  0  0
 22 28  1  0  0  0  0
 23 29  1  0  0  0  0
 23 30  1  0  0  0  0
 31 32  1  0  0  0  0
 31 36  1  0  0  0  0
 32 33  1  0  0  0  0
 32 35  1  0  0  0  0
 32 37  1  0  0  0  0
 33 34  2  0  0  0  0
 33 41  1  0  0  0  0
 35 38  1  0  0  0  0
 35 39  1  0  0  0  0
 35 40  1  0  0  0  0
 41 42  1  0  0  0  0
 41 43  1  0  0  0  0
 42 44  1  0  0  0  0
 42 45  1  0  0  0  0
 42 46  1  0  0  0  0
M  END
$$$$

  -OEChem-05262217223D

 46 46  0     1  0  0  0  0  0999 V2000
   -2.3718    0.4712    3.5147 C   0  0  0  0  0  0  0  0  0  0  0  0
   -2.6027   -0.7266    3.4930 O   0  0  0  0  0  0  0  0  0  0  0  0
   -2.9841    1.3326    4.6033 C   0  0  0  0  0  0  0  0  0  0  0  0
   -3.4598    2.2122    4.1637 H   0  0  0  0  0  0  0  0  0  0  0  0
   -3.7435    0.7642    5.1476 H   0  0  0  0  0  0  0  0  0  0  0  0
   -2.2124    1.6551    5.3059 H   0  0  0  0  0  0  0  0  0  0  0  0
   -1.4750    1.0349    2.6227 N   0  0  0  0  0  0  0  0  0  0  0  0
   -0.6496    0.2325    1.7004 C   0  0  2  0  0  0  0  0  0  0  0  0
    0.5644    0.9846    1.0844 C   0  0  0  0  0  0  0  0  0  0  0  0
    1.6024    0.8919    1.7271 O   0  0  0  0  0  0  0  0  0  0  0  0
   -1.4823   -0.5171    0.6449 C   0  0  0  0  0  0  0  0  0  0  0  0
   -1.1118    1.9368    2.9132 H   0  0  0  0  0  0  0  0  0  0  0  0
   -0.1922   -0.5556    2.3112 H   0  0  0  0  0  0  0  0  0  0  0  0
   -2.2476    0.1167    0.2031 H   0  0  0  0  0  0  0  0  0  0  0  0
   -0.8367   -0.9045   -0.1482 H   0  0  0  0  0  0  0  0  0  0  0  0
   -1.9911   -1.3708    1.1017 H   0  0  0  0  0  0  0  0  0  0  0  0
    0.6485    1.7829   -0.0732 N   0  0  0  0  0  0  0  0  0  0  0  0
   -0.2991    2.2145   -1.1053 C   0  0  2  0  0  0  0  0  0  0  0  0
   -1.8009    2.4273   -0.8298 C   0  0  0  0  0  0  0  0  0  0  0  0
   -2.6275    2.2059   -1.7043 O   0  0  0  0  0  0  0  0  0  0  0  0
    0.0238    1.2091   -2.2199 C   0  0  0  0  0  0  0  0  0  0  0  0
    1.4577    0.7834   -1.8712 C   0  0  0  0  0  0  0  0  0  0  0  0
    1.9134    1.8255   -0.8673 C   0  0  0  0  0  0  0  0  0  0  0  0
    0.0075    3.2117   -1.4405 H   0  0  0  0  0  0  0  0  0  0  0  0
   -0.0337    1.6874   -3.2033 H   0  0  0  0  0  0  0  0  0  0  0  0
   -0.6526    0.3482   -2.2109 H   0  0  0  0  0  0  0  0  0  0  0  0
    1.4695   -0.2178   -1.4256 H   0  0  0  0  0  0  0  0  0  0  0  0
    2.1021    0.7719   -2.7559 H   0  0  0  0  0  0  0  0  0  0  0  0
    2.8065    1.5029   -0.3207 H   0  0  0  0  0  0  0  0  0  0  0  0
    2.1228    2.8031   -1.3171 H   0  0  0  0  0  0  0  0  0  0  0  0
   -2.2174    2.8309    0.4243 N   0  0  0  0  0  0  0  0  0  0  0  0
   -3.5830    3.2081    0.8434 C   0  0  2  0  0  0  0  0  0  0  0  0
   -4.5646    2.0233    0.9669 C   0  0  0  0  0  0  0  0  0  0  0  0
   -5.1442    1.8440    2.0295 O   0  0  0  0  0  0  0  0  0  0  0  0
   -4.1662    4.3127   -0.0488 C   0  0  0  0  0  0  0  0  0  0  0  0
   -1.4724    2.9578    1.1013 H   0  0  0  0  0  0  0  0  0  0  0  0
   -3.4959    3.6341    1.8481 H   0  0  0  0  0  0  0  0  0  0  0  0
   -4.3896    3.9391   -1.0522 H   0  0  0  0  0  0  0  0  0  0  0  0
   -5.0972    4.6901    0.3860 H   0  0  0  0  0  0  0  0  0  0  0  0
   -3.4618    5.1452   -0.1347 H   0  0  0  0  0  0  0  0  0  0  0  0
   -4.7662    1.1501   -0.0822 N   0  0  0  0  0  0  0  0  0  0  0  0
   -5.5325   -0.0827    0.0346 C   0  0  0  0  0  0  0  0  0  0  0  0
   -4.2013    1.3139   -0.9191 H   0  0  0  0  0  0  0  0  0  0  0  0
   -6.5691    0.1353    0.3115 H   0  0  0  0  0  0  0  0  0  0  0  0
   -5.5356   -0.6176   -0.9198 H   0  0  0  0  0  0  0  0  0  0  0  0
   -5.0930   -0.7348    0.7970 H   0  0  0  0  0  0  0  0  0  0  0  0
  1  2  2  0  0  0  0
  1  3  1  0  0  0  0
  1  7  1  0  0  0  0
  3  4  1  0  0  0  0
  3  5  1  0  0  0  0
  3  6  1  0  0  0  0
  7  8  1  0  0  0  0
  7 12  1  0  0  0  0
  8  9  1  0  0  0  0
  8 11  1  0  0  0  0
  8 13  1  0  0  0  0
  9 10  2  0  0  0  0
  9 17  1  0  0  0  0
 11 14  1  0  0  0  0
 11 15  1  0  0  0  0
 11 16  1  0  0  0  0
 17 18  1  0  0  0  0
 17 23  1  0  0  0  0
 18 19  1  0  0  0  0
 18 21  1  0  0  0  0
 18 24  1  0  0  0  0
 19 20  2  0  0  0  0
 19 31  1  0  0  0  0
 21 22  1  0  0  0  0
 21 25  1  0  0  0  0
 21 26  1  0  0  0  0
 22 23  1  0  0  0  0
 22 27  1  0  0  0  0
 22 28  1  0  0  0  0
 23 29  1  0  0  0  0
 23 30  1  0  0  0  0
 31 32  1  0  0  0  0
 31 36  1  0  0  0  0
 32 33  1  0  0  0  0
 32 35  1  0  0  0  0
 32 37  1  0  0  0  0
 33 34  2  0  0  0  0
 33 41  1  0  0  0  0
 35 38  1  0  0  0  0
 35 39  1  0  0  0  0
 35 40  1  0  0  0  0
 41 42  1  0  0  0  0
 41 43  1  0  0  0  0
 42 44  1  0  0  0  0
 42 45  1  0  0  0  0
 42 46  1  0  0  0  0
M  END
$$$$

  -OEChem-05262217223D

 46 46  0     1  0  0  0  0  0999 V2000
    0.3398    0.7962    4.0978 C   0  0  0  0  0  0  0  0  0  0  0  0
   -0.2501   -0.2717    4.1200 O   0  0  0  0  0  0  0  0  0  0  0  0
    1.4828    1.0505    5.0621 C   0  0  0  0  0  0  0  0  0  0  0  0
    1.2363    1.8876    5.7195 H   0  0  0  0  0  0  0  0  0  0  0  0
    1.6648    0.1627    5.6745 H   0  0  0  0  0  0  0  0  0  0  0  0
    2.3934    1.2876    4.5067 H   0  0  0  0  0  0  0  0  0  0  0  0
   -0.0377    1.7826    3.2116 N   0  0  0  0  0  0  0  0  0  0  0  0
   -1.1155    1.6610    2.2197 C   0  0  2  0  0  0  0  0  0  0  0  0
   -0.8697    2.6498    1.0477 C   0  0  0  0  0  0  0  0  0  0  0  0
   -0.4544    3.7646    1.3590 O   0  0  0  0  0  0  0  0  0  0  0  0
   -2.4292    1.9635    2.9532 C   0  0  0  0  0  0  0  0  0  0  0  0
    0.4709    2.6650    3.2357 H   0  0  0  0  0  0  0  0  0  0  0  0
   -1.1259    0.6386    1.8390 H   0  0  0  0  0  0  0  0  0  0  0  0
   -2.4185    2.9839    3.3488 H   0  0  0  0  0  0  0  0  0  0  0  0
   -3.2856    1.8607    2.2875 H   0  0  0  0  0  0  0  0  0  0  0  0
   -2.5663    1.2683    3.7872 H   0  0  0  0  0  0  0  0  0  0  0  0
   -0.9236    2.3626   -0.3247 N   0  0  0  0  0  0  0  0  0  0  0  0
   -1.2112    1.1205   -1.0386 C   0  0  2  0  0  0  0  0  0  0  0  0
   -2.1577    0.0619   -0.4272 C   0  0  0  0  0  0  0  0  0  0  0  0
   -1.7615   -1.0579   -0.1502 O   0  0  0  0  0  0  0  0  0  0  0  0
    0.2249    0.6460   -1.3203 C   0  0  0  0  0  0  0  0  0  0  0  0
    1.0305    1.9528   -1.2492 C   0  0  0  0  0  0  0  0  0  0  0  0
   -0.0289    3.0348   -1.3094 C   0  0  0  0  0  0  0  0  0  0  0  0
   -1.6868    1.3625   -1.9949 H   0  0  0  0  0  0  0  0  0  0  0  0
    0.2906    0.1735   -2.3057 H   0  0  0  0  0  0  0  0  0  0  0  0
    0.5850   -0.0620   -0.5658 H   0  0  0  0  0  0  0  0  0  0  0  0
    1.5964    2.0112   -0.3125 H   0  0  0  0  0  0  0  0  0  0  0  0
    1.7352    2.0379   -2.0820 H   0  0  0  0  0  0  0  0  0  0  0  0
    0.3527    4.0076   -0.9812 H   0  0  0  0  0  0  0  0  0  0  0  0
   -0.4761    3.1543   -2.3032 H   0  0  0  0  0  0  0  0  0  0  0  0
   -3.3750    0.3247    0.1652 N   0  0  0  0  0  0  0  0  0  0  0  0
   -4.4406    1.1377   -0.4587 C   0  0  2  0  0  0  0  0  0  0  0  0
   -4.8619    0.6112   -1.8523 C   0  0  0  0  0  0  0  0  0  0  0  0
   -4.0754    0.6388   -2.7902 O   0  0  0  0  0  0  0  0  0  0  0  0
   -4.1175    2.6372   -0.5456 C   0  0  0  0  0  0  0  0  0  0  0  0
   -3.6888   -0.5056    0.6637 H   0  0  0  0  0  0  0  0  0  0  0  0
   -5.3136    1.0494    0.1949 H   0  0  0  0  0  0  0  0  0  0  0  0
   -3.3677    2.8406   -1.3140 H   0  0  0  0  0  0  0  0  0  0  0  0
   -5.0207    3.1954   -0.8098 H   0  0  0  0  0  0  0  0  0  0  0  0
   -3.7525    3.0177    0.4107 H   0  0  0  0  0  0  0  0  0  0  0  0
   -6.1460    0.1432   -2.0637 N   0  0  0  0  0  0  0  0  0  0  0  0
   -6.6033   -0.3814   -3.3454 C   0  0  0  0  0  0  0  0  0  0  0  0
   -6.7739    0.1028   -1.2666 H   0  0  0  0  0  0  0  0  0  0  0  0
   -6.5276    0.3851   -4.1238 H   0  0  0  0  0  0  0  0  0  0  0  0
   -6.0007   -1.2461   -3.6432 H   0  0  0  0  0  0  0  0  0  0  0  0
   -7.6487   -0.6971   -3.2733 H   0  0  0  0  0  0  0  0  0  0  0  0
  1  2  2  0  0  0  0
  1  3  1  0  0  0  0
  1  7  1  0  0  0  0
  3  4  1  0  0  0  0
  3  5  1  0  0  0  0
  3  6  1  0  0  0  0
  7  8  1  0  0  0  0
  7 12  1  0  0  0  0
  8  9  1  0  0  0  0
  8 11  1  0  0  0  0
  8 13  1  0  0  0  0
  9 10  2  0  0  0  0
  9 17  1  0  0  0  0
 11 14  1  0  0  0  0
 11 15  1  0  0  0  0
 11 16  1  0  0  0  0
 17 18  1  0  0  0  0
 17 23  1  0  0  0  0
 18 19  1  0  0  0  0
 18 21  1  0  0  0  0
 18 24  1  0  0  0  0
 19 20  2  0  0  0  0
 19 31  1  0  0  0  0
 21 22  1  0  0  0  0
 21 25  1  0  0  0  0
 21 26  1  0  0  0  0
 22 23  1  0  0  0  0
 22 27  1  0  0  0  0
 22 28  1  0  0  0  0
 23 29  1  0  0  0  0
 23 30  1  0  0  0  0
 31 32  1  0  0  0  0
 31 36  1  0  0  0  0
 32 33  1  0  0  0  0
 32 35  1  0  0  0  0
 32 37  1  0  0  0  0
 33 34  2  0  0  0  0
 33 41  1  0  0  0  0
 35 38  1  0  0  0  0
 35 39  1  0  0  0  0
 35 40  1  0  0  0  0
 41 42  1  0  0  0  0
 41 43  1  0  0  0  0
 42 44  1  0  0  0  0
 42 45  1  0  0  0  0
 42 46  1  0  0  0  0
M  END
$$$$

  -OEChem-05262217223D

 46 46  0     1  0  0  0  0  0999 V2000
    0.1307    0.8534    4.1437 C   0  0  0  0  0  0  0  0  0  0  0  0
   -0.2921   -0.2905    4.1098 O   0  0  0  0  0  0  0  0  0  0  0  0
    1.1554    1.2538    5.1879 C   0  0  0  0  0  0  0  0  0  0  0  0
    0.7563    2.0556    5.8138 H   0  0  0  0  0  0  0  0  0  0  0  0
    1.4000    0.3983    5.8238 H   0  0  0  0  0  0  0  0  0  0  0  0
    2.0686    1.6021    4.6994 H   0  0  0  0  0  0  0  0  0  0  0  0
   -0.3248    1.7924    3.2433 N   0  0  0  0  0  0  0  0  0  0  0  0
   -1.2610    1.5276    2.1412 C   0  0  2  0  0  0  0  0  0  0  0  0
   -1.0160    2.5319    0.9828 C   0  0  0  0  0  0  0  0  0  0  0  0
   -0.6662    3.6652    1.3083 O   0  0  0  0  0  0  0  0  0  0  0  0
   -2.6751    1.6570    2.7199 C   0  0  0  0  0  0  0  0  0  0  0  0
    0.0779    2.7272    3.2886 H   0  0  0  0  0  0  0  0  0  0  0  0
   -1.0959    0.5124    1.7756 H   0  0  0  0  0  0  0  0  0  0  0  0
   -2.8180    0.9359    3.5308 H   0  0  0  0  0  0  0  0  0  0  0  0
   -3.4314    1.4631    1.9599 H   0  0  0  0  0  0  0  0  0  0  0  0
   -2.8344    2.6646    3.1168 H   0  0  0  0  0  0  0  0  0  0  0  0
   -1.0146    2.2445   -0.3899 N   0  0  0  0  0  0  0  0  0  0  0  0
   -1.2303    0.9923   -1.1100 C   0  0  2  0  0  0  0  0  0  0  0  0
   -2.1549   -0.0936   -0.5128 C   0  0  0  0  0  0  0  0  0  0  0  0
   -1.7169   -1.1552   -0.1025 O   0  0  0  0  0  0  0  0  0  0  0  0
    0.2324    0.5702   -1.3349 C   0  0  0  0  0  0  0  0  0  0  0  0
    0.9867    1.9058   -1.2377 C   0  0  0  0  0  0  0  0  0  0  0  0
   -0.1094    2.9471   -1.3428 C   0  0  0  0  0  0  0  0  0  0  0  0
   -1.6726    1.2108   -2.0859 H   0  0  0  0  0  0  0  0  0  0  0  0
    0.3537    0.0995   -2.3160 H   0  0  0  0  0  0  0  0  0  0  0  0
    0.5902   -0.1227   -0.5656 H   0  0  0  0  0  0  0  0  0  0  0  0
    1.5130    1.9874   -0.2797 H   0  0  0  0  0  0  0  0  0  0  0  0
    1.7200    2.0148   -2.0427 H   0  0  0  0  0  0  0  0  0  0  0  0
    0.2213    3.9349   -1.0046 H   0  0  0  0  0  0  0  0  0  0  0  0
   -0.5219    3.0463   -2.3538 H   0  0  0  0  0  0  0  0  0  0  0  0
   -3.4945    0.0493   -0.2147 N   0  0  0  0  0  0  0  0  0  0  0  0
   -4.4803    0.8610   -0.9563 C   0  0  2  0  0  0  0  0  0  0  0  0
   -4.6616    0.3796   -2.4162 C   0  0  0  0  0  0  0  0  0  0  0  0
   -3.8219    0.6374   -3.2686 O   0  0  0  0  0  0  0  0  0  0  0  0
   -4.2123    2.3738   -0.9000 C   0  0  0  0  0  0  0  0  0  0  0  0
   -3.8443   -0.7922    0.2384 H   0  0  0  0  0  0  0  0  0  0  0  0
   -5.4398    0.7099   -0.4528 H   0  0  0  0  0  0  0  0  0  0  0  0
   -3.3752    2.6594   -1.5408 H   0  0  0  0  0  0  0  0  0  0  0  0
   -3.9981    2.6951    0.1222 H   0  0  0  0  0  0  0  0  0  0  0  0
   -5.0939    2.9190   -1.2503 H   0  0  0  0  0  0  0  0  0  0  0  0
   -5.7801   -0.3504   -2.7752 N   0  0  0  0  0  0  0  0  0  0  0  0
   -5.9891   -0.8813   -4.1173 C   0  0  0  0  0  0  0  0  0  0  0  0
   -6.4372   -0.6017   -2.0430 H   0  0  0  0  0  0  0  0  0  0  0  0
   -6.0042   -0.0702   -4.8527 H   0  0  0  0  0  0  0  0  0  0  0  0
   -5.1895   -1.5817   -4.3807 H   0  0  0  0  0  0  0  0  0  0  0  0
   -6.9446   -1.4119   -4.1700 H   0  0  0  0  0  0  0  0  0  0  0  0
  1  2  2  0  0  0  0
  1  3  1  0  0  0  0
  1  7  1  0  0  0  0
  3  4  1  0  0  0  0
  3  5  1  0  0  0  0
  3  6  1  0  0  0  0
  7  8  1  0  0  0  0
  7 12  1  0  0  0  0
  8  9  1  0  0  0  0
  8 11  1  0  0  0  0
  8 13  1  0  0  0  0
  9 10  2  0  0  0  0
  9 17  1  0  0  0  0
 11 14  1  0  0  0  0
 11 15  1  0  0  0  0
 11 16  1  0  0  0  0
 17 18  1  0  0  0  0
 17 23  1  0  0  0  0
 18 19  1  0  0  0  0
 18 21  1  0  0  0  0
 18 24  1  0  0  0  0
 19 20  2  0  0  0  0
 19 31  1  0  0  0  0
 21 22  1  0  0  0  0
 21 25  1  0  0  0  0
 21 26  1  0  0  0  0
 22 23  1  0  0  0  0
 22 27  1  0  0  0  0
 22 28  1  0  0  0  0
 23 29  1  0  0  0  0
 23 30  1  0  0  0  0
 31 32  1  0  0  0  0
 31 36  1  0  0  0  0
 32 33  1  0  0  0  0
 32 35  1  0  0  0  0
 32 37  1  0  0  0  0
 33 34  2  0  0  0  0
 33 41  1  0  0  0  0
 35 38  1  0  0  0  0
 35 39  1  0  0  0  0
 35 40  1  0  0  0  0
 41 42  1  0  0  0  0
 41 43  1  0  0  0  0
 42 44  1  0  0  0  0
 42 45  1  0  0  0  0
 42 46  1  0  0  0  0
M  END
$$$$

  -OEChem-05262217223D

 46 46  0     1  0  0  0  0  0999 V2000
   -1.0531    0.3763    3.9370 C   0  0  0  0  0  0  0  0  0  0  0  0
   -1.0318   -0.7971    3.6033 O   0  0  0  0  0  0  0  0  0  0  0  0
   -0.7261    0.7672    5.3661 C   0  0  0  0  0  0  0  0  0  0  0  0
   -1.5799    1.2787    5.8171 H   0  0  0  0  0  0  0  0  0  0  0  0
   -0.4956   -0.1232    5.9579 H   0  0  0  0  0  0  0  0  0  0  0  0
    0.1394    1.4341    5.3820 H   0  0  0  0  0  0  0  0  0  0  0  0
   -1.3785    1.3516    3.0188 N   0  0  0  0  0  0  0  0  0  0  0  0
   -1.6549    1.1130    1.5951 C   0  0  2  0  0  0  0  0  0  0  0  0
   -1.3854    2.3863    0.7542 C   0  0  0  0  0  0  0  0  0  0  0  0
   -1.5165    3.4659    1.3265 O   0  0  0  0  0  0  0  0  0  0  0  0
   -3.1236    0.6971    1.4776 C   0  0  0  0  0  0  0  0  0  0  0  0
   -1.3586    2.3225    3.3287 H   0  0  0  0  0  0  0  0  0  0  0  0
   -1.0036    0.3112    1.2391 H   0  0  0  0  0  0  0  0  0  0  0  0
   -3.7715    1.4441    1.9474 H   0  0  0  0  0  0  0  0  0  0  0  0
   -3.4140    0.6058    0.4320 H   0  0  0  0  0  0  0  0  0  0  0  0
   -3.2862   -0.2664    1.9705 H   0  0  0  0  0  0  0  0  0  0  0  0
   -0.8564    2.4160   -0.5434 N   0  0  0  0  0  0  0  0  0  0  0  0
   -0.4292    1.3395   -1.4308 C   0  0  2  0  0  0  0  0  0  0  0  0
   -1.0999   -0.0527   -1.3545 C   0  0  0  0  0  0  0  0  0  0  0  0
   -0.5107   -1.0420   -0.9573 O   0  0  0  0  0  0  0  0  0  0  0  0
    1.0834    1.3590   -1.1471 C   0  0  0  0  0  0  0  0  0  0  0  0
    1.3099    2.7867   -0.6243 C   0  0  0  0  0  0  0  0  0  0  0  0
    0.0376    3.5167   -1.0041 C   0  0  0  0  0  0  0  0  0  0  0  0
   -0.5891    1.6515   -2.4680 H   0  0  0  0  0  0  0  0  0  0  0  0
    1.6535    1.1605   -2.0602 H   0  0  0  0  0  0  0  0  0  0  0  0
    1.3742    0.6269   -0.3857 H   0  0  0  0  0  0  0  0  0  0  0  0
    1.4495    2.7867    0.4629 H   0  0  0  0  0  0  0  0  0  0  0  0
    2.1891    3.2506   -1.0823 H   0  0  0  0  0  0  0  0  0  0  0  0
   -0.0834    4.4559   -0.4533 H   0  0  0  0  0  0  0  0  0  0  0  0
   -0.0395    3.7309   -2.0763 H   0  0  0  0  0  0  0  0  0  0  0  0
   -2.3554   -0.3357   -1.8443 N   0  0  0  0  0  0  0  0  0  0  0  0
   -3.2448    0.6103   -2.5388 C   0  0  2  0  0  0  0  0  0  0  0  0
   -4.7431    0.3806   -2.2288 C   0  0  0  0  0  0  0  0  0  0  0  0
   -5.5954    1.0327   -2.8138 O   0  0  0  0  0  0  0  0  0  0  0  0
   -2.9722    0.4921   -4.0434 C   0  0  0  0  0  0  0  0  0  0  0  0
   -2.5443   -1.3335   -1.9185 H   0  0  0  0  0  0  0  0  0  0  0  0
   -3.0242    1.6332   -2.2172 H   0  0  0  0  0  0  0  0  0  0  0  0
   -3.2379   -0.5069   -4.4036 H   0  0  0  0  0  0  0  0  0  0  0  0
   -3.5658    1.2280   -4.5959 H   0  0  0  0  0  0  0  0  0  0  0  0
   -1.9158    0.6718   -4.2627 H   0  0  0  0  0  0  0  0  0  0  0  0
   -5.1403   -0.5661   -1.3010 N   0  0  0  0  0  0  0  0  0  0  0  0
   -6.5316   -0.7788   -0.9204 C   0  0  0  0  0  0  0  0  0  0  0  0
   -4.4093   -1.0341   -0.7729 H   0  0  0  0  0  0  0  0  0  0  0  0
   -6.9534    0.1329   -0.4843 H   0  0  0  0  0  0  0  0  0  0  0  0
   -7.1295   -1.0606   -1.7936 H   0  0  0  0  0  0  0  0  0  0  0  0
   -6.6032   -1.5819   -0.1803 H   0  0  0  0  0  0  0  0  0  0  0  0
  1  2  2  0  0  0  0
  1  3  1  0  0  0  0
  1  7  1  0  0  0  0
  3  4  1  0  0  0  0
  3  5  1  0  0  0  0
  3  6  1  0  0  0  0
  7  8  1  0  0  0  0
  7 12  1  0  0  0  0
  8  9  1  0  0  0  0
  8 11  1  0  0  0  0
  8 13  1  0  0  0  0
  9 10  2  0  0  0  0
  9 17  1  0  0  0  0
 11 14  1  0  0  0  0
 11 15  1  0  0  0  0
 11 16  1  0  0  0  0
 17 18  1  0  0  0  0
 17 23  1  0  0  0  0
 18 19  1  0  0  0  0
 18 21  1  0  0  0  0
 18 24  1  0  0  0  0
 19 20  2  0  0  0  0
 19 31  1  0  0  0  0
 21 22  1  0  0  0  0
 21 25  1  0  0  0  0
 21 26  1  0  0  0  0
 22 23  1  0  0  0  0
 22 27  1  0  0  0  0
 22 28  1  0  0  0  0
 23 29  1  0  0  0  0
 23 30  1  0  0  0  0
 31 32  1  0  0  0  0
 31 36  1  0  0  0  0
 32 33  1  0  0  0  0
 32 35  1  0  0  0  0
 32 37  1  0  0  0  0
 33 34  2  0  0  0  0
 33 41  1  0  0  0  0
 35 38  1  0  0  0  0
 35 39  1  0  0  0  0
 35 40  1  0  0  0  0
 41 42  1  0  0  0  0
 41 43  1  0  0  0  0
 42 44  1  0  0  0  0
 42 45  1  0  0  0  0
 42 46  1  0  0  0  0
M  END
$$$$

  -OEChem-05262217223D

 46 46  0     1  0  0  0  0  0999 V2000
    0.1075    1.9139    3.0574 C   0  0  0  0  0  0  0  0  0  0  0  0
    0.7314    2.9529    2.9194 O   0  0  0  0  0  0  0  0  0  0  0  0
    0.7427    0.7353    3.7712 C   0  0  0  0  0  0  0  0  0  0  0  0
    1.7981    0.9394    3.9717 H   0  0  0  0  0  0  0  0  0  0  0  0
    0.2302    0.5565    4.7194 H   0  0  0  0  0  0  0  0  0  0  0  0
    0.6686   -0.1635    3.1542 H   0  0  0  0  0  0  0  0  0  0  0  0
   -1.1680    1.7939    2.5494 N   0  0  0  0  0  0  0  0  0  0  0  0
   -1.8466    2.8365    1.7705 C   0  0  2  0  0  0  0  0  0  0  0  0
   -1.4224    2.9459    0.2821 C   0  0  0  0  0  0  0  0  0  0  0  0
   -1.3458    4.0835   -0.1690 O   0  0  0  0  0  0  0  0  0  0  0  0
   -3.3602    2.6686    1.9239 C   0  0  0  0  0  0  0  0  0  0  0  0
   -1.5569    0.8486    2.5424 H   0  0  0  0  0  0  0  0  0  0  0  0
   -1.5942    3.8018    2.2252 H   0  0  0  0  0  0  0  0  0  0  0  0
   -3.6383    2.7296    2.9806 H   0  0  0  0  0  0  0  0  0  0  0  0
   -3.8827    3.4643    1.3834 H   0  0  0  0  0  0  0  0  0  0  0  0
   -3.6961    1.7062    1.5358 H   0  0  0  0  0  0  0  0  0  0  0  0
   -1.1744    1.9144   -0.6387 N   0  0  0  0  0  0  0  0  0  0  0  0
   -1.2175    0.4550   -0.5599 C   0  0  2  0  0  0  0  0  0  0  0  0
   -2.1969   -0.2572    0.4067 C   0  0  0  0  0  0  0  0  0  0  0  0
   -1.8557   -0.6656    1.5085 O   0  0  0  0  0  0  0  0  0  0  0  0
    0.2714    0.1542   -0.3275 C   0  0  0  0  0  0  0  0  0  0  0  0
    0.9552    1.4066   -0.8963 C   0  0  0  0  0  0  0  0  0  0  0  0
   -0.1382    2.0836   -1.6986 C   0  0  0  0  0  0  0  0  0  0  0  0
   -1.4800    0.0643   -1.5452 H   0  0  0  0  0  0  0  0  0  0  0  0
    0.5687   -0.7537   -0.8621 H   0  0  0  0  0  0  0  0  0  0  0  0
    0.5180    0.0335    0.7307 H   0  0  0  0  0  0  0  0  0  0  0  0
    1.3049    2.0603   -0.0882 H   0  0  0  0  0  0  0  0  0  0  0  0
    1.8132    1.1496   -1.5250 H   0  0  0  0  0  0  0  0  0  0  0  0
    0.1078    3.1260   -1.9291 H   0  0  0  0  0  0  0  0  0  0  0  0
   -0.3739    1.5686   -2.6372 H   0  0  0  0  0  0  0  0  0  0  0  0
   -3.4868   -0.6468    0.1048 N   0  0  0  0  0  0  0  0  0  0  0  0
   -4.2189   -0.5034   -1.1695 C   0  0  2  0  0  0  0  0  0  0  0  0
   -3.6669   -1.3479   -2.3472 C   0  0  0  0  0  0  0  0  0  0  0  0
   -2.6748   -2.0512   -2.2095 O   0  0  0  0  0  0  0  0  0  0  0  0
   -4.3669    0.9761   -1.5565 C   0  0  0  0  0  0  0  0  0  0  0  0
   -3.8633   -1.2924    0.7948 H   0  0  0  0  0  0  0  0  0  0  0  0
   -5.2288   -0.8816   -0.9832 H   0  0  0  0  0  0  0  0  0  0  0  0
   -3.4311    1.3813   -1.9482 H   0  0  0  0  0  0  0  0  0  0  0  0
   -5.1318    1.0918   -2.3299 H   0  0  0  0  0  0  0  0  0  0  0  0
   -4.6706    1.5702   -0.6895 H   0  0  0  0  0  0  0  0  0  0  0  0
   -4.3078   -1.3413   -3.5729 N   0  0  0  0  0  0  0  0  0  0  0  0
   -3.8514   -2.1194   -4.7190 C   0  0  0  0  0  0  0  0  0  0  0  0
   -5.1302   -0.7543   -3.6756 H   0  0  0  0  0  0  0  0  0  0  0  0
   -2.8376   -1.8205   -5.0059 H   0  0  0  0  0  0  0  0  0  0  0  0
   -3.8496   -3.1884   -4.4811 H   0  0  0  0  0  0  0  0  0  0  0  0
   -4.5142   -1.9578   -5.5746 H   0  0  0  0  0  0  0  0  0  0  0  0
  1  2  2  0  0  0  0
  1  3  1  0  0  0  0
  1  7  1  0  0  0  0
  3  4  1  0  0  0  0
  3  5  1  0  0  0  0
  3  6  1  0  0  0  0
  7  8  1  0  0  0  0
  7 12  1  0  0  0  0
  8  9  1  0  0  0  0
  8 11  1  0  0  0  0
  8 13  1  0  0  0  0
  9 10  2  0  0  0  0
  9 17  1  0  0  0  0
 11 14  1  0  0  0  0
 11 15  1  0  0  0  0
 11 16  1  0  0  0  0
 17 18  1  0  0  0  0
 17 23  1  0  0  0  0
 18 19  1  0  0  0  0
 18 21  1  0  0  0  0
 18 24  1  0  0  0  0
 19 20  2  0  0  0  0
 19 31  1  0  0  0  0
 21 22  1  0  0  0  0
 21 25  1  0  0  0  0
 21 26  1  0  0  0  0
 22 23  1  0  0  0  0
 22 27  1  0  0  0  0
 22 28  1  0  0  0  0
 23 29  1  0  0  0  0
 23 30  1  0  0  0  0
 31 32  1  0  0  0  0
 31 36  1  0  0  0  0
 32 33  1  0  0  0  0
 32 35  1  0  0  0  0
 32 37  1  0  0  0  0
 33 34  2  0  0  0  0
 33 41  1  0  0  0  0
 35 38  1  0  0  0  0
 35 39  1  0  0  0  0
 35 40  1  0  0  0  0
 41 42  1  0  0  0  0
 41 43  1  0  0  0  0
 42 44  1  0  0  0  0
 42 45  1  0  0  0  0
 42 46  1  0  0  0  0
M  END
$$$$

  -OEChem-05262217223D

 46 46  0     1  0  0  0  0  0999 V2000
   -0.5820    1.6381    3.1614 C   0  0  0  0  0  0  0  0  0  0  0  0
    0.1444    2.5604    3.4908 O   0  0  0  0  0  0  0  0  0  0  0  0
   -0.3815    0.2619    3.7675 C   0  0  0  0  0  0  0  0  0  0  0  0
   -1.1954    0.0414    4.4620 H   0  0  0  0  0  0  0  0  0  0  0  0
   -0.3701   -0.4979    2.9825 H   0  0  0  0  0  0  0  0  0  0  0  0
    0.5673    0.2223    4.3094 H   0  0  0  0  0  0  0  0  0  0  0  0
   -1.5713    1.8282    2.2214 N   0  0  0  0  0  0  0  0  0  0  0  0
   -1.7918    3.0848    1.4986 C   0  0  2  0  0  0  0  0  0  0  0  0
   -0.7850    3.3818    0.3578 C   0  0  0  0  0  0  0  0  0  0  0  0
   -0.3973    4.5424    0.2806 O   0  0  0  0  0  0  0  0  0  0  0  0
   -3.2382    3.1302    0.9965 C   0  0  0  0  0  0  0  0  0  0  0  0
   -2.0135    0.9809    1.8593 H   0  0  0  0  0  0  0  0  0  0  0  0
   -1.6851    3.9018    2.2223 H   0  0  0  0  0  0  0  0  0  0  0  0
   -3.9308    2.9763    1.8295 H   0  0  0  0  0  0  0  0  0  0  0  0
   -3.4483    4.1073    0.5501 H   0  0  0  0  0  0  0  0  0  0  0  0
   -3.4260    2.3619    0.2440 H   0  0  0  0  0  0  0  0  0  0  0  0
   -0.2897    2.5076   -0.6259 N   0  0  0  0  0  0  0  0  0  0  0  0
   -0.5041    1.0952   -0.9425 C   0  0  2  0  0  0  0  0  0  0  0  0
   -1.8478    0.3922   -0.6391 C   0  0  0  0  0  0  0  0  0  0  0  0
   -2.0633   -0.1722    0.4278 O   0  0  0  0  0  0  0  0  0  0  0  0
    0.7250    0.4757   -0.2578 C   0  0  0  0  0  0  0  0  0  0  0  0
    1.6999    1.6611   -0.1940 C   0  0  0  0  0  0  0  0  0  0  0  0
    1.0995    2.6775   -1.1450 C   0  0  0  0  0  0  0  0  0  0  0  0
   -0.3896    0.9702   -2.0252 H   0  0  0  0  0  0  0  0  0  0  0  0
    1.1253   -0.3523   -0.8514 H   0  0  0  0  0  0  0  0  0  0  0  0
    0.5051    0.1102    0.7496 H   0  0  0  0  0  0  0  0  0  0  0  0
    1.7526    2.0675    0.8231 H   0  0  0  0  0  0  0  0  0  0  0  0
    2.7099    1.3728   -0.5008 H   0  0  0  0  0  0  0  0  0  0  0  0
    1.5216    3.6773   -0.9953 H   0  0  0  0  0  0  0  0  0  0  0  0
    1.2151    2.4106   -2.2018 H   0  0  0  0  0  0  0  0  0  0  0  0
   -2.7055    0.1264   -1.6909 N   0  0  0  0  0  0  0  0  0  0  0  0
   -3.7635   -0.8957   -1.6801 C   0  0  2  0  0  0  0  0  0  0  0  0
   -3.4960   -1.9904   -2.7353 C   0  0  0  0  0  0  0  0  0  0  0  0
   -2.7272   -1.7702   -3.6649 O   0  0  0  0  0  0  0  0  0  0  0  0
   -5.0924   -0.1899   -1.9591 C   0  0  0  0  0  0  0  0  0  0  0  0
   -2.3670    0.3945   -2.6143 H   0  0  0  0  0  0  0  0  0  0  0  0
   -3.8275   -1.3881   -0.7049 H   0  0  0  0  0  0  0  0  0  0  0  0
   -5.0696    0.2989   -2.9385 H   0  0  0  0  0  0  0  0  0  0  0  0
   -5.9180   -0.9079   -1.9488 H   0  0  0  0  0  0  0  0  0  0  0  0
   -5.2856    0.5695   -1.1951 H   0  0  0  0  0  0  0  0  0  0  0  0
   -4.1242   -3.2187   -2.6485 N   0  0  0  0  0  0  0  0  0  0  0  0
   -3.9005   -4.3004   -3.5999 C   0  0  0  0  0  0  0  0  0  0  0  0
   -4.7283   -3.3845   -1.8489 H   0  0  0  0  0  0  0  0  0  0  0  0
   -4.1472   -3.9750   -4.6162 H   0  0  0  0  0  0  0  0  0  0  0  0
   -2.8536   -4.6210   -3.5766 H   0  0  0  0  0  0  0  0  0  0  0  0
   -4.5312   -5.1592   -3.3509 H   0  0  0  0  0  0  0  0  0  0  0  0
  1  2  2  0  0  0  0
  1  3  1  0  0  0  0
  1  7  1  0  0  0  0
  3  4  1  0  0  0  0
  3  5  1  0  0  0  0
  3  6  1  0  0  0  0
  7  8  1  0  0  0  0
  7 12  1  0  0  0  0
  8  9  1  0  0  0  0
  8 11  1  0  0  0  0
  8 13  1  0  0  0  0
  9 10  2  0  0  0  0
  9 17  1  0  0  0  0
 11 14  1  0  0  0  0
 11 15  1  0  0  0  0
 11 16  1  0  0  0  0
 17 18  1  0  0  0  0
 17 23  1  0  0  0  0
 18 19  1  0  0  0  0
 18 21  1  0  0  0  0
 18 24  1  0  0  0  0
 19 20  2  0  0  0  0
 19 31  1  0  0  0  0
 21 22  1  0  0  0  0
 21 25  1  0  0  0  0
 21 26  1  0  0  0  0
 22 23  1  0  0  0  0
 22 27  1  0  0  0  0
 22 28  1  0  0  0  0
 23 29  1  0  0  0  0
 23 30  1  0  0  0  0
 31 32  1  0  0  0  0
 31 36  1  0  0  0  0
 32 33  1  0  0  0  0
 32 35  1  0  0  0  0
 32 37  1  0  0  0  0
 33 34  2  0  0  0  0
 33 41  1  0  0  0  0
 35 38  1  0  0  0  0
 35 39  1  0  0  0  0
 35 40  1  0  0  0  0
 41 42  1  0  0  0  0
 41 43  1  0  0  0  0
 42 44  1  0  0  0  0
 42 45  1  0  0  0  0
 42 46  1  0  0  0  0
M  END
$$$$

  -OEChem-05262217223D

 46 46  0     1  0  0  0  0  0999 V2000
   -0.6741    1.6361    3.1307 C   0  0  0  0  0  0  0  0  0  0  0  0
    0.0294    2.5785    3.4531 O   0  0  0  0  0  0  0  0  0  0  0  0
   -0.4328    0.2671    3.7388 C   0  0  0  0  0  0  0  0  0  0  0  0
   -1.2445    0.0206    4.4273 H   0  0  0  0  0  0  0  0  0  0  0  0
   -0.3905   -0.4916    2.9537 H   0  0  0  0  0  0  0  0  0  0  0  0
    0.5128    0.2591    4.2879 H   0  0  0  0  0  0  0  0  0  0  0  0
   -1.6704    1.7958    2.1928 N   0  0  0  0  0  0  0  0  0  0  0  0
   -1.9141    3.0366    1.4521 C   0  0  2  0  0  0  0  0  0  0  0  0
   -0.8838    3.3611    0.3409 C   0  0  0  0  0  0  0  0  0  0  0  0
   -0.5280    4.5333    0.2822 O   0  0  0  0  0  0  0  0  0  0  0  0
   -3.3438    3.0280    0.9033 C   0  0  0  0  0  0  0  0  0  0  0  0
   -2.0843    0.9362    1.8266 H   0  0  0  0  0  0  0  0  0  0  0  0
   -1.8589    3.8613    2.1726 H   0  0  0  0  0  0  0  0  0  0  0  0
   -3.5677    3.9884    0.4283 H   0  0  0  0  0  0  0  0  0  0  0  0
   -3.4829    2.2376    0.1630 H   0  0  0  0  0  0  0  0  0  0  0  0
   -4.0585    2.8717    1.7170 H   0  0  0  0  0  0  0  0  0  0  0  0
   -0.3354    2.5122   -0.6382 N   0  0  0  0  0  0  0  0  0  0  0  0
   -0.4883    1.0981   -0.9929 C   0  0  2  0  0  0  0  0  0  0  0  0
   -1.7978    0.3029   -0.7666 C   0  0  0  0  0  0  0  0  0  0  0  0
   -2.1285   -0.1195    0.3346 O   0  0  0  0  0  0  0  0  0  0  0  0
    0.7351    0.5061   -0.2776 C   0  0  0  0  0  0  0  0  0  0  0  0
    1.6665    1.7205   -0.1524 C   0  0  0  0  0  0  0  0  0  0  0  0
    1.0660    2.7363   -1.1033 C   0  0  0  0  0  0  0  0  0  0  0  0
   -0.3275    1.0122   -2.0733 H   0  0  0  0  0  0  0  0  0  0  0  0
    1.1852   -0.2950   -0.8728 H   0  0  0  0  0  0  0  0  0  0  0  0
    0.4876    0.1111    0.7120 H   0  0  0  0  0  0  0  0  0  0  0  0
    1.6691    2.1056    0.8744 H   0  0  0  0  0  0  0  0  0  0  0  0
    2.6960    1.4737   -0.4281 H   0  0  0  0  0  0  0  0  0  0  0  0
    1.4516    3.7449   -0.9195 H   0  0  0  0  0  0  0  0  0  0  0  0
    1.2284    2.4963   -2.1605 H   0  0  0  0  0  0  0  0  0  0  0  0
   -2.4281   -0.2508   -1.8670 N   0  0  0  0  0  0  0  0  0  0  0  0
   -3.3731   -1.3780   -1.8269 C   0  0  2  0  0  0  0  0  0  0  0  0
   -2.8768   -2.5540   -2.6952 C   0  0  0  0  0  0  0  0  0  0  0  0
   -2.0106   -2.3667   -3.5432 O   0  0  0  0  0  0  0  0  0  0  0  0
   -4.7252   -0.8671   -2.3296 C   0  0  0  0  0  0  0  0  0  0  0  0
   -1.9683   -0.1010   -2.7646 H   0  0  0  0  0  0  0  0  0  0  0  0
   -3.4966   -1.7559   -0.8070 H   0  0  0  0  0  0  0  0  0  0  0  0
   -4.6381   -0.4996   -3.3573 H   0  0  0  0  0  0  0  0  0  0  0  0
   -5.4706   -1.6679   -2.3086 H   0  0  0  0  0  0  0  0  0  0  0  0
   -5.0793   -0.0483   -1.6951 H   0  0  0  0  0  0  0  0  0  0  0  0
   -3.4042   -3.8212   -2.5295 N   0  0  0  0  0  0  0  0  0  0  0  0
   -2.9678   -4.9766   -3.3044 C   0  0  0  0  0  0  0  0  0  0  0  0
   -4.0998   -3.9521   -1.8006 H   0  0  0  0  0  0  0  0  0  0  0  0
   -3.1185   -4.7996   -4.3749 H   0  0  0  0  0  0  0  0  0  0  0  0
   -1.9063   -5.1790   -3.1262 H   0  0  0  0  0  0  0  0  0  0  0  0
   -3.5420   -5.8629   -3.0171 H   0  0  0  0  0  0  0  0  0  0  0  0
  1  2  2  0  0  0  0
  1  3  1  0  0  0  0
  1  7  1  0  0  0  0
  3  4  1  0  0  0  0
  3  5  1  0  0  0  0
  3  6  1  0  0  0  0
  7  8  1  0  0  0  0
  7 12  1  0  0  0  0
  8  9  1  0  0  0  0
  8 11  1  0  0  0  0
  8 13  1  0  0  0  0
  9 10  2  0  0  0  0
  9 17  1  0  0  0  0
 11 14  1  0  0  0  0
 11 15  1  0  0  0  0
 11 16  1  0  0  0  0
 17 18  1  0  0  0  0
 17 23  1  0  0  0  0
 18 19  1  0  0  0  0
 18 21  1  0  0  0  0
 18 24  1  0  0  0  0
 19 20  2  0  0  0  0
 19 31  1  0  0  0  0
 21 22  1  0  0  0  0
 21 25  1  0  0  0  0
 21 26  1  0  0  0  0
 22 23  1  0  0  0  0
 22 27  1  0  0  0  0
 22 28  1  0  0  0  0
 23 29  1  0  0  0  0
 23 30  1  0  0  0  0
 31 32  1  0  0  0  0
 31 36  1  0  0  0  0
 32 33  1  0  0  0  0
 32 35  1  0  0  0  0
 32 37  1  0  0  0  0
 33 34  2  0  0  0  0
 33 41  1  0  0  0  0
 35 38  1  0  0  0  0
 35 39  1  0  0  0  0
 35 40  1  0  0  0  0
 41 42  1  0  0  0  0
 41 43  1  0  0  0  0
 42 44  1  0  0  0  0
 42 45  1  0  0  0  0
 42 46  1  0  0  0  0
M  END
$$$$

  -OEChem-05262217223D

 46 46  0     1  0  0  0  0  0999 V2000
   -0.7199    1.4881    3.0992 C   0  0  0  0  0  0  0  0  0  0  0  0
   -0.0084    2.4118    3.4563 O   0  0  0  0  0  0  0  0  0  0  0  0
   -0.4863    0.0944    3.6515 C   0  0  0  0  0  0  0  0  0  0  0  0
   -1.3063   -0.1799    4.3194 H   0  0  0  0  0  0  0  0  0  0  0  0
   -0.4348   -0.6301    2.8353 H   0  0  0  0  0  0  0  0  0  0  0  0
    0.4526    0.0628    4.2113 H   0  0  0  0  0  0  0  0  0  0  0  0
   -1.7185    1.6904    2.1726 N   0  0  0  0  0  0  0  0  0  0  0  0
   -1.9611    2.9580    1.4799 C   0  0  2  0  0  0  0  0  0  0  0  0
   -0.9319    3.3257    0.3826 C   0  0  0  0  0  0  0  0  0  0  0  0
   -0.5912    4.5041    0.3667 O   0  0  0  0  0  0  0  0  0  0  0  0
   -3.3880    2.9751    0.9234 C   0  0  0  0  0  0  0  0  0  0  0  0
   -2.1382    0.8502    1.7701 H   0  0  0  0  0  0  0  0  0  0  0  0
   -1.9075    3.7525    2.2334 H   0  0  0  0  0  0  0  0  0  0  0  0
   -3.6233    3.9702    0.5326 H   0  0  0  0  0  0  0  0  0  0  0  0
   -3.5083    2.2524    0.1133 H   0  0  0  0  0  0  0  0  0  0  0  0
   -4.1061    2.7365    1.7138 H   0  0  0  0  0  0  0  0  0  0  0  0
   -0.3722    2.5222   -0.6290 N   0  0  0  0  0  0  0  0  0  0  0  0
   -0.4962    1.1230   -1.0582 C   0  0  2  0  0  0  0  0  0  0  0  0
   -1.7690    0.2523   -0.9045 C   0  0  0  0  0  0  0  0  0  0  0  0
   -2.2518   -0.0407    0.1803 O   0  0  0  0  0  0  0  0  0  0  0  0
    0.7320    0.5153   -0.3682 C   0  0  0  0  0  0  0  0  0  0  0  0
    1.6422    1.7362   -0.1729 C   0  0  0  0  0  0  0  0  0  0  0  0
    1.0293    2.7903   -1.0733 C   0  0  0  0  0  0  0  0  0  0  0  0
   -0.3282    1.1113   -2.1408 H   0  0  0  0  0  0  0  0  0  0  0  0
    1.1996   -0.2452   -1.0019 H   0  0  0  0  0  0  0  0  0  0  0  0
    0.4812    0.0641    0.5969 H   0  0  0  0  0  0  0  0  0  0  0  0
    1.6333    2.0665    0.8728 H   0  0  0  0  0  0  0  0  0  0  0  0
    2.6773    1.5209   -0.4557 H   0  0  0  0  0  0  0  0  0  0  0  0
    1.4015    3.7929   -0.8361 H   0  0  0  0  0  0  0  0  0  0  0  0
    1.2014    2.6083   -2.1404 H   0  0  0  0  0  0  0  0  0  0  0  0
   -2.1646   -0.5110   -1.9893 N   0  0  0  0  0  0  0  0  0  0  0  0
   -2.9955   -1.7236   -1.9133 C   0  0  2  0  0  0  0  0  0  0  0  0
   -2.2237   -2.9599   -2.4233 C   0  0  0  0  0  0  0  0  0  0  0  0
   -1.2106   -2.8124   -3.0987 O   0  0  0  0  0  0  0  0  0  0  0  0
   -4.2480   -1.4812   -2.7581 C   0  0  0  0  0  0  0  0  0  0  0  0
   -1.5593   -0.4557   -2.8074 H   0  0  0  0  0  0  0  0  0  0  0  0
   -3.3035   -1.9310   -0.8837 H   0  0  0  0  0  0  0  0  0  0  0  0
   -3.9772   -1.2981   -3.8029 H   0  0  0  0  0  0  0  0  0  0  0  0
   -4.9124   -2.3498   -2.7181 H   0  0  0  0  0  0  0  0  0  0  0  0
   -4.7947   -0.6108   -2.3816 H   0  0  0  0  0  0  0  0  0  0  0  0
   -2.6660   -4.2372   -2.1326 N   0  0  0  0  0  0  0  0  0  0  0  0
   -1.9758   -5.4428   -2.5761 C   0  0  0  0  0  0  0  0  0  0  0  0
   -3.4943   -4.3304   -1.5517 H   0  0  0  0  0  0  0  0  0  0  0  0
   -1.9105   -5.4674   -3.6690 H   0  0  0  0  0  0  0  0  0  0  0  0
   -0.9628   -5.4787   -2.1614 H   0  0  0  0  0  0  0  0  0  0  0  0
   -2.5175   -6.3337   -2.2435 H   0  0  0  0  0  0  0  0  0  0  0  0
  1  2  2  0  0  0  0
  1  3  1  0  0  0  0
  1  7  1  0  0  0  0
  3  4  1  0  0  0  0
  3  5  1  0  0  0  0
  3  6  1  0  0  0  0
  7  8  1  0  0  0  0
  7 12  1  0  0  0  0
  8  9  1  0  0  0  0
  8 11  1  0  0  0  0
  8 13  1  0  0  0  0
  9 10  2  0  0  0  0
  9 17  1  0  0  0  0
 11 14  1  0  0  0  0
 11 15  1  0  0  0  0
 11 16  1  0  0  0  0
 17 18  1  0  0  0  0
 17 23  1  0  0  0  0
 18 19  1  0  0  0  0
 18 21  1  0  0  0  0
 18 24  1  0  0  0  0
 19 20  2  0  0  0  0
 19 31  1  0  0  0  0
 21 22  1  0  0  0  0
 21 25  1  0  0  0  0
 21 26  1  0  0  0  0
 22 23  1  0  0  0  0
 22 27  1  0  0  0  0
 22 28  1  0  0  0  0
 23 29  1  0  0  0  0
 23 30  1  0  0  0  0
 31 32  1  0  0  0  0
 31 36  1  0  0  0  0
 32 33  1  0  0  0  0
 32 35  1  0  0  0  0
 32 37  1  0  0  0  0
 33 34  2  0  0  0  0
 33 41  1  0  0  0  0
 35 38  1  0  0  0  0
 35 39  1  0  0  0  0
 35 40  1  0  0  0  0
 41 42  1  0  0  0  0
 41 43  1  0  0  0  0
 42 44  1  0  0  0  0
 42 45  1  0  0  0  0
 42 46  1  0  0  0  0
M  END
$$$$

  -OEChem-05262217223D

 46 46  0     1  0  0  0  0  0999 V2000
   -0.7046    1.0852    2.9645 C   0  0  0  0  0  0  0  0  0  0  0  0
   -0.8262    0.2308    2.1075 O   0  0  0  0  0  0  0  0  0  0  0  0
    0.0130    0.7402    4.2560 C   0  0  0  0  0  0  0  0  0  0  0  0
   -0.6291    0.9628    5.1117 H   0  0  0  0  0  0  0  0  0  0  0  0
    0.2650   -0.3239    4.2749 H   0  0  0  0  0  0  0  0  0  0  0  0
    0.9343    1.3222    4.3375 H   0  0  0  0  0  0  0  0  0  0  0  0
   -1.1708    2.3705    2.7818 N   0  0  0  0  0  0  0  0  0  0  0  0
   -1.8294    2.9167    1.5795 C   0  0  2  0  0  0  0  0  0  0  0  0
   -0.8600    3.1677    0.3751 C   0  0  0  0  0  0  0  0  0  0  0  0
   -0.3862    4.3019    0.4346 O   0  0  0  0  0  0  0  0  0  0  0  0
   -3.2130    2.3094    1.3462 C   0  0  0  0  0  0  0  0  0  0  0  0
   -0.9416    3.0306    3.5184 H   0  0  0  0  0  0  0  0  0  0  0  0
   -2.0976    3.9381    1.8725 H   0  0  0  0  0  0  0  0  0  0  0  0
   -3.9501    2.8124    1.9790 H   0  0  0  0  0  0  0  0  0  0  0  0
   -3.5203    2.4368    0.3042 H   0  0  0  0  0  0  0  0  0  0  0  0
   -3.2349    1.2516    1.6164 H   0  0  0  0  0  0  0  0  0  0  0  0
   -0.3352    2.3870   -0.6836 N   0  0  0  0  0  0  0  0  0  0  0  0
   -0.4260    1.0003   -1.1791 C   0  0  2  0  0  0  0  0  0  0  0  0
   -1.6032    0.0026   -1.0796 C   0  0  0  0  0  0  0  0  0  0  0  0
   -2.6081    0.1813   -0.4223 O   0  0  0  0  0  0  0  0  0  0  0  0
    0.9023    0.4116   -0.6924 C   0  0  0  0  0  0  0  0  0  0  0  0
    1.7683    1.6652   -0.5323 C   0  0  0  0  0  0  0  0  0  0  0  0
    0.9987    2.7387   -1.2764 C   0  0  0  0  0  0  0  0  0  0  0  0
   -0.3747    1.0934   -2.2696 H   0  0  0  0  0  0  0  0  0  0  0  0
    1.3191   -0.2754   -1.4357 H   0  0  0  0  0  0  0  0  0  0  0  0
    0.8042   -0.1231    0.2556 H   0  0  0  0  0  0  0  0  0  0  0  0
    1.8706    1.9293    0.5263 H   0  0  0  0  0  0  0  0  0  0  0  0
    2.7689    1.5243   -0.9517 H   0  0  0  0  0  0  0  0  0  0  0  0
    1.3747    3.7376   -1.0327 H   0  0  0  0  0  0  0  0  0  0  0  0
    1.0436    2.6309   -2.3665 H   0  0  0  0  0  0  0  0  0  0  0  0
   -1.7194   -0.9355   -2.0930 N   0  0  0  0  0  0  0  0  0  0  0  0
   -2.6938   -2.0365   -2.0827 C   0  0  2  0  0  0  0  0  0  0  0  0
   -1.9829   -3.4013   -2.1922 C   0  0  0  0  0  0  0  0  0  0  0  0
   -0.8602   -3.4709   -2.6829 O   0  0  0  0  0  0  0  0  0  0  0  0
   -3.6557   -1.8296   -3.2539 C   0  0  0  0  0  0  0  0  0  0  0  0
   -0.8633   -1.1271   -2.6111 H   0  0  0  0  0  0  0  0  0  0  0  0
   -3.2670   -2.0416   -1.1496 H   0  0  0  0  0  0  0  0  0  0  0  0
   -3.1123   -1.8456   -4.2042 H   0  0  0  0  0  0  0  0  0  0  0  0
   -4.4131   -2.6188   -3.2716 H   0  0  0  0  0  0  0  0  0  0  0  0
   -4.1634   -0.8647   -3.1571 H   0  0  0  0  0  0  0  0  0  0  0  0
   -2.5976   -4.5517   -1.7337 N   0  0  0  0  0  0  0  0  0  0  0  0
   -1.9503   -5.8578   -1.7368 C   0  0  0  0  0  0  0  0  0  0  0  0
   -3.4961   -4.4491   -1.2707 H   0  0  0  0  0  0  0  0  0  0  0  0
   -1.6752   -6.1475   -2.7564 H   0  0  0  0  0  0  0  0  0  0  0  0
   -1.0459   -5.8382   -1.1196 H   0  0  0  0  0  0  0  0  0  0  0  0
   -2.6278   -6.6168   -1.3338 H   0  0  0  0  0  0  0  0  0  0  0  0
  1  2  2  0  0  0  0
  1  3  1  0  0  0  0
  1  7  1  0  0  0  0
  3  4  1  0  0  0  0
  3  5  1  0  0  0  0
  3  6  1  0  0  0  0
  7  8  1  0  0  0  0
  7 12  1  0  0  0  0
  8  9  1  0  0  0  0
  8 11  1  0  0  0  0
  8 13  1  0  0  0  0
  9 10  2  0  0  0  0
  9 17  1  0  0  0  0
 11 14  1  0  0  0  0
 11 15  1  0  0  0  0
 11 16  1  0  0  0  0
 17 18  1  0  0  0  0
 17 23  1  0  0  0  0
 18 19  1  0  0  0  0
 18 21  1  0  0  0  0
 18 24  1  0  0  0  0
 19 20  2  0  0  0  0
 19 31  1  0  0  0  0
 21 22  1  0  0  0  0
 21 25  1  0  0  0  0
 21 26  1  0  0  0  0
 22 23  1  0  0  0  0
 22 27  1  0  0  0  0
 22 28  1  0  0  0  0
 23 29  1  0  0  0  0
 23 30  1  0  0  0  0
 31 32  1  0  0  0  0
 31 36  1  0  0  0  0
 32 33  1  0  0  0  0
 32 35  1  0  0  0  0
 32 37  1  0  0  0  0
 33 34  2  0  0  0  0
 33 41  1  0  0  0  0
 35 38  1  0  0  0  0
 35 39  1  0  0  0  0
 35 40  1  0  0  0  0
 41 42  1  0  0  0  0
 41 43  1  0  0  0  0
 42 44  1  0  0  0  0
 42 45  1  0  0  0  0
 42 46  1  0  0  0  0
M  END
$$$$

  -OEChem-05262217223D

 46 46  0     1  0  0  0  0  0999 V2000
   -0.2807    1.2242    3.4876 C   0  0  0  0  0  0  0  0  0  0  0  0
    0.3759    0.4494    2.8071 O   0  0  0  0  0  0  0  0  0  0  0  0
    0.2586    1.6991    4.8236 C   0  0  0  0  0  0  0  0  0  0  0  0
    0.3784    2.7853    4.8120 H   0  0  0  0  0  0  0  0  0  0  0  0
   -0.4317    1.4239    5.6243 H   0  0  0  0  0  0  0  0  0  0  0  0
    1.2307    1.2395    5.0230 H   0  0  0  0  0  0  0  0  0  0  0  0
   -1.4890    1.7089    3.0302 N   0  0  0  0  0  0  0  0  0  0  0  0
   -1.9103    1.5356    1.6318 C   0  0  2  0  0  0  0  0  0  0  0  0
   -1.1860    2.5384    0.6975 C   0  0  0  0  0  0  0  0  0  0  0  0
   -1.0486    3.6800    1.1377 O   0  0  0  0  0  0  0  0  0  0  0  0
   -3.4286    1.7395    1.5883 C   0  0  0  0  0  0  0  0  0  0  0  0
   -1.8438    2.5277    3.5158 H   0  0  0  0  0  0  0  0  0  0  0  0
   -1.6652    0.5162    1.3354 H   0  0  0  0  0  0  0  0  0  0  0  0
   -3.6950    2.7279    1.9752 H   0  0  0  0  0  0  0  0  0  0  0  0
   -3.8000    1.6637    0.5623 H   0  0  0  0  0  0  0  0  0  0  0  0
   -3.9284    0.9777    2.1940 H   0  0  0  0  0  0  0  0  0  0  0  0
   -0.5833    2.2679   -0.5420 N   0  0  0  0  0  0  0  0  0  0  0  0
   -0.4348    1.0457   -1.3371 C   0  0  2  0  0  0  0  0  0  0  0  0
   -1.4303   -0.1389   -1.3557 C   0  0  0  0  0  0  0  0  0  0  0  0
   -2.4951   -0.1284   -0.7583 O   0  0  0  0  0  0  0  0  0  0  0  0
    0.9724    0.6165   -0.8984 C   0  0  0  0  0  0  0  0  0  0  0  0
    1.5919    1.9354   -0.4132 C   0  0  0  0  0  0  0  0  0  0  0  0
    0.6529    2.9945   -0.9552 C   0  0  0  0  0  0  0  0  0  0  0  0
   -0.4116    1.3500   -2.3896 H   0  0  0  0  0  0  0  0  0  0  0  0
    1.5331    0.1851   -1.7336 H   0  0  0  0  0  0  0  0  0  0  0  0
    0.9382   -0.1127   -0.0803 H   0  0  0  0  0  0  0  0  0  0  0  0
    1.6285    1.9674    0.6821 H   0  0  0  0  0  0  0  0  0  0  0  0
    2.6091    2.0698   -0.7936 H   0  0  0  0  0  0  0  0  0  0  0  0
    0.7960    3.9629   -0.4642 H   0  0  0  0  0  0  0  0  0  0  0  0
    0.7400    3.1426   -2.0378 H   0  0  0  0  0  0  0  0  0  0  0  0
   -1.3026   -1.0607   -2.3807 N   0  0  0  0  0  0  0  0  0  0  0  0
   -2.1223   -2.2768   -2.4885 C   0  0  2  0  0  0  0  0  0  0  0  0
   -1.3643   -3.5110   -1.9585 C   0  0  0  0  0  0  0  0  0  0  0  0
   -0.1492   -3.5892   -2.1048 O   0  0  0  0  0  0  0  0  0  0  0  0
   -2.4854   -2.4650   -3.9626 C   0  0  0  0  0  0  0  0  0  0  0  0
   -0.3722   -1.1249   -2.7884 H   0  0  0  0  0  0  0  0  0  0  0  0
   -3.0510   -2.1773   -1.9177 H   0  0  0  0  0  0  0  0  0  0  0  0
   -1.5817   -2.5847   -4.5689 H   0  0  0  0  0  0  0  0  0  0  0  0
   -3.1101   -3.3543   -4.0912 H   0  0  0  0  0  0  0  0  0  0  0  0
   -3.0402   -1.5959   -4.3295 H   0  0  0  0  0  0  0  0  0  0  0  0
   -2.0473   -4.5425   -1.3419 N   0  0  0  0  0  0  0  0  0  0  0  0
   -1.3811   -5.6963   -0.7503 C   0  0  0  0  0  0  0  0  0  0  0  0
   -3.0380   -4.4051   -1.1636 H   0  0  0  0  0  0  0  0  0  0  0  0
   -0.7704   -6.2134   -1.4980 H   0  0  0  0  0  0  0  0  0  0  0  0
   -0.7354   -5.3823    0.0766 H   0  0  0  0  0  0  0  0  0  0  0  0
   -2.1220   -6.4028   -0.3637 H   0  0  0  0  0  0  0  0  0  0  0  0
  1  2  2  0  0  0  0
  1  3  1  0  0  0  0
  1  7  1  0  0  0  0
  3  4  1  0  0  0  0
  3  5  1  0  0  0  0
  3  6  1  0  0  0  0
  7  8  1  0  0  0  0
  7 12  1  0  0  0  0
  8  9  1  0  0  0  0
  8 11  1  0  0  0  0
  8 13  1  0  0  0  0
  9 10  2  0  0  0  0
  9 17  1  0  0  0  0
 11 14  1  0  0  0  0
 11 15  1  0  0  0  0
 11 16  1  0  0  0  0
 17 18  1  0  0  0  0
 17 23  1  0  0  0  0
 18 19  1  0  0  0  0
 18 21  1  0  0  0  0
 18 24  1  0  0  0  0
 19 20  2  0  0  0  0
 19 31  1  0  0  0  0
 21 22  1  0  0  0  0
 21 25  1  0  0  0  0
 21 26  1  0  0  0  0
 22 23  1  0  0  0  0
 22 27  1  0  0  0  0
 22 28  1  0  0  0  0
 23 29  1  0  0  0  0
 23 30  1  0  0  0  0
 31 32  1  0  0  0  0
 31 36  1  0  0  0  0
 32 33  1  0  0  0  0
 32 35  1  0  0  0  0
 32 37  1  0  0  0  0
 33 34  2  0  0  0  0
 33 41  1  0  0  0  0
 35 38  1  0  0  0  0
 35 39  1  0  0  0  0
 35 40  1  0  0  0  0
 41 42  1  0  0  0  0
 41 43  1  0  0  0  0
 42 44  1  0  0  0  0
 42 45  1  0  0  0  0
 42 46  1  0  0  0  0
M  END
$$$$

  -OEChem-05262217223D

 46 46  0     1  0  0  0  0  0999 V2000
   -0.5600    0.4116    3.2207 C   0  0  0  0  0  0  0  0  0  0  0  0
   -0.6144   -0.6619    2.6384 O   0  0  0  0  0  0  0  0  0  0  0  0
    0.3205    0.5589    4.4470 C   0  0  0  0  0  0  0  0  0  0  0  0
   -0.2723    0.9186    5.2916 H   0  0  0  0  0  0  0  0  0  0  0  0
    0.7625   -0.4053    4.7131 H   0  0  0  0  0  0  0  0  0  0  0  0
    1.1241    1.2717    4.2453 H   0  0  0  0  0  0  0  0  0  0  0  0
   -1.2654    1.5023    2.7556 N   0  0  0  0  0  0  0  0  0  0  0  0
   -1.9398    1.5441    1.4492 C   0  0  2  0  0  0  0  0  0  0  0  0
   -1.1098    2.3475    0.4119 C   0  0  0  0  0  0  0  0  0  0  0  0
   -0.6773    3.4330    0.7975 O   0  0  0  0  0  0  0  0  0  0  0  0
   -3.3091    2.1974    1.6639 C   0  0  0  0  0  0  0  0  0  0  0  0
   -1.0345    2.4004    3.1747 H   0  0  0  0  0  0  0  0  0  0  0  0
   -2.0961    0.5266    1.0957 H   0  0  0  0  0  0  0  0  0  0  0  0
   -3.1948    3.2074    2.0709 H   0  0  0  0  0  0  0  0  0  0  0  0
   -3.8532    2.2683    0.7171 H   0  0  0  0  0  0  0  0  0  0  0  0
   -3.9069    1.6036    2.3619 H   0  0  0  0  0  0  0  0  0  0  0  0
   -0.6253    1.8668   -0.8175 N   0  0  0  0  0  0  0  0  0  0  0  0
   -0.7766    0.5352   -1.4066 C   0  0  2  0  0  0  0  0  0  0  0  0
   -2.1642   -0.1634   -1.3798 C   0  0  0  0  0  0  0  0  0  0  0  0
   -3.1801    0.4528   -1.1051 O   0  0  0  0  0  0  0  0  0  0  0  0
    0.4211   -0.1797   -0.7597 C   0  0  0  0  0  0  0  0  0  0  0  0
    1.3582    0.9852   -0.4052 C   0  0  0  0  0  0  0  0  0  0  0  0
    0.7899    2.1504   -1.1961 C   0  0  0  0  0  0  0  0  0  0  0  0
   -0.5878    0.6269   -2.4806 H   0  0  0  0  0  0  0  0  0  0  0  0
    0.9036   -0.8732   -1.4537 H   0  0  0  0  0  0  0  0  0  0  0  0
    0.1324   -0.7235    0.1426 H   0  0  0  0  0  0  0  0  0  0  0  0
    1.3442    1.1879    0.6717 H   0  0  0  0  0  0  0  0  0  0  0  0
    2.3915    0.7737   -0.6968 H   0  0  0  0  0  0  0  0  0  0  0  0
    1.1631    3.1169   -0.8406 H   0  0  0  0  0  0  0  0  0  0  0  0
    0.9846    2.0827   -2.2728 H   0  0  0  0  0  0  0  0  0  0  0  0
   -2.5017   -1.4064   -1.8769 N   0  0  0  0  0  0  0  0  0  0  0  0
   -1.6523   -2.4700   -2.4426 C   0  0  2  0  0  0  0  0  0  0  0  0
   -0.7141   -3.1432   -1.4119 C   0  0  0  0  0  0  0  0  0  0  0  0
    0.3517   -3.6316   -1.7616 O   0  0  0  0  0  0  0  0  0  0  0  0
   -0.9299   -1.9850   -3.7094 C   0  0  0  0  0  0  0  0  0  0  0  0
   -3.5094   -1.5517   -1.8863 H   0  0  0  0  0  0  0  0  0  0  0  0
   -2.3318   -3.2652   -2.7646 H   0  0  0  0  0  0  0  0  0  0  0  0
   -0.0960   -1.3236   -3.4692 H   0  0  0  0  0  0  0  0  0  0  0  0
   -0.5276   -2.8415   -4.2597 H   0  0  0  0  0  0  0  0  0  0  0  0
   -1.6247   -1.4520   -4.3654 H   0  0  0  0  0  0  0  0  0  0  0  0
   -1.0595   -3.1645   -0.0735 N   0  0  0  0  0  0  0  0  0  0  0  0
   -0.1710   -3.6439    0.9780 C   0  0  0  0  0  0  0  0  0  0  0  0
   -1.8895   -2.6436    0.1979 H   0  0  0  0  0  0  0  0  0  0  0  0
    0.0376   -4.7106    0.8472 H   0  0  0  0  0  0  0  0  0  0  0  0
    0.7756   -3.0939    0.9635 H   0  0  0  0  0  0  0  0  0  0  0  0
   -0.6362   -3.4996    1.9581 H   0  0  0  0  0  0  0  0  0  0  0  0
  1  2  2  0  0  0  0
  1  3  1  0  0  0  0
  1  7  1  0  0  0  0
  3  4  1  0  0  0  0
  3  5  1  0  0  0  0
  3  6  1  0  0  0  0
  7  8  1  0  0  0  0
  7 12  1  0  0  0  0
  8  9  1  0  0  0  0
  8 11  1  0  0  0  0
  8 13  1  0  0  0  0
  9 10  2  0  0  0  0
  9 17  1  0  0  0  0
 11 14  1  0  0  0  0
 11 15  1  0  0  0  0
 11 16  1  0  0  0  0
 17 18  1  0  0  0  0
 17 23  1  0  0  0  0
 18 19  1  0  0  0  0
 18 21  1  0  0  0  0
 18 24  1  0  0  0  0
 19 20  2  0  0  0  0
 19 31  1  0  0  0  0
 21 22  1  0  0  0  0
 21 25  1  0  0  0  0
 21 26  1  0  0  0  0
 22 23  1  0  0  0  0
 22 27  1  0  0  0  0
 22 28  1  0  0  0  0
 23 29  1  0  0  0  0
 23 30  1  0  0  0  0
 31 32  1  0  0  0  0
 31 36  1  0  0  0  0
 32 33  1  0  0  0  0
 32 35  1  0  0  0  0
 32 37  1  0  0  0  0
 33 34  2  0  0  0  0
 33 41  1  0  0  0  0
 35 38  1  0  0  0  0
 35 39  1  0  0  0  0
 35 40  1  0  0  0  0
 41 42  1  0  0  0  0
 41 43  1  0  0  0  0
 42 44  1  0  0  0  0
 42 45  1  0  0  0  0
 42 46  1  0  0  0  0
M  END
$$$$

  -OEChem-05262217223D

 46 46  0     1  0  0  0  0  0999 V2000
   -0.7384    0.5851    3.3118 C   0  0  0  0  0  0  0  0  0  0  0  0
   -0.7356   -0.5276    2.8050 O   0  0  0  0  0  0  0  0  0  0  0  0
    0.0423    0.8333    4.5884 C   0  0  0  0  0  0  0  0  0  0  0  0
   -0.6076    1.2834    5.3427 H   0  0  0  0  0  0  0  0  0  0  0  0
    0.4355   -0.1087    4.9808 H   0  0  0  0  0  0  0  0  0  0  0  0
    0.8781    1.5082    4.3877 H   0  0  0  0  0  0  0  0  0  0  0  0
   -1.4167    1.6279    2.7155 N   0  0  0  0  0  0  0  0  0  0  0  0
   -1.9926    1.5649    1.3643 C   0  0  2  0  0  0  0  0  0  0  0  0
   -1.1370    2.3687    0.3484 C   0  0  0  0  0  0  0  0  0  0  0  0
   -0.8006    3.4968    0.7054 O   0  0  0  0  0  0  0  0  0  0  0  0
   -3.4111    2.1369    1.4444 C   0  0  0  0  0  0  0  0  0  0  0  0
   -1.2365    2.5580    3.0874 H   0  0  0  0  0  0  0  0  0  0  0  0
   -2.0637    0.5248    1.0528 H   0  0  0  0  0  0  0  0  0  0  0  0
   -3.3890    3.1782    1.7815 H   0  0  0  0  0  0  0  0  0  0  0  0
   -3.8937    2.1028    0.4629 H   0  0  0  0  0  0  0  0  0  0  0  0
   -4.0150    1.5544    2.1465 H   0  0  0  0  0  0  0  0  0  0  0  0
   -0.5251    1.8544   -0.8078 N   0  0  0  0  0  0  0  0  0  0  0  0
   -0.5455    0.4820   -1.3152 C   0  0  2  0  0  0  0  0  0  0  0  0
   -1.8921   -0.2919   -1.3359 C   0  0  0  0  0  0  0  0  0  0  0  0
   -2.9562    0.3015   -1.2785 O   0  0  0  0  0  0  0  0  0  0  0  0
    0.6411   -0.1026   -0.5321 C   0  0  0  0  0  0  0  0  0  0  0  0
    1.4711    1.1439   -0.1890 C   0  0  0  0  0  0  0  0  0  0  0  0
    0.8936    2.2133   -1.0991 C   0  0  0  0  0  0  0  0  0  0  0  0
   -0.2774    0.5102   -2.3761 H   0  0  0  0  0  0  0  0  0  0  0  0
    1.2191   -0.8059   -1.1379 H   0  0  0  0  0  0  0  0  0  0  0  0
    0.3172   -0.5996    0.3849 H   0  0  0  0  0  0  0  0  0  0  0  0
    1.3597    1.4145    0.8672 H   0  0  0  0  0  0  0  0  0  0  0  0
    2.5353    0.9850   -0.3879 H   0  0  0  0  0  0  0  0  0  0  0  0
    1.1733    3.2250   -0.7858 H   0  0  0  0  0  0  0  0  0  0  0  0
    1.1769    2.0894   -2.1509 H   0  0  0  0  0  0  0  0  0  0  0  0
   -2.1100   -1.6459   -1.4951 N   0  0  0  0  0  0  0  0  0  0  0  0
   -1.1806   -2.7088   -1.9195 C   0  0  2  0  0  0  0  0  0  0  0  0
   -0.1947   -3.1864   -0.8259 C   0  0  0  0  0  0  0  0  0  0  0  0
    0.9069   -3.6241   -1.1300 O   0  0  0  0  0  0  0  0  0  0  0  0
   -0.4980   -2.3401   -3.2474 C   0  0  0  0  0  0  0  0  0  0  0  0
   -3.1049   -1.8551   -1.5475 H   0  0  0  0  0  0  0  0  0  0  0  0
   -1.8017   -3.5846   -2.1313 H   0  0  0  0  0  0  0  0  0  0  0  0
    0.2781   -1.5857   -3.1045 H   0  0  0  0  0  0  0  0  0  0  0  0
   -0.0261   -3.2266   -3.6831 H   0  0  0  0  0  0  0  0  0  0  0  0
   -1.2332   -1.9580   -3.9622 H   0  0  0  0  0  0  0  0  0  0  0  0
   -0.5429   -3.1110    0.5099 N   0  0  0  0  0  0  0  0  0  0  0  0
    0.3796   -3.4254    1.5940 C   0  0  0  0  0  0  0  0  0  0  0  0
   -1.3894   -2.5947    0.7382 H   0  0  0  0  0  0  0  0  0  0  0  0
    0.7290   -4.4599    1.5131 H   0  0  0  0  0  0  0  0  0  0  0  0
    1.2457   -2.7561    1.5683 H   0  0  0  0  0  0  0  0  0  0  0  0
   -0.1202   -3.3053    2.5601 H   0  0  0  0  0  0  0  0  0  0  0  0
  1  2  2  0  0  0  0
  1  3  1  0  0  0  0
  1  7  1  0  0  0  0
  3  4  1  0  0  0  0
  3  5  1  0  0  0  0
  3  6  1  0  0  0  0
  7  8  1  0  0  0  0
  7 12  1  0  0  0  0
  8  9  1  0  0  0  0
  8 11  1  0  0  0  0
  8 13  1  0  0  0  0
  9 10  2  0  0  0  0
  9 17  1  0  0  0  0
 11 14  1  0  0  0  0
 11 15  1  0  0  0  0
 11 16  1  0  0  0  0
 17 18  1  0  0  0  0
 17 23  1  0  0  0  0
 18 19  1  0  0  0  0
 18 21  1  0  0  0  0
 18 24  1  0  0  0  0
 19 20  2  0  0  0  0
 19 31  1  0  0  0  0
 21 22  1  0  0  0  0
 21 25  1  0  0  0  0
 21 26  1  0  0  0  0
 22 23  1  0  0  0  0
 22 27  1  0  0  0  0
 22 28  1  0  0  0  0
 23 29  1  0  0  0  0
 23 30  1  0  0  0  0
 31 32  1  0  0  0  0
 31 36  1  0  0  0  0
 32 33  1  0  0  0  0
 32 35  1  0  0  0  0
 32 37  1  0  0  0  0
 33 34  2  0  0  0  0
 33 41  1  0  0  0  0
 35 38  1  0  0  0  0
 35 39  1  0  0  0  0
 35 40  1  0  0  0  0
 41 42  1  0  0  0  0
 41 43  1  0  0  0  0
 42 44  1  0  0  0  0
 42 45  1  0  0  0  0
 42 46  1  0  0  0  0
M  END
$$$$

  -OEChem-05262217223D

 46 46  0     1  0  0  0  0  0999 V2000
   -0.3753    0.7915    2.5880 C   0  0  0  0  0  0  0  0  0  0  0  0
   -0.5412   -0.2415    1.9670 O   0  0  0  0  0  0  0  0  0  0  0  0
    0.6236    0.8074    3.7297 C   0  0  0  0  0  0  0  0  0  0  0  0
    0.1223    1.0834    4.6606 H   0  0  0  0  0  0  0  0  0  0  0  0
    1.0731   -0.1823    3.8527 H   0  0  0  0  0  0  0  0  0  0  0  0
    1.4174    1.5292    3.5226 H   0  0  0  0  0  0  0  0  0  0  0  0
   -1.0384    1.9593    2.2663 N   0  0  0  0  0  0  0  0  0  0  0  0
   -2.0141    2.2198    1.1848 C   0  0  2  0  0  0  0  0  0  0  0  0
   -1.4095    2.9027   -0.0828 C   0  0  0  0  0  0  0  0  0  0  0  0
   -1.5331    4.1251   -0.0679 O   0  0  0  0  0  0  0  0  0  0  0  0
   -3.0526    1.1120    0.9483 C   0  0  0  0  0  0  0  0  0  0  0  0
   -0.7814    2.7649    2.8303 H   0  0  0  0  0  0  0  0  0  0  0  0
   -2.6440    3.0117    1.6056 H   0  0  0  0  0  0  0  0  0  0  0  0
   -3.6885    1.0106    1.8324 H   0  0  0  0  0  0  0  0  0  0  0  0
   -3.6881    1.3684    0.0947 H   0  0  0  0  0  0  0  0  0  0  0  0
   -2.6043    0.1399    0.7612 H   0  0  0  0  0  0  0  0  0  0  0  0
   -0.5860    2.4012   -1.1103 N   0  0  0  0  0  0  0  0  0  0  0  0
   -0.0127    1.0787   -1.3496 C   0  0  2  0  0  0  0  0  0  0  0  0
   -0.8536   -0.1987   -1.1894 C   0  0  0  0  0  0  0  0  0  0  0  0
   -2.0020   -0.2327   -1.6150 O   0  0  0  0  0  0  0  0  0  0  0  0
    1.3268    1.1714   -0.6100 C   0  0  0  0  0  0  0  0  0  0  0  0
    1.5545    2.6912   -0.5832 C   0  0  0  0  0  0  0  0  0  0  0  0
    0.5579    3.2318   -1.5986 C   0  0  0  0  0  0  0  0  0  0  0  0
    0.2183    1.0118   -2.4192 H   0  0  0  0  0  0  0  0  0  0  0  0
    2.1149    0.6505   -1.1633 H   0  0  0  0  0  0  0  0  0  0  0  0
    1.2826    0.7643    0.4020 H   0  0  0  0  0  0  0  0  0  0  0  0
    1.3539    3.0980    0.4141 H   0  0  0  0  0  0  0  0  0  0  0  0
    2.5816    2.9499   -0.8586 H   0  0  0  0  0  0  0  0  0  0  0  0
    0.4137    4.3129   -1.4983 H   0  0  0  0  0  0  0  0  0  0  0  0
    0.8426    3.0290   -2.6377 H   0  0  0  0  0  0  0  0  0  0  0  0
   -0.2460   -1.3782   -0.8059 N   0  0  0  0  0  0  0  0  0  0  0  0
   -0.9912   -2.5770   -0.4146 C   0  0  2  0  0  0  0  0  0  0  0  0
   -0.2975   -3.2779    0.7723 C   0  0  0  0  0  0  0  0  0  0  0  0
    0.9242   -3.2332    0.8874 O   0  0  0  0  0  0  0  0  0  0  0  0
   -1.0831   -3.5154   -1.6197 C   0  0  0  0  0  0  0  0  0  0  0  0
    0.6661   -1.2803   -0.3616 H   0  0  0  0  0  0  0  0  0  0  0  0
   -2.0002   -2.2995   -0.0926 H   0  0  0  0  0  0  0  0  0  0  0  0
   -0.0825   -3.8089   -1.9529 H   0  0  0  0  0  0  0  0  0  0  0  0
   -1.6434   -4.4184   -1.3598 H   0  0  0  0  0  0  0  0  0  0  0  0
   -1.5949   -3.0167   -2.4488 H   0  0  0  0  0  0  0  0  0  0  0  0
   -1.0426   -3.9760    1.7046 N   0  0  0  0  0  0  0  0  0  0  0  0
   -0.4589   -4.5626    2.9038 C   0  0  0  0  0  0  0  0  0  0  0  0
   -2.0525   -3.8887    1.6444 H   0  0  0  0  0  0  0  0  0  0  0  0
    0.3418   -5.2611    2.6386 H   0  0  0  0  0  0  0  0  0  0  0  0
   -0.0452   -3.7802    3.5487 H   0  0  0  0  0  0  0  0  0  0  0  0
   -1.2208   -5.1112    3.4658 H   0  0  0  0  0  0  0  0  0  0  0  0
  1  2  2  0  0  0  0
  1  3  1  0  0  0  0
  1  7  1  0  0  0  0
  3  4  1  0  0  0  0
  3  5  1  0  0  0  0
  3  6  1  0  0  0  0
  7  8  1  0  0  0  0
  7 12  1  0  0  0  0
  8  9  1  0  0  0  0
  8 11  1  0  0  0  0
  8 13  1  0  0  0  0
  9 10  2  0  0  0  0
  9 17  1  0  0  0  0
 11 14  1  0  0  0  0
 11 15  1  0  0  0  0
 11 16  1  0  0  0  0
 17 18  1  0  0  0  0
 17 23  1  0  0  0  0
 18 19  1  0  0  0  0
 18 21  1  0  0  0  0
 18 24  1  0  0  0  0
 19 20  2  0  0  0  0
 19 31  1  0  0  0  0
 21 22  1  0  0  0  0
 21 25  1  0  0  0  0
 21 26  1  0  0  0  0
 22 23  1  0  0  0  0
 22 27  1  0  0  0  0
 22 28  1  0  0  0  0
 23 29  1  0  0  0  0
 23 30  1  0  0  0  0
 31 32  1  0  0  0  0
 31 36  1  0  0  0  0
 32 33  1  0  0  0  0
 32 35  1  0  0  0  0
 32 37  1  0  0  0  0
 33 34  2  0  0  0  0
 33 41  1  0  0  0  0
 35 38  1  0  0  0  0
 35 39  1  0  0  0  0
 35 40  1  0  0  0  0
 41 42  1  0  0  0  0
 41 43  1  0  0  0  0
 42 44  1  0  0  0  0
 42 45  1  0  0  0  0
 42 46  1  0  0  0  0
M  END
$$$$

  -OEChem-05262217223D

 46 46  0     1  0  0  0  0  0999 V2000
   -1.2696    0.9910    3.3346 C   0  0  0  0  0  0  0  0  0  0  0  0
   -1.2181   -0.1829    2.9947 O   0  0  0  0  0  0  0  0  0  0  0  0
   -0.7282    1.4082    4.6887 C   0  0  0  0  0  0  0  0  0  0  0  0
   -1.4950    1.9505    5.2474 H   0  0  0  0  0  0  0  0  0  0  0  0
   -0.4313    0.5270    5.2643 H   0  0  0  0  0  0  0  0  0  0  0  0
    0.1433    2.0546    4.5583 H   0  0  0  0  0  0  0  0  0  0  0  0
   -1.7866    1.9440    2.4817 N   0  0  0  0  0  0  0  0  0  0  0  0
   -2.1305    1.6872    1.0762 C   0  0  2  0  0  0  0  0  0  0  0  0
   -1.1980    2.4621    0.1080 C   0  0  0  0  0  0  0  0  0  0  0  0
   -1.0678    3.6635    0.3361 O   0  0  0  0  0  0  0  0  0  0  0  0
   -3.5880    2.1034    0.8612 C   0  0  0  0  0  0  0  0  0  0  0  0
   -1.6741    2.9184    2.7543 H   0  0  0  0  0  0  0  0  0  0  0  0
   -2.0650    0.6215    0.8801 H   0  0  0  0  0  0  0  0  0  0  0  0
   -3.7205    3.1713    1.0621 H   0  0  0  0  0  0  0  0  0  0  0  0
   -3.8896    1.9043   -0.1721 H   0  0  0  0  0  0  0  0  0  0  0  0
   -4.2457    1.5373    1.5273 H   0  0  0  0  0  0  0  0  0  0  0  0
   -0.3105    1.8833   -0.8141 N   0  0  0  0  0  0  0  0  0  0  0  0
   -0.0637    0.4643   -1.0665 C   0  0  2  0  0  0  0  0  0  0  0  0
   -1.2812   -0.4907   -1.1804 C   0  0  0  0  0  0  0  0  0  0  0  0
   -2.3488   -0.0682   -1.5936 O   0  0  0  0  0  0  0  0  0  0  0  0
    1.0213    0.1982   -0.0118 C   0  0  0  0  0  0  0  0  0  0  0  0
    1.6097    1.5965    0.2332 C   0  0  0  0  0  0  0  0  0  0  0  0
    1.0797    2.4115   -0.9328 C   0  0  0  0  0  0  0  0  0  0  0  0
    0.3973    0.3634   -2.0552 H   0  0  0  0  0  0  0  0  0  0  0  0
    1.7778   -0.5017   -0.3805 H   0  0  0  0  0  0  0  0  0  0  0  0
    0.5949   -0.1815    0.9187 H   0  0  0  0  0  0  0  0  0  0  0  0
    1.2719    2.0046    1.1925 H   0  0  0  0  0  0  0  0  0  0  0  0
    2.7038    1.5773    0.2390 H   0  0  0  0  0  0  0  0  0  0  0  0
    1.1643    3.4904   -0.7620 H   0  0  0  0  0  0  0  0  0  0  0  0
    1.5644    2.1756   -1.8872 H   0  0  0  0  0  0  0  0  0  0  0  0
   -1.4312   -1.7364   -0.6041 N   0  0  0  0  0  0  0  0  0  0  0  0
   -0.4419   -2.8330   -0.6357 C   0  0  2  0  0  0  0  0  0  0  0  0
    0.5396   -2.9052    0.5613 C   0  0  0  0  0  0  0  0  0  0  0  0
    1.6932   -3.2808    0.3938 O   0  0  0  0  0  0  0  0  0  0  0  0
    0.2686   -2.8787   -2.0014 C   0  0  0  0  0  0  0  0  0  0  0  0
   -2.4042   -2.0288   -0.6661 H   0  0  0  0  0  0  0  0  0  0  0  0
   -1.0204   -3.7593   -0.5647 H   0  0  0  0  0  0  0  0  0  0  0  0
    0.9696   -2.0470   -2.1113 H   0  0  0  0  0  0  0  0  0  0  0  0
    0.8329   -3.8118   -2.1008 H   0  0  0  0  0  0  0  0  0  0  0  0
   -0.4619   -2.8350   -2.8154 H   0  0  0  0  0  0  0  0  0  0  0  0
    0.1294   -2.5802    1.8409 N   0  0  0  0  0  0  0  0  0  0  0  0
    1.0359   -2.5782    2.9826 C   0  0  0  0  0  0  0  0  0  0  0  0
   -0.7394   -2.0492    1.9301 H   0  0  0  0  0  0  0  0  0  0  0  0
    1.4927   -3.5648    3.1141 H   0  0  0  0  0  0  0  0  0  0  0  0
    1.8289   -1.8368    2.8412 H   0  0  0  0  0  0  0  0  0  0  0  0
    0.4874   -2.3297    3.8962 H   0  0  0  0  0  0  0  0  0  0  0  0
  1  2  2  0  0  0  0
  1  3  1  0  0  0  0
  1  7  1  0  0  0  0
  3  4  1  0  0  0  0
  3  5  1  0  0  0  0
  3  6  1  0  0  0  0
  7  8  1  0  0  0  0
  7 12  1  0  0  0  0
  8  9  1  0  0  0  0
  8 11  1  0  0  0  0
  8 13  1  0  0  0  0
  9 10  2  0  0  0  0
  9 17  1  0  0  0  0
 11 14  1  0  0  0  0
 11 15  1  0  0  0  0
 11 16  1  0  0  0  0
 17 18  1  0  0  0  0
 17 23  1  0  0  0  0
 18 19  1  0  0  0  0
 18 21  1  0  0  0  0
 18 24  1  0  0  0  0
 19 20  2  0  0  0  0
 19 31  1  0  0  0  0
 21 22  1  0  0  0  0
 21 25  1  0  0  0  0
 21 26  1  0  0  0  0
 22 23  1  0  0  0  0
 22 27  1  0  0  0  0
 22 28  1  0  0  0  0
 23 29  1  0  0  0  0
 23 30  1  0  0  0  0
 31 32  1  0  0  0  0
 31 36  1  0  0  0  0
 32 33  1  0  0  0  0
 32 35  1  0  0  0  0
 32 37  1  0  0  0  0
 33 34  2  0  0  0  0
 33 41  1  0  0  0  0
 35 38  1  0  0  0  0
 35 39  1  0  0  0  0
 35 40  1  0  0  0  0
 41 42  1  0  0  0  0
 41 43  1  0  0  0  0
 42 44  1  0  0  0  0
 42 45  1  0  0  0  0
 42 46  1  0  0  0  0
M  END
$$$$

  -OEChem-05262217223D

 46 46  0     1  0  0  0  0  0999 V2000
   -1.5312    1.2207    3.6502 C   0  0  0  0  0  0  0  0  0  0  0  0
   -1.5982    0.0113    3.4771 O   0  0  0  0  0  0  0  0  0  0  0  0
   -1.1865    1.7733    5.0201 C   0  0  0  0  0  0  0  0  0  0  0  0
   -1.9469    2.4916    5.3361 H   0  0  0  0  0  0  0  0  0  0  0  0
   -1.1418    0.9632    5.7534 H   0  0  0  0  0  0  0  0  0  0  0  0
   -0.2155    2.2733    4.9864 H   0  0  0  0  0  0  0  0  0  0  0  0
   -1.7424    2.0841    2.5961 N   0  0  0  0  0  0  0  0  0  0  0  0
   -1.9534    1.6572    1.2068 C   0  0  2  0  0  0  0  0  0  0  0  0
   -1.1343    2.5078    0.2029 C   0  0  0  0  0  0  0  0  0  0  0  0
   -1.0669    3.7127    0.4389 O   0  0  0  0  0  0  0  0  0  0  0  0
   -3.4511    1.7675    0.9080 C   0  0  0  0  0  0  0  0  0  0  0  0
   -1.5918    3.0790    2.7571 H   0  0  0  0  0  0  0  0  0  0  0  0
   -1.6511    0.6181    1.1132 H   0  0  0  0  0  0  0  0  0  0  0  0
   -3.7941    2.7983    1.0421 H   0  0  0  0  0  0  0  0  0  0  0  0
   -3.6617    1.4661   -0.1220 H   0  0  0  0  0  0  0  0  0  0  0  0
   -4.0200    1.1187    1.5809 H   0  0  0  0  0  0  0  0  0  0  0  0
   -0.2691    1.9866   -0.7718 N   0  0  0  0  0  0  0  0  0  0  0  0
    0.0428    0.5842   -1.0440 C   0  0  2  0  0  0  0  0  0  0  0  0
   -1.1245   -0.4389   -1.0928 C   0  0  0  0  0  0  0  0  0  0  0  0
   -2.1712   -0.1171   -1.6279 O   0  0  0  0  0  0  0  0  0  0  0  0
    1.2146    0.3942   -0.0676 C   0  0  0  0  0  0  0  0  0  0  0  0
    1.7306    1.8279    0.1335 C   0  0  0  0  0  0  0  0  0  0  0  0
    1.0711    2.6033   -0.9911 C   0  0  0  0  0  0  0  0  0  0  0  0
    0.4443    0.5091   -2.0606 H   0  0  0  0  0  0  0  0  0  0  0  0
    1.9821   -0.2698   -0.4782 H   0  0  0  0  0  0  0  0  0  0  0  0
    0.8784    0.0128    0.8967 H   0  0  0  0  0  0  0  0  0  0  0  0
    1.4371    2.2205    1.1136 H   0  0  0  0  0  0  0  0  0  0  0  0
    2.8214    1.8756    0.0615 H   0  0  0  0  0  0  0  0  0  0  0  0
    1.0973    3.6859   -0.8248 H   0  0  0  0  0  0  0  0  0  0  0  0
    1.5005    2.3947   -1.9780 H   0  0  0  0  0  0  0  0  0  0  0  0
   -1.3112   -1.5590   -0.3060 N   0  0  0  0  0  0  0  0  0  0  0  0
   -0.3453   -2.6656   -0.1478 C   0  0  2  0  0  0  0  0  0  0  0  0
    0.6222   -2.5554    1.0568 C   0  0  0  0  0  0  0  0  0  0  0  0
    1.8028   -2.8579    0.9356 O   0  0  0  0  0  0  0  0  0  0  0  0
    0.3754   -2.9428   -1.4809 C   0  0  0  0  0  0  0  0  0  0  0  0
   -2.2845   -1.8518   -0.3683 H   0  0  0  0  0  0  0  0  0  0  0  0
   -0.9414   -3.5585    0.0652 H   0  0  0  0  0  0  0  0  0  0  0  0
    1.0774   -2.1407   -1.7255 H   0  0  0  0  0  0  0  0  0  0  0  0
    0.9390   -3.8793   -1.4168 H   0  0  0  0  0  0  0  0  0  0  0  0
   -0.3492   -3.0372   -2.2959 H   0  0  0  0  0  0  0  0  0  0  0  0
    0.1769   -2.1120    2.2890 N   0  0  0  0  0  0  0  0  0  0  0  0
    1.0567   -1.9440    3.4388 C   0  0  0  0  0  0  0  0  0  0  0  0
   -0.7555   -1.6966    2.3406 H   0  0  0  0  0  0  0  0  0  0  0  0
    1.6021   -2.8706    3.6465 H   0  0  0  0  0  0  0  0  0  0  0  0
    1.7780   -1.1415    3.2543 H   0  0  0  0  0  0  0  0  0  0  0  0
    0.4701   -1.6869    4.3258 H   0  0  0  0  0  0  0  0  0  0  0  0
  1  2  2  0  0  0  0
  1  3  1  0  0  0  0
  1  7  1  0  0  0  0
  3  4  1  0  0  0  0
  3  5  1  0  0  0  0
  3  6  1  0  0  0  0
  7  8  1  0  0  0  0
  7 12  1  0  0  0  0
  8  9  1  0  0  0  0
  8 11  1  0  0  0  0
  8 13  1  0  0  0  0
  9 10  2  0  0  0  0
  9 17  1  0  0  0  0
 11 14  1  0  0  0  0
 11 15  1  0  0  0  0
 11 16  1  0  0  0  0
 17 18  1  0  0  0  0
 17 23  1  0  0  0  0
 18 19  1  0  0  0  0
 18 21  1  0  0  0  0
 18 24  1  0  0  0  0
 19 20  2  0  0  0  0
 19 31  1  0  0  0  0
 21 22  1  0  0  0  0
 21 25  1  0  0  0  0
 21 26  1  0  0  0  0
 22 23  1  0  0  0  0
 22 27  1  0  0  0  0
 22 28  1  0  0  0  0
 23 29  1  0  0  0  0
 23 30  1  0  0  0  0
 31 32  1  0  0  0  0
 31 36  1  0  0  0  0
 32 33  1  0  0  0  0
 32 35  1  0  0  0  0
 32 37  1  0  0  0  0
 33 34  2  0  0  0  0
 33 41  1  0  0  0  0
 35 38  1  0  0  0  0
 35 39  1  0  0  0  0
 35 40  1  0  0  0  0
 41 42  1  0  0  0  0
 41 43  1  0  0  0  0
 42 44  1  0  0  0  0
 42 45  1  0  0  0  0
 42 46  1  0  0  0  0
M  END
$$$$

  -OEChem-05262217223D

 46 46  0     1  0  0  0  0  0999 V2000
   -1.7698    1.4059    3.9040 C   0  0  0  0  0  0  0  0  0  0  0  0
   -1.8403    0.1887    3.7987 O   0  0  0  0  0  0  0  0  0  0  0  0
   -1.6557    2.0500    5.2725 C   0  0  0  0  0  0  0  0  0  0  0  0
   -1.6108    1.2817    6.0493 H   0  0  0  0  0  0  0  0  0  0  0  0
   -2.5238    2.6874    5.4575 H   0  0  0  0  0  0  0  0  0  0  0  0
   -0.7489    2.6577    5.3255 H   0  0  0  0  0  0  0  0  0  0  0  0
   -1.7793    2.1924    2.7722 N   0  0  0  0  0  0  0  0  0  0  0  0
   -1.8566    1.6679    1.4038 C   0  0  2  0  0  0  0  0  0  0  0  0
   -1.1702    2.5918    0.3690 C   0  0  0  0  0  0  0  0  0  0  0  0
   -1.1778    3.7964    0.6147 O   0  0  0  0  0  0  0  0  0  0  0  0
   -3.3404    1.4929    1.0597 C   0  0  0  0  0  0  0  0  0  0  0  0
   -1.6853    3.2015    2.8817 H   0  0  0  0  0  0  0  0  0  0  0  0
   -1.3508    0.7054    1.3844 H   0  0  0  0  0  0  0  0  0  0  0  0
   -3.8676    2.4474    1.1555 H   0  0  0  0  0  0  0  0  0  0  0  0
   -3.4655    1.1373    0.0341 H   0  0  0  0  0  0  0  0  0  0  0  0
   -3.8052    0.7676    1.7346 H   0  0  0  0  0  0  0  0  0  0  0  0
   -0.3431    2.1407   -0.6699 N   0  0  0  0  0  0  0  0  0  0  0  0
    0.0448    0.7690   -0.9967 C   0  0  2  0  0  0  0  0  0  0  0  0
   -1.0403   -0.3434   -0.9949 C   0  0  0  0  0  0  0  0  0  0  0  0
   -2.0426   -0.1733   -1.6668 O   0  0  0  0  0  0  0  0  0  0  0  0
    1.3104    0.6499   -0.1340 C   0  0  0  0  0  0  0  0  0  0  0  0
    1.7360    2.1161    0.0492 C   0  0  0  0  0  0  0  0  0  0  0  0
    0.9234    2.8594   -0.9940 C   0  0  0  0  0  0  0  0  0  0  0  0
    0.3665    0.7458   -2.0443 H   0  0  0  0  0  0  0  0  0  0  0  0
    2.0804    0.0466   -0.6257 H   0  0  0  0  0  0  0  0  0  0  0  0
    1.0977    0.2369    0.8497 H   0  0  0  0  0  0  0  0  0  0  0  0
    1.5044    2.4711    1.0600 H   0  0  0  0  0  0  0  0  0  0  0  0
    2.8098    2.2457   -0.1179 H   0  0  0  0  0  0  0  0  0  0  0  0
    0.8852    3.9376   -0.8045 H   0  0  0  0  0  0  0  0  0  0  0  0
    1.2764    2.7009   -2.0198 H   0  0  0  0  0  0  0  0  0  0  0  0
   -1.2589   -1.3402   -0.0625 N   0  0  0  0  0  0  0  0  0  0  0  0
   -0.3079   -2.4308    0.2402 C   0  0  2  0  0  0  0  0  0  0  0  0
    0.6680   -2.1792    1.4167 C   0  0  0  0  0  0  0  0  0  0  0  0
    1.8585   -2.4447    1.3041 O   0  0  0  0  0  0  0  0  0  0  0  0
    0.4067   -2.8856   -1.0470 C   0  0  0  0  0  0  0  0  0  0  0  0
   -2.2251   -1.6513   -0.1472 H   0  0  0  0  0  0  0  0  0  0  0  0
   -0.9148   -3.2803    0.5679 H   0  0  0  0  0  0  0  0  0  0  0  0
    1.1071   -2.1231   -1.3995 H   0  0  0  0  0  0  0  0  0  0  0  0
    0.9709   -3.8052   -0.8610 H   0  0  0  0  0  0  0  0  0  0  0  0
   -0.3208   -3.0875   -1.8395 H   0  0  0  0  0  0  0  0  0  0  0  0
    0.2302   -1.6207    2.6042 N   0  0  0  0  0  0  0  0  0  0  0  0
    1.1195   -1.3158    3.7186 C   0  0  0  0  0  0  0  0  0  0  0  0
   -0.7393   -1.3016    2.6652 H   0  0  0  0  0  0  0  0  0  0  0  0
    0.5390   -0.9797    4.5832 H   0  0  0  0  0  0  0  0  0  0  0  0
    1.8215   -0.5228    3.4416 H   0  0  0  0  0  0  0  0  0  0  0  0
    1.6875   -2.2043    4.0135 H   0  0  0  0  0  0  0  0  0  0  0  0
  1  2  2  0  0  0  0
  1  3  1  0  0  0  0
  1  7  1  0  0  0  0
  3  4  1  0  0  0  0
  3  5  1  0  0  0  0
  3  6  1  0  0  0  0
  7  8  1  0  0  0  0
  7 12  1  0  0  0  0
  8  9  1  0  0  0  0
  8 11  1  0  0  0  0
  8 13  1  0  0  0  0
  9 10  2  0  0  0  0
  9 17  1  0  0  0  0
 11 14  1  0  0  0  0
 11 15  1  0  0  0  0
 11 16  1  0  0  0  0
 17 18  1  0  0  0  0
 17 23  1  0  0  0  0
 18 19  1  0  0  0  0
 18 21  1  0  0  0  0
 18 24  1  0  0  0  0
 19 20  2  0  0  0  0
 19 31  1  0  0  0  0
 21 22  1  0  0  0  0
 21 25  1  0  0  0  0
 21 26  1  0  0  0  0
 22 23  1  0  0  0  0
 22 27  1  0  0  0  0
 22 28  1  0  0  0  0
 23 29  1  0  0  0  0
 23 30  1  0  0  0  0
 31 32  1  0  0  0  0
 31 36  1  0  0  0  0
 32 33  1  0  0  0  0
 32 35  1  0  0  0  0
 32 37  1  0  0  0  0
 33 34  2  0  0  0  0
 33 41  1  0  0  0  0
 35 38  1  0  0  0  0
 35 39  1  0  0  0  0
 35 40  1  0  0  0  0
 41 42  1  0  0  0  0
 41 43  1  0  0  0  0
 42 44  1  0  0  0  0
 42 45  1  0  0  0  0
 42 46  1  0  0  0  0
M  END
$$$$

  -OEChem-05262217223D

 46 46  0     1  0  0  0  0  0999 V2000
   -2.4552    1.9297    3.5799 C   0  0  0  0  0  0  0  0  0  0  0  0
   -2.4026    0.7170    3.7360 O   0  0  0  0  0  0  0  0  0  0  0  0
   -2.7242    2.8418    4.7614 C   0  0  0  0  0  0  0  0  0  0  0  0
   -3.6273    3.4298    4.5802 H   0  0  0  0  0  0  0  0  0  0  0  0
   -2.8653    2.2514    5.6710 H   0  0  0  0  0  0  0  0  0  0  0  0
   -1.8802    3.5200    4.9088 H   0  0  0  0  0  0  0  0  0  0  0  0
   -2.2465    2.4669    2.3278 N   0  0  0  0  0  0  0  0  0  0  0  0
   -1.9531    1.6752    1.1270 C   0  0  2  0  0  0  0  0  0  0  0  0
   -1.2438    2.4910    0.0221 C   0  0  0  0  0  0  0  0  0  0  0  0
   -1.4200    3.7077    0.0326 O   0  0  0  0  0  0  0  0  0  0  0  0
   -3.2847    1.1251    0.5969 C   0  0  0  0  0  0  0  0  0  0  0  0
   -2.2711    3.4809    2.2242 H   0  0  0  0  0  0  0  0  0  0  0  0
   -1.2872    0.8654    1.4170 H   0  0  0  0  0  0  0  0  0  0  0  0
   -3.7303    0.4366    1.3211 H   0  0  0  0  0  0  0  0  0  0  0  0
   -3.1417    0.5881   -0.3439 H   0  0  0  0  0  0  0  0  0  0  0  0
   -3.9882    1.9441    0.4156 H   0  0  0  0  0  0  0  0  0  0  0  0
   -0.2496    1.9792   -0.8233 N   0  0  0  0  0  0  0  0  0  0  0  0
    0.3343    0.6380   -0.8708 C   0  0  2  0  0  0  0  0  0  0  0  0
   -0.5775   -0.6181   -0.7927 C   0  0  0  0  0  0  0  0  0  0  0  0
   -1.3676   -0.8017   -1.7027 O   0  0  0  0  0  0  0  0  0  0  0  0
    1.5101    0.8247    0.0975 C   0  0  0  0  0  0  0  0  0  0  0  0
    1.7360    2.3457    0.0563 C   0  0  0  0  0  0  0  0  0  0  0  0
    0.9513    2.7986   -1.1608 C   0  0  0  0  0  0  0  0  0  0  0  0
    0.7701    0.5010   -1.8677 H   0  0  0  0  0  0  0  0  0  0  0  0
    2.3905    0.2592   -0.2250 H   0  0  0  0  0  0  0  0  0  0  0  0
    1.2566    0.5461    1.1170 H   0  0  0  0  0  0  0  0  0  0  0  0
    1.3613    2.8244    0.9682 H   0  0  0  0  0  0  0  0  0  0  0  0
    2.7981    2.5903   -0.0442 H   0  0  0  0  0  0  0  0  0  0  0  0
    0.7700    3.8789   -1.1611 H   0  0  0  0  0  0  0  0  0  0  0  0
    1.4238    2.5286   -2.1123 H   0  0  0  0  0  0  0  0  0  0  0  0
   -0.9913   -1.3196    0.3237 N   0  0  0  0  0  0  0  0  0  0  0  0
   -0.1152   -2.2367    1.0842 C   0  0  2  0  0  0  0  0  0  0  0  0
    0.6772   -1.6128    2.2597 C   0  0  0  0  0  0  0  0  0  0  0  0
    1.8897   -1.7663    2.3450 O   0  0  0  0  0  0  0  0  0  0  0  0
    0.7853   -3.0274    0.1159 C   0  0  0  0  0  0  0  0  0  0  0  0
   -1.9008   -1.7261    0.1130 H   0  0  0  0  0  0  0  0  0  0  0  0
   -0.7764   -2.9692    1.5576 H   0  0  0  0  0  0  0  0  0  0  0  0
    1.5349   -2.3754   -0.3430 H   0  0  0  0  0  0  0  0  0  0  0  0
    1.3104   -3.8237    0.6532 H   0  0  0  0  0  0  0  0  0  0  0  0
    0.1867   -3.4875   -0.6766 H   0  0  0  0  0  0  0  0  0  0  0  0
    0.0484   -0.8418    3.2201 N   0  0  0  0  0  0  0  0  0  0  0  0
    0.7552   -0.2107    4.3280 C   0  0  0  0  0  0  0  0  0  0  0  0
   -0.9544   -0.6613    3.1264 H   0  0  0  0  0  0  0  0  0  0  0  0
    1.4464    0.5526    3.9563 H   0  0  0  0  0  0  0  0  0  0  0  0
    1.3224   -0.9549    4.8968 H   0  0  0  0  0  0  0  0  0  0  0  0
    0.0419    0.2672    5.0065 H   0  0  0  0  0  0  0  0  0  0  0  0
  1  2  2  0  0  0  0
  1  3  1  0  0  0  0
  1  7  1  0  0  0  0
  3  4  1  0  0  0  0
  3  5  1  0  0  0  0
  3  6  1  0  0  0  0
  7  8  1  0  0  0  0
  7 12  1  0  0  0  0
  8  9  1  0  0  0  0
  8 11  1  0  0  0  0
  8 13  1  0  0  0  0
  9 10  2  0  0  0  0
  9 17  1  0  0  0  0
 11 14  1  0  0  0  0
 11 15  1  0  0  0  0
 11 16  1  0  0  0  0
 17 18  1  0  0  0  0
 17 23  1  0  0  0  0
 18 19  1  0  0  0  0
 18 21  1  0  0  0  0
 18 24  1  0  0  0  0
 19 20  2  0  0  0  0
 19 31  1  0  0  0  0
 21 22  1  0  0  0  0
 21 25  1  0  0  0  0
 21 26  1  0  0  0  0
 22 23  1  0  0  0  0
 22 27  1  0  0  0  0
 22 28  1  0  0  0  0
 23 29  1  0  0  0  0
 23 30  1  0  0  0  0
 31 32  1  0  0  0  0
 31 36  1  0  0  0  0
 32 33  1  0  0  0  0
 32 35  1  0  0  0  0
 32 37  1  0  0  0  0
 33 34  2  0  0  0  0
 33 41  1  0  0  0  0
 35 38  1  0  0  0  0
 35 39  1  0  0  0  0
 35 40  1  0  0  0  0
 41 42  1  0  0  0  0
 41 43  1  0  0  0  0
 42 44  1  0  0  0  0
 42 45  1  0  0  0  0
 42 46  1  0  0  0  0
M  END
$$$$

  -OEChem-05262217223D

 46 46  0     1  0  0  0  0  0999 V2000
   -2.3888    2.4252    3.6619 C   0  0  0  0  0  0  0  0  0  0  0  0
   -2.4553    1.2183    3.8540 O   0  0  0  0  0  0  0  0  0  0  0  0
   -2.5819    3.3944    4.8127 C   0  0  0  0  0  0  0  0  0  0  0  0
   -3.3563    4.1236    4.5611 H   0  0  0  0  0  0  0  0  0  0  0  0
   -2.8860    2.8549    5.7141 H   0  0  0  0  0  0  0  0  0  0  0  0
   -1.6470    3.9224    5.0161 H   0  0  0  0  0  0  0  0  0  0  0  0
   -2.1130    2.9011    2.3982 N   0  0  0  0  0  0  0  0  0  0  0  0
   -1.8838    2.0504    1.2235 C   0  0  2  0  0  0  0  0  0  0  0  0
   -1.0935    2.7614    0.1046 C   0  0  0  0  0  0  0  0  0  0  0  0
   -1.1399    3.9900    0.0948 O   0  0  0  0  0  0  0  0  0  0  0  0
   -3.2554    1.6170    0.6869 C   0  0  0  0  0  0  0  0  0  0  0  0
   -2.0293    3.9090    2.2672 H   0  0  0  0  0  0  0  0  0  0  0  0
   -1.2955    1.1932    1.5427 H   0  0  0  0  0  0  0  0  0  0  0  0
   -3.8812    2.4942    0.4937 H   0  0  0  0  0  0  0  0  0  0  0  0
   -3.1523    1.0628   -0.2502 H   0  0  0  0  0  0  0  0  0  0  0  0
   -3.7664    0.9777    1.4132 H   0  0  0  0  0  0  0  0  0  0  0  0
   -0.1702    2.1318   -0.7411 N   0  0  0  0  0  0  0  0  0  0  0  0
    0.2755    0.7361   -0.7975 C   0  0  2  0  0  0  0  0  0  0  0  0
   -0.7225   -0.4547   -0.7143 C   0  0  0  0  0  0  0  0  0  0  0  0
   -1.4022   -0.6770   -1.7022 O   0  0  0  0  0  0  0  0  0  0  0  0
    1.4794    0.7986    0.1509 C   0  0  0  0  0  0  0  0  0  0  0  0
    1.8581    2.2888    0.1054 C   0  0  0  0  0  0  0  0  0  0  0  0
    1.1044    2.8217   -1.0992 C   0  0  0  0  0  0  0  0  0  0  0  0
    0.6834    0.5683   -1.8017 H   0  0  0  0  0  0  0  0  0  0  0  0
    2.2909    0.1476   -0.1902 H   0  0  0  0  0  0  0  0  0  0  0  0
    1.2181    0.5384    1.1735 H   0  0  0  0  0  0  0  0  0  0  0  0
    1.5466    2.8013    1.0229 H   0  0  0  0  0  0  0  0  0  0  0  0
    2.9375    2.4259   -0.0107 H   0  0  0  0  0  0  0  0  0  0  0  0
    1.0395    3.9151   -1.0981 H   0  0  0  0  0  0  0  0  0  0  0  0
    1.5302    2.5048   -2.0585 H   0  0  0  0  0  0  0  0  0  0  0  0
   -1.3849   -0.9487    0.3910 N   0  0  0  0  0  0  0  0  0  0  0  0
   -0.7947   -1.9760    1.2750 C   0  0  2  0  0  0  0  0  0  0  0  0
    0.1970   -1.4640    2.3472 C   0  0  0  0  0  0  0  0  0  0  0  0
    1.3710   -1.8146    2.3341 O   0  0  0  0  0  0  0  0  0  0  0  0
   -0.2008   -3.1133    0.4228 C   0  0  0  0  0  0  0  0  0  0  0  0
   -2.3210   -1.2062    0.0841 H   0  0  0  0  0  0  0  0  0  0  0  0
   -1.6226   -2.4109    1.8435 H   0  0  0  0  0  0  0  0  0  0  0  0
    0.6798   -2.7714   -0.1306 H   0  0  0  0  0  0  0  0  0  0  0  0
    0.1032   -3.9469    1.0641 H   0  0  0  0  0  0  0  0  0  0  0  0
   -0.9416   -3.4828   -0.2930 H   0  0  0  0  0  0  0  0  0  0  0  0
   -0.2106   -0.5736    3.3232 N   0  0  0  0  0  0  0  0  0  0  0  0
    0.6843   -0.0233    4.3329 C   0  0  0  0  0  0  0  0  0  0  0  0
   -1.1793   -0.2415    3.3087 H   0  0  0  0  0  0  0  0  0  0  0  0
    1.1579   -0.8263    4.9069 H   0  0  0  0  0  0  0  0  0  0  0  0
    1.4646    0.5840    3.8631 H   0  0  0  0  0  0  0  0  0  0  0  0
    0.1228    0.6097    5.0266 H   0  0  0  0  0  0  0  0  0  0  0  0
  1  2  2  0  0  0  0
  1  3  1  0  0  0  0
  1  7  1  0  0  0  0
  3  4  1  0  0  0  0
  3  5  1  0  0  0  0
  3  6  1  0  0  0  0
  7  8  1  0  0  0  0
  7 12  1  0  0  0  0
  8  9  1  0  0  0  0
  8 11  1  0  0  0  0
  8 13  1  0  0  0  0
  9 10  2  0  0  0  0
  9 17  1  0  0  0  0
 11 14  1  0  0  0  0
 11 15  1  0  0  0  0
 11 16  1  0  0  0  0
 17 18  1  0  0  0  0
 17 23  1  0  0  0  0
 18 19  1  0  0  0  0
 18 21  1  0  0  0  0
 18 24  1  0  0  0  0
 19 20  2  0  0  0  0
 19 31  1  0  0  0  0
 21 22  1  0  0  0  0
 21 25  1  0  0  0  0
 21 26  1  0  0  0  0
 22 23  1  0  0  0  0
 22 27  1  0  0  0  0
 22 28  1  0  0  0  0
 23 29  1  0  0  0  0
 23 30  1  0  0  0  0
 31 32  1  0  0  0  0
 31 36  1  0  0  0  0
 32 33  1  0  0  0  0
 32 35  1  0  0  0  0
 32 37  1  0  0  0  0
 33 34  2  0  0  0  0
 33 41  1  0  0  0  0
 35 38  1  0  0  0  0
 35 39  1  0  0  0  0
 35 40  1  0  0  0  0
 41 42  1  0  0  0  0
 41 43  1  0  0  0  0
 42 44  1  0  0  0  0
 42 45  1  0  0  0  0
 42 46  1  0  0  0  0
M  END
$$$$

  -OEChem-05262217223D

 46 46  0     1  0  0  0  0  0999 V2000
   -0.0215    2.1449    3.9444 C   0  0  0  0  0  0  0  0  0  0  0  0
   -0.3163    0.9584    3.8849 O   0  0  0  0  0  0  0  0  0  0  0  0
    0.6939    2.6909    5.1651 C   0  0  0  0  0  0  0  0  0  0  0  0
    0.0634    3.4292    5.6670 H   0  0  0  0  0  0  0  0  0  0  0  0
    0.9158    1.8815    5.8663 H   0  0  0  0  0  0  0  0  0  0  0  0
    1.6319    3.1661    4.8674 H   0  0  0  0  0  0  0  0  0  0  0  0
   -0.3390    2.9878    2.8999 N   0  0  0  0  0  0  0  0  0  0  0  0
   -0.8795    2.5340    1.6111 C   0  0  2  0  0  0  0  0  0  0  0  0
   -0.1242    3.1265    0.4025 C   0  0  0  0  0  0  0  0  0  0  0  0
    0.3909    4.2296    0.5723 O   0  0  0  0  0  0  0  0  0  0  0  0
   -2.3582    2.9351    1.5709 C   0  0  0  0  0  0  0  0  0  0  0  0
    0.0445    3.9319    2.9275 H   0  0  0  0  0  0  0  0  0  0  0  0
   -0.7635    1.4560    1.5581 H   0  0  0  0  0  0  0  0  0  0  0  0
   -2.4641    4.0134    1.7264 H   0  0  0  0  0  0  0  0  0  0  0  0
   -2.8046    2.6863    0.6038 H   0  0  0  0  0  0  0  0  0  0  0  0
   -2.9136    2.4130    2.3564 H   0  0  0  0  0  0  0  0  0  0  0  0
    0.1870    2.4336   -0.7779 N   0  0  0  0  0  0  0  0  0  0  0  0
   -0.0855    1.0503   -1.1908 C   0  0  2  0  0  0  0  0  0  0  0  0
   -1.4649    0.3505   -0.9969 C   0  0  0  0  0  0  0  0  0  0  0  0
   -2.2491    0.3688   -1.9296 O   0  0  0  0  0  0  0  0  0  0  0  0
    1.1727    0.3557   -0.6527 C   0  0  0  0  0  0  0  0  0  0  0  0
    2.1816    1.5139   -0.5704 C   0  0  0  0  0  0  0  0  0  0  0  0
    1.5367    2.6167   -1.3913 C   0  0  0  0  0  0  0  0  0  0  0  0
   -0.0095    1.0272   -2.2853 H   0  0  0  0  0  0  0  0  0  0  0  0
    1.5063   -0.4374   -1.3297 H   0  0  0  0  0  0  0  0  0  0  0  0
    1.0238   -0.0605    0.3440 H   0  0  0  0  0  0  0  0  0  0  0  0
    2.3323    1.8316    0.4675 H   0  0  0  0  0  0  0  0  0  0  0  0
    3.1547    1.2303   -0.9832 H   0  0  0  0  0  0  0  0  0  0  0  0
    1.9897    3.5958   -1.2006 H   0  0  0  0  0  0  0  0  0  0  0  0
    1.5668    2.4334   -2.4720 H   0  0  0  0  0  0  0  0  0  0  0  0
   -2.1324    0.1164    0.1819 N   0  0  0  0  0  0  0  0  0  0  0  0
   -2.2007   -1.2273    0.7821 C   0  0  2  0  0  0  0  0  0  0  0  0
   -3.1205   -1.2072    2.0221 C   0  0  0  0  0  0  0  0  0  0  0  0
   -4.2072   -1.7655    1.9710 O   0  0  0  0  0  0  0  0  0  0  0  0
   -0.8340   -1.7943    1.1747 C   0  0  0  0  0  0  0  0  0  0  0  0
   -3.0791    0.4728    0.0513 H   0  0  0  0  0  0  0  0  0  0  0  0
   -2.6526   -1.9102    0.0533 H   0  0  0  0  0  0  0  0  0  0  0  0
   -0.3084   -1.1117    1.8497 H   0  0  0  0  0  0  0  0  0  0  0  0
   -0.9604   -2.7525    1.6891 H   0  0  0  0  0  0  0  0  0  0  0  0
   -0.2231   -1.9712    0.2857 H   0  0  0  0  0  0  0  0  0  0  0  0
   -2.7826   -0.4898    3.1558 N   0  0  0  0  0  0  0  0  0  0  0  0
   -3.6281   -0.4157    4.3390 C   0  0  0  0  0  0  0  0  0  0  0  0
   -1.8536   -0.0614    3.1969 H   0  0  0  0  0  0  0  0  0  0  0  0
   -4.6104   -0.0043    4.0841 H   0  0  0  0  0  0  0  0  0  0  0  0
   -3.7635   -1.4108    4.7752 H   0  0  0  0  0  0  0  0  0  0  0  0
   -3.1664    0.2330    5.0896 H   0  0  0  0  0  0  0  0  0  0  0  0
  1  2  2  0  0  0  0
  1  3  1  0  0  0  0
  1  7  1  0  0  0  0
  3  4  1  0  0  0  0
  3  5  1  0  0  0  0
  3  6  1  0  0  0  0
  7  8  1  0  0  0  0
  7 12  1  0  0  0  0
  8  9  1  0  0  0  0
  8 11  1  0  0  0  0
  8 13  1  0  0  0  0
  9 10  2  0  0  0  0
  9 17  1  0  0  0  0
 11 14  1  0  0  0  0
 11 15  1  0  0  0  0
 11 16  1  0  0  0  0
 17 18  1  0  0  0  0
 17 23  1  0  0  0  0
 18 19  1  0  0  0  0
 18 21  1  0  0  0  0
 18 24  1  0  0  0  0
 19 20  2  0  0  0  0
 19 31  1  0  0  0  0
 21 22  1  0  0  0  0
 21 25  1  0  0  0  0
 21 26  1  0  0  0  0
 22 23  1  0  0  0  0
 22 27  1  0  0  0  0
 22 28  1  0  0  0  0
 23 29  1  0  0  0  0
 23 30  1  0  0  0  0
 31 32  1  0  0  0  0
 31 36  1  0  0  0  0
 32 33  1  0  0  0  0
 32 35  1  0  0  0  0
 32 37  1  0  0  0  0
 33 34  2  0  0  0  0
 33 41  1  0  0  0  0
 35 38  1  0  0  0  0
 35 39  1  0  0  0  0
 35 40  1  0  0  0  0
 41 42  1  0  0  0  0
 41 43  1  0  0  0  0
 42 44  1  0  0  0  0
 42 45  1  0  0  0  0
 42 46  1  0  0  0  0
M  END
$$$$

  -OEChem-05262217223D

 46 46  0     1  0  0  0  0  0999 V2000
   -0.3436    2.2472    3.1963 C   0  0  0  0  0  0  0  0  0  0  0  0
   -0.6630    1.1222    2.8574 O   0  0  0  0  0  0  0  0  0  0  0  0
    0.5635    2.4337    4.3976 C   0  0  0  0  0  0  0  0  0  0  0  0
    0.0450    3.0043    5.1723 H   0  0  0  0  0  0  0  0  0  0  0  0
    0.8517    1.4626    4.8102 H   0  0  0  0  0  0  0  0  0  0  0  0
    1.4682    2.9717    4.1035 H   0  0  0  0  0  0  0  0  0  0  0  0
   -0.7935    3.3585    2.5169 N   0  0  0  0  0  0  0  0  0  0  0  0
   -1.6107    3.4590    1.2876 C   0  0  2  0  0  0  0  0  0  0  0  0
   -0.7893    3.5929   -0.0263 C   0  0  0  0  0  0  0  0  0  0  0  0
   -0.6672    4.7674   -0.3639 O   0  0  0  0  0  0  0  0  0  0  0  0
   -2.8731    2.5915    1.1896 C   0  0  0  0  0  0  0  0  0  0  0  0
   -0.4381    4.2423    2.8749 H   0  0  0  0  0  0  0  0  0  0  0  0
   -2.0545    4.4552    1.4030 H   0  0  0  0  0  0  0  0  0  0  0  0
   -3.7636    3.2224    1.2737 H   0  0  0  0  0  0  0  0  0  0  0  0
   -2.9299    2.0856    0.2220 H   0  0  0  0  0  0  0  0  0  0  0  0
   -2.9248    1.8596    1.9929 H   0  0  0  0  0  0  0  0  0  0  0  0
   -0.0662    2.6642   -0.8073 N   0  0  0  0  0  0  0  0  0  0  0  0
    0.2483    1.2190   -0.7722 C   0  0  2  0  0  0  0  0  0  0  0  0
   -0.6928    0.0210   -0.4787 C   0  0  0  0  0  0  0  0  0  0  0  0
   -0.6302   -0.9308   -1.2469 O   0  0  0  0  0  0  0  0  0  0  0  0
    1.5444    1.1950    0.0392 C   0  0  0  0  0  0  0  0  0  0  0  0
    2.0759    2.6173   -0.1738 C   0  0  0  0  0  0  0  0  0  0  0  0
    1.2546    3.1378   -1.3440 C   0  0  0  0  0  0  0  0  0  0  0  0
    0.5115    0.9678   -1.8080 H   0  0  0  0  0  0  0  0  0  0  0  0
    2.2325    0.4381   -0.3518 H   0  0  0  0  0  0  0  0  0  0  0  0
    1.3660    0.9934    1.0991 H   0  0  0  0  0  0  0  0  0  0  0  0
    1.9187    3.2318    0.7192 H   0  0  0  0  0  0  0  0  0  0  0  0
    3.1451    2.6173   -0.4069 H   0  0  0  0  0  0  0  0  0  0  0  0
    1.3570    4.2224   -1.4548 H   0  0  0  0  0  0  0  0  0  0  0  0
    1.5343    2.6918   -2.3061 H   0  0  0  0  0  0  0  0  0  0  0  0
   -1.6151   -0.0547    0.5425 N   0  0  0  0  0  0  0  0  0  0  0  0
   -2.3831   -1.2726    0.8755 C   0  0  2  0  0  0  0  0  0  0  0  0
   -3.4636   -1.0157    1.9457 C   0  0  0  0  0  0  0  0  0  0  0  0
   -4.6328   -1.3087    1.7372 O   0  0  0  0  0  0  0  0  0  0  0  0
   -1.4395   -2.3689    1.3975 C   0  0  0  0  0  0  0  0  0  0  0  0
   -1.4866    0.6315    1.2875 H   0  0  0  0  0  0  0  0  0  0  0  0
   -2.8913   -1.6354   -0.0251 H   0  0  0  0  0  0  0  0  0  0  0  0
   -0.8575   -2.0031    2.2490 H   0  0  0  0  0  0  0  0  0  0  0  0
   -2.0164   -3.2423    1.7178 H   0  0  0  0  0  0  0  0  0  0  0  0
   -0.7455   -2.6935    0.6175 H   0  0  0  0  0  0  0  0  0  0  0  0
   -3.1160   -0.4543    3.1610 N   0  0  0  0  0  0  0  0  0  0  0  0
   -4.0815   -0.1233    4.1996 C   0  0  0  0  0  0  0  0  0  0  0  0
   -2.1522   -0.1285    3.2564 H   0  0  0  0  0  0  0  0  0  0  0  0
   -3.5694    0.2982    5.0698 H   0  0  0  0  0  0  0  0  0  0  0  0
   -4.8036    0.6125    3.8308 H   0  0  0  0  0  0  0  0  0  0  0  0
   -4.6230   -1.0203    4.5183 H   0  0  0  0  0  0  0  0  0  0  0  0
  1  2  2  0  0  0  0
  1  3  1  0  0  0  0
  1  7  1  0  0  0  0
  3  4  1  0  0  0  0
  3  5  1  0  0  0  0
  3  6  1  0  0  0  0
  7  8  1  0  0  0  0
  7 12  1  0  0  0  0
  8  9  1  0  0  0  0
  8 11  1  0  0  0  0
  8 13  1  0  0  0  0
  9 10  2  0  0  0  0
  9 17  1  0  0  0  0
 11 14  1  0  0  0  0
 11 15  1  0  0  0  0
 11 16  1  0  0  0  0
 17 18  1  0  0  0  0
 17 23  1  0  0  0  0
 18 19  1  0  0  0  0
 18 21  1  0  0  0  0
 18 24  1  0  0  0  0
 19 20  2  0  0  0  0
 19 31  1  0  0  0  0
 21 22  1  0  0  0  0
 21 25  1  0  0  0  0
 21 26  1  0  0  0  0
 22 23  1  0  0  0  0
 22 27  1  0  0  0  0
 22 28  1  0  0  0  0
 23 29  1  0  0  0  0
 23 30  1  0  0  0  0
 31 32  1  0  0  0  0
 31 36  1  0  0  0  0
 32 33  1  0  0  0  0
 32 35  1  0  0  0  0
 32 37  1  0  0  0  0
 33 34  2  0  0  0  0
 33 41  1  0  0  0  0
 35 38  1  0  0  0  0
 35 39  1  0  0  0  0
 35 40  1  0  0  0  0
 41 42  1  0  0  0  0
 41 43  1  0  0  0  0
 42 44  1  0  0  0  0
 42 45  1  0  0  0  0
 42 46  1  0  0  0  0
M  END
$$$$

  -OEChem-05262217223D

 46 46  0     1  0  0  0  0  0999 V2000
    0.6802   -0.3281    2.8168 C   0  0  0  0  0  0  0  0  0  0  0  0
   -0.0313   -1.3058    2.9481 O   0  0  0  0  0  0  0  0  0  0  0  0
    2.1932   -0.4583    2.7591 C   0  0  0  0  0  0  0  0  0  0  0  0
    2.6446    0.0520    3.6133 H   0  0  0  0  0  0  0  0  0  0  0  0
    2.4791   -1.5134    2.7895 H   0  0  0  0  0  0  0  0  0  0  0  0
    2.5759   -0.0179    1.8357 H   0  0  0  0  0  0  0  0  0  0  0  0
    0.0030    0.8588    2.6846 N   0  0  0  0  0  0  0  0  0  0  0  0
    0.5845    2.1775    2.4368 C   0  0  2  0  0  0  0  0  0  0  0  0
    0.6086    2.6670    0.9627 C   0  0  0  0  0  0  0  0  0  0  0  0
    1.4477    3.5342    0.7477 O   0  0  0  0  0  0  0  0  0  0  0  0
   -0.0795    3.1930    3.3695 C   0  0  0  0  0  0  0  0  0  0  0  0
   -1.0090    0.7755    2.7289 H   0  0  0  0  0  0  0  0  0  0  0  0
    1.6356    2.1404    2.7409 H   0  0  0  0  0  0  0  0  0  0  0  0
   -0.0080    2.8563    4.4085 H   0  0  0  0  0  0  0  0  0  0  0  0
    0.4200    4.1640    3.2884 H   0  0  0  0  0  0  0  0  0  0  0  0
   -1.1304    3.3284    3.1220 H   0  0  0  0  0  0  0  0  0  0  0  0
   -0.1143    2.2219   -0.1627 N   0  0  0  0  0  0  0  0  0  0  0  0
   -1.1261    1.1785   -0.3822 C   0  0  2  0  0  0  0  0  0  0  0  0
   -2.3642    0.8801    0.5013 C   0  0  0  0  0  0  0  0  0  0  0  0
   -3.0717   -0.0700    0.2086 O   0  0  0  0  0  0  0  0  0  0  0  0
   -0.2514   -0.0318   -0.7236 C   0  0  0  0  0  0  0  0  0  0  0  0
    1.0373    0.6406   -1.2202 C   0  0  0  0  0  0  0  0  0  0  0  0
    0.6290    2.0870   -1.4555 C   0  0  0  0  0  0  0  0  0  0  0  0
   -1.6536    1.4649   -1.2997 H   0  0  0  0  0  0  0  0  0  0  0  0
   -0.7197   -0.6422   -1.5030 H   0  0  0  0  0  0  0  0  0  0  0  0
   -0.0611   -0.6661    0.1467 H   0  0  0  0  0  0  0  0  0  0  0  0
    1.8293    0.5742   -0.4671 H   0  0  0  0  0  0  0  0  0  0  0  0
    1.4033    0.1760   -2.1410 H   0  0  0  0  0  0  0  0  0  0  0  0
    1.4989    2.7454   -1.5530 H   0  0  0  0  0  0  0  0  0  0  0  0
    0.0058    2.2251   -2.3470 H   0  0  0  0  0  0  0  0  0  0  0  0
   -2.6437    1.3076    1.7776 N   0  0  0  0  0  0  0  0  0  0  0  0
   -3.4780    2.5204    1.9477 C   0  0  2  0  0  0  0  0  0  0  0  0
   -5.0003    2.2494    1.8550 C   0  0  0  0  0  0  0  0  0  0  0  0
   -5.7798    3.0581    2.3375 O   0  0  0  0  0  0  0  0  0  0  0  0
   -3.1038    3.6477    0.9685 C   0  0  0  0  0  0  0  0  0  0  0  0
   -3.0504    0.5180    2.2810 H   0  0  0  0  0  0  0  0  0  0  0  0
   -3.3058    2.8934    2.9618 H   0  0  0  0  0  0  0  0  0  0  0  0
   -3.3465    3.3717   -0.0626 H   0  0  0  0  0  0  0  0  0  0  0  0
   -3.6635    4.5559    1.2156 H   0  0  0  0  0  0  0  0  0  0  0  0
   -2.0386    3.8823    1.0287 H   0  0  0  0  0  0  0  0  0  0  0  0
   -5.4999    1.1188    1.2358 N   0  0  0  0  0  0  0  0  0  0  0  0
   -6.9222    0.8344    1.0998 C   0  0  0  0  0  0  0  0  0  0  0  0
   -4.8264    0.4912    0.7889 H   0  0  0  0  0  0  0  0  0  0  0  0
   -7.3891    0.7372    2.0855 H   0  0  0  0  0  0  0  0  0  0  0  0
   -7.4238    1.6369    0.5488 H   0  0  0  0  0  0  0  0  0  0  0  0
   -7.0675   -0.1031    0.5544 H   0  0  0  0  0  0  0  0  0  0  0  0
  1  2  2  0  0  0  0
  1  3  1  0  0  0  0
  1  7  1  0  0  0  0
  3  4  1  0  0  0  0
  3  5  1  0  0  0  0
  3  6  1  0  0  0  0
  7  8  1  0  0  0  0
  7 12  1  0  0  0  0
  8  9  1  0  0  0  0
  8 11  1  0  0  0  0
  8 13  1  0  0  0  0
  9 10  2  0  0  0  0
  9 17  1  0  0  0  0
 11 14  1  0  0  0  0
 11 15  1  0  0  0  0
 11 16  1  0  0  0  0
 17 18  1  0  0  0  0
 17 23  1  0  0  0  0
 18 19  1  0  0  0  0
 18 21  1  0  0  0  0
 18 24  1  0  0  0  0
 19 20  2  0  0  0  0
 19 31  1  0  0  0  0
 21 22  1  0  0  0  0
 21 25  1  0  0  0  0
 21 26  1  0  0  0  0
 22 23  1  0  0  0  0
 22 27  1  0  0  0  0
 22 28  1  0  0  0  0
 23 29  1  0  0  0  0
 23 30  1  0  0  0  0
 31 32  1  0  0  0  0
 31 36  1  0  0  0  0
 32 33  1  0  0  0  0
 32 35  1  0  0  0  0
 32 37  1  0  0  0  0
 33 34  2  0  0  0  0
 33 41  1  0  0  0  0
 35 38  1  0  0  0  0
 35 39  1  0  0  0  0
 35 40  1  0  0  0  0
 41 42  1  0  0  0  0
 41 43  1  0  0  0  0
 42 44  1  0  0  0  0
 42 45  1  0  0  0  0
 42 46  1  0  0  0  0
M  END
$$$$

  -OEChem-05262217223D

 46 46  0     1  0  0  0  0  0999 V2000
    1.2566    1.5855    3.1877 C   0  0  0  0  0  0  0  0  0  0  0  0
    1.0939    0.4514    2.7679 O   0  0  0  0  0  0  0  0  0  0  0  0
    2.4594    1.9078    4.0533 C   0  0  0  0  0  0  0  0  0  0  0  0
    2.1319    2.3447    4.9998 H   0  0  0  0  0  0  0  0  0  0  0  0
    3.0275    0.9972    4.2636 H   0  0  0  0  0  0  0  0  0  0  0  0
    3.1098    2.6181    3.5370 H   0  0  0  0  0  0  0  0  0  0  0  0
    0.3749    2.5892    2.8468 N   0  0  0  0  0  0  0  0  0  0  0  0
   -0.6624    2.4439    1.8153 C   0  0  2  0  0  0  0  0  0  0  0  0
   -0.1506    2.9383    0.4381 C   0  0  0  0  0  0  0  0  0  0  0  0
    0.4277    4.0225    0.4369 O   0  0  0  0  0  0  0  0  0  0  0  0
   -1.8510    3.2866    2.2922 C   0  0  0  0  0  0  0  0  0  0  0  0
    0.6832    3.5371    3.0501 H   0  0  0  0  0  0  0  0  0  0  0  0
   -0.9599    1.3965    1.7445 H   0  0  0  0  0  0  0  0  0  0  0  0
   -2.2723    2.8633    3.2092 H   0  0  0  0  0  0  0  0  0  0  0  0
   -1.5353    4.3151    2.4955 H   0  0  0  0  0  0  0  0  0  0  0  0
   -2.6350    3.3234    1.5342 H   0  0  0  0  0  0  0  0  0  0  0  0
   -0.1484    2.2140   -0.7656 N   0  0  0  0  0  0  0  0  0  0  0  0
   -0.6041    0.8530   -1.0639 C   0  0  2  0  0  0  0  0  0  0  0  0
   -1.9456    0.2672   -0.5684 C   0  0  0  0  0  0  0  0  0  0  0  0
   -2.1771   -0.9136   -0.7906 O   0  0  0  0  0  0  0  0  0  0  0  0
    0.6396    0.0308   -0.7114 C   0  0  0  0  0  0  0  0  0  0  0  0
    1.7594    1.0751   -0.8413 C   0  0  0  0  0  0  0  0  0  0  0  0
    1.0990    2.2241   -1.5897 C   0  0  0  0  0  0  0  0  0  0  0  0
   -0.7505    0.7955   -2.1490 H   0  0  0  0  0  0  0  0  0  0  0  0
    0.7690   -0.8016   -1.4106 H   0  0  0  0  0  0  0  0  0  0  0  0
    0.5901   -0.3708    0.3058 H   0  0  0  0  0  0  0  0  0  0  0  0
    2.1125    1.3938    0.1455 H   0  0  0  0  0  0  0  0  0  0  0  0
    2.6153    0.6789   -1.3962 H   0  0  0  0  0  0  0  0  0  0  0  0
    1.6783    3.1512   -1.5161 H   0  0  0  0  0  0  0  0  0  0  0  0
    0.9325    2.0122   -2.6523 H   0  0  0  0  0  0  0  0  0  0  0  0
   -2.8517    0.9710    0.2006 N   0  0  0  0  0  0  0  0  0  0  0  0
   -4.1287    0.4254    0.6838 C   0  0  2  0  0  0  0  0  0  0  0  0
   -5.2392    1.4967    0.7237 C   0  0  0  0  0  0  0  0  0  0  0  0
   -4.9591    2.6808    0.5739 O   0  0  0  0  0  0  0  0  0  0  0  0
   -3.8897   -0.1645    2.0769 C   0  0  0  0  0  0  0  0  0  0  0  0
   -2.7694    1.9867    0.1869 H   0  0  0  0  0  0  0  0  0  0  0  0
   -4.4757   -0.3672    0.0123 H   0  0  0  0  0  0  0  0  0  0  0  0
   -3.5625    0.6145    2.7724 H   0  0  0  0  0  0  0  0  0  0  0  0
   -4.8061   -0.6178    2.4661 H   0  0  0  0  0  0  0  0  0  0  0  0
   -3.1157   -0.9377    2.0322 H   0  0  0  0  0  0  0  0  0  0  0  0
   -6.5595    1.1336    0.9147 N   0  0  0  0  0  0  0  0  0  0  0  0
   -7.6595    2.0905    0.9281 C   0  0  0  0  0  0  0  0  0  0  0  0
   -6.7673    0.1429    1.0007 H   0  0  0  0  0  0  0  0  0  0  0  0
   -7.5059    2.8410    1.7107 H   0  0  0  0  0  0  0  0  0  0  0  0
   -7.7361    2.5999   -0.0384 H   0  0  0  0  0  0  0  0  0  0  0  0
   -8.6054    1.5765    1.1246 H   0  0  0  0  0  0  0  0  0  0  0  0
  1  2  2  0  0  0  0
  1  3  1  0  0  0  0
  1  7  1  0  0  0  0
  3  4  1  0  0  0  0
  3  5  1  0  0  0  0
  3  6  1  0  0  0  0
  7  8  1  0  0  0  0
  7 12  1  0  0  0  0
  8  9  1  0  0  0  0
  8 11  1  0  0  0  0
  8 13  1  0  0  0  0
  9 10  2  0  0  0  0
  9 17  1  0  0  0  0
 11 14  1  0  0  0  0
 11 15  1  0  0  0  0
 11 16  1  0  0  0  0
 17 18  1  0  0  0  0
 17 23  1  0  0  0  0
 18 19  1  0  0  0  0
 18 21  1  0  0  0  0
 18 24  1  0  0  0  0
 19 20  2  0  0  0  0
 19 31  1  0  0  0  0
 21 22  1  0  0  0  0
 21 25  1  0  0  0  0
 21 26  1  0  0  0  0
 22 23  1  0  0  0  0
 22 27  1  0  0  0  0
 22 28  1  0  0  0  0
 23 29  1  0  0  0  0
 23 30  1  0  0  0  0
 31 32  1  0  0  0  0
 31 36  1  0  0  0  0
 32 33  1  0  0  0  0
 32 35  1  0  0  0  0
 32 37  1  0  0  0  0
 33 34  2  0  0  0  0
 33 41  1  0  0  0  0
 35 38  1  0  0  0  0
 35 39  1  0  0  0  0
 35 40  1  0  0  0  0
 41 42  1  0  0  0  0
 41 43  1  0  0  0  0
 42 44  1  0  0  0  0
 42 45  1  0  0  0  0
 42 46  1  0  0  0  0
M  END
$$$$

  -OEChem-05262217223D

 46 46  0     1  0  0  0  0  0999 V2000
    0.9941    1.8031    3.2024 C   0  0  0  0  0  0  0  0  0  0  0  0
    0.9463    0.6391    2.8410 O   0  0  0  0  0  0  0  0  0  0  0  0
    2.1106    2.2671    4.1180 C   0  0  0  0  0  0  0  0  0  0  0  0
    1.6908    2.6831    5.0370 H   0  0  0  0  0  0  0  0  0  0  0  0
    2.7598    1.4262    4.3770 H   0  0  0  0  0  0  0  0  0  0  0  0
    2.7087    3.0333    3.6187 H   0  0  0  0  0  0  0  0  0  0  0  0
    0.0556    2.7106    2.7598 N   0  0  0  0  0  0  0  0  0  0  0  0
   -0.9262    2.4256    1.7030 C   0  0  2  0  0  0  0  0  0  0  0  0
   -0.4273    2.9380    0.3268 C   0  0  0  0  0  0  0  0  0  0  0  0
    0.0250    4.0801    0.3047 O   0  0  0  0  0  0  0  0  0  0  0  0
   -2.2120    3.1486    2.1223 C   0  0  0  0  0  0  0  0  0  0  0  0
    0.2688    3.6907    2.9299 H   0  0  0  0  0  0  0  0  0  0  0  0
   -1.1182    1.3519    1.6526 H   0  0  0  0  0  0  0  0  0  0  0  0
   -2.5820    2.7435    3.0690 H   0  0  0  0  0  0  0  0  0  0  0  0
   -2.0253    4.2195    2.2524 H   0  0  0  0  0  0  0  0  0  0  0  0
   -2.9930    3.0332    1.3676 H   0  0  0  0  0  0  0  0  0  0  0  0
   -0.2931    2.1775   -0.8463 N   0  0  0  0  0  0  0  0  0  0  0  0
   -0.5732    0.7606   -1.0821 C   0  0  2  0  0  0  0  0  0  0  0  0
   -1.8646    0.0948   -0.5646 C   0  0  0  0  0  0  0  0  0  0  0  0
   -1.9420   -1.1254   -0.5285 O   0  0  0  0  0  0  0  0  0  0  0  0
    0.7445    0.1090   -0.6499 C   0  0  0  0  0  0  0  0  0  0  0  0
    1.7366    1.2732   -0.8045 C   0  0  0  0  0  0  0  0  0  0  0  0
    0.9720    2.2969   -1.6322 C   0  0  0  0  0  0  0  0  0  0  0  0
   -0.6810    0.6198   -2.1636 H   0  0  0  0  0  0  0  0  0  0  0  0
    0.9958   -0.7363   -1.2986 H   0  0  0  0  0  0  0  0  0  0  0  0
    0.7079   -0.2441    0.3854 H   0  0  0  0  0  0  0  0  0  0  0  0
    2.0152    1.6811    0.1735 H   0  0  0  0  0  0  0  0  0  0  0  0
    2.6520    0.9552   -1.3129 H   0  0  0  0  0  0  0  0  0  0  0  0
    1.4321    3.2902   -1.5892 H   0  0  0  0  0  0  0  0  0  0  0  0
    0.8689    2.0147   -2.6866 H   0  0  0  0  0  0  0  0  0  0  0  0
   -2.9452    0.8395   -0.1351 N   0  0  0  0  0  0  0  0  0  0  0  0
   -4.2358    0.2716    0.2777 C   0  0  2  0  0  0  0  0  0  0  0  0
   -5.3873    1.2819    0.0859 C   0  0  0  0  0  0  0  0  0  0  0  0
   -5.1395    2.4491   -0.1977 O   0  0  0  0  0  0  0  0  0  0  0  0
   -4.1378   -0.1589    1.7461 C   0  0  0  0  0  0  0  0  0  0  0  0
   -2.9367    1.8351   -0.3591 H   0  0  0  0  0  0  0  0  0  0  0  0
   -4.4633   -0.6038   -0.3401 H   0  0  0  0  0  0  0  0  0  0  0  0
   -3.3252   -0.8803    1.8790 H   0  0  0  0  0  0  0  0  0  0  0  0
   -3.9430    0.7055    2.3877 H   0  0  0  0  0  0  0  0  0  0  0  0
   -5.0697   -0.6302    2.0717 H   0  0  0  0  0  0  0  0  0  0  0  0
   -6.7042    0.8829    0.2212 N   0  0  0  0  0  0  0  0  0  0  0  0
   -7.8362    1.7845    0.0434 C   0  0  0  0  0  0  0  0  0  0  0  0
   -6.8811   -0.0928    0.4426 H   0  0  0  0  0  0  0  0  0  0  0  0
   -7.7886    2.6062    0.7660 H   0  0  0  0  0  0  0  0  0  0  0  0
   -7.8369    2.2044   -0.9681 H   0  0  0  0  0  0  0  0  0  0  0  0
   -8.7768    1.2458    0.1942 H   0  0  0  0  0  0  0  0  0  0  0  0
  1  2  2  0  0  0  0
  1  3  1  0  0  0  0
  1  7  1  0  0  0  0
  3  4  1  0  0  0  0
  3  5  1  0  0  0  0
  3  6  1  0  0  0  0
  7  8  1  0  0  0  0
  7 12  1  0  0  0  0
  8  9  1  0  0  0  0
  8 11  1  0  0  0  0
  8 13  1  0  0  0  0
  9 10  2  0  0  0  0
  9 17  1  0  0  0  0
 11 14  1  0  0  0  0
 11 15  1  0  0  0  0
 11 16  1  0  0  0  0
 17 18  1  0  0  0  0
 17 23  1  0  0  0  0
 18 19  1  0  0  0  0
 18 21  1  0  0  0  0
 18 24  1  0  0  0  0
 19 20  2  0  0  0  0
 19 31  1  0  0  0  0
 21 22  1  0  0  0  0
 21 25  1  0  0  0  0
 21 26  1  0  0  0  0
 22 23  1  0  0  0  0
 22 27  1  0  0  0  0
 22 28  1  0  0  0  0
 23 29  1  0  0  0  0
 23 30  1  0  0  0  0
 31 32  1  0  0  0  0
 31 36  1  0  0  0  0
 32 33  1  0  0  0  0
 32 35  1  0  0  0  0
 32 37  1  0  0  0  0
 33 34  2  0  0  0  0
 33 41  1  0  0  0  0
 35 38  1  0  0  0  0
 35 39  1  0  0  0  0
 35 40  1  0  0  0  0
 41 42  1  0  0  0  0
 41 43  1  0  0  0  0
 42 44  1  0  0  0  0
 42 45  1  0  0  0  0
 42 46  1  0  0  0  0
M  END
$$$$

  -OEChem-05262217223D

 46 46  0     1  0  0  0  0  0999 V2000
    0.1982   -0.4550    3.2991 C   0  0  0  0  0  0  0  0  0  0  0  0
    0.8097   -0.8204    2.3096 O   0  0  0  0  0  0  0  0  0  0  0  0
    0.8160   -0.6176    4.6750 C   0  0  0  0  0  0  0  0  0  0  0  0
    0.1577   -1.2150    5.3105 H   0  0  0  0  0  0  0  0  0  0  0  0
    1.7834   -1.1218    4.5976 H   0  0  0  0  0  0  0  0  0  0  0  0
    0.9651    0.3622    5.1352 H   0  0  0  0  0  0  0  0  0  0  0  0
   -1.0362    0.1461    3.1762 N   0  0  0  0  0  0  0  0  0  0  0  0
   -1.6347    0.5411    1.8917 C   0  0  2  0  0  0  0  0  0  0  0  0
   -1.2308    1.9949    1.5214 C   0  0  0  0  0  0  0  0  0  0  0  0
   -1.3314    2.8440    2.4040 O   0  0  0  0  0  0  0  0  0  0  0  0
   -3.1465    0.3917    2.0968 C   0  0  0  0  0  0  0  0  0  0  0  0
   -1.3883    0.6097    4.0092 H   0  0  0  0  0  0  0  0  0  0  0  0
   -1.3133   -0.1457    1.1045 H   0  0  0  0  0  0  0  0  0  0  0  0
   -3.4984    1.0694    2.8810 H   0  0  0  0  0  0  0  0  0  0  0  0
   -3.6925    0.6152    1.1820 H   0  0  0  0  0  0  0  0  0  0  0  0
   -3.3872   -0.6351    2.3891 H   0  0  0  0  0  0  0  0  0  0  0  0
   -0.6878    2.4270    0.3008 N   0  0  0  0  0  0  0  0  0  0  0  0
   -0.3803    1.6376   -0.8882 C   0  0  2  0  0  0  0  0  0  0  0  0
   -1.4016    0.6010   -1.4133 C   0  0  0  0  0  0  0  0  0  0  0  0
   -1.0366   -0.4761   -1.8506 O   0  0  0  0  0  0  0  0  0  0  0  0
    1.0269    1.1236   -0.5630 C   0  0  0  0  0  0  0  0  0  0  0  0
    1.5122    2.1642    0.4598 C   0  0  0  0  0  0  0  0  0  0  0  0
    0.5181    3.3077    0.3202 C   0  0  0  0  0  0  0  0  0  0  0  0
   -0.2948    2.3220   -1.7385 H   0  0  0  0  0  0  0  0  0  0  0  0
    1.6542    1.1019   -1.4598 H   0  0  0  0  0  0  0  0  0  0  0  0
    1.0092    0.1203   -0.1255 H   0  0  0  0  0  0  0  0  0  0  0  0
    1.5018    1.7501    1.4739 H   0  0  0  0  0  0  0  0  0  0  0  0
    2.5318    2.4953    0.2409 H   0  0  0  0  0  0  0  0  0  0  0  0
    0.5531    3.9909    1.1756 H   0  0  0  0  0  0  0  0  0  0  0  0
    0.6547    3.8945   -0.5956 H   0  0  0  0  0  0  0  0  0  0  0  0
   -2.7677    0.7163   -1.2768 N   0  0  0  0  0  0  0  0  0  0  0  0
   -3.5158    1.9853   -1.2469 C   0  0  2  0  0  0  0  0  0  0  0  0
   -5.0140    1.7651   -0.9408 C   0  0  0  0  0  0  0  0  0  0  0  0
   -5.5315    0.6729   -1.1368 O   0  0  0  0  0  0  0  0  0  0  0  0
   -3.3772    2.6860   -2.6044 C   0  0  0  0  0  0  0  0  0  0  0  0
   -3.2816   -0.1041   -1.6019 H   0  0  0  0  0  0  0  0  0  0  0  0
   -3.1227    2.6374   -0.4640 H   0  0  0  0  0  0  0  0  0  0  0  0
   -3.7561    2.0417   -3.4049 H   0  0  0  0  0  0  0  0  0  0  0  0
   -3.9475    3.6200   -2.6126 H   0  0  0  0  0  0  0  0  0  0  0  0
   -2.3318    2.9247   -2.8170 H   0  0  0  0  0  0  0  0  0  0  0  0
   -5.7776    2.7906   -0.4140 N   0  0  0  0  0  0  0  0  0  0  0  0
   -7.1833    2.6360   -0.0583 C   0  0  0  0  0  0  0  0  0  0  0  0
   -5.3162    3.6744   -0.2186 H   0  0  0  0  0  0  0  0  0  0  0  0
   -7.7746    2.3682   -0.9404 H   0  0  0  0  0  0  0  0  0  0  0  0
   -7.3035    1.8527    0.6976 H   0  0  0  0  0  0  0  0  0  0  0  0
   -7.5761    3.5725    0.3491 H   0  0  0  0  0  0  0  0  0  0  0  0
  1  2  2  0  0  0  0
  1  3  1  0  0  0  0
  1  7  1  0  0  0  0
  3  4  1  0  0  0  0
  3  5  1  0  0  0  0
  3  6  1  0  0  0  0
  7  8  1  0  0  0  0
  7 12  1  0  0  0  0
  8  9  1  0  0  0  0
  8 11  1  0  0  0  0
  8 13  1  0  0  0  0
  9 10  2  0  0  0  0
  9 17  1  0  0  0  0
 11 14  1  0  0  0  0
 11 15  1  0  0  0  0
 11 16  1  0  0  0  0
 17 18  1  0  0  0  0
 17 23  1  0  0  0  0
 18 19  1  0  0  0  0
 18 21  1  0  0  0  0
 18 24  1  0  0  0  0
 19 20  2  0  0  0  0
 19 31  1  0  0  0  0
 21 22  1  0  0  0  0
 21 25  1  0  0  0  0
 21 26  1  0  0  0  0
 22 23  1  0  0  0  0
 22 27  1  0  0  0  0
 22 28  1  0  0  0  0
 23 29  1  0  0  0  0
 23 30  1  0  0  0  0
 31 32  1  0  0  0  0
 31 36  1  0  0  0  0
 32 33  1  0  0  0  0
 32 35  1  0  0  0  0
 32 37  1  0  0  0  0
 33 34  2  0  0  0  0
 33 41  1  0  0  0  0
 35 38  1  0  0  0  0
 35 39  1  0  0  0  0
 35 40  1  0  0  0  0
 41 42  1  0  0  0  0
 41 43  1  0  0  0  0
 42 44  1  0  0  0  0
 42 45  1  0  0  0  0
 42 46  1  0  0  0  0
M  END
$$$$

  -OEChem-05262217223D

 46 46  0     1  0  0  0  0  0999 V2000
    0.8946    1.0333    3.8614 C   0  0  0  0  0  0  0  0  0  0  0  0
    0.7369   -0.1696    3.7388 O   0  0  0  0  0  0  0  0  0  0  0  0
    2.0334    1.5655    4.7113 C   0  0  0  0  0  0  0  0  0  0  0  0
    1.6369    2.1841    5.5201 H   0  0  0  0  0  0  0  0  0  0  0  0
    2.5985    0.7364    5.1464 H   0  0  0  0  0  0  0  0  0  0  0  0
    2.7077    2.1677    4.0975 H   0  0  0  0  0  0  0  0  0  0  0  0
    0.0439    1.9179    3.2336 N   0  0  0  0  0  0  0  0  0  0  0  0
   -1.0236    1.5456    2.2930 C   0  0  2  0  0  0  0  0  0  0  0  0
   -1.0767    2.5588    1.1197 C   0  0  0  0  0  0  0  0  0  0  0  0
   -0.8395    3.7346    1.3916 O   0  0  0  0  0  0  0  0  0  0  0  0
   -2.3286    1.5381    3.0943 C   0  0  0  0  0  0  0  0  0  0  0  0
    0.2674    2.9095    3.3010 H   0  0  0  0  0  0  0  0  0  0  0  0
   -0.8311    0.5475    1.8926 H   0  0  0  0  0  0  0  0  0  0  0  0
   -2.5104    2.5223    3.5376 H   0  0  0  0  0  0  0  0  0  0  0  0
   -3.1788    1.2852    2.4600 H   0  0  0  0  0  0  0  0  0  0  0  0
   -2.2692    0.7978    3.8983 H   0  0  0  0  0  0  0  0  0  0  0  0
   -1.2104    2.2377   -0.2385 N   0  0  0  0  0  0  0  0  0  0  0  0
   -1.3274    0.9154   -0.8449 C   0  0  2  0  0  0  0  0  0  0  0  0
   -2.2781   -0.1367   -0.2236 C   0  0  0  0  0  0  0  0  0  0  0  0
   -1.8465   -1.2057    0.1748 O   0  0  0  0  0  0  0  0  0  0  0  0
    0.1506    0.5253   -0.9970 C   0  0  0  0  0  0  0  0  0  0  0  0
    0.8431    1.8984   -1.0066 C   0  0  0  0  0  0  0  0  0  0  0  0
   -0.2984    2.8789   -1.2315 C   0  0  0  0  0  0  0  0  0  0  0  0
   -1.7416    1.0344   -1.8516 H   0  0  0  0  0  0  0  0  0  0  0  0
    0.3140   -0.0274   -1.9277 H   0  0  0  0  0  0  0  0  0  0  0  0
    0.5099   -0.0822   -0.1589 H   0  0  0  0  0  0  0  0  0  0  0  0
    1.3494    2.0893   -0.0538 H   0  0  0  0  0  0  0  0  0  0  0  0
    1.5874    1.9661   -1.8060 H   0  0  0  0  0  0  0  0  0  0  0  0
   -0.0183    3.9072   -0.9783 H   0  0  0  0  0  0  0  0  0  0  0  0
   -0.6838    2.8704   -2.2578 H   0  0  0  0  0  0  0  0  0  0  0  0
   -3.5737    0.0644    0.2083 N   0  0  0  0  0  0  0  0  0  0  0  0
   -4.6080    0.8894   -0.4519 C   0  0  2  0  0  0  0  0  0  0  0  0
   -4.9027    0.5083   -1.9243 C   0  0  0  0  0  0  0  0  0  0  0  0
   -4.0024    0.1863   -2.6880 O   0  0  0  0  0  0  0  0  0  0  0  0
   -4.3394    2.3950   -0.3551 C   0  0  0  0  0  0  0  0  0  0  0  0
   -3.9061   -0.7757    0.6765 H   0  0  0  0  0  0  0  0  0  0  0  0
   -5.5301    0.7024    0.1063 H   0  0  0  0  0  0  0  0  0  0  0  0
   -3.5871    2.7065   -1.0842 H   0  0  0  0  0  0  0  0  0  0  0  0
   -5.2564    2.9531   -0.5671 H   0  0  0  0  0  0  0  0  0  0  0  0
   -4.0004    2.6659    0.6484 H   0  0  0  0  0  0  0  0  0  0  0  0
   -6.1955    0.5770   -2.4119 N   0  0  0  0  0  0  0  0  0  0  0  0
   -6.5505    0.2473   -3.7874 C   0  0  0  0  0  0  0  0  0  0  0  0
   -6.9304    0.8616   -1.7717 H   0  0  0  0  0  0  0  0  0  0  0  0
   -6.0526    0.9280   -4.4856 H   0  0  0  0  0  0  0  0  0  0  0  0
   -6.2536   -0.7798   -4.0242 H   0  0  0  0  0  0  0  0  0  0  0  0
   -7.6317    0.3349   -3.9310 H   0  0  0  0  0  0  0  0  0  0  0  0
  1  2  2  0  0  0  0
  1  3  1  0  0  0  0
  1  7  1  0  0  0  0
  3  4  1  0  0  0  0
  3  5  1  0  0  0  0
  3  6  1  0  0  0  0
  7  8  1  0  0  0  0
  7 12  1  0  0  0  0
  8  9  1  0  0  0  0
  8 11  1  0  0  0  0
  8 13  1  0  0  0  0
  9 10  2  0  0  0  0
  9 17  1  0  0  0  0
 11 14  1  0  0  0  0
 11 15  1  0  0  0  0
 11 16  1  0  0  0  0
 17 18  1  0  0  0  0
 17 23  1  0  0  0  0
 18 19  1  0  0  0  0
 18 21  1  0  0  0  0
 18 24  1  0  0  0  0
 19 20  2  0  0  0  0
 19 31  1  0  0  0  0
 21 22  1  0  0  0  0
 21 25  1  0  0  0  0
 21 26  1  0  0  0  0
 22 23  1  0  0  0  0
 22 27  1  0  0  0  0
 22 28  1  0  0  0  0
 23 29  1  0  0  0  0
 23 30  1  0  0  0  0
 31 32  1  0  0  0  0
 31 36  1  0  0  0  0
 32 33  1  0  0  0  0
 32 35  1  0  0  0  0
 32 37  1  0  0  0  0
 33 34  2  0  0  0  0
 33 41  1  0  0  0  0
 35 38  1  0  0  0  0
 35 39  1  0  0  0  0
 35 40  1  0  0  0  0
 41 42  1  0  0  0  0
 41 43  1  0  0  0  0
 42 44  1  0  0  0  0
 42 45  1  0  0  0  0
 42 46  1  0  0  0  0
M  END
$$$$

  -OEChem-05262217223D

 46 46  0     1  0  0  0  0  0999 V2000
    0.0432    0.6578    3.5604 C   0  0  0  0  0  0  0  0  0  0  0  0
    0.8997    0.3344    2.7527 O   0  0  0  0  0  0  0  0  0  0  0  0
    0.4330    0.9790    4.9909 C   0  0  0  0  0  0  0  0  0  0  0  0
   -0.0819    0.3033    5.6780 H   0  0  0  0  0  0  0  0  0  0  0  0
    1.5121    0.8614    5.1235 H   0  0  0  0  0  0  0  0  0  0  0  0
    0.1591    2.0096    5.2300 H   0  0  0  0  0  0  0  0  0  0  0  0
   -1.2760    0.7721    3.1732 N   0  0  0  0  0  0  0  0  0  0  0  0
   -1.6937    0.7473    1.7635 C   0  0  2  0  0  0  0  0  0  0  0  0
   -1.6069    2.1548    1.1170 C   0  0  0  0  0  0  0  0  0  0  0  0
   -1.8963    3.1181    1.8221 O   0  0  0  0  0  0  0  0  0  0  0  0
   -3.1320    0.2272    1.7432 C   0  0  0  0  0  0  0  0  0  0  0  0
   -1.8760    1.2784    3.8190 H   0  0  0  0  0  0  0  0  0  0  0  0
   -1.0583    0.0505    1.2114 H   0  0  0  0  0  0  0  0  0  0  0  0
   -3.1783   -0.7749    2.1808 H   0  0  0  0  0  0  0  0  0  0  0  0
   -3.5046    0.1742    0.7203 H   0  0  0  0  0  0  0  0  0  0  0  0
   -3.7890    0.8908    2.3149 H   0  0  0  0  0  0  0  0  0  0  0  0
   -1.1241    2.4291   -0.1697 N   0  0  0  0  0  0  0  0  0  0  0  0
   -0.6116    1.4882   -1.1578 C   0  0  2  0  0  0  0  0  0  0  0  0
   -1.3872    0.1743   -1.4086 C   0  0  0  0  0  0  0  0  0  0  0  0
   -0.8795   -0.9235   -1.2639 O   0  0  0  0  0  0  0  0  0  0  0  0
    0.8591    1.3729   -0.7330 C   0  0  0  0  0  0  0  0  0  0  0  0
    1.0699    2.6901    0.0328 C   0  0  0  0  0  0  0  0  0  0  0  0
   -0.1363    3.5339   -0.3512 C   0  0  0  0  0  0  0  0  0  0  0  0
   -0.6355    1.9707   -2.1408 H   0  0  0  0  0  0  0  0  0  0  0  0
    1.5159    1.2912   -1.6049 H   0  0  0  0  0  0  0  0  0  0  0  0
    1.0367    0.5139   -0.0765 H   0  0  0  0  0  0  0  0  0  0  0  0
    1.1048    2.5153    1.1137 H   0  0  0  0  0  0  0  0  0  0  0  0
    2.0045    3.1781   -0.2595 H   0  0  0  0  0  0  0  0  0  0  0  0
   -0.2857    4.3777    0.3314 H   0  0  0  0  0  0  0  0  0  0  0  0
   -0.0879    3.9229   -1.3749 H   0  0  0  0  0  0  0  0  0  0  0  0
   -2.6918    0.1086   -1.8466 N   0  0  0  0  0  0  0  0  0  0  0  0
   -3.5029    1.2518   -2.3009 C   0  0  2  0  0  0  0  0  0  0  0  0
   -5.0092    1.0883   -1.9885 C   0  0  0  0  0  0  0  0  0  0  0  0
   -5.8241    1.8763   -2.4460 O   0  0  0  0  0  0  0  0  0  0  0  0
   -3.2642    1.4252   -3.8060 C   0  0  0  0  0  0  0  0  0  0  0  0
   -2.9635   -0.8260   -2.1449 H   0  0  0  0  0  0  0  0  0  0  0  0
   -3.1890    2.1652   -1.7874 H   0  0  0  0  0  0  0  0  0  0  0  0
   -3.6165    0.5454   -4.3537 H   0  0  0  0  0  0  0  0  0  0  0  0
   -2.1996    1.5639   -4.0159 H   0  0  0  0  0  0  0  0  0  0  0  0
   -3.8026    2.3030   -4.1782 H   0  0  0  0  0  0  0  0  0  0  0  0
   -5.4578    0.0374   -1.2087 N   0  0  0  0  0  0  0  0  0  0  0  0
   -6.8556   -0.1513   -0.8408 C   0  0  0  0  0  0  0  0  0  0  0  0
   -4.7533   -0.5699   -0.8012 H   0  0  0  0  0  0  0  0  0  0  0  0
   -7.4764   -0.2630   -1.7361 H   0  0  0  0  0  0  0  0  0  0  0  0
   -6.9673   -1.0520   -0.2296 H   0  0  0  0  0  0  0  0  0  0  0  0
   -7.2191    0.7060   -0.2644 H   0  0  0  0  0  0  0  0  0  0  0  0
  1  2  2  0  0  0  0
  1  3  1  0  0  0  0
  1  7  1  0  0  0  0
  3  4  1  0  0  0  0
  3  5  1  0  0  0  0
  3  6  1  0  0  0  0
  7  8  1  0  0  0  0
  7 12  1  0  0  0  0
  8  9  1  0  0  0  0
  8 11  1  0  0  0  0
  8 13  1  0  0  0  0
  9 10  2  0  0  0  0
  9 17  1  0  0  0  0
 11 14  1  0  0  0  0
 11 15  1  0  0  0  0
 11 16  1  0  0  0  0
 17 18  1  0  0  0  0
 17 23  1  0  0  0  0
 18 19  1  0  0  0  0
 18 21  1  0  0  0  0
 18 24  1  0  0  0  0
 19 20  2  0  0  0  0
 19 31  1  0  0  0  0
 21 22  1  0  0  0  0
 21 25  1  0  0  0  0
 21 26  1  0  0  0  0
 22 23  1  0  0  0  0
 22 27  1  0  0  0  0
 22 28  1  0  0  0  0
 23 29  1  0  0  0  0
 23 30  1  0  0  0  0
 31 32  1  0  0  0  0
 31 36  1  0  0  0  0
 32 33  1  0  0  0  0
 32 35  1  0  0  0  0
 32 37  1  0  0  0  0
 33 34  2  0  0  0  0
 33 41  1  0  0  0  0
 35 38  1  0  0  0  0
 35 39  1  0  0  0  0
 35 40  1  0  0  0  0
 41 42  1  0  0  0  0
 41 43  1  0  0  0  0
 42 44  1  0  0  0  0
 42 45  1  0  0  0  0
 42 46  1  0  0  0  0
M  END
$$$$

  -OEChem-05262217223D

 46 46  0     1  0  0  0  0  0999 V2000
   -0.2963    1.0760    3.6851 C   0  0  0  0  0  0  0  0  0  0  0  0
    0.6744    0.7250    3.0325 O   0  0  0  0  0  0  0  0  0  0  0  0
   -0.1068    1.6262    5.0860 C   0  0  0  0  0  0  0  0  0  0  0  0
   -0.6864    1.0362    5.8001 H   0  0  0  0  0  0  0  0  0  0  0  0
    0.9487    1.5835    5.3690 H   0  0  0  0  0  0  0  0  0  0  0  0
   -0.4404    2.6663    5.1261 H   0  0  0  0  0  0  0  0  0  0  0  0
   -1.5637    1.0178    3.1426 N   0  0  0  0  0  0  0  0  0  0  0  0
   -1.7959    0.7763    1.7107 C   0  0  2  0  0  0  0  0  0  0  0  0
   -1.7208    2.0884    0.8874 C   0  0  0  0  0  0  0  0  0  0  0  0
   -2.1070    3.1209    1.4300 O   0  0  0  0  0  0  0  0  0  0  0  0
   -3.1792    0.1353    1.5852 C   0  0  0  0  0  0  0  0  0  0  0  0
   -2.2724    1.5533    3.6368 H   0  0  0  0  0  0  0  0  0  0  0  0
   -1.0462    0.0727    1.3416 H   0  0  0  0  0  0  0  0  0  0  0  0
   -3.9517    0.8105    1.9674 H   0  0  0  0  0  0  0  0  0  0  0  0
   -3.4038   -0.0887    0.5413 H   0  0  0  0  0  0  0  0  0  0  0  0
   -3.2157   -0.7985    2.1547 H   0  0  0  0  0  0  0  0  0  0  0  0
   -1.1584    2.2125   -0.3904 N   0  0  0  0  0  0  0  0  0  0  0  0
   -0.5376    1.1786   -1.2096 C   0  0  2  0  0  0  0  0  0  0  0  0
   -1.2483   -0.1896   -1.3227 C   0  0  0  0  0  0  0  0  0  0  0  0
   -0.7859   -1.2146   -0.8537 O   0  0  0  0  0  0  0  0  0  0  0  0
    0.9012    1.1876   -0.6717 C   0  0  0  0  0  0  0  0  0  0  0  0
    1.0037    2.5998   -0.0715 C   0  0  0  0  0  0  0  0  0  0  0  0
   -0.2015    3.3297   -0.6459 C   0  0  0  0  0  0  0  0  0  0  0  0
   -0.5012    1.5250   -2.2483 H   0  0  0  0  0  0  0  0  0  0  0  0
    1.6246    1.0268   -1.4770 H   0  0  0  0  0  0  0  0  0  0  0  0
    1.0630    0.4298    0.1032 H   0  0  0  0  0  0  0  0  0  0  0  0
    0.9642    2.5655    1.0228 H   0  0  0  0  0  0  0  0  0  0  0  0
    1.9386    3.0905   -0.3591 H   0  0  0  0  0  0  0  0  0  0  0  0
   -0.4326    4.2460   -0.0914 H   0  0  0  0  0  0  0  0  0  0  0  0
   -0.0916    3.5868   -1.7057 H   0  0  0  0  0  0  0  0  0  0  0  0
   -2.3763   -0.4101   -2.0813 N   0  0  0  0  0  0  0  0  0  0  0  0
   -3.1665    0.6112   -2.7893 C   0  0  2  0  0  0  0  0  0  0  0  0
   -4.6845    0.5039   -2.5131 C   0  0  0  0  0  0  0  0  0  0  0  0
   -5.4734    1.2053   -3.1297 O   0  0  0  0  0  0  0  0  0  0  0  0
   -2.8595    0.4713   -4.2841 C   0  0  0  0  0  0  0  0  0  0  0  0
   -2.5917   -1.3937   -2.2296 H   0  0  0  0  0  0  0  0  0  0  0  0
   -2.8725    1.6136   -2.4640 H   0  0  0  0  0  0  0  0  0  0  0  0
   -3.1967   -0.5010   -4.6570 H   0  0  0  0  0  0  0  0  0  0  0  0
   -3.3698    1.2558   -4.8524 H   0  0  0  0  0  0  0  0  0  0  0  0
   -1.7841    0.5613   -4.4652 H   0  0  0  0  0  0  0  0  0  0  0  0
   -5.1725   -0.4011   -1.5872 N   0  0  0  0  0  0  0  0  0  0  0  0
   -6.5861   -0.5273   -1.2541 C   0  0  0  0  0  0  0  0  0  0  0  0
   -4.4908   -0.9402   -1.0620 H   0  0  0  0  0  0  0  0  0  0  0  0
   -6.9610    0.4039   -0.8166 H   0  0  0  0  0  0  0  0  0  0  0  0
   -7.1725   -0.7565   -2.1503 H   0  0  0  0  0  0  0  0  0  0  0  0
   -6.7340   -1.3345   -0.5303 H   0  0  0  0  0  0  0  0  0  0  0  0
  1  2  2  0  0  0  0
  1  3  1  0  0  0  0
  1  7  1  0  0  0  0
  3  4  1  0  0  0  0
  3  5  1  0  0  0  0
  3  6  1  0  0  0  0
  7  8  1  0  0  0  0
  7 12  1  0  0  0  0
  8  9  1  0  0  0  0
  8 11  1  0  0  0  0
  8 13  1  0  0  0  0
  9 10  2  0  0  0  0
  9 17  1  0  0  0  0
 11 14  1  0  0  0  0
 11 15  1  0  0  0  0
 11 16  1  0  0  0  0
 17 18  1  0  0  0  0
 17 23  1  0  0  0  0
 18 19  1  0  0  0  0
 18 21  1  0  0  0  0
 18 24  1  0  0  0  0
 19 20  2  0  0  0  0
 19 31  1  0  0  0  0
 21 22  1  0  0  0  0
 21 25  1  0  0  0  0
 21 26  1  0  0  0  0
 22 23  1  0  0  0  0
 22 27  1  0  0  0  0
 22 28  1  0  0  0  0
 23 29  1  0  0  0  0
 23 30  1  0  0  0  0
 31 32  1  0  0  0  0
 31 36  1  0  0  0  0
 32 33  1  0  0  0  0
 32 35  1  0  0  0  0
 32 37  1  0  0  0  0
 33 34  2  0  0  0  0
 33 41  1  0  0  0  0
 35 38  1  0  0  0  0
 35 39  1  0  0  0  0
 35 40  1  0  0  0  0
 41 42  1  0  0  0  0
 41 43  1  0  0  0  0
 42 44  1  0  0  0  0
 42 45  1  0  0  0  0
 42 46  1  0  0  0  0
M  END
$$$$

  -OEChem-05262217223D

 46 46  0     1  0  0  0  0  0999 V2000
   -0.5986    1.1875    3.2989 C   0  0  0  0  0  0  0  0  0  0  0  0
   -0.6424    2.3081    3.7770 O   0  0  0  0  0  0  0  0  0  0  0  0
    0.4561    0.2040    3.7713 C   0  0  0  0  0  0  0  0  0  0  0  0
    1.2295    0.7269    4.3409 H   0  0  0  0  0  0  0  0  0  0  0  0
   -0.0041   -0.5528    4.4114 H   0  0  0  0  0  0  0  0  0  0  0  0
    0.9234   -0.2914    2.9169 H   0  0  0  0  0  0  0  0  0  0  0  0
   -1.4910    0.8145    2.3159 N   0  0  0  0  0  0  0  0  0  0  0  0
   -2.5804    1.6630    1.8153 C   0  0  2  0  0  0  0  0  0  0  0  0
   -2.2613    2.5862    0.6084 C   0  0  0  0  0  0  0  0  0  0  0  0
   -2.8368    3.6678    0.5954 O   0  0  0  0  0  0  0  0  0  0  0  0
   -3.7797    0.7630    1.5058 C   0  0  0  0  0  0  0  0  0  0  0  0
   -1.3274   -0.0889    1.8661 H   0  0  0  0  0  0  0  0  0  0  0  0
   -2.8892    2.3303    2.6287 H   0  0  0  0  0  0  0  0  0  0  0  0
   -4.0723    0.2053    2.4009 H   0  0  0  0  0  0  0  0  0  0  0  0
   -4.6329    1.3693    1.1841 H   0  0  0  0  0  0  0  0  0  0  0  0
   -3.5433    0.0496    0.7149 H   0  0  0  0  0  0  0  0  0  0  0  0
   -1.4123    2.3420   -0.4850 N   0  0  0  0  0  0  0  0  0  0  0  0
   -0.5841    1.1931   -0.8338 C   0  0  2  0  0  0  0  0  0  0  0  0
   -1.1959   -0.2185   -0.6906 C   0  0  0  0  0  0  0  0  0  0  0  0
   -0.9189   -0.9612    0.2394 O   0  0  0  0  0  0  0  0  0  0  0  0
    0.7234    1.5017   -0.0954 C   0  0  0  0  0  0  0  0  0  0  0  0
    0.6313    3.0289    0.0584 C   0  0  0  0  0  0  0  0  0  0  0  0
   -0.4798    3.4323   -0.9015 C   0  0  0  0  0  0  0  0  0  0  0  0
   -0.3515    1.2439   -1.9029 H   0  0  0  0  0  0  0  0  0  0  0  0
    1.5893    1.2041   -0.6955 H   0  0  0  0  0  0  0  0  0  0  0  0
    0.7919    1.0104    0.8768 H   0  0  0  0  0  0  0  0  0  0  0  0
    0.3770    3.3030    1.0891 H   0  0  0  0  0  0  0  0  0  0  0  0
    1.5761    3.5177   -0.1986 H   0  0  0  0  0  0  0  0  0  0  0  0
   -0.8522    4.4422   -0.6958 H   0  0  0  0  0  0  0  0  0  0  0  0
   -0.1841    3.3866   -1.9561 H   0  0  0  0  0  0  0  0  0  0  0  0
   -1.8798   -0.8599   -1.6982 N   0  0  0  0  0  0  0  0  0  0  0  0
   -2.5096   -0.2156   -2.8637 C   0  0  2  0  0  0  0  0  0  0  0  0
   -4.0420   -0.4245   -2.9093 C   0  0  0  0  0  0  0  0  0  0  0  0
   -4.6632   -0.2564   -3.9485 O   0  0  0  0  0  0  0  0  0  0  0  0
   -1.8175   -0.7661   -4.1153 C   0  0  0  0  0  0  0  0  0  0  0  0
   -2.0599   -1.8474   -1.5279 H   0  0  0  0  0  0  0  0  0  0  0  0
   -2.3591    0.8677   -2.8317 H   0  0  0  0  0  0  0  0  0  0  0  0
   -2.0085   -1.8390   -4.2196 H   0  0  0  0  0  0  0  0  0  0  0  0
   -2.1909   -0.2594   -5.0113 H   0  0  0  0  0  0  0  0  0  0  0  0
   -0.7365   -0.6070   -4.0570 H   0  0  0  0  0  0  0  0  0  0  0  0
   -4.7286   -0.8171   -1.7742 N   0  0  0  0  0  0  0  0  0  0  0  0
   -6.1744   -1.0002   -1.7325 C   0  0  0  0  0  0  0  0  0  0  0  0
   -4.1913   -0.9303   -0.9206 H   0  0  0  0  0  0  0  0  0  0  0  0
   -6.6866   -0.0703   -2.0021 H   0  0  0  0  0  0  0  0  0  0  0  0
   -6.4813   -1.7864   -2.4305 H   0  0  0  0  0  0  0  0  0  0  0  0
   -6.4910   -1.2892   -0.7255 H   0  0  0  0  0  0  0  0  0  0  0  0
  1  2  2  0  0  0  0
  1  3  1  0  0  0  0
  1  7  1  0  0  0  0
  3  4  1  0  0  0  0
  3  5  1  0  0  0  0
  3  6  1  0  0  0  0
  7  8  1  0  0  0  0
  7 12  1  0  0  0  0
  8  9  1  0  0  0  0
  8 11  1  0  0  0  0
  8 13  1  0  0  0  0
  9 10  2  0  0  0  0
  9 17  1  0  0  0  0
 11 14  1  0  0  0  0
 11 15  1  0  0  0  0
 11 16  1  0  0  0  0
 17 18  1  0  0  0  0
 17 23  1  0  0  0  0
 18 19  1  0  0  0  0
 18 21  1  0  0  0  0
 18 24  1  0  0  0  0
 19 20  2  0  0  0  0
 19 31  1  0  0  0  0
 21 22  1  0  0  0  0
 21 25  1  0  0  0  0
 21 26  1  0  0  0  0
 22 23  1  0  0  0  0
 22 27  1  0  0  0  0
 22 28  1  0  0  0  0
 23 29  1  0  0  0  0
 23 30  1  0  0  0  0
 31 32  1  0  0  0  0
 31 36  1  0  0  0  0
 32 33  1  0  0  0  0
 32 35  1  0  0  0  0
 32 37  1  0  0  0  0
 33 34  2  0  0  0  0
 33 41  1  0  0  0  0
 35 38  1  0  0  0  0
 35 39  1  0  0  0  0
 35 40  1  0  0  0  0
 41 42  1  0  0  0  0
 41 43  1  0  0  0  0
 42 44  1  0  0  0  0
 42 45  1  0  0  0  0
 42 46  1  0  0  0  0
M  END
$$$$

  -OEChem-05262217223D

 46 46  0     1  0  0  0  0  0999 V2000
   -0.4383    1.6538    3.2056 C   0  0  0  0  0  0  0  0  0  0  0  0
    0.2877    2.5758    3.5371 O   0  0  0  0  0  0  0  0  0  0  0  0
   -0.2696    0.2884    3.8459 C   0  0  0  0  0  0  0  0  0  0  0  0
   -1.0719    0.1180    4.5677 H   0  0  0  0  0  0  0  0  0  0  0  0
   -0.3068   -0.4945    3.0848 H   0  0  0  0  0  0  0  0  0  0  0  0
    0.6920    0.2314    4.3635 H   0  0  0  0  0  0  0  0  0  0  0  0
   -1.4011    1.8358    2.2370 N   0  0  0  0  0  0  0  0  0  0  0  0
   -1.6775    3.1043    1.5558 C   0  0  2  0  0  0  0  0  0  0  0  0
   -0.8461    3.4105    0.2828 C   0  0  0  0  0  0  0  0  0  0  0  0
   -0.5480    4.5882    0.1156 O   0  0  0  0  0  0  0  0  0  0  0  0
   -3.1759    3.1656    1.2462 C   0  0  0  0  0  0  0  0  0  0  0  0
   -1.8864    0.9991    1.9053 H   0  0  0  0  0  0  0  0  0  0  0  0
   -1.4646    3.9162    2.2612 H   0  0  0  0  0  0  0  0  0  0  0  0
   -3.4330    4.1464    0.8338 H   0  0  0  0  0  0  0  0  0  0  0  0
   -3.4622    2.4005    0.5204 H   0  0  0  0  0  0  0  0  0  0  0  0
   -3.7574    3.0138    2.1608 H   0  0  0  0  0  0  0  0  0  0  0  0
   -0.3953    2.5274   -0.7150 N   0  0  0  0  0  0  0  0  0  0  0  0
   -0.5375    1.0841   -0.9018 C   0  0  2  0  0  0  0  0  0  0  0  0
   -1.9059    0.3990   -0.6804 C   0  0  0  0  0  0  0  0  0  0  0  0
   -2.2343   -0.0415    0.4157 O   0  0  0  0  0  0  0  0  0  0  0  0
    0.6638    0.5388   -0.1232 C   0  0  0  0  0  0  0  0  0  0  0  0
    1.6052    1.7542   -0.1249 C   0  0  0  0  0  0  0  0  0  0  0  0
    1.0167    2.6777   -1.1825 C   0  0  0  0  0  0  0  0  0  0  0  0
   -0.3485    0.8707   -1.9600 H   0  0  0  0  0  0  0  0  0  0  0  0
    1.1047   -0.3206   -0.6387 H   0  0  0  0  0  0  0  0  0  0  0  0
    0.4084    0.2403    0.8953 H   0  0  0  0  0  0  0  0  0  0  0  0
    1.6162    2.2412    0.8575 H   0  0  0  0  0  0  0  0  0  0  0  0
    2.6320    1.4689   -0.3733 H   0  0  0  0  0  0  0  0  0  0  0  0
    1.4117    3.6963   -1.0998 H   0  0  0  0  0  0  0  0  0  0  0  0
    1.1860    2.3315   -2.2087 H   0  0  0  0  0  0  0  0  0  0  0  0
   -2.6423    0.0002   -1.7805 N   0  0  0  0  0  0  0  0  0  0  0  0
   -3.7132   -1.0071   -1.7641 C   0  0  2  0  0  0  0  0  0  0  0  0
   -3.5146   -2.0517   -2.8839 C   0  0  0  0  0  0  0  0  0  0  0  0
   -2.7189   -1.8340   -3.7914 O   0  0  0  0  0  0  0  0  0  0  0  0
   -5.0466   -0.2745   -1.9308 C   0  0  0  0  0  0  0  0  0  0  0  0
   -2.2299    0.1893   -2.6941 H   0  0  0  0  0  0  0  0  0  0  0  0
   -3.7213   -1.5506   -0.8137 H   0  0  0  0  0  0  0  0  0  0  0  0
   -5.0743    0.2584   -2.8868 H   0  0  0  0  0  0  0  0  0  0  0  0
   -5.8808   -0.9818   -1.9020 H   0  0  0  0  0  0  0  0  0  0  0  0
   -5.1817    0.4519   -1.1231 H   0  0  0  0  0  0  0  0  0  0  0  0
   -4.2168   -3.2426   -2.8677 N   0  0  0  0  0  0  0  0  0  0  0  0
   -4.0465   -4.2857   -3.8723 C   0  0  0  0  0  0  0  0  0  0  0  0
   -4.8475   -3.4084   -2.0888 H   0  0  0  0  0  0  0  0  0  0  0  0
   -4.2650   -3.8957   -4.8720 H   0  0  0  0  0  0  0  0  0  0  0  0
   -3.0201   -4.6670   -3.8591 H   0  0  0  0  0  0  0  0  0  0  0  0
   -4.7271   -5.1185   -3.6713 H   0  0  0  0  0  0  0  0  0  0  0  0
  1  2  2  0  0  0  0
  1  3  1  0  0  0  0
  1  7  1  0  0  0  0
  3  4  1  0  0  0  0
  3  5  1  0  0  0  0
  3  6  1  0  0  0  0
  7  8  1  0  0  0  0
  7 12  1  0  0  0  0
  8  9  1  0  0  0  0
  8 11  1  0  0  0  0
  8 13  1  0  0  0  0
  9 10  2  0  0  0  0
  9 17  1  0  0  0  0
 11 14  1  0  0  0  0
 11 15  1  0  0  0  0
 11 16  1  0  0  0  0
 17 18  1  0  0  0  0
 17 23  1  0  0  0  0
 18 19  1  0  0  0  0
 18 21  1  0  0  0  0
 18 24  1  0  0  0  0
 19 20  2  0  0  0  0
 19 31  1  0  0  0  0
 21 22  1  0  0  0  0
 21 25  1  0  0  0  0
 21 26  1  0  0  0  0
 22 23  1  0  0  0  0
 22 27  1  0  0  0  0
 22 28  1  0  0  0  0
 23 29  1  0  0  0  0
 23 30  1  0  0  0  0
 31 32  1  0  0  0  0
 31 36  1  0  0  0  0
 32 33  1  0  0  0  0
 32 35  1  0  0  0  0
 32 37  1  0  0  0  0
 33 34  2  0  0  0  0
 33 41  1  0  0  0  0
 35 38  1  0  0  0  0
 35 39  1  0  0  0  0
 35 40  1  0  0  0  0
 41 42  1  0  0  0  0
 41 43  1  0  0  0  0
 42 44  1  0  0  0  0
 42 45  1  0  0  0  0
 42 46  1  0  0  0  0
M  END
$$$$

  -OEChem-05262217223D

 46 46  0     1  0  0  0  0  0999 V2000
   -0.5772    1.5706    3.1594 C   0  0  0  0  0  0  0  0  0  0  0  0
    0.1299    2.4935    3.5271 O   0  0  0  0  0  0  0  0  0  0  0  0
   -0.3999    0.1924    3.7689 C   0  0  0  0  0  0  0  0  0  0  0  0
   -1.2080   -0.0041    4.4775 H   0  0  0  0  0  0  0  0  0  0  0  0
   -0.4194   -0.5724    2.9891 H   0  0  0  0  0  0  0  0  0  0  0  0
    0.5563    0.1339    4.2963 H   0  0  0  0  0  0  0  0  0  0  0  0
   -1.5253    1.7646    2.1789 N   0  0  0  0  0  0  0  0  0  0  0  0
   -1.8037    3.0442    1.5208 C   0  0  2  0  0  0  0  0  0  0  0  0
   -0.9341    3.3953    0.2867 C   0  0  0  0  0  0  0  0  0  0  0  0
   -0.6556    4.5837    0.1633 O   0  0  0  0  0  0  0  0  0  0  0  0
   -3.2912    3.0972    1.1598 C   0  0  0  0  0  0  0  0  0  0  0  0
   -1.9887    0.9319    1.8089 H   0  0  0  0  0  0  0  0  0  0  0  0
   -1.6283    3.8387    2.2554 H   0  0  0  0  0  0  0  0  0  0  0  0
   -3.5534    4.0980    0.8018 H   0  0  0  0  0  0  0  0  0  0  0  0
   -3.5343    2.3775    0.3744 H   0  0  0  0  0  0  0  0  0  0  0  0
   -3.9033    2.8749    2.0392 H   0  0  0  0  0  0  0  0  0  0  0  0
   -0.4319    2.5524   -0.7224 N   0  0  0  0  0  0  0  0  0  0  0  0
   -0.5305    1.1129   -0.9774 C   0  0  2  0  0  0  0  0  0  0  0  0
   -1.8708    0.3475   -0.8507 C   0  0  0  0  0  0  0  0  0  0  0  0
   -2.3427    0.0378    0.2362 O   0  0  0  0  0  0  0  0  0  0  0  0
    0.6513    0.5643   -0.1730 C   0  0  0  0  0  0  0  0  0  0  0  0
    1.5620    1.7988   -0.0829 C   0  0  0  0  0  0  0  0  0  0  0  0
    0.9948    2.7525   -1.1248 C   0  0  0  0  0  0  0  0  0  0  0  0
   -0.2918    0.9631   -2.0365 H   0  0  0  0  0  0  0  0  0  0  0  0
    1.1343   -0.2623   -0.7038 H   0  0  0  0  0  0  0  0  0  0  0  0
    0.3580    0.2178    0.8203 H   0  0  0  0  0  0  0  0  0  0  0  0
    1.5209    2.2437    0.9182 H   0  0  0  0  0  0  0  0  0  0  0  0
    2.6046    1.5476   -0.2996 H   0  0  0  0  0  0  0  0  0  0  0  0
    1.3643    3.7743   -0.9840 H   0  0  0  0  0  0  0  0  0  0  0  0
    1.2145    2.4539   -2.1566 H   0  0  0  0  0  0  0  0  0  0  0  0
   -2.3746   -0.3001   -1.9646 N   0  0  0  0  0  0  0  0  0  0  0  0
   -3.3477   -1.4030   -1.9395 C   0  0  2  0  0  0  0  0  0  0  0  0
   -2.8461   -2.6076   -2.7650 C   0  0  0  0  0  0  0  0  0  0  0  0
   -1.9031   -2.4706   -3.5375 O   0  0  0  0  0  0  0  0  0  0  0  0
   -4.6699   -0.8709   -2.4984 C   0  0  0  0  0  0  0  0  0  0  0  0
   -1.8176   -0.2291   -2.8158 H   0  0  0  0  0  0  0  0  0  0  0  0
   -3.5121   -1.7586   -0.9173 H   0  0  0  0  0  0  0  0  0  0  0  0
   -4.5415   -0.5326   -3.5318 H   0  0  0  0  0  0  0  0  0  0  0  0
   -5.4374   -1.6505   -2.4804 H   0  0  0  0  0  0  0  0  0  0  0  0
   -5.0218   -0.0266   -1.8970 H   0  0  0  0  0  0  0  0  0  0  0  0
   -3.4456   -3.8472   -2.6384 N   0  0  0  0  0  0  0  0  0  0  0  0
   -3.0028   -5.0280   -3.3709 C   0  0  0  0  0  0  0  0  0  0  0  0
   -4.2039   -3.9390   -1.9685 H   0  0  0  0  0  0  0  0  0  0  0  0
   -3.0290   -4.8426   -4.4499 H   0  0  0  0  0  0  0  0  0  0  0  0
   -1.9804   -5.2953   -3.0841 H   0  0  0  0  0  0  0  0  0  0  0  0
   -3.6565   -5.8779   -3.1520 H   0  0  0  0  0  0  0  0  0  0  0  0
  1  2  2  0  0  0  0
  1  3  1  0  0  0  0
  1  7  1  0  0  0  0
  3  4  1  0  0  0  0
  3  5  1  0  0  0  0
  3  6  1  0  0  0  0
  7  8  1  0  0  0  0
  7 12  1  0  0  0  0
  8  9  1  0  0  0  0
  8 11  1  0  0  0  0
  8 13  1  0  0  0  0
  9 10  2  0  0  0  0
  9 17  1  0  0  0  0
 11 14  1  0  0  0  0
 11 15  1  0  0  0  0
 11 16  1  0  0  0  0
 17 18  1  0  0  0  0
 17 23  1  0  0  0  0
 18 19  1  0  0  0  0
 18 21  1  0  0  0  0
 18 24  1  0  0  0  0
 19 20  2  0  0  0  0
 19 31  1  0  0  0  0
 21 22  1  0  0  0  0
 21 25  1  0  0  0  0
 21 26  1  0  0  0  0
 22 23  1  0  0  0  0
 22 27  1  0  0  0  0
 22 28  1  0  0  0  0
 23 29  1  0  0  0  0
 23 30  1  0  0  0  0
 31 32  1  0  0  0  0
 31 36  1  0  0  0  0
 32 33  1  0  0  0  0
 32 35  1  0  0  0  0
 32 37  1  0  0  0  0
 33 34  2  0  0  0  0
 33 41  1  0  0  0  0
 35 38  1  0  0  0  0
 35 39  1  0  0  0  0
 35 40  1  0  0  0  0
 41 42  1  0  0  0  0
 41 43  1  0  0  0  0
 42 44  1  0  0  0  0
 42 45  1  0  0  0  0
 42 46  1  0  0  0  0
M  END
$$$$

  -OEChem-05262217223D

 46 46  0     1  0  0  0  0  0999 V2000
   -0.6560    1.4155    3.0596 C   0  0  0  0  0  0  0  0  0  0  0  0
    0.0600    2.3192    3.4565 O   0  0  0  0  0  0  0  0  0  0  0  0
   -0.4670    0.0092    3.5971 C   0  0  0  0  0  0  0  0  0  0  0  0
   -1.2691   -0.2273    4.3000 H   0  0  0  0  0  0  0  0  0  0  0  0
   -0.4872   -0.7155    2.7799 H   0  0  0  0  0  0  0  0  0  0  0  0
    0.4931   -0.0705    4.1141 H   0  0  0  0  0  0  0  0  0  0  0  0
   -1.6173    1.6549    2.1029 N   0  0  0  0  0  0  0  0  0  0  0  0
   -1.8963    2.9602    1.4981 C   0  0  2  0  0  0  0  0  0  0  0  0
   -1.0278    3.3676    0.2807 C   0  0  0  0  0  0  0  0  0  0  0  0
   -0.8117    4.5716    0.1829 O   0  0  0  0  0  0  0  0  0  0  0  0
   -3.3839    3.0320    1.1392 C   0  0  0  0  0  0  0  0  0  0  0  0
   -2.0838    0.8423    1.6947 H   0  0  0  0  0  0  0  0  0  0  0  0
   -1.7204    3.7215    2.2669 H   0  0  0  0  0  0  0  0  0  0  0  0
   -3.6495    4.0533    0.8481 H   0  0  0  0  0  0  0  0  0  0  0  0
   -3.6227    2.3675    0.3052 H   0  0  0  0  0  0  0  0  0  0  0  0
   -3.9963    2.7483    2.0005 H   0  0  0  0  0  0  0  0  0  0  0  0
   -0.4653    2.5745   -0.7386 N   0  0  0  0  0  0  0  0  0  0  0  0
   -0.4712    1.1386   -1.0434 C   0  0  2  0  0  0  0  0  0  0  0  0
   -1.7393    0.2499   -0.9825 C   0  0  0  0  0  0  0  0  0  0  0  0
   -2.4229    0.1208    0.0227 O   0  0  0  0  0  0  0  0  0  0  0  0
    0.7293    0.6355   -0.2395 C   0  0  0  0  0  0  0  0  0  0  0  0
    1.5619    1.9186   -0.0932 C   0  0  0  0  0  0  0  0  0  0  0  0
    0.9534    2.8722   -1.1115 C   0  0  0  0  0  0  0  0  0  0  0  0
   -0.2102    1.0538   -2.1046 H   0  0  0  0  0  0  0  0  0  0  0  0
    1.2700   -0.1424   -0.7880 H   0  0  0  0  0  0  0  0  0  0  0  0
    0.4401    0.2388    0.7363 H   0  0  0  0  0  0  0  0  0  0  0  0
    1.4790    2.3247    0.9216 H   0  0  0  0  0  0  0  0  0  0  0  0
    2.6211    1.7387   -0.3011 H   0  0  0  0  0  0  0  0  0  0  0  0
    1.2621    3.9079   -0.9315 H   0  0  0  0  0  0  0  0  0  0  0  0
    1.2052    2.6234   -2.1490 H   0  0  0  0  0  0  0  0  0  0  0  0
   -1.9758   -0.6331   -2.0215 N   0  0  0  0  0  0  0  0  0  0  0  0
   -2.8951   -1.7805   -1.9673 C   0  0  2  0  0  0  0  0  0  0  0  0
   -2.1985   -3.0767   -2.4343 C   0  0  0  0  0  0  0  0  0  0  0  0
   -1.1149   -3.0180   -3.0062 O   0  0  0  0  0  0  0  0  0  0  0  0
   -4.0978   -1.4576   -2.8571 C   0  0  0  0  0  0  0  0  0  0  0  0
   -1.2564   -0.6846   -2.7422 H   0  0  0  0  0  0  0  0  0  0  0  0
   -3.2467   -1.9532   -0.9450 H   0  0  0  0  0  0  0  0  0  0  0  0
   -3.7781   -1.3046   -3.8932 H   0  0  0  0  0  0  0  0  0  0  0  0
   -4.8245   -2.2755   -2.8341 H   0  0  0  0  0  0  0  0  0  0  0  0
   -4.5924   -0.5462   -2.5061 H   0  0  0  0  0  0  0  0  0  0  0  0
   -2.7794   -4.3100   -2.2039 N   0  0  0  0  0  0  0  0  0  0  0  0
   -2.1604   -5.5713   -2.5940 C   0  0  0  0  0  0  0  0  0  0  0  0
   -3.6692   -4.3290   -1.7140 H   0  0  0  0  0  0  0  0  0  0  0  0
   -1.9856   -5.5950   -3.6747 H   0  0  0  0  0  0  0  0  0  0  0  0
   -1.2031   -5.7036   -2.0791 H   0  0  0  0  0  0  0  0  0  0  0  0
   -2.8126   -6.4100   -2.3322 H   0  0  0  0  0  0  0  0  0  0  0  0
  1  2  2  0  0  0  0
  1  3  1  0  0  0  0
  1  7  1  0  0  0  0
  3  4  1  0  0  0  0
  3  5  1  0  0  0  0
  3  6  1  0  0  0  0
  7  8  1  0  0  0  0
  7 12  1  0  0  0  0
  8  9  1  0  0  0  0
  8 11  1  0  0  0  0
  8 13  1  0  0  0  0
  9 10  2  0  0  0  0
  9 17  1  0  0  0  0
 11 14  1  0  0  0  0
 11 15  1  0  0  0  0
 11 16  1  0  0  0  0
 17 18  1  0  0  0  0
 17 23  1  0  0  0  0
 18 19  1  0  0  0  0
 18 21  1  0  0  0  0
 18 24  1  0  0  0  0
 19 20  2  0  0  0  0
 19 31  1  0  0  0  0
 21 22  1  0  0  0  0
 21 25  1  0  0  0  0
 21 26  1  0  0  0  0
 22 23  1  0  0  0  0
 22 27  1  0  0  0  0
 22 28  1  0  0  0  0
 23 29  1  0  0  0  0
 23 30  1  0  0  0  0
 31 32  1  0  0  0  0
 31 36  1  0  0  0  0
 32 33  1  0  0  0  0
 32 35  1  0  0  0  0
 32 37  1  0  0  0  0
 33 34  2  0  0  0  0
 33 41  1  0  0  0  0
 35 38  1  0  0  0  0
 35 39  1  0  0  0  0
 35 40  1  0  0  0  0
 41 42  1  0  0  0  0
 41 43  1  0  0  0  0
 42 44  1  0  0  0  0
 42 45  1  0  0  0  0
 42 46  1  0  0  0  0
M  END
$$$$

  -OEChem-05262217223D

 46 46  0     1  0  0  0  0  0999 V2000
   -0.2437    1.1696    3.3860 C   0  0  0  0  0  0  0  0  0  0  0  0
    0.2908    0.2652    2.7635 O   0  0  0  0  0  0  0  0  0  0  0  0
    0.3617    1.6478    4.6923 C   0  0  0  0  0  0  0  0  0  0  0  0
   -0.3414    1.4809    5.5119 H   0  0  0  0  0  0  0  0  0  0  0  0
    1.2855    1.1017    4.9027 H   0  0  0  0  0  0  0  0  0  0  0  0
    0.5901    2.7145    4.6290 H   0  0  0  0  0  0  0  0  0  0  0  0
   -1.3709    1.7918    2.8927 N   0  0  0  0  0  0  0  0  0  0  0  0
   -1.8639    1.5938    1.5204 C   0  0  2  0  0  0  0  0  0  0  0  0
   -1.2286    2.6144    0.5400 C   0  0  0  0  0  0  0  0  0  0  0  0
   -1.1366    3.7711    0.9501 O   0  0  0  0  0  0  0  0  0  0  0  0
   -3.3859    1.7722    1.5770 C   0  0  0  0  0  0  0  0  0  0  0  0
   -1.6202    2.6703    3.3396 H   0  0  0  0  0  0  0  0  0  0  0  0
   -1.6325    0.5777    1.1975 H   0  0  0  0  0  0  0  0  0  0  0  0
   -3.6424    2.7572    1.9793 H   0  0  0  0  0  0  0  0  0  0  0  0
   -3.8258    1.6892    0.5794 H   0  0  0  0  0  0  0  0  0  0  0  0
   -3.8317    1.0045    2.2162 H   0  0  0  0  0  0  0  0  0  0  0  0
   -0.5983    2.3262   -0.6824 N   0  0  0  0  0  0  0  0  0  0  0  0
   -0.3758    1.0395   -1.3424 C   0  0  2  0  0  0  0  0  0  0  0  0
   -1.4731   -0.0421   -1.4605 C   0  0  0  0  0  0  0  0  0  0  0  0
   -2.5903    0.0979   -0.9863 O   0  0  0  0  0  0  0  0  0  0  0  0
    0.9312    0.5771   -0.6931 C   0  0  0  0  0  0  0  0  0  0  0  0
    1.5364    1.9112   -0.2259 C   0  0  0  0  0  0  0  0  0  0  0  0
    0.7231    2.9635   -0.9671 C   0  0  0  0  0  0  0  0  0  0  0  0
   -0.1752    1.2555   -2.3980 H   0  0  0  0  0  0  0  0  0  0  0  0
    1.5746    0.0663   -1.4162 H   0  0  0  0  0  0  0  0  0  0  0  0
    0.7530   -0.0922    0.1553 H   0  0  0  0  0  0  0  0  0  0  0  0
    1.4373    2.0266    0.8590 H   0  0  0  0  0  0  0  0  0  0  0  0
    2.5988    1.9806   -0.4776 H   0  0  0  0  0  0  0  0  0  0  0  0
    0.8420    3.9607   -0.5296 H   0  0  0  0  0  0  0  0  0  0  0  0
    0.9645    3.0302   -2.0344 H   0  0  0  0  0  0  0  0  0  0  0  0
   -1.2779   -1.0786   -2.3553 N   0  0  0  0  0  0  0  0  0  0  0  0
   -2.1470   -2.2617   -2.4341 C   0  0  2  0  0  0  0  0  0  0  0  0
   -1.4143   -3.5167   -1.9167 C   0  0  0  0  0  0  0  0  0  0  0  0
   -0.1954   -3.5976   -2.0267 O   0  0  0  0  0  0  0  0  0  0  0  0
   -2.5623   -2.4421   -3.8952 C   0  0  0  0  0  0  0  0  0  0  0  0
   -0.3110   -1.2333   -2.6364 H   0  0  0  0  0  0  0  0  0  0  0  0
   -3.0505   -2.1289   -1.8304 H   0  0  0  0  0  0  0  0  0  0  0  0
   -1.6823   -2.5914   -4.5295 H   0  0  0  0  0  0  0  0  0  0  0  0
   -3.2188   -3.3110   -4.0012 H   0  0  0  0  0  0  0  0  0  0  0  0
   -3.1001   -1.5559   -4.2467 H   0  0  0  0  0  0  0  0  0  0  0  0
   -2.1182   -4.5529   -1.3319 N   0  0  0  0  0  0  0  0  0  0  0  0
   -1.4726   -5.7244   -0.7519 C   0  0  0  0  0  0  0  0  0  0  0  0
   -3.1149   -4.4194   -1.1866 H   0  0  0  0  0  0  0  0  0  0  0  0
   -0.8849   -6.2534   -1.5093 H   0  0  0  0  0  0  0  0  0  0  0  0
   -0.8081   -5.4292    0.0670 H   0  0  0  0  0  0  0  0  0  0  0  0
   -2.2243   -6.4141   -0.3564 H   0  0  0  0  0  0  0  0  0  0  0  0
  1  2  2  0  0  0  0
  1  3  1  0  0  0  0
  1  7  1  0  0  0  0
  3  4  1  0  0  0  0
  3  5  1  0  0  0  0
  3  6  1  0  0  0  0
  7  8  1  0  0  0  0
  7 12  1  0  0  0  0
  8  9  1  0  0  0  0
  8 11  1  0  0  0  0
  8 13  1  0  0  0  0
  9 10  2  0  0  0  0
  9 17  1  0  0  0  0
 11 14  1  0  0  0  0
 11 15  1  0  0  0  0
 11 16  1  0  0  0  0
 17 18  1  0  0  0  0
 17 23  1  0  0  0  0
 18 19  1  0  0  0  0
 18 21  1  0  0  0  0
 18 24  1  0  0  0  0
 19 20  2  0  0  0  0
 19 31  1  0  0  0  0
 21 22  1  0  0  0  0
 21 25  1  0  0  0  0
 21 26  1  0  0  0  0
 22 23  1  0  0  0  0
 22 27  1  0  0  0  0
 22 28  1  0  0  0  0
 23 29  1  0  0  0  0
 23 30  1  0  0  0  0
 31 32  1  0  0  0  0
 31 36  1  0  0  0  0
 32 33  1  0  0  0  0
 32 35  1  0  0  0  0
 32 37  1  0  0  0  0
 33 34  2  0  0  0  0
 33 41  1  0  0  0  0
 35 38  1  0  0  0  0
 35 39  1  0  0  0  0
 35 40  1  0  0  0  0
 41 42  1  0  0  0  0
 41 43  1  0  0  0  0
 42 44  1  0  0  0  0
 42 45  1  0  0  0  0
 42 46  1  0  0  0  0
M  END
$$$$

  -OEChem-05262217223D

 46 46  0     1  0  0  0  0  0999 V2000
   -0.1664    1.6392    3.4539 C   0  0  0  0  0  0  0  0  0  0  0  0
    0.3602    0.6099    3.0629 O   0  0  0  0  0  0  0  0  0  0  0  0
    0.3753    2.3459    4.6818 C   0  0  0  0  0  0  0  0  0  0  0  0
   -0.4095    2.4344    5.4369 H   0  0  0  0  0  0  0  0  0  0  0  0
    1.2094    1.7795    5.1054 H   0  0  0  0  0  0  0  0  0  0  0  0
    0.7272    3.3451    4.4132 H   0  0  0  0  0  0  0  0  0  0  0  0
   -1.2343    2.1845    2.7746 N   0  0  0  0  0  0  0  0  0  0  0  0
   -1.7129    1.7185    1.4636 C   0  0  2  0  0  0  0  0  0  0  0  0
   -1.2662    2.6716    0.3234 C   0  0  0  0  0  0  0  0  0  0  0  0
   -1.3407    3.8776    0.5564 O   0  0  0  0  0  0  0  0  0  0  0  0
   -3.2418    1.6771    1.5557 C   0  0  0  0  0  0  0  0  0  0  0  0
   -1.4971    3.1308    3.0399 H   0  0  0  0  0  0  0  0  0  0  0  0
   -1.3537    0.7077    1.2597 H   0  0  0  0  0  0  0  0  0  0  0  0
   -3.6390    2.6647    1.8114 H   0  0  0  0  0  0  0  0  0  0  0  0
   -3.6803    1.3707    0.6021 H   0  0  0  0  0  0  0  0  0  0  0  0
   -3.5544    0.9638    2.3242 H   0  0  0  0  0  0  0  0  0  0  0  0
   -0.5867    2.2826   -0.8425 N   0  0  0  0  0  0  0  0  0  0  0  0
   -0.1744    0.9266   -1.1950 C   0  0  2  0  0  0  0  0  0  0  0  0
   -1.2301   -0.1892   -1.3314 C   0  0  0  0  0  0  0  0  0  0  0  0
   -2.4251    0.0375   -1.2031 O   0  0  0  0  0  0  0  0  0  0  0  0
    1.0774    0.6836   -0.3541 C   0  0  0  0  0  0  0  0  0  0  0  0
    1.5277    2.1339   -0.0986 C   0  0  0  0  0  0  0  0  0  0  0  0
    0.7220    2.9635   -1.1021 C   0  0  0  0  0  0  0  0  0  0  0  0
    0.1648    0.9636   -2.2371 H   0  0  0  0  0  0  0  0  0  0  0  0
    1.8271    0.1129   -0.9117 H   0  0  0  0  0  0  0  0  0  0  0  0
    0.8583    0.1581    0.5795 H   0  0  0  0  0  0  0  0  0  0  0  0
    1.3169    2.4354    0.9331 H   0  0  0  0  0  0  0  0  0  0  0  0
    2.6026    2.2516   -0.2671 H   0  0  0  0  0  0  0  0  0  0  0  0
    0.7215    4.0293   -0.8475 H   0  0  0  0  0  0  0  0  0  0  0  0
    1.0792    2.8656   -2.1340 H   0  0  0  0  0  0  0  0  0  0  0  0
   -0.8283   -1.4682   -1.6645 N   0  0  0  0  0  0  0  0  0  0  0  0
   -1.7155   -2.6368   -1.7117 C   0  0  2  0  0  0  0  0  0  0  0  0
   -0.9509   -3.9330   -1.3666 C   0  0  0  0  0  0  0  0  0  0  0  0
    0.2756   -3.9329   -1.3392 O   0  0  0  0  0  0  0  0  0  0  0  0
   -2.3251   -2.7271   -3.1141 C   0  0  0  0  0  0  0  0  0  0  0  0
    0.1726   -1.6648   -1.6529 H   0  0  0  0  0  0  0  0  0  0  0  0
   -2.5168   -2.5232   -0.9739 H   0  0  0  0  0  0  0  0  0  0  0  0
   -1.5374   -2.8360   -3.8665 H   0  0  0  0  0  0  0  0  0  0  0  0
   -2.9993   -3.5856   -3.1870 H   0  0  0  0  0  0  0  0  0  0  0  0
   -2.8972   -1.8209   -3.3378 H   0  0  0  0  0  0  0  0  0  0  0  0
   -1.6369   -5.0974   -1.0741 N   0  0  0  0  0  0  0  0  0  0  0  0
   -0.9770   -6.3428   -0.7016 C   0  0  0  0  0  0  0  0  0  0  0  0
   -2.6520   -5.0591   -1.0742 H   0  0  0  0  0  0  0  0  0  0  0  0
   -0.2976   -6.6707   -1.4954 H   0  0  0  0  0  0  0  0  0  0  0  0
   -0.4028   -6.2105    0.2214 H   0  0  0  0  0  0  0  0  0  0  0  0
   -1.7193   -7.1298   -0.5375 H   0  0  0  0  0  0  0  0  0  0  0  0
  1  2  2  0  0  0  0
  1  3  1  0  0  0  0
  1  7  1  0  0  0  0
  3  4  1  0  0  0  0
  3  5  1  0  0  0  0
  3  6  1  0  0  0  0
  7  8  1  0  0  0  0
  7 12  1  0  0  0  0
  8  9  1  0  0  0  0
  8 11  1  0  0  0  0
  8 13  1  0  0  0  0
  9 10  2  0  0  0  0
  9 17  1  0  0  0  0
 11 14  1  0  0  0  0
 11 15  1  0  0  0  0
 11 16  1  0  0  0  0
 17 18  1  0  0  0  0
 17 23  1  0  0  0  0
 18 19  1  0  0  0  0
 18 21  1  0  0  0  0
 18 24  1  0  0  0  0
 19 20  2  0  0  0  0
 19 31  1  0  0  0  0
 21 22  1  0  0  0  0
 21 25  1  0  0  0  0
 21 26  1  0  0  0  0
 22 23  1  0  0  0  0
 22 27  1  0  0  0  0
 22 28  1  0  0  0  0
 23 29  1  0  0  0  0
 23 30  1  0  0  0  0
 31 32  1  0  0  0  0
 31 36  1  0  0  0  0
 32 33  1  0  0  0  0
 32 35  1  0  0  0  0
 32 37  1  0  0  0  0
 33 34  2  0  0  0  0
 33 41  1  0  0  0  0
 35 38  1  0  0  0  0
 35 39  1  0  0  0  0
 35 40  1  0  0  0  0
 41 42  1  0  0  0  0
 41 43  1  0  0  0  0
 42 44  1  0  0  0  0
 42 45  1  0  0  0  0
 42 46  1  0  0  0  0
M  END
$$$$

  -OEChem-05262217223D

 46 46  0     1  0  0  0  0  0999 V2000
   -0.5838    0.6407    3.3560 C   0  0  0  0  0  0  0  0  0  0  0  0
   -0.6304   -0.5148    2.9617 O   0  0  0  0  0  0  0  0  0  0  0  0
    0.2169    0.9861    4.5973 C   0  0  0  0  0  0  0  0  0  0  0  0
   -0.4071    1.5406    5.3025 H   0  0  0  0  0  0  0  0  0  0  0  0
    0.5710    0.0735    5.0847 H   0  0  0  0  0  0  0  0  0  0  0  0
    1.0798    1.5993    4.3258 H   0  0  0  0  0  0  0  0  0  0  0  0
   -1.2373    1.6413    2.6687 N   0  0  0  0  0  0  0  0  0  0  0  0
   -1.8903    1.4720    1.3627 C   0  0  2  0  0  0  0  0  0  0  0  0
   -1.2221    2.3570    0.2773 C   0  0  0  0  0  0  0  0  0  0  0  0
   -0.9767    3.5193    0.5968 O   0  0  0  0  0  0  0  0  0  0  0  0
   -3.3599    1.8648    1.5392 C   0  0  0  0  0  0  0  0  0  0  0  0
   -1.0504    2.5985    2.9613 H   0  0  0  0  0  0  0  0  0  0  0  0
   -1.8545    0.4271    1.0533 H   0  0  0  0  0  0  0  0  0  0  0  0
   -3.4427    2.9036    1.8744 H   0  0  0  0  0  0  0  0  0  0  0  0
   -3.9007    1.7648    0.5933 H   0  0  0  0  0  0  0  0  0  0  0  0
   -3.8384    1.2182    2.2809 H   0  0  0  0  0  0  0  0  0  0  0  0
   -0.6499    1.8742   -0.9114 N   0  0  0  0  0  0  0  0  0  0  0  0
   -0.5837    0.4724   -1.3201 C   0  0  2  0  0  0  0  0  0  0  0  0
   -1.9237   -0.2960   -1.4790 C   0  0  0  0  0  0  0  0  0  0  0  0
   -2.9914    0.2908   -1.4273 O   0  0  0  0  0  0  0  0  0  0  0  0
    0.5832   -0.0610   -0.4784 C   0  0  0  0  0  0  0  0  0  0  0  0
    1.3623    1.2317   -0.1807 C   0  0  0  0  0  0  0  0  0  0  0  0
    0.7780    2.2441   -1.1639 C   0  0  0  0  0  0  0  0  0  0  0  0
   -0.2424    0.4576   -2.3603 H   0  0  0  0  0  0  0  0  0  0  0  0
    1.1964   -0.7724   -1.0389 H   0  0  0  0  0  0  0  0  0  0  0  0
    0.2459   -0.5302    0.4489 H   0  0  0  0  0  0  0  0  0  0  0  0
    1.2249    1.5486    0.8587 H   0  0  0  0  0  0  0  0  0  0  0  0
    2.4354    1.0962   -0.3482 H   0  0  0  0  0  0  0  0  0  0  0  0
    1.0219    3.2763   -0.8893 H   0  0  0  0  0  0  0  0  0  0  0  0
    1.1045    2.0847   -2.1981 H   0  0  0  0  0  0  0  0  0  0  0  0
   -2.1238   -1.6586   -1.5736 N   0  0  0  0  0  0  0  0  0  0  0  0
   -1.1665   -2.7175   -1.9444 C   0  0  2  0  0  0  0  0  0  0  0  0
   -0.2153   -3.1558   -0.8052 C   0  0  0  0  0  0  0  0  0  0  0  0
    0.9192   -3.5418   -1.0533 O   0  0  0  0  0  0  0  0  0  0  0  0
   -0.4373   -2.3636   -3.2515 C   0  0  0  0  0  0  0  0  0  0  0  0
   -3.1136   -1.8799   -1.6623 H   0  0  0  0  0  0  0  0  0  0  0  0
   -1.7664   -3.6069   -2.1621 H   0  0  0  0  0  0  0  0  0  0  0  0
    0.3231   -1.5969   -3.0899 H   0  0  0  0  0  0  0  0  0  0  0  0
    0.0629   -3.2515   -3.6518 H   0  0  0  0  0  0  0  0  0  0  0  0
   -1.1482   -2.0041   -4.0018 H   0  0  0  0  0  0  0  0  0  0  0  0
   -0.6347   -3.0980    0.5103 N   0  0  0  0  0  0  0  0  0  0  0  0
    0.2395   -3.3836    1.6416 C   0  0  0  0  0  0  0  0  0  0  0  0
   -1.5234   -2.6385    0.6927 H   0  0  0  0  0  0  0  0  0  0  0  0
    0.6474   -4.3969    1.5660 H   0  0  0  0  0  0  0  0  0  0  0  0
    1.0693   -2.6698    1.6764 H   0  0  0  0  0  0  0  0  0  0  0  0
   -0.3202   -3.3070    2.5789 H   0  0  0  0  0  0  0  0  0  0  0  0
  1  2  2  0  0  0  0
  1  3  1  0  0  0  0
  1  7  1  0  0  0  0
  3  4  1  0  0  0  0
  3  5  1  0  0  0  0
  3  6  1  0  0  0  0
  7  8  1  0  0  0  0
  7 12  1  0  0  0  0
  8  9  1  0  0  0  0
  8 11  1  0  0  0  0
  8 13  1  0  0  0  0
  9 10  2  0  0  0  0
  9 17  1  0  0  0  0
 11 14  1  0  0  0  0
 11 15  1  0  0  0  0
 11 16  1  0  0  0  0
 17 18  1  0  0  0  0
 17 23  1  0  0  0  0
 18 19  1  0  0  0  0
 18 21  1  0  0  0  0
 18 24  1  0  0  0  0
 19 20  2  0  0  0  0
 19 31  1  0  0  0  0
 21 22  1  0  0  0  0
 21 25  1  0  0  0  0
 21 26  1  0  0  0  0
 22 23  1  0  0  0  0
 22 27  1  0  0  0  0
 22 28  1  0  0  0  0
 23 29  1  0  0  0  0
 23 30  1  0  0  0  0
 31 32  1  0  0  0  0
 31 36  1  0  0  0  0
 32 33  1  0  0  0  0
 32 35  1  0  0  0  0
 32 37  1  0  0  0  0
 33 34  2  0  0  0  0
 33 41  1  0  0  0  0
 35 38  1  0  0  0  0
 35 39  1  0  0  0  0
 35 40  1  0  0  0  0
 41 42  1  0  0  0  0
 41 43  1  0  0  0  0
 42 44  1  0  0  0  0
 42 45  1  0  0  0  0
 42 46  1  0  0  0  0
M  END
$$$$

  -OEChem-05262217223D

 46 46  0     1  0  0  0  0  0999 V2000
   -0.8482    0.2245    2.4297 C   0  0  0  0  0  0  0  0  0  0  0  0
   -1.7640   -0.5710    2.3057 O   0  0  0  0  0  0  0  0  0  0  0  0
    0.3417   -0.1677    3.2862 C   0  0  0  0  0  0  0  0  0  0  0  0
    0.5102    0.5834    4.0614 H   0  0  0  0  0  0  0  0  0  0  0  0
    0.1593   -1.1321    3.7677 H   0  0  0  0  0  0  0  0  0  0  0  0
    1.2386   -0.2531    2.6684 H   0  0  0  0  0  0  0  0  0  0  0  0
   -0.8326    1.4773    1.8354 N   0  0  0  0  0  0  0  0  0  0  0  0
   -1.9110    2.2089    1.1301 C   0  0  2  0  0  0  0  0  0  0  0  0
   -1.5065    2.9071   -0.2035 C   0  0  0  0  0  0  0  0  0  0  0  0
   -1.8412    4.0850   -0.2822 O   0  0  0  0  0  0  0  0  0  0  0  0
   -3.2160    1.4306    0.8939 C   0  0  0  0  0  0  0  0  0  0  0  0
   -0.0185    2.0345    2.0768 H   0  0  0  0  0  0  0  0  0  0  0  0
   -2.1872    3.0212    1.8110 H   0  0  0  0  0  0  0  0  0  0  0  0
   -3.6643    1.1408    1.8488 H   0  0  0  0  0  0  0  0  0  0  0  0
   -3.9392    2.0548    0.3596 H   0  0  0  0  0  0  0  0  0  0  0  0
   -3.0441    0.5289    0.3043 H   0  0  0  0  0  0  0  0  0  0  0  0
   -0.6466    2.4430   -1.2160 N   0  0  0  0  0  0  0  0  0  0  0  0
    0.0974    1.1920   -1.2836 C   0  0  2  0  0  0  0  0  0  0  0  0
   -0.6686   -0.1407   -1.2375 C   0  0  0  0  0  0  0  0  0  0  0  0
   -1.7841   -0.2431   -1.7279 O   0  0  0  0  0  0  0  0  0  0  0  0
    1.3601    1.4454   -0.4597 C   0  0  0  0  0  0  0  0  0  0  0  0
    1.4234    2.9832   -0.5410 C   0  0  0  0  0  0  0  0  0  0  0  0
    0.4527    3.3562   -1.6644 C   0  0  0  0  0  0  0  0  0  0  0  0
    0.4549    1.0996   -2.3164 H   0  0  0  0  0  0  0  0  0  0  0  0
    2.2309    0.9791   -0.9325 H   0  0  0  0  0  0  0  0  0  0  0  0
    1.2970    1.0888    0.5684 H   0  0  0  0  0  0  0  0  0  0  0  0
    1.1156    3.4385    0.4063 H   0  0  0  0  0  0  0  0  0  0  0  0
    2.4365    3.3293   -0.7678 H   0  0  0  0  0  0  0  0  0  0  0  0
    0.1866    4.4186   -1.6418 H   0  0  0  0  0  0  0  0  0  0  0  0
    0.8372    3.1322   -2.6666 H   0  0  0  0  0  0  0  0  0  0  0  0
   -0.0637   -1.2544   -0.6903 N   0  0  0  0  0  0  0  0  0  0  0  0
   -0.8008   -2.4496   -0.2677 C   0  0  2  0  0  0  0  0  0  0  0  0
   -0.1862   -3.0394    1.0195 C   0  0  0  0  0  0  0  0  0  0  0  0
    0.9608   -2.7362    1.3434 O   0  0  0  0  0  0  0  0  0  0  0  0
   -0.7682   -3.4729   -1.4055 C   0  0  0  0  0  0  0  0  0  0  0  0
    0.8377   -1.1153   -0.2375 H   0  0  0  0  0  0  0  0  0  0  0  0
   -1.8409   -2.1861   -0.0446 H   0  0  0  0  0  0  0  0  0  0  0  0
    0.2641   -3.7505   -1.6412 H   0  0  0  0  0  0  0  0  0  0  0  0
   -1.3175   -4.3764   -1.1242 H   0  0  0  0  0  0  0  0  0  0  0  0
   -1.2309   -3.0533   -2.3046 H   0  0  0  0  0  0  0  0  0  0  0  0
   -0.9242   -3.8871    1.8237 N   0  0  0  0  0  0  0  0  0  0  0  0
   -0.4535   -4.3654    3.1171 C   0  0  0  0  0  0  0  0  0  0  0  0
   -1.9172   -3.9528    1.6170 H   0  0  0  0  0  0  0  0  0  0  0  0
    0.5327   -4.8316    3.0205 H   0  0  0  0  0  0  0  0  0  0  0  0
   -0.3843   -3.5370    3.8291 H   0  0  0  0  0  0  0  0  0  0  0  0
   -1.1462   -5.1114    3.5184 H   0  0  0  0  0  0  0  0  0  0  0  0
  1  2  2  0  0  0  0
  1  3  1  0  0  0  0
  1  7  1  0  0  0  0
  3  4  1  0  0  0  0
  3  5  1  0  0  0  0
  3  6  1  0  0  0  0
  7  8  1  0  0  0  0
  7 12  1  0  0  0  0
  8  9  1  0  0  0  0
  8 11  1  0  0  0  0
  8 13  1  0  0  0  0
  9 10  2  0  0  0  0
  9 17  1  0  0  0  0
 11 14  1  0  0  0  0
 11 15  1  0  0  0  0
 11 16  1  0  0  0  0
 17 18  1  0  0  0  0
 17 23  1  0  0  0  0
 18 19  1  0  0  0  0
 18 21  1  0  0  0  0
 18 24  1  0  0  0  0
 19 20  2  0  0  0  0
 19 31  1  0  0  0  0
 21 22  1  0  0  0  0
 21 25  1  0  0  0  0
 21 26  1  0  0  0  0
 22 23  1  0  0  0  0
 22 27  1  0  0  0  0
 22 28  1  0  0  0  0
 23 29  1  0  0  0  0
 23 30  1  0  0  0  0
 31 32  1  0  0  0  0
 31 36  1  0  0  0  0
 32 33  1  0  0  0  0
 32 35  1  0  0  0  0
 32 37  1  0  0  0  0
 33 34  2  0  0  0  0
 33 41  1  0  0  0  0
 35 38  1  0  0  0  0
 35 39  1  0  0  0  0
 35 40  1  0  0  0  0
 41 42  1  0  0  0  0
 41 43  1  0  0  0  0
 42 44  1  0  0  0  0
 42 45  1  0  0  0  0
 42 46  1  0  0  0  0
M  END
$$$$

  -OEChem-05262217223D

 46 46  0     1  0  0  0  0  0999 V2000
   -0.7909    1.2103    3.5558 C   0  0  0  0  0  0  0  0  0  0  0  0
   -0.5991    0.0067    3.4775 O   0  0  0  0  0  0  0  0  0  0  0  0
   -0.6098    1.9272    4.8799 C   0  0  0  0  0  0  0  0  0  0  0  0
   -1.5542    2.3817    5.1894 H   0  0  0  0  0  0  0  0  0  0  0  0
   -0.2886    1.2206    5.6503 H   0  0  0  0  0  0  0  0  0  0  0  0
    0.1473    2.7087    4.7807 H   0  0  0  0  0  0  0  0  0  0  0  0
   -1.1817    1.9196    2.4405 N   0  0  0  0  0  0  0  0  0  0  0  0
   -1.4140    1.3297    1.1165 C   0  0  2  0  0  0  0  0  0  0  0  0
   -1.3152    2.3871   -0.0147 C   0  0  0  0  0  0  0  0  0  0  0  0
   -1.7170    3.5182    0.2531 O   0  0  0  0  0  0  0  0  0  0  0  0
   -2.8127    0.7013    1.1119 C   0  0  0  0  0  0  0  0  0  0  0  0
   -1.3630    2.9170    2.5440 H   0  0  0  0  0  0  0  0  0  0  0  0
   -0.6758    0.5454    0.9464 H   0  0  0  0  0  0  0  0  0  0  0  0
   -3.5720    1.4585    1.3326 H   0  0  0  0  0  0  0  0  0  0  0  0
   -3.0373    0.2649    0.1347 H   0  0  0  0  0  0  0  0  0  0  0  0
   -2.8788   -0.0899    1.8647 H   0  0  0  0  0  0  0  0  0  0  0  0
   -0.5604    2.2236   -1.1866 N   0  0  0  0  0  0  0  0  0  0  0  0
    0.2442    1.0525   -1.5159 C   0  0  2  0  0  0  0  0  0  0  0  0
   -0.4643   -0.3138   -1.6047 C   0  0  0  0  0  0  0  0  0  0  0  0
   -1.6248   -0.3975   -1.9801 O   0  0  0  0  0  0  0  0  0  0  0  0
    1.5155    1.2364   -0.6768 C   0  0  0  0  0  0  0  0  0  0  0  0
    1.4930    2.7616   -0.4617 C   0  0  0  0  0  0  0  0  0  0  0  0
    0.4684    3.2710   -1.4786 C   0  0  0  0  0  0  0  0  0  0  0  0
    0.5574    1.1540   -2.5620 H   0  0  0  0  0  0  0  0  0  0  0  0
    2.4036    0.9116   -1.2288 H   0  0  0  0  0  0  0  0  0  0  0  0
    1.4792    0.7046    0.2798 H   0  0  0  0  0  0  0  0  0  0  0  0
    1.1994    3.0111    0.5640 H   0  0  0  0  0  0  0  0  0  0  0  0
    2.4773    3.2042   -0.6434 H   0  0  0  0  0  0  0  0  0  0  0  0
    0.1337    4.2897   -1.2536 H   0  0  0  0  0  0  0  0  0  0  0  0
    0.8366    3.2578   -2.5114 H   0  0  0  0  0  0  0  0  0  0  0  0
    0.1269   -1.4073   -1.0047 N   0  0  0  0  0  0  0  0  0  0  0  0
   -0.6235   -2.5017   -0.3800 C   0  0  2  0  0  0  0  0  0  0  0  0
    0.0576   -2.8995    0.9476 C   0  0  0  0  0  0  0  0  0  0  0  0
    1.2560   -2.6767    1.0961 O   0  0  0  0  0  0  0  0  0  0  0  0
   -0.6730   -3.6840   -1.3489 C   0  0  0  0  0  0  0  0  0  0  0  0
    1.0564   -1.2572   -0.6107 H   0  0  0  0  0  0  0  0  0  0  0  0
   -1.6446   -2.1800   -0.1492 H   0  0  0  0  0  0  0  0  0  0  0  0
    0.3392   -4.0229   -1.5918 H   0  0  0  0  0  0  0  0  0  0  0  0
   -1.2236   -4.5190   -0.9053 H   0  0  0  0  0  0  0  0  0  0  0  0
   -1.1753   -3.3911   -2.2762 H   0  0  0  0  0  0  0  0  0  0  0  0
   -0.6724   -3.4534    1.9818 N   0  0  0  0  0  0  0  0  0  0  0  0
   -0.1179   -3.6328    3.3185 C   0  0  0  0  0  0  0  0  0  0  0  0
   -1.6815   -3.4763    1.8728 H   0  0  0  0  0  0  0  0  0  0  0  0
    0.7582   -4.2889    3.2871 H   0  0  0  0  0  0  0  0  0  0  0  0
    0.1800   -2.6679    3.7425 H   0  0  0  0  0  0  0  0  0  0  0  0
   -0.8629   -4.0857    3.9794 H   0  0  0  0  0  0  0  0  0  0  0  0
  1  2  2  0  0  0  0
  1  3  1  0  0  0  0
  1  7  1  0  0  0  0
  3  4  1  0  0  0  0
  3  5  1  0  0  0  0
  3  6  1  0  0  0  0
  7  8  1  0  0  0  0
  7 12  1  0  0  0  0
  8  9  1  0  0  0  0
  8 11  1  0  0  0  0
  8 13  1  0  0  0  0
  9 10  2  0  0  0  0
  9 17  1  0  0  0  0
 11 14  1  0  0  0  0
 11 15  1  0  0  0  0
 11 16  1  0  0  0  0
 17 18  1  0  0  0  0
 17 23  1  0  0  0  0
 18 19  1  0  0  0  0
 18 21  1  0  0  0  0
 18 24  1  0  0  0  0
 19 20  2  0  0  0  0
 19 31  1  0  0  0  0
 21 22  1  0  0  0  0
 21 25  1  0  0  0  0
 21 26  1  0  0  0  0
 22 23  1  0  0  0  0
 22 27  1  0  0  0  0
 22 28  1  0  0  0  0
 23 29  1  0  0  0  0
 23 30  1  0  0  0  0
 31 32  1  0  0  0  0
 31 36  1  0  0  0  0
 32 33  1  0  0  0  0
 32 35  1  0  0  0  0
 32 37  1  0  0  0  0
 33 34  2  0  0  0  0
 33 41  1  0  0  0  0
 35 38  1  0  0  0  0
 35 39  1  0  0  0  0
 35 40  1  0  0  0  0
 41 42  1  0  0  0  0
 41 43  1  0  0  0  0
 42 44  1  0  0  0  0
 42 45  1  0  0  0  0
 42 46  1  0  0  0  0
M  END
$$$$

  -OEChem-05262217223D

 46 46  0     1  0  0  0  0  0999 V2000
   -1.4413    1.3368    3.7948 C   0  0  0  0  0  0  0  0  0  0  0  0
   -1.6244    0.1297    3.7240 O   0  0  0  0  0  0  0  0  0  0  0  0
   -1.1645    1.9910    5.1350 C   0  0  0  0  0  0  0  0  0  0  0  0
   -1.8389    2.8376    5.2847 H   0  0  0  0  0  0  0  0  0  0  0  0
   -1.3180    1.2727    5.9451 H   0  0  0  0  0  0  0  0  0  0  0  0
   -0.1319    2.3470    5.1690 H   0  0  0  0  0  0  0  0  0  0  0  0
   -1.4674    2.1013    2.6483 N   0  0  0  0  0  0  0  0  0  0  0  0
   -1.7143    1.5687    1.3035 C   0  0  2  0  0  0  0  0  0  0  0  0
   -1.1161    2.4696    0.1927 C   0  0  0  0  0  0  0  0  0  0  0  0
   -1.1282    3.6819    0.3976 O   0  0  0  0  0  0  0  0  0  0  0  0
   -3.2294    1.4451    1.1080 C   0  0  0  0  0  0  0  0  0  0  0  0
   -1.3195    3.1063    2.7327 H   0  0  0  0  0  0  0  0  0  0  0  0
   -1.2693    0.5767    1.2361 H   0  0  0  0  0  0  0  0  0  0  0  0
   -3.7096    2.4232    1.2137 H   0  0  0  0  0  0  0  0  0  0  0  0
   -3.4586    1.0554    0.1122 H   0  0  0  0  0  0  0  0  0  0  0  0
   -3.6575    0.7645    1.8505 H   0  0  0  0  0  0  0  0  0  0  0  0
   -0.3279    1.9883   -0.8633 N   0  0  0  0  0  0  0  0  0  0  0  0
    0.0489    0.5929   -1.0705 C   0  0  2  0  0  0  0  0  0  0  0  0
   -1.1018   -0.4328   -1.2432 C   0  0  0  0  0  0  0  0  0  0  0  0
   -2.0962   -0.1169   -1.8732 O   0  0  0  0  0  0  0  0  0  0  0  0
    1.2204    0.4298   -0.0918 C   0  0  0  0  0  0  0  0  0  0  0  0
    1.6930    1.8863    0.0659 C   0  0  0  0  0  0  0  0  0  0  0  0
    1.0085    2.6235   -1.0809 C   0  0  0  0  0  0  0  0  0  0  0  0
    0.4949    0.5135   -2.0690 H   0  0  0  0  0  0  0  0  0  0  0  0
    2.0015   -0.2195   -0.5006 H   0  0  0  0  0  0  0  0  0  0  0  0
    0.9077    0.0499    0.8812 H   0  0  0  0  0  0  0  0  0  0  0  0
    1.4014    2.2954    1.0395 H   0  0  0  0  0  0  0  0  0  0  0  0
    2.7818    1.9617   -0.0154 H   0  0  0  0  0  0  0  0  0  0  0  0
    1.0089    3.7096   -0.9354 H   0  0  0  0  0  0  0  0  0  0  0  0
    1.4501    2.4114   -2.0618 H   0  0  0  0  0  0  0  0  0  0  0  0
   -1.3652   -1.5349   -0.4549 N   0  0  0  0  0  0  0  0  0  0  0  0
   -0.4207   -2.6466   -0.2228 C   0  0  2  0  0  0  0  0  0  0  0  0
    0.5009   -2.5065    1.0138 C   0  0  0  0  0  0  0  0  0  0  0  0
    1.6987   -2.7463    0.9272 O   0  0  0  0  0  0  0  0  0  0  0  0
    0.3520   -2.9681   -1.5164 C   0  0  0  0  0  0  0  0  0  0  0  0
   -2.3290   -1.8257   -0.6084 H   0  0  0  0  0  0  0  0  0  0  0  0
   -1.0336   -3.5274   -0.0078 H   0  0  0  0  0  0  0  0  0  0  0  0
    1.0652   -2.1747   -1.7582 H   0  0  0  0  0  0  0  0  0  0  0  0
    0.9108   -3.9023   -1.3987 H   0  0  0  0  0  0  0  0  0  0  0  0
   -0.3388   -3.0878   -2.3568 H   0  0  0  0  0  0  0  0  0  0  0  0
   -0.0062   -2.1107    2.2381 N   0  0  0  0  0  0  0  0  0  0  0  0
    0.8183   -1.9528    3.4308 C   0  0  0  0  0  0  0  0  0  0  0  0
   -0.9659   -1.7678    2.2732 H   0  0  0  0  0  0  0  0  0  0  0  0
    1.4440   -2.8375    3.5899 H   0  0  0  0  0  0  0  0  0  0  0  0
    1.4649   -1.0748    3.3353 H   0  0  0  0  0  0  0  0  0  0  0  0
    0.1839   -1.8244    4.3133 H   0  0  0  0  0  0  0  0  0  0  0  0
  1  2  2  0  0  0  0
  1  3  1  0  0  0  0
  1  7  1  0  0  0  0
  3  4  1  0  0  0  0
  3  5  1  0  0  0  0
  3  6  1  0  0  0  0
  7  8  1  0  0  0  0
  7 12  1  0  0  0  0
  8  9  1  0  0  0  0
  8 11  1  0  0  0  0
  8 13  1  0  0  0  0
  9 10  2  0  0  0  0
  9 17  1  0  0  0  0
 11 14  1  0  0  0  0
 11 15  1  0  0  0  0
 11 16  1  0  0  0  0
 17 18  1  0  0  0  0
 17 23  1  0  0  0  0
 18 19  1  0  0  0  0
 18 21  1  0  0  0  0
 18 24  1  0  0  0  0
 19 20  2  0  0  0  0
 19 31  1  0  0  0  0
 21 22  1  0  0  0  0
 21 25  1  0  0  0  0
 21 26  1  0  0  0  0
 22 23  1  0  0  0  0
 22 27  1  0  0  0  0
 22 28  1  0  0  0  0
 23 29  1  0  0  0  0
 23 30  1  0  0  0  0
 31 32  1  0  0  0  0
 31 36  1  0  0  0  0
 32 33  1  0  0  0  0
 32 35  1  0  0  0  0
 32 37  1  0  0  0  0
 33 34  2  0  0  0  0
 33 41  1  0  0  0  0
 35 38  1  0  0  0  0
 35 39  1  0  0  0  0
 35 40  1  0  0  0  0
 41 42  1  0  0  0  0
 41 43  1  0  0  0  0
 42 44  1  0  0  0  0
 42 45  1  0  0  0  0
 42 46  1  0  0  0  0
M  END
$$$$

  -OEChem-05262217223D

 46 46  0     1  0  0  0  0  0999 V2000
   -1.6464    1.4900    3.9674 C   0  0  0  0  0  0  0  0  0  0  0  0
   -1.6847    0.2677    3.9345 O   0  0  0  0  0  0  0  0  0  0  0  0
   -1.5707    2.2186    5.2956 C   0  0  0  0  0  0  0  0  0  0  0  0
   -1.5311    1.5005    6.1194 H   0  0  0  0  0  0  0  0  0  0  0  0
   -2.4511    2.8535    5.4231 H   0  0  0  0  0  0  0  0  0  0  0  0
   -0.6735    2.8415    5.3285 H   0  0  0  0  0  0  0  0  0  0  0  0
   -1.6628    2.2064    2.7901 N   0  0  0  0  0  0  0  0  0  0  0  0
   -1.7491    1.6028    1.4555 C   0  0  2  0  0  0  0  0  0  0  0  0
   -1.2620    2.5525    0.3330 C   0  0  0  0  0  0  0  0  0  0  0  0
   -1.3949    3.7585    0.5313 O   0  0  0  0  0  0  0  0  0  0  0  0
   -3.2134    1.2267    1.1965 C   0  0  0  0  0  0  0  0  0  0  0  0
   -1.6479    3.2244    2.8425 H   0  0  0  0  0  0  0  0  0  0  0  0
   -1.1355    0.7031    1.4459 H   0  0  0  0  0  0  0  0  0  0  0  0
   -3.8536    2.1109    1.2798 H   0  0  0  0  0  0  0  0  0  0  0  0
   -3.3353    0.8101    0.1928 H   0  0  0  0  0  0  0  0  0  0  0  0
   -3.5531    0.4810    1.9214 H   0  0  0  0  0  0  0  0  0  0  0  0
   -0.4515    2.1454   -0.7365 N   0  0  0  0  0  0  0  0  0  0  0  0
    0.0609    0.7960   -0.9596 C   0  0  2  0  0  0  0  0  0  0  0  0
   -0.9669   -0.3537   -1.1169 C   0  0  0  0  0  0  0  0  0  0  0  0
   -1.9003   -0.2057   -1.8867 O   0  0  0  0  0  0  0  0  0  0  0  0
    1.2762    0.7539   -0.0248 C   0  0  0  0  0  0  0  0  0  0  0  0
    1.6002    2.2526    0.1193 C   0  0  0  0  0  0  0  0  0  0  0  0
    0.8031    2.9157   -0.9996 C   0  0  0  0  0  0  0  0  0  0  0  0
    0.4827    0.7692   -1.9713 H   0  0  0  0  0  0  0  0  0  0  0  0
    2.1022    0.1837   -0.4634 H   0  0  0  0  0  0  0  0  0  0  0  0
    1.0423    0.3498    0.9585 H   0  0  0  0  0  0  0  0  0  0  0  0
    1.3006    2.6299    1.1034 H   0  0  0  0  0  0  0  0  0  0  0  0
    2.6719    2.4402    0.0010 H   0  0  0  0  0  0  0  0  0  0  0  0
    0.6965    3.9957   -0.8496 H   0  0  0  0  0  0  0  0  0  0  0  0
    1.2280    2.7518   -1.9968 H   0  0  0  0  0  0  0  0  0  0  0  0
   -1.2754   -1.3227   -0.1832 N   0  0  0  0  0  0  0  0  0  0  0  0
   -0.3579   -2.4262    0.1715 C   0  0  2  0  0  0  0  0  0  0  0  0
    0.6381   -2.1476    1.3249 C   0  0  0  0  0  0  0  0  0  0  0  0
    1.8395   -2.3277    1.1676 O   0  0  0  0  0  0  0  0  0  0  0  0
    0.3385   -2.9577   -1.0966 C   0  0  0  0  0  0  0  0  0  0  0  0
   -2.2308   -1.6311   -0.3547 H   0  0  0  0  0  0  0  0  0  0  0  0
   -0.9876   -3.2415    0.5413 H   0  0  0  0  0  0  0  0  0  0  0  0
    1.0579   -2.2297   -1.4847 H   0  0  0  0  0  0  0  0  0  0  0  0
    0.8796   -3.8825   -0.8707 H   0  0  0  0  0  0  0  0  0  0  0  0
   -0.3976   -3.1744   -1.8772 H   0  0  0  0  0  0  0  0  0  0  0  0
    0.2004   -1.6831    2.5522 N   0  0  0  0  0  0  0  0  0  0  0  0
    1.0997   -1.3918    3.6630 C   0  0  0  0  0  0  0  0  0  0  0  0
   -0.7778   -1.4071    2.6479 H   0  0  0  0  0  0  0  0  0  0  0  0
    1.7084   -0.5095    3.4406 H   0  0  0  0  0  0  0  0  0  0  0  0
    1.7636   -2.2409    3.8571 H   0  0  0  0  0  0  0  0  0  0  0  0
    0.5238   -1.1971    4.5729 H   0  0  0  0  0  0  0  0  0  0  0  0
  1  2  2  0  0  0  0
  1  3  1  0  0  0  0
  1  7  1  0  0  0  0
  3  4  1  0  0  0  0
  3  5  1  0  0  0  0
  3  6  1  0  0  0  0
  7  8  1  0  0  0  0
  7 12  1  0  0  0  0
  8  9  1  0  0  0  0
  8 11  1  0  0  0  0
  8 13  1  0  0  0  0
  9 10  2  0  0  0  0
  9 17  1  0  0  0  0
 11 14  1  0  0  0  0
 11 15  1  0  0  0  0
 11 16  1  0  0  0  0
 17 18  1  0  0  0  0
 17 23  1  0  0  0  0
 18 19  1  0  0  0  0
 18 21  1  0  0  0  0
 18 24  1  0  0  0  0
 19 20  2  0  0  0  0
 19 31  1  0  0  0  0
 21 22  1  0  0  0  0
 21 25  1  0  0  0  0
 21 26  1  0  0  0  0
 22 23  1  0  0  0  0
 22 27  1  0  0  0  0
 22 28  1  0  0  0  0
 23 29  1  0  0  0  0
 23 30  1  0  0  0  0
 31 32  1  0  0  0  0
 31 36  1  0  0  0  0
 32 33  1  0  0  0  0
 32 35  1  0  0  0  0
 32 37  1  0  0  0  0
 33 34  2  0  0  0  0
 33 41  1  0  0  0  0
 35 38  1  0  0  0  0
 35 39  1  0  0  0  0
 35 40  1  0  0  0  0
 41 42  1  0  0  0  0
 41 43  1  0  0  0  0
 42 44  1  0  0  0  0
 42 45  1  0  0  0  0
 42 46  1  0  0  0  0
M  END
$$$$

  -OEChem-05262217223D

 46 46  0     1  0  0  0  0  0999 V2000
   -2.3238    2.0163    3.5338 C   0  0  0  0  0  0  0  0  0  0  0  0
   -2.1754    0.8226    3.7603 O   0  0  0  0  0  0  0  0  0  0  0  0
   -2.6037    2.9817    4.6694 C   0  0  0  0  0  0  0  0  0  0  0  0
   -3.5234    3.5371    4.4693 H   0  0  0  0  0  0  0  0  0  0  0  0
   -2.7207    2.4357    5.6098 H   0  0  0  0  0  0  0  0  0  0  0  0
   -1.7756    3.6876    4.7708 H   0  0  0  0  0  0  0  0  0  0  0  0
   -2.2226    2.4850    2.2416 N   0  0  0  0  0  0  0  0  0  0  0  0
   -1.9472    1.6371    1.0763 C   0  0  2  0  0  0  0  0  0  0  0  0
   -1.3537    2.4191   -0.1193 C   0  0  0  0  0  0  0  0  0  0  0  0
   -1.6764    3.6010   -0.2210 O   0  0  0  0  0  0  0  0  0  0  0  0
   -3.2645    0.9799    0.6430 C   0  0  0  0  0  0  0  0  0  0  0  0
   -2.3435    3.4834    2.0761 H   0  0  0  0  0  0  0  0  0  0  0  0
   -1.2316    0.8743    1.3765 H   0  0  0  0  0  0  0  0  0  0  0  0
   -3.6434    0.3228    1.4316 H   0  0  0  0  0  0  0  0  0  0  0  0
   -3.1201    0.3845   -0.2634 H   0  0  0  0  0  0  0  0  0  0  0  0
   -4.0198    1.7439    0.4322 H   0  0  0  0  0  0  0  0  0  0  0  0
   -0.2943    1.9524   -0.9104 N   0  0  0  0  0  0  0  0  0  0  0  0
    0.4247    0.6883   -0.7526 C   0  0  2  0  0  0  0  0  0  0  0  0
   -0.3654   -0.6450   -0.8411 C   0  0  0  0  0  0  0  0  0  0  0  0
   -0.9744   -0.8811   -1.8708 O   0  0  0  0  0  0  0  0  0  0  0  0
    1.4226    1.0253    0.3614 C   0  0  0  0  0  0  0  0  0  0  0  0
    1.5131    2.5573    0.2373 C   0  0  0  0  0  0  0  0  0  0  0  0
    0.8768    2.8604   -1.1154 C   0  0  0  0  0  0  0  0  0  0  0  0
    1.0447    0.5558   -1.6479 H   0  0  0  0  0  0  0  0  0  0  0  0
    2.3861    0.5301    0.2014 H   0  0  0  0  0  0  0  0  0  0  0  0
    1.0512    0.7759    1.3530 H   0  0  0  0  0  0  0  0  0  0  0  0
    0.9753    3.0535    1.0528 H   0  0  0  0  0  0  0  0  0  0  0  0
    2.5530    2.8974    0.2657 H   0  0  0  0  0  0  0  0  0  0  0  0
    0.6043    3.9166   -1.2184 H   0  0  0  0  0  0  0  0  0  0  0  0
    1.5103    2.5893   -1.9682 H   0  0  0  0  0  0  0  0  0  0  0  0
   -0.9618   -1.3233    0.2019 N   0  0  0  0  0  0  0  0  0  0  0  0
   -0.2169   -2.2655    1.0610 C   0  0  2  0  0  0  0  0  0  0  0  0
    0.6879   -1.6337    2.1459 C   0  0  0  0  0  0  0  0  0  0  0  0
    1.9071   -1.7333    2.0794 O   0  0  0  0  0  0  0  0  0  0  0  0
    0.5455   -3.2684    0.1750 C   0  0  0  0  0  0  0  0  0  0  0  0
   -1.8226   -1.7299   -0.1589 H   0  0  0  0  0  0  0  0  0  0  0  0
   -0.9632   -2.8417    1.6166 H   0  0  0  0  0  0  0  0  0  0  0  0
    1.3565   -2.7753   -0.3709 H   0  0  0  0  0  0  0  0  0  0  0  0
    0.9826   -4.0605    0.7915 H   0  0  0  0  0  0  0  0  0  0  0  0
   -0.1312   -3.7310   -0.5503 H   0  0  0  0  0  0  0  0  0  0  0  0
    0.1419   -0.9305    3.2048 N   0  0  0  0  0  0  0  0  0  0  0  0
    0.9448   -0.2981    4.2447 C   0  0  0  0  0  0  0  0  0  0  0  0
   -0.8607   -0.7273    3.1893 H   0  0  0  0  0  0  0  0  0  0  0  0
    1.5411    0.5192    3.8270 H   0  0  0  0  0  0  0  0  0  0  0  0
    1.6185   -1.0268    4.7075 H   0  0  0  0  0  0  0  0  0  0  0  0
    0.2945    0.1102    5.0244 H   0  0  0  0  0  0  0  0  0  0  0  0
  1  2  2  0  0  0  0
  1  3  1  0  0  0  0
  1  7  1  0  0  0  0
  3  4  1  0  0  0  0
  3  5  1  0  0  0  0
  3  6  1  0  0  0  0
  7  8  1  0  0  0  0
  7 12  1  0  0  0  0
  8  9  1  0  0  0  0
  8 11  1  0  0  0  0
  8 13  1  0  0  0  0
  9 10  2  0  0  0  0
  9 17  1  0  0  0  0
 11 14  1  0  0  0  0
 11 15  1  0  0  0  0
 11 16  1  0  0  0  0
 17 18  1  0  0  0  0
 17 23  1  0  0  0  0
 18 19  1  0  0  0  0
 18 21  1  0  0  0  0
 18 24  1  0  0  0  0
 19 20  2  0  0  0  0
 19 31  1  0  0  0  0
 21 22  1  0  0  0  0
 21 25  1  0  0  0  0
 21 26  1  0  0  0  0
 22 23  1  0  0  0  0
 22 27  1  0  0  0  0
 22 28  1  0  0  0  0
 23 29  1  0  0  0  0
 23 30  1  0  0  0  0
 31 32  1  0  0  0  0
 31 36  1  0  0  0  0
 32 33  1  0  0  0  0
 32 35  1  0  0  0  0
 32 37  1  0  0  0  0
 33 34  2  0  0  0  0
 33 41  1  0  0  0  0
 35 38  1  0  0  0  0
 35 39  1  0  0  0  0
 35 40  1  0  0  0  0
 41 42  1  0  0  0  0
 41 43  1  0  0  0  0
 42 44  1  0  0  0  0
 42 45  1  0  0  0  0
 42 46  1  0  0  0  0
M  END
$$$$

  -OEChem-05262217223D

 46 46  0     1  0  0  0  0  0999 V2000
   -2.1712    2.5192    3.5696 C   0  0  0  0  0  0  0  0  0  0  0  0
   -2.1731    1.3215    3.8227 O   0  0  0  0  0  0  0  0  0  0  0  0
   -2.3126    3.5349    4.6875 C   0  0  0  0  0  0  0  0  0  0  0  0
   -3.1298    4.2254    4.4642 H   0  0  0  0  0  0  0  0  0  0  0  0
   -2.5290    3.0288    5.6326 H   0  0  0  0  0  0  0  0  0  0  0  0
   -1.3851    4.1028    4.7955 H   0  0  0  0  0  0  0  0  0  0  0  0
   -2.0258    2.9433    2.2658 N   0  0  0  0  0  0  0  0  0  0  0  0
   -1.8787    2.0437    1.1152 C   0  0  2  0  0  0  0  0  0  0  0  0
   -1.1603    2.7075   -0.0825 C   0  0  0  0  0  0  0  0  0  0  0  0
   -1.3443    3.9140   -0.2292 O   0  0  0  0  0  0  0  0  0  0  0  0
   -3.2821    1.5970    0.6857 C   0  0  0  0  0  0  0  0  0  0  0  0
   -2.0232    3.9456    2.0792 H   0  0  0  0  0  0  0  0  0  0  0  0
   -1.2884    1.1868    1.4327 H   0  0  0  0  0  0  0  0  0  0  0  0
   -3.9094    2.4679    0.4702 H   0  0  0  0  0  0  0  0  0  0  0  0
   -3.2343    0.9814   -0.2170 H   0  0  0  0  0  0  0  0  0  0  0  0
   -3.7565    1.0125    1.4797 H   0  0  0  0  0  0  0  0  0  0  0  0
   -0.1479    2.0977   -0.8390 N   0  0  0  0  0  0  0  0  0  0  0  0
    0.4226    0.7600   -0.6584 C   0  0  2  0  0  0  0  0  0  0  0  0
   -0.4868   -0.4985   -0.7484 C   0  0  0  0  0  0  0  0  0  0  0  0
   -0.8907   -0.8274   -1.8517 O   0  0  0  0  0  0  0  0  0  0  0  0
    1.4278    0.9932    0.4746 C   0  0  0  0  0  0  0  0  0  0  0  0
    1.6930    2.5039    0.3448 C   0  0  0  0  0  0  0  0  0  0  0  0
    1.1241    2.8641   -1.0240 C   0  0  0  0  0  0  0  0  0  0  0  0
    1.0456    0.5582   -1.5389 H   0  0  0  0  0  0  0  0  0  0  0  0
    2.3329    0.3922    0.3368 H   0  0  0  0  0  0  0  0  0  0  0  0
    1.0096    0.7904    1.4581 H   0  0  0  0  0  0  0  0  0  0  0  0
    1.1962    3.0627    1.1459 H   0  0  0  0  0  0  0  0  0  0  0  0
    2.7635    2.7255    0.3947 H   0  0  0  0  0  0  0  0  0  0  0  0
    0.9783    3.9435   -1.1411 H   0  0  0  0  0  0  0  0  0  0  0  0
    1.7413    2.5148   -1.8602 H   0  0  0  0  0  0  0  0  0  0  0  0
   -1.3823   -0.9418    0.2011 N   0  0  0  0  0  0  0  0  0  0  0  0
   -1.0073   -1.9282    1.2321 C   0  0  2  0  0  0  0  0  0  0  0  0
    0.1131   -1.5096    2.2122 C   0  0  0  0  0  0  0  0  0  0  0  0
    1.2746   -1.8450    2.0141 O   0  0  0  0  0  0  0  0  0  0  0  0
   -0.6788   -3.2591    0.5356 C   0  0  0  0  0  0  0  0  0  0  0  0
   -2.2169   -1.2329   -0.3039 H   0  0  0  0  0  0  0  0  0  0  0  0
   -1.8920   -2.0988    1.8536 H   0  0  0  0  0  0  0  0  0  0  0  0
    0.2113   -3.1631   -0.0950 H   0  0  0  0  0  0  0  0  0  0  0  0
   -0.4887   -4.0387    1.2801 H   0  0  0  0  0  0  0  0  0  0  0  0
   -1.5152   -3.5783   -0.0936 H   0  0  0  0  0  0  0  0  0  0  0  0
   -0.1728   -0.7399    3.3250 N   0  0  0  0  0  0  0  0  0  0  0  0
    0.8365   -0.3116    4.2848 C   0  0  0  0  0  0  0  0  0  0  0  0
   -1.1099   -0.3342    3.4056 H   0  0  0  0  0  0  0  0  0  0  0  0
    1.3259   -1.1792    4.7395 H   0  0  0  0  0  0  0  0  0  0  0  0
    1.5965    0.3069    3.7970 H   0  0  0  0  0  0  0  0  0  0  0  0
    0.3692    0.2772    5.0802 H   0  0  0  0  0  0  0  0  0  0  0  0
  1  2  2  0  0  0  0
  1  3  1  0  0  0  0
  1  7  1  0  0  0  0
  3  4  1  0  0  0  0
  3  5  1  0  0  0  0
  3  6  1  0  0  0  0
  7  8  1  0  0  0  0
  7 12  1  0  0  0  0
  8  9  1  0  0  0  0
  8 11  1  0  0  0  0
  8 13  1  0  0  0  0
  9 10  2  0  0  0  0
  9 17  1  0  0  0  0
 11 14  1  0  0  0  0
 11 15  1  0  0  0  0
 11 16  1  0  0  0  0
 17 18  1  0  0  0  0
 17 23  1  0  0  0  0
 18 19  1  0  0  0  0
 18 21  1  0  0  0  0
 18 24  1  0  0  0  0
 19 20  2  0  0  0  0
 19 31  1  0  0  0  0
 21 22  1  0  0  0  0
 21 25  1  0  0  0  0
 21 26  1  0  0  0  0
 22 23  1  0  0  0  0
 22 27  1  0  0  0  0
 22 28  1  0  0  0  0
 23 29  1  0  0  0  0
 23 30  1  0  0  0  0
 31 32  1  0  0  0  0
 31 36  1  0  0  0  0
 32 33  1  0  0  0  0
 32 35  1  0  0  0  0
 32 37  1  0  0  0  0
 33 34  2  0  0  0  0
 33 41  1  0  0  0  0
 35 38  1  0  0  0  0
 35 39  1  0  0  0  0
 35 40  1  0  0  0  0
 41 42  1  0  0  0  0
 41 43  1  0  0  0  0
 42 44  1  0  0  0  0
 42 45  1  0  0  0  0
 42 46  1  0  0  0  0
M  END
$$$$

  -OEChem-05262217223D

 46 46  0     1  0  0  0  0  0999 V2000
    0.1677    2.0413    3.7181 C   0  0  0  0  0  0  0  0  0  0  0  0
    0.0045    0.8317    3.6240 O   0  0  0  0  0  0  0  0  0  0  0  0
    0.9873    2.6109    4.8598 C   0  0  0  0  0  0  0  0  0  0  0  0
    0.3927    3.3359    5.4211 H   0  0  0  0  0  0  0  0  0  0  0  0
    1.2991    1.8114    5.5378 H   0  0  0  0  0  0  0  0  0  0  0  0
    1.8780    3.1076    4.4673 H   0  0  0  0  0  0  0  0  0  0  0  0
   -0.3837    2.8908    2.7817 N   0  0  0  0  0  0  0  0  0  0  0  0
   -1.0430    2.4447    1.5469 C   0  0  2  0  0  0  0  0  0  0  0  0
   -0.4199    3.0829    0.2838 C   0  0  0  0  0  0  0  0  0  0  0  0
   -0.1101    4.2688    0.3752 O   0  0  0  0  0  0  0  0  0  0  0  0
   -2.5257    2.8156    1.6541 C   0  0  0  0  0  0  0  0  0  0  0  0
   -0.1212    3.8742    2.8317 H   0  0  0  0  0  0  0  0  0  0  0  0
   -0.9371    1.3681    1.4673 H   0  0  0  0  0  0  0  0  0  0  0  0
   -2.6413    3.8970    1.7795 H   0  0  0  0  0  0  0  0  0  0  0  0
   -3.0655    2.5156    0.7514 H   0  0  0  0  0  0  0  0  0  0  0  0
   -2.9824    2.3155    2.5130 H   0  0  0  0  0  0  0  0  0  0  0  0
    0.0188    2.3778   -0.8494 N   0  0  0  0  0  0  0  0  0  0  0  0
   -0.0076    0.9309   -1.0907 C   0  0  2  0  0  0  0  0  0  0  0  0
   -1.3410    0.1289   -1.0854 C   0  0  0  0  0  0  0  0  0  0  0  0
   -1.8646   -0.1698   -2.1454 O   0  0  0  0  0  0  0  0  0  0  0  0
    1.2172    0.4434   -0.3094 C   0  0  0  0  0  0  0  0  0  0  0  0
    2.0676    1.7252   -0.2510 C   0  0  0  0  0  0  0  0  0  0  0  0
    1.4259    2.6449   -1.2880 C   0  0  0  0  0  0  0  0  0  0  0  0
    0.2592    0.7905   -2.1461 H   0  0  0  0  0  0  0  0  0  0  0  0
    1.7261   -0.3704   -0.8364 H   0  0  0  0  0  0  0  0  0  0  0  0
    0.9718    0.1177    0.7021 H   0  0  0  0  0  0  0  0  0  0  0  0
    2.0444    2.1703    0.7500 H   0  0  0  0  0  0  0  0  0  0  0  0
    3.1129    1.5212   -0.5025 H   0  0  0  0  0  0  0  0  0  0  0  0
    1.7404    3.6873   -1.1662 H   0  0  0  0  0  0  0  0  0  0  0  0
    1.6377    2.3521   -2.3233 H   0  0  0  0  0  0  0  0  0  0  0  0
   -2.2148    0.0197   -0.0295 N   0  0  0  0  0  0  0  0  0  0  0  0
   -2.3041   -1.2196    0.7656 C   0  0  2  0  0  0  0  0  0  0  0  0
   -3.1678   -0.9826    2.0252 C   0  0  0  0  0  0  0  0  0  0  0  0
   -4.3750   -1.1671    1.9564 O   0  0  0  0  0  0  0  0  0  0  0  0
   -0.9476   -1.8220    1.1605 C   0  0  0  0  0  0  0  0  0  0  0  0
   -3.1421    0.2602   -0.3797 H   0  0  0  0  0  0  0  0  0  0  0  0
   -2.8235   -1.9682    0.1563 H   0  0  0  0  0  0  0  0  0  0  0  0
   -0.3930   -1.1475    1.8158 H   0  0  0  0  0  0  0  0  0  0  0  0
   -1.1035   -2.7618    1.6998 H   0  0  0  0  0  0  0  0  0  0  0  0
   -0.3443   -2.0406    0.2748 H   0  0  0  0  0  0  0  0  0  0  0  0
   -2.6336   -0.4726    3.1964 N   0  0  0  0  0  0  0  0  0  0  0  0
   -3.4314   -0.1708    4.3769 C   0  0  0  0  0  0  0  0  0  0  0  0
   -1.6416   -0.2203    3.2044 H   0  0  0  0  0  0  0  0  0  0  0  0
   -2.7874    0.2037    5.1784 H   0  0  0  0  0  0  0  0  0  0  0  0
   -4.1816    0.5932    4.1487 H   0  0  0  0  0  0  0  0  0  0  0  0
   -3.9417   -1.0708    4.7355 H   0  0  0  0  0  0  0  0  0  0  0  0
  1  2  2  0  0  0  0
  1  3  1  0  0  0  0
  1  7  1  0  0  0  0
  3  4  1  0  0  0  0
  3  5  1  0  0  0  0
  3  6  1  0  0  0  0
  7  8  1  0  0  0  0
  7 12  1  0  0  0  0
  8  9  1  0  0  0  0
  8 11  1  0  0  0  0
  8 13  1  0  0  0  0
  9 10  2  0  0  0  0
  9 17  1  0  0  0  0
 11 14  1  0  0  0  0
 11 15  1  0  0  0  0
 11 16  1  0  0  0  0
 17 18  1  0  0  0  0
 17 23  1  0  0  0  0
 18 19  1  0  0  0  0
 18 21  1  0  0  0  0
 18 24  1  0  0  0  0
 19 20  2  0  0  0  0
 19 31  1  0  0  0  0
 21 22  1  0  0  0  0
 21 25  1  0  0  0  0
 21 26  1  0  0  0  0
 22 23  1  0  0  0  0
 22 27  1  0  0  0  0
 22 28  1  0  0  0  0
 23 29  1  0  0  0  0
 23 30  1  0  0  0  0
 31 32  1  0  0  0  0
 31 36  1  0  0  0  0
 32 33  1  0  0  0  0
 32 35  1  0  0  0  0
 32 37  1  0  0  0  0
 33 34  2  0  0  0  0
 33 41  1  0  0  0  0
 35 38  1  0  0  0  0
 35 39  1  0  0  0  0
 35 40  1  0  0  0  0
 41 42  1  0  0  0  0
 41 43  1  0  0  0  0
 42 44  1  0  0  0  0
 42 45  1  0  0  0  0
 42 46  1  0  0  0  0
M  END
$$$$

  -OEChem-05262217223D

 46 46  0     1  0  0  0  0  0999 V2000
   -0.4397    1.8021    3.3949 C   0  0  0  0  0  0  0  0  0  0  0  0
   -1.5243    1.5460    3.8839 O   0  0  0  0  0  0  0  0  0  0  0  0
    0.8158    1.2654    4.0554 C   0  0  0  0  0  0  0  0  0  0  0  0
    1.5356    2.0736    4.2063 H   0  0  0  0  0  0  0  0  0  0  0  0
    0.5743    0.8274    5.0285 H   0  0  0  0  0  0  0  0  0  0  0  0
    1.2689    0.4949    3.4261 H   0  0  0  0  0  0  0  0  0  0  0  0
   -0.3239    2.4694    2.1893 N   0  0  0  0  0  0  0  0  0  0  0  0
   -1.3314    3.2784    1.4699 C   0  0  2  0  0  0  0  0  0  0  0  0
   -1.0255    3.4444   -0.0428 C   0  0  0  0  0  0  0  0  0  0  0  0
   -1.3450    4.5313   -0.5087 O   0  0  0  0  0  0  0  0  0  0  0  0
   -2.8081    2.8483    1.5813 C   0  0  0  0  0  0  0  0  0  0  0  0
    0.6397    2.6417    1.9146 H   0  0  0  0  0  0  0  0  0  0  0  0
   -1.2748    4.2811    1.9081 H   0  0  0  0  0  0  0  0  0  0  0  0
   -3.1522    2.8697    2.6182 H   0  0  0  0  0  0  0  0  0  0  0  0
   -3.4393    3.5480    1.0231 H   0  0  0  0  0  0  0  0  0  0  0  0
   -2.9777    1.8550    1.1662 H   0  0  0  0  0  0  0  0  0  0  0  0
   -0.3086    2.5816   -0.8943 N   0  0  0  0  0  0  0  0  0  0  0  0
    0.3670    1.2966   -0.6675 C   0  0  2  0  0  0  0  0  0  0  0  0
   -0.3388    0.0160   -0.1530 C   0  0  0  0  0  0  0  0  0  0  0  0
    0.0589   -1.0558   -0.5883 O   0  0  0  0  0  0  0  0  0  0  0  0
    1.7338    1.6797   -0.1041 C   0  0  0  0  0  0  0  0  0  0  0  0
    1.8587    3.1163   -0.6453 C   0  0  0  0  0  0  0  0  0  0  0  0
    0.7706    3.2254   -1.7162 C   0  0  0  0  0  0  0  0  0  0  0  0
    0.5782    0.9173   -1.6767 H   0  0  0  0  0  0  0  0  0  0  0  0
    2.5120    1.0249   -0.5111 H   0  0  0  0  0  0  0  0  0  0  0  0
    1.7875    1.6365    0.9850 H   0  0  0  0  0  0  0  0  0  0  0  0
    1.6990    3.8516    0.1506 H   0  0  0  0  0  0  0  0  0  0  0  0
    2.8498    3.2946   -1.0746 H   0  0  0  0  0  0  0  0  0  0  0  0
    0.5709    4.2681   -1.9869 H   0  0  0  0  0  0  0  0  0  0  0  0
    1.0126    2.6895   -2.6421 H   0  0  0  0  0  0  0  0  0  0  0  0
   -1.2385   -0.0186    0.8977 N   0  0  0  0  0  0  0  0  0  0  0  0
   -1.9008   -1.2486    1.3777 C   0  0  2  0  0  0  0  0  0  0  0  0
   -3.3525   -1.0272    1.8572 C   0  0  0  0  0  0  0  0  0  0  0  0
   -4.2728   -1.6143    1.3060 O   0  0  0  0  0  0  0  0  0  0  0  0
   -1.0508   -1.8630    2.4941 C   0  0  0  0  0  0  0  0  0  0  0  0
   -1.5036    0.8714    1.3142 H   0  0  0  0  0  0  0  0  0  0  0  0
   -1.9614   -1.9720    0.5562 H   0  0  0  0  0  0  0  0  0  0  0  0
   -0.9782   -1.1854    3.3490 H   0  0  0  0  0  0  0  0  0  0  0  0
   -1.4985   -2.8026    2.8331 H   0  0  0  0  0  0  0  0  0  0  0  0
   -0.0416   -2.0758    2.1281 H   0  0  0  0  0  0  0  0  0  0  0  0
   -3.6437   -0.1575    2.8925 N   0  0  0  0  0  0  0  0  0  0  0  0
   -4.9951    0.1027    3.3702 C   0  0  0  0  0  0  0  0  0  0  0  0
   -2.8659    0.3362    3.3370 H   0  0  0  0  0  0  0  0  0  0  0  0
   -4.9686    0.8098    4.2051 H   0  0  0  0  0  0  0  0  0  0  0  0
   -5.6082    0.5332    2.5717 H   0  0  0  0  0  0  0  0  0  0  0  0
   -5.4649   -0.8240    3.7163 H   0  0  0  0  0  0  0  0  0  0  0  0
  1  2  2  0  0  0  0
  1  3  1  0  0  0  0
  1  7  1  0  0  0  0
  3  4  1  0  0  0  0
  3  5  1  0  0  0  0
  3  6  1  0  0  0  0
  7  8  1  0  0  0  0
  7 12  1  0  0  0  0
  8  9  1  0  0  0  0
  8 11  1  0  0  0  0
  8 13  1  0  0  0  0
  9 10  2  0  0  0  0
  9 17  1  0  0  0  0
 11 14  1  0  0  0  0
 11 15  1  0  0  0  0
 11 16  1  0  0  0  0
 17 18  1  0  0  0  0
 17 23  1  0  0  0  0
 18 19  1  0  0  0  0
 18 21  1  0  0  0  0
 18 24  1  0  0  0  0
 19 20  2  0  0  0  0
 19 31  1  0  0  0  0
 21 22  1  0  0  0  0
 21 25  1  0  0  0  0
 21 26  1  0  0  0  0
 22 23  1  0  0  0  0
 22 27  1  0  0  0  0
 22 28  1  0  0  0  0
 23 29  1  0  0  0  0
 23 30  1  0  0  0  0
 31 32  1  0  0  0  0
 31 36  1  0  0  0  0
 32 33  1  0  0  0  0
 32 35  1  0  0  0  0
 32 37  1  0  0  0  0
 33 34  2  0  0  0  0
 33 41  1  0  0  0  0
 35 38  1  0  0  0  0
 35 39  1  0  0  0  0
 35 40  1  0  0  0  0
 41 42  1  0  0  0  0
 41 43  1  0  0  0  0
 42 44  1  0  0  0  0
 42 45  1  0  0  0  0
 42 46  1  0  0  0  0
M  END
$$$$

  -OEChem-05262217223D

 46 46  0     1  0  0  0  0  0999 V2000
   -0.6685    1.8724    3.3062 C   0  0  0  0  0  0  0  0  0  0  0  0
   -1.7998    1.7472    3.7407 O   0  0  0  0  0  0  0  0  0  0  0  0
    0.4724    1.1571    4.0047 C   0  0  0  0  0  0  0  0  0  0  0  0
    0.1210    0.7023    4.9355 H   0  0  0  0  0  0  0  0  0  0  0  0
    0.8710    0.3708    3.3581 H   0  0  0  0  0  0  0  0  0  0  0  0
    1.2704    1.8649    4.2417 H   0  0  0  0  0  0  0  0  0  0  0  0
   -0.3962    2.5668    2.1406 N   0  0  0  0  0  0  0  0  0  0  0  0
   -1.2622    3.4728    1.3547 C   0  0  2  0  0  0  0  0  0  0  0  0
   -0.9526    3.4891   -0.1680 C   0  0  0  0  0  0  0  0  0  0  0  0
   -1.2134    4.5474   -0.7271 O   0  0  0  0  0  0  0  0  0  0  0  0
   -2.7868    3.2964    1.5042 C   0  0  0  0  0  0  0  0  0  0  0  0
    0.5946    2.6176    1.9215 H   0  0  0  0  0  0  0  0  0  0  0  0
   -1.0400    4.4816    1.7198 H   0  0  0  0  0  0  0  0  0  0  0  0
   -3.1023    3.4626    2.5376 H   0  0  0  0  0  0  0  0  0  0  0  0
   -3.3117    4.0342    0.8883 H   0  0  0  0  0  0  0  0  0  0  0  0
   -3.1131    2.3072    1.1834 H   0  0  0  0  0  0  0  0  0  0  0  0
   -0.2963    2.5182   -0.9492 N   0  0  0  0  0  0  0  0  0  0  0  0
    0.2991    1.2168   -0.6194 C   0  0  2  0  0  0  0  0  0  0  0  0
   -0.4804    0.0302   -0.0036 C   0  0  0  0  0  0  0  0  0  0  0  0
   -0.0206   -1.0895   -0.1784 O   0  0  0  0  0  0  0  0  0  0  0  0
    1.6864    1.5639   -0.0815 C   0  0  0  0  0  0  0  0  0  0  0  0
    1.8981    2.9424   -0.7337 C   0  0  0  0  0  0  0  0  0  0  0  0
    0.8193    3.0276   -1.8152 C   0  0  0  0  0  0  0  0  0  0  0  0
    0.4825    0.7404   -1.5918 H   0  0  0  0  0  0  0  0  0  0  0  0
    2.4251    0.8334   -0.4293 H   0  0  0  0  0  0  0  0  0  0  0  0
    1.7351    1.6079    1.0078 H   0  0  0  0  0  0  0  0  0  0  0  0
    1.7807    3.7468    0.0006 H   0  0  0  0  0  0  0  0  0  0  0  0
    2.8986    3.0275   -1.1696 H   0  0  0  0  0  0  0  0  0  0  0  0
    0.6827    4.0542   -2.1728 H   0  0  0  0  0  0  0  0  0  0  0  0
    1.0302    2.4031   -2.6916 H   0  0  0  0  0  0  0  0  0  0  0  0
   -1.5763    0.1542    0.8295 N   0  0  0  0  0  0  0  0  0  0  0  0
   -2.3868   -0.9861    1.3011 C   0  0  2  0  0  0  0  0  0  0  0  0
   -3.8329   -0.5820    1.6591 C   0  0  0  0  0  0  0  0  0  0  0  0
   -4.7687   -1.0052    0.9952 O   0  0  0  0  0  0  0  0  0  0  0  0
   -1.7099   -1.6525    2.5064 C   0  0  0  0  0  0  0  0  0  0  0  0
   -1.9165    1.0949    1.0078 H   0  0  0  0  0  0  0  0  0  0  0  0
   -2.4585   -1.7262    0.4956 H   0  0  0  0  0  0  0  0  0  0  0  0
   -1.6331   -0.9589    3.3476 H   0  0  0  0  0  0  0  0  0  0  0  0
   -2.2913   -2.5221    2.8282 H   0  0  0  0  0  0  0  0  0  0  0  0
   -0.7045   -1.9936    2.2428 H   0  0  0  0  0  0  0  0  0  0  0  0
   -4.0878    0.3079    2.6863 N   0  0  0  0  0  0  0  0  0  0  0  0
   -5.4187    0.7962    3.0189 C   0  0  0  0  0  0  0  0  0  0  0  0
   -3.2843    0.6988    3.1858 H   0  0  0  0  0  0  0  0  0  0  0  0
   -5.3702    1.4473    3.8969 H   0  0  0  0  0  0  0  0  0  0  0  0
   -5.8361    1.3688    2.1842 H   0  0  0  0  0  0  0  0  0  0  0  0
   -6.0895   -0.0392    3.2454 H   0  0  0  0  0  0  0  0  0  0  0  0
  1  2  2  0  0  0  0
  1  3  1  0  0  0  0
  1  7  1  0  0  0  0
  3  4  1  0  0  0  0
  3  5  1  0  0  0  0
  3  6  1  0  0  0  0
  7  8  1  0  0  0  0
  7 12  1  0  0  0  0
  8  9  1  0  0  0  0
  8 11  1  0  0  0  0
  8 13  1  0  0  0  0
  9 10  2  0  0  0  0
  9 17  1  0  0  0  0
 11 14  1  0  0  0  0
 11 15  1  0  0  0  0
 11 16  1  0  0  0  0
 17 18  1  0  0  0  0
 17 23  1  0  0  0  0
 18 19  1  0  0  0  0
 18 21  1  0  0  0  0
 18 24  1  0  0  0  0
 19 20  2  0  0  0  0
 19 31  1  0  0  0  0
 21 22  1  0  0  0  0
 21 25  1  0  0  0  0
 21 26  1  0  0  0  0
 22 23  1  0  0  0  0
 22 27  1  0  0  0  0
 22 28  1  0  0  0  0
 23 29  1  0  0  0  0
 23 30  1  0  0  0  0
 31 32  1  0  0  0  0
 31 36  1  0  0  0  0
 32 33  1  0  0  0  0
 32 35  1  0  0  0  0
 32 37  1  0  0  0  0
 33 34  2  0  0  0  0
 33 41  1  0  0  0  0
 35 38  1  0  0  0  0
 35 39  1  0  0  0  0
 35 40  1  0  0  0  0
 41 42  1  0  0  0  0
 41 43  1  0  0  0  0
 42 44  1  0  0  0  0
 42 45  1  0  0  0  0
 42 46  1  0  0  0  0
M  END
$$$$

  -OEChem-05262217223D

 46 46  0     1  0  0  0  0  0999 V2000
    0.7918    0.5910    2.9232 C   0  0  0  0  0  0  0  0  0  0  0  0
    0.3828   -0.5085    3.2437 O   0  0  0  0  0  0  0  0  0  0  0  0
    2.1881    1.0467    3.3153 C   0  0  0  0  0  0  0  0  0  0  0  0
    2.1301    1.9431    3.9377 H   0  0  0  0  0  0  0  0  0  0  0  0
    2.6938    0.2600    3.8822 H   0  0  0  0  0  0  0  0  0  0  0  0
    2.7757    1.2668    2.4208 H   0  0  0  0  0  0  0  0  0  0  0  0
   -0.0835    1.3391    2.1720 N   0  0  0  0  0  0  0  0  0  0  0  0
    0.1150    2.7217    1.7204 C   0  0  2  0  0  0  0  0  0  0  0  0
    0.1196    3.0077    0.1889 C   0  0  0  0  0  0  0  0  0  0  0  0
    0.5606    4.1095   -0.1163 O   0  0  0  0  0  0  0  0  0  0  0  0
   -0.9337    3.5867    2.4298 C   0  0  0  0  0  0  0  0  0  0  0  0
   -0.9947    0.9013    2.0365 H   0  0  0  0  0  0  0  0  0  0  0  0
    1.0941    3.0638    2.0681 H   0  0  0  0  0  0  0  0  0  0  0  0
   -0.8937    3.4258    3.5115 H   0  0  0  0  0  0  0  0  0  0  0  0
   -0.7455    4.6478    2.2361 H   0  0  0  0  0  0  0  0  0  0  0  0
   -1.9411    3.3514    2.0822 H   0  0  0  0  0  0  0  0  0  0  0  0
   -0.1985    2.1573   -0.8884 N   0  0  0  0  0  0  0  0  0  0  0  0
   -0.6263    0.7567   -0.9015 C   0  0  2  0  0  0  0  0  0  0  0  0
   -1.9128    0.2905   -0.1917 C   0  0  0  0  0  0  0  0  0  0  0  0
   -2.2572   -0.8752   -0.3220 O   0  0  0  0  0  0  0  0  0  0  0  0
    0.6695   -0.0324   -0.7201 C   0  0  0  0  0  0  0  0  0  0  0  0
    1.6955    0.9973   -1.2239 C   0  0  0  0  0  0  0  0  0  0  0  0
    0.8533    2.0473   -1.9514 C   0  0  0  0  0  0  0  0  0  0  0  0
   -0.9530    0.5494   -1.9284 H   0  0  0  0  0  0  0  0  0  0  0  0
    0.6610   -0.9395   -1.3338 H   0  0  0  0  0  0  0  0  0  0  0  0
    0.8547   -0.3190    0.3171 H   0  0  0  0  0  0  0  0  0  0  0  0
    2.2480    1.4403   -0.3882 H   0  0  0  0  0  0  0  0  0  0  0  0
    2.4217    0.5375   -1.9012 H   0  0  0  0  0  0  0  0  0  0  0  0
    1.4146    2.9722   -2.1235 H   0  0  0  0  0  0  0  0  0  0  0  0
    0.4755    1.7062   -2.9227 H   0  0  0  0  0  0  0  0  0  0  0  0
   -2.5779    1.0717    0.7338 N   0  0  0  0  0  0  0  0  0  0  0  0
   -3.7780    0.6416    1.4668 C   0  0  2  0  0  0  0  0  0  0  0  0
   -4.7982    1.7889    1.6215 C   0  0  0  0  0  0  0  0  0  0  0  0
   -4.4543    2.9458    1.4070 O   0  0  0  0  0  0  0  0  0  0  0  0
   -3.3316    0.1238    2.8373 C   0  0  0  0  0  0  0  0  0  0  0  0
   -2.4404    2.0797    0.6500 H   0  0  0  0  0  0  0  0  0  0  0  0
   -4.2837   -0.1651    0.9252 H   0  0  0  0  0  0  0  0  0  0  0  0
   -2.8483    0.9206    3.4116 H   0  0  0  0  0  0  0  0  0  0  0  0
   -4.1901   -0.2434    3.4075 H   0  0  0  0  0  0  0  0  0  0  0  0
   -2.6210   -0.7011    2.7183 H   0  0  0  0  0  0  0  0  0  0  0  0
   -6.1035    1.5247    1.9922 N   0  0  0  0  0  0  0  0  0  0  0  0
   -7.1224    2.5591    2.1241 C   0  0  0  0  0  0  0  0  0  0  0  0
   -6.3668    0.5534    2.1322 H   0  0  0  0  0  0  0  0  0  0  0  0
   -6.8286    3.2922    2.8824 H   0  0  0  0  0  0  0  0  0  0  0  0
   -7.2690    3.0781    1.1710 H   0  0  0  0  0  0  0  0  0  0  0  0
   -8.0756    2.1145    2.4252 H   0  0  0  0  0  0  0  0  0  0  0  0
  1  2  2  0  0  0  0
  1  3  1  0  0  0  0
  1  7  1  0  0  0  0
  3  4  1  0  0  0  0
  3  5  1  0  0  0  0
  3  6  1  0  0  0  0
  7  8  1  0  0  0  0
  7 12  1  0  0  0  0
  8  9  1  0  0  0  0
  8 11  1  0  0  0  0
  8 13  1  0  0  0  0
  9 10  2  0  0  0  0
  9 17  1  0  0  0  0
 11 14  1  0  0  0  0
 11 15  1  0  0  0  0
 11 16  1  0  0  0  0
 17 18  1  0  0  0  0
 17 23  1  0  0  0  0
 18 19  1  0  0  0  0
 18 21  1  0  0  0  0
 18 24  1  0  0  0  0
 19 20  2  0  0  0  0
 19 31  1  0  0  0  0
 21 22  1  0  0  0  0
 21 25  1  0  0  0  0
 21 26  1  0  0  0  0
 22 23  1  0  0  0  0
 22 27  1  0  0  0  0
 22 28  1  0  0  0  0
 23 29  1  0  0  0  0
 23 30  1  0  0  0  0
 31 32  1  0  0  0  0
 31 36  1  0  0  0  0
 32 33  1  0  0  0  0
 32 35  1  0  0  0  0
 32 37  1  0  0  0  0
 33 34  2  0  0  0  0
 33 41  1  0  0  0  0
 35 38  1  0  0  0  0
 35 39  1  0  0  0  0
 35 40  1  0  0  0  0
 41 42  1  0  0  0  0
 41 43  1  0  0  0  0
 42 44  1  0  0  0  0
 42 45  1  0  0  0  0
 42 46  1  0  0  0  0
M  END
$$$$

  -OEChem-05262217223D

 46 46  0     1  0  0  0  0  0999 V2000
    1.4061    1.5140    3.2241 C   0  0  0  0  0  0  0  0  0  0  0  0
    1.1582    0.3422    2.9936 O   0  0  0  0  0  0  0  0  0  0  0  0
    2.6582    1.8841    3.9963 C   0  0  0  0  0  0  0  0  0  0  0  0
    2.3925    2.4663    4.8821 H   0  0  0  0  0  0  0  0  0  0  0  0
    3.1857    0.9805    4.3148 H   0  0  0  0  0  0  0  0  0  0  0  0
    3.3243    2.4773    3.3650 H   0  0  0  0  0  0  0  0  0  0  0  0
    0.5692    2.5094    2.7660 N   0  0  0  0  0  0  0  0  0  0  0  0
   -0.5715    2.2988    1.8621 C   0  0  2  0  0  0  0  0  0  0  0  0
   -0.3014    2.9200    0.4667 C   0  0  0  0  0  0  0  0  0  0  0  0
    0.1321    4.0693    0.4531 O   0  0  0  0  0  0  0  0  0  0  0  0
   -1.7734    2.9746    2.5320 C   0  0  0  0  0  0  0  0  0  0  0  0
    0.9056    3.4655    2.8604 H   0  0  0  0  0  0  0  0  0  0  0  0
   -0.7858    1.2335    1.7521 H   0  0  0  0  0  0  0  0  0  0  0  0
   -1.9944    2.4899    3.4878 H   0  0  0  0  0  0  0  0  0  0  0  0
   -1.5651    4.0331    2.7178 H   0  0  0  0  0  0  0  0  0  0  0  0
   -2.6614    2.9120    1.8994 H   0  0  0  0  0  0  0  0  0  0  0  0
   -0.3221    2.2264   -0.7552 N   0  0  0  0  0  0  0  0  0  0  0  0
   -0.5947    0.8036   -0.9563 C   0  0  2  0  0  0  0  0  0  0  0  0
   -1.9390    0.1960   -0.5129 C   0  0  0  0  0  0  0  0  0  0  0  0
   -2.1134   -1.0102   -0.6143 O   0  0  0  0  0  0  0  0  0  0  0  0
    0.7073    0.1163   -0.5483 C   0  0  0  0  0  0  0  0  0  0  0  0
    1.7106    1.2670   -0.7431 C   0  0  0  0  0  0  0  0  0  0  0  0
    0.9370    2.3014   -1.5646 C   0  0  0  0  0  0  0  0  0  0  0  0
   -0.6933    0.6506   -2.0379 H   0  0  0  0  0  0  0  0  0  0  0  0
    0.9231   -0.7367   -1.1996 H   0  0  0  0  0  0  0  0  0  0  0  0
    0.6862   -0.2310    0.4888 H   0  0  0  0  0  0  0  0  0  0  0  0
    2.0343    1.6762    0.2198 H   0  0  0  0  0  0  0  0  0  0  0  0
    2.6027    0.9287   -1.2791 H   0  0  0  0  0  0  0  0  0  0  0  0
    1.4174    3.2858   -1.5422 H   0  0  0  0  0  0  0  0  0  0  0  0
    0.8105    2.0144   -2.6155 H   0  0  0  0  0  0  0  0  0  0  0  0
   -2.9214    0.9637    0.0793 N   0  0  0  0  0  0  0  0  0  0  0  0
   -4.2187    0.4509    0.5381 C   0  0  2  0  0  0  0  0  0  0  0  0
   -5.2848    1.5666    0.5761 C   0  0  0  0  0  0  0  0  0  0  0  0
   -4.9525    2.7386    0.4357 O   0  0  0  0  0  0  0  0  0  0  0  0
   -4.0371   -0.1656    1.9307 C   0  0  0  0  0  0  0  0  0  0  0  0
   -2.8370    1.9766   -0.0133 H   0  0  0  0  0  0  0  0  0  0  0  0
   -4.5734   -0.3189   -0.1555 H   0  0  0  0  0  0  0  0  0  0  0  0
   -3.7012    0.5920    2.6450 H   0  0  0  0  0  0  0  0  0  0  0  0
   -4.9796   -0.5892    2.2899 H   0  0  0  0  0  0  0  0  0  0  0  0
   -3.2923   -0.9674    1.8997 H   0  0  0  0  0  0  0  0  0  0  0  0
   -6.6196    1.2600    0.7642 N   0  0  0  0  0  0  0  0  0  0  0  0
   -7.6725    2.2676    0.8083 C   0  0  0  0  0  0  0  0  0  0  0  0
   -6.8692    0.2804    0.8652 H   0  0  0  0  0  0  0  0  0  0  0  0
   -7.4853    2.9832    1.6159 H   0  0  0  0  0  0  0  0  0  0  0  0
   -7.7212    2.8121   -0.1406 H   0  0  0  0  0  0  0  0  0  0  0  0
   -8.6426    1.7935    0.9858 H   0  0  0  0  0  0  0  0  0  0  0  0
  1  2  2  0  0  0  0
  1  3  1  0  0  0  0
  1  7  1  0  0  0  0
  3  4  1  0  0  0  0
  3  5  1  0  0  0  0
  3  6  1  0  0  0  0
  7  8  1  0  0  0  0
  7 12  1  0  0  0  0
  8  9  1  0  0  0  0
  8 11  1  0  0  0  0
  8 13  1  0  0  0  0
  9 10  2  0  0  0  0
  9 17  1  0  0  0  0
 11 14  1  0  0  0  0
 11 15  1  0  0  0  0
 11 16  1  0  0  0  0
 17 18  1  0  0  0  0
 17 23  1  0  0  0  0
 18 19  1  0  0  0  0
 18 21  1  0  0  0  0
 18 24  1  0  0  0  0
 19 20  2  0  0  0  0
 19 31  1  0  0  0  0
 21 22  1  0  0  0  0
 21 25  1  0  0  0  0
 21 26  1  0  0  0  0
 22 23  1  0  0  0  0
 22 27  1  0  0  0  0
 22 28  1  0  0  0  0
 23 29  1  0  0  0  0
 23 30  1  0  0  0  0
 31 32  1  0  0  0  0
 31 36  1  0  0  0  0
 32 33  1  0  0  0  0
 32 35  1  0  0  0  0
 32 37  1  0  0  0  0
 33 34  2  0  0  0  0
 33 41  1  0  0  0  0
 35 38  1  0  0  0  0
 35 39  1  0  0  0  0
 35 40  1  0  0  0  0
 41 42  1  0  0  0  0
 41 43  1  0  0  0  0
 42 44  1  0  0  0  0
 42 45  1  0  0  0  0
 42 46  1  0  0  0  0
M  END
$$$$

  -OEChem-05262217223D

 46 46  0     1  0  0  0  0  0999 V2000
    1.3495    1.8803    3.1770 C   0  0  0  0  0  0  0  0  0  0  0  0
    1.3230    0.6874    2.9242 O   0  0  0  0  0  0  0  0  0  0  0  0
    2.5086    2.4609    3.9646 C   0  0  0  0  0  0  0  0  0  0  0  0
    2.1407    2.9123    4.8892 H   0  0  0  0  0  0  0  0  0  0  0  0
    3.2246    1.6739    4.2182 H   0  0  0  0  0  0  0  0  0  0  0  0
    3.0190    3.2242    3.3721 H   0  0  0  0  0  0  0  0  0  0  0  0
    0.3438    2.7122    2.7328 N   0  0  0  0  0  0  0  0  0  0  0  0
   -0.7292    2.3088    1.8110 C   0  0  2  0  0  0  0  0  0  0  0  0
   -0.5103    2.8986    0.3942 C   0  0  0  0  0  0  0  0  0  0  0  0
   -0.1779    4.0797    0.3312 O   0  0  0  0  0  0  0  0  0  0  0  0
   -2.0320    2.8460    2.4134 C   0  0  0  0  0  0  0  0  0  0  0  0
    0.5151    3.7114    2.8212 H   0  0  0  0  0  0  0  0  0  0  0  0
   -0.7980    1.2200    1.7490 H   0  0  0  0  0  0  0  0  0  0  0  0
   -2.2215    2.3749    3.3828 H   0  0  0  0  0  0  0  0  0  0  0  0
   -1.9705    3.9297    2.5576 H   0  0  0  0  0  0  0  0  0  0  0  0
   -2.8808    2.6416    1.7566 H   0  0  0  0  0  0  0  0  0  0  0  0
   -0.4825    2.1589   -0.7987 N   0  0  0  0  0  0  0  0  0  0  0  0
   -0.6472    0.7138   -0.9372 C   0  0  2  0  0  0  0  0  0  0  0  0
   -1.9480    0.0531   -0.4476 C   0  0  0  0  0  0  0  0  0  0  0  0
   -2.0032   -1.1617   -0.3211 O   0  0  0  0  0  0  0  0  0  0  0  0
    0.7047    0.1408   -0.5140 C   0  0  0  0  0  0  0  0  0  0  0  0
    1.6168    1.3548   -0.7661 C   0  0  0  0  0  0  0  0  0  0  0  0
    0.7623    2.2944   -1.6210 C   0  0  0  0  0  0  0  0  0  0  0  0
   -0.7425    0.5025   -2.0091 H   0  0  0  0  0  0  0  0  0  0  0  0
    0.9799   -0.7198   -1.1324 H   0  0  0  0  0  0  0  0  0  0  0  0
    0.7184   -0.1648    0.5362 H   0  0  0  0  0  0  0  0  0  0  0  0
    1.9157    1.8257    0.1763 H   0  0  0  0  0  0  0  0  0  0  0  0
    2.5285    1.0626   -1.2964 H   0  0  0  0  0  0  0  0  0  0  0  0
    1.1667    3.3125   -1.6418 H   0  0  0  0  0  0  0  0  0  0  0  0
    0.6508    1.9563   -2.6583 H   0  0  0  0  0  0  0  0  0  0  0  0
   -3.0681    0.8107   -0.1699 N   0  0  0  0  0  0  0  0  0  0  0  0
   -4.3833    0.2682    0.1980 C   0  0  2  0  0  0  0  0  0  0  0  0
   -5.4973    1.3163   -0.0136 C   0  0  0  0  0  0  0  0  0  0  0  0
   -5.2044    2.4898   -0.2157 O   0  0  0  0  0  0  0  0  0  0  0  0
   -4.3630   -0.1874    1.6635 C   0  0  0  0  0  0  0  0  0  0  0  0
   -3.0325    1.8018   -0.4149 H   0  0  0  0  0  0  0  0  0  0  0  0
   -4.6087   -0.5908   -0.4427 H   0  0  0  0  0  0  0  0  0  0  0  0
   -3.5871   -0.9426    1.8220 H   0  0  0  0  0  0  0  0  0  0  0  0
   -4.1641    0.6591    2.3269 H   0  0  0  0  0  0  0  0  0  0  0  0
   -5.3257   -0.6263    1.9415 H   0  0  0  0  0  0  0  0  0  0  0  0
   -6.8296    0.9468    0.0203 N   0  0  0  0  0  0  0  0  0  0  0  0
   -7.9273    1.8904   -0.1575 C   0  0  0  0  0  0  0  0  0  0  0  0
   -7.0438   -0.0323    0.1859 H   0  0  0  0  0  0  0  0  0  0  0  0
   -7.8967    2.6639    0.6172 H   0  0  0  0  0  0  0  0  0  0  0  0
   -7.8661    2.3723   -1.1390 H   0  0  0  0  0  0  0  0  0  0  0  0
   -8.8876    1.3705   -0.0883 H   0  0  0  0  0  0  0  0  0  0  0  0
  1  2  2  0  0  0  0
  1  3  1  0  0  0  0
  1  7  1  0  0  0  0
  3  4  1  0  0  0  0
  3  5  1  0  0  0  0
  3  6  1  0  0  0  0
  7  8  1  0  0  0  0
  7 12  1  0  0  0  0
  8  9  1  0  0  0  0
  8 11  1  0  0  0  0
  8 13  1  0  0  0  0
  9 10  2  0  0  0  0
  9 17  1  0  0  0  0
 11 14  1  0  0  0  0
 11 15  1  0  0  0  0
 11 16  1  0  0  0  0
 17 18  1  0  0  0  0
 17 23  1  0  0  0  0
 18 19  1  0  0  0  0
 18 21  1  0  0  0  0
 18 24  1  0  0  0  0
 19 20  2  0  0  0  0
 19 31  1  0  0  0  0
 21 22  1  0  0  0  0
 21 25  1  0  0  0  0
 21 26  1  0  0  0  0
 22 23  1  0  0  0  0
 22 27  1  0  0  0  0
 22 28  1  0  0  0  0
 23 29  1  0  0  0  0
 23 30  1  0  0  0  0
 31 32  1  0  0  0  0
 31 36  1  0  0  0  0
 32 33  1  0  0  0  0
 32 35  1  0  0  0  0
 32 37  1  0  0  0  0
 33 34  2  0  0  0  0
 33 41  1  0  0  0  0
 35 38  1  0  0  0  0
 35 39  1  0  0  0  0
 35 40  1  0  0  0  0
 41 42  1  0  0  0  0
 41 43  1  0  0  0  0
 42 44  1  0  0  0  0
 42 45  1  0  0  0  0
 42 46  1  0  0  0  0
M  END
$$$$

  -OEChem-05262217223D

 46 46  0     1  0  0  0  0  0999 V2000
    0.1186   -0.2175    3.5793 C   0  0  0  0  0  0  0  0  0  0  0  0
    0.6990   -0.7832    2.6672 O   0  0  0  0  0  0  0  0  0  0  0  0
    0.7214   -0.2070    4.9711 C   0  0  0  0  0  0  0  0  0  0  0  0
    0.0435   -0.6955    5.6752 H   0  0  0  0  0  0  0  0  0  0  0  0
    1.6761   -0.7404    4.9729 H   0  0  0  0  0  0  0  0  0  0  0  0
    0.8930    0.8223    5.2959 H   0  0  0  0  0  0  0  0  0  0  0  0
   -1.0638    0.4526    3.3468 N   0  0  0  0  0  0  0  0  0  0  0  0
   -1.5968    0.7288    2.0041 C   0  0  2  0  0  0  0  0  0  0  0  0
   -1.2137    2.1552    1.5268 C   0  0  0  0  0  0  0  0  0  0  0  0
   -1.2407    3.0541    2.3632 O   0  0  0  0  0  0  0  0  0  0  0  0
   -3.1151    0.5781    2.1114 C   0  0  0  0  0  0  0  0  0  0  0  0
   -1.3698    1.0739    4.0921 H   0  0  0  0  0  0  0  0  0  0  0  0
   -1.2295   -0.0108    1.2884 H   0  0  0  0  0  0  0  0  0  0  0  0
   -3.5240    1.2970    2.8290 H   0  0  0  0  0  0  0  0  0  0  0  0
   -3.5861    0.7519    1.1441 H   0  0  0  0  0  0  0  0  0  0  0  0
   -3.3717   -0.4327    2.4436 H   0  0  0  0  0  0  0  0  0  0  0  0
   -0.7172    2.4794    0.2557 N   0  0  0  0  0  0  0  0  0  0  0  0
   -0.4735    1.5400   -0.8314 C   0  0  2  0  0  0  0  0  0  0  0  0
   -1.6424    0.6961   -1.3904 C   0  0  0  0  0  0  0  0  0  0  0  0
   -1.4671   -0.4589   -1.7340 O   0  0  0  0  0  0  0  0  0  0  0  0
    0.8494    0.8710   -0.4496 C   0  0  0  0  0  0  0  0  0  0  0  0
    1.4504    1.9408    0.4808 C   0  0  0  0  0  0  0  0  0  0  0  0
    0.6025    3.1869    0.2198 C   0  0  0  0  0  0  0  0  0  0  0  0
   -0.2548    2.1356   -1.7250 H   0  0  0  0  0  0  0  0  0  0  0  0
    1.4717    0.6944   -1.3329 H   0  0  0  0  0  0  0  0  0  0  0  0
    0.7057   -0.0805    0.0715 H   0  0  0  0  0  0  0  0  0  0  0  0
    1.3965    1.6294    1.5291 H   0  0  0  0  0  0  0  0  0  0  0  0
    2.5025    2.1257    0.2435 H   0  0  0  0  0  0  0  0  0  0  0  0
    0.7182    3.9350    1.0118 H   0  0  0  0  0  0  0  0  0  0  0  0
    0.8246    3.6713   -0.7384 H   0  0  0  0  0  0  0  0  0  0  0  0
   -2.9724    1.0578   -1.4352 N   0  0  0  0  0  0  0  0  0  0  0  0
   -3.4781    2.4436   -1.4534 C   0  0  2  0  0  0  0  0  0  0  0  0
   -4.9761    2.5408   -1.0762 C   0  0  0  0  0  0  0  0  0  0  0  0
   -5.5949    3.5802   -1.2540 O   0  0  0  0  0  0  0  0  0  0  0  0
   -3.2212    3.0268   -2.8505 C   0  0  0  0  0  0  0  0  0  0  0  0
   -3.5280    0.3568   -1.9215 H   0  0  0  0  0  0  0  0  0  0  0  0
   -2.9492    3.0536   -0.7179 H   0  0  0  0  0  0  0  0  0  0  0  0
   -3.7792    2.4670   -3.6080 H   0  0  0  0  0  0  0  0  0  0  0  0
   -3.5393    4.0739   -2.8905 H   0  0  0  0  0  0  0  0  0  0  0  0
   -2.1572    2.9871   -3.1004 H   0  0  0  0  0  0  0  0  0  0  0  0
   -5.6421    1.4508   -0.5444 N   0  0  0  0  0  0  0  0  0  0  0  0
   -7.0332    1.4952   -0.1097 C   0  0  0  0  0  0  0  0  0  0  0  0
   -5.0884    0.6234   -0.3436 H   0  0  0  0  0  0  0  0  0  0  0  0
   -7.1537    2.2048    0.7157 H   0  0  0  0  0  0  0  0  0  0  0  0
   -7.6843    1.8019   -0.9354 H   0  0  0  0  0  0  0  0  0  0  0  0
   -7.3551    0.5070    0.2324 H   0  0  0  0  0  0  0  0  0  0  0  0
  1  2  2  0  0  0  0
  1  3  1  0  0  0  0
  1  7  1  0  0  0  0
  3  4  1  0  0  0  0
  3  5  1  0  0  0  0
  3  6  1  0  0  0  0
  7  8  1  0  0  0  0
  7 12  1  0  0  0  0
  8  9  1  0  0  0  0
  8 11  1  0  0  0  0
  8 13  1  0  0  0  0
  9 10  2  0  0  0  0
  9 17  1  0  0  0  0
 11 14  1  0  0  0  0
 11 15  1  0  0  0  0
 11 16  1  0  0  0  0
 17 18  1  0  0  0  0
 17 23  1  0  0  0  0
 18 19  1  0  0  0  0
 18 21  1  0  0  0  0
 18 24  1  0  0  0  0
 19 20  2  0  0  0  0
 19 31  1  0  0  0  0
 21 22  1  0  0  0  0
 21 25  1  0  0  0  0
 21 26  1  0  0  0  0
 22 23  1  0  0  0  0
 22 27  1  0  0  0  0
 22 28  1  0  0  0  0
 23 29  1  0  0  0  0
 23 30  1  0  0  0  0
 31 32  1  0  0  0  0
 31 36  1  0  0  0  0
 32 33  1  0  0  0  0
 32 35  1  0  0  0  0
 32 37  1  0  0  0  0
 33 34  2  0  0  0  0
 33 41  1  0  0  0  0
 35 38  1  0  0  0  0
 35 39  1  0  0  0  0
 35 40  1  0  0  0  0
 41 42  1  0  0  0  0
 41 43  1  0  0  0  0
 42 44  1  0  0  0  0
 42 45  1  0  0  0  0
 42 46  1  0  0  0  0
M  END
$$$$

  -OEChem-05262217223D

 46 46  0     1  0  0  0  0  0999 V2000
    1.1779    1.9922    2.8205 C   0  0  0  0  0  0  0  0  0  0  0  0
    1.5758    0.9813    2.2648 O   0  0  0  0  0  0  0  0  0  0  0  0
    2.1739    2.9866    3.3866 C   0  0  0  0  0  0  0  0  0  0  0  0
    2.0563    3.0561    4.4708 H   0  0  0  0  0  0  0  0  0  0  0  0
    3.1955    2.6672    3.1625 H   0  0  0  0  0  0  0  0  0  0  0  0
    2.0092    3.9724    2.9451 H   0  0  0  0  0  0  0  0  0  0  0  0
   -0.1724    2.2607    2.9059 N   0  0  0  0  0  0  0  0  0  0  0  0
   -1.2018    1.4903    2.1908 C   0  0  2  0  0  0  0  0  0  0  0  0
   -1.5693    2.1556    0.8358 C   0  0  0  0  0  0  0  0  0  0  0  0
   -1.6155    3.3830    0.7917 O   0  0  0  0  0  0  0  0  0  0  0  0
   -2.4128    1.4200    3.1241 C   0  0  0  0  0  0  0  0  0  0  0  0
   -0.4178    3.2080    3.1818 H   0  0  0  0  0  0  0  0  0  0  0  0
   -0.8525    0.4699    2.0177 H   0  0  0  0  0  0  0  0  0  0  0  0
   -2.8321    2.4178    3.2887 H   0  0  0  0  0  0  0  0  0  0  0  0
   -3.1893    0.7802    2.7008 H   0  0  0  0  0  0  0  0  0  0  0  0
   -2.1195    0.9997    4.0912 H   0  0  0  0  0  0  0  0  0  0  0  0
   -1.8102    1.4799   -0.3685 N   0  0  0  0  0  0  0  0  0  0  0  0
   -1.7542    0.0364   -0.5533 C   0  0  2  0  0  0  0  0  0  0  0  0
   -2.7087   -0.8288    0.2998 C   0  0  0  0  0  0  0  0  0  0  0  0
   -2.2718   -1.7471    0.9723 O   0  0  0  0  0  0  0  0  0  0  0  0
   -0.2546   -0.2719   -0.6191 C   0  0  0  0  0  0  0  0  0  0  0  0
    0.2962    1.0985   -1.0546 C   0  0  0  0  0  0  0  0  0  0  0  0
   -0.9404    1.8656   -1.5244 C   0  0  0  0  0  0  0  0  0  0  0  0
   -2.1281   -0.1973   -1.5557 H   0  0  0  0  0  0  0  0  0  0  0  0
   -0.0464   -1.0547   -1.3557 H   0  0  0  0  0  0  0  0  0  0  0  0
    0.1618   -0.5814    0.3449 H   0  0  0  0  0  0  0  0  0  0  0  0
    0.7974    1.6080   -0.2256 H   0  0  0  0  0  0  0  0  0  0  0  0
    1.0227    0.9923   -1.8661 H   0  0  0  0  0  0  0  0  0  0  0  0
   -0.7553    2.9436   -1.5881 H   0  0  0  0  0  0  0  0  0  0  0  0
   -1.3150    1.5263   -2.4970 H   0  0  0  0  0  0  0  0  0  0  0  0
   -4.0518   -0.5995    0.5348 N   0  0  0  0  0  0  0  0  0  0  0  0
   -4.9808    0.3060   -0.1728 C   0  0  2  0  0  0  0  0  0  0  0  0
   -4.6769    0.5833   -1.6674 C   0  0  0  0  0  0  0  0  0  0  0  0
   -4.5665   -0.3571   -2.4419 O   0  0  0  0  0  0  0  0  0  0  0  0
   -5.1703    1.5865    0.6525 C   0  0  0  0  0  0  0  0  0  0  0  0
   -4.4617   -1.3283    1.1138 H   0  0  0  0  0  0  0  0  0  0  0  0
   -5.9511   -0.2009   -0.1857 H   0  0  0  0  0  0  0  0  0  0  0  0
   -4.2670    2.1988    0.6517 H   0  0  0  0  0  0  0  0  0  0  0  0
   -5.9912    2.1834    0.2427 H   0  0  0  0  0  0  0  0  0  0  0  0
   -5.4182    1.3362    1.6885 H   0  0  0  0  0  0  0  0  0  0  0  0
   -4.5217    1.8680   -2.1582 N   0  0  0  0  0  0  0  0  0  0  0  0
   -4.2268    2.1648   -3.5546 C   0  0  0  0  0  0  0  0  0  0  0  0
   -4.4723    2.6220   -1.4778 H   0  0  0  0  0  0  0  0  0  0  0  0
   -3.3081    1.6612   -3.8720 H   0  0  0  0  0  0  0  0  0  0  0  0
   -5.0493    1.8334   -4.1973 H   0  0  0  0  0  0  0  0  0  0  0  0
   -4.0946    3.2424   -3.6912 H   0  0  0  0  0  0  0  0  0  0  0  0
  1  2  2  0  0  0  0
  1  3  1  0  0  0  0
  1  7  1  0  0  0  0
  3  4  1  0  0  0  0
  3  5  1  0  0  0  0
  3  6  1  0  0  0  0
  7  8  1  0  0  0  0
  7 12  1  0  0  0  0
  8  9  1  0  0  0  0
  8 11  1  0  0  0  0
  8 13  1  0  0  0  0
  9 10  2  0  0  0  0
  9 17  1  0  0  0  0
 11 14  1  0  0  0  0
 11 15  1  0  0  0  0
 11 16  1  0  0  0  0
 17 18  1  0  0  0  0
 17 23  1  0  0  0  0
 18 19  1  0  0  0  0
 18 21  1  0  0  0  0
 18 24  1  0  0  0  0
 19 20  2  0  0  0  0
 19 31  1  0  0  0  0
 21 22  1  0  0  0  0
 21 25  1  0  0  0  0
 21 26  1  0  0  0  0
 22 23  1  0  0  0  0
 22 27  1  0  0  0  0
 22 28  1  0  0  0  0
 23 29  1  0  0  0  0
 23 30  1  0  0  0  0
 31 32  1  0  0  0  0
 31 36  1  0  0  0  0
 32 33  1  0  0  0  0
 32 35  1  0  0  0  0
 32 37  1  0  0  0  0
 33 34  2  0  0  0  0
 33 41  1  0  0  0  0
 35 38  1  0  0  0  0
 35 39  1  0  0  0  0
 35 40  1  0  0  0  0
 41 42  1  0  0  0  0
 41 43  1  0  0  0  0
 42 44  1  0  0  0  0
 42 45  1  0  0  0  0
 42 46  1  0  0  0  0
M  END
$$$$

  -OEChem-05262217223D

 46 46  0     1  0  0  0  0  0999 V2000
    0.7936    1.1799    3.6666 C   0  0  0  0  0  0  0  0  0  0  0  0
    1.0376    0.1733    3.0205 O   0  0  0  0  0  0  0  0  0  0  0  0
    1.7473    1.6228    4.7599 C   0  0  0  0  0  0  0  0  0  0  0  0
    1.1985    1.7910    5.6894 H   0  0  0  0  0  0  0  0  0  0  0  0
    2.5057    0.8543    4.9329 H   0  0  0  0  0  0  0  0  0  0  0  0
    2.2451    2.5500    4.4659 H   0  0  0  0  0  0  0  0  0  0  0  0
   -0.3173    1.9467    3.3815 N   0  0  0  0  0  0  0  0  0  0  0  0
   -1.1364    1.7599    2.1738 C   0  0  2  0  0  0  0  0  0  0  0  0
   -0.6916    2.7081    1.0276 C   0  0  0  0  0  0  0  0  0  0  0  0
   -0.2673    3.8184    1.3406 O   0  0  0  0  0  0  0  0  0  0  0  0
   -2.5895    2.0400    2.5656 C   0  0  0  0  0  0  0  0  0  0  0  0
   -0.3235    2.8766    3.7930 H   0  0  0  0  0  0  0  0  0  0  0  0
   -1.0744    0.7224    1.8404 H   0  0  0  0  0  0  0  0  0  0  0  0
   -2.9026    1.3588    3.3629 H   0  0  0  0  0  0  0  0  0  0  0  0
   -3.2546    1.8944    1.7102 H   0  0  0  0  0  0  0  0  0  0  0  0
   -2.7010    3.0696    2.9197 H   0  0  0  0  0  0  0  0  0  0  0  0
   -0.6185    2.3560   -0.3280 N   0  0  0  0  0  0  0  0  0  0  0  0
   -0.9411    1.0495   -0.8842 C   0  0  2  0  0  0  0  0  0  0  0  0
   -2.3768    0.5488   -0.6492 C   0  0  0  0  0  0  0  0  0  0  0  0
   -2.5859   -0.5076   -0.0700 O   0  0  0  0  0  0  0  0  0  0  0  0
    0.2766    0.1837   -0.5466 C   0  0  0  0  0  0  0  0  0  0  0  0
    1.3515    1.2730   -0.3740 C   0  0  0  0  0  0  0  0  0  0  0  0
    0.7183    2.5271   -0.9810 C   0  0  0  0  0  0  0  0  0  0  0  0
   -0.9447    1.1382   -1.9774 H   0  0  0  0  0  0  0  0  0  0  0  0
    0.5112   -0.5037   -1.3654 H   0  0  0  0  0  0  0  0  0  0  0  0
    0.1472   -0.3982    0.3716 H   0  0  0  0  0  0  0  0  0  0  0  0
    1.6026    1.4193    0.6816 H   0  0  0  0  0  0  0  0  0  0  0  0
    2.2736    1.0062   -0.8996 H   0  0  0  0  0  0  0  0  0  0  0  0
    1.2404    3.4399   -0.6730 H   0  0  0  0  0  0  0  0  0  0  0  0
    0.6847    2.5094   -2.0768 H   0  0  0  0  0  0  0  0  0  0  0  0
   -3.4409    1.2866   -1.1312 N   0  0  0  0  0  0  0  0  0  0  0  0
   -4.8104    0.7656   -1.2358 C   0  0  2  0  0  0  0  0  0  0  0  0
   -5.1354    0.2939   -2.6688 C   0  0  0  0  0  0  0  0  0  0  0  0
   -4.6156    0.8483   -3.6310 O   0  0  0  0  0  0  0  0  0  0  0  0
   -5.7651    1.8823   -0.8102 C   0  0  0  0  0  0  0  0  0  0  0  0
   -3.1961    2.0547   -1.7536 H   0  0  0  0  0  0  0  0  0  0  0  0
   -4.9529   -0.0833   -0.5593 H   0  0  0  0  0  0  0  0  0  0  0  0
   -5.6578    2.7507   -1.4682 H   0  0  0  0  0  0  0  0  0  0  0  0
   -5.5504    2.1934    0.2169 H   0  0  0  0  0  0  0  0  0  0  0  0
   -6.8025    1.5368   -0.8575 H   0  0  0  0  0  0  0  0  0  0  0  0
   -6.0349   -0.7346   -2.8801 N   0  0  0  0  0  0  0  0  0  0  0  0
   -6.3508   -1.2585   -4.2033 C   0  0  0  0  0  0  0  0  0  0  0  0
   -6.3854   -1.2247   -2.0621 H   0  0  0  0  0  0  0  0  0  0  0  0
   -6.7537   -0.4666   -4.8436 H   0  0  0  0  0  0  0  0  0  0  0  0
   -5.4534   -1.6717   -4.6756 H   0  0  0  0  0  0  0  0  0  0  0  0
   -7.0991   -2.0533   -4.1263 H   0  0  0  0  0  0  0  0  0  0  0  0
  1  2  2  0  0  0  0
  1  3  1  0  0  0  0
  1  7  1  0  0  0  0
  3  4  1  0  0  0  0
  3  5  1  0  0  0  0
  3  6  1  0  0  0  0
  7  8  1  0  0  0  0
  7 12  1  0  0  0  0
  8  9  1  0  0  0  0
  8 11  1  0  0  0  0
  8 13  1  0  0  0  0
  9 10  2  0  0  0  0
  9 17  1  0  0  0  0
 11 14  1  0  0  0  0
 11 15  1  0  0  0  0
 11 16  1  0  0  0  0
 17 18  1  0  0  0  0
 17 23  1  0  0  0  0
 18 19  1  0  0  0  0
 18 21  1  0  0  0  0
 18 24  1  0  0  0  0
 19 20  2  0  0  0  0
 19 31  1  0  0  0  0
 21 22  1  0  0  0  0
 21 25  1  0  0  0  0
 21 26  1  0  0  0  0
 22 23  1  0  0  0  0
 22 27  1  0  0  0  0
 22 28  1  0  0  0  0
 23 29  1  0  0  0  0
 23 30  1  0  0  0  0
 31 32  1  0  0  0  0
 31 36  1  0  0  0  0
 32 33  1  0  0  0  0
 32 35  1  0  0  0  0
 32 37  1  0  0  0  0
 33 34  2  0  0  0  0
 33 41  1  0  0  0  0
 35 38  1  0  0  0  0
 35 39  1  0  0  0  0
 35 40  1  0  0  0  0
 41 42  1  0  0  0  0
 41 43  1  0  0  0  0
 42 44  1  0  0  0  0
 42 45  1  0  0  0  0
 42 46  1  0  0  0  0
M  END
$$$$

  -OEChem-05262217223D

 46 46  0     1  0  0  0  0  0999 V2000
    0.3963    1.4697    3.7808 C   0  0  0  0  0  0  0  0  0  0  0  0
    0.6554    0.3937    3.2652 O   0  0  0  0  0  0  0  0  0  0  0  0
    1.2518    1.9834    4.9235 C   0  0  0  0  0  0  0  0  0  0  0  0
    0.6268    2.1832    5.7973 H   0  0  0  0  0  0  0  0  0  0  0  0
    2.0068    1.2398    5.1930 H   0  0  0  0  0  0  0  0  0  0  0  0
    1.7565    2.9055    4.6252 H   0  0  0  0  0  0  0  0  0  0  0  0
   -0.6408    2.2464    3.3075 N   0  0  0  0  0  0  0  0  0  0  0  0
   -1.3465    1.9654    2.0479 C   0  0  2  0  0  0  0  0  0  0  0  0
   -0.7340    2.7459    0.8544 C   0  0  0  0  0  0  0  0  0  0  0  0
   -0.2561    3.8546    1.0861 O   0  0  0  0  0  0  0  0  0  0  0  0
   -2.8086    2.3711    2.2522 C   0  0  0  0  0  0  0  0  0  0  0  0
   -0.6416    3.2133    3.6218 H   0  0  0  0  0  0  0  0  0  0  0  0
   -1.3186    0.8943    1.8403 H   0  0  0  0  0  0  0  0  0  0  0  0
   -2.8818    3.4354    2.4976 H   0  0  0  0  0  0  0  0  0  0  0  0
   -3.3916    2.1854    1.3457 H   0  0  0  0  0  0  0  0  0  0  0  0
   -3.2500    1.7911    3.0685 H   0  0  0  0  0  0  0  0  0  0  0  0
   -0.5747    2.2430   -0.4456 N   0  0  0  0  0  0  0  0  0  0  0  0
   -0.9484    0.9106   -0.9004 C   0  0  2  0  0  0  0  0  0  0  0  0
   -2.4326    0.5279   -0.7574 C   0  0  0  0  0  0  0  0  0  0  0  0
   -2.7864   -0.3183    0.0519 O   0  0  0  0  0  0  0  0  0  0  0  0
    0.1658    0.0046   -0.3675 C   0  0  0  0  0  0  0  0  0  0  0  0
    1.3022    1.0310   -0.2026 C   0  0  0  0  0  0  0  0  0  0  0  0
    0.8220    2.2549   -0.9858 C   0  0  0  0  0  0  0  0  0  0  0  0
   -0.8447    0.8842   -1.9919 H   0  0  0  0  0  0  0  0  0  0  0  0
    0.4166   -0.7791   -1.0892 H   0  0  0  0  0  0  0  0  0  0  0  0
   -0.0859   -0.4671    0.5878 H   0  0  0  0  0  0  0  0  0  0  0  0
    1.4716    1.2695    0.8524 H   0  0  0  0  0  0  0  0  0  0  0  0
    2.2429    0.6488   -0.6107 H   0  0  0  0  0  0  0  0  0  0  0  0
    1.3845    3.1572   -0.7215 H   0  0  0  0  0  0  0  0  0  0  0  0
    0.8809    2.1260   -2.0730 H   0  0  0  0  0  0  0  0  0  0  0  0
   -3.3617    1.0607   -1.6306 N   0  0  0  0  0  0  0  0  0  0  0  0
   -4.6871    0.4673   -1.8503 C   0  0  2  0  0  0  0  0  0  0  0  0
   -4.6759   -0.5022   -3.0513 C   0  0  0  0  0  0  0  0  0  0  0  0
   -3.9394   -0.2829   -4.0071 O   0  0  0  0  0  0  0  0  0  0  0  0
   -5.6746    1.6105   -2.0901 C   0  0  0  0  0  0  0  0  0  0  0  0
   -2.9754    1.6006   -2.4021 H   0  0  0  0  0  0  0  0  0  0  0  0
   -5.0137   -0.0867   -0.9639 H   0  0  0  0  0  0  0  0  0  0  0  0
   -5.3922    2.1810   -2.9810 H   0  0  0  0  0  0  0  0  0  0  0  0
   -6.6860    1.2180   -2.2351 H   0  0  0  0  0  0  0  0  0  0  0  0
   -5.6863    2.2879   -1.2304 H   0  0  0  0  0  0  0  0  0  0  0  0
   -5.5046   -1.6084   -3.0707 N   0  0  0  0  0  0  0  0  0  0  0  0
   -5.4844   -2.5971   -4.1418 C   0  0  0  0  0  0  0  0  0  0  0  0
   -6.0307   -1.8120   -2.2259 H   0  0  0  0  0  0  0  0  0  0  0  0
   -5.6845   -2.1211   -5.1076 H   0  0  0  0  0  0  0  0  0  0  0  0
   -4.5081   -3.0912   -4.1879 H   0  0  0  0  0  0  0  0  0  0  0  0
   -6.2507   -3.3585   -3.9685 H   0  0  0  0  0  0  0  0  0  0  0  0
  1  2  2  0  0  0  0
  1  3  1  0  0  0  0
  1  7  1  0  0  0  0
  3  4  1  0  0  0  0
  3  5  1  0  0  0  0
  3  6  1  0  0  0  0
  7  8  1  0  0  0  0
  7 12  1  0  0  0  0
  8  9  1  0  0  0  0
  8 11  1  0  0  0  0
  8 13  1  0  0  0  0
  9 10  2  0  0  0  0
  9 17  1  0  0  0  0
 11 14  1  0  0  0  0
 11 15  1  0  0  0  0
 11 16  1  0  0  0  0
 17 18  1  0  0  0  0
 17 23  1  0  0  0  0
 18 19  1  0  0  0  0
 18 21  1  0  0  0  0
 18 24  1  0  0  0  0
 19 20  2  0  0  0  0
 19 31  1  0  0  0  0
 21 22  1  0  0  0  0
 21 25  1  0  0  0  0
 21 26  1  0  0  0  0
 22 23  1  0  0  0  0
 22 27  1  0  0  0  0
 22 28  1  0  0  0  0
 23 29  1  0  0  0  0
 23 30  1  0  0  0  0
 31 32  1  0  0  0  0
 31 36  1  0  0  0  0
 32 33  1  0  0  0  0
 32 35  1  0  0  0  0
 32 37  1  0  0  0  0
 33 34  2  0  0  0  0
 33 41  1  0  0  0  0
 35 38  1  0  0  0  0
 35 39  1  0  0  0  0
 35 40  1  0  0  0  0
 41 42  1  0  0  0  0
 41 43  1  0  0  0  0
 42 44  1  0  0  0  0
 42 45  1  0  0  0  0
 42 46  1  0  0  0  0
M  END
$$$$

  -OEChem-05262217223D

 46 46  0     1  0  0  0  0  0999 V2000
   -0.1857    1.4058    3.2916 C   0  0  0  0  0  0  0  0  0  0  0  0
    0.6349    2.2125    3.6956 O   0  0  0  0  0  0  0  0  0  0  0  0
   -0.1837   -0.0114    3.8354 C   0  0  0  0  0  0  0  0  0  0  0  0
   -1.0124   -0.1396    4.5360 H   0  0  0  0  0  0  0  0  0  0  0  0
   -0.2955   -0.7309    3.0208 H   0  0  0  0  0  0  0  0  0  0  0  0
    0.7561   -0.2136    4.3567 H   0  0  0  0  0  0  0  0  0  0  0  0
   -1.1053    1.7636    2.3283 N   0  0  0  0  0  0  0  0  0  0  0  0
   -1.2829    3.1170    1.7911 C   0  0  2  0  0  0  0  0  0  0  0  0
   -0.7261    3.4384    0.3759 C   0  0  0  0  0  0  0  0  0  0  0  0
   -0.4657    4.6181    0.1655 O   0  0  0  0  0  0  0  0  0  0  0  0
   -2.7896    3.3919    1.8136 C   0  0  0  0  0  0  0  0  0  0  0  0
   -1.7141    1.0230    1.9712 H   0  0  0  0  0  0  0  0  0  0  0  0
   -0.8066    3.8311    2.4728 H   0  0  0  0  0  0  0  0  0  0  0  0
   -2.9900    4.4261    1.5155 H   0  0  0  0  0  0  0  0  0  0  0  0
   -3.3172    2.7241    1.1259 H   0  0  0  0  0  0  0  0  0  0  0  0
   -3.1886    3.2423    2.8215 H   0  0  0  0  0  0  0  0  0  0  0  0
   -0.4649    2.5700   -0.6996 N   0  0  0  0  0  0  0  0  0  0  0  0
   -0.6294    1.1248   -0.8101 C   0  0  2  0  0  0  0  0  0  0  0  0
   -2.0452    0.5510   -0.5984 C   0  0  0  0  0  0  0  0  0  0  0  0
   -2.3654    0.0726    0.4847 O   0  0  0  0  0  0  0  0  0  0  0  0
    0.5927    0.5367   -0.1078 C   0  0  0  0  0  0  0  0  0  0  0  0
    1.5639    1.7252   -0.2192 C   0  0  0  0  0  0  0  0  0  0  0  0
    0.9237    2.6488   -1.2583 C   0  0  0  0  0  0  0  0  0  0  0  0
   -0.4885    0.8635   -1.8658 H   0  0  0  0  0  0  0  0  0  0  0  0
    0.9626   -0.3430   -0.6445 H   0  0  0  0  0  0  0  0  0  0  0  0
    0.4104    0.2522    0.9267 H   0  0  0  0  0  0  0  0  0  0  0  0
    1.6698    2.2321    0.7470 H   0  0  0  0  0  0  0  0  0  0  0  0
    2.5590    1.4010   -0.5387 H   0  0  0  0  0  0  0  0  0  0  0  0
    1.3568    3.6551   -1.2286 H   0  0  0  0  0  0  0  0  0  0  0  0
    1.0147    2.2779   -2.2861 H   0  0  0  0  0  0  0  0  0  0  0  0
   -2.9034    0.4102   -1.6719 N   0  0  0  0  0  0  0  0  0  0  0  0
   -4.1158   -0.4206   -1.6764 C   0  0  2  0  0  0  0  0  0  0  0  0
   -4.0929   -1.4428   -2.8329 C   0  0  0  0  0  0  0  0  0  0  0  0
   -3.3115   -1.2956   -3.7666 O   0  0  0  0  0  0  0  0  0  0  0  0
   -5.3182    0.5168   -1.8063 C   0  0  0  0  0  0  0  0  0  0  0  0
   -2.5259    0.6534   -2.5872 H   0  0  0  0  0  0  0  0  0  0  0  0
   -4.2046   -0.9860   -0.7432 H   0  0  0  0  0  0  0  0  0  0  0  0
   -5.2633    1.0823   -2.7423 H   0  0  0  0  0  0  0  0  0  0  0  0
   -6.2527   -0.0524   -1.7979 H   0  0  0  0  0  0  0  0  0  0  0  0
   -5.3374    1.2249   -0.9717 H   0  0  0  0  0  0  0  0  0  0  0  0
   -4.9497   -2.5279   -2.8294 N   0  0  0  0  0  0  0  0  0  0  0  0
   -4.9700   -3.5329   -3.8852 C   0  0  0  0  0  0  0  0  0  0  0  0
   -5.5713   -2.6379   -2.0335 H   0  0  0  0  0  0  0  0  0  0  0  0
   -5.1832   -3.0674   -4.8533 H   0  0  0  0  0  0  0  0  0  0  0  0
   -4.0038   -4.0449   -3.9451 H   0  0  0  0  0  0  0  0  0  0  0  0
   -5.7449   -4.2786   -3.6833 H   0  0  0  0  0  0  0  0  0  0  0  0
  1  2  2  0  0  0  0
  1  3  1  0  0  0  0
  1  7  1  0  0  0  0
  3  4  1  0  0  0  0
  3  5  1  0  0  0  0
  3  6  1  0  0  0  0
  7  8  1  0  0  0  0
  7 12  1  0  0  0  0
  8  9  1  0  0  0  0
  8 11  1  0  0  0  0
  8 13  1  0  0  0  0
  9 10  2  0  0  0  0
  9 17  1  0  0  0  0
 11 14  1  0  0  0  0
 11 15  1  0  0  0  0
 11 16  1  0  0  0  0
 17 18  1  0  0  0  0
 17 23  1  0  0  0  0
 18 19  1  0  0  0  0
 18 21  1  0  0  0  0
 18 24  1  0  0  0  0
 19 20  2  0  0  0  0
 19 31  1  0  0  0  0
 21 22  1  0  0  0  0
 21 25  1  0  0  0  0
 21 26  1  0  0  0  0
 22 23  1  0  0  0  0
 22 27  1  0  0  0  0
 22 28  1  0  0  0  0
 23 29  1  0  0  0  0
 23 30  1  0  0  0  0
 31 32  1  0  0  0  0
 31 36  1  0  0  0  0
 32 33  1  0  0  0  0
 32 35  1  0  0  0  0
 32 37  1  0  0  0  0
 33 34  2  0  0  0  0
 33 41  1  0  0  0  0
 35 38  1  0  0  0  0
 35 39  1  0  0  0  0
 35 40  1  0  0  0  0
 41 42  1  0  0  0  0
 41 43  1  0  0  0  0
 42 44  1  0  0  0  0
 42 45  1  0  0  0  0
 42 46  1  0  0  0  0
M  END
$$$$

  -OEChem-05262217223D

 46 46  0     1  0  0  0  0  0999 V2000
   -0.4105    1.5672    3.2575 C   0  0  0  0  0  0  0  0  0  0  0  0
    0.3397    2.4425    3.6556 O   0  0  0  0  0  0  0  0  0  0  0  0
   -0.3419    0.1791    3.8674 C   0  0  0  0  0  0  0  0  0  0  0  0
   -1.1571    0.0515    4.5832 H   0  0  0  0  0  0  0  0  0  0  0  0
   -0.4310   -0.5832    3.0897 H   0  0  0  0  0  0  0  0  0  0  0  0
    0.6108    0.0419    4.3863 H   0  0  0  0  0  0  0  0  0  0  0  0
   -1.3086    1.8219    2.2428 N   0  0  0  0  0  0  0  0  0  0  0  0
   -1.5433    3.1336    1.6313 C   0  0  2  0  0  0  0  0  0  0  0  0
   -0.8956    3.4365    0.2519 C   0  0  0  0  0  0  0  0  0  0  0  0
   -0.6974    4.6237    0.0148 O   0  0  0  0  0  0  0  0  0  0  0  0
   -3.0621    3.3027    1.5269 C   0  0  0  0  0  0  0  0  0  0  0  0
   -1.8526    1.0304    1.8902 H   0  0  0  0  0  0  0  0  0  0  0  0
   -1.1744    3.9070    2.3147 H   0  0  0  0  0  0  0  0  0  0  0  0
   -3.3066    4.3057    1.1625 H   0  0  0  0  0  0  0  0  0  0  0  0
   -3.4894    2.5698    0.8364 H   0  0  0  0  0  0  0  0  0  0  0  0
   -3.5274    3.1712    2.5087 H   0  0  0  0  0  0  0  0  0  0  0  0
   -0.4963    2.5530   -0.7683 N   0  0  0  0  0  0  0  0  0  0  0  0
   -0.5567    1.0957   -0.8551 C   0  0  2  0  0  0  0  0  0  0  0  0
   -1.9341    0.4038   -0.7475 C   0  0  0  0  0  0  0  0  0  0  0  0
   -2.4012    0.1082    0.3467 O   0  0  0  0  0  0  0  0  0  0  0  0
    0.6371    0.6071   -0.0377 C   0  0  0  0  0  0  0  0  0  0  0  0
    1.5360    1.8547   -0.0976 C   0  0  0  0  0  0  0  0  0  0  0  0
    0.9280    2.7108   -1.2110 C   0  0  0  0  0  0  0  0  0  0  0  0
   -0.3069    0.8327   -1.8896 H   0  0  0  0  0  0  0  0  0  0  0  0
    1.1092   -0.2569   -0.5162 H   0  0  0  0  0  0  0  0  0  0  0  0
    0.3817    0.3339    0.9851 H   0  0  0  0  0  0  0  0  0  0  0  0
    1.5279    2.3880    0.8600 H   0  0  0  0  0  0  0  0  0  0  0  0
    2.5732    1.5901   -0.3258 H   0  0  0  0  0  0  0  0  0  0  0  0
    1.2936    3.7432   -1.1734 H   0  0  0  0  0  0  0  0  0  0  0  0
    1.1304    2.3244   -2.2171 H   0  0  0  0  0  0  0  0  0  0  0  0
   -2.5469   -0.1082   -1.8763 N   0  0  0  0  0  0  0  0  0  0  0  0
   -3.6681   -1.0586   -1.8743 C   0  0  2  0  0  0  0  0  0  0  0  0
   -3.4845   -2.1442   -2.9572 C   0  0  0  0  0  0  0  0  0  0  0  0
   -2.6202   -2.0119   -3.8173 O   0  0  0  0  0  0  0  0  0  0  0  0
   -4.9583   -0.2683   -2.1090 C   0  0  0  0  0  0  0  0  0  0  0  0
   -2.0491   -0.0075   -2.7609 H   0  0  0  0  0  0  0  0  0  0  0  0
   -3.7312   -1.5718   -0.9092 H   0  0  0  0  0  0  0  0  0  0  0  0
   -4.9246    0.2394   -3.0785 H   0  0  0  0  0  0  0  0  0  0  0  0
   -5.8265   -0.9339   -2.0948 H   0  0  0  0  0  0  0  0  0  0  0  0
   -5.0885    0.4850   -1.3255 H   0  0  0  0  0  0  0  0  0  0  0  0
   -4.2762   -3.2780   -2.9597 N   0  0  0  0  0  0  0  0  0  0  0  0
   -4.1310   -4.3517   -3.9355 C   0  0  0  0  0  0  0  0  0  0  0  0
   -4.9668   -3.3741   -2.2210 H   0  0  0  0  0  0  0  0  0  0  0  0
   -4.2539   -3.9654   -4.9528 H   0  0  0  0  0  0  0  0  0  0  0  0
   -3.1422   -4.8144   -3.8512 H   0  0  0  0  0  0  0  0  0  0  0  0
   -4.8890   -5.1225   -3.7667 H   0  0  0  0  0  0  0  0  0  0  0  0
  1  2  2  0  0  0  0
  1  3  1  0  0  0  0
  1  7  1  0  0  0  0
  3  4  1  0  0  0  0
  3  5  1  0  0  0  0
  3  6  1  0  0  0  0
  7  8  1  0  0  0  0
  7 12  1  0  0  0  0
  8  9  1  0  0  0  0
  8 11  1  0  0  0  0
  8 13  1  0  0  0  0
  9 10  2  0  0  0  0
  9 17  1  0  0  0  0
 11 14  1  0  0  0  0
 11 15  1  0  0  0  0
 11 16  1  0  0  0  0
 17 18  1  0  0  0  0
 17 23  1  0  0  0  0
 18 19  1  0  0  0  0
 18 21  1  0  0  0  0
 18 24  1  0  0  0  0
 19 20  2  0  0  0  0
 19 31  1  0  0  0  0
 21 22  1  0  0  0  0
 21 25  1  0  0  0  0
 21 26  1  0  0  0  0
 22 23  1  0  0  0  0
 22 27  1  0  0  0  0
 22 28  1  0  0  0  0
 23 29  1  0  0  0  0
 23 30  1  0  0  0  0
 31 32  1  0  0  0  0
 31 36  1  0  0  0  0
 32 33  1  0  0  0  0
 32 35  1  0  0  0  0
 32 37  1  0  0  0  0
 33 34  2  0  0  0  0
 33 41  1  0  0  0  0
 35 38  1  0  0  0  0
 35 39  1  0  0  0  0
 35 40  1  0  0  0  0
 41 42  1  0  0  0  0
 41 43  1  0  0  0  0
 42 44  1  0  0  0  0
 42 45  1  0  0  0  0
 42 46  1  0  0  0  0
M  END
$$$$

  -OEChem-05262217223D

 46 46  0     1  0  0  0  0  0999 V2000
   -0.6013    1.4603    3.1728 C   0  0  0  0  0  0  0  0  0  0  0  0
    0.1455    2.3142    3.6210 O   0  0  0  0  0  0  0  0  0  0  0  0
   -0.5631    0.0511    3.7348 C   0  0  0  0  0  0  0  0  0  0  0  0
   -1.4367   -0.1179    4.3691 H   0  0  0  0  0  0  0  0  0  0  0  0
   -0.5682   -0.6804    2.9232 H   0  0  0  0  0  0  0  0  0  0  0  0
    0.3418   -0.0918    4.3318 H   0  0  0  0  0  0  0  0  0  0  0  0
   -1.4630    1.7546    2.1382 N   0  0  0  0  0  0  0  0  0  0  0  0
   -1.6796    3.0856    1.5646 C   0  0  2  0  0  0  0  0  0  0  0  0
   -1.0014    3.4274    0.2095 C   0  0  0  0  0  0  0  0  0  0  0  0
   -0.8449    4.6257   -0.0037 O   0  0  0  0  0  0  0  0  0  0  0  0
   -3.1949    3.2702    1.4363 C   0  0  0  0  0  0  0  0  0  0  0  0
   -2.0023    0.9812    1.7420 H   0  0  0  0  0  0  0  0  0  0  0  0
   -1.3183    3.8337    2.2791 H   0  0  0  0  0  0  0  0  0  0  0  0
   -3.4265    4.2934    1.1233 H   0  0  0  0  0  0  0  0  0  0  0  0
   -3.6092    2.5805    0.6952 H   0  0  0  0  0  0  0  0  0  0  0  0
   -3.6833    3.0867    2.3982 H   0  0  0  0  0  0  0  0  0  0  0  0
   -0.5298    2.5794   -0.8112 N   0  0  0  0  0  0  0  0  0  0  0  0
   -0.5144    1.1215   -0.9410 C   0  0  2  0  0  0  0  0  0  0  0  0
   -1.8380    0.3214   -0.9087 C   0  0  0  0  0  0  0  0  0  0  0  0
   -2.4861    0.1901    0.1221 O   0  0  0  0  0  0  0  0  0  0  0  0
    0.6719    0.6712   -0.0935 C   0  0  0  0  0  0  0  0  0  0  0  0
    1.5084    1.9621   -0.0865 C   0  0  0  0  0  0  0  0  0  0  0  0
    0.8996    2.8183   -1.1988 C   0  0  0  0  0  0  0  0  0  0  0  0
   -0.2150    0.9152   -1.9751 H   0  0  0  0  0  0  0  0  0  0  0  0
    1.2044   -0.1562   -0.5740 H   0  0  0  0  0  0  0  0  0  0  0  0
    0.3900    0.3618    0.9123 H   0  0  0  0  0  0  0  0  0  0  0  0
    1.4382    2.4663    0.8842 H   0  0  0  0  0  0  0  0  0  0  0  0
    2.5652    1.7559   -0.2810 H   0  0  0  0  0  0  0  0  0  0  0  0
    1.2144    3.8650   -1.1210 H   0  0  0  0  0  0  0  0  0  0  0  0
    1.1556    2.4714   -2.2069 H   0  0  0  0  0  0  0  0  0  0  0  0
   -2.1993   -0.4527   -1.9964 N   0  0  0  0  0  0  0  0  0  0  0  0
   -3.2410   -1.4888   -1.9885 C   0  0  2  0  0  0  0  0  0  0  0  0
   -2.8084   -2.7231   -2.8085 C   0  0  0  0  0  0  0  0  0  0  0  0
   -1.8140   -2.6660   -3.5242 O   0  0  0  0  0  0  0  0  0  0  0  0
   -4.5228   -0.8742   -2.5563 C   0  0  0  0  0  0  0  0  0  0  0  0
   -1.5482   -0.4841   -2.7809 H   0  0  0  0  0  0  0  0  0  0  0  0
   -3.4288   -1.8328   -0.9663 H   0  0  0  0  0  0  0  0  0  0  0  0
   -4.3618   -0.5366   -3.5853 H   0  0  0  0  0  0  0  0  0  0  0  0
   -5.3362   -1.6059   -2.5524 H   0  0  0  0  0  0  0  0  0  0  0  0
   -4.8291   -0.0147   -1.9514 H   0  0  0  0  0  0  0  0  0  0  0  0
   -3.5166   -3.9074   -2.7226 N   0  0  0  0  0  0  0  0  0  0  0  0
   -3.1305   -5.1233   -3.4285 C   0  0  0  0  0  0  0  0  0  0  0  0
   -4.3171   -3.9346   -2.0976 H   0  0  0  0  0  0  0  0  0  0  0  0
   -3.0588   -4.9365   -4.5053 H   0  0  0  0  0  0  0  0  0  0  0  0
   -2.1611   -5.4837   -3.0683 H   0  0  0  0  0  0  0  0  0  0  0  0
   -3.8748   -5.9086   -3.2647 H   0  0  0  0  0  0  0  0  0  0  0  0
  1  2  2  0  0  0  0
  1  3  1  0  0  0  0
  1  7  1  0  0  0  0
  3  4  1  0  0  0  0
  3  5  1  0  0  0  0
  3  6  1  0  0  0  0
  7  8  1  0  0  0  0
  7 12  1  0  0  0  0
  8  9  1  0  0  0  0
  8 11  1  0  0  0  0
  8 13  1  0  0  0  0
  9 10  2  0  0  0  0
  9 17  1  0  0  0  0
 11 14  1  0  0  0  0
 11 15  1  0  0  0  0
 11 16  1  0  0  0  0
 17 18  1  0  0  0  0
 17 23  1  0  0  0  0
 18 19  1  0  0  0  0
 18 21  1  0  0  0  0
 18 24  1  0  0  0  0
 19 20  2  0  0  0  0
 19 31  1  0  0  0  0
 21 22  1  0  0  0  0
 21 25  1  0  0  0  0
 21 26  1  0  0  0  0
 22 23  1  0  0  0  0
 22 27  1  0  0  0  0
 22 28  1  0  0  0  0
 23 29  1  0  0  0  0
 23 30  1  0  0  0  0
 31 32  1  0  0  0  0
 31 36  1  0  0  0  0
 32 33  1  0  0  0  0
 32 35  1  0  0  0  0
 32 37  1  0  0  0  0
 33 34  2  0  0  0  0
 33 41  1  0  0  0  0
 35 38  1  0  0  0  0
 35 39  1  0  0  0  0
 35 40  1  0  0  0  0
 41 42  1  0  0  0  0
 41 43  1  0  0  0  0
 42 44  1  0  0  0  0
 42 45  1  0  0  0  0
 42 46  1  0  0  0  0
M  END
$$$$

  -OEChem-05262217223D

 46 46  0     1  0  0  0  0  0999 V2000
   -0.9304    0.8685    2.8505 C   0  0  0  0  0  0  0  0  0  0  0  0
   -1.5022    0.0271    2.1825 O   0  0  0  0  0  0  0  0  0  0  0  0
   -0.0785    0.4095    4.0196 C   0  0  0  0  0  0  0  0  0  0  0  0
   -0.4528    0.8480    4.9478 H   0  0  0  0  0  0  0  0  0  0  0  0
   -0.1130   -0.6803    4.1081 H   0  0  0  0  0  0  0  0  0  0  0  0
    0.9596    0.7167    3.8708 H   0  0  0  0  0  0  0  0  0  0  0  0
   -0.9634    2.2187    2.5560 N   0  0  0  0  0  0  0  0  0  0  0  0
   -1.7699    2.9472    1.5504 C   0  0  2  0  0  0  0  0  0  0  0  0
   -1.0695    3.3023    0.1933 C   0  0  0  0  0  0  0  0  0  0  0  0
   -0.8313    4.5035    0.0796 O   0  0  0  0  0  0  0  0  0  0  0  0
   -3.2473    2.5271    1.4695 C   0  0  0  0  0  0  0  0  0  0  0  0
   -0.4100    2.7991    3.1792 H   0  0  0  0  0  0  0  0  0  0  0  0
   -1.8655    3.9349    2.0147 H   0  0  0  0  0  0  0  0  0  0  0  0
   -3.8010    2.9608    2.3071 H   0  0  0  0  0  0  0  0  0  0  0  0
   -3.6946    2.8899    0.5389 H   0  0  0  0  0  0  0  0  0  0  0  0
   -3.3853    1.4482    1.5229 H   0  0  0  0  0  0  0  0  0  0  0  0
   -0.5341    2.5123   -0.8469 N   0  0  0  0  0  0  0  0  0  0  0  0
   -0.4507    1.0617   -1.0154 C   0  0  2  0  0  0  0  0  0  0  0  0
   -1.7031    0.1543   -1.0521 C   0  0  0  0  0  0  0  0  0  0  0  0
   -2.7798    0.5308   -0.6230 O   0  0  0  0  0  0  0  0  0  0  0  0
    0.7904    0.6579   -0.2252 C   0  0  0  0  0  0  0  0  0  0  0  0
    1.5573    1.9924   -0.2182 C   0  0  0  0  0  0  0  0  0  0  0  0
    0.8646    2.8423   -1.2834 C   0  0  0  0  0  0  0  0  0  0  0  0
   -0.1640    0.9217   -2.0641 H   0  0  0  0  0  0  0  0  0  0  0  0
    1.3445   -0.1300   -0.7453 H   0  0  0  0  0  0  0  0  0  0  0  0
    0.5717    0.3134    0.7830 H   0  0  0  0  0  0  0  0  0  0  0  0
    1.4947    2.4716    0.7648 H   0  0  0  0  0  0  0  0  0  0  0  0
    2.6149    1.8463   -0.4573 H   0  0  0  0  0  0  0  0  0  0  0  0
    1.1310    3.9010   -1.1937 H   0  0  0  0  0  0  0  0  0  0  0  0
    1.0994    2.5346   -2.3090 H   0  0  0  0  0  0  0  0  0  0  0  0
   -1.7730   -0.8327   -2.0222 N   0  0  0  0  0  0  0  0  0  0  0  0
   -2.9076   -1.7516   -2.1831 C   0  0  2  0  0  0  0  0  0  0  0  0
   -2.4209   -3.1884   -2.4668 C   0  0  0  0  0  0  0  0  0  0  0  0
   -1.2578   -3.3890   -2.8038 O   0  0  0  0  0  0  0  0  0  0  0  0
   -3.7832   -1.2354   -3.3279 C   0  0  0  0  0  0  0  0  0  0  0  0
   -0.8847   -1.1703   -2.3902 H   0  0  0  0  0  0  0  0  0  0  0  0
   -3.5000   -1.7841   -1.2622 H   0  0  0  0  0  0  0  0  0  0  0  0
   -3.2128   -1.2037   -4.2616 H   0  0  0  0  0  0  0  0  0  0  0  0
   -4.6523   -1.8844   -3.4708 H   0  0  0  0  0  0  0  0  0  0  0  0
   -4.1399   -0.2250   -3.1028 H   0  0  0  0  0  0  0  0  0  0  0  0
   -3.2798   -4.2629   -2.3260 N   0  0  0  0  0  0  0  0  0  0  0  0
   -2.8691   -5.6469   -2.5278 C   0  0  0  0  0  0  0  0  0  0  0  0
   -4.2224   -4.0708   -1.9992 H   0  0  0  0  0  0  0  0  0  0  0  0
   -2.5119   -5.7944   -3.5525 H   0  0  0  0  0  0  0  0  0  0  0  0
   -2.0663   -5.9140   -1.8323 H   0  0  0  0  0  0  0  0  0  0  0  0
   -3.7133   -6.3219   -2.3563 H   0  0  0  0  0  0  0  0  0  0  0  0
  1  2  2  0  0  0  0
  1  3  1  0  0  0  0
  1  7  1  0  0  0  0
  3  4  1  0  0  0  0
  3  5  1  0  0  0  0
  3  6  1  0  0  0  0
  7  8  1  0  0  0  0
  7 12  1  0  0  0  0
  8  9  1  0  0  0  0
  8 11  1  0  0  0  0
  8 13  1  0  0  0  0
  9 10  2  0  0  0  0
  9 17  1  0  0  0  0
 11 14  1  0  0  0  0
 11 15  1  0  0  0  0
 11 16  1  0  0  0  0
 17 18  1  0  0  0  0
 17 23  1  0  0  0  0
 18 19  1  0  0  0  0
 18 21  1  0  0  0  0
 18 24  1  0  0  0  0
 19 20  2  0  0  0  0
 19 31  1  0  0  0  0
 21 22  1  0  0  0  0
 21 25  1  0  0  0  0
 21 26  1  0  0  0  0
 22 23  1  0  0  0  0
 22 27  1  0  0  0  0
 22 28  1  0  0  0  0
 23 29  1  0  0  0  0
 23 30  1  0  0  0  0
 31 32  1  0  0  0  0
 31 36  1  0  0  0  0
 32 33  1  0  0  0  0
 32 35  1  0  0  0  0
 32 37  1  0  0  0  0
 33 34  2  0  0  0  0
 33 41  1  0  0  0  0
 35 38  1  0  0  0  0
 35 39  1  0  0  0  0
 35 40  1  0  0  0  0
 41 42  1  0  0  0  0
 41 43  1  0  0  0  0
 42 44  1  0  0  0  0
 42 45  1  0  0  0  0
 42 46  1  0  0  0  0
M  END
$$$$

  -OEChem-05262217223D

 46 46  0     1  0  0  0  0  0999 V2000
   -0.1828    1.2156    3.4015 C   0  0  0  0  0  0  0  0  0  0  0  0
    0.2515    0.1975    2.8874 O   0  0  0  0  0  0  0  0  0  0  0  0
    0.4589    1.7545    4.6656 C   0  0  0  0  0  0  0  0  0  0  0  0
   -0.2912    1.8464    5.4550 H   0  0  0  0  0  0  0  0  0  0  0  0
    1.2473    1.0778    5.0069 H   0  0  0  0  0  0  0  0  0  0  0  0
    0.8958    2.7368    4.4713 H   0  0  0  0  0  0  0  0  0  0  0  0
   -1.2299    1.9040    2.8273 N   0  0  0  0  0  0  0  0  0  0  0  0
   -1.7926    1.6102    1.4998 C   0  0  2  0  0  0  0  0  0  0  0  0
   -1.3296    2.6516    0.4460 C   0  0  0  0  0  0  0  0  0  0  0  0
   -1.3390    3.8298    0.8013 O   0  0  0  0  0  0  0  0  0  0  0  0
   -3.3158    1.6522    1.6649 C   0  0  0  0  0  0  0  0  0  0  0  0
   -1.4126    2.8336    3.1981 H   0  0  0  0  0  0  0  0  0  0  0  0
   -1.5056    0.6079    1.1753 H   0  0  0  0  0  0  0  0  0  0  0  0
   -3.6349    2.6267    2.0479 H   0  0  0  0  0  0  0  0  0  0  0  0
   -3.8154    1.4832    0.7074 H   0  0  0  0  0  0  0  0  0  0  0  0
   -3.6408    0.8771    2.3652 H   0  0  0  0  0  0  0  0  0  0  0  0
   -0.7091    2.3583   -0.7802 N   0  0  0  0  0  0  0  0  0  0  0  0
   -0.3782    1.0326   -1.2987 C   0  0  2  0  0  0  0  0  0  0  0  0
   -1.4853   -0.0187   -1.5266 C   0  0  0  0  0  0  0  0  0  0  0  0
   -2.6303    0.1580   -1.1357 O   0  0  0  0  0  0  0  0  0  0  0  0
    0.8822    0.6346   -0.5343 C   0  0  0  0  0  0  0  0  0  0  0  0
    1.4158    2.0214   -0.1313 C   0  0  0  0  0  0  0  0  0  0  0  0
    0.6266    2.9992   -1.0062 C   0  0  0  0  0  0  0  0  0  0  0  0
   -0.0685    1.1791   -2.3404 H   0  0  0  0  0  0  0  0  0  0  0  0
    1.5841    0.0945   -1.1778 H   0  0  0  0  0  0  0  0  0  0  0  0
    0.6611    0.0172    0.3408 H   0  0  0  0  0  0  0  0  0  0  0  0
    1.2502    2.2118    0.9343 H   0  0  0  0  0  0  0  0  0  0  0  0
    2.4903    2.1049   -0.3207 H   0  0  0  0  0  0  0  0  0  0  0  0
    0.6912    4.0271   -0.6326 H   0  0  0  0  0  0  0  0  0  0  0  0
    0.9478    3.0040   -2.0545 H   0  0  0  0  0  0  0  0  0  0  0  0
   -1.2091   -1.1351   -2.2949 N   0  0  0  0  0  0  0  0  0  0  0  0
   -2.1057   -2.2939   -2.4143 C   0  0  2  0  0  0  0  0  0  0  0  0
   -1.4193   -3.5806   -1.9114 C   0  0  0  0  0  0  0  0  0  0  0  0
   -0.1968   -3.6731   -1.9464 O   0  0  0  0  0  0  0  0  0  0  0  0
   -2.4975   -2.4341   -3.8863 C   0  0  0  0  0  0  0  0  0  0  0  0
   -0.2221   -1.3282   -2.4607 H   0  0  0  0  0  0  0  0  0  0  0  0
   -3.0138   -2.1499   -1.8200 H   0  0  0  0  0  0  0  0  0  0  0  0
   -1.6101   -2.6027   -4.5051 H   0  0  0  0  0  0  0  0  0  0  0  0
   -3.1815   -3.2774   -4.0219 H   0  0  0  0  0  0  0  0  0  0  0  0
   -2.9970   -1.5238   -4.2325 H   0  0  0  0  0  0  0  0  0  0  0  0
   -2.1714   -4.6353   -1.4290 N   0  0  0  0  0  0  0  0  0  0  0  0
   -1.5817   -5.8546   -0.8907 C   0  0  0  0  0  0  0  0  0  0  0  0
   -3.1762   -4.5026   -1.3586 H   0  0  0  0  0  0  0  0  0  0  0  0
   -0.9808   -6.3594   -1.6544 H   0  0  0  0  0  0  0  0  0  0  0  0
   -0.9409   -5.6246   -0.0328 H   0  0  0  0  0  0  0  0  0  0  0  0
   -2.3674   -6.5410   -0.5609 H   0  0  0  0  0  0  0  0  0  0  0  0
  1  2  2  0  0  0  0
  1  3  1  0  0  0  0
  1  7  1  0  0  0  0
  3  4  1  0  0  0  0
  3  5  1  0  0  0  0
  3  6  1  0  0  0  0
  7  8  1  0  0  0  0
  7 12  1  0  0  0  0
  8  9  1  0  0  0  0
  8 11  1  0  0  0  0
  8 13  1  0  0  0  0
  9 10  2  0  0  0  0
  9 17  1  0  0  0  0
 11 14  1  0  0  0  0
 11 15  1  0  0  0  0
 11 16  1  0  0  0  0
 17 18  1  0  0  0  0
 17 23  1  0  0  0  0
 18 19  1  0  0  0  0
 18 21  1  0  0  0  0
 18 24  1  0  0  0  0
 19 20  2  0  0  0  0
 19 31  1  0  0  0  0
 21 22  1  0  0  0  0
 21 25  1  0  0  0  0
 21 26  1  0  0  0  0
 22 23  1  0  0  0  0
 22 27  1  0  0  0  0
 22 28  1  0  0  0  0
 23 29  1  0  0  0  0
 23 30  1  0  0  0  0
 31 32  1  0  0  0  0
 31 36  1  0  0  0  0
 32 33  1  0  0  0  0
 32 35  1  0  0  0  0
 32 37  1  0  0  0  0
 33 34  2  0  0  0  0
 33 41  1  0  0  0  0
 35 38  1  0  0  0  0
 35 39  1  0  0  0  0
 35 40  1  0  0  0  0
 41 42  1  0  0  0  0
 41 43  1  0  0  0  0
 42 44  1  0  0  0  0
 42 45  1  0  0  0  0
 42 46  1  0  0  0  0
M  END
$$$$
