
  -OEChem-05262214473D

 46 46  0     1  0  0  0  0  0999 V2000
   -0.6012   -3.2995    3.8205 C   0  0  0  0  0  0  0  0  0  0  0  0
   -0.6574   -4.4683    3.4568 O   0  0  0  0  0  0  0  0  0  0  0  0
   -0.4935   -2.9859    5.2760 C   0  0  0  0  0  0  0  0  0  0  0  0
   -1.4789   -2.8689    5.7550 H   0  0  0  0  0  0  0  0  0  0  0  0
    0.0123   -3.7847    5.8419 H   0  0  0  0  0  0  0  0  0  0  0  0
    0.0585   -2.0642    5.5199 H   0  0  0  0  0  0  0  0  0  0  0  0
   -0.6261   -2.1849    2.9917 N   0  0  0  0  0  0  0  0  0  0  0  0
   -0.7237   -2.2601    1.5650 C   0  0  2  0  0  0  0  0  0  0  0  0
    0.1695   -1.1513    1.0687 C   0  0  0  0  0  0  0  0  0  0  0  0
    0.3193   -0.1267    1.7365 O   0  0  0  0  0  0  0  0  0  0  0  0
   -2.1397   -2.0663    1.0750 C   0  0  0  0  0  0  0  0  0  0  0  0
   -0.5717   -1.2606    3.4238 H   0  0  0  0  0  0  0  0  0  0  0  0
   -0.3076   -3.2111    1.2363 H   0  0  0  0  0  0  0  0  0  0  0  0
   -2.5584   -1.1089    1.4061 H   0  0  0  0  0  0  0  0  0  0  0  0
   -2.1682   -2.0790   -0.0197 H   0  0  0  0  0  0  0  0  0  0  0  0
   -2.7965   -2.8601    1.4459 H   0  0  0  0  0  0  0  0  0  0  0  0
    0.7724   -1.3745   -0.1593 N   0  0  0  0  0  0  0  0  0  0  0  0
    0.5614   -2.5964   -0.9244 C   0  0  2  0  0  0  0  0  0  0  0  0
    1.6157   -3.5728   -0.4972 C   0  0  0  0  0  0  0  0  0  0  0  0
    2.4344   -3.2444    0.3534 O   0  0  0  0  0  0  0  0  0  0  0  0
    0.7345   -2.1771   -2.3796 C   0  0  0  0  0  0  0  0  0  0  0  0
    0.3244   -0.8671   -1.7112 C   0  0  0  0  0  0  0  0  0  0  0  0
    1.5408   -0.3981   -0.9273 C   0  0  0  0  0  0  0  0  0  0  0  0
   -0.4227   -3.0263   -0.7144 H   0  0  0  0  0  0  0  0  0  0  0  0
    0.0120   -2.7078   -3.0110 H   0  0  0  0  0  0  0  0  0  0  0  0
    1.7400   -2.3597   -2.7711 H   0  0  0  0  0  0  0  0  0  0  0  0
    0.0755   -0.1144   -2.4681 H   0  0  0  0  0  0  0  0  0  0  0  0
   -0.5410   -0.9920   -1.0542 H   0  0  0  0  0  0  0  0  0  0  0  0
    2.4811   -0.6014   -1.4471 H   0  0  0  0  0  0  0  0  0  0  0  0
    1.4806    0.6724   -0.7030 H   0  0  0  0  0  0  0  0  0  0  0  0
    1.3289   -4.8484   -1.3523 N   0  0  0  0  0  0  0  0  0  0  0  0
    2.0741   -6.0690   -1.1433 C   0  0  2  0  0  0  0  0  0  0  0  0
    1.7115   -6.6117    0.2327 C   0  0  0  0  0  0  0  0  0  0  0  0
    1.2564   -5.9086    1.1325 O   0  0  0  0  0  0  0  0  0  0  0  0
    3.5716   -5.8292   -1.2557 C   0  0  0  0  0  0  0  0  0  0  0  0
    0.7064   -4.7931   -2.1529 H   0  0  0  0  0  0  0  0  0  0  0  0
    1.7460   -6.7757   -1.9134 H   0  0  0  0  0  0  0  0  0  0  0  0
    3.9189   -5.1236   -0.4922 H   0  0  0  0  0  0  0  0  0  0  0  0
    4.1335   -6.7600   -1.1255 H   0  0  0  0  0  0  0  0  0  0  0  0
    3.8269   -5.4110   -2.2354 H   0  0  0  0  0  0  0  0  0  0  0  0
    1.9963   -7.9648    0.3517 N   0  0  0  0  0  0  0  0  0  0  0  0
    1.7538   -8.7087    1.5657 C   0  0  0  0  0  0  0  0  0  0  0  0
    2.3545   -8.4726   -0.4517 H   0  0  0  0  0  0  0  0  0  0  0  0
    2.6625   -8.7060    2.1857 H   0  0  0  0  0  0  0  0  0  0  0  0
    0.9284   -8.2418    2.1231 H   0  0  0  0  0  0  0  0  0  0  0  0
    1.4855   -9.7452    1.3131 H   0  0  0  0  0  0  0  0  0  0  0  0
 18 19  1  0  0  0  0
 19 31  1  0  0  0  0
 19 20  2  0  0  0  0
  8  9  1  0  0  0  0
  9 17  1  0  0  0  0
  9 10  2  0  0  0  0
  1  3  1  0  0  0  0
  1  7  1  0  0  0  0
  1  2  2  0  0  0  0
 32 33  1  0  0  0  0
 33 41  1  0  0  0  0
 33 34  2  0  0  0  0
 21 22  1  0  0  0  0
 22 23  1  0  0  0  0
 18 21  1  0  0  0  0
 17 23  1  0  0  0  0
 17 18  1  0  0  0  0
  8 11  1  0  0  0  0
 32 35  1  0  0  0  0
 41 42  1  0  0  0  0
  7  8  1  0  0  0  0
 31 32  1  0  0  0  0
 22 27  1  0  0  0  0
 22 28  1  0  0  0  0
 21 25  1  0  0  0  0
 21 26  1  0  0  0  0
 23 29  1  0  0  0  0
 23 30  1  0  0  0  0
 18 24  1  0  0  0  0
  3  4  1  0  0  0  0
  3  5  1  0  0  0  0
  3  6  1  0  0  0  0
 11 14  1  0  0  0  0
 11 15  1  0  0  0  0
 11 16  1  0  0  0  0
 35 38  1  0  0  0  0
 35 39  1  0  0  0  0
 35 40  1  0  0  0  0
 42 44  1  0  0  0  0
 42 45  1  0  0  0  0
 42 46  1  0  0  0  0
  8 13  1  0  0  0  0
 32 37  1  0  0  0  0
 31 36  1  0  0  0  0
 41 43  1  0  0  0  0
  7 12  1  0  0  0  0
M  END
$$$$

  -OEChem-05262214473D

 46 46  0     1  0  0  0  0  0999 V2000
   -0.6012   -3.2995    3.8205 C   0  0  0  0  0  0  0  0  0  0  0  0
   -0.6574   -4.4683    3.4568 O   0  0  0  0  0  0  0  0  0  0  0  0
   -0.4935   -2.9859    5.2760 C   0  0  0  0  0  0  0  0  0  0  0  0
   -1.4789   -2.8689    5.7550 H   0  0  0  0  0  0  0  0  0  0  0  0
    0.0123   -3.7847    5.8419 H   0  0  0  0  0  0  0  0  0  0  0  0
    0.0585   -2.0642    5.5199 H   0  0  0  0  0  0  0  0  0  0  0  0
   -0.6261   -2.1849    2.9917 N   0  0  0  0  0  0  0  0  0  0  0  0
   -0.7237   -2.2601    1.5650 C   0  0  2  0  0  0  0  0  0  0  0  0
    0.1695   -1.1513    1.0687 C   0  0  0  0  0  0  0  0  0  0  0  0
    0.3193   -0.1267    1.7365 O   0  0  0  0  0  0  0  0  0  0  0  0
   -2.1397   -2.0663    1.0750 C   0  0  0  0  0  0  0  0  0  0  0  0
   -0.5717   -1.2606    3.4238 H   0  0  0  0  0  0  0  0  0  0  0  0
   -0.3076   -3.2111    1.2363 H   0  0  0  0  0  0  0  0  0  0  0  0
   -2.5584   -1.1089    1.4061 H   0  0  0  0  0  0  0  0  0  0  0  0
   -2.1682   -2.0790   -0.0197 H   0  0  0  0  0  0  0  0  0  0  0  0
   -2.7965   -2.8601    1.4459 H   0  0  0  0  0  0  0  0  0  0  0  0
    0.7724   -1.3745   -0.1593 N   0  0  0  0  0  0  0  0  0  0  0  0
    0.5614   -2.5964   -0.9244 C   0  0  2  0  0  0  0  0  0  0  0  0
    1.6157   -3.5728   -0.4972 C   0  0  0  0  0  0  0  0  0  0  0  0
    2.2533   -3.3634    0.5281 O   0  0  0  0  0  0  0  0  0  0  0  0
    0.7345   -2.1771   -2.3796 C   0  0  0  0  0  0  0  0  0  0  0  0
    0.3244   -0.8671   -1.7112 C   0  0  0  0  0  0  0  0  0  0  0  0
    1.5408   -0.3981   -0.9273 C   0  0  0  0  0  0  0  0  0  0  0  0
   -0.4227   -3.0263   -0.7144 H   0  0  0  0  0  0  0  0  0  0  0  0
    0.0120   -2.7078   -3.0110 H   0  0  0  0  0  0  0  0  0  0  0  0
    1.7400   -2.3597   -2.7711 H   0  0  0  0  0  0  0  0  0  0  0  0
    0.0755   -0.1144   -2.4681 H   0  0  0  0  0  0  0  0  0  0  0  0
   -0.5410   -0.9920   -1.0542 H   0  0  0  0  0  0  0  0  0  0  0  0
    2.4811   -0.6014   -1.4471 H   0  0  0  0  0  0  0  0  0  0  0  0
    1.4806    0.6724   -0.7030 H   0  0  0  0  0  0  0  0  0  0  0  0
    1.5861   -4.6790   -1.6000 N   0  0  0  0  0  0  0  0  0  0  0  0
    2.3938   -5.8717   -1.4813 C   0  0  2  0  0  0  0  0  0  0  0  0
    1.8634   -6.6840   -0.3073 C   0  0  0  0  0  0  0  0  0  0  0  0
    1.2077   -6.1906    0.6080 O   0  0  0  0  0  0  0  0  0  0  0  0
    3.8623   -5.5283   -1.2853 C   0  0  0  0  0  0  0  0  0  0  0  0
    1.0989   -4.5102   -2.4749 H   0  0  0  0  0  0  0  0  0  0  0  0
    2.2590   -6.4386   -2.4089 H   0  0  0  0  0  0  0  0  0  0  0  0
    4.0170   -4.9602   -0.3608 H   0  0  0  0  0  0  0  0  0  0  0  0
    4.4765   -6.4328   -1.2242 H   0  0  0  0  0  0  0  0  0  0  0  0
    4.2342   -4.9190   -2.1161 H   0  0  0  0  0  0  0  0  0  0  0  0
    2.2449   -8.0164   -0.3797 N   0  0  0  0  0  0  0  0  0  0  0  0
    1.8767   -8.9885    0.6230 C   0  0  0  0  0  0  0  0  0  0  0  0
    2.7723   -8.3421   -1.1844 H   0  0  0  0  0  0  0  0  0  0  0  0
    2.6691   -9.0498    1.3834 H   0  0  0  0  0  0  0  0  0  0  0  0
    0.9336   -8.6836    1.1002 H   0  0  0  0  0  0  0  0  0  0  0  0
    1.7465   -9.9726    0.1491 H   0  0  0  0  0  0  0  0  0  0  0  0
 18 19  1  0  0  0  0
 19 31  1  0  0  0  0
 19 20  2  0  0  0  0
  8  9  1  0  0  0  0
  9 17  1  0  0  0  0
  9 10  2  0  0  0  0
  1  3  1  0  0  0  0
  1  7  1  0  0  0  0
  1  2  2  0  0  0  0
 32 33  1  0  0  0  0
 33 41  1  0  0  0  0
 33 34  2  0  0  0  0
 21 22  1  0  0  0  0
 22 23  1  0  0  0  0
 18 21  1  0  0  0  0
 17 23  1  0  0  0  0
 17 18  1  0  0  0  0
  8 11  1  0  0  0  0
 32 35  1  0  0  0  0
 41 42  1  0  0  0  0
  7  8  1  0  0  0  0
 31 32  1  0  0  0  0
 22 27  1  0  0  0  0
 22 28  1  0  0  0  0
 21 25  1  0  0  0  0
 21 26  1  0  0  0  0
 23 29  1  0  0  0  0
 23 30  1  0  0  0  0
 18 24  1  0  0  0  0
  3  4  1  0  0  0  0
  3  5  1  0  0  0  0
  3  6  1  0  0  0  0
 11 14  1  0  0  0  0
 11 15  1  0  0  0  0
 11 16  1  0  0  0  0
 35 38  1  0  0  0  0
 35 39  1  0  0  0  0
 35 40  1  0  0  0  0
 42 44  1  0  0  0  0
 42 45  1  0  0  0  0
 42 46  1  0  0  0  0
  8 13  1  0  0  0  0
 32 37  1  0  0  0  0
 31 36  1  0  0  0  0
 41 43  1  0  0  0  0
  7 12  1  0  0  0  0
M  END
$$$$

  -OEChem-05262214473D

 46 46  0     1  0  0  0  0  0999 V2000
   -0.6012   -3.2995    3.8205 C   0  0  0  0  0  0  0  0  0  0  0  0
   -0.6574   -4.4683    3.4568 O   0  0  0  0  0  0  0  0  0  0  0  0
   -0.4935   -2.9859    5.2760 C   0  0  0  0  0  0  0  0  0  0  0  0
   -1.4789   -2.8689    5.7550 H   0  0  0  0  0  0  0  0  0  0  0  0
    0.0123   -3.7847    5.8419 H   0  0  0  0  0  0  0  0  0  0  0  0
    0.0585   -2.0642    5.5199 H   0  0  0  0  0  0  0  0  0  0  0  0
   -0.6261   -2.1849    2.9917 N   0  0  0  0  0  0  0  0  0  0  0  0
   -0.7237   -2.2601    1.5650 C   0  0  2  0  0  0  0  0  0  0  0  0
    0.1695   -1.1513    1.0687 C   0  0  0  0  0  0  0  0  0  0  0  0
    0.3193   -0.1267    1.7365 O   0  0  0  0  0  0  0  0  0  0  0  0
   -2.1397   -2.0663    1.0750 C   0  0  0  0  0  0  0  0  0  0  0  0
   -0.5717   -1.2606    3.4238 H   0  0  0  0  0  0  0  0  0  0  0  0
   -0.3076   -3.2111    1.2363 H   0  0  0  0  0  0  0  0  0  0  0  0
   -2.5584   -1.1089    1.4061 H   0  0  0  0  0  0  0  0  0  0  0  0
   -2.1682   -2.0790   -0.0197 H   0  0  0  0  0  0  0  0  0  0  0  0
   -2.7965   -2.8601    1.4459 H   0  0  0  0  0  0  0  0  0  0  0  0
    0.7724   -1.3745   -0.1593 N   0  0  0  0  0  0  0  0  0  0  0  0
    0.5614   -2.5964   -0.9244 C   0  0  2  0  0  0  0  0  0  0  0  0
    1.6157   -3.5728   -0.4972 C   0  0  0  0  0  0  0  0  0  0  0  0
    2.0578   -3.5236    0.6446 O   0  0  0  0  0  0  0  0  0  0  0  0
    0.7345   -2.1771   -2.3796 C   0  0  0  0  0  0  0  0  0  0  0  0
    0.3244   -0.8671   -1.7112 C   0  0  0  0  0  0  0  0  0  0  0  0
    1.5408   -0.3981   -0.9273 C   0  0  0  0  0  0  0  0  0  0  0  0
   -0.4227   -3.0263   -0.7144 H   0  0  0  0  0  0  0  0  0  0  0  0
    0.0120   -2.7078   -3.0110 H   0  0  0  0  0  0  0  0  0  0  0  0
    1.7400   -2.3597   -2.7711 H   0  0  0  0  0  0  0  0  0  0  0  0
    0.0755   -0.1144   -2.4681 H   0  0  0  0  0  0  0  0  0  0  0  0
   -0.5410   -0.9920   -1.0542 H   0  0  0  0  0  0  0  0  0  0  0  0
    2.4811   -0.6014   -1.4471 H   0  0  0  0  0  0  0  0  0  0  0  0
    1.4806    0.6724   -0.7030 H   0  0  0  0  0  0  0  0  0  0  0  0
    1.8638   -4.4513   -1.7650 N   0  0  0  0  0  0  0  0  0  0  0  0
    2.7450   -5.5960   -1.7179 C   0  0  2  0  0  0  0  0  0  0  0  0
    2.1064   -6.6443   -0.8164 C   0  0  0  0  0  0  0  0  0  0  0  0
    1.2699   -6.3712    0.0419 O   0  0  0  0  0  0  0  0  0  0  0  0
    4.1258   -5.2109   -1.2102 C   0  0  0  0  0  0  0  0  0  0  0  0
    1.5114   -4.1493   -2.6683 H   0  0  0  0  0  0  0  0  0  0  0  0
    2.8132   -5.9849   -2.7397 H   0  0  0  0  0  0  0  0  0  0  0  0
    4.0776   -4.8191   -0.1876 H   0  0  0  0  0  0  0  0  0  0  0  0
    4.8004   -6.0734   -1.2021 H   0  0  0  0  0  0  0  0  0  0  0  0
    4.5713   -4.4354   -1.8426 H   0  0  0  0  0  0  0  0  0  0  0  0
    2.6121   -7.9148   -1.0538 N   0  0  0  0  0  0  0  0  0  0  0  0
    2.1749   -9.0780   -0.3178 C   0  0  0  0  0  0  0  0  0  0  0  0
    3.2897   -8.0519   -1.7980 H   0  0  0  0  0  0  0  0  0  0  0  0
    2.8362   -9.2353    0.5470 H   0  0  0  0  0  0  0  0  0  0  0  0
    1.1437   -8.9239    0.0326 H   0  0  0  0  0  0  0  0  0  0  0  0
    2.2115   -9.9612   -0.9726 H   0  0  0  0  0  0  0  0  0  0  0  0
 18 19  1  0  0  0  0
 19 31  1  0  0  0  0
 19 20  2  0  0  0  0
  8  9  1  0  0  0  0
  9 17  1  0  0  0  0
  9 10  2  0  0  0  0
  1  3  1  0  0  0  0
  1  7  1  0  0  0  0
  1  2  2  0  0  0  0
 32 33  1  0  0  0  0
 33 41  1  0  0  0  0
 33 34  2  0  0  0  0
 21 22  1  0  0  0  0
 22 23  1  0  0  0  0
 18 21  1  0  0  0  0
 17 23  1  0  0  0  0
 17 18  1  0  0  0  0
  8 11  1  0  0  0  0
 32 35  1  0  0  0  0
 41 42  1  0  0  0  0
  7  8  1  0  0  0  0
 31 32  1  0  0  0  0
 22 27  1  0  0  0  0
 22 28  1  0  0  0  0
 21 25  1  0  0  0  0
 21 26  1  0  0  0  0
 23 29  1  0  0  0  0
 23 30  1  0  0  0  0
 18 24  1  0  0  0  0
  3  4  1  0  0  0  0
  3  5  1  0  0  0  0
  3  6  1  0  0  0  0
 11 14  1  0  0  0  0
 11 15  1  0  0  0  0
 11 16  1  0  0  0  0
 35 38  1  0  0  0  0
 35 39  1  0  0  0  0
 35 40  1  0  0  0  0
 42 44  1  0  0  0  0
 42 45  1  0  0  0  0
 42 46  1  0  0  0  0
  8 13  1  0  0  0  0
 32 37  1  0  0  0  0
 31 36  1  0  0  0  0
 41 43  1  0  0  0  0
  7 12  1  0  0  0  0
M  END
$$$$

  -OEChem-05262214473D

 46 46  0     1  0  0  0  0  0999 V2000
   -0.6012   -3.2995    3.8205 C   0  0  0  0  0  0  0  0  0  0  0  0
   -0.6574   -4.4683    3.4568 O   0  0  0  0  0  0  0  0  0  0  0  0
   -0.4935   -2.9859    5.2760 C   0  0  0  0  0  0  0  0  0  0  0  0
   -1.4789   -2.8689    5.7550 H   0  0  0  0  0  0  0  0  0  0  0  0
    0.0123   -3.7847    5.8419 H   0  0  0  0  0  0  0  0  0  0  0  0
    0.0585   -2.0642    5.5199 H   0  0  0  0  0  0  0  0  0  0  0  0
   -0.6261   -2.1849    2.9917 N   0  0  0  0  0  0  0  0  0  0  0  0
   -0.7237   -2.2601    1.5650 C   0  0  2  0  0  0  0  0  0  0  0  0
    0.1695   -1.1513    1.0687 C   0  0  0  0  0  0  0  0  0  0  0  0
    0.3193   -0.1267    1.7365 O   0  0  0  0  0  0  0  0  0  0  0  0
   -2.1397   -2.0663    1.0750 C   0  0  0  0  0  0  0  0  0  0  0  0
   -0.5717   -1.2606    3.4238 H   0  0  0  0  0  0  0  0  0  0  0  0
   -0.3076   -3.2111    1.2363 H   0  0  0  0  0  0  0  0  0  0  0  0
   -2.5584   -1.1089    1.4061 H   0  0  0  0  0  0  0  0  0  0  0  0
   -2.1682   -2.0790   -0.0197 H   0  0  0  0  0  0  0  0  0  0  0  0
   -2.7965   -2.8601    1.4459 H   0  0  0  0  0  0  0  0  0  0  0  0
    0.7724   -1.3745   -0.1593 N   0  0  0  0  0  0  0  0  0  0  0  0
    0.5614   -2.5964   -0.9244 C   0  0  2  0  0  0  0  0  0  0  0  0
    1.6157   -3.5728   -0.4972 C   0  0  0  0  0  0  0  0  0  0  0  0
    1.8611   -3.7139    0.6951 O   0  0  0  0  0  0  0  0  0  0  0  0
    0.7345   -2.1771   -2.3796 C   0  0  0  0  0  0  0  0  0  0  0  0
    0.3244   -0.8671   -1.7112 C   0  0  0  0  0  0  0  0  0  0  0  0
    1.5408   -0.3981   -0.9273 C   0  0  0  0  0  0  0  0  0  0  0  0
   -0.4227   -3.0263   -0.7144 H   0  0  0  0  0  0  0  0  0  0  0  0
    0.0120   -2.7078   -3.0110 H   0  0  0  0  0  0  0  0  0  0  0  0
    1.7400   -2.3597   -2.7711 H   0  0  0  0  0  0  0  0  0  0  0  0
    0.0755   -0.1144   -2.4681 H   0  0  0  0  0  0  0  0  0  0  0  0
   -0.5410   -0.9920   -1.0542 H   0  0  0  0  0  0  0  0  0  0  0  0
    2.4811   -0.6014   -1.4471 H   0  0  0  0  0  0  0  0  0  0  0  0
    1.4806    0.6724   -0.7030 H   0  0  0  0  0  0  0  0  0  0  0  0
    2.1431   -4.1809   -1.8361 N   0  0  0  0  0  0  0  0  0  0  0  0
    3.1037   -5.2608   -1.8371 C   0  0  2  0  0  0  0  0  0  0  0  0
    2.4240   -6.4954   -1.2600 C   0  0  0  0  0  0  0  0  0  0  0  0
    1.4387   -6.4379   -0.5273 O   0  0  0  0  0  0  0  0  0  0  0  0
    4.3442   -4.8986   -1.0354 C   0  0  0  0  0  0  0  0  0  0  0  0
    1.9159   -3.7351   -2.7199 H   0  0  0  0  0  0  0  0  0  0  0  0
    3.3708   -5.4456   -2.8833 H   0  0  0  0  0  0  0  0  0  0  0  0
    4.0965   -4.7098    0.0155 H   0  0  0  0  0  0  0  0  0  0  0  0
    5.0830   -5.7064   -1.0608 H   0  0  0  0  0  0  0  0  0  0  0  0
    4.8150   -3.9933   -1.4336 H   0  0  0  0  0  0  0  0  0  0  0  0
    3.0729   -7.6668   -1.6245 N   0  0  0  0  0  0  0  0  0  0  0  0
    2.6282   -8.9713   -1.1926 C   0  0  0  0  0  0  0  0  0  0  0  0
    3.8714   -7.6217   -2.2506 H   0  0  0  0  0  0  0  0  0  0  0  0
    3.1522   -9.2499   -0.2665 H   0  0  0  0  0  0  0  0  0  0  0  0
    1.5442   -8.9461   -1.0070 H   0  0  0  0  0  0  0  0  0  0  0  0
    2.8490   -9.7117   -1.9756 H   0  0  0  0  0  0  0  0  0  0  0  0
 18 19  1  0  0  0  0
 19 31  1  0  0  0  0
 19 20  2  0  0  0  0
  8  9  1  0  0  0  0
  9 17  1  0  0  0  0
  9 10  2  0  0  0  0
  1  3  1  0  0  0  0
  1  7  1  0  0  0  0
  1  2  2  0  0  0  0
 32 33  1  0  0  0  0
 33 41  1  0  0  0  0
 33 34  2  0  0  0  0
 21 22  1  0  0  0  0
 22 23  1  0  0  0  0
 18 21  1  0  0  0  0
 17 23  1  0  0  0  0
 17 18  1  0  0  0  0
  8 11  1  0  0  0  0
 32 35  1  0  0  0  0
 41 42  1  0  0  0  0
  7  8  1  0  0  0  0
 31 32  1  0  0  0  0
 22 27  1  0  0  0  0
 22 28  1  0  0  0  0
 21 25  1  0  0  0  0
 21 26  1  0  0  0  0
 23 29  1  0  0  0  0
 23 30  1  0  0  0  0
 18 24  1  0  0  0  0
  3  4  1  0  0  0  0
  3  5  1  0  0  0  0
  3  6  1  0  0  0  0
 11 14  1  0  0  0  0
 11 15  1  0  0  0  0
 11 16  1  0  0  0  0
 35 38  1  0  0  0  0
 35 39  1  0  0  0  0
 35 40  1  0  0  0  0
 42 44  1  0  0  0  0
 42 45  1  0  0  0  0
 42 46  1  0  0  0  0
  8 13  1  0  0  0  0
 32 37  1  0  0  0  0
 31 36  1  0  0  0  0
 41 43  1  0  0  0  0
  7 12  1  0  0  0  0
M  END
$$$$

  -OEChem-05262214473D

 46 46  0     1  0  0  0  0  0999 V2000
   -0.6012   -3.2995    3.8205 C   0  0  0  0  0  0  0  0  0  0  0  0
   -0.6574   -4.4683    3.4568 O   0  0  0  0  0  0  0  0  0  0  0  0
   -0.4935   -2.9859    5.2760 C   0  0  0  0  0  0  0  0  0  0  0  0
   -1.4789   -2.8689    5.7550 H   0  0  0  0  0  0  0  0  0  0  0  0
    0.0123   -3.7847    5.8419 H   0  0  0  0  0  0  0  0  0  0  0  0
    0.0585   -2.0642    5.5199 H   0  0  0  0  0  0  0  0  0  0  0  0
   -0.6261   -2.1849    2.9917 N   0  0  0  0  0  0  0  0  0  0  0  0
   -0.7237   -2.2601    1.5650 C   0  0  2  0  0  0  0  0  0  0  0  0
    0.1695   -1.1513    1.0687 C   0  0  0  0  0  0  0  0  0  0  0  0
    0.3193   -0.1267    1.7365 O   0  0  0  0  0  0  0  0  0  0  0  0
   -2.1397   -2.0663    1.0750 C   0  0  0  0  0  0  0  0  0  0  0  0
   -0.5717   -1.2606    3.4238 H   0  0  0  0  0  0  0  0  0  0  0  0
   -0.3076   -3.2111    1.2363 H   0  0  0  0  0  0  0  0  0  0  0  0
   -2.5584   -1.1089    1.4061 H   0  0  0  0  0  0  0  0  0  0  0  0
   -2.1682   -2.0790   -0.0197 H   0  0  0  0  0  0  0  0  0  0  0  0
   -2.7965   -2.8601    1.4459 H   0  0  0  0  0  0  0  0  0  0  0  0
    0.7724   -1.3745   -0.1593 N   0  0  0  0  0  0  0  0  0  0  0  0
    0.5614   -2.5964   -0.9244 C   0  0  2  0  0  0  0  0  0  0  0  0
    1.6157   -3.5728   -0.4972 C   0  0  0  0  0  0  0  0  0  0  0  0
    1.6766   -3.9214    0.6760 O   0  0  0  0  0  0  0  0  0  0  0  0
    0.7345   -2.1771   -2.3796 C   0  0  0  0  0  0  0  0  0  0  0  0
    0.3244   -0.8671   -1.7112 C   0  0  0  0  0  0  0  0  0  0  0  0
    1.5408   -0.3981   -0.9273 C   0  0  0  0  0  0  0  0  0  0  0  0
   -0.4227   -3.0263   -0.7144 H   0  0  0  0  0  0  0  0  0  0  0  0
    0.0120   -2.7078   -3.0110 H   0  0  0  0  0  0  0  0  0  0  0  0
    1.7400   -2.3597   -2.7711 H   0  0  0  0  0  0  0  0  0  0  0  0
    0.0755   -0.1144   -2.4681 H   0  0  0  0  0  0  0  0  0  0  0  0
   -0.5410   -0.9920   -1.0542 H   0  0  0  0  0  0  0  0  0  0  0  0
    2.4811   -0.6014   -1.4471 H   0  0  0  0  0  0  0  0  0  0  0  0
    1.4806    0.6724   -0.7030 H   0  0  0  0  0  0  0  0  0  0  0  0
    2.4049   -3.8861   -1.8085 N   0  0  0  0  0  0  0  0  0  0  0  0
    3.4457   -4.8888   -1.8307 C   0  0  2  0  0  0  0  0  0  0  0  0
    2.7946   -6.2474   -1.6078 C   0  0  0  0  0  0  0  0  0  0  0  0
    1.7026   -6.3863   -1.0608 O   0  0  0  0  0  0  0  0  0  0  0  0
    4.5027   -4.6126   -0.7729 C   0  0  0  0  0  0  0  0  0  0  0  0
    2.2848   -3.2959   -2.6262 H   0  0  0  0  0  0  0  0  0  0  0  0
    3.8938   -4.8574   -2.8298 H   0  0  0  0  0  0  0  0  0  0  0  0
    4.0724   -4.6398    0.2348 H   0  0  0  0  0  0  0  0  0  0  0  0
    5.3051   -5.3568   -0.8099 H   0  0  0  0  0  0  0  0  0  0  0  0
    4.9490   -3.6226   -0.9170 H   0  0  0  0  0  0  0  0  0  0  0  0
    3.5960   -7.2895   -2.0529 N   0  0  0  0  0  0  0  0  0  0  0  0
    3.2056   -8.6756   -1.9417 C   0  0  0  0  0  0  0  0  0  0  0  0
    4.4780   -7.0808   -2.5114 H   0  0  0  0  0  0  0  0  0  0  0  0
    3.5957   -9.0927   -1.0016 H   0  0  0  0  0  0  0  0  0  0  0  0
    2.1080   -8.7488   -1.9476 H   0  0  0  0  0  0  0  0  0  0  0  0
    3.6154   -9.2411   -2.7916 H   0  0  0  0  0  0  0  0  0  0  0  0
 18 19  1  0  0  0  0
 19 31  1  0  0  0  0
 19 20  2  0  0  0  0
  8  9  1  0  0  0  0
  9 17  1  0  0  0  0
  9 10  2  0  0  0  0
  1  3  1  0  0  0  0
  1  7  1  0  0  0  0
  1  2  2  0  0  0  0
 32 33  1  0  0  0  0
 33 41  1  0  0  0  0
 33 34  2  0  0  0  0
 21 22  1  0  0  0  0
 22 23  1  0  0  0  0
 18 21  1  0  0  0  0
 17 23  1  0  0  0  0
 17 18  1  0  0  0  0
  8 11  1  0  0  0  0
 32 35  1  0  0  0  0
 41 42  1  0  0  0  0
  7  8  1  0  0  0  0
 31 32  1  0  0  0  0
 22 27  1  0  0  0  0
 22 28  1  0  0  0  0
 21 25  1  0  0  0  0
 21 26  1  0  0  0  0
 23 29  1  0  0  0  0
 23 30  1  0  0  0  0
 18 24  1  0  0  0  0
  3  4  1  0  0  0  0
  3  5  1  0  0  0  0
  3  6  1  0  0  0  0
 11 14  1  0  0  0  0
 11 15  1  0  0  0  0
 11 16  1  0  0  0  0
 35 38  1  0  0  0  0
 35 39  1  0  0  0  0
 35 40  1  0  0  0  0
 42 44  1  0  0  0  0
 42 45  1  0  0  0  0
 42 46  1  0  0  0  0
  8 13  1  0  0  0  0
 32 37  1  0  0  0  0
 31 36  1  0  0  0  0
 41 43  1  0  0  0  0
  7 12  1  0  0  0  0
M  END
$$$$

  -OEChem-05262214473D

 46 46  0     1  0  0  0  0  0999 V2000
   -0.6012   -3.2995    3.8205 C   0  0  0  0  0  0  0  0  0  0  0  0
   -0.6574   -4.4683    3.4568 O   0  0  0  0  0  0  0  0  0  0  0  0
   -0.4935   -2.9859    5.2760 C   0  0  0  0  0  0  0  0  0  0  0  0
   -1.4789   -2.8689    5.7550 H   0  0  0  0  0  0  0  0  0  0  0  0
    0.0123   -3.7847    5.8419 H   0  0  0  0  0  0  0  0  0  0  0  0
    0.0585   -2.0642    5.5199 H   0  0  0  0  0  0  0  0  0  0  0  0
   -0.6261   -2.1849    2.9917 N   0  0  0  0  0  0  0  0  0  0  0  0
   -0.7237   -2.2601    1.5650 C   0  0  2  0  0  0  0  0  0  0  0  0
    0.1695   -1.1513    1.0687 C   0  0  0  0  0  0  0  0  0  0  0  0
    0.3193   -0.1267    1.7365 O   0  0  0  0  0  0  0  0  0  0  0  0
   -2.1397   -2.0663    1.0750 C   0  0  0  0  0  0  0  0  0  0  0  0
   -0.5717   -1.2606    3.4238 H   0  0  0  0  0  0  0  0  0  0  0  0
   -0.3076   -3.2111    1.2363 H   0  0  0  0  0  0  0  0  0  0  0  0
   -2.5584   -1.1089    1.4061 H   0  0  0  0  0  0  0  0  0  0  0  0
   -2.1682   -2.0790   -0.0197 H   0  0  0  0  0  0  0  0  0  0  0  0
   -2.7965   -2.8601    1.4459 H   0  0  0  0  0  0  0  0  0  0  0  0
    0.7724   -1.3745   -0.1593 N   0  0  0  0  0  0  0  0  0  0  0  0
    0.5614   -2.5964   -0.9244 C   0  0  2  0  0  0  0  0  0  0  0  0
    1.6157   -3.5728   -0.4972 C   0  0  0  0  0  0  0  0  0  0  0  0
    1.5170   -4.1320    0.5887 O   0  0  0  0  0  0  0  0  0  0  0  0
    0.7345   -2.1771   -2.3796 C   0  0  0  0  0  0  0  0  0  0  0  0
    0.3244   -0.8671   -1.7112 C   0  0  0  0  0  0  0  0  0  0  0  0
    1.5408   -0.3981   -0.9273 C   0  0  0  0  0  0  0  0  0  0  0  0
   -0.4227   -3.0263   -0.7144 H   0  0  0  0  0  0  0  0  0  0  0  0
    0.0120   -2.7078   -3.0110 H   0  0  0  0  0  0  0  0  0  0  0  0
    1.7400   -2.3597   -2.7711 H   0  0  0  0  0  0  0  0  0  0  0  0
    0.0755   -0.1144   -2.4681 H   0  0  0  0  0  0  0  0  0  0  0  0
   -0.5410   -0.9920   -1.0542 H   0  0  0  0  0  0  0  0  0  0  0  0
    2.4811   -0.6014   -1.4471 H   0  0  0  0  0  0  0  0  0  0  0  0
    1.4806    0.6724   -0.7030 H   0  0  0  0  0  0  0  0  0  0  0  0
    2.6314   -3.5871   -1.6841 N   0  0  0  0  0  0  0  0  0  0  0  0
    3.7474   -4.5054   -1.6992 C   0  0  2  0  0  0  0  0  0  0  0  0
    3.1929   -5.9172   -1.8362 C   0  0  0  0  0  0  0  0  0  0  0  0
    2.0436   -6.2199   -1.5222 O   0  0  0  0  0  0  0  0  0  0  0  0
    4.5905   -4.3724   -0.4405 C   0  0  0  0  0  0  0  0  0  0  0  0
    2.5928   -2.8614   -2.3935 H   0  0  0  0  0  0  0  0  0  0  0  0
    4.3467   -4.2604   -2.5829 H   0  0  0  0  0  0  0  0  0  0  0  0
    4.0070   -4.6139    0.4554 H   0  0  0  0  0  0  0  0  0  0  0  0
    5.4515   -5.0485   -0.4664 H   0  0  0  0  0  0  0  0  0  0  0  0
    4.9639   -3.3488   -0.3280 H   0  0  0  0  0  0  0  0  0  0  0  0
    4.1456   -6.8084   -2.3098 N   0  0  0  0  0  0  0  0  0  0  0  0
    3.8678   -8.2110   -2.5142 C   0  0  0  0  0  0  0  0  0  0  0  0
    5.0679   -6.4662   -2.5627 H   0  0  0  0  0  0  0  0  0  0  0  0
    4.1364   -8.7743   -1.6084 H   0  0  0  0  0  0  0  0  0  0  0  0
    2.7966   -8.3455   -2.7253 H   0  0  0  0  0  0  0  0  0  0  0  0
    4.4585   -8.5815   -3.3649 H   0  0  0  0  0  0  0  0  0  0  0  0
 18 19  1  0  0  0  0
 19 31  1  0  0  0  0
 19 20  2  0  0  0  0
  8  9  1  0  0  0  0
  9 17  1  0  0  0  0
  9 10  2  0  0  0  0
  1  3  1  0  0  0  0
  1  7  1  0  0  0  0
  1  2  2  0  0  0  0
 32 33  1  0  0  0  0
 33 41  1  0  0  0  0
 33 34  2  0  0  0  0
 21 22  1  0  0  0  0
 22 23  1  0  0  0  0
 18 21  1  0  0  0  0
 17 23  1  0  0  0  0
 17 18  1  0  0  0  0
  8 11  1  0  0  0  0
 32 35  1  0  0  0  0
 41 42  1  0  0  0  0
  7  8  1  0  0  0  0
 31 32  1  0  0  0  0
 22 27  1  0  0  0  0
 22 28  1  0  0  0  0
 21 25  1  0  0  0  0
 21 26  1  0  0  0  0
 23 29  1  0  0  0  0
 23 30  1  0  0  0  0
 18 24  1  0  0  0  0
  3  4  1  0  0  0  0
  3  5  1  0  0  0  0
  3  6  1  0  0  0  0
 11 14  1  0  0  0  0
 11 15  1  0  0  0  0
 11 16  1  0  0  0  0
 35 38  1  0  0  0  0
 35 39  1  0  0  0  0
 35 40  1  0  0  0  0
 42 44  1  0  0  0  0
 42 45  1  0  0  0  0
 42 46  1  0  0  0  0
  8 13  1  0  0  0  0
 32 37  1  0  0  0  0
 31 36  1  0  0  0  0
 41 43  1  0  0  0  0
  7 12  1  0  0  0  0
M  END
$$$$

  -OEChem-05262214473D

 46 46  0     1  0  0  0  0  0999 V2000
   -0.6012   -3.2995    3.8205 C   0  0  0  0  0  0  0  0  0  0  0  0
   -0.6574   -4.4683    3.4568 O   0  0  0  0  0  0  0  0  0  0  0  0
   -0.4935   -2.9859    5.2760 C   0  0  0  0  0  0  0  0  0  0  0  0
   -1.4789   -2.8689    5.7550 H   0  0  0  0  0  0  0  0  0  0  0  0
    0.0123   -3.7847    5.8419 H   0  0  0  0  0  0  0  0  0  0  0  0
    0.0585   -2.0642    5.5199 H   0  0  0  0  0  0  0  0  0  0  0  0
   -0.6261   -2.1849    2.9917 N   0  0  0  0  0  0  0  0  0  0  0  0
   -0.7237   -2.2601    1.5650 C   0  0  2  0  0  0  0  0  0  0  0  0
    0.1695   -1.1513    1.0687 C   0  0  0  0  0  0  0  0  0  0  0  0
    0.3193   -0.1267    1.7365 O   0  0  0  0  0  0  0  0  0  0  0  0
   -2.1397   -2.0663    1.0750 C   0  0  0  0  0  0  0  0  0  0  0  0
   -0.5717   -1.2606    3.4238 H   0  0  0  0  0  0  0  0  0  0  0  0
   -0.3076   -3.2111    1.2363 H   0  0  0  0  0  0  0  0  0  0  0  0
   -2.5584   -1.1089    1.4061 H   0  0  0  0  0  0  0  0  0  0  0  0
   -2.1682   -2.0790   -0.0197 H   0  0  0  0  0  0  0  0  0  0  0  0
   -2.7965   -2.8601    1.4459 H   0  0  0  0  0  0  0  0  0  0  0  0
    0.7724   -1.3745   -0.1593 N   0  0  0  0  0  0  0  0  0  0  0  0
    0.5614   -2.5964   -0.9244 C   0  0  2  0  0  0  0  0  0  0  0  0
    1.6157   -3.5728   -0.4972 C   0  0  0  0  0  0  0  0  0  0  0  0
    1.3930   -4.3313    0.4392 O   0  0  0  0  0  0  0  0  0  0  0  0
    0.7345   -2.1771   -2.3796 C   0  0  0  0  0  0  0  0  0  0  0  0
    0.3244   -0.8671   -1.7112 C   0  0  0  0  0  0  0  0  0  0  0  0
    1.5408   -0.3981   -0.9273 C   0  0  0  0  0  0  0  0  0  0  0  0
   -0.4227   -3.0263   -0.7144 H   0  0  0  0  0  0  0  0  0  0  0  0
    0.0120   -2.7078   -3.0110 H   0  0  0  0  0  0  0  0  0  0  0  0
    1.7400   -2.3597   -2.7711 H   0  0  0  0  0  0  0  0  0  0  0  0
    0.0755   -0.1144   -2.4681 H   0  0  0  0  0  0  0  0  0  0  0  0
   -0.5410   -0.9920   -1.0542 H   0  0  0  0  0  0  0  0  0  0  0  0
    2.4811   -0.6014   -1.4471 H   0  0  0  0  0  0  0  0  0  0  0  0
    1.4806    0.6724   -0.7030 H   0  0  0  0  0  0  0  0  0  0  0  0
    2.8072   -3.3042   -1.4713 N   0  0  0  0  0  0  0  0  0  0  0  0
    3.9884   -4.1368   -1.4515 C   0  0  2  0  0  0  0  0  0  0  0  0
    3.5918   -5.5274   -1.9295 C   0  0  0  0  0  0  0  0  0  0  0  0
    2.4386   -5.9501   -1.8801 O   0  0  0  0  0  0  0  0  0  0  0  0
    4.6016   -4.1944   -0.0610 C   0  0  0  0  0  0  0  0  0  0  0  0
    2.8192   -2.4614   -2.0378 H   0  0  0  0  0  0  0  0  0  0  0  0
    4.6984   -3.6953   -2.1594 H   0  0  0  0  0  0  0  0  0  0  0  0
    3.9048   -4.6339    0.6621 H   0  0  0  0  0  0  0  0  0  0  0  0
    5.5123   -4.8023   -0.0538 H   0  0  0  0  0  0  0  0  0  0  0  0
    4.8589   -3.1904    0.2934 H   0  0  0  0  0  0  0  0  0  0  0  0
    4.6843   -6.2565   -2.3778 N   0  0  0  0  0  0  0  0  0  0  0  0
    4.5697   -7.6091   -2.8709 C   0  0  0  0  0  0  0  0  0  0  0  0
    5.6011   -5.8197   -2.4008 H   0  0  0  0  0  0  0  0  0  0  0  0
    4.7375   -8.3164   -2.0453 H   0  0  0  0  0  0  0  0  0  0  0  0
    3.5631   -7.7635   -3.2869 H   0  0  0  0  0  0  0  0  0  0  0  0
    5.3209   -7.7778   -3.6565 H   0  0  0  0  0  0  0  0  0  0  0  0
 18 19  1  0  0  0  0
 19 31  1  0  0  0  0
 19 20  2  0  0  0  0
  8  9  1  0  0  0  0
  9 17  1  0  0  0  0
  9 10  2  0  0  0  0
  1  3  1  0  0  0  0
  1  7  1  0  0  0  0
  1  2  2  0  0  0  0
 32 33  1  0  0  0  0
 33 41  1  0  0  0  0
 33 34  2  0  0  0  0
 21 22  1  0  0  0  0
 22 23  1  0  0  0  0
 18 21  1  0  0  0  0
 17 23  1  0  0  0  0
 17 18  1  0  0  0  0
  8 11  1  0  0  0  0
 32 35  1  0  0  0  0
 41 42  1  0  0  0  0
  7  8  1  0  0  0  0
 31 32  1  0  0  0  0
 22 27  1  0  0  0  0
 22 28  1  0  0  0  0
 21 25  1  0  0  0  0
 21 26  1  0  0  0  0
 23 29  1  0  0  0  0
 23 30  1  0  0  0  0
 18 24  1  0  0  0  0
  3  4  1  0  0  0  0
  3  5  1  0  0  0  0
  3  6  1  0  0  0  0
 11 14  1  0  0  0  0
 11 15  1  0  0  0  0
 11 16  1  0  0  0  0
 35 38  1  0  0  0  0
 35 39  1  0  0  0  0
 35 40  1  0  0  0  0
 42 44  1  0  0  0  0
 42 45  1  0  0  0  0
 42 46  1  0  0  0  0
  8 13  1  0  0  0  0
 32 37  1  0  0  0  0
 31 36  1  0  0  0  0
 41 43  1  0  0  0  0
  7 12  1  0  0  0  0
M  END
$$$$

  -OEChem-05262214473D

 46 46  0     1  0  0  0  0  0999 V2000
   -0.6012   -3.2995    3.8205 C   0  0  0  0  0  0  0  0  0  0  0  0
   -0.6574   -4.4683    3.4568 O   0  0  0  0  0  0  0  0  0  0  0  0
   -0.4935   -2.9859    5.2760 C   0  0  0  0  0  0  0  0  0  0  0  0
   -1.4789   -2.8689    5.7550 H   0  0  0  0  0  0  0  0  0  0  0  0
    0.0123   -3.7847    5.8419 H   0  0  0  0  0  0  0  0  0  0  0  0
    0.0585   -2.0642    5.5199 H   0  0  0  0  0  0  0  0  0  0  0  0
   -0.6261   -2.1849    2.9917 N   0  0  0  0  0  0  0  0  0  0  0  0
   -0.7237   -2.2601    1.5650 C   0  0  2  0  0  0  0  0  0  0  0  0
    0.1695   -1.1513    1.0687 C   0  0  0  0  0  0  0  0  0  0  0  0
    0.3193   -0.1267    1.7365 O   0  0  0  0  0  0  0  0  0  0  0  0
   -2.1397   -2.0663    1.0750 C   0  0  0  0  0  0  0  0  0  0  0  0
   -0.5717   -1.2606    3.4238 H   0  0  0  0  0  0  0  0  0  0  0  0
   -0.3076   -3.2111    1.2363 H   0  0  0  0  0  0  0  0  0  0  0  0
   -2.5584   -1.1089    1.4061 H   0  0  0  0  0  0  0  0  0  0  0  0
   -2.1682   -2.0790   -0.0197 H   0  0  0  0  0  0  0  0  0  0  0  0
   -2.7965   -2.8601    1.4459 H   0  0  0  0  0  0  0  0  0  0  0  0
    0.7724   -1.3745   -0.1593 N   0  0  0  0  0  0  0  0  0  0  0  0
    0.5614   -2.5964   -0.9244 C   0  0  2  0  0  0  0  0  0  0  0  0
    1.6157   -3.5728   -0.4972 C   0  0  0  0  0  0  0  0  0  0  0  0
    1.3131   -4.5058    0.2375 O   0  0  0  0  0  0  0  0  0  0  0  0
    0.7345   -2.1771   -2.3796 C   0  0  0  0  0  0  0  0  0  0  0  0
    0.3244   -0.8671   -1.7112 C   0  0  0  0  0  0  0  0  0  0  0  0
    1.5408   -0.3981   -0.9273 C   0  0  0  0  0  0  0  0  0  0  0  0
   -0.4227   -3.0263   -0.7144 H   0  0  0  0  0  0  0  0  0  0  0  0
    0.0120   -2.7078   -3.0110 H   0  0  0  0  0  0  0  0  0  0  0  0
    1.7400   -2.3597   -2.7711 H   0  0  0  0  0  0  0  0  0  0  0  0
    0.0755   -0.1144   -2.4681 H   0  0  0  0  0  0  0  0  0  0  0  0
   -0.5410   -0.9920   -1.0542 H   0  0  0  0  0  0  0  0  0  0  0  0
    2.4811   -0.6014   -1.4471 H   0  0  0  0  0  0  0  0  0  0  0  0
    1.4806    0.6724   -0.7030 H   0  0  0  0  0  0  0  0  0  0  0  0
    2.9202   -3.0568   -1.1846 N   0  0  0  0  0  0  0  0  0  0  0  0
    4.1523   -3.8081   -1.1045 C   0  0  2  0  0  0  0  0  0  0  0  0
    3.9641   -5.1044   -1.8815 C   0  0  0  0  0  0  0  0  0  0  0  0
    2.8605   -5.5951   -2.1102 O   0  0  0  0  0  0  0  0  0  0  0  0
    4.5351   -4.0908    0.3399 C   0  0  0  0  0  0  0  0  0  0  0  0
    2.9483   -2.1231   -1.5832 H   0  0  0  0  0  0  0  0  0  0  0  0
    4.9251   -3.2007   -1.5881 H   0  0  0  0  0  0  0  0  0  0  0  0
    3.7727   -4.6984    0.8409 H   0  0  0  0  0  0  0  0  0  0  0  0
    5.4833   -4.6352    0.3998 H   0  0  0  0  0  0  0  0  0  0  0  0
    4.6410   -3.1583    0.9047 H   0  0  0  0  0  0  0  0  0  0  0  0
    5.1754   -5.6712   -2.2522 N   0  0  0  0  0  0  0  0  0  0  0  0
    5.2634   -6.9111   -2.9877 C   0  0  0  0  0  0  0  0  0  0  0  0
    6.0411   -5.1854   -2.0370 H   0  0  0  0  0  0  0  0  0  0  0  0
    5.3580   -7.7503   -2.2827 H   0  0  0  0  0  0  0  0  0  0  0  0
    4.3553   -7.0427   -3.5943 H   0  0  0  0  0  0  0  0  0  0  0  0
    6.1439   -6.8849   -3.6465 H   0  0  0  0  0  0  0  0  0  0  0  0
 18 19  1  0  0  0  0
 19 31  1  0  0  0  0
 19 20  2  0  0  0  0
  8  9  1  0  0  0  0
  9 17  1  0  0  0  0
  9 10  2  0  0  0  0
  1  3  1  0  0  0  0
  1  7  1  0  0  0  0
  1  2  2  0  0  0  0
 32 33  1  0  0  0  0
 33 41  1  0  0  0  0
 33 34  2  0  0  0  0
 21 22  1  0  0  0  0
 22 23  1  0  0  0  0
 18 21  1  0  0  0  0
 17 23  1  0  0  0  0
 17 18  1  0  0  0  0
  8 11  1  0  0  0  0
 32 35  1  0  0  0  0
 41 42  1  0  0  0  0
  7  8  1  0  0  0  0
 31 32  1  0  0  0  0
 22 27  1  0  0  0  0
 22 28  1  0  0  0  0
 21 25  1  0  0  0  0
 21 26  1  0  0  0  0
 23 29  1  0  0  0  0
 23 30  1  0  0  0  0
 18 24  1  0  0  0  0
  3  4  1  0  0  0  0
  3  5  1  0  0  0  0
  3  6  1  0  0  0  0
 11 14  1  0  0  0  0
 11 15  1  0  0  0  0
 11 16  1  0  0  0  0
 35 38  1  0  0  0  0
 35 39  1  0  0  0  0
 35 40  1  0  0  0  0
 42 44  1  0  0  0  0
 42 45  1  0  0  0  0
 42 46  1  0  0  0  0
  8 13  1  0  0  0  0
 32 37  1  0  0  0  0
 31 36  1  0  0  0  0
 41 43  1  0  0  0  0
  7 12  1  0  0  0  0
M  END
$$$$

  -OEChem-05262214473D

 46 46  0     1  0  0  0  0  0999 V2000
   -0.6012   -3.2995    3.8205 C   0  0  0  0  0  0  0  0  0  0  0  0
   -0.6574   -4.4683    3.4568 O   0  0  0  0  0  0  0  0  0  0  0  0
   -0.4935   -2.9859    5.2760 C   0  0  0  0  0  0  0  0  0  0  0  0
   -1.4789   -2.8689    5.7550 H   0  0  0  0  0  0  0  0  0  0  0  0
    0.0123   -3.7847    5.8419 H   0  0  0  0  0  0  0  0  0  0  0  0
    0.0585   -2.0642    5.5199 H   0  0  0  0  0  0  0  0  0  0  0  0
   -0.6261   -2.1849    2.9917 N   0  0  0  0  0  0  0  0  0  0  0  0
   -0.7237   -2.2601    1.5650 C   0  0  2  0  0  0  0  0  0  0  0  0
    0.1695   -1.1513    1.0687 C   0  0  0  0  0  0  0  0  0  0  0  0
    0.3193   -0.1267    1.7365 O   0  0  0  0  0  0  0  0  0  0  0  0
   -2.1397   -2.0663    1.0750 C   0  0  0  0  0  0  0  0  0  0  0  0
   -0.5717   -1.2606    3.4238 H   0  0  0  0  0  0  0  0  0  0  0  0
   -0.3076   -3.2111    1.2363 H   0  0  0  0  0  0  0  0  0  0  0  0
   -2.5584   -1.1089    1.4061 H   0  0  0  0  0  0  0  0  0  0  0  0
   -2.1682   -2.0790   -0.0197 H   0  0  0  0  0  0  0  0  0  0  0  0
   -2.7965   -2.8601    1.4459 H   0  0  0  0  0  0  0  0  0  0  0  0
    0.7724   -1.3745   -0.1593 N   0  0  0  0  0  0  0  0  0  0  0  0
    0.5614   -2.5964   -0.9244 C   0  0  2  0  0  0  0  0  0  0  0  0
    1.6157   -3.5728   -0.4972 C   0  0  0  0  0  0  0  0  0  0  0  0
    1.2829   -4.6434   -0.0025 O   0  0  0  0  0  0  0  0  0  0  0  0
    0.7345   -2.1771   -2.3796 C   0  0  0  0  0  0  0  0  0  0  0  0
    0.3244   -0.8671   -1.7112 C   0  0  0  0  0  0  0  0  0  0  0  0
    1.5408   -0.3981   -0.9273 C   0  0  0  0  0  0  0  0  0  0  0  0
   -0.4227   -3.0263   -0.7144 H   0  0  0  0  0  0  0  0  0  0  0  0
    0.0120   -2.7078   -3.0110 H   0  0  0  0  0  0  0  0  0  0  0  0
    1.7400   -2.3597   -2.7711 H   0  0  0  0  0  0  0  0  0  0  0  0
    0.0755   -0.1144   -2.4681 H   0  0  0  0  0  0  0  0  0  0  0  0
   -0.5410   -0.9920   -1.0542 H   0  0  0  0  0  0  0  0  0  0  0  0
    2.4811   -0.6014   -1.4471 H   0  0  0  0  0  0  0  0  0  0  0  0
    1.4806    0.6724   -0.7030 H   0  0  0  0  0  0  0  0  0  0  0  0
    2.9628   -2.8616   -0.8436 N   0  0  0  0  0  0  0  0  0  0  0  0
    4.2279   -3.5416   -0.6819 C   0  0  2  0  0  0  0  0  0  0  0  0
    4.2844   -4.6771   -1.6953 C   0  0  0  0  0  0  0  0  0  0  0  0
    3.2806   -5.1793   -2.1967 O   0  0  0  0  0  0  0  0  0  0  0  0
    4.3957   -4.0686    0.7347 C   0  0  0  0  0  0  0  0  0  0  0  0
    2.9715   -1.8695   -1.0607 H   0  0  0  0  0  0  0  0  0  0  0  0
    5.0113   -2.8101   -0.9081 H   0  0  0  0  0  0  0  0  0  0  0  0
    3.6197   -4.8029    0.9795 H   0  0  0  0  0  0  0  0  0  0  0  0
    5.3666   -4.5584    0.8634 H   0  0  0  0  0  0  0  0  0  0  0  0
    4.3251   -3.2546    1.4643 H   0  0  0  0  0  0  0  0  0  0  0  0
    5.5855   -5.0925   -1.9416 N   0  0  0  0  0  0  0  0  0  0  0  0
    5.9017   -6.1645   -2.8564 C   0  0  0  0  0  0  0  0  0  0  0  0
    6.3581   -4.6065   -1.4959 H   0  0  0  0  0  0  0  0  0  0  0  0
    5.9556   -7.1144   -2.3044 H   0  0  0  0  0  0  0  0  0  0  0  0
    5.1191   -6.2320   -3.6265 H   0  0  0  0  0  0  0  0  0  0  0  0
    6.8712   -5.9635   -3.3356 H   0  0  0  0  0  0  0  0  0  0  0  0
 18 19  1  0  0  0  0
 19 31  1  0  0  0  0
 19 20  2  0  0  0  0
  8  9  1  0  0  0  0
  9 17  1  0  0  0  0
  9 10  2  0  0  0  0
  1  3  1  0  0  0  0
  1  7  1  0  0  0  0
  1  2  2  0  0  0  0
 32 33  1  0  0  0  0
 33 41  1  0  0  0  0
 33 34  2  0  0  0  0
 21 22  1  0  0  0  0
 22 23  1  0  0  0  0
 18 21  1  0  0  0  0
 17 23  1  0  0  0  0
 17 18  1  0  0  0  0
  8 11  1  0  0  0  0
 32 35  1  0  0  0  0
 41 42  1  0  0  0  0
  7  8  1  0  0  0  0
 31 32  1  0  0  0  0
 22 27  1  0  0  0  0
 22 28  1  0  0  0  0
 21 25  1  0  0  0  0
 21 26  1  0  0  0  0
 23 29  1  0  0  0  0
 23 30  1  0  0  0  0
 18 24  1  0  0  0  0
  3  4  1  0  0  0  0
  3  5  1  0  0  0  0
  3  6  1  0  0  0  0
 11 14  1  0  0  0  0
 11 15  1  0  0  0  0
 11 16  1  0  0  0  0
 35 38  1  0  0  0  0
 35 39  1  0  0  0  0
 35 40  1  0  0  0  0
 42 44  1  0  0  0  0
 42 45  1  0  0  0  0
 42 46  1  0  0  0  0
  8 13  1  0  0  0  0
 32 37  1  0  0  0  0
 31 36  1  0  0  0  0
 41 43  1  0  0  0  0
  7 12  1  0  0  0  0
M  END
$$$$

  -OEChem-05262214473D

 46 46  0     1  0  0  0  0  0999 V2000
   -0.6012   -3.2995    3.8205 C   0  0  0  0  0  0  0  0  0  0  0  0
   -0.6574   -4.4683    3.4568 O   0  0  0  0  0  0  0  0  0  0  0  0
   -0.4935   -2.9859    5.2760 C   0  0  0  0  0  0  0  0  0  0  0  0
   -1.4789   -2.8689    5.7550 H   0  0  0  0  0  0  0  0  0  0  0  0
    0.0123   -3.7847    5.8419 H   0  0  0  0  0  0  0  0  0  0  0  0
    0.0585   -2.0642    5.5199 H   0  0  0  0  0  0  0  0  0  0  0  0
   -0.6261   -2.1849    2.9917 N   0  0  0  0  0  0  0  0  0  0  0  0
   -0.7237   -2.2601    1.5650 C   0  0  2  0  0  0  0  0  0  0  0  0
    0.1695   -1.1513    1.0687 C   0  0  0  0  0  0  0  0  0  0  0  0
    0.3193   -0.1267    1.7365 O   0  0  0  0  0  0  0  0  0  0  0  0
   -2.1397   -2.0663    1.0750 C   0  0  0  0  0  0  0  0  0  0  0  0
   -0.5717   -1.2606    3.4238 H   0  0  0  0  0  0  0  0  0  0  0  0
   -0.3076   -3.2111    1.2363 H   0  0  0  0  0  0  0  0  0  0  0  0
   -2.5584   -1.1089    1.4061 H   0  0  0  0  0  0  0  0  0  0  0  0
   -2.1682   -2.0790   -0.0197 H   0  0  0  0  0  0  0  0  0  0  0  0
   -2.7965   -2.8601    1.4459 H   0  0  0  0  0  0  0  0  0  0  0  0
    0.7724   -1.3745   -0.1593 N   0  0  0  0  0  0  0  0  0  0  0  0
    0.5614   -2.5964   -0.9244 C   0  0  2  0  0  0  0  0  0  0  0  0
    1.6157   -3.5728   -0.4972 C   0  0  0  0  0  0  0  0  0  0  0  0
    1.3042   -4.7350   -0.2644 O   0  0  0  0  0  0  0  0  0  0  0  0
    0.7345   -2.1771   -2.3796 C   0  0  0  0  0  0  0  0  0  0  0  0
    0.3244   -0.8671   -1.7112 C   0  0  0  0  0  0  0  0  0  0  0  0
    1.5408   -0.3981   -0.9273 C   0  0  0  0  0  0  0  0  0  0  0  0
   -0.4227   -3.0263   -0.7144 H   0  0  0  0  0  0  0  0  0  0  0  0
    0.0120   -2.7078   -3.0110 H   0  0  0  0  0  0  0  0  0  0  0  0
    1.7400   -2.3597   -2.7711 H   0  0  0  0  0  0  0  0  0  0  0  0
    0.0755   -0.1144   -2.4681 H   0  0  0  0  0  0  0  0  0  0  0  0
   -0.5410   -0.9920   -1.0542 H   0  0  0  0  0  0  0  0  0  0  0  0
    2.4811   -0.6014   -1.4471 H   0  0  0  0  0  0  0  0  0  0  0  0
    1.4806    0.6724   -0.7030 H   0  0  0  0  0  0  0  0  0  0  0  0
    2.9321   -2.7320   -0.4715 N   0  0  0  0  0  0  0  0  0  0  0  0
    4.2100   -3.3556   -0.2124 C   0  0  2  0  0  0  0  0  0  0  0  0
    4.5309   -4.2746   -1.3837 C   0  0  0  0  0  0  0  0  0  0  0  0
    3.6704   -4.7309   -2.1337 O   0  0  0  0  0  0  0  0  0  0  0  0
    4.1929   -4.1293    1.0967 C   0  0  0  0  0  0  0  0  0  0  0  0
    2.8871   -1.7180   -0.5060 H   0  0  0  0  0  0  0  0  0  0  0  0
    4.9511   -2.5503   -0.1656 H   0  0  0  0  0  0  0  0  0  0  0  0
    3.4562   -4.9404    1.0687 H   0  0  0  0  0  0  0  0  0  0  0  0
    5.1700   -4.5773    1.3056 H   0  0  0  0  0  0  0  0  0  0  0  0
    3.9327   -3.4728    1.9340 H   0  0  0  0  0  0  0  0  0  0  0  0
    5.8865   -4.5599   -1.4670 N   0  0  0  0  0  0  0  0  0  0  0  0
    6.4410   -5.4201   -2.4861 C   0  0  0  0  0  0  0  0  0  0  0  0
    6.5303   -4.1224   -0.8144 H   0  0  0  0  0  0  0  0  0  0  0  0
    6.4896   -6.4523   -2.1088 H   0  0  0  0  0  0  0  0  0  0  0  0
    5.8025   -5.3868   -3.3812 H   0  0  0  0  0  0  0  0  0  0  0  0
    7.4534   -5.0764   -2.7449 H   0  0  0  0  0  0  0  0  0  0  0  0
 18 19  1  0  0  0  0
 19 31  1  0  0  0  0
 19 20  2  0  0  0  0
  8  9  1  0  0  0  0
  9 17  1  0  0  0  0
  9 10  2  0  0  0  0
  1  3  1  0  0  0  0
  1  7  1  0  0  0  0
  1  2  2  0  0  0  0
 32 33  1  0  0  0  0
 33 41  1  0  0  0  0
 33 34  2  0  0  0  0
 21 22  1  0  0  0  0
 22 23  1  0  0  0  0
 18 21  1  0  0  0  0
 17 23  1  0  0  0  0
 17 18  1  0  0  0  0
  8 11  1  0  0  0  0
 32 35  1  0  0  0  0
 41 42  1  0  0  0  0
  7  8  1  0  0  0  0
 31 32  1  0  0  0  0
 22 27  1  0  0  0  0
 22 28  1  0  0  0  0
 21 25  1  0  0  0  0
 21 26  1  0  0  0  0
 23 29  1  0  0  0  0
 23 30  1  0  0  0  0
 18 24  1  0  0  0  0
  3  4  1  0  0  0  0
  3  5  1  0  0  0  0
  3  6  1  0  0  0  0
 11 14  1  0  0  0  0
 11 15  1  0  0  0  0
 11 16  1  0  0  0  0
 35 38  1  0  0  0  0
 35 39  1  0  0  0  0
 35 40  1  0  0  0  0
 42 44  1  0  0  0  0
 42 45  1  0  0  0  0
 42 46  1  0  0  0  0
  8 13  1  0  0  0  0
 32 37  1  0  0  0  0
 31 36  1  0  0  0  0
 41 43  1  0  0  0  0
  7 12  1  0  0  0  0
M  END
$$$$

  -OEChem-05262214473D

 46 46  0     1  0  0  0  0  0999 V2000
   -0.6012   -3.2995    3.8205 C   0  0  0  0  0  0  0  0  0  0  0  0
   -0.6574   -4.4683    3.4568 O   0  0  0  0  0  0  0  0  0  0  0  0
   -0.4935   -2.9859    5.2760 C   0  0  0  0  0  0  0  0  0  0  0  0
   -1.4789   -2.8689    5.7550 H   0  0  0  0  0  0  0  0  0  0  0  0
    0.0123   -3.7847    5.8419 H   0  0  0  0  0  0  0  0  0  0  0  0
    0.0585   -2.0642    5.5199 H   0  0  0  0  0  0  0  0  0  0  0  0
   -0.6261   -2.1849    2.9917 N   0  0  0  0  0  0  0  0  0  0  0  0
   -0.7237   -2.2601    1.5650 C   0  0  2  0  0  0  0  0  0  0  0  0
    0.1695   -1.1513    1.0687 C   0  0  0  0  0  0  0  0  0  0  0  0
    0.3193   -0.1267    1.7365 O   0  0  0  0  0  0  0  0  0  0  0  0
   -2.1397   -2.0663    1.0750 C   0  0  0  0  0  0  0  0  0  0  0  0
   -0.5717   -1.2606    3.4238 H   0  0  0  0  0  0  0  0  0  0  0  0
   -0.3076   -3.2111    1.2363 H   0  0  0  0  0  0  0  0  0  0  0  0
   -2.5584   -1.1089    1.4061 H   0  0  0  0  0  0  0  0  0  0  0  0
   -2.1682   -2.0790   -0.0197 H   0  0  0  0  0  0  0  0  0  0  0  0
   -2.7965   -2.8601    1.4459 H   0  0  0  0  0  0  0  0  0  0  0  0
    0.7724   -1.3745   -0.1593 N   0  0  0  0  0  0  0  0  0  0  0  0
    0.5614   -2.5964   -0.9244 C   0  0  2  0  0  0  0  0  0  0  0  0
    1.6157   -3.5728   -0.4972 C   0  0  0  0  0  0  0  0  0  0  0  0
    1.3758   -4.7741   -0.5305 O   0  0  0  0  0  0  0  0  0  0  0  0
    0.7345   -2.1771   -2.3796 C   0  0  0  0  0  0  0  0  0  0  0  0
    0.3244   -0.8671   -1.7112 C   0  0  0  0  0  0  0  0  0  0  0  0
    1.5408   -0.3981   -0.9273 C   0  0  0  0  0  0  0  0  0  0  0  0
   -0.4227   -3.0263   -0.7144 H   0  0  0  0  0  0  0  0  0  0  0  0
    0.0120   -2.7078   -3.0110 H   0  0  0  0  0  0  0  0  0  0  0  0
    1.7400   -2.3597   -2.7711 H   0  0  0  0  0  0  0  0  0  0  0  0
    0.0755   -0.1144   -2.4681 H   0  0  0  0  0  0  0  0  0  0  0  0
   -0.5410   -0.9920   -1.0542 H   0  0  0  0  0  0  0  0  0  0  0  0
    2.4811   -0.6014   -1.4471 H   0  0  0  0  0  0  0  0  0  0  0  0
    1.4806    0.6724   -0.7030 H   0  0  0  0  0  0  0  0  0  0  0  0
    2.8301   -2.6768   -0.0937 N   0  0  0  0  0  0  0  0  0  0  0  0
    4.0998   -3.2626    0.2719 C   0  0  2  0  0  0  0  0  0  0  0  0
    4.6868   -3.9244   -0.9679 C   0  0  0  0  0  0  0  0  0  0  0  0
    4.0031   -4.2805   -1.9255 O   0  0  0  0  0  0  0  0  0  0  0  0
    3.9404   -4.2687    1.4011 C   0  0  0  0  0  0  0  0  0  0  0  0
    2.7008   -1.6788    0.0432 H   0  0  0  0  0  0  0  0  0  0  0  0
    4.7487   -2.4389    0.5887 H   0  0  0  0  0  0  0  0  0  0  0  0
    3.2934   -5.1015    1.1022 H   0  0  0  0  0  0  0  0  0  0  0  0
    4.9069   -4.6905    1.6961 H   0  0  0  0  0  0  0  0  0  0  0  0
    3.4906   -3.7979    2.2819 H   0  0  0  0  0  0  0  0  0  0  0  0
    6.0581   -4.1096   -0.8610 N   0  0  0  0  0  0  0  0  0  0  0  0
    6.8447   -4.7288   -1.9021 C   0  0  0  0  0  0  0  0  0  0  0  0
    6.5460   -3.7662   -0.0390 H   0  0  0  0  0  0  0  0  0  0  0  0
    6.9236   -5.8089   -1.7094 H   0  0  0  0  0  0  0  0  0  0  0  0
    6.3589   -4.5646   -2.8752 H   0  0  0  0  0  0  0  0  0  0  0  0
    7.8508   -4.2842   -1.9148 H   0  0  0  0  0  0  0  0  0  0  0  0
 18 19  1  0  0  0  0
 19 31  1  0  0  0  0
 19 20  2  0  0  0  0
  8  9  1  0  0  0  0
  9 17  1  0  0  0  0
  9 10  2  0  0  0  0
  1  3  1  0  0  0  0
  1  7  1  0  0  0  0
  1  2  2  0  0  0  0
 32 33  1  0  0  0  0
 33 41  1  0  0  0  0
 33 34  2  0  0  0  0
 21 22  1  0  0  0  0
 22 23  1  0  0  0  0
 18 21  1  0  0  0  0
 17 23  1  0  0  0  0
 17 18  1  0  0  0  0
  8 11  1  0  0  0  0
 32 35  1  0  0  0  0
 41 42  1  0  0  0  0
  7  8  1  0  0  0  0
 31 32  1  0  0  0  0
 22 27  1  0  0  0  0
 22 28  1  0  0  0  0
 21 25  1  0  0  0  0
 21 26  1  0  0  0  0
 23 29  1  0  0  0  0
 23 30  1  0  0  0  0
 18 24  1  0  0  0  0
  3  4  1  0  0  0  0
  3  5  1  0  0  0  0
  3  6  1  0  0  0  0
 11 14  1  0  0  0  0
 11 15  1  0  0  0  0
 11 16  1  0  0  0  0
 35 38  1  0  0  0  0
 35 39  1  0  0  0  0
 35 40  1  0  0  0  0
 42 44  1  0  0  0  0
 42 45  1  0  0  0  0
 42 46  1  0  0  0  0
  8 13  1  0  0  0  0
 32 37  1  0  0  0  0
 31 36  1  0  0  0  0
 41 43  1  0  0  0  0
  7 12  1  0  0  0  0
M  END
$$$$

  -OEChem-05262214473D

 46 46  0     1  0  0  0  0  0999 V2000
   -0.6012   -3.2995    3.8205 C   0  0  0  0  0  0  0  0  0  0  0  0
   -0.6574   -4.4683    3.4568 O   0  0  0  0  0  0  0  0  0  0  0  0
   -0.4935   -2.9859    5.2760 C   0  0  0  0  0  0  0  0  0  0  0  0
   -1.4789   -2.8689    5.7550 H   0  0  0  0  0  0  0  0  0  0  0  0
    0.0123   -3.7847    5.8419 H   0  0  0  0  0  0  0  0  0  0  0  0
    0.0585   -2.0642    5.5199 H   0  0  0  0  0  0  0  0  0  0  0  0
   -0.6261   -2.1849    2.9917 N   0  0  0  0  0  0  0  0  0  0  0  0
   -0.7237   -2.2601    1.5650 C   0  0  2  0  0  0  0  0  0  0  0  0
    0.1695   -1.1513    1.0687 C   0  0  0  0  0  0  0  0  0  0  0  0
    0.3193   -0.1267    1.7365 O   0  0  0  0  0  0  0  0  0  0  0  0
   -2.1397   -2.0663    1.0750 C   0  0  0  0  0  0  0  0  0  0  0  0
   -0.5717   -1.2606    3.4238 H   0  0  0  0  0  0  0  0  0  0  0  0
   -0.3076   -3.2111    1.2363 H   0  0  0  0  0  0  0  0  0  0  0  0
   -2.5584   -1.1089    1.4061 H   0  0  0  0  0  0  0  0  0  0  0  0
   -2.1682   -2.0790   -0.0197 H   0  0  0  0  0  0  0  0  0  0  0  0
   -2.7965   -2.8601    1.4459 H   0  0  0  0  0  0  0  0  0  0  0  0
    0.7724   -1.3745   -0.1593 N   0  0  0  0  0  0  0  0  0  0  0  0
    0.5614   -2.5964   -0.9244 C   0  0  2  0  0  0  0  0  0  0  0  0
    1.6157   -3.5728   -0.4972 C   0  0  0  0  0  0  0  0  0  0  0  0
    1.4926   -4.7582   -0.7826 O   0  0  0  0  0  0  0  0  0  0  0  0
    0.7345   -2.1771   -2.3796 C   0  0  0  0  0  0  0  0  0  0  0  0
    0.3244   -0.8671   -1.7112 C   0  0  0  0  0  0  0  0  0  0  0  0
    1.5408   -0.3981   -0.9273 C   0  0  0  0  0  0  0  0  0  0  0  0
   -0.4227   -3.0263   -0.7144 H   0  0  0  0  0  0  0  0  0  0  0  0
    0.0120   -2.7078   -3.0110 H   0  0  0  0  0  0  0  0  0  0  0  0
    1.7400   -2.3597   -2.7711 H   0  0  0  0  0  0  0  0  0  0  0  0
    0.0755   -0.1144   -2.4681 H   0  0  0  0  0  0  0  0  0  0  0  0
   -0.5410   -0.9920   -1.0542 H   0  0  0  0  0  0  0  0  0  0  0  0
    2.4811   -0.6014   -1.4471 H   0  0  0  0  0  0  0  0  0  0  0  0
    1.4806    0.6724   -0.7030 H   0  0  0  0  0  0  0  0  0  0  0  0
    2.6639   -2.6998    0.2641 N   0  0  0  0  0  0  0  0  0  0  0  0
    3.9049   -3.2692    0.7380 C   0  0  2  0  0  0  0  0  0  0  0  0
    4.7414   -3.6503   -0.4763 C   0  0  0  0  0  0  0  0  0  0  0  0
    4.2563   -3.8588   -1.5863 O   0  0  0  0  0  0  0  0  0  0  0  0
    3.6555   -4.4774    1.6271 C   0  0  0  0  0  0  0  0  0  0  0  0
    2.4255   -1.7547    0.5494 H   0  0  0  0  0  0  0  0  0  0  0  0
    4.4178   -2.4835    1.3035 H   0  0  0  0  0  0  0  0  0  0  0  0
    3.1424   -5.2752    1.0778 H   0  0  0  0  0  0  0  0  0  0  0  0
    4.5954   -4.8903    2.0083 H   0  0  0  0  0  0  0  0  0  0  0  0
    3.0290   -4.2079    2.4842 H   0  0  0  0  0  0  0  0  0  0  0  0
    6.0883   -3.7723   -0.1647 N   0  0  0  0  0  0  0  0  0  0  0  0
    7.0851   -4.1375   -1.1440 C   0  0  0  0  0  0  0  0  0  0  0  0
    6.4043   -3.5620    0.7775 H   0  0  0  0  0  0  0  0  0  0  0  0
    7.2281   -5.2281   -1.1333 H   0  0  0  0  0  0  0  0  0  0  0  0
    6.7505   -3.8215   -2.1431 H   0  0  0  0  0  0  0  0  0  0  0  0
    8.0362   -3.6408   -0.9017 H   0  0  0  0  0  0  0  0  0  0  0  0
 18 19  1  0  0  0  0
 19 31  1  0  0  0  0
 19 20  2  0  0  0  0
  8  9  1  0  0  0  0
  9 17  1  0  0  0  0
  9 10  2  0  0  0  0
  1  3  1  0  0  0  0
  1  7  1  0  0  0  0
  1  2  2  0  0  0  0
 32 33  1  0  0  0  0
 33 41  1  0  0  0  0
 33 34  2  0  0  0  0
 21 22  1  0  0  0  0
 22 23  1  0  0  0  0
 18 21  1  0  0  0  0
 17 23  1  0  0  0  0
 17 18  1  0  0  0  0
  8 11  1  0  0  0  0
 32 35  1  0  0  0  0
 41 42  1  0  0  0  0
  7  8  1  0  0  0  0
 31 32  1  0  0  0  0
 22 27  1  0  0  0  0
 22 28  1  0  0  0  0
 21 25  1  0  0  0  0
 21 26  1  0  0  0  0
 23 29  1  0  0  0  0
 23 30  1  0  0  0  0
 18 24  1  0  0  0  0
  3  4  1  0  0  0  0
  3  5  1  0  0  0  0
  3  6  1  0  0  0  0
 11 14  1  0  0  0  0
 11 15  1  0  0  0  0
 11 16  1  0  0  0  0
 35 38  1  0  0  0  0
 35 39  1  0  0  0  0
 35 40  1  0  0  0  0
 42 44  1  0  0  0  0
 42 45  1  0  0  0  0
 42 46  1  0  0  0  0
  8 13  1  0  0  0  0
 32 37  1  0  0  0  0
 31 36  1  0  0  0  0
 41 43  1  0  0  0  0
  7 12  1  0  0  0  0
M  END
$$$$

  -OEChem-05262214473D

 46 46  0     1  0  0  0  0  0999 V2000
   -0.6012   -3.2995    3.8205 C   0  0  0  0  0  0  0  0  0  0  0  0
   -0.6574   -4.4683    3.4568 O   0  0  0  0  0  0  0  0  0  0  0  0
   -0.4935   -2.9859    5.2760 C   0  0  0  0  0  0  0  0  0  0  0  0
   -1.4789   -2.8689    5.7550 H   0  0  0  0  0  0  0  0  0  0  0  0
    0.0123   -3.7847    5.8419 H   0  0  0  0  0  0  0  0  0  0  0  0
    0.0585   -2.0642    5.5199 H   0  0  0  0  0  0  0  0  0  0  0  0
   -0.6261   -2.1849    2.9917 N   0  0  0  0  0  0  0  0  0  0  0  0
   -0.7237   -2.2601    1.5650 C   0  0  2  0  0  0  0  0  0  0  0  0
    0.1695   -1.1513    1.0687 C   0  0  0  0  0  0  0  0  0  0  0  0
    0.3193   -0.1267    1.7365 O   0  0  0  0  0  0  0  0  0  0  0  0
   -2.1397   -2.0663    1.0750 C   0  0  0  0  0  0  0  0  0  0  0  0
   -0.5717   -1.2606    3.4238 H   0  0  0  0  0  0  0  0  0  0  0  0
   -0.3076   -3.2111    1.2363 H   0  0  0  0  0  0  0  0  0  0  0  0
   -2.5584   -1.1089    1.4061 H   0  0  0  0  0  0  0  0  0  0  0  0
   -2.1682   -2.0790   -0.0197 H   0  0  0  0  0  0  0  0  0  0  0  0
   -2.7965   -2.8601    1.4459 H   0  0  0  0  0  0  0  0  0  0  0  0
    0.7724   -1.3745   -0.1593 N   0  0  0  0  0  0  0  0  0  0  0  0
    0.5614   -2.5964   -0.9244 C   0  0  2  0  0  0  0  0  0  0  0  0
    1.6157   -3.5728   -0.4972 C   0  0  0  0  0  0  0  0  0  0  0  0
    1.6468   -4.6883   -1.0035 O   0  0  0  0  0  0  0  0  0  0  0  0
    0.7345   -2.1771   -2.3796 C   0  0  0  0  0  0  0  0  0  0  0  0
    0.3244   -0.8671   -1.7112 C   0  0  0  0  0  0  0  0  0  0  0  0
    1.5408   -0.3981   -0.9273 C   0  0  0  0  0  0  0  0  0  0  0  0
   -0.4227   -3.0263   -0.7144 H   0  0  0  0  0  0  0  0  0  0  0  0
    0.0120   -2.7078   -3.0110 H   0  0  0  0  0  0  0  0  0  0  0  0
    1.7400   -2.3597   -2.7711 H   0  0  0  0  0  0  0  0  0  0  0  0
    0.0755   -0.1144   -2.4681 H   0  0  0  0  0  0  0  0  0  0  0  0
   -0.5410   -0.9920   -1.0542 H   0  0  0  0  0  0  0  0  0  0  0  0
    2.4811   -0.6014   -1.4471 H   0  0  0  0  0  0  0  0  0  0  0  0
    1.4806    0.6724   -0.7030 H   0  0  0  0  0  0  0  0  0  0  0  0
    2.4446   -2.7994    0.5776 N   0  0  0  0  0  0  0  0  0  0  0  0
    3.6386   -3.3747    1.1542 C   0  0  2  0  0  0  0  0  0  0  0  0
    4.6911   -3.4710    0.0577 C   0  0  0  0  0  0  0  0  0  0  0  0
    4.4125   -3.4945   -1.1393 O   0  0  0  0  0  0  0  0  0  0  0  0
    3.3576   -4.7412    1.7595 C   0  0  0  0  0  0  0  0  0  0  0  0
    2.0798   -1.9404    0.9781 H   0  0  0  0  0  0  0  0  0  0  0  0
    3.9809   -2.6811    1.9300 H   0  0  0  0  0  0  0  0  0  0  0  0
    3.0135   -5.4497    0.9972 H   0  0  0  0  0  0  0  0  0  0  0  0
    4.2565   -5.1631    2.2211 H   0  0  0  0  0  0  0  0  0  0  0  0
    2.5791   -4.6748    2.5272 H   0  0  0  0  0  0  0  0  0  0  0  0
    5.9754   -3.5709    0.5744 N   0  0  0  0  0  0  0  0  0  0  0  0
    7.1460   -3.6866   -0.2636 C   0  0  0  0  0  0  0  0  0  0  0  0
    6.1147   -3.5239    1.5794 H   0  0  0  0  0  0  0  0  0  0  0  0
    7.3822   -4.7495   -0.4198 H   0  0  0  0  0  0  0  0  0  0  0  0
    6.9505   -3.2081   -1.2346 H   0  0  0  0  0  0  0  0  0  0  0  0
    7.9972   -3.1900    0.2252 H   0  0  0  0  0  0  0  0  0  0  0  0
 18 19  1  0  0  0  0
 19 31  1  0  0  0  0
 19 20  2  0  0  0  0
  8  9  1  0  0  0  0
  9 17  1  0  0  0  0
  9 10  2  0  0  0  0
  1  3  1  0  0  0  0
  1  7  1  0  0  0  0
  1  2  2  0  0  0  0
 32 33  1  0  0  0  0
 33 41  1  0  0  0  0
 33 34  2  0  0  0  0
 21 22  1  0  0  0  0
 22 23  1  0  0  0  0
 18 21  1  0  0  0  0
 17 23  1  0  0  0  0
 17 18  1  0  0  0  0
  8 11  1  0  0  0  0
 32 35  1  0  0  0  0
 41 42  1  0  0  0  0
  7  8  1  0  0  0  0
 31 32  1  0  0  0  0
 22 27  1  0  0  0  0
 22 28  1  0  0  0  0
 21 25  1  0  0  0  0
 21 26  1  0  0  0  0
 23 29  1  0  0  0  0
 23 30  1  0  0  0  0
 18 24  1  0  0  0  0
  3  4  1  0  0  0  0
  3  5  1  0  0  0  0
  3  6  1  0  0  0  0
 11 14  1  0  0  0  0
 11 15  1  0  0  0  0
 11 16  1  0  0  0  0
 35 38  1  0  0  0  0
 35 39  1  0  0  0  0
 35 40  1  0  0  0  0
 42 44  1  0  0  0  0
 42 45  1  0  0  0  0
 42 46  1  0  0  0  0
  8 13  1  0  0  0  0
 32 37  1  0  0  0  0
 31 36  1  0  0  0  0
 41 43  1  0  0  0  0
  7 12  1  0  0  0  0
M  END
$$$$

  -OEChem-05262214473D

 46 46  0     1  0  0  0  0  0999 V2000
   -0.6012   -3.2995    3.8205 C   0  0  0  0  0  0  0  0  0  0  0  0
   -0.6574   -4.4683    3.4568 O   0  0  0  0  0  0  0  0  0  0  0  0
   -0.4935   -2.9859    5.2760 C   0  0  0  0  0  0  0  0  0  0  0  0
   -1.4789   -2.8689    5.7550 H   0  0  0  0  0  0  0  0  0  0  0  0
    0.0123   -3.7847    5.8419 H   0  0  0  0  0  0  0  0  0  0  0  0
    0.0585   -2.0642    5.5199 H   0  0  0  0  0  0  0  0  0  0  0  0
   -0.6261   -2.1849    2.9917 N   0  0  0  0  0  0  0  0  0  0  0  0
   -0.7237   -2.2601    1.5650 C   0  0  2  0  0  0  0  0  0  0  0  0
    0.1695   -1.1513    1.0687 C   0  0  0  0  0  0  0  0  0  0  0  0
    0.3193   -0.1267    1.7365 O   0  0  0  0  0  0  0  0  0  0  0  0
   -2.1397   -2.0663    1.0750 C   0  0  0  0  0  0  0  0  0  0  0  0
   -0.5717   -1.2606    3.4238 H   0  0  0  0  0  0  0  0  0  0  0  0
   -0.3076   -3.2111    1.2363 H   0  0  0  0  0  0  0  0  0  0  0  0
   -2.5584   -1.1089    1.4061 H   0  0  0  0  0  0  0  0  0  0  0  0
   -2.1682   -2.0790   -0.0197 H   0  0  0  0  0  0  0  0  0  0  0  0
   -2.7965   -2.8601    1.4459 H   0  0  0  0  0  0  0  0  0  0  0  0
    0.7724   -1.3745   -0.1593 N   0  0  0  0  0  0  0  0  0  0  0  0
    0.5614   -2.5964   -0.9244 C   0  0  2  0  0  0  0  0  0  0  0  0
    1.6157   -3.5728   -0.4972 C   0  0  0  0  0  0  0  0  0  0  0  0
    1.8279   -4.5693   -1.1782 O   0  0  0  0  0  0  0  0  0  0  0  0
    0.7345   -2.1771   -2.3796 C   0  0  0  0  0  0  0  0  0  0  0  0
    0.3244   -0.8671   -1.7112 C   0  0  0  0  0  0  0  0  0  0  0  0
    1.5408   -0.3981   -0.9273 C   0  0  0  0  0  0  0  0  0  0  0  0
   -0.4227   -3.0263   -0.7144 H   0  0  0  0  0  0  0  0  0  0  0  0
    0.0120   -2.7078   -3.0110 H   0  0  0  0  0  0  0  0  0  0  0  0
    1.7400   -2.3597   -2.7711 H   0  0  0  0  0  0  0  0  0  0  0  0
    0.0755   -0.1144   -2.4681 H   0  0  0  0  0  0  0  0  0  0  0  0
   -0.5410   -0.9920   -1.0542 H   0  0  0  0  0  0  0  0  0  0  0  0
    2.4811   -0.6014   -1.4471 H   0  0  0  0  0  0  0  0  0  0  0  0
    1.4806    0.6724   -0.7030 H   0  0  0  0  0  0  0  0  0  0  0  0
    2.1874   -2.9688    0.8252 N   0  0  0  0  0  0  0  0  0  0  0  0
    3.3189   -3.5720    1.4922 C   0  0  2  0  0  0  0  0  0  0  0  0
    4.5393   -3.3987    0.5977 C   0  0  0  0  0  0  0  0  0  0  0  0
    4.4612   -3.2125   -0.6149 O   0  0  0  0  0  0  0  0  0  0  0  0
    3.0670   -5.0421    1.7891 C   0  0  0  0  0  0  0  0  0  0  0  0
    1.6873   -2.2233    1.3002 H   0  0  0  0  0  0  0  0  0  0  0  0
    3.4679   -3.0183    2.4255 H   0  0  0  0  0  0  0  0  0  0  0  0
    2.9154   -5.6131    0.8658 H   0  0  0  0  0  0  0  0  0  0  0  0
    3.9134   -5.4904    2.3197 H   0  0  0  0  0  0  0  0  0  0  0  0
    2.1718   -5.1668    2.4079 H   0  0  0  0  0  0  0  0  0  0  0  0
    5.7268   -3.5193    1.3058 N   0  0  0  0  0  0  0  0  0  0  0  0
    7.0232   -3.4069    0.6791 C   0  0  0  0  0  0  0  0  0  0  0  0
    5.6970   -3.6545    2.3121 H   0  0  0  0  0  0  0  0  0  0  0  0
    7.3755   -4.4058    0.3825 H   0  0  0  0  0  0  0  0  0  0  0  0
    6.9453   -2.7662   -0.2117 H   0  0  0  0  0  0  0  0  0  0  0  0
    7.7362   -2.9625    1.3891 H   0  0  0  0  0  0  0  0  0  0  0  0
 18 19  1  0  0  0  0
 19 31  1  0  0  0  0
 19 20  2  0  0  0  0
  8  9  1  0  0  0  0
  9 17  1  0  0  0  0
  9 10  2  0  0  0  0
  1  3  1  0  0  0  0
  1  7  1  0  0  0  0
  1  2  2  0  0  0  0
 32 33  1  0  0  0  0
 33 41  1  0  0  0  0
 33 34  2  0  0  0  0
 21 22  1  0  0  0  0
 22 23  1  0  0  0  0
 18 21  1  0  0  0  0
 17 23  1  0  0  0  0
 17 18  1  0  0  0  0
  8 11  1  0  0  0  0
 32 35  1  0  0  0  0
 41 42  1  0  0  0  0
  7  8  1  0  0  0  0
 31 32  1  0  0  0  0
 22 27  1  0  0  0  0
 22 28  1  0  0  0  0
 21 25  1  0  0  0  0
 21 26  1  0  0  0  0
 23 29  1  0  0  0  0
 23 30  1  0  0  0  0
 18 24  1  0  0  0  0
  3  4  1  0  0  0  0
  3  5  1  0  0  0  0
  3  6  1  0  0  0  0
 11 14  1  0  0  0  0
 11 15  1  0  0  0  0
 11 16  1  0  0  0  0
 35 38  1  0  0  0  0
 35 39  1  0  0  0  0
 35 40  1  0  0  0  0
 42 44  1  0  0  0  0
 42 45  1  0  0  0  0
 42 46  1  0  0  0  0
  8 13  1  0  0  0  0
 32 37  1  0  0  0  0
 31 36  1  0  0  0  0
 41 43  1  0  0  0  0
  7 12  1  0  0  0  0
M  END
$$$$

  -OEChem-05262214473D

 46 46  0     1  0  0  0  0  0999 V2000
   -0.6012   -3.2995    3.8205 C   0  0  0  0  0  0  0  0  0  0  0  0
   -0.6574   -4.4683    3.4568 O   0  0  0  0  0  0  0  0  0  0  0  0
   -0.4935   -2.9859    5.2760 C   0  0  0  0  0  0  0  0  0  0  0  0
   -1.4789   -2.8689    5.7550 H   0  0  0  0  0  0  0  0  0  0  0  0
    0.0123   -3.7847    5.8419 H   0  0  0  0  0  0  0  0  0  0  0  0
    0.0585   -2.0642    5.5199 H   0  0  0  0  0  0  0  0  0  0  0  0
   -0.6261   -2.1849    2.9917 N   0  0  0  0  0  0  0  0  0  0  0  0
   -0.7237   -2.2601    1.5650 C   0  0  2  0  0  0  0  0  0  0  0  0
    0.1695   -1.1513    1.0687 C   0  0  0  0  0  0  0  0  0  0  0  0
    0.3193   -0.1267    1.7365 O   0  0  0  0  0  0  0  0  0  0  0  0
   -2.1397   -2.0663    1.0750 C   0  0  0  0  0  0  0  0  0  0  0  0
   -0.5717   -1.2606    3.4238 H   0  0  0  0  0  0  0  0  0  0  0  0
   -0.3076   -3.2111    1.2363 H   0  0  0  0  0  0  0  0  0  0  0  0
   -2.5584   -1.1089    1.4061 H   0  0  0  0  0  0  0  0  0  0  0  0
   -2.1682   -2.0790   -0.0197 H   0  0  0  0  0  0  0  0  0  0  0  0
   -2.7965   -2.8601    1.4459 H   0  0  0  0  0  0  0  0  0  0  0  0
    0.7724   -1.3745   -0.1593 N   0  0  0  0  0  0  0  0  0  0  0  0
    0.5614   -2.5964   -0.9244 C   0  0  2  0  0  0  0  0  0  0  0  0
    1.6157   -3.5728   -0.4972 C   0  0  0  0  0  0  0  0  0  0  0  0
    2.0234   -4.4091   -1.2948 O   0  0  0  0  0  0  0  0  0  0  0  0
    0.7345   -2.1771   -2.3796 C   0  0  0  0  0  0  0  0  0  0  0  0
    0.3244   -0.8671   -1.7112 C   0  0  0  0  0  0  0  0  0  0  0  0
    1.5408   -0.3981   -0.9273 C   0  0  0  0  0  0  0  0  0  0  0  0
   -0.4227   -3.0263   -0.7144 H   0  0  0  0  0  0  0  0  0  0  0  0
    0.0120   -2.7078   -3.0110 H   0  0  0  0  0  0  0  0  0  0  0  0
    1.7400   -2.3597   -2.7711 H   0  0  0  0  0  0  0  0  0  0  0  0
    0.0755   -0.1144   -2.4681 H   0  0  0  0  0  0  0  0  0  0  0  0
   -0.5410   -0.9920   -1.0542 H   0  0  0  0  0  0  0  0  0  0  0  0
    2.4811   -0.6014   -1.4471 H   0  0  0  0  0  0  0  0  0  0  0  0
    1.4806    0.6724   -0.7030 H   0  0  0  0  0  0  0  0  0  0  0  0
    1.9097   -3.1965    0.9902 N   0  0  0  0  0  0  0  0  0  0  0  0
    2.9678   -3.8477    1.7288 C   0  0  2  0  0  0  0  0  0  0  0  0
    4.2963   -3.4383    1.1068 C   0  0  0  0  0  0  0  0  0  0  0  0
    4.3991   -3.0320   -0.0488 O   0  0  0  0  0  0  0  0  0  0  0  0
    2.8035   -5.3595    1.7139 C   0  0  0  0  0  0  0  0  0  0  0  0
    1.2748   -2.5842    1.4936 H   0  0  0  0  0  0  0  0  0  0  0  0
    2.9137   -3.4719    2.7564 H   0  0  0  0  0  0  0  0  0  0  0  0
    2.8548   -5.7542    0.6927 H   0  0  0  0  0  0  0  0  0  0  0  0
    3.5896   -5.8497    2.2977 H   0  0  0  0  0  0  0  0  0  0  0  0
    1.8348   -5.6504    2.1344 H   0  0  0  0  0  0  0  0  0  0  0  0
    5.3596   -3.6210    1.9799 N   0  0  0  0  0  0  0  0  0  0  0  0
    6.7249   -3.3173    1.6199 C   0  0  0  0  0  0  0  0  0  0  0  0
    5.1796   -3.9447    2.9257 H   0  0  0  0  0  0  0  0  0  0  0  0
    7.2085   -4.2203    1.2189 H   0  0  0  0  0  0  0  0  0  0  0  0
    6.7353   -2.5260    0.8559 H   0  0  0  0  0  0  0  0  0  0  0  0
    7.2712   -2.9740    2.5109 H   0  0  0  0  0  0  0  0  0  0  0  0
 18 19  1  0  0  0  0
 19 31  1  0  0  0  0
 19 20  2  0  0  0  0
  8  9  1  0  0  0  0
  9 17  1  0  0  0  0
  9 10  2  0  0  0  0
  1  3  1  0  0  0  0
  1  7  1  0  0  0  0
  1  2  2  0  0  0  0
 32 33  1  0  0  0  0
 33 41  1  0  0  0  0
 33 34  2  0  0  0  0
 21 22  1  0  0  0  0
 22 23  1  0  0  0  0
 18 21  1  0  0  0  0
 17 23  1  0  0  0  0
 17 18  1  0  0  0  0
  8 11  1  0  0  0  0
 32 35  1  0  0  0  0
 41 42  1  0  0  0  0
  7  8  1  0  0  0  0
 31 32  1  0  0  0  0
 22 27  1  0  0  0  0
 22 28  1  0  0  0  0
 21 25  1  0  0  0  0
 21 26  1  0  0  0  0
 23 29  1  0  0  0  0
 23 30  1  0  0  0  0
 18 24  1  0  0  0  0
  3  4  1  0  0  0  0
  3  5  1  0  0  0  0
  3  6  1  0  0  0  0
 11 14  1  0  0  0  0
 11 15  1  0  0  0  0
 11 16  1  0  0  0  0
 35 38  1  0  0  0  0
 35 39  1  0  0  0  0
 35 40  1  0  0  0  0
 42 44  1  0  0  0  0
 42 45  1  0  0  0  0
 42 46  1  0  0  0  0
  8 13  1  0  0  0  0
 32 37  1  0  0  0  0
 31 36  1  0  0  0  0
 41 43  1  0  0  0  0
  7 12  1  0  0  0  0
M  END
$$$$

  -OEChem-05262214473D

 46 46  0     1  0  0  0  0  0999 V2000
   -0.6012   -3.2995    3.8205 C   0  0  0  0  0  0  0  0  0  0  0  0
   -0.6574   -4.4683    3.4568 O   0  0  0  0  0  0  0  0  0  0  0  0
   -0.4935   -2.9859    5.2760 C   0  0  0  0  0  0  0  0  0  0  0  0
   -1.4789   -2.8689    5.7550 H   0  0  0  0  0  0  0  0  0  0  0  0
    0.0123   -3.7847    5.8419 H   0  0  0  0  0  0  0  0  0  0  0  0
    0.0585   -2.0642    5.5199 H   0  0  0  0  0  0  0  0  0  0  0  0
   -0.6261   -2.1849    2.9917 N   0  0  0  0  0  0  0  0  0  0  0  0
   -0.7237   -2.2601    1.5650 C   0  0  2  0  0  0  0  0  0  0  0  0
    0.1695   -1.1513    1.0687 C   0  0  0  0  0  0  0  0  0  0  0  0
    0.3193   -0.1267    1.7365 O   0  0  0  0  0  0  0  0  0  0  0  0
   -2.1397   -2.0663    1.0750 C   0  0  0  0  0  0  0  0  0  0  0  0
   -0.5717   -1.2606    3.4238 H   0  0  0  0  0  0  0  0  0  0  0  0
   -0.3076   -3.2111    1.2363 H   0  0  0  0  0  0  0  0  0  0  0  0
   -2.5584   -1.1089    1.4061 H   0  0  0  0  0  0  0  0  0  0  0  0
   -2.1682   -2.0790   -0.0197 H   0  0  0  0  0  0  0  0  0  0  0  0
   -2.7965   -2.8601    1.4459 H   0  0  0  0  0  0  0  0  0  0  0  0
    0.7724   -1.3745   -0.1593 N   0  0  0  0  0  0  0  0  0  0  0  0
    0.5614   -2.5964   -0.9244 C   0  0  2  0  0  0  0  0  0  0  0  0
    1.6157   -3.5728   -0.4972 C   0  0  0  0  0  0  0  0  0  0  0  0
    2.2201   -4.2188   -1.3452 O   0  0  0  0  0  0  0  0  0  0  0  0
    0.7345   -2.1771   -2.3796 C   0  0  0  0  0  0  0  0  0  0  0  0
    0.3244   -0.8671   -1.7112 C   0  0  0  0  0  0  0  0  0  0  0  0
    1.5408   -0.3981   -0.9273 C   0  0  0  0  0  0  0  0  0  0  0  0
   -0.4227   -3.0263   -0.7144 H   0  0  0  0  0  0  0  0  0  0  0  0
    0.0120   -2.7078   -3.0110 H   0  0  0  0  0  0  0  0  0  0  0  0
    1.7400   -2.3597   -2.7711 H   0  0  0  0  0  0  0  0  0  0  0  0
    0.0755   -0.1144   -2.4681 H   0  0  0  0  0  0  0  0  0  0  0  0
   -0.5410   -0.9920   -1.0542 H   0  0  0  0  0  0  0  0  0  0  0  0
    2.4811   -0.6014   -1.4471 H   0  0  0  0  0  0  0  0  0  0  0  0
    1.4806    0.6724   -0.7030 H   0  0  0  0  0  0  0  0  0  0  0  0
    1.6304   -3.4669    1.0614 N   0  0  0  0  0  0  0  0  0  0  0  0
    2.6090   -4.1829    1.8480 C   0  0  2  0  0  0  0  0  0  0  0  0
    3.9787   -3.5872    1.5504 C   0  0  0  0  0  0  0  0  0  0  0  0
    4.2303   -2.9653    0.5204 O   0  0  0  0  0  0  0  0  0  0  0  0
    2.5850   -5.6718    1.5392 C   0  0  0  0  0  0  0  0  0  0  0  0
    0.8703   -2.9983    1.5452 H   0  0  0  0  0  0  0  0  0  0  0  0
    2.3561   -4.0113    2.8999 H   0  0  0  0  0  0  0  0  0  0  0  0
    2.8360   -5.8635    0.4895 H   0  0  0  0  0  0  0  0  0  0  0  0
    3.3070   -6.2167    2.1564 H   0  0  0  0  0  0  0  0  0  0  0  0
    1.5910   -6.0925    1.7254 H   0  0  0  0  0  0  0  0  0  0  0  0
    4.8988   -3.8689    2.5506 N   0  0  0  0  0  0  0  0  0  0  0  0
    6.2717   -3.4240    2.4947 C   0  0  0  0  0  0  0  0  0  0  0  0
    4.5978   -4.3749    3.3783 H   0  0  0  0  0  0  0  0  0  0  0  0
    6.8924   -4.2057    2.0324 H   0  0  0  0  0  0  0  0  0  0  0  0
    6.3347   -2.5037    1.8955 H   0  0  0  0  0  0  0  0  0  0  0  0
    6.6337   -3.2235    3.5139 H   0  0  0  0  0  0  0  0  0  0  0  0
 18 19  1  0  0  0  0
 19 31  1  0  0  0  0
 19 20  2  0  0  0  0
  8  9  1  0  0  0  0
  9 17  1  0  0  0  0
  9 10  2  0  0  0  0
  1  3  1  0  0  0  0
  1  7  1  0  0  0  0
  1  2  2  0  0  0  0
 32 33  1  0  0  0  0
 33 41  1  0  0  0  0
 33 34  2  0  0  0  0
 21 22  1  0  0  0  0
 22 23  1  0  0  0  0
 18 21  1  0  0  0  0
 17 23  1  0  0  0  0
 17 18  1  0  0  0  0
  8 11  1  0  0  0  0
 32 35  1  0  0  0  0
 41 42  1  0  0  0  0
  7  8  1  0  0  0  0
 31 32  1  0  0  0  0
 22 27  1  0  0  0  0
 22 28  1  0  0  0  0
 21 25  1  0  0  0  0
 21 26  1  0  0  0  0
 23 29  1  0  0  0  0
 23 30  1  0  0  0  0
 18 24  1  0  0  0  0
  3  4  1  0  0  0  0
  3  5  1  0  0  0  0
  3  6  1  0  0  0  0
 11 14  1  0  0  0  0
 11 15  1  0  0  0  0
 11 16  1  0  0  0  0
 35 38  1  0  0  0  0
 35 39  1  0  0  0  0
 35 40  1  0  0  0  0
 42 44  1  0  0  0  0
 42 45  1  0  0  0  0
 42 46  1  0  0  0  0
  8 13  1  0  0  0  0
 32 37  1  0  0  0  0
 31 36  1  0  0  0  0
 41 43  1  0  0  0  0
  7 12  1  0  0  0  0
M  END
$$$$

  -OEChem-05262214473D

 46 46  0     1  0  0  0  0  0999 V2000
   -0.6012   -3.2995    3.8205 C   0  0  0  0  0  0  0  0  0  0  0  0
   -0.6574   -4.4683    3.4568 O   0  0  0  0  0  0  0  0  0  0  0  0
   -0.4935   -2.9859    5.2760 C   0  0  0  0  0  0  0  0  0  0  0  0
   -1.4789   -2.8689    5.7550 H   0  0  0  0  0  0  0  0  0  0  0  0
    0.0123   -3.7847    5.8419 H   0  0  0  0  0  0  0  0  0  0  0  0
    0.0585   -2.0642    5.5199 H   0  0  0  0  0  0  0  0  0  0  0  0
   -0.6261   -2.1849    2.9917 N   0  0  0  0  0  0  0  0  0  0  0  0
   -0.7237   -2.2601    1.5650 C   0  0  2  0  0  0  0  0  0  0  0  0
    0.1695   -1.1513    1.0687 C   0  0  0  0  0  0  0  0  0  0  0  0
    0.3193   -0.1267    1.7365 O   0  0  0  0  0  0  0  0  0  0  0  0
   -2.1397   -2.0663    1.0750 C   0  0  0  0  0  0  0  0  0  0  0  0
   -0.5717   -1.2606    3.4238 H   0  0  0  0  0  0  0  0  0  0  0  0
   -0.3076   -3.2111    1.2363 H   0  0  0  0  0  0  0  0  0  0  0  0
   -2.5584   -1.1089    1.4061 H   0  0  0  0  0  0  0  0  0  0  0  0
   -2.1682   -2.0790   -0.0197 H   0  0  0  0  0  0  0  0  0  0  0  0
   -2.7965   -2.8601    1.4459 H   0  0  0  0  0  0  0  0  0  0  0  0
    0.7724   -1.3745   -0.1593 N   0  0  0  0  0  0  0  0  0  0  0  0
    0.5614   -2.5964   -0.9244 C   0  0  2  0  0  0  0  0  0  0  0  0
    1.6157   -3.5728   -0.4972 C   0  0  0  0  0  0  0  0  0  0  0  0
    2.4046   -4.0113   -1.3261 O   0  0  0  0  0  0  0  0  0  0  0  0
    0.7345   -2.1771   -2.3796 C   0  0  0  0  0  0  0  0  0  0  0  0
    0.3244   -0.8671   -1.7112 C   0  0  0  0  0  0  0  0  0  0  0  0
    1.5408   -0.3981   -0.9273 C   0  0  0  0  0  0  0  0  0  0  0  0
   -0.4227   -3.0263   -0.7144 H   0  0  0  0  0  0  0  0  0  0  0  0
    0.0120   -2.7078   -3.0110 H   0  0  0  0  0  0  0  0  0  0  0  0
    1.7400   -2.3597   -2.7711 H   0  0  0  0  0  0  0  0  0  0  0  0
    0.0755   -0.1144   -2.4681 H   0  0  0  0  0  0  0  0  0  0  0  0
   -0.5410   -0.9920   -1.0542 H   0  0  0  0  0  0  0  0  0  0  0  0
    2.4811   -0.6014   -1.4471 H   0  0  0  0  0  0  0  0  0  0  0  0
    1.4806    0.6724   -0.7030 H   0  0  0  0  0  0  0  0  0  0  0  0
    1.3686   -3.7617    1.0338 N   0  0  0  0  0  0  0  0  0  0  0  0
    2.2671   -4.5549    1.8416 C   0  0  2  0  0  0  0  0  0  0  0  0
    3.6081   -3.8352    1.8982 C   0  0  0  0  0  0  0  0  0  0  0  0
    3.9664   -3.0168    1.0539 O   0  0  0  0  0  0  0  0  0  0  0  0
    2.4265   -5.9578    1.2766 C   0  0  0  0  0  0  0  0  0  0  0  0
    0.5015   -3.4376    1.4514 H   0  0  0  0  0  0  0  0  0  0  0  0
    1.8331   -4.5994    2.8464 H   0  0  0  0  0  0  0  0  0  0  0  0
    2.8600   -5.9335    0.2702 H   0  0  0  0  0  0  0  0  0  0  0  0
    3.0849   -6.5663    1.9054 H   0  0  0  0  0  0  0  0  0  0  0  0
    1.4571   -6.4632    1.2088 H   0  0  0  0  0  0  0  0  0  0  0  0
    4.3757   -4.2463    2.9790 N   0  0  0  0  0  0  0  0  0  0  0  0
    5.6943   -3.7198    3.2439 C   0  0  0  0  0  0  0  0  0  0  0  0
    3.9913   -4.9157    3.6391 H   0  0  0  0  0  0  0  0  0  0  0  0
    6.4490   -4.3629    2.7676 H   0  0  0  0  0  0  0  0  0  0  0  0
    5.7709   -2.7010    2.8361 H   0  0  0  0  0  0  0  0  0  0  0  0
    5.8673   -3.6941    4.3299 H   0  0  0  0  0  0  0  0  0  0  0  0
 18 19  1  0  0  0  0
 19 31  1  0  0  0  0
 19 20  2  0  0  0  0
  8  9  1  0  0  0  0
  9 17  1  0  0  0  0
  9 10  2  0  0  0  0
  1  3  1  0  0  0  0
  1  7  1  0  0  0  0
  1  2  2  0  0  0  0
 32 33  1  0  0  0  0
 33 41  1  0  0  0  0
 33 34  2  0  0  0  0
 21 22  1  0  0  0  0
 22 23  1  0  0  0  0
 18 21  1  0  0  0  0
 17 23  1  0  0  0  0
 17 18  1  0  0  0  0
  8 11  1  0  0  0  0
 32 35  1  0  0  0  0
 41 42  1  0  0  0  0
  7  8  1  0  0  0  0
 31 32  1  0  0  0  0
 22 27  1  0  0  0  0
 22 28  1  0  0  0  0
 21 25  1  0  0  0  0
 21 26  1  0  0  0  0
 23 29  1  0  0  0  0
 23 30  1  0  0  0  0
 18 24  1  0  0  0  0
  3  4  1  0  0  0  0
  3  5  1  0  0  0  0
  3  6  1  0  0  0  0
 11 14  1  0  0  0  0
 11 15  1  0  0  0  0
 11 16  1  0  0  0  0
 35 38  1  0  0  0  0
 35 39  1  0  0  0  0
 35 40  1  0  0  0  0
 42 44  1  0  0  0  0
 42 45  1  0  0  0  0
 42 46  1  0  0  0  0
  8 13  1  0  0  0  0
 32 37  1  0  0  0  0
 31 36  1  0  0  0  0
 41 43  1  0  0  0  0
  7 12  1  0  0  0  0
M  END
$$$$

  -OEChem-05262214473D

 46 46  0     1  0  0  0  0  0999 V2000
   -0.6012   -3.2995    3.8205 C   0  0  0  0  0  0  0  0  0  0  0  0
   -0.6574   -4.4683    3.4568 O   0  0  0  0  0  0  0  0  0  0  0  0
   -0.4935   -2.9859    5.2760 C   0  0  0  0  0  0  0  0  0  0  0  0
   -1.4789   -2.8689    5.7550 H   0  0  0  0  0  0  0  0  0  0  0  0
    0.0123   -3.7847    5.8419 H   0  0  0  0  0  0  0  0  0  0  0  0
    0.0585   -2.0642    5.5199 H   0  0  0  0  0  0  0  0  0  0  0  0
   -0.6261   -2.1849    2.9917 N   0  0  0  0  0  0  0  0  0  0  0  0
   -0.7237   -2.2601    1.5650 C   0  0  2  0  0  0  0  0  0  0  0  0
    0.1695   -1.1513    1.0687 C   0  0  0  0  0  0  0  0  0  0  0  0
    0.3193   -0.1267    1.7365 O   0  0  0  0  0  0  0  0  0  0  0  0
   -2.1397   -2.0663    1.0750 C   0  0  0  0  0  0  0  0  0  0  0  0
   -0.5717   -1.2606    3.4238 H   0  0  0  0  0  0  0  0  0  0  0  0
   -0.3076   -3.2111    1.2363 H   0  0  0  0  0  0  0  0  0  0  0  0
   -2.5584   -1.1089    1.4061 H   0  0  0  0  0  0  0  0  0  0  0  0
   -2.1682   -2.0790   -0.0197 H   0  0  0  0  0  0  0  0  0  0  0  0
   -2.7965   -2.8601    1.4459 H   0  0  0  0  0  0  0  0  0  0  0  0
    0.7724   -1.3745   -0.1593 N   0  0  0  0  0  0  0  0  0  0  0  0
    0.5614   -2.5964   -0.9244 C   0  0  2  0  0  0  0  0  0  0  0  0
    1.6157   -3.5728   -0.4972 C   0  0  0  0  0  0  0  0  0  0  0  0
    2.5642   -3.8007   -1.2389 O   0  0  0  0  0  0  0  0  0  0  0  0
    0.7345   -2.1771   -2.3796 C   0  0  0  0  0  0  0  0  0  0  0  0
    0.3244   -0.8671   -1.7112 C   0  0  0  0  0  0  0  0  0  0  0  0
    1.5408   -0.3981   -0.9273 C   0  0  0  0  0  0  0  0  0  0  0  0
   -0.4227   -3.0263   -0.7144 H   0  0  0  0  0  0  0  0  0  0  0  0
    0.0120   -2.7078   -3.0110 H   0  0  0  0  0  0  0  0  0  0  0  0
    1.7400   -2.3597   -2.7711 H   0  0  0  0  0  0  0  0  0  0  0  0
    0.0755   -0.1144   -2.4681 H   0  0  0  0  0  0  0  0  0  0  0  0
   -0.5410   -0.9920   -1.0542 H   0  0  0  0  0  0  0  0  0  0  0  0
    2.4811   -0.6014   -1.4471 H   0  0  0  0  0  0  0  0  0  0  0  0
    1.4806    0.6724   -0.7030 H   0  0  0  0  0  0  0  0  0  0  0  0
    1.1421   -4.0607    0.9093 N   0  0  0  0  0  0  0  0  0  0  0  0
    1.9653   -4.9383    1.7101 C   0  0  2  0  0  0  0  0  0  0  0  0
    3.2098   -4.1654    2.1266 C   0  0  0  0  0  0  0  0  0  0  0  0
    3.6253   -3.1832    1.5153 O   0  0  0  0  0  0  0  0  0  0  0  0
    2.3388   -6.1980    0.9443 C   0  0  0  0  0  0  0  0  0  0  0  0
    0.1934   -3.8720    1.2188 H   0  0  0  0  0  0  0  0  0  0  0  0
    1.3802   -5.1964    2.5995 H   0  0  0  0  0  0  0  0  0  0  0  0
    2.9254   -5.9593    0.0497 H   0  0  0  0  0  0  0  0  0  0  0  0
    2.9385   -6.8747    1.5619 H   0  0  0  0  0  0  0  0  0  0  0  0
    1.4421   -6.7370    0.6197 H   0  0  0  0  0  0  0  0  0  0  0  0
    3.8261   -4.7273    3.2359 N   0  0  0  0  0  0  0  0  0  0  0  0
    5.0321   -4.1844    3.8163 C   0  0  0  0  0  0  0  0  0  0  0  0
    3.4013   -5.5303    3.6903 H   0  0  0  0  0  0  0  0  0  0  0  0
    5.9083   -4.6813    3.3743 H   0  0  0  0  0  0  0  0  0  0  0  0
    5.0823   -3.1044    3.6138 H   0  0  0  0  0  0  0  0  0  0  0  0
    5.0242   -4.3537    4.9032 H   0  0  0  0  0  0  0  0  0  0  0  0
 18 19  1  0  0  0  0
 19 31  1  0  0  0  0
 19 20  2  0  0  0  0
  8  9  1  0  0  0  0
  9 17  1  0  0  0  0
  9 10  2  0  0  0  0
  1  3  1  0  0  0  0
  1  7  1  0  0  0  0
  1  2  2  0  0  0  0
 32 33  1  0  0  0  0
 33 41  1  0  0  0  0
 33 34  2  0  0  0  0
 21 22  1  0  0  0  0
 22 23  1  0  0  0  0
 18 21  1  0  0  0  0
 17 23  1  0  0  0  0
 17 18  1  0  0  0  0
  8 11  1  0  0  0  0
 32 35  1  0  0  0  0
 41 42  1  0  0  0  0
  7  8  1  0  0  0  0
 31 32  1  0  0  0  0
 22 27  1  0  0  0  0
 22 28  1  0  0  0  0
 21 25  1  0  0  0  0
 21 26  1  0  0  0  0
 23 29  1  0  0  0  0
 23 30  1  0  0  0  0
 18 24  1  0  0  0  0
  3  4  1  0  0  0  0
  3  5  1  0  0  0  0
  3  6  1  0  0  0  0
 11 14  1  0  0  0  0
 11 15  1  0  0  0  0
 11 16  1  0  0  0  0
 35 38  1  0  0  0  0
 35 39  1  0  0  0  0
 35 40  1  0  0  0  0
 42 44  1  0  0  0  0
 42 45  1  0  0  0  0
 42 46  1  0  0  0  0
  8 13  1  0  0  0  0
 32 37  1  0  0  0  0
 31 36  1  0  0  0  0
 41 43  1  0  0  0  0
  7 12  1  0  0  0  0
M  END
$$$$

  -OEChem-05262214473D

 46 46  0     1  0  0  0  0  0999 V2000
   -0.6012   -3.2995    3.8205 C   0  0  0  0  0  0  0  0  0  0  0  0
   -0.6574   -4.4683    3.4568 O   0  0  0  0  0  0  0  0  0  0  0  0
   -0.4935   -2.9859    5.2760 C   0  0  0  0  0  0  0  0  0  0  0  0
   -1.4789   -2.8689    5.7550 H   0  0  0  0  0  0  0  0  0  0  0  0
    0.0123   -3.7847    5.8419 H   0  0  0  0  0  0  0  0  0  0  0  0
    0.0585   -2.0642    5.5199 H   0  0  0  0  0  0  0  0  0  0  0  0
   -0.6261   -2.1849    2.9917 N   0  0  0  0  0  0  0  0  0  0  0  0
   -0.7237   -2.2601    1.5650 C   0  0  2  0  0  0  0  0  0  0  0  0
    0.1695   -1.1513    1.0687 C   0  0  0  0  0  0  0  0  0  0  0  0
    0.3193   -0.1267    1.7365 O   0  0  0  0  0  0  0  0  0  0  0  0
   -2.1397   -2.0663    1.0750 C   0  0  0  0  0  0  0  0  0  0  0  0
   -0.5717   -1.2606    3.4238 H   0  0  0  0  0  0  0  0  0  0  0  0
   -0.3076   -3.2111    1.2363 H   0  0  0  0  0  0  0  0  0  0  0  0
   -2.5584   -1.1089    1.4061 H   0  0  0  0  0  0  0  0  0  0  0  0
   -2.1682   -2.0790   -0.0197 H   0  0  0  0  0  0  0  0  0  0  0  0
   -2.7965   -2.8601    1.4459 H   0  0  0  0  0  0  0  0  0  0  0  0
    0.7724   -1.3745   -0.1593 N   0  0  0  0  0  0  0  0  0  0  0  0
    0.5614   -2.5964   -0.9244 C   0  0  2  0  0  0  0  0  0  0  0  0
    1.6157   -3.5728   -0.4972 C   0  0  0  0  0  0  0  0  0  0  0  0
    2.6882   -3.6014   -1.0893 O   0  0  0  0  0  0  0  0  0  0  0  0
    0.7345   -2.1771   -2.3796 C   0  0  0  0  0  0  0  0  0  0  0  0
    0.3244   -0.8671   -1.7112 C   0  0  0  0  0  0  0  0  0  0  0  0
    1.5408   -0.3981   -0.9273 C   0  0  0  0  0  0  0  0  0  0  0  0
   -0.4227   -3.0263   -0.7144 H   0  0  0  0  0  0  0  0  0  0  0  0
    0.0120   -2.7078   -3.0110 H   0  0  0  0  0  0  0  0  0  0  0  0
    1.7400   -2.3597   -2.7711 H   0  0  0  0  0  0  0  0  0  0  0  0
    0.0755   -0.1144   -2.4681 H   0  0  0  0  0  0  0  0  0  0  0  0
   -0.5410   -0.9920   -1.0542 H   0  0  0  0  0  0  0  0  0  0  0  0
    2.4811   -0.6014   -1.4471 H   0  0  0  0  0  0  0  0  0  0  0  0
    1.4806    0.6724   -0.7030 H   0  0  0  0  0  0  0  0  0  0  0  0
    0.9664   -4.3436    0.6965 N   0  0  0  0  0  0  0  0  0  0  0  0
    1.7243   -5.3069    1.4624 C   0  0  2  0  0  0  0  0  0  0  0  0
    2.8109   -4.5553    2.2200 C   0  0  0  0  0  0  0  0  0  0  0  0
    3.2304   -3.4531    1.8733 O   0  0  0  0  0  0  0  0  0  0  0  0
    2.3277   -6.3759    0.5648 C   0  0  0  0  0  0  0  0  0  0  0  0
   -0.0329   -4.2721    0.8630 H   0  0  0  0  0  0  0  0  0  0  0  0
    1.0285   -5.7615    2.1760 H   0  0  0  0  0  0  0  0  0  0  0  0
    3.0276   -5.9394   -0.1570 H   0  0  0  0  0  0  0  0  0  0  0  0
    2.8776   -7.1208    1.1494 H   0  0  0  0  0  0  0  0  0  0  0  0
    1.5472   -6.8954   -0.0016 H   0  0  0  0  0  0  0  0  0  0  0  0
    3.2874   -5.2793    3.3039 N   0  0  0  0  0  0  0  0  0  0  0  0
    4.3302   -4.7862    4.1731 C   0  0  0  0  0  0  0  0  0  0  0  0
    2.8682   -6.1768    3.5285 H   0  0  0  0  0  0  0  0  0  0  0  0
    5.3072   -5.1392    3.8113 H   0  0  0  0  0  0  0  0  0  0  0  0
    4.3158   -3.6863    4.1754 H   0  0  0  0  0  0  0  0  0  0  0  0
    4.1618   -5.1573    5.1948 H   0  0  0  0  0  0  0  0  0  0  0  0
 18 19  1  0  0  0  0
 19 31  1  0  0  0  0
 19 20  2  0  0  0  0
  8  9  1  0  0  0  0
  9 17  1  0  0  0  0
  9 10  2  0  0  0  0
  1  3  1  0  0  0  0
  1  7  1  0  0  0  0
  1  2  2  0  0  0  0
 32 33  1  0  0  0  0
 33 41  1  0  0  0  0
 33 34  2  0  0  0  0
 21 22  1  0  0  0  0
 22 23  1  0  0  0  0
 18 21  1  0  0  0  0
 17 23  1  0  0  0  0
 17 18  1  0  0  0  0
  8 11  1  0  0  0  0
 32 35  1  0  0  0  0
 41 42  1  0  0  0  0
  7  8  1  0  0  0  0
 31 32  1  0  0  0  0
 22 27  1  0  0  0  0
 22 28  1  0  0  0  0
 21 25  1  0  0  0  0
 21 26  1  0  0  0  0
 23 29  1  0  0  0  0
 23 30  1  0  0  0  0
 18 24  1  0  0  0  0
  3  4  1  0  0  0  0
  3  5  1  0  0  0  0
  3  6  1  0  0  0  0
 11 14  1  0  0  0  0
 11 15  1  0  0  0  0
 11 16  1  0  0  0  0
 35 38  1  0  0  0  0
 35 39  1  0  0  0  0
 35 40  1  0  0  0  0
 42 44  1  0  0  0  0
 42 45  1  0  0  0  0
 42 46  1  0  0  0  0
  8 13  1  0  0  0  0
 32 37  1  0  0  0  0
 31 36  1  0  0  0  0
 41 43  1  0  0  0  0
  7 12  1  0  0  0  0
M  END
$$$$

  -OEChem-05262214473D

 46 46  0     1  0  0  0  0  0999 V2000
   -0.6012   -3.2995    3.8205 C   0  0  0  0  0  0  0  0  0  0  0  0
   -0.6574   -4.4683    3.4568 O   0  0  0  0  0  0  0  0  0  0  0  0
   -0.4935   -2.9859    5.2760 C   0  0  0  0  0  0  0  0  0  0  0  0
   -1.4789   -2.8689    5.7550 H   0  0  0  0  0  0  0  0  0  0  0  0
    0.0123   -3.7847    5.8419 H   0  0  0  0  0  0  0  0  0  0  0  0
    0.0585   -2.0642    5.5199 H   0  0  0  0  0  0  0  0  0  0  0  0
   -0.6261   -2.1849    2.9917 N   0  0  0  0  0  0  0  0  0  0  0  0
   -0.7237   -2.2601    1.5650 C   0  0  2  0  0  0  0  0  0  0  0  0
    0.1695   -1.1513    1.0687 C   0  0  0  0  0  0  0  0  0  0  0  0
    0.3193   -0.1267    1.7365 O   0  0  0  0  0  0  0  0  0  0  0  0
   -2.1397   -2.0663    1.0750 C   0  0  0  0  0  0  0  0  0  0  0  0
   -0.5717   -1.2606    3.4238 H   0  0  0  0  0  0  0  0  0  0  0  0
   -0.3076   -3.2111    1.2363 H   0  0  0  0  0  0  0  0  0  0  0  0
   -2.5584   -1.1089    1.4061 H   0  0  0  0  0  0  0  0  0  0  0  0
   -2.1682   -2.0790   -0.0197 H   0  0  0  0  0  0  0  0  0  0  0  0
   -2.7965   -2.8601    1.4459 H   0  0  0  0  0  0  0  0  0  0  0  0
    0.7724   -1.3745   -0.1593 N   0  0  0  0  0  0  0  0  0  0  0  0
    0.5614   -2.5964   -0.9244 C   0  0  2  0  0  0  0  0  0  0  0  0
    1.6157   -3.5728   -0.4972 C   0  0  0  0  0  0  0  0  0  0  0  0
    2.7681   -3.4270   -0.8876 O   0  0  0  0  0  0  0  0  0  0  0  0
    0.7345   -2.1771   -2.3796 C   0  0  0  0  0  0  0  0  0  0  0  0
    0.3244   -0.8671   -1.7112 C   0  0  0  0  0  0  0  0  0  0  0  0
    1.5408   -0.3981   -0.9273 C   0  0  0  0  0  0  0  0  0  0  0  0
   -0.4227   -3.0263   -0.7144 H   0  0  0  0  0  0  0  0  0  0  0  0
    0.0120   -2.7078   -3.0110 H   0  0  0  0  0  0  0  0  0  0  0  0
    1.7400   -2.3597   -2.7711 H   0  0  0  0  0  0  0  0  0  0  0  0
    0.0755   -0.1144   -2.4681 H   0  0  0  0  0  0  0  0  0  0  0  0
   -0.5410   -0.9920   -1.0542 H   0  0  0  0  0  0  0  0  0  0  0  0
    2.4811   -0.6014   -1.4471 H   0  0  0  0  0  0  0  0  0  0  0  0
    1.4806    0.6724   -0.7030 H   0  0  0  0  0  0  0  0  0  0  0  0
    0.8533   -4.5910    0.4098 N   0  0  0  0  0  0  0  0  0  0  0  0
    1.5604   -5.6356    1.1154 C   0  0  2  0  0  0  0  0  0  0  0  0
    2.4386   -4.9783    2.1719 C   0  0  0  0  0  0  0  0  0  0  0  0
    2.8084   -3.8080    2.1033 O   0  0  0  0  0  0  0  0  0  0  0  0
    2.3941   -6.4796    0.1639 C   0  0  0  0  0  0  0  0  0  0  0  0
   -0.1621   -4.6104    0.4084 H   0  0  0  0  0  0  0  0  0  0  0  0
    0.8018   -6.2562    1.6047 H   0  0  0  0  0  0  0  0  0  0  0  0
    3.1598   -5.8749   -0.3358 H   0  0  0  0  0  0  0  0  0  0  0  0
    2.9066   -7.2880    0.6958 H   0  0  0  0  0  0  0  0  0  0  0  0
    1.7651   -6.9275   -0.6129 H   0  0  0  0  0  0  0  0  0  0  0  0
    2.7962   -5.8646    3.1783 N   0  0  0  0  0  0  0  0  0  0  0  0
    3.6365   -5.4842    4.2898 C   0  0  0  0  0  0  0  0  0  0  0  0
    2.4281   -6.8111    3.1646 H   0  0  0  0  0  0  0  0  0  0  0  0
    4.6867   -5.7053    4.0487 H   0  0  0  0  0  0  0  0  0  0  0  0
    3.5236   -4.4072    4.4828 H   0  0  0  0  0  0  0  0  0  0  0  0
    3.3389   -6.0503    5.1848 H   0  0  0  0  0  0  0  0  0  0  0  0
 18 19  1  0  0  0  0
 19 31  1  0  0  0  0
 19 20  2  0  0  0  0
  8  9  1  0  0  0  0
  9 17  1  0  0  0  0
  9 10  2  0  0  0  0
  1  3  1  0  0  0  0
  1  7  1  0  0  0  0
  1  2  2  0  0  0  0
 32 33  1  0  0  0  0
 33 41  1  0  0  0  0
 33 34  2  0  0  0  0
 21 22  1  0  0  0  0
 22 23  1  0  0  0  0
 18 21  1  0  0  0  0
 17 23  1  0  0  0  0
 17 18  1  0  0  0  0
  8 11  1  0  0  0  0
 32 35  1  0  0  0  0
 41 42  1  0  0  0  0
  7  8  1  0  0  0  0
 31 32  1  0  0  0  0
 22 27  1  0  0  0  0
 22 28  1  0  0  0  0
 21 25  1  0  0  0  0
 21 26  1  0  0  0  0
 23 29  1  0  0  0  0
 23 30  1  0  0  0  0
 18 24  1  0  0  0  0
  3  4  1  0  0  0  0
  3  5  1  0  0  0  0
  3  6  1  0  0  0  0
 11 14  1  0  0  0  0
 11 15  1  0  0  0  0
 11 16  1  0  0  0  0
 35 38  1  0  0  0  0
 35 39  1  0  0  0  0
 35 40  1  0  0  0  0
 42 44  1  0  0  0  0
 42 45  1  0  0  0  0
 42 46  1  0  0  0  0
  8 13  1  0  0  0  0
 32 37  1  0  0  0  0
 31 36  1  0  0  0  0
 41 43  1  0  0  0  0
  7 12  1  0  0  0  0
M  END
$$$$

  -OEChem-05262214473D

 46 46  0     1  0  0  0  0  0999 V2000
   -0.6012   -3.2995    3.8205 C   0  0  0  0  0  0  0  0  0  0  0  0
   -0.6574   -4.4683    3.4568 O   0  0  0  0  0  0  0  0  0  0  0  0
   -0.4935   -2.9859    5.2760 C   0  0  0  0  0  0  0  0  0  0  0  0
   -1.4789   -2.8689    5.7550 H   0  0  0  0  0  0  0  0  0  0  0  0
    0.0123   -3.7847    5.8419 H   0  0  0  0  0  0  0  0  0  0  0  0
    0.0585   -2.0642    5.5199 H   0  0  0  0  0  0  0  0  0  0  0  0
   -0.6261   -2.1849    2.9917 N   0  0  0  0  0  0  0  0  0  0  0  0
   -0.7237   -2.2601    1.5650 C   0  0  2  0  0  0  0  0  0  0  0  0
    0.1695   -1.1513    1.0687 C   0  0  0  0  0  0  0  0  0  0  0  0
    0.3193   -0.1267    1.7365 O   0  0  0  0  0  0  0  0  0  0  0  0
   -2.1397   -2.0663    1.0750 C   0  0  0  0  0  0  0  0  0  0  0  0
   -0.5717   -1.2606    3.4238 H   0  0  0  0  0  0  0  0  0  0  0  0
   -0.3076   -3.2111    1.2363 H   0  0  0  0  0  0  0  0  0  0  0  0
   -2.5584   -1.1089    1.4061 H   0  0  0  0  0  0  0  0  0  0  0  0
   -2.1682   -2.0790   -0.0197 H   0  0  0  0  0  0  0  0  0  0  0  0
   -2.7965   -2.8601    1.4459 H   0  0  0  0  0  0  0  0  0  0  0  0
    0.7724   -1.3745   -0.1593 N   0  0  0  0  0  0  0  0  0  0  0  0
    0.5614   -2.5964   -0.9244 C   0  0  2  0  0  0  0  0  0  0  0  0
    1.6157   -3.5728   -0.4972 C   0  0  0  0  0  0  0  0  0  0  0  0
    2.7983   -3.2893   -0.6477 O   0  0  0  0  0  0  0  0  0  0  0  0
    0.7345   -2.1771   -2.3796 C   0  0  0  0  0  0  0  0  0  0  0  0
    0.3244   -0.8671   -1.7112 C   0  0  0  0  0  0  0  0  0  0  0  0
    1.5408   -0.3981   -0.9273 C   0  0  0  0  0  0  0  0  0  0  0  0
   -0.4227   -3.0263   -0.7144 H   0  0  0  0  0  0  0  0  0  0  0  0
    0.0120   -2.7078   -3.0110 H   0  0  0  0  0  0  0  0  0  0  0  0
    1.7400   -2.3597   -2.7711 H   0  0  0  0  0  0  0  0  0  0  0  0
    0.0755   -0.1144   -2.4681 H   0  0  0  0  0  0  0  0  0  0  0  0
   -0.5410   -0.9920   -1.0542 H   0  0  0  0  0  0  0  0  0  0  0  0
    2.4811   -0.6014   -1.4471 H   0  0  0  0  0  0  0  0  0  0  0  0
    1.4806    0.6724   -0.7030 H   0  0  0  0  0  0  0  0  0  0  0  0
    0.8107   -4.7862    0.0688 N   0  0  0  0  0  0  0  0  0  0  0  0
    1.4848   -5.9021    0.6928 C   0  0  2  0  0  0  0  0  0  0  0  0
    2.1183   -5.4056    1.9857 C   0  0  0  0  0  0  0  0  0  0  0  0
    2.3883   -4.2239    2.1898 O   0  0  0  0  0  0  0  0  0  0  0  0
    2.5335   -6.5018   -0.2310 C   0  0  0  0  0  0  0  0  0  0  0  0
   -0.1852   -4.8639   -0.1141 H   0  0  0  0  0  0  0  0  0  0  0  0
    0.7156   -6.6467    0.9247 H   0  0  0  0  0  0  0  0  0  0  0  0
    3.3128   -5.7704   -0.4745 H   0  0  0  0  0  0  0  0  0  0  0  0
    3.0234   -7.3647    0.2321 H   0  0  0  0  0  0  0  0  0  0  0  0
    2.0810   -6.8312   -1.1725 H   0  0  0  0  0  0  0  0  0  0  0  0
    2.3862   -6.4432    2.8677 N   0  0  0  0  0  0  0  0  0  0  0  0
    2.9982   -6.2308    4.1585 C   0  0  0  0  0  0  0  0  0  0  0  0
    2.1112   -7.3901    2.6235 H   0  0  0  0  0  0  0  0  0  0  0  0
    4.0891   -6.3411    4.0703 H   0  0  0  0  0  0  0  0  0  0  0  0
    2.7598   -5.2179    4.5150 H   0  0  0  0  0  0  0  0  0  0  0  0
    2.6115   -6.9717    4.8738 H   0  0  0  0  0  0  0  0  0  0  0  0
 18 19  1  0  0  0  0
 19 31  1  0  0  0  0
 19 20  2  0  0  0  0
  8  9  1  0  0  0  0
  9 17  1  0  0  0  0
  9 10  2  0  0  0  0
  1  3  1  0  0  0  0
  1  7  1  0  0  0  0
  1  2  2  0  0  0  0
 32 33  1  0  0  0  0
 33 41  1  0  0  0  0
 33 34  2  0  0  0  0
 21 22  1  0  0  0  0
 22 23  1  0  0  0  0
 18 21  1  0  0  0  0
 17 23  1  0  0  0  0
 17 18  1  0  0  0  0
  8 11  1  0  0  0  0
 32 35  1  0  0  0  0
 41 42  1  0  0  0  0
  7  8  1  0  0  0  0
 31 32  1  0  0  0  0
 22 27  1  0  0  0  0
 22 28  1  0  0  0  0
 21 25  1  0  0  0  0
 21 26  1  0  0  0  0
 23 29  1  0  0  0  0
 23 30  1  0  0  0  0
 18 24  1  0  0  0  0
  3  4  1  0  0  0  0
  3  5  1  0  0  0  0
  3  6  1  0  0  0  0
 11 14  1  0  0  0  0
 11 15  1  0  0  0  0
 11 16  1  0  0  0  0
 35 38  1  0  0  0  0
 35 39  1  0  0  0  0
 35 40  1  0  0  0  0
 42 44  1  0  0  0  0
 42 45  1  0  0  0  0
 42 46  1  0  0  0  0
  8 13  1  0  0  0  0
 32 37  1  0  0  0  0
 31 36  1  0  0  0  0
 41 43  1  0  0  0  0
  7 12  1  0  0  0  0
M  END
$$$$

  -OEChem-05262214473D

 46 46  0     1  0  0  0  0  0999 V2000
   -0.6012   -3.2995    3.8205 C   0  0  0  0  0  0  0  0  0  0  0  0
   -0.6574   -4.4683    3.4568 O   0  0  0  0  0  0  0  0  0  0  0  0
   -0.4935   -2.9859    5.2760 C   0  0  0  0  0  0  0  0  0  0  0  0
   -1.4789   -2.8689    5.7550 H   0  0  0  0  0  0  0  0  0  0  0  0
    0.0123   -3.7847    5.8419 H   0  0  0  0  0  0  0  0  0  0  0  0
    0.0585   -2.0642    5.5199 H   0  0  0  0  0  0  0  0  0  0  0  0
   -0.6261   -2.1849    2.9917 N   0  0  0  0  0  0  0  0  0  0  0  0
   -0.7237   -2.2601    1.5650 C   0  0  2  0  0  0  0  0  0  0  0  0
    0.1695   -1.1513    1.0687 C   0  0  0  0  0  0  0  0  0  0  0  0
    0.3193   -0.1267    1.7365 O   0  0  0  0  0  0  0  0  0  0  0  0
   -2.1397   -2.0663    1.0750 C   0  0  0  0  0  0  0  0  0  0  0  0
   -0.5717   -1.2606    3.4238 H   0  0  0  0  0  0  0  0  0  0  0  0
   -0.3076   -3.2111    1.2363 H   0  0  0  0  0  0  0  0  0  0  0  0
   -2.5584   -1.1089    1.4061 H   0  0  0  0  0  0  0  0  0  0  0  0
   -2.1682   -2.0790   -0.0197 H   0  0  0  0  0  0  0  0  0  0  0  0
   -2.7965   -2.8601    1.4459 H   0  0  0  0  0  0  0  0  0  0  0  0
    0.7724   -1.3745   -0.1593 N   0  0  0  0  0  0  0  0  0  0  0  0
    0.5614   -2.5964   -0.9244 C   0  0  2  0  0  0  0  0  0  0  0  0
    1.6157   -3.5728   -0.4972 C   0  0  0  0  0  0  0  0  0  0  0  0
    2.7770   -3.1978   -0.3857 O   0  0  0  0  0  0  0  0  0  0  0  0
    0.7345   -2.1771   -2.3796 C   0  0  0  0  0  0  0  0  0  0  0  0
    0.3244   -0.8671   -1.7112 C   0  0  0  0  0  0  0  0  0  0  0  0
    1.5408   -0.3981   -0.9273 C   0  0  0  0  0  0  0  0  0  0  0  0
   -0.4227   -3.0263   -0.7144 H   0  0  0  0  0  0  0  0  0  0  0  0
    0.0120   -2.7078   -3.0110 H   0  0  0  0  0  0  0  0  0  0  0  0
    1.7400   -2.3597   -2.7711 H   0  0  0  0  0  0  0  0  0  0  0  0
    0.0755   -0.1144   -2.4681 H   0  0  0  0  0  0  0  0  0  0  0  0
   -0.5410   -0.9920   -1.0542 H   0  0  0  0  0  0  0  0  0  0  0  0
    2.4811   -0.6014   -1.4471 H   0  0  0  0  0  0  0  0  0  0  0  0
    1.4806    0.6724   -0.7030 H   0  0  0  0  0  0  0  0  0  0  0  0
    0.8415   -4.9158   -0.3033 N   0  0  0  0  0  0  0  0  0  0  0  0
    1.5027   -6.0882    0.2233 C   0  0  2  0  0  0  0  0  0  0  0  0
    1.8718   -5.8081    1.6741 C   0  0  0  0  0  0  0  0  0  0  0  0
    1.9986   -4.6723    2.1268 O   0  0  0  0  0  0  0  0  0  0  0  0
    2.7364   -6.4411   -0.5929 C   0  0  0  0  0  0  0  0  0  0  0  0
   -0.1008   -5.0155   -0.6688 H   0  0  0  0  0  0  0  0  0  0  0  0
    0.7758   -6.9066    0.1822 H   0  0  0  0  0  0  0  0  0  0  0  0
    3.4762   -5.6329   -0.5637 H   0  0  0  0  0  0  0  0  0  0  0  0
    3.2200   -7.3459   -0.2100 H   0  0  0  0  0  0  0  0  0  0  0  0
    2.4733   -6.6131   -1.6422 H   0  0  0  0  0  0  0  0  0  0  0  0
    2.0851   -6.9759    2.3931 N   0  0  0  0  0  0  0  0  0  0  0  0
    2.4588   -6.9752    3.7883 C   0  0  0  0  0  0  0  0  0  0  0  0
    1.9390   -7.8742    1.9421 H   0  0  0  0  0  0  0  0  0  0  0  0
    3.5551   -7.0033    3.8748 H   0  0  0  0  0  0  0  0  0  0  0  0
    2.0764   -6.0631    4.2697 H   0  0  0  0  0  0  0  0  0  0  0  0
    2.0293   -7.8587    4.2832 H   0  0  0  0  0  0  0  0  0  0  0  0
 18 19  1  0  0  0  0
 19 31  1  0  0  0  0
 19 20  2  0  0  0  0
  8  9  1  0  0  0  0
  9 17  1  0  0  0  0
  9 10  2  0  0  0  0
  1  3  1  0  0  0  0
  1  7  1  0  0  0  0
  1  2  2  0  0  0  0
 32 33  1  0  0  0  0
 33 41  1  0  0  0  0
 33 34  2  0  0  0  0
 21 22  1  0  0  0  0
 22 23  1  0  0  0  0
 18 21  1  0  0  0  0
 17 23  1  0  0  0  0
 17 18  1  0  0  0  0
  8 11  1  0  0  0  0
 32 35  1  0  0  0  0
 41 42  1  0  0  0  0
  7  8  1  0  0  0  0
 31 32  1  0  0  0  0
 22 27  1  0  0  0  0
 22 28  1  0  0  0  0
 21 25  1  0  0  0  0
 21 26  1  0  0  0  0
 23 29  1  0  0  0  0
 23 30  1  0  0  0  0
 18 24  1  0  0  0  0
  3  4  1  0  0  0  0
  3  5  1  0  0  0  0
  3  6  1  0  0  0  0
 11 14  1  0  0  0  0
 11 15  1  0  0  0  0
 11 16  1  0  0  0  0
 35 38  1  0  0  0  0
 35 39  1  0  0  0  0
 35 40  1  0  0  0  0
 42 44  1  0  0  0  0
 42 45  1  0  0  0  0
 42 46  1  0  0  0  0
  8 13  1  0  0  0  0
 32 37  1  0  0  0  0
 31 36  1  0  0  0  0
 41 43  1  0  0  0  0
  7 12  1  0  0  0  0
M  END
$$$$

  -OEChem-05262214473D

 46 46  0     1  0  0  0  0  0999 V2000
   -0.6012   -3.2995    3.8205 C   0  0  0  0  0  0  0  0  0  0  0  0
   -0.6574   -4.4683    3.4568 O   0  0  0  0  0  0  0  0  0  0  0  0
   -0.4935   -2.9859    5.2760 C   0  0  0  0  0  0  0  0  0  0  0  0
   -1.4789   -2.8689    5.7550 H   0  0  0  0  0  0  0  0  0  0  0  0
    0.0123   -3.7847    5.8419 H   0  0  0  0  0  0  0  0  0  0  0  0
    0.0585   -2.0642    5.5199 H   0  0  0  0  0  0  0  0  0  0  0  0
   -0.6261   -2.1849    2.9917 N   0  0  0  0  0  0  0  0  0  0  0  0
   -0.7237   -2.2601    1.5650 C   0  0  2  0  0  0  0  0  0  0  0  0
    0.1695   -1.1513    1.0687 C   0  0  0  0  0  0  0  0  0  0  0  0
    0.3193   -0.1267    1.7365 O   0  0  0  0  0  0  0  0  0  0  0  0
   -2.1397   -2.0663    1.0750 C   0  0  0  0  0  0  0  0  0  0  0  0
   -0.5717   -1.2606    3.4238 H   0  0  0  0  0  0  0  0  0  0  0  0
   -0.3076   -3.2111    1.2363 H   0  0  0  0  0  0  0  0  0  0  0  0
   -2.5584   -1.1089    1.4061 H   0  0  0  0  0  0  0  0  0  0  0  0
   -2.1682   -2.0790   -0.0197 H   0  0  0  0  0  0  0  0  0  0  0  0
   -2.7965   -2.8601    1.4459 H   0  0  0  0  0  0  0  0  0  0  0  0
    0.7724   -1.3745   -0.1593 N   0  0  0  0  0  0  0  0  0  0  0  0
    0.5614   -2.5964   -0.9244 C   0  0  2  0  0  0  0  0  0  0  0  0
    1.6157   -3.5728   -0.4972 C   0  0  0  0  0  0  0  0  0  0  0  0
    2.7054   -3.1586   -0.1196 O   0  0  0  0  0  0  0  0  0  0  0  0
    0.7345   -2.1771   -2.3796 C   0  0  0  0  0  0  0  0  0  0  0  0
    0.3244   -0.8671   -1.7112 C   0  0  0  0  0  0  0  0  0  0  0  0
    1.5408   -0.3981   -0.9273 C   0  0  0  0  0  0  0  0  0  0  0  0
   -0.4227   -3.0263   -0.7144 H   0  0  0  0  0  0  0  0  0  0  0  0
    0.0120   -2.7078   -3.0110 H   0  0  0  0  0  0  0  0  0  0  0  0
    1.7400   -2.3597   -2.7711 H   0  0  0  0  0  0  0  0  0  0  0  0
    0.0755   -0.1144   -2.4681 H   0  0  0  0  0  0  0  0  0  0  0  0
   -0.5410   -0.9920   -1.0542 H   0  0  0  0  0  0  0  0  0  0  0  0
    2.4811   -0.6014   -1.4471 H   0  0  0  0  0  0  0  0  0  0  0  0
    1.4806    0.6724   -0.7030 H   0  0  0  0  0  0  0  0  0  0  0  0
    0.9434   -4.9710   -0.6811 N   0  0  0  0  0  0  0  0  0  0  0  0
    1.6129   -6.1811   -0.2610 C   0  0  2  0  0  0  0  0  0  0  0  0
    1.7159   -6.1583    1.2584 C   0  0  0  0  0  0  0  0  0  0  0  0
    1.6658   -5.1227    1.9186 O   0  0  0  0  0  0  0  0  0  0  0  0
    2.9888   -6.3017   -0.8973 C   0  0  0  0  0  0  0  0  0  0  0  0
    0.0854   -5.0546   -1.2180 H   0  0  0  0  0  0  0  0  0  0  0  0
    0.9782   -7.0180   -0.5721 H   0  0  0  0  0  0  0  0  0  0  0  0
    3.6390   -5.4718   -0.5972 H   0  0  0  0  0  0  0  0  0  0  0  0
    3.4830   -7.2327   -0.6005 H   0  0  0  0  0  0  0  0  0  0  0  0
    2.9154   -6.2879   -1.9901 H   0  0  0  0  0  0  0  0  0  0  0  0
    1.9136   -7.4262    1.7871 N   0  0  0  0  0  0  0  0  0  0  0  0
    2.0552   -7.6666    3.2042 C   0  0  0  0  0  0  0  0  0  0  0  0
    1.9232   -8.2304    1.1667 H   0  0  0  0  0  0  0  0  0  0  0  0
    3.1210   -7.6467    3.4753 H   0  0  0  0  0  0  0  0  0  0  0  0
    1.5200   -6.8853    3.7637 H   0  0  0  0  0  0  0  0  0  0  0  0
    1.6319   -8.6509    3.4530 H   0  0  0  0  0  0  0  0  0  0  0  0
 18 19  1  0  0  0  0
 19 31  1  0  0  0  0
 19 20  2  0  0  0  0
  8  9  1  0  0  0  0
  9 17  1  0  0  0  0
  9 10  2  0  0  0  0
  1  3  1  0  0  0  0
  1  7  1  0  0  0  0
  1  2  2  0  0  0  0
 32 33  1  0  0  0  0
 33 41  1  0  0  0  0
 33 34  2  0  0  0  0
 21 22  1  0  0  0  0
 22 23  1  0  0  0  0
 18 21  1  0  0  0  0
 17 23  1  0  0  0  0
 17 18  1  0  0  0  0
  8 11  1  0  0  0  0
 32 35  1  0  0  0  0
 41 42  1  0  0  0  0
  7  8  1  0  0  0  0
 31 32  1  0  0  0  0
 22 27  1  0  0  0  0
 22 28  1  0  0  0  0
 21 25  1  0  0  0  0
 21 26  1  0  0  0  0
 23 29  1  0  0  0  0
 23 30  1  0  0  0  0
 18 24  1  0  0  0  0
  3  4  1  0  0  0  0
  3  5  1  0  0  0  0
  3  6  1  0  0  0  0
 11 14  1  0  0  0  0
 11 15  1  0  0  0  0
 11 16  1  0  0  0  0
 35 38  1  0  0  0  0
 35 39  1  0  0  0  0
 35 40  1  0  0  0  0
 42 44  1  0  0  0  0
 42 45  1  0  0  0  0
 42 46  1  0  0  0  0
  8 13  1  0  0  0  0
 32 37  1  0  0  0  0
 31 36  1  0  0  0  0
 41 43  1  0  0  0  0
  7 12  1  0  0  0  0
M  END
$$$$

  -OEChem-05262214473D

 46 46  0     1  0  0  0  0  0999 V2000
   -0.6012   -3.2995    3.8205 C   0  0  0  0  0  0  0  0  0  0  0  0
   -0.6574   -4.4683    3.4568 O   0  0  0  0  0  0  0  0  0  0  0  0
   -0.4935   -2.9859    5.2760 C   0  0  0  0  0  0  0  0  0  0  0  0
   -1.4789   -2.8689    5.7550 H   0  0  0  0  0  0  0  0  0  0  0  0
    0.0123   -3.7847    5.8419 H   0  0  0  0  0  0  0  0  0  0  0  0
    0.0585   -2.0642    5.5199 H   0  0  0  0  0  0  0  0  0  0  0  0
   -0.6261   -2.1849    2.9917 N   0  0  0  0  0  0  0  0  0  0  0  0
   -0.7237   -2.2601    1.5650 C   0  0  2  0  0  0  0  0  0  0  0  0
    0.1695   -1.1513    1.0687 C   0  0  0  0  0  0  0  0  0  0  0  0
    0.3193   -0.1267    1.7365 O   0  0  0  0  0  0  0  0  0  0  0  0
   -2.1397   -2.0663    1.0750 C   0  0  0  0  0  0  0  0  0  0  0  0
   -0.5717   -1.2606    3.4238 H   0  0  0  0  0  0  0  0  0  0  0  0
   -0.3076   -3.2111    1.2363 H   0  0  0  0  0  0  0  0  0  0  0  0
   -2.5584   -1.1089    1.4061 H   0  0  0  0  0  0  0  0  0  0  0  0
   -2.1682   -2.0790   -0.0197 H   0  0  0  0  0  0  0  0  0  0  0  0
   -2.7965   -2.8601    1.4459 H   0  0  0  0  0  0  0  0  0  0  0  0
    0.7724   -1.3745   -0.1593 N   0  0  0  0  0  0  0  0  0  0  0  0
    0.5614   -2.5964   -0.9244 C   0  0  2  0  0  0  0  0  0  0  0  0
    1.6157   -3.5728   -0.4972 C   0  0  0  0  0  0  0  0  0  0  0  0
    2.5886   -3.1745    0.1325 O   0  0  0  0  0  0  0  0  0  0  0  0
    0.7345   -2.1771   -2.3796 C   0  0  0  0  0  0  0  0  0  0  0  0
    0.3244   -0.8671   -1.7112 C   0  0  0  0  0  0  0  0  0  0  0  0
    1.5408   -0.3981   -0.9273 C   0  0  0  0  0  0  0  0  0  0  0  0
   -0.4227   -3.0263   -0.7144 H   0  0  0  0  0  0  0  0  0  0  0  0
    0.0120   -2.7078   -3.0110 H   0  0  0  0  0  0  0  0  0  0  0  0
    1.7400   -2.3597   -2.7711 H   0  0  0  0  0  0  0  0  0  0  0  0
    0.0755   -0.1144   -2.4681 H   0  0  0  0  0  0  0  0  0  0  0  0
   -0.5410   -0.9920   -1.0542 H   0  0  0  0  0  0  0  0  0  0  0  0
    2.4811   -0.6014   -1.4471 H   0  0  0  0  0  0  0  0  0  0  0  0
    1.4806    0.6724   -0.7030 H   0  0  0  0  0  0  0  0  0  0  0  0
    1.1097   -4.9480   -1.0389 N   0  0  0  0  0  0  0  0  0  0  0  0
    1.8078   -6.1746   -0.7271 C   0  0  2  0  0  0  0  0  0  0  0  0
    1.6612   -6.4324    0.7667 C   0  0  0  0  0  0  0  0  0  0  0  0
    1.4126   -5.5444    1.5795 O   0  0  0  0  0  0  0  0  0  0  0  0
    3.2737   -6.0929   -1.1234 C   0  0  0  0  0  0  0  0  0  0  0  0
    0.3607   -4.9788   -1.7241 H   0  0  0  0  0  0  0  0  0  0  0  0
    1.3091   -6.9734   -1.2869 H   0  0  0  0  0  0  0  0  0  0  0  0
    3.7900   -5.2981   -0.5728 H   0  0  0  0  0  0  0  0  0  0  0  0
    3.7946   -7.0328   -0.9128 H   0  0  0  0  0  0  0  0  0  0  0  0
    3.3771   -5.8779   -2.1924 H   0  0  0  0  0  0  0  0  0  0  0  0
    1.8833   -7.7635    1.0908 N   0  0  0  0  0  0  0  0  0  0  0  0
    1.8147   -8.2579    2.4461 C   0  0  0  0  0  0  0  0  0  0  0  0
    2.0649   -8.4345    0.3502 H   0  0  0  0  0  0  0  0  0  0  0  0
    2.8166   -8.2275    2.8992 H   0  0  0  0  0  0  0  0  0  0  0  0
    1.1284   -7.6284    3.0316 H   0  0  0  0  0  0  0  0  0  0  0  0
    1.4465   -9.2944    2.4400 H   0  0  0  0  0  0  0  0  0  0  0  0
 18 19  1  0  0  0  0
 19 31  1  0  0  0  0
 19 20  2  0  0  0  0
  8  9  1  0  0  0  0
  9 17  1  0  0  0  0
  9 10  2  0  0  0  0
  1  3  1  0  0  0  0
  1  7  1  0  0  0  0
  1  2  2  0  0  0  0
 32 33  1  0  0  0  0
 33 41  1  0  0  0  0
 33 34  2  0  0  0  0
 21 22  1  0  0  0  0
 22 23  1  0  0  0  0
 18 21  1  0  0  0  0
 17 23  1  0  0  0  0
 17 18  1  0  0  0  0
  8 11  1  0  0  0  0
 32 35  1  0  0  0  0
 41 42  1  0  0  0  0
  7  8  1  0  0  0  0
 31 32  1  0  0  0  0
 22 27  1  0  0  0  0
 22 28  1  0  0  0  0
 21 25  1  0  0  0  0
 21 26  1  0  0  0  0
 23 29  1  0  0  0  0
 23 30  1  0  0  0  0
 18 24  1  0  0  0  0
  3  4  1  0  0  0  0
  3  5  1  0  0  0  0
  3  6  1  0  0  0  0
 11 14  1  0  0  0  0
 11 15  1  0  0  0  0
 11 16  1  0  0  0  0
 35 38  1  0  0  0  0
 35 39  1  0  0  0  0
 35 40  1  0  0  0  0
 42 44  1  0  0  0  0
 42 45  1  0  0  0  0
 42 46  1  0  0  0  0
  8 13  1  0  0  0  0
 32 37  1  0  0  0  0
 31 36  1  0  0  0  0
 41 43  1  0  0  0  0
  7 12  1  0  0  0  0
M  END
$$$$

  -OEChem-05262214473D

 46 46  0     1  0  0  0  0  0999 V2000
   -0.6012   -3.2995    3.8205 C   0  0  0  0  0  0  0  0  0  0  0  0
   -0.6574   -4.4683    3.4568 O   0  0  0  0  0  0  0  0  0  0  0  0
   -0.4935   -2.9859    5.2760 C   0  0  0  0  0  0  0  0  0  0  0  0
   -1.4789   -2.8689    5.7550 H   0  0  0  0  0  0  0  0  0  0  0  0
    0.0123   -3.7847    5.8419 H   0  0  0  0  0  0  0  0  0  0  0  0
    0.0585   -2.0642    5.5199 H   0  0  0  0  0  0  0  0  0  0  0  0
   -0.6261   -2.1849    2.9917 N   0  0  0  0  0  0  0  0  0  0  0  0
   -0.7237   -2.2601    1.5650 C   0  0  2  0  0  0  0  0  0  0  0  0
    0.1695   -1.1513    1.0687 C   0  0  0  0  0  0  0  0  0  0  0  0
    0.3193   -0.1267    1.7365 O   0  0  0  0  0  0  0  0  0  0  0  0
   -2.1397   -2.0663    1.0750 C   0  0  0  0  0  0  0  0  0  0  0  0
   -0.5717   -1.2606    3.4238 H   0  0  0  0  0  0  0  0  0  0  0  0
   -0.3076   -3.2111    1.2363 H   0  0  0  0  0  0  0  0  0  0  0  0
   -2.5584   -1.1089    1.4061 H   0  0  0  0  0  0  0  0  0  0  0  0
   -2.1682   -2.0790   -0.0197 H   0  0  0  0  0  0  0  0  0  0  0  0
   -2.7965   -2.8601    1.4459 H   0  0  0  0  0  0  0  0  0  0  0  0
    0.7724   -1.3745   -0.1593 N   0  0  0  0  0  0  0  0  0  0  0  0
    0.5614   -2.5964   -0.9244 C   0  0  2  0  0  0  0  0  0  0  0  0
    1.6157   -3.5728   -0.4972 C   0  0  0  0  0  0  0  0  0  0  0  0
    2.4344   -3.2444    0.3534 O   0  0  0  0  0  0  0  0  0  0  0  0
    0.7345   -2.1771   -2.3796 C   0  0  0  0  0  0  0  0  0  0  0  0
    0.3244   -0.8671   -1.7112 C   0  0  0  0  0  0  0  0  0  0  0  0
    1.5408   -0.3981   -0.9273 C   0  0  0  0  0  0  0  0  0  0  0  0
   -0.4227   -3.0263   -0.7144 H   0  0  0  0  0  0  0  0  0  0  0  0
    0.0120   -2.7078   -3.0110 H   0  0  0  0  0  0  0  0  0  0  0  0
    1.7400   -2.3597   -2.7711 H   0  0  0  0  0  0  0  0  0  0  0  0
    0.0755   -0.1144   -2.4681 H   0  0  0  0  0  0  0  0  0  0  0  0
   -0.5410   -0.9920   -1.0542 H   0  0  0  0  0  0  0  0  0  0  0  0
    2.4811   -0.6014   -1.4471 H   0  0  0  0  0  0  0  0  0  0  0  0
    1.4806    0.6724   -0.7030 H   0  0  0  0  0  0  0  0  0  0  0  0
    1.3289   -4.8484   -1.3523 N   0  0  0  0  0  0  0  0  0  0  0  0
    2.0741   -6.0690   -1.1433 C   0  0  2  0  0  0  0  0  0  0  0  0
    1.7115   -6.6117    0.2327 C   0  0  0  0  0  0  0  0  0  0  0  0
    1.2564   -5.9086    1.1325 O   0  0  0  0  0  0  0  0  0  0  0  0
    3.5716   -5.8292   -1.2557 C   0  0  0  0  0  0  0  0  0  0  0  0
    0.7064   -4.7931   -2.1529 H   0  0  0  0  0  0  0  0  0  0  0  0
    1.7460   -6.7757   -1.9134 H   0  0  0  0  0  0  0  0  0  0  0  0
    3.9189   -5.1236   -0.4922 H   0  0  0  0  0  0  0  0  0  0  0  0
    4.1335   -6.7600   -1.1255 H   0  0  0  0  0  0  0  0  0  0  0  0
    3.8269   -5.4110   -2.2354 H   0  0  0  0  0  0  0  0  0  0  0  0
    1.9963   -7.9648    0.3517 N   0  0  0  0  0  0  0  0  0  0  0  0
    1.7538   -8.7087    1.5657 C   0  0  0  0  0  0  0  0  0  0  0  0
    2.3545   -8.4726   -0.4517 H   0  0  0  0  0  0  0  0  0  0  0  0
    2.6625   -8.7060    2.1857 H   0  0  0  0  0  0  0  0  0  0  0  0
    0.9284   -8.2418    2.1231 H   0  0  0  0  0  0  0  0  0  0  0  0
    1.4855   -9.7452    1.3131 H   0  0  0  0  0  0  0  0  0  0  0  0
 18 19  1  0  0  0  0
 19 31  1  0  0  0  0
 19 20  2  0  0  0  0
  8  9  1  0  0  0  0
  9 17  1  0  0  0  0
  9 10  2  0  0  0  0
  1  3  1  0  0  0  0
  1  7  1  0  0  0  0
  1  2  2  0  0  0  0
 32 33  1  0  0  0  0
 33 41  1  0  0  0  0
 33 34  2  0  0  0  0
 21 22  1  0  0  0  0
 22 23  1  0  0  0  0
 18 21  1  0  0  0  0
 17 23  1  0  0  0  0
 17 18  1  0  0  0  0
  8 11  1  0  0  0  0
 32 35  1  0  0  0  0
 41 42  1  0  0  0  0
  7  8  1  0  0  0  0
 31 32  1  0  0  0  0
 22 27  1  0  0  0  0
 22 28  1  0  0  0  0
 21 25  1  0  0  0  0
 21 26  1  0  0  0  0
 23 29  1  0  0  0  0
 23 30  1  0  0  0  0
 18 24  1  0  0  0  0
  3  4  1  0  0  0  0
  3  5  1  0  0  0  0
  3  6  1  0  0  0  0
 11 14  1  0  0  0  0
 11 15  1  0  0  0  0
 11 16  1  0  0  0  0
 35 38  1  0  0  0  0
 35 39  1  0  0  0  0
 35 40  1  0  0  0  0
 42 44  1  0  0  0  0
 42 45  1  0  0  0  0
 42 46  1  0  0  0  0
  8 13  1  0  0  0  0
 32 37  1  0  0  0  0
 31 36  1  0  0  0  0
 41 43  1  0  0  0  0
  7 12  1  0  0  0  0
M  END
$$$$

  -OEChem-05262214473D

 46 46  0     1  0  0  0  0  0999 V2000
   -0.6012   -3.2995    3.8205 C   0  0  0  0  0  0  0  0  0  0  0  0
   -0.6574   -4.4683    3.4568 O   0  0  0  0  0  0  0  0  0  0  0  0
   -0.4935   -2.9859    5.2760 C   0  0  0  0  0  0  0  0  0  0  0  0
   -1.4789   -2.8689    5.7550 H   0  0  0  0  0  0  0  0  0  0  0  0
    0.0123   -3.7847    5.8419 H   0  0  0  0  0  0  0  0  0  0  0  0
    0.0585   -2.0642    5.5199 H   0  0  0  0  0  0  0  0  0  0  0  0
   -0.6261   -2.1849    2.9917 N   0  0  0  0  0  0  0  0  0  0  0  0
   -0.7237   -2.2601    1.5650 C   0  0  2  0  0  0  0  0  0  0  0  0
    0.1695   -1.1513    1.0687 C   0  0  0  0  0  0  0  0  0  0  0  0
    0.3193   -0.1267    1.7365 O   0  0  0  0  0  0  0  0  0  0  0  0
   -2.1397   -2.0663    1.0750 C   0  0  0  0  0  0  0  0  0  0  0  0
   -0.5717   -1.2606    3.4238 H   0  0  0  0  0  0  0  0  0  0  0  0
   -0.3076   -3.2111    1.2363 H   0  0  0  0  0  0  0  0  0  0  0  0
   -2.5584   -1.1089    1.4061 H   0  0  0  0  0  0  0  0  0  0  0  0
   -2.1682   -2.0790   -0.0197 H   0  0  0  0  0  0  0  0  0  0  0  0
   -2.7965   -2.8601    1.4459 H   0  0  0  0  0  0  0  0  0  0  0  0
    0.7724   -1.3745   -0.1593 N   0  0  0  0  0  0  0  0  0  0  0  0
    0.5614   -2.5964   -0.9244 C   0  0  2  0  0  0  0  0  0  0  0  0
    1.6157   -3.5728   -0.4972 C   0  0  0  0  0  0  0  0  0  0  0  0
    2.2533   -3.3634    0.5281 O   0  0  0  0  0  0  0  0  0  0  0  0
    0.7345   -2.1771   -2.3796 C   0  0  0  0  0  0  0  0  0  0  0  0
    0.3244   -0.8671   -1.7112 C   0  0  0  0  0  0  0  0  0  0  0  0
    1.5408   -0.3981   -0.9273 C   0  0  0  0  0  0  0  0  0  0  0  0
   -0.4227   -3.0263   -0.7144 H   0  0  0  0  0  0  0  0  0  0  0  0
    0.0120   -2.7078   -3.0110 H   0  0  0  0  0  0  0  0  0  0  0  0
    1.7400   -2.3597   -2.7711 H   0  0  0  0  0  0  0  0  0  0  0  0
    0.0755   -0.1144   -2.4681 H   0  0  0  0  0  0  0  0  0  0  0  0
   -0.5410   -0.9920   -1.0542 H   0  0  0  0  0  0  0  0  0  0  0  0
    2.4811   -0.6014   -1.4471 H   0  0  0  0  0  0  0  0  0  0  0  0
    1.4806    0.6724   -0.7030 H   0  0  0  0  0  0  0  0  0  0  0  0
    1.5861   -4.6790   -1.6000 N   0  0  0  0  0  0  0  0  0  0  0  0
    2.3938   -5.8717   -1.4813 C   0  0  2  0  0  0  0  0  0  0  0  0
    1.8634   -6.6840   -0.3073 C   0  0  0  0  0  0  0  0  0  0  0  0
    1.2077   -6.1906    0.6080 O   0  0  0  0  0  0  0  0  0  0  0  0
    3.8623   -5.5283   -1.2853 C   0  0  0  0  0  0  0  0  0  0  0  0
    1.0989   -4.5102   -2.4749 H   0  0  0  0  0  0  0  0  0  0  0  0
    2.2590   -6.4386   -2.4089 H   0  0  0  0  0  0  0  0  0  0  0  0
    4.0170   -4.9602   -0.3608 H   0  0  0  0  0  0  0  0  0  0  0  0
    4.4765   -6.4328   -1.2242 H   0  0  0  0  0  0  0  0  0  0  0  0
    4.2342   -4.9190   -2.1161 H   0  0  0  0  0  0  0  0  0  0  0  0
    2.2449   -8.0164   -0.3797 N   0  0  0  0  0  0  0  0  0  0  0  0
    1.8767   -8.9885    0.6230 C   0  0  0  0  0  0  0  0  0  0  0  0
    2.7723   -8.3421   -1.1844 H   0  0  0  0  0  0  0  0  0  0  0  0
    2.6691   -9.0498    1.3834 H   0  0  0  0  0  0  0  0  0  0  0  0
    0.9336   -8.6836    1.1002 H   0  0  0  0  0  0  0  0  0  0  0  0
    1.7465   -9.9726    0.1491 H   0  0  0  0  0  0  0  0  0  0  0  0
 18 19  1  0  0  0  0
 19 31  1  0  0  0  0
 19 20  2  0  0  0  0
  8  9  1  0  0  0  0
  9 17  1  0  0  0  0
  9 10  2  0  0  0  0
  1  3  1  0  0  0  0
  1  7  1  0  0  0  0
  1  2  2  0  0  0  0
 32 33  1  0  0  0  0
 33 41  1  0  0  0  0
 33 34  2  0  0  0  0
 21 22  1  0  0  0  0
 22 23  1  0  0  0  0
 18 21  1  0  0  0  0
 17 23  1  0  0  0  0
 17 18  1  0  0  0  0
  8 11  1  0  0  0  0
 32 35  1  0  0  0  0
 41 42  1  0  0  0  0
  7  8  1  0  0  0  0
 31 32  1  0  0  0  0
 22 27  1  0  0  0  0
 22 28  1  0  0  0  0
 21 25  1  0  0  0  0
 21 26  1  0  0  0  0
 23 29  1  0  0  0  0
 23 30  1  0  0  0  0
 18 24  1  0  0  0  0
  3  4  1  0  0  0  0
  3  5  1  0  0  0  0
  3  6  1  0  0  0  0
 11 14  1  0  0  0  0
 11 15  1  0  0  0  0
 11 16  1  0  0  0  0
 35 38  1  0  0  0  0
 35 39  1  0  0  0  0
 35 40  1  0  0  0  0
 42 44  1  0  0  0  0
 42 45  1  0  0  0  0
 42 46  1  0  0  0  0
  8 13  1  0  0  0  0
 32 37  1  0  0  0  0
 31 36  1  0  0  0  0
 41 43  1  0  0  0  0
  7 12  1  0  0  0  0
M  END
$$$$

  -OEChem-05262214473D

 46 46  0     1  0  0  0  0  0999 V2000
   -0.6012   -3.2995    3.8205 C   0  0  0  0  0  0  0  0  0  0  0  0
   -0.6574   -4.4683    3.4568 O   0  0  0  0  0  0  0  0  0  0  0  0
   -0.4935   -2.9859    5.2760 C   0  0  0  0  0  0  0  0  0  0  0  0
   -1.4789   -2.8689    5.7550 H   0  0  0  0  0  0  0  0  0  0  0  0
    0.0123   -3.7847    5.8419 H   0  0  0  0  0  0  0  0  0  0  0  0
    0.0585   -2.0642    5.5199 H   0  0  0  0  0  0  0  0  0  0  0  0
   -0.6261   -2.1849    2.9917 N   0  0  0  0  0  0  0  0  0  0  0  0
   -0.7237   -2.2601    1.5650 C   0  0  2  0  0  0  0  0  0  0  0  0
    0.1695   -1.1513    1.0687 C   0  0  0  0  0  0  0  0  0  0  0  0
    0.3193   -0.1267    1.7365 O   0  0  0  0  0  0  0  0  0  0  0  0
   -2.1397   -2.0663    1.0750 C   0  0  0  0  0  0  0  0  0  0  0  0
   -0.5717   -1.2606    3.4238 H   0  0  0  0  0  0  0  0  0  0  0  0
   -0.3076   -3.2111    1.2363 H   0  0  0  0  0  0  0  0  0  0  0  0
   -2.5584   -1.1089    1.4061 H   0  0  0  0  0  0  0  0  0  0  0  0
   -2.1682   -2.0790   -0.0197 H   0  0  0  0  0  0  0  0  0  0  0  0
   -2.7965   -2.8601    1.4459 H   0  0  0  0  0  0  0  0  0  0  0  0
    0.7724   -1.3745   -0.1593 N   0  0  0  0  0  0  0  0  0  0  0  0
    0.5614   -2.5964   -0.9244 C   0  0  2  0  0  0  0  0  0  0  0  0
    1.6157   -3.5728   -0.4972 C   0  0  0  0  0  0  0  0  0  0  0  0
    2.0578   -3.5236    0.6446 O   0  0  0  0  0  0  0  0  0  0  0  0
    0.7345   -2.1771   -2.3796 C   0  0  0  0  0  0  0  0  0  0  0  0
    0.3244   -0.8671   -1.7112 C   0  0  0  0  0  0  0  0  0  0  0  0
    1.5408   -0.3981   -0.9273 C   0  0  0  0  0  0  0  0  0  0  0  0
   -0.4227   -3.0263   -0.7144 H   0  0  0  0  0  0  0  0  0  0  0  0
    0.0120   -2.7078   -3.0110 H   0  0  0  0  0  0  0  0  0  0  0  0
    1.7400   -2.3597   -2.7711 H   0  0  0  0  0  0  0  0  0  0  0  0
    0.0755   -0.1144   -2.4681 H   0  0  0  0  0  0  0  0  0  0  0  0
   -0.5410   -0.9920   -1.0542 H   0  0  0  0  0  0  0  0  0  0  0  0
    2.4811   -0.6014   -1.4471 H   0  0  0  0  0  0  0  0  0  0  0  0
    1.4806    0.6724   -0.7030 H   0  0  0  0  0  0  0  0  0  0  0  0
    1.8638   -4.4513   -1.7650 N   0  0  0  0  0  0  0  0  0  0  0  0
    2.7450   -5.5960   -1.7179 C   0  0  2  0  0  0  0  0  0  0  0  0
    2.1064   -6.6443   -0.8164 C   0  0  0  0  0  0  0  0  0  0  0  0
    1.2699   -6.3712    0.0419 O   0  0  0  0  0  0  0  0  0  0  0  0
    4.1258   -5.2109   -1.2102 C   0  0  0  0  0  0  0  0  0  0  0  0
    1.5114   -4.1493   -2.6683 H   0  0  0  0  0  0  0  0  0  0  0  0
    2.8132   -5.9849   -2.7397 H   0  0  0  0  0  0  0  0  0  0  0  0
    4.0776   -4.8191   -0.1876 H   0  0  0  0  0  0  0  0  0  0  0  0
    4.8004   -6.0734   -1.2021 H   0  0  0  0  0  0  0  0  0  0  0  0
    4.5713   -4.4354   -1.8426 H   0  0  0  0  0  0  0  0  0  0  0  0
    2.6121   -7.9148   -1.0538 N   0  0  0  0  0  0  0  0  0  0  0  0
    2.1749   -9.0780   -0.3178 C   0  0  0  0  0  0  0  0  0  0  0  0
    3.2897   -8.0519   -1.7980 H   0  0  0  0  0  0  0  0  0  0  0  0
    2.8362   -9.2353    0.5470 H   0  0  0  0  0  0  0  0  0  0  0  0
    1.1437   -8.9239    0.0326 H   0  0  0  0  0  0  0  0  0  0  0  0
    2.2115   -9.9612   -0.9726 H   0  0  0  0  0  0  0  0  0  0  0  0
 18 19  1  0  0  0  0
 19 31  1  0  0  0  0
 19 20  2  0  0  0  0
  8  9  1  0  0  0  0
  9 17  1  0  0  0  0
  9 10  2  0  0  0  0
  1  3  1  0  0  0  0
  1  7  1  0  0  0  0
  1  2  2  0  0  0  0
 32 33  1  0  0  0  0
 33 41  1  0  0  0  0
 33 34  2  0  0  0  0
 21 22  1  0  0  0  0
 22 23  1  0  0  0  0
 18 21  1  0  0  0  0
 17 23  1  0  0  0  0
 17 18  1  0  0  0  0
  8 11  1  0  0  0  0
 32 35  1  0  0  0  0
 41 42  1  0  0  0  0
  7  8  1  0  0  0  0
 31 32  1  0  0  0  0
 22 27  1  0  0  0  0
 22 28  1  0  0  0  0
 21 25  1  0  0  0  0
 21 26  1  0  0  0  0
 23 29  1  0  0  0  0
 23 30  1  0  0  0  0
 18 24  1  0  0  0  0
  3  4  1  0  0  0  0
  3  5  1  0  0  0  0
  3  6  1  0  0  0  0
 11 14  1  0  0  0  0
 11 15  1  0  0  0  0
 11 16  1  0  0  0  0
 35 38  1  0  0  0  0
 35 39  1  0  0  0  0
 35 40  1  0  0  0  0
 42 44  1  0  0  0  0
 42 45  1  0  0  0  0
 42 46  1  0  0  0  0
  8 13  1  0  0  0  0
 32 37  1  0  0  0  0
 31 36  1  0  0  0  0
 41 43  1  0  0  0  0
  7 12  1  0  0  0  0
M  END
$$$$

  -OEChem-05262214473D

 46 46  0     1  0  0  0  0  0999 V2000
   -0.6012   -3.2995    3.8205 C   0  0  0  0  0  0  0  0  0  0  0  0
   -0.6574   -4.4683    3.4568 O   0  0  0  0  0  0  0  0  0  0  0  0
   -0.4935   -2.9859    5.2760 C   0  0  0  0  0  0  0  0  0  0  0  0
   -1.4789   -2.8689    5.7550 H   0  0  0  0  0  0  0  0  0  0  0  0
    0.0123   -3.7847    5.8419 H   0  0  0  0  0  0  0  0  0  0  0  0
    0.0585   -2.0642    5.5199 H   0  0  0  0  0  0  0  0  0  0  0  0
   -0.6261   -2.1849    2.9917 N   0  0  0  0  0  0  0  0  0  0  0  0
   -0.7237   -2.2601    1.5650 C   0  0  2  0  0  0  0  0  0  0  0  0
    0.1695   -1.1513    1.0687 C   0  0  0  0  0  0  0  0  0  0  0  0
    0.3193   -0.1267    1.7365 O   0  0  0  0  0  0  0  0  0  0  0  0
   -2.1397   -2.0663    1.0750 C   0  0  0  0  0  0  0  0  0  0  0  0
   -0.5717   -1.2606    3.4238 H   0  0  0  0  0  0  0  0  0  0  0  0
   -0.3076   -3.2111    1.2363 H   0  0  0  0  0  0  0  0  0  0  0  0
   -2.5584   -1.1089    1.4061 H   0  0  0  0  0  0  0  0  0  0  0  0
   -2.1682   -2.0790   -0.0197 H   0  0  0  0  0  0  0  0  0  0  0  0
   -2.7965   -2.8601    1.4459 H   0  0  0  0  0  0  0  0  0  0  0  0
    0.7724   -1.3745   -0.1593 N   0  0  0  0  0  0  0  0  0  0  0  0
    0.5614   -2.5964   -0.9244 C   0  0  2  0  0  0  0  0  0  0  0  0
    1.6157   -3.5728   -0.4972 C   0  0  0  0  0  0  0  0  0  0  0  0
    1.8611   -3.7139    0.6951 O   0  0  0  0  0  0  0  0  0  0  0  0
    0.7345   -2.1771   -2.3796 C   0  0  0  0  0  0  0  0  0  0  0  0
    0.3244   -0.8671   -1.7112 C   0  0  0  0  0  0  0  0  0  0  0  0
    1.5408   -0.3981   -0.9273 C   0  0  0  0  0  0  0  0  0  0  0  0
   -0.4227   -3.0263   -0.7144 H   0  0  0  0  0  0  0  0  0  0  0  0
    0.0120   -2.7078   -3.0110 H   0  0  0  0  0  0  0  0  0  0  0  0
    1.7400   -2.3597   -2.7711 H   0  0  0  0  0  0  0  0  0  0  0  0
    0.0755   -0.1144   -2.4681 H   0  0  0  0  0  0  0  0  0  0  0  0
   -0.5410   -0.9920   -1.0542 H   0  0  0  0  0  0  0  0  0  0  0  0
    2.4811   -0.6014   -1.4471 H   0  0  0  0  0  0  0  0  0  0  0  0
    1.4806    0.6724   -0.7030 H   0  0  0  0  0  0  0  0  0  0  0  0
    2.1431   -4.1809   -1.8361 N   0  0  0  0  0  0  0  0  0  0  0  0
    3.1037   -5.2608   -1.8371 C   0  0  2  0  0  0  0  0  0  0  0  0
    2.4240   -6.4954   -1.2600 C   0  0  0  0  0  0  0  0  0  0  0  0
    1.4387   -6.4379   -0.5273 O   0  0  0  0  0  0  0  0  0  0  0  0
    4.3442   -4.8986   -1.0354 C   0  0  0  0  0  0  0  0  0  0  0  0
    1.9159   -3.7351   -2.7199 H   0  0  0  0  0  0  0  0  0  0  0  0
    3.3708   -5.4456   -2.8833 H   0  0  0  0  0  0  0  0  0  0  0  0
    4.0965   -4.7098    0.0155 H   0  0  0  0  0  0  0  0  0  0  0  0
    5.0830   -5.7064   -1.0608 H   0  0  0  0  0  0  0  0  0  0  0  0
    4.8150   -3.9933   -1.4336 H   0  0  0  0  0  0  0  0  0  0  0  0
    3.0729   -7.6668   -1.6245 N   0  0  0  0  0  0  0  0  0  0  0  0
    2.6282   -8.9713   -1.1926 C   0  0  0  0  0  0  0  0  0  0  0  0
    3.8714   -7.6217   -2.2506 H   0  0  0  0  0  0  0  0  0  0  0  0
    3.1522   -9.2499   -0.2665 H   0  0  0  0  0  0  0  0  0  0  0  0
    1.5442   -8.9461   -1.0070 H   0  0  0  0  0  0  0  0  0  0  0  0
    2.8490   -9.7117   -1.9756 H   0  0  0  0  0  0  0  0  0  0  0  0
 18 19  1  0  0  0  0
 19 31  1  0  0  0  0
 19 20  2  0  0  0  0
  8  9  1  0  0  0  0
  9 17  1  0  0  0  0
  9 10  2  0  0  0  0
  1  3  1  0  0  0  0
  1  7  1  0  0  0  0
  1  2  2  0  0  0  0
 32 33  1  0  0  0  0
 33 41  1  0  0  0  0
 33 34  2  0  0  0  0
 21 22  1  0  0  0  0
 22 23  1  0  0  0  0
 18 21  1  0  0  0  0
 17 23  1  0  0  0  0
 17 18  1  0  0  0  0
  8 11  1  0  0  0  0
 32 35  1  0  0  0  0
 41 42  1  0  0  0  0
  7  8  1  0  0  0  0
 31 32  1  0  0  0  0
 22 27  1  0  0  0  0
 22 28  1  0  0  0  0
 21 25  1  0  0  0  0
 21 26  1  0  0  0  0
 23 29  1  0  0  0  0
 23 30  1  0  0  0  0
 18 24  1  0  0  0  0
  3  4  1  0  0  0  0
  3  5  1  0  0  0  0
  3  6  1  0  0  0  0
 11 14  1  0  0  0  0
 11 15  1  0  0  0  0
 11 16  1  0  0  0  0
 35 38  1  0  0  0  0
 35 39  1  0  0  0  0
 35 40  1  0  0  0  0
 42 44  1  0  0  0  0
 42 45  1  0  0  0  0
 42 46  1  0  0  0  0
  8 13  1  0  0  0  0
 32 37  1  0  0  0  0
 31 36  1  0  0  0  0
 41 43  1  0  0  0  0
  7 12  1  0  0  0  0
M  END
$$$$

  -OEChem-05262214473D

 46 46  0     1  0  0  0  0  0999 V2000
   -0.6012   -3.2995    3.8205 C   0  0  0  0  0  0  0  0  0  0  0  0
   -0.6574   -4.4683    3.4568 O   0  0  0  0  0  0  0  0  0  0  0  0
   -0.4935   -2.9859    5.2760 C   0  0  0  0  0  0  0  0  0  0  0  0
   -1.4789   -2.8689    5.7550 H   0  0  0  0  0  0  0  0  0  0  0  0
    0.0123   -3.7847    5.8419 H   0  0  0  0  0  0  0  0  0  0  0  0
    0.0585   -2.0642    5.5199 H   0  0  0  0  0  0  0  0  0  0  0  0
   -0.6261   -2.1849    2.9917 N   0  0  0  0  0  0  0  0  0  0  0  0
   -0.7237   -2.2601    1.5650 C   0  0  2  0  0  0  0  0  0  0  0  0
    0.1695   -1.1513    1.0687 C   0  0  0  0  0  0  0  0  0  0  0  0
    0.3193   -0.1267    1.7365 O   0  0  0  0  0  0  0  0  0  0  0  0
   -2.1397   -2.0663    1.0750 C   0  0  0  0  0  0  0  0  0  0  0  0
   -0.5717   -1.2606    3.4238 H   0  0  0  0  0  0  0  0  0  0  0  0
   -0.3076   -3.2111    1.2363 H   0  0  0  0  0  0  0  0  0  0  0  0
   -2.5584   -1.1089    1.4061 H   0  0  0  0  0  0  0  0  0  0  0  0
   -2.1682   -2.0790   -0.0197 H   0  0  0  0  0  0  0  0  0  0  0  0
   -2.7965   -2.8601    1.4459 H   0  0  0  0  0  0  0  0  0  0  0  0
    0.7724   -1.3745   -0.1593 N   0  0  0  0  0  0  0  0  0  0  0  0
    0.5614   -2.5964   -0.9244 C   0  0  2  0  0  0  0  0  0  0  0  0
    1.6157   -3.5728   -0.4972 C   0  0  0  0  0  0  0  0  0  0  0  0
    1.6766   -3.9214    0.6760 O   0  0  0  0  0  0  0  0  0  0  0  0
    0.7345   -2.1771   -2.3796 C   0  0  0  0  0  0  0  0  0  0  0  0
    0.3244   -0.8671   -1.7112 C   0  0  0  0  0  0  0  0  0  0  0  0
    1.5408   -0.3981   -0.9273 C   0  0  0  0  0  0  0  0  0  0  0  0
   -0.4227   -3.0263   -0.7144 H   0  0  0  0  0  0  0  0  0  0  0  0
    0.0120   -2.7078   -3.0110 H   0  0  0  0  0  0  0  0  0  0  0  0
    1.7400   -2.3597   -2.7711 H   0  0  0  0  0  0  0  0  0  0  0  0
    0.0755   -0.1144   -2.4681 H   0  0  0  0  0  0  0  0  0  0  0  0
   -0.5410   -0.9920   -1.0542 H   0  0  0  0  0  0  0  0  0  0  0  0
    2.4811   -0.6014   -1.4471 H   0  0  0  0  0  0  0  0  0  0  0  0
    1.4806    0.6724   -0.7030 H   0  0  0  0  0  0  0  0  0  0  0  0
    2.4049   -3.8861   -1.8085 N   0  0  0  0  0  0  0  0  0  0  0  0
    3.4457   -4.8888   -1.8307 C   0  0  2  0  0  0  0  0  0  0  0  0
    2.7946   -6.2474   -1.6078 C   0  0  0  0  0  0  0  0  0  0  0  0
    1.7026   -6.3863   -1.0608 O   0  0  0  0  0  0  0  0  0  0  0  0
    4.5027   -4.6126   -0.7729 C   0  0  0  0  0  0  0  0  0  0  0  0
    2.2848   -3.2959   -2.6262 H   0  0  0  0  0  0  0  0  0  0  0  0
    3.8938   -4.8574   -2.8298 H   0  0  0  0  0  0  0  0  0  0  0  0
    4.0724   -4.6398    0.2348 H   0  0  0  0  0  0  0  0  0  0  0  0
    5.3051   -5.3568   -0.8099 H   0  0  0  0  0  0  0  0  0  0  0  0
    4.9490   -3.6227   -0.9170 H   0  0  0  0  0  0  0  0  0  0  0  0
    3.5960   -7.2895   -2.0529 N   0  0  0  0  0  0  0  0  0  0  0  0
    3.2056   -8.6756   -1.9417 C   0  0  0  0  0  0  0  0  0  0  0  0
    4.4780   -7.0808   -2.5114 H   0  0  0  0  0  0  0  0  0  0  0  0
    3.5957   -9.0927   -1.0016 H   0  0  0  0  0  0  0  0  0  0  0  0
    2.1080   -8.7488   -1.9476 H   0  0  0  0  0  0  0  0  0  0  0  0
    3.6154   -9.2411   -2.7916 H   0  0  0  0  0  0  0  0  0  0  0  0
 18 19  1  0  0  0  0
 19 31  1  0  0  0  0
 19 20  2  0  0  0  0
  8  9  1  0  0  0  0
  9 17  1  0  0  0  0
  9 10  2  0  0  0  0
  1  3  1  0  0  0  0
  1  7  1  0  0  0  0
  1  2  2  0  0  0  0
 32 33  1  0  0  0  0
 33 41  1  0  0  0  0
 33 34  2  0  0  0  0
 21 22  1  0  0  0  0
 22 23  1  0  0  0  0
 18 21  1  0  0  0  0
 17 23  1  0  0  0  0
 17 18  1  0  0  0  0
  8 11  1  0  0  0  0
 32 35  1  0  0  0  0
 41 42  1  0  0  0  0
  7  8  1  0  0  0  0
 31 32  1  0  0  0  0
 22 27  1  0  0  0  0
 22 28  1  0  0  0  0
 21 25  1  0  0  0  0
 21 26  1  0  0  0  0
 23 29  1  0  0  0  0
 23 30  1  0  0  0  0
 18 24  1  0  0  0  0
  3  4  1  0  0  0  0
  3  5  1  0  0  0  0
  3  6  1  0  0  0  0
 11 14  1  0  0  0  0
 11 15  1  0  0  0  0
 11 16  1  0  0  0  0
 35 38  1  0  0  0  0
 35 39  1  0  0  0  0
 35 40  1  0  0  0  0
 42 44  1  0  0  0  0
 42 45  1  0  0  0  0
 42 46  1  0  0  0  0
  8 13  1  0  0  0  0
 32 37  1  0  0  0  0
 31 36  1  0  0  0  0
 41 43  1  0  0  0  0
  7 12  1  0  0  0  0
M  END
$$$$

  -OEChem-05262214473D

 46 46  0     1  0  0  0  0  0999 V2000
   -0.6012   -3.2995    3.8205 C   0  0  0  0  0  0  0  0  0  0  0  0
   -0.6574   -4.4683    3.4568 O   0  0  0  0  0  0  0  0  0  0  0  0
   -0.4935   -2.9859    5.2760 C   0  0  0  0  0  0  0  0  0  0  0  0
   -1.4789   -2.8689    5.7550 H   0  0  0  0  0  0  0  0  0  0  0  0
    0.0123   -3.7847    5.8419 H   0  0  0  0  0  0  0  0  0  0  0  0
    0.0585   -2.0642    5.5199 H   0  0  0  0  0  0  0  0  0  0  0  0
   -0.6261   -2.1849    2.9917 N   0  0  0  0  0  0  0  0  0  0  0  0
   -0.7237   -2.2601    1.5650 C   0  0  2  0  0  0  0  0  0  0  0  0
    0.1695   -1.1513    1.0687 C   0  0  0  0  0  0  0  0  0  0  0  0
    0.3193   -0.1267    1.7365 O   0  0  0  0  0  0  0  0  0  0  0  0
   -2.1397   -2.0663    1.0750 C   0  0  0  0  0  0  0  0  0  0  0  0
   -0.5717   -1.2606    3.4238 H   0  0  0  0  0  0  0  0  0  0  0  0
   -0.3076   -3.2111    1.2363 H   0  0  0  0  0  0  0  0  0  0  0  0
   -2.5584   -1.1089    1.4061 H   0  0  0  0  0  0  0  0  0  0  0  0
   -2.1682   -2.0790   -0.0197 H   0  0  0  0  0  0  0  0  0  0  0  0
   -2.7965   -2.8601    1.4459 H   0  0  0  0  0  0  0  0  0  0  0  0
    0.7724   -1.3745   -0.1593 N   0  0  0  0  0  0  0  0  0  0  0  0
    0.5614   -2.5964   -0.9244 C   0  0  2  0  0  0  0  0  0  0  0  0
    1.6157   -3.5728   -0.4972 C   0  0  0  0  0  0  0  0  0  0  0  0
    1.5170   -4.1320    0.5887 O   0  0  0  0  0  0  0  0  0  0  0  0
    0.7345   -2.1771   -2.3796 C   0  0  0  0  0  0  0  0  0  0  0  0
    0.3244   -0.8671   -1.7112 C   0  0  0  0  0  0  0  0  0  0  0  0
    1.5408   -0.3981   -0.9273 C   0  0  0  0  0  0  0  0  0  0  0  0
   -0.4227   -3.0263   -0.7144 H   0  0  0  0  0  0  0  0  0  0  0  0
    0.0120   -2.7078   -3.0110 H   0  0  0  0  0  0  0  0  0  0  0  0
    1.7400   -2.3597   -2.7711 H   0  0  0  0  0  0  0  0  0  0  0  0
    0.0755   -0.1144   -2.4681 H   0  0  0  0  0  0  0  0  0  0  0  0
   -0.5410   -0.9920   -1.0542 H   0  0  0  0  0  0  0  0  0  0  0  0
    2.4811   -0.6014   -1.4471 H   0  0  0  0  0  0  0  0  0  0  0  0
    1.4806    0.6724   -0.7030 H   0  0  0  0  0  0  0  0  0  0  0  0
    2.6314   -3.5871   -1.6841 N   0  0  0  0  0  0  0  0  0  0  0  0
    3.7474   -4.5054   -1.6992 C   0  0  2  0  0  0  0  0  0  0  0  0
    3.1929   -5.9172   -1.8362 C   0  0  0  0  0  0  0  0  0  0  0  0
    2.0436   -6.2199   -1.5222 O   0  0  0  0  0  0  0  0  0  0  0  0
    4.5905   -4.3724   -0.4405 C   0  0  0  0  0  0  0  0  0  0  0  0
    2.5928   -2.8614   -2.3935 H   0  0  0  0  0  0  0  0  0  0  0  0
    4.3467   -4.2604   -2.5829 H   0  0  0  0  0  0  0  0  0  0  0  0
    4.0070   -4.6139    0.4554 H   0  0  0  0  0  0  0  0  0  0  0  0
    5.4515   -5.0485   -0.4664 H   0  0  0  0  0  0  0  0  0  0  0  0
    4.9639   -3.3488   -0.3280 H   0  0  0  0  0  0  0  0  0  0  0  0
    4.1456   -6.8084   -2.3098 N   0  0  0  0  0  0  0  0  0  0  0  0
    3.8678   -8.2110   -2.5142 C   0  0  0  0  0  0  0  0  0  0  0  0
    5.0679   -6.4662   -2.5627 H   0  0  0  0  0  0  0  0  0  0  0  0
    4.1364   -8.7743   -1.6084 H   0  0  0  0  0  0  0  0  0  0  0  0
    2.7966   -8.3455   -2.7253 H   0  0  0  0  0  0  0  0  0  0  0  0
    4.4585   -8.5815   -3.3649 H   0  0  0  0  0  0  0  0  0  0  0  0
 18 19  1  0  0  0  0
 19 31  1  0  0  0  0
 19 20  2  0  0  0  0
  8  9  1  0  0  0  0
  9 17  1  0  0  0  0
  9 10  2  0  0  0  0
  1  3  1  0  0  0  0
  1  7  1  0  0  0  0
  1  2  2  0  0  0  0
 32 33  1  0  0  0  0
 33 41  1  0  0  0  0
 33 34  2  0  0  0  0
 21 22  1  0  0  0  0
 22 23  1  0  0  0  0
 18 21  1  0  0  0  0
 17 23  1  0  0  0  0
 17 18  1  0  0  0  0
  8 11  1  0  0  0  0
 32 35  1  0  0  0  0
 41 42  1  0  0  0  0
  7  8  1  0  0  0  0
 31 32  1  0  0  0  0
 22 27  1  0  0  0  0
 22 28  1  0  0  0  0
 21 25  1  0  0  0  0
 21 26  1  0  0  0  0
 23 29  1  0  0  0  0
 23 30  1  0  0  0  0
 18 24  1  0  0  0  0
  3  4  1  0  0  0  0
  3  5  1  0  0  0  0
  3  6  1  0  0  0  0
 11 14  1  0  0  0  0
 11 15  1  0  0  0  0
 11 16  1  0  0  0  0
 35 38  1  0  0  0  0
 35 39  1  0  0  0  0
 35 40  1  0  0  0  0
 42 44  1  0  0  0  0
 42 45  1  0  0  0  0
 42 46  1  0  0  0  0
  8 13  1  0  0  0  0
 32 37  1  0  0  0  0
 31 36  1  0  0  0  0
 41 43  1  0  0  0  0
  7 12  1  0  0  0  0
M  END
$$$$

  -OEChem-05262214473D

 46 46  0     1  0  0  0  0  0999 V2000
   -0.6012   -3.2995    3.8205 C   0  0  0  0  0  0  0  0  0  0  0  0
   -0.6574   -4.4683    3.4568 O   0  0  0  0  0  0  0  0  0  0  0  0
   -0.4935   -2.9859    5.2760 C   0  0  0  0  0  0  0  0  0  0  0  0
   -1.4789   -2.8689    5.7550 H   0  0  0  0  0  0  0  0  0  0  0  0
    0.0123   -3.7847    5.8419 H   0  0  0  0  0  0  0  0  0  0  0  0
    0.0585   -2.0642    5.5199 H   0  0  0  0  0  0  0  0  0  0  0  0
   -0.6261   -2.1849    2.9917 N   0  0  0  0  0  0  0  0  0  0  0  0
   -0.7237   -2.2601    1.5650 C   0  0  2  0  0  0  0  0  0  0  0  0
    0.1695   -1.1513    1.0687 C   0  0  0  0  0  0  0  0  0  0  0  0
    0.3193   -0.1267    1.7365 O   0  0  0  0  0  0  0  0  0  0  0  0
   -2.1397   -2.0663    1.0750 C   0  0  0  0  0  0  0  0  0  0  0  0
   -0.5717   -1.2606    3.4238 H   0  0  0  0  0  0  0  0  0  0  0  0
   -0.3076   -3.2111    1.2363 H   0  0  0  0  0  0  0  0  0  0  0  0
   -2.5584   -1.1089    1.4061 H   0  0  0  0  0  0  0  0  0  0  0  0
   -2.1682   -2.0790   -0.0197 H   0  0  0  0  0  0  0  0  0  0  0  0
   -2.7965   -2.8601    1.4459 H   0  0  0  0  0  0  0  0  0  0  0  0
    0.7724   -1.3745   -0.1593 N   0  0  0  0  0  0  0  0  0  0  0  0
    0.5614   -2.5964   -0.9244 C   0  0  2  0  0  0  0  0  0  0  0  0
    1.6157   -3.5728   -0.4972 C   0  0  0  0  0  0  0  0  0  0  0  0
    1.3930   -4.3313    0.4392 O   0  0  0  0  0  0  0  0  0  0  0  0
    0.7345   -2.1771   -2.3796 C   0  0  0  0  0  0  0  0  0  0  0  0
    0.3244   -0.8671   -1.7112 C   0  0  0  0  0  0  0  0  0  0  0  0
    1.5408   -0.3981   -0.9273 C   0  0  0  0  0  0  0  0  0  0  0  0
   -0.4227   -3.0263   -0.7144 H   0  0  0  0  0  0  0  0  0  0  0  0
    0.0120   -2.7078   -3.0110 H   0  0  0  0  0  0  0  0  0  0  0  0
    1.7400   -2.3597   -2.7711 H   0  0  0  0  0  0  0  0  0  0  0  0
    0.0755   -0.1144   -2.4681 H   0  0  0  0  0  0  0  0  0  0  0  0
   -0.5410   -0.9920   -1.0542 H   0  0  0  0  0  0  0  0  0  0  0  0
    2.4811   -0.6014   -1.4471 H   0  0  0  0  0  0  0  0  0  0  0  0
    1.4806    0.6724   -0.7030 H   0  0  0  0  0  0  0  0  0  0  0  0
    2.8072   -3.3042   -1.4713 N   0  0  0  0  0  0  0  0  0  0  0  0
    3.9884   -4.1368   -1.4515 C   0  0  2  0  0  0  0  0  0  0  0  0
    3.5918   -5.5274   -1.9295 C   0  0  0  0  0  0  0  0  0  0  0  0
    2.4386   -5.9501   -1.8801 O   0  0  0  0  0  0  0  0  0  0  0  0
    4.6016   -4.1944   -0.0610 C   0  0  0  0  0  0  0  0  0  0  0  0
    2.8192   -2.4614   -2.0378 H   0  0  0  0  0  0  0  0  0  0  0  0
    4.6984   -3.6953   -2.1594 H   0  0  0  0  0  0  0  0  0  0  0  0
    3.9048   -4.6339    0.6621 H   0  0  0  0  0  0  0  0  0  0  0  0
    5.5123   -4.8023   -0.0538 H   0  0  0  0  0  0  0  0  0  0  0  0
    4.8589   -3.1904    0.2934 H   0  0  0  0  0  0  0  0  0  0  0  0
    4.6843   -6.2565   -2.3778 N   0  0  0  0  0  0  0  0  0  0  0  0
    4.5697   -7.6091   -2.8709 C   0  0  0  0  0  0  0  0  0  0  0  0
    5.6011   -5.8197   -2.4008 H   0  0  0  0  0  0  0  0  0  0  0  0
    4.7375   -8.3164   -2.0453 H   0  0  0  0  0  0  0  0  0  0  0  0
    3.5631   -7.7635   -3.2869 H   0  0  0  0  0  0  0  0  0  0  0  0
    5.3209   -7.7778   -3.6565 H   0  0  0  0  0  0  0  0  0  0  0  0
 18 19  1  0  0  0  0
 19 31  1  0  0  0  0
 19 20  2  0  0  0  0
  8  9  1  0  0  0  0
  9 17  1  0  0  0  0
  9 10  2  0  0  0  0
  1  3  1  0  0  0  0
  1  7  1  0  0  0  0
  1  2  2  0  0  0  0
 32 33  1  0  0  0  0
 33 41  1  0  0  0  0
 33 34  2  0  0  0  0
 21 22  1  0  0  0  0
 22 23  1  0  0  0  0
 18 21  1  0  0  0  0
 17 23  1  0  0  0  0
 17 18  1  0  0  0  0
  8 11  1  0  0  0  0
 32 35  1  0  0  0  0
 41 42  1  0  0  0  0
  7  8  1  0  0  0  0
 31 32  1  0  0  0  0
 22 27  1  0  0  0  0
 22 28  1  0  0  0  0
 21 25  1  0  0  0  0
 21 26  1  0  0  0  0
 23 29  1  0  0  0  0
 23 30  1  0  0  0  0
 18 24  1  0  0  0  0
  3  4  1  0  0  0  0
  3  5  1  0  0  0  0
  3  6  1  0  0  0  0
 11 14  1  0  0  0  0
 11 15  1  0  0  0  0
 11 16  1  0  0  0  0
 35 38  1  0  0  0  0
 35 39  1  0  0  0  0
 35 40  1  0  0  0  0
 42 44  1  0  0  0  0
 42 45  1  0  0  0  0
 42 46  1  0  0  0  0
  8 13  1  0  0  0  0
 32 37  1  0  0  0  0
 31 36  1  0  0  0  0
 41 43  1  0  0  0  0
  7 12  1  0  0  0  0
M  END
$$$$

  -OEChem-05262214473D

 46 46  0     1  0  0  0  0  0999 V2000
   -0.6012   -3.2995    3.8205 C   0  0  0  0  0  0  0  0  0  0  0  0
   -0.6574   -4.4683    3.4568 O   0  0  0  0  0  0  0  0  0  0  0  0
   -0.4935   -2.9859    5.2760 C   0  0  0  0  0  0  0  0  0  0  0  0
   -1.4789   -2.8689    5.7550 H   0  0  0  0  0  0  0  0  0  0  0  0
    0.0123   -3.7847    5.8419 H   0  0  0  0  0  0  0  0  0  0  0  0
    0.0585   -2.0642    5.5199 H   0  0  0  0  0  0  0  0  0  0  0  0
   -0.6261   -2.1849    2.9917 N   0  0  0  0  0  0  0  0  0  0  0  0
   -0.7237   -2.2601    1.5650 C   0  0  2  0  0  0  0  0  0  0  0  0
    0.1695   -1.1513    1.0687 C   0  0  0  0  0  0  0  0  0  0  0  0
    0.3193   -0.1267    1.7365 O   0  0  0  0  0  0  0  0  0  0  0  0
   -2.1397   -2.0663    1.0750 C   0  0  0  0  0  0  0  0  0  0  0  0
   -0.5717   -1.2606    3.4238 H   0  0  0  0  0  0  0  0  0  0  0  0
   -0.3076   -3.2111    1.2363 H   0  0  0  0  0  0  0  0  0  0  0  0
   -2.5584   -1.1089    1.4061 H   0  0  0  0  0  0  0  0  0  0  0  0
   -2.1682   -2.0790   -0.0197 H   0  0  0  0  0  0  0  0  0  0  0  0
   -2.7965   -2.8601    1.4459 H   0  0  0  0  0  0  0  0  0  0  0  0
    0.7724   -1.3745   -0.1593 N   0  0  0  0  0  0  0  0  0  0  0  0
    0.5614   -2.5964   -0.9244 C   0  0  2  0  0  0  0  0  0  0  0  0
    1.6157   -3.5728   -0.4972 C   0  0  0  0  0  0  0  0  0  0  0  0
    1.3131   -4.5058    0.2375 O   0  0  0  0  0  0  0  0  0  0  0  0
    0.7345   -2.1771   -2.3796 C   0  0  0  0  0  0  0  0  0  0  0  0
    0.3244   -0.8671   -1.7112 C   0  0  0  0  0  0  0  0  0  0  0  0
    1.5408   -0.3981   -0.9273 C   0  0  0  0  0  0  0  0  0  0  0  0
   -0.4227   -3.0263   -0.7144 H   0  0  0  0  0  0  0  0  0  0  0  0
    0.0120   -2.7078   -3.0110 H   0  0  0  0  0  0  0  0  0  0  0  0
    1.7400   -2.3597   -2.7711 H   0  0  0  0  0  0  0  0  0  0  0  0
    0.0755   -0.1144   -2.4681 H   0  0  0  0  0  0  0  0  0  0  0  0
   -0.5410   -0.9920   -1.0542 H   0  0  0  0  0  0  0  0  0  0  0  0
    2.4811   -0.6014   -1.4471 H   0  0  0  0  0  0  0  0  0  0  0  0
    1.4806    0.6724   -0.7030 H   0  0  0  0  0  0  0  0  0  0  0  0
    2.9202   -3.0568   -1.1846 N   0  0  0  0  0  0  0  0  0  0  0  0
    4.1523   -3.8081   -1.1045 C   0  0  2  0  0  0  0  0  0  0  0  0
    3.9641   -5.1044   -1.8815 C   0  0  0  0  0  0  0  0  0  0  0  0
    2.8605   -5.5951   -2.1102 O   0  0  0  0  0  0  0  0  0  0  0  0
    4.5351   -4.0908    0.3399 C   0  0  0  0  0  0  0  0  0  0  0  0
    2.9483   -2.1231   -1.5832 H   0  0  0  0  0  0  0  0  0  0  0  0
    4.9251   -3.2007   -1.5881 H   0  0  0  0  0  0  0  0  0  0  0  0
    3.7727   -4.6984    0.8409 H   0  0  0  0  0  0  0  0  0  0  0  0
    5.4833   -4.6352    0.3998 H   0  0  0  0  0  0  0  0  0  0  0  0
    4.6410   -3.1583    0.9047 H   0  0  0  0  0  0  0  0  0  0  0  0
    5.1754   -5.6712   -2.2522 N   0  0  0  0  0  0  0  0  0  0  0  0
    5.2634   -6.9111   -2.9877 C   0  0  0  0  0  0  0  0  0  0  0  0
    6.0411   -5.1854   -2.0370 H   0  0  0  0  0  0  0  0  0  0  0  0
    5.3580   -7.7503   -2.2827 H   0  0  0  0  0  0  0  0  0  0  0  0
    4.3553   -7.0427   -3.5943 H   0  0  0  0  0  0  0  0  0  0  0  0
    6.1439   -6.8849   -3.6465 H   0  0  0  0  0  0  0  0  0  0  0  0
 18 19  1  0  0  0  0
 19 31  1  0  0  0  0
 19 20  2  0  0  0  0
  8  9  1  0  0  0  0
  9 17  1  0  0  0  0
  9 10  2  0  0  0  0
  1  3  1  0  0  0  0
  1  7  1  0  0  0  0
  1  2  2  0  0  0  0
 32 33  1  0  0  0  0
 33 41  1  0  0  0  0
 33 34  2  0  0  0  0
 21 22  1  0  0  0  0
 22 23  1  0  0  0  0
 18 21  1  0  0  0  0
 17 23  1  0  0  0  0
 17 18  1  0  0  0  0
  8 11  1  0  0  0  0
 32 35  1  0  0  0  0
 41 42  1  0  0  0  0
  7  8  1  0  0  0  0
 31 32  1  0  0  0  0
 22 27  1  0  0  0  0
 22 28  1  0  0  0  0
 21 25  1  0  0  0  0
 21 26  1  0  0  0  0
 23 29  1  0  0  0  0
 23 30  1  0  0  0  0
 18 24  1  0  0  0  0
  3  4  1  0  0  0  0
  3  5  1  0  0  0  0
  3  6  1  0  0  0  0
 11 14  1  0  0  0  0
 11 15  1  0  0  0  0
 11 16  1  0  0  0  0
 35 38  1  0  0  0  0
 35 39  1  0  0  0  0
 35 40  1  0  0  0  0
 42 44  1  0  0  0  0
 42 45  1  0  0  0  0
 42 46  1  0  0  0  0
  8 13  1  0  0  0  0
 32 37  1  0  0  0  0
 31 36  1  0  0  0  0
 41 43  1  0  0  0  0
  7 12  1  0  0  0  0
M  END
$$$$

  -OEChem-05262214473D

 46 46  0     1  0  0  0  0  0999 V2000
   -0.6012   -3.2995    3.8205 C   0  0  0  0  0  0  0  0  0  0  0  0
   -0.6574   -4.4683    3.4568 O   0  0  0  0  0  0  0  0  0  0  0  0
   -0.4935   -2.9859    5.2760 C   0  0  0  0  0  0  0  0  0  0  0  0
   -1.4789   -2.8689    5.7550 H   0  0  0  0  0  0  0  0  0  0  0  0
    0.0123   -3.7847    5.8419 H   0  0  0  0  0  0  0  0  0  0  0  0
    0.0585   -2.0642    5.5199 H   0  0  0  0  0  0  0  0  0  0  0  0
   -0.6261   -2.1849    2.9917 N   0  0  0  0  0  0  0  0  0  0  0  0
   -0.7237   -2.2601    1.5650 C   0  0  2  0  0  0  0  0  0  0  0  0
    0.1695   -1.1513    1.0687 C   0  0  0  0  0  0  0  0  0  0  0  0
    0.3193   -0.1267    1.7365 O   0  0  0  0  0  0  0  0  0  0  0  0
   -2.1397   -2.0663    1.0750 C   0  0  0  0  0  0  0  0  0  0  0  0
   -0.5717   -1.2606    3.4238 H   0  0  0  0  0  0  0  0  0  0  0  0
   -0.3076   -3.2111    1.2363 H   0  0  0  0  0  0  0  0  0  0  0  0
   -2.5584   -1.1089    1.4061 H   0  0  0  0  0  0  0  0  0  0  0  0
   -2.1682   -2.0790   -0.0197 H   0  0  0  0  0  0  0  0  0  0  0  0
   -2.7965   -2.8601    1.4459 H   0  0  0  0  0  0  0  0  0  0  0  0
    0.7724   -1.3745   -0.1593 N   0  0  0  0  0  0  0  0  0  0  0  0
    0.5614   -2.5964   -0.9244 C   0  0  2  0  0  0  0  0  0  0  0  0
    1.6157   -3.5728   -0.4972 C   0  0  0  0  0  0  0  0  0  0  0  0
    1.2829   -4.6434   -0.0025 O   0  0  0  0  0  0  0  0  0  0  0  0
    0.7345   -2.1771   -2.3796 C   0  0  0  0  0  0  0  0  0  0  0  0
    0.3244   -0.8671   -1.7112 C   0  0  0  0  0  0  0  0  0  0  0  0
    1.5408   -0.3981   -0.9273 C   0  0  0  0  0  0  0  0  0  0  0  0
   -0.4227   -3.0263   -0.7144 H   0  0  0  0  0  0  0  0  0  0  0  0
    0.0120   -2.7078   -3.0110 H   0  0  0  0  0  0  0  0  0  0  0  0
    1.7400   -2.3597   -2.7711 H   0  0  0  0  0  0  0  0  0  0  0  0
    0.0755   -0.1144   -2.4681 H   0  0  0  0  0  0  0  0  0  0  0  0
   -0.5410   -0.9920   -1.0542 H   0  0  0  0  0  0  0  0  0  0  0  0
    2.4811   -0.6014   -1.4471 H   0  0  0  0  0  0  0  0  0  0  0  0
    1.4806    0.6724   -0.7030 H   0  0  0  0  0  0  0  0  0  0  0  0
    2.9628   -2.8616   -0.8436 N   0  0  0  0  0  0  0  0  0  0  0  0
    4.2279   -3.5416   -0.6819 C   0  0  2  0  0  0  0  0  0  0  0  0
    4.2844   -4.6771   -1.6953 C   0  0  0  0  0  0  0  0  0  0  0  0
    3.2806   -5.1793   -2.1967 O   0  0  0  0  0  0  0  0  0  0  0  0
    4.3957   -4.0686    0.7347 C   0  0  0  0  0  0  0  0  0  0  0  0
    2.9715   -1.8695   -1.0607 H   0  0  0  0  0  0  0  0  0  0  0  0
    5.0113   -2.8101   -0.9081 H   0  0  0  0  0  0  0  0  0  0  0  0
    3.6197   -4.8029    0.9795 H   0  0  0  0  0  0  0  0  0  0  0  0
    5.3666   -4.5584    0.8634 H   0  0  0  0  0  0  0  0  0  0  0  0
    4.3251   -3.2546    1.4643 H   0  0  0  0  0  0  0  0  0  0  0  0
    5.5855   -5.0925   -1.9416 N   0  0  0  0  0  0  0  0  0  0  0  0
    5.9017   -6.1645   -2.8564 C   0  0  0  0  0  0  0  0  0  0  0  0
    6.3581   -4.6065   -1.4959 H   0  0  0  0  0  0  0  0  0  0  0  0
    5.9556   -7.1144   -2.3044 H   0  0  0  0  0  0  0  0  0  0  0  0
    5.1191   -6.2320   -3.6265 H   0  0  0  0  0  0  0  0  0  0  0  0
    6.8712   -5.9635   -3.3356 H   0  0  0  0  0  0  0  0  0  0  0  0
 18 19  1  0  0  0  0
 19 31  1  0  0  0  0
 19 20  2  0  0  0  0
  8  9  1  0  0  0  0
  9 17  1  0  0  0  0
  9 10  2  0  0  0  0
  1  3  1  0  0  0  0
  1  7  1  0  0  0  0
  1  2  2  0  0  0  0
 32 33  1  0  0  0  0
 33 41  1  0  0  0  0
 33 34  2  0  0  0  0
 21 22  1  0  0  0  0
 22 23  1  0  0  0  0
 18 21  1  0  0  0  0
 17 23  1  0  0  0  0
 17 18  1  0  0  0  0
  8 11  1  0  0  0  0
 32 35  1  0  0  0  0
 41 42  1  0  0  0  0
  7  8  1  0  0  0  0
 31 32  1  0  0  0  0
 22 27  1  0  0  0  0
 22 28  1  0  0  0  0
 21 25  1  0  0  0  0
 21 26  1  0  0  0  0
 23 29  1  0  0  0  0
 23 30  1  0  0  0  0
 18 24  1  0  0  0  0
  3  4  1  0  0  0  0
  3  5  1  0  0  0  0
  3  6  1  0  0  0  0
 11 14  1  0  0  0  0
 11 15  1  0  0  0  0
 11 16  1  0  0  0  0
 35 38  1  0  0  0  0
 35 39  1  0  0  0  0
 35 40  1  0  0  0  0
 42 44  1  0  0  0  0
 42 45  1  0  0  0  0
 42 46  1  0  0  0  0
  8 13  1  0  0  0  0
 32 37  1  0  0  0  0
 31 36  1  0  0  0  0
 41 43  1  0  0  0  0
  7 12  1  0  0  0  0
M  END
$$$$

  -OEChem-05262214473D

 46 46  0     1  0  0  0  0  0999 V2000
   -0.6012   -3.2995    3.8205 C   0  0  0  0  0  0  0  0  0  0  0  0
   -0.6574   -4.4683    3.4568 O   0  0  0  0  0  0  0  0  0  0  0  0
   -0.4935   -2.9859    5.2760 C   0  0  0  0  0  0  0  0  0  0  0  0
   -1.4789   -2.8689    5.7550 H   0  0  0  0  0  0  0  0  0  0  0  0
    0.0123   -3.7847    5.8419 H   0  0  0  0  0  0  0  0  0  0  0  0
    0.0585   -2.0642    5.5199 H   0  0  0  0  0  0  0  0  0  0  0  0
   -0.6261   -2.1849    2.9917 N   0  0  0  0  0  0  0  0  0  0  0  0
   -0.7237   -2.2601    1.5650 C   0  0  2  0  0  0  0  0  0  0  0  0
    0.1695   -1.1513    1.0687 C   0  0  0  0  0  0  0  0  0  0  0  0
    0.3193   -0.1267    1.7365 O   0  0  0  0  0  0  0  0  0  0  0  0
   -2.1397   -2.0663    1.0750 C   0  0  0  0  0  0  0  0  0  0  0  0
   -0.5717   -1.2606    3.4238 H   0  0  0  0  0  0  0  0  0  0  0  0
   -0.3076   -3.2111    1.2363 H   0  0  0  0  0  0  0  0  0  0  0  0
   -2.5584   -1.1089    1.4061 H   0  0  0  0  0  0  0  0  0  0  0  0
   -2.1682   -2.0790   -0.0197 H   0  0  0  0  0  0  0  0  0  0  0  0
   -2.7965   -2.8601    1.4459 H   0  0  0  0  0  0  0  0  0  0  0  0
    0.7724   -1.3745   -0.1593 N   0  0  0  0  0  0  0  0  0  0  0  0
    0.5614   -2.5964   -0.9244 C   0  0  2  0  0  0  0  0  0  0  0  0
    1.6157   -3.5728   -0.4972 C   0  0  0  0  0  0  0  0  0  0  0  0
    1.3042   -4.7350   -0.2644 O   0  0  0  0  0  0  0  0  0  0  0  0
    0.7345   -2.1771   -2.3796 C   0  0  0  0  0  0  0  0  0  0  0  0
    0.3244   -0.8671   -1.7112 C   0  0  0  0  0  0  0  0  0  0  0  0
    1.5408   -0.3981   -0.9273 C   0  0  0  0  0  0  0  0  0  0  0  0
   -0.4227   -3.0263   -0.7144 H   0  0  0  0  0  0  0  0  0  0  0  0
    0.0120   -2.7078   -3.0110 H   0  0  0  0  0  0  0  0  0  0  0  0
    1.7400   -2.3597   -2.7711 H   0  0  0  0  0  0  0  0  0  0  0  0
    0.0755   -0.1144   -2.4681 H   0  0  0  0  0  0  0  0  0  0  0  0
   -0.5410   -0.9920   -1.0542 H   0  0  0  0  0  0  0  0  0  0  0  0
    2.4811   -0.6014   -1.4471 H   0  0  0  0  0  0  0  0  0  0  0  0
    1.4806    0.6724   -0.7030 H   0  0  0  0  0  0  0  0  0  0  0  0
    2.9321   -2.7320   -0.4715 N   0  0  0  0  0  0  0  0  0  0  0  0
    4.2100   -3.3556   -0.2124 C   0  0  2  0  0  0  0  0  0  0  0  0
    4.5309   -4.2746   -1.3837 C   0  0  0  0  0  0  0  0  0  0  0  0
    3.6704   -4.7309   -2.1337 O   0  0  0  0  0  0  0  0  0  0  0  0
    4.1929   -4.1293    1.0967 C   0  0  0  0  0  0  0  0  0  0  0  0
    2.8871   -1.7180   -0.5060 H   0  0  0  0  0  0  0  0  0  0  0  0
    4.9511   -2.5503   -0.1656 H   0  0  0  0  0  0  0  0  0  0  0  0
    3.4562   -4.9404    1.0687 H   0  0  0  0  0  0  0  0  0  0  0  0
    5.1700   -4.5773    1.3056 H   0  0  0  0  0  0  0  0  0  0  0  0
    3.9327   -3.4728    1.9340 H   0  0  0  0  0  0  0  0  0  0  0  0
    5.8865   -4.5599   -1.4670 N   0  0  0  0  0  0  0  0  0  0  0  0
    6.4410   -5.4201   -2.4861 C   0  0  0  0  0  0  0  0  0  0  0  0
    6.5303   -4.1224   -0.8144 H   0  0  0  0  0  0  0  0  0  0  0  0
    6.4896   -6.4523   -2.1088 H   0  0  0  0  0  0  0  0  0  0  0  0
    5.8025   -5.3868   -3.3812 H   0  0  0  0  0  0  0  0  0  0  0  0
    7.4534   -5.0764   -2.7449 H   0  0  0  0  0  0  0  0  0  0  0  0
 18 19  1  0  0  0  0
 19 31  1  0  0  0  0
 19 20  2  0  0  0  0
  8  9  1  0  0  0  0
  9 17  1  0  0  0  0
  9 10  2  0  0  0  0
  1  3  1  0  0  0  0
  1  7  1  0  0  0  0
  1  2  2  0  0  0  0
 32 33  1  0  0  0  0
 33 41  1  0  0  0  0
 33 34  2  0  0  0  0
 21 22  1  0  0  0  0
 22 23  1  0  0  0  0
 18 21  1  0  0  0  0
 17 23  1  0  0  0  0
 17 18  1  0  0  0  0
  8 11  1  0  0  0  0
 32 35  1  0  0  0  0
 41 42  1  0  0  0  0
  7  8  1  0  0  0  0
 31 32  1  0  0  0  0
 22 27  1  0  0  0  0
 22 28  1  0  0  0  0
 21 25  1  0  0  0  0
 21 26  1  0  0  0  0
 23 29  1  0  0  0  0
 23 30  1  0  0  0  0
 18 24  1  0  0  0  0
  3  4  1  0  0  0  0
  3  5  1  0  0  0  0
  3  6  1  0  0  0  0
 11 14  1  0  0  0  0
 11 15  1  0  0  0  0
 11 16  1  0  0  0  0
 35 38  1  0  0  0  0
 35 39  1  0  0  0  0
 35 40  1  0  0  0  0
 42 44  1  0  0  0  0
 42 45  1  0  0  0  0
 42 46  1  0  0  0  0
  8 13  1  0  0  0  0
 32 37  1  0  0  0  0
 31 36  1  0  0  0  0
 41 43  1  0  0  0  0
  7 12  1  0  0  0  0
M  END
$$$$

  -OEChem-05262214473D

 46 46  0     1  0  0  0  0  0999 V2000
   -0.6012   -3.2995    3.8205 C   0  0  0  0  0  0  0  0  0  0  0  0
   -0.6574   -4.4683    3.4568 O   0  0  0  0  0  0  0  0  0  0  0  0
   -0.4935   -2.9859    5.2760 C   0  0  0  0  0  0  0  0  0  0  0  0
   -1.4789   -2.8689    5.7550 H   0  0  0  0  0  0  0  0  0  0  0  0
    0.0123   -3.7847    5.8419 H   0  0  0  0  0  0  0  0  0  0  0  0
    0.0585   -2.0642    5.5199 H   0  0  0  0  0  0  0  0  0  0  0  0
   -0.6261   -2.1849    2.9917 N   0  0  0  0  0  0  0  0  0  0  0  0
   -0.7237   -2.2601    1.5650 C   0  0  2  0  0  0  0  0  0  0  0  0
    0.1695   -1.1513    1.0687 C   0  0  0  0  0  0  0  0  0  0  0  0
    0.3193   -0.1267    1.7365 O   0  0  0  0  0  0  0  0  0  0  0  0
   -2.1397   -2.0663    1.0750 C   0  0  0  0  0  0  0  0  0  0  0  0
   -0.5717   -1.2606    3.4238 H   0  0  0  0  0  0  0  0  0  0  0  0
   -0.3076   -3.2111    1.2363 H   0  0  0  0  0  0  0  0  0  0  0  0
   -2.5584   -1.1089    1.4061 H   0  0  0  0  0  0  0  0  0  0  0  0
   -2.1682   -2.0790   -0.0197 H   0  0  0  0  0  0  0  0  0  0  0  0
   -2.7965   -2.8601    1.4459 H   0  0  0  0  0  0  0  0  0  0  0  0
    0.7724   -1.3745   -0.1593 N   0  0  0  0  0  0  0  0  0  0  0  0
    0.5614   -2.5964   -0.9244 C   0  0  2  0  0  0  0  0  0  0  0  0
    1.6157   -3.5728   -0.4972 C   0  0  0  0  0  0  0  0  0  0  0  0
    1.3758   -4.7741   -0.5305 O   0  0  0  0  0  0  0  0  0  0  0  0
    0.7345   -2.1771   -2.3796 C   0  0  0  0  0  0  0  0  0  0  0  0
    0.3244   -0.8671   -1.7112 C   0  0  0  0  0  0  0  0  0  0  0  0
    1.5408   -0.3981   -0.9273 C   0  0  0  0  0  0  0  0  0  0  0  0
   -0.4227   -3.0263   -0.7144 H   0  0  0  0  0  0  0  0  0  0  0  0
    0.0120   -2.7078   -3.0110 H   0  0  0  0  0  0  0  0  0  0  0  0
    1.7400   -2.3597   -2.7711 H   0  0  0  0  0  0  0  0  0  0  0  0
    0.0755   -0.1144   -2.4681 H   0  0  0  0  0  0  0  0  0  0  0  0
   -0.5410   -0.9920   -1.0542 H   0  0  0  0  0  0  0  0  0  0  0  0
    2.4811   -0.6014   -1.4471 H   0  0  0  0  0  0  0  0  0  0  0  0
    1.4806    0.6724   -0.7030 H   0  0  0  0  0  0  0  0  0  0  0  0
    2.8301   -2.6768   -0.0937 N   0  0  0  0  0  0  0  0  0  0  0  0
    4.0998   -3.2626    0.2719 C   0  0  2  0  0  0  0  0  0  0  0  0
    4.6868   -3.9244   -0.9679 C   0  0  0  0  0  0  0  0  0  0  0  0
    4.0031   -4.2805   -1.9255 O   0  0  0  0  0  0  0  0  0  0  0  0
    3.9404   -4.2687    1.4011 C   0  0  0  0  0  0  0  0  0  0  0  0
    2.7008   -1.6788    0.0432 H   0  0  0  0  0  0  0  0  0  0  0  0
    4.7487   -2.4389    0.5887 H   0  0  0  0  0  0  0  0  0  0  0  0
    3.2934   -5.1015    1.1022 H   0  0  0  0  0  0  0  0  0  0  0  0
    4.9069   -4.6905    1.6961 H   0  0  0  0  0  0  0  0  0  0  0  0
    3.4906   -3.7979    2.2819 H   0  0  0  0  0  0  0  0  0  0  0  0
    6.0581   -4.1096   -0.8610 N   0  0  0  0  0  0  0  0  0  0  0  0
    6.8447   -4.7288   -1.9021 C   0  0  0  0  0  0  0  0  0  0  0  0
    6.5460   -3.7662   -0.0390 H   0  0  0  0  0  0  0  0  0  0  0  0
    6.9236   -5.8089   -1.7094 H   0  0  0  0  0  0  0  0  0  0  0  0
    6.3589   -4.5646   -2.8752 H   0  0  0  0  0  0  0  0  0  0  0  0
    7.8508   -4.2842   -1.9148 H   0  0  0  0  0  0  0  0  0  0  0  0
 18 19  1  0  0  0  0
 19 31  1  0  0  0  0
 19 20  2  0  0  0  0
  8  9  1  0  0  0  0
  9 17  1  0  0  0  0
  9 10  2  0  0  0  0
  1  3  1  0  0  0  0
  1  7  1  0  0  0  0
  1  2  2  0  0  0  0
 32 33  1  0  0  0  0
 33 41  1  0  0  0  0
 33 34  2  0  0  0  0
 21 22  1  0  0  0  0
 22 23  1  0  0  0  0
 18 21  1  0  0  0  0
 17 23  1  0  0  0  0
 17 18  1  0  0  0  0
  8 11  1  0  0  0  0
 32 35  1  0  0  0  0
 41 42  1  0  0  0  0
  7  8  1  0  0  0  0
 31 32  1  0  0  0  0
 22 27  1  0  0  0  0
 22 28  1  0  0  0  0
 21 25  1  0  0  0  0
 21 26  1  0  0  0  0
 23 29  1  0  0  0  0
 23 30  1  0  0  0  0
 18 24  1  0  0  0  0
  3  4  1  0  0  0  0
  3  5  1  0  0  0  0
  3  6  1  0  0  0  0
 11 14  1  0  0  0  0
 11 15  1  0  0  0  0
 11 16  1  0  0  0  0
 35 38  1  0  0  0  0
 35 39  1  0  0  0  0
 35 40  1  0  0  0  0
 42 44  1  0  0  0  0
 42 45  1  0  0  0  0
 42 46  1  0  0  0  0
  8 13  1  0  0  0  0
 32 37  1  0  0  0  0
 31 36  1  0  0  0  0
 41 43  1  0  0  0  0
  7 12  1  0  0  0  0
M  END
$$$$

  -OEChem-05262214473D

 46 46  0     1  0  0  0  0  0999 V2000
   -0.6012   -3.2995    3.8205 C   0  0  0  0  0  0  0  0  0  0  0  0
   -0.6574   -4.4683    3.4568 O   0  0  0  0  0  0  0  0  0  0  0  0
   -0.4935   -2.9859    5.2760 C   0  0  0  0  0  0  0  0  0  0  0  0
   -1.4789   -2.8689    5.7550 H   0  0  0  0  0  0  0  0  0  0  0  0
    0.0123   -3.7847    5.8419 H   0  0  0  0  0  0  0  0  0  0  0  0
    0.0585   -2.0642    5.5199 H   0  0  0  0  0  0  0  0  0  0  0  0
   -0.6261   -2.1849    2.9917 N   0  0  0  0  0  0  0  0  0  0  0  0
   -0.7237   -2.2601    1.5650 C   0  0  2  0  0  0  0  0  0  0  0  0
    0.1695   -1.1513    1.0687 C   0  0  0  0  0  0  0  0  0  0  0  0
    0.3193   -0.1267    1.7365 O   0  0  0  0  0  0  0  0  0  0  0  0
   -2.1397   -2.0663    1.0750 C   0  0  0  0  0  0  0  0  0  0  0  0
   -0.5717   -1.2606    3.4238 H   0  0  0  0  0  0  0  0  0  0  0  0
   -0.3076   -3.2111    1.2363 H   0  0  0  0  0  0  0  0  0  0  0  0
   -2.5584   -1.1089    1.4061 H   0  0  0  0  0  0  0  0  0  0  0  0
   -2.1682   -2.0790   -0.0197 H   0  0  0  0  0  0  0  0  0  0  0  0
   -2.7965   -2.8601    1.4459 H   0  0  0  0  0  0  0  0  0  0  0  0
    0.7724   -1.3745   -0.1593 N   0  0  0  0  0  0  0  0  0  0  0  0
    0.5614   -2.5964   -0.9244 C   0  0  2  0  0  0  0  0  0  0  0  0
    1.6157   -3.5728   -0.4972 C   0  0  0  0  0  0  0  0  0  0  0  0
    1.4926   -4.7582   -0.7826 O   0  0  0  0  0  0  0  0  0  0  0  0
    0.7345   -2.1771   -2.3796 C   0  0  0  0  0  0  0  0  0  0  0  0
    0.3244   -0.8671   -1.7112 C   0  0  0  0  0  0  0  0  0  0  0  0
    1.5408   -0.3981   -0.9273 C   0  0  0  0  0  0  0  0  0  0  0  0
   -0.4227   -3.0263   -0.7144 H   0  0  0  0  0  0  0  0  0  0  0  0
    0.0120   -2.7078   -3.0110 H   0  0  0  0  0  0  0  0  0  0  0  0
    1.7400   -2.3597   -2.7711 H   0  0  0  0  0  0  0  0  0  0  0  0
    0.0755   -0.1144   -2.4681 H   0  0  0  0  0  0  0  0  0  0  0  0
   -0.5410   -0.9920   -1.0542 H   0  0  0  0  0  0  0  0  0  0  0  0
    2.4811   -0.6014   -1.4471 H   0  0  0  0  0  0  0  0  0  0  0  0
    1.4806    0.6724   -0.7030 H   0  0  0  0  0  0  0  0  0  0  0  0
    2.6639   -2.6998    0.2641 N   0  0  0  0  0  0  0  0  0  0  0  0
    3.9049   -3.2692    0.7380 C   0  0  2  0  0  0  0  0  0  0  0  0
    4.7414   -3.6503   -0.4763 C   0  0  0  0  0  0  0  0  0  0  0  0
    4.2563   -3.8588   -1.5863 O   0  0  0  0  0  0  0  0  0  0  0  0
    3.6555   -4.4774    1.6271 C   0  0  0  0  0  0  0  0  0  0  0  0
    2.4255   -1.7547    0.5494 H   0  0  0  0  0  0  0  0  0  0  0  0
    4.4178   -2.4835    1.3035 H   0  0  0  0  0  0  0  0  0  0  0  0
    3.1424   -5.2752    1.0778 H   0  0  0  0  0  0  0  0  0  0  0  0
    4.5954   -4.8903    2.0083 H   0  0  0  0  0  0  0  0  0  0  0  0
    3.0290   -4.2079    2.4842 H   0  0  0  0  0  0  0  0  0  0  0  0
    6.0883   -3.7723   -0.1647 N   0  0  0  0  0  0  0  0  0  0  0  0
    7.0851   -4.1375   -1.1440 C   0  0  0  0  0  0  0  0  0  0  0  0
    6.4043   -3.5620    0.7775 H   0  0  0  0  0  0  0  0  0  0  0  0
    7.2281   -5.2281   -1.1333 H   0  0  0  0  0  0  0  0  0  0  0  0
    6.7505   -3.8215   -2.1431 H   0  0  0  0  0  0  0  0  0  0  0  0
    8.0362   -3.6408   -0.9017 H   0  0  0  0  0  0  0  0  0  0  0  0
 18 19  1  0  0  0  0
 19 31  1  0  0  0  0
 19 20  2  0  0  0  0
  8  9  1  0  0  0  0
  9 17  1  0  0  0  0
  9 10  2  0  0  0  0
  1  3  1  0  0  0  0
  1  7  1  0  0  0  0
  1  2  2  0  0  0  0
 32 33  1  0  0  0  0
 33 41  1  0  0  0  0
 33 34  2  0  0  0  0
 21 22  1  0  0  0  0
 22 23  1  0  0  0  0
 18 21  1  0  0  0  0
 17 23  1  0  0  0  0
 17 18  1  0  0  0  0
  8 11  1  0  0  0  0
 32 35  1  0  0  0  0
 41 42  1  0  0  0  0
  7  8  1  0  0  0  0
 31 32  1  0  0  0  0
 22 27  1  0  0  0  0
 22 28  1  0  0  0  0
 21 25  1  0  0  0  0
 21 26  1  0  0  0  0
 23 29  1  0  0  0  0
 23 30  1  0  0  0  0
 18 24  1  0  0  0  0
  3  4  1  0  0  0  0
  3  5  1  0  0  0  0
  3  6  1  0  0  0  0
 11 14  1  0  0  0  0
 11 15  1  0  0  0  0
 11 16  1  0  0  0  0
 35 38  1  0  0  0  0
 35 39  1  0  0  0  0
 35 40  1  0  0  0  0
 42 44  1  0  0  0  0
 42 45  1  0  0  0  0
 42 46  1  0  0  0  0
  8 13  1  0  0  0  0
 32 37  1  0  0  0  0
 31 36  1  0  0  0  0
 41 43  1  0  0  0  0
  7 12  1  0  0  0  0
M  END
$$$$

  -OEChem-05262214473D

 46 46  0     1  0  0  0  0  0999 V2000
   -0.6012   -3.2995    3.8205 C   0  0  0  0  0  0  0  0  0  0  0  0
   -0.6574   -4.4683    3.4568 O   0  0  0  0  0  0  0  0  0  0  0  0
   -0.4935   -2.9859    5.2760 C   0  0  0  0  0  0  0  0  0  0  0  0
   -1.4789   -2.8689    5.7550 H   0  0  0  0  0  0  0  0  0  0  0  0
    0.0123   -3.7847    5.8419 H   0  0  0  0  0  0  0  0  0  0  0  0
    0.0585   -2.0642    5.5199 H   0  0  0  0  0  0  0  0  0  0  0  0
   -0.6261   -2.1849    2.9917 N   0  0  0  0  0  0  0  0  0  0  0  0
   -0.7237   -2.2601    1.5650 C   0  0  2  0  0  0  0  0  0  0  0  0
    0.1695   -1.1513    1.0687 C   0  0  0  0  0  0  0  0  0  0  0  0
    0.3193   -0.1267    1.7365 O   0  0  0  0  0  0  0  0  0  0  0  0
   -2.1397   -2.0663    1.0750 C   0  0  0  0  0  0  0  0  0  0  0  0
   -0.5717   -1.2606    3.4238 H   0  0  0  0  0  0  0  0  0  0  0  0
   -0.3076   -3.2111    1.2363 H   0  0  0  0  0  0  0  0  0  0  0  0
   -2.5584   -1.1089    1.4061 H   0  0  0  0  0  0  0  0  0  0  0  0
   -2.1682   -2.0790   -0.0197 H   0  0  0  0  0  0  0  0  0  0  0  0
   -2.7965   -2.8601    1.4459 H   0  0  0  0  0  0  0  0  0  0  0  0
    0.7724   -1.3745   -0.1593 N   0  0  0  0  0  0  0  0  0  0  0  0
    0.5614   -2.5964   -0.9244 C   0  0  2  0  0  0  0  0  0  0  0  0
    1.6157   -3.5728   -0.4972 C   0  0  0  0  0  0  0  0  0  0  0  0
    1.6468   -4.6883   -1.0035 O   0  0  0  0  0  0  0  0  0  0  0  0
    0.7345   -2.1771   -2.3796 C   0  0  0  0  0  0  0  0  0  0  0  0
    0.3244   -0.8671   -1.7112 C   0  0  0  0  0  0  0  0  0  0  0  0
    1.5408   -0.3981   -0.9273 C   0  0  0  0  0  0  0  0  0  0  0  0
   -0.4227   -3.0263   -0.7144 H   0  0  0  0  0  0  0  0  0  0  0  0
    0.0120   -2.7078   -3.0110 H   0  0  0  0  0  0  0  0  0  0  0  0
    1.7400   -2.3597   -2.7711 H   0  0  0  0  0  0  0  0  0  0  0  0
    0.0755   -0.1144   -2.4681 H   0  0  0  0  0  0  0  0  0  0  0  0
   -0.5410   -0.9920   -1.0542 H   0  0  0  0  0  0  0  0  0  0  0  0
    2.4811   -0.6014   -1.4471 H   0  0  0  0  0  0  0  0  0  0  0  0
    1.4806    0.6724   -0.7030 H   0  0  0  0  0  0  0  0  0  0  0  0
    2.4446   -2.7994    0.5776 N   0  0  0  0  0  0  0  0  0  0  0  0
    3.6386   -3.3747    1.1542 C   0  0  2  0  0  0  0  0  0  0  0  0
    4.6911   -3.4710    0.0577 C   0  0  0  0  0  0  0  0  0  0  0  0
    4.4125   -3.4945   -1.1393 O   0  0  0  0  0  0  0  0  0  0  0  0
    3.3576   -4.7412    1.7595 C   0  0  0  0  0  0  0  0  0  0  0  0
    2.0798   -1.9404    0.9781 H   0  0  0  0  0  0  0  0  0  0  0  0
    3.9809   -2.6811    1.9300 H   0  0  0  0  0  0  0  0  0  0  0  0
    3.0135   -5.4497    0.9972 H   0  0  0  0  0  0  0  0  0  0  0  0
    4.2565   -5.1631    2.2211 H   0  0  0  0  0  0  0  0  0  0  0  0
    2.5791   -4.6748    2.5272 H   0  0  0  0  0  0  0  0  0  0  0  0
    5.9754   -3.5709    0.5744 N   0  0  0  0  0  0  0  0  0  0  0  0
    7.1460   -3.6866   -0.2636 C   0  0  0  0  0  0  0  0  0  0  0  0
    6.1147   -3.5239    1.5794 H   0  0  0  0  0  0  0  0  0  0  0  0
    7.3822   -4.7495   -0.4198 H   0  0  0  0  0  0  0  0  0  0  0  0
    6.9505   -3.2081   -1.2346 H   0  0  0  0  0  0  0  0  0  0  0  0
    7.9972   -3.1900    0.2252 H   0  0  0  0  0  0  0  0  0  0  0  0
 18 19  1  0  0  0  0
 19 31  1  0  0  0  0
 19 20  2  0  0  0  0
  8  9  1  0  0  0  0
  9 17  1  0  0  0  0
  9 10  2  0  0  0  0
  1  3  1  0  0  0  0
  1  7  1  0  0  0  0
  1  2  2  0  0  0  0
 32 33  1  0  0  0  0
 33 41  1  0  0  0  0
 33 34  2  0  0  0  0
 21 22  1  0  0  0  0
 22 23  1  0  0  0  0
 18 21  1  0  0  0  0
 17 23  1  0  0  0  0
 17 18  1  0  0  0  0
  8 11  1  0  0  0  0
 32 35  1  0  0  0  0
 41 42  1  0  0  0  0
  7  8  1  0  0  0  0
 31 32  1  0  0  0  0
 22 27  1  0  0  0  0
 22 28  1  0  0  0  0
 21 25  1  0  0  0  0
 21 26  1  0  0  0  0
 23 29  1  0  0  0  0
 23 30  1  0  0  0  0
 18 24  1  0  0  0  0
  3  4  1  0  0  0  0
  3  5  1  0  0  0  0
  3  6  1  0  0  0  0
 11 14  1  0  0  0  0
 11 15  1  0  0  0  0
 11 16  1  0  0  0  0
 35 38  1  0  0  0  0
 35 39  1  0  0  0  0
 35 40  1  0  0  0  0
 42 44  1  0  0  0  0
 42 45  1  0  0  0  0
 42 46  1  0  0  0  0
  8 13  1  0  0  0  0
 32 37  1  0  0  0  0
 31 36  1  0  0  0  0
 41 43  1  0  0  0  0
  7 12  1  0  0  0  0
M  END
$$$$

  -OEChem-05262214473D

 46 46  0     1  0  0  0  0  0999 V2000
   -0.6012   -3.2995    3.8205 C   0  0  0  0  0  0  0  0  0  0  0  0
   -0.6574   -4.4683    3.4568 O   0  0  0  0  0  0  0  0  0  0  0  0
   -0.4935   -2.9859    5.2760 C   0  0  0  0  0  0  0  0  0  0  0  0
   -1.4789   -2.8689    5.7550 H   0  0  0  0  0  0  0  0  0  0  0  0
    0.0123   -3.7847    5.8419 H   0  0  0  0  0  0  0  0  0  0  0  0
    0.0585   -2.0642    5.5199 H   0  0  0  0  0  0  0  0  0  0  0  0
   -0.6261   -2.1849    2.9917 N   0  0  0  0  0  0  0  0  0  0  0  0
   -0.7237   -2.2601    1.5650 C   0  0  2  0  0  0  0  0  0  0  0  0
    0.1695   -1.1513    1.0687 C   0  0  0  0  0  0  0  0  0  0  0  0
    0.3193   -0.1267    1.7365 O   0  0  0  0  0  0  0  0  0  0  0  0
   -2.1397   -2.0663    1.0750 C   0  0  0  0  0  0  0  0  0  0  0  0
   -0.5717   -1.2606    3.4238 H   0  0  0  0  0  0  0  0  0  0  0  0
   -0.3076   -3.2111    1.2363 H   0  0  0  0  0  0  0  0  0  0  0  0
   -2.5584   -1.1089    1.4061 H   0  0  0  0  0  0  0  0  0  0  0  0
   -2.1682   -2.0790   -0.0197 H   0  0  0  0  0  0  0  0  0  0  0  0
   -2.7965   -2.8601    1.4459 H   0  0  0  0  0  0  0  0  0  0  0  0
    0.7724   -1.3745   -0.1593 N   0  0  0  0  0  0  0  0  0  0  0  0
    0.5614   -2.5964   -0.9244 C   0  0  2  0  0  0  0  0  0  0  0  0
    1.6157   -3.5728   -0.4972 C   0  0  0  0  0  0  0  0  0  0  0  0
    1.8279   -4.5693   -1.1782 O   0  0  0  0  0  0  0  0  0  0  0  0
    0.7345   -2.1771   -2.3796 C   0  0  0  0  0  0  0  0  0  0  0  0
    0.3244   -0.8671   -1.7112 C   0  0  0  0  0  0  0  0  0  0  0  0
    1.5408   -0.3981   -0.9273 C   0  0  0  0  0  0  0  0  0  0  0  0
   -0.4227   -3.0263   -0.7144 H   0  0  0  0  0  0  0  0  0  0  0  0
    0.0120   -2.7078   -3.0110 H   0  0  0  0  0  0  0  0  0  0  0  0
    1.7400   -2.3597   -2.7711 H   0  0  0  0  0  0  0  0  0  0  0  0
    0.0755   -0.1144   -2.4681 H   0  0  0  0  0  0  0  0  0  0  0  0
   -0.5410   -0.9920   -1.0542 H   0  0  0  0  0  0  0  0  0  0  0  0
    2.4811   -0.6014   -1.4471 H   0  0  0  0  0  0  0  0  0  0  0  0
    1.4806    0.6724   -0.7030 H   0  0  0  0  0  0  0  0  0  0  0  0
    2.1874   -2.9688    0.8252 N   0  0  0  0  0  0  0  0  0  0  0  0
    3.3189   -3.5720    1.4922 C   0  0  2  0  0  0  0  0  0  0  0  0
    4.5393   -3.3987    0.5977 C   0  0  0  0  0  0  0  0  0  0  0  0
    4.4612   -3.2125   -0.6149 O   0  0  0  0  0  0  0  0  0  0  0  0
    3.0670   -5.0421    1.7891 C   0  0  0  0  0  0  0  0  0  0  0  0
    1.6873   -2.2233    1.3002 H   0  0  0  0  0  0  0  0  0  0  0  0
    3.4679   -3.0183    2.4256 H   0  0  0  0  0  0  0  0  0  0  0  0
    2.9154   -5.6131    0.8658 H   0  0  0  0  0  0  0  0  0  0  0  0
    3.9134   -5.4904    2.3197 H   0  0  0  0  0  0  0  0  0  0  0  0
    2.1718   -5.1668    2.4079 H   0  0  0  0  0  0  0  0  0  0  0  0
    5.7268   -3.5193    1.3058 N   0  0  0  0  0  0  0  0  0  0  0  0
    7.0232   -3.4069    0.6791 C   0  0  0  0  0  0  0  0  0  0  0  0
    5.6970   -3.6545    2.3121 H   0  0  0  0  0  0  0  0  0  0  0  0
    7.3755   -4.4058    0.3825 H   0  0  0  0  0  0  0  0  0  0  0  0
    6.9453   -2.7662   -0.2117 H   0  0  0  0  0  0  0  0  0  0  0  0
    7.7362   -2.9625    1.3891 H   0  0  0  0  0  0  0  0  0  0  0  0
 18 19  1  0  0  0  0
 19 31  1  0  0  0  0
 19 20  2  0  0  0  0
  8  9  1  0  0  0  0
  9 17  1  0  0  0  0
  9 10  2  0  0  0  0
  1  3  1  0  0  0  0
  1  7  1  0  0  0  0
  1  2  2  0  0  0  0
 32 33  1  0  0  0  0
 33 41  1  0  0  0  0
 33 34  2  0  0  0  0
 21 22  1  0  0  0  0
 22 23  1  0  0  0  0
 18 21  1  0  0  0  0
 17 23  1  0  0  0  0
 17 18  1  0  0  0  0
  8 11  1  0  0  0  0
 32 35  1  0  0  0  0
 41 42  1  0  0  0  0
  7  8  1  0  0  0  0
 31 32  1  0  0  0  0
 22 27  1  0  0  0  0
 22 28  1  0  0  0  0
 21 25  1  0  0  0  0
 21 26  1  0  0  0  0
 23 29  1  0  0  0  0
 23 30  1  0  0  0  0
 18 24  1  0  0  0  0
  3  4  1  0  0  0  0
  3  5  1  0  0  0  0
  3  6  1  0  0  0  0
 11 14  1  0  0  0  0
 11 15  1  0  0  0  0
 11 16  1  0  0  0  0
 35 38  1  0  0  0  0
 35 39  1  0  0  0  0
 35 40  1  0  0  0  0
 42 44  1  0  0  0  0
 42 45  1  0  0  0  0
 42 46  1  0  0  0  0
  8 13  1  0  0  0  0
 32 37  1  0  0  0  0
 31 36  1  0  0  0  0
 41 43  1  0  0  0  0
  7 12  1  0  0  0  0
M  END
$$$$

  -OEChem-05262214473D

 46 46  0     1  0  0  0  0  0999 V2000
   -0.6012   -3.2995    3.8205 C   0  0  0  0  0  0  0  0  0  0  0  0
   -0.6574   -4.4683    3.4568 O   0  0  0  0  0  0  0  0  0  0  0  0
   -0.4935   -2.9859    5.2760 C   0  0  0  0  0  0  0  0  0  0  0  0
   -1.4789   -2.8689    5.7550 H   0  0  0  0  0  0  0  0  0  0  0  0
    0.0123   -3.7847    5.8419 H   0  0  0  0  0  0  0  0  0  0  0  0
    0.0585   -2.0642    5.5199 H   0  0  0  0  0  0  0  0  0  0  0  0
   -0.6261   -2.1849    2.9917 N   0  0  0  0  0  0  0  0  0  0  0  0
   -0.7237   -2.2601    1.5650 C   0  0  2  0  0  0  0  0  0  0  0  0
    0.1695   -1.1513    1.0687 C   0  0  0  0  0  0  0  0  0  0  0  0
    0.3193   -0.1267    1.7365 O   0  0  0  0  0  0  0  0  0  0  0  0
   -2.1397   -2.0663    1.0750 C   0  0  0  0  0  0  0  0  0  0  0  0
   -0.5717   -1.2606    3.4238 H   0  0  0  0  0  0  0  0  0  0  0  0
   -0.3076   -3.2111    1.2363 H   0  0  0  0  0  0  0  0  0  0  0  0
   -2.5584   -1.1089    1.4061 H   0  0  0  0  0  0  0  0  0  0  0  0
   -2.1682   -2.0790   -0.0197 H   0  0  0  0  0  0  0  0  0  0  0  0
   -2.7965   -2.8601    1.4459 H   0  0  0  0  0  0  0  0  0  0  0  0
    0.7724   -1.3745   -0.1593 N   0  0  0  0  0  0  0  0  0  0  0  0
    0.5614   -2.5964   -0.9244 C   0  0  2  0  0  0  0  0  0  0  0  0
    1.6157   -3.5728   -0.4972 C   0  0  0  0  0  0  0  0  0  0  0  0
    2.0234   -4.4091   -1.2948 O   0  0  0  0  0  0  0  0  0  0  0  0
    0.7345   -2.1771   -2.3796 C   0  0  0  0  0  0  0  0  0  0  0  0
    0.3244   -0.8671   -1.7112 C   0  0  0  0  0  0  0  0  0  0  0  0
    1.5408   -0.3981   -0.9273 C   0  0  0  0  0  0  0  0  0  0  0  0
   -0.4227   -3.0263   -0.7144 H   0  0  0  0  0  0  0  0  0  0  0  0
    0.0120   -2.7078   -3.0110 H   0  0  0  0  0  0  0  0  0  0  0  0
    1.7400   -2.3597   -2.7711 H   0  0  0  0  0  0  0  0  0  0  0  0
    0.0755   -0.1144   -2.4681 H   0  0  0  0  0  0  0  0  0  0  0  0
   -0.5410   -0.9920   -1.0542 H   0  0  0  0  0  0  0  0  0  0  0  0
    2.4811   -0.6014   -1.4471 H   0  0  0  0  0  0  0  0  0  0  0  0
    1.4806    0.6724   -0.7030 H   0  0  0  0  0  0  0  0  0  0  0  0
    1.9097   -3.1965    0.9902 N   0  0  0  0  0  0  0  0  0  0  0  0
    2.9678   -3.8477    1.7288 C   0  0  2  0  0  0  0  0  0  0  0  0
    4.2963   -3.4383    1.1068 C   0  0  0  0  0  0  0  0  0  0  0  0
    4.3991   -3.0320   -0.0488 O   0  0  0  0  0  0  0  0  0  0  0  0
    2.8035   -5.3595    1.7139 C   0  0  0  0  0  0  0  0  0  0  0  0
    1.2748   -2.5842    1.4936 H   0  0  0  0  0  0  0  0  0  0  0  0
    2.9137   -3.4719    2.7564 H   0  0  0  0  0  0  0  0  0  0  0  0
    2.8548   -5.7542    0.6927 H   0  0  0  0  0  0  0  0  0  0  0  0
    3.5896   -5.8497    2.2977 H   0  0  0  0  0  0  0  0  0  0  0  0
    1.8348   -5.6504    2.1344 H   0  0  0  0  0  0  0  0  0  0  0  0
    5.3596   -3.6210    1.9799 N   0  0  0  0  0  0  0  0  0  0  0  0
    6.7249   -3.3173    1.6199 C   0  0  0  0  0  0  0  0  0  0  0  0
    5.1796   -3.9447    2.9257 H   0  0  0  0  0  0  0  0  0  0  0  0
    7.2085   -4.2203    1.2189 H   0  0  0  0  0  0  0  0  0  0  0  0
    6.7353   -2.5260    0.8559 H   0  0  0  0  0  0  0  0  0  0  0  0
    7.2712   -2.9740    2.5109 H   0  0  0  0  0  0  0  0  0  0  0  0
 18 19  1  0  0  0  0
 19 31  1  0  0  0  0
 19 20  2  0  0  0  0
  8  9  1  0  0  0  0
  9 17  1  0  0  0  0
  9 10  2  0  0  0  0
  1  3  1  0  0  0  0
  1  7  1  0  0  0  0
  1  2  2  0  0  0  0
 32 33  1  0  0  0  0
 33 41  1  0  0  0  0
 33 34  2  0  0  0  0
 21 22  1  0  0  0  0
 22 23  1  0  0  0  0
 18 21  1  0  0  0  0
 17 23  1  0  0  0  0
 17 18  1  0  0  0  0
  8 11  1  0  0  0  0
 32 35  1  0  0  0  0
 41 42  1  0  0  0  0
  7  8  1  0  0  0  0
 31 32  1  0  0  0  0
 22 27  1  0  0  0  0
 22 28  1  0  0  0  0
 21 25  1  0  0  0  0
 21 26  1  0  0  0  0
 23 29  1  0  0  0  0
 23 30  1  0  0  0  0
 18 24  1  0  0  0  0
  3  4  1  0  0  0  0
  3  5  1  0  0  0  0
  3  6  1  0  0  0  0
 11 14  1  0  0  0  0
 11 15  1  0  0  0  0
 11 16  1  0  0  0  0
 35 38  1  0  0  0  0
 35 39  1  0  0  0  0
 35 40  1  0  0  0  0
 42 44  1  0  0  0  0
 42 45  1  0  0  0  0
 42 46  1  0  0  0  0
  8 13  1  0  0  0  0
 32 37  1  0  0  0  0
 31 36  1  0  0  0  0
 41 43  1  0  0  0  0
  7 12  1  0  0  0  0
M  END
$$$$

  -OEChem-05262214473D

 46 46  0     1  0  0  0  0  0999 V2000
   -0.6012   -3.2995    3.8205 C   0  0  0  0  0  0  0  0  0  0  0  0
   -0.6574   -4.4683    3.4568 O   0  0  0  0  0  0  0  0  0  0  0  0
   -0.4935   -2.9859    5.2760 C   0  0  0  0  0  0  0  0  0  0  0  0
   -1.4789   -2.8689    5.7550 H   0  0  0  0  0  0  0  0  0  0  0  0
    0.0123   -3.7847    5.8419 H   0  0  0  0  0  0  0  0  0  0  0  0
    0.0585   -2.0642    5.5199 H   0  0  0  0  0  0  0  0  0  0  0  0
   -0.6261   -2.1849    2.9917 N   0  0  0  0  0  0  0  0  0  0  0  0
   -0.7237   -2.2601    1.5650 C   0  0  2  0  0  0  0  0  0  0  0  0
    0.1695   -1.1513    1.0687 C   0  0  0  0  0  0  0  0  0  0  0  0
    0.3193   -0.1267    1.7365 O   0  0  0  0  0  0  0  0  0  0  0  0
   -2.1397   -2.0663    1.0750 C   0  0  0  0  0  0  0  0  0  0  0  0
   -0.5717   -1.2606    3.4238 H   0  0  0  0  0  0  0  0  0  0  0  0
   -0.3076   -3.2111    1.2363 H   0  0  0  0  0  0  0  0  0  0  0  0
   -2.5584   -1.1089    1.4061 H   0  0  0  0  0  0  0  0  0  0  0  0
   -2.1682   -2.0790   -0.0197 H   0  0  0  0  0  0  0  0  0  0  0  0
   -2.7965   -2.8601    1.4459 H   0  0  0  0  0  0  0  0  0  0  0  0
    0.7724   -1.3745   -0.1593 N   0  0  0  0  0  0  0  0  0  0  0  0
    0.5614   -2.5964   -0.9244 C   0  0  2  0  0  0  0  0  0  0  0  0
    1.6157   -3.5728   -0.4972 C   0  0  0  0  0  0  0  0  0  0  0  0
    2.2201   -4.2188   -1.3452 O   0  0  0  0  0  0  0  0  0  0  0  0
    0.7345   -2.1771   -2.3796 C   0  0  0  0  0  0  0  0  0  0  0  0
    0.3244   -0.8671   -1.7112 C   0  0  0  0  0  0  0  0  0  0  0  0
    1.5408   -0.3981   -0.9273 C   0  0  0  0  0  0  0  0  0  0  0  0
   -0.4227   -3.0263   -0.7144 H   0  0  0  0  0  0  0  0  0  0  0  0
    0.0120   -2.7078   -3.0110 H   0  0  0  0  0  0  0  0  0  0  0  0
    1.7400   -2.3597   -2.7711 H   0  0  0  0  0  0  0  0  0  0  0  0
    0.0755   -0.1144   -2.4681 H   0  0  0  0  0  0  0  0  0  0  0  0
   -0.5410   -0.9920   -1.0542 H   0  0  0  0  0  0  0  0  0  0  0  0
    2.4811   -0.6014   -1.4471 H   0  0  0  0  0  0  0  0  0  0  0  0
    1.4806    0.6724   -0.7030 H   0  0  0  0  0  0  0  0  0  0  0  0
    1.6304   -3.4669    1.0614 N   0  0  0  0  0  0  0  0  0  0  0  0
    2.6090   -4.1829    1.8480 C   0  0  2  0  0  0  0  0  0  0  0  0
    3.9787   -3.5872    1.5504 C   0  0  0  0  0  0  0  0  0  0  0  0
    4.2303   -2.9653    0.5204 O   0  0  0  0  0  0  0  0  0  0  0  0
    2.5850   -5.6718    1.5392 C   0  0  0  0  0  0  0  0  0  0  0  0
    0.8703   -2.9983    1.5452 H   0  0  0  0  0  0  0  0  0  0  0  0
    2.3561   -4.0113    2.8999 H   0  0  0  0  0  0  0  0  0  0  0  0
    2.8360   -5.8635    0.4895 H   0  0  0  0  0  0  0  0  0  0  0  0
    3.3070   -6.2167    2.1564 H   0  0  0  0  0  0  0  0  0  0  0  0
    1.5910   -6.0925    1.7254 H   0  0  0  0  0  0  0  0  0  0  0  0
    4.8988   -3.8689    2.5506 N   0  0  0  0  0  0  0  0  0  0  0  0
    6.2717   -3.4240    2.4947 C   0  0  0  0  0  0  0  0  0  0  0  0
    4.5978   -4.3749    3.3783 H   0  0  0  0  0  0  0  0  0  0  0  0
    6.8924   -4.2057    2.0324 H   0  0  0  0  0  0  0  0  0  0  0  0
    6.3347   -2.5037    1.8955 H   0  0  0  0  0  0  0  0  0  0  0  0
    6.6337   -3.2235    3.5139 H   0  0  0  0  0  0  0  0  0  0  0  0
 18 19  1  0  0  0  0
 19 31  1  0  0  0  0
 19 20  2  0  0  0  0
  8  9  1  0  0  0  0
  9 17  1  0  0  0  0
  9 10  2  0  0  0  0
  1  3  1  0  0  0  0
  1  7  1  0  0  0  0
  1  2  2  0  0  0  0
 32 33  1  0  0  0  0
 33 41  1  0  0  0  0
 33 34  2  0  0  0  0
 21 22  1  0  0  0  0
 22 23  1  0  0  0  0
 18 21  1  0  0  0  0
 17 23  1  0  0  0  0
 17 18  1  0  0  0  0
  8 11  1  0  0  0  0
 32 35  1  0  0  0  0
 41 42  1  0  0  0  0
  7  8  1  0  0  0  0
 31 32  1  0  0  0  0
 22 27  1  0  0  0  0
 22 28  1  0  0  0  0
 21 25  1  0  0  0  0
 21 26  1  0  0  0  0
 23 29  1  0  0  0  0
 23 30  1  0  0  0  0
 18 24  1  0  0  0  0
  3  4  1  0  0  0  0
  3  5  1  0  0  0  0
  3  6  1  0  0  0  0
 11 14  1  0  0  0  0
 11 15  1  0  0  0  0
 11 16  1  0  0  0  0
 35 38  1  0  0  0  0
 35 39  1  0  0  0  0
 35 40  1  0  0  0  0
 42 44  1  0  0  0  0
 42 45  1  0  0  0  0
 42 46  1  0  0  0  0
  8 13  1  0  0  0  0
 32 37  1  0  0  0  0
 31 36  1  0  0  0  0
 41 43  1  0  0  0  0
  7 12  1  0  0  0  0
M  END
$$$$

  -OEChem-05262214473D

 46 46  0     1  0  0  0  0  0999 V2000
   -0.6012   -3.2995    3.8205 C   0  0  0  0  0  0  0  0  0  0  0  0
   -0.6574   -4.4683    3.4568 O   0  0  0  0  0  0  0  0  0  0  0  0
   -0.4935   -2.9859    5.2760 C   0  0  0  0  0  0  0  0  0  0  0  0
   -1.4789   -2.8689    5.7550 H   0  0  0  0  0  0  0  0  0  0  0  0
    0.0123   -3.7847    5.8419 H   0  0  0  0  0  0  0  0  0  0  0  0
    0.0585   -2.0642    5.5199 H   0  0  0  0  0  0  0  0  0  0  0  0
   -0.6261   -2.1849    2.9917 N   0  0  0  0  0  0  0  0  0  0  0  0
   -0.7237   -2.2601    1.5650 C   0  0  2  0  0  0  0  0  0  0  0  0
    0.1695   -1.1513    1.0687 C   0  0  0  0  0  0  0  0  0  0  0  0
    0.3193   -0.1267    1.7365 O   0  0  0  0  0  0  0  0  0  0  0  0
   -2.1397   -2.0663    1.0750 C   0  0  0  0  0  0  0  0  0  0  0  0
   -0.5717   -1.2606    3.4238 H   0  0  0  0  0  0  0  0  0  0  0  0
   -0.3076   -3.2111    1.2363 H   0  0  0  0  0  0  0  0  0  0  0  0
   -2.5584   -1.1089    1.4061 H   0  0  0  0  0  0  0  0  0  0  0  0
   -2.1682   -2.0790   -0.0197 H   0  0  0  0  0  0  0  0  0  0  0  0
   -2.7965   -2.8601    1.4459 H   0  0  0  0  0  0  0  0  0  0  0  0
    0.7724   -1.3745   -0.1593 N   0  0  0  0  0  0  0  0  0  0  0  0
    0.5614   -2.5964   -0.9244 C   0  0  2  0  0  0  0  0  0  0  0  0
    1.6157   -3.5728   -0.4972 C   0  0  0  0  0  0  0  0  0  0  0  0
    2.4046   -4.0113   -1.3261 O   0  0  0  0  0  0  0  0  0  0  0  0
    0.7345   -2.1771   -2.3796 C   0  0  0  0  0  0  0  0  0  0  0  0
    0.3244   -0.8671   -1.7112 C   0  0  0  0  0  0  0  0  0  0  0  0
    1.5408   -0.3981   -0.9273 C   0  0  0  0  0  0  0  0  0  0  0  0
   -0.4227   -3.0263   -0.7144 H   0  0  0  0  0  0  0  0  0  0  0  0
    0.0120   -2.7078   -3.0110 H   0  0  0  0  0  0  0  0  0  0  0  0
    1.7400   -2.3597   -2.7711 H   0  0  0  0  0  0  0  0  0  0  0  0
    0.0755   -0.1144   -2.4681 H   0  0  0  0  0  0  0  0  0  0  0  0
   -0.5410   -0.9920   -1.0542 H   0  0  0  0  0  0  0  0  0  0  0  0
    2.4811   -0.6014   -1.4471 H   0  0  0  0  0  0  0  0  0  0  0  0
    1.4806    0.6724   -0.7030 H   0  0  0  0  0  0  0  0  0  0  0  0
    1.3686   -3.7617    1.0338 N   0  0  0  0  0  0  0  0  0  0  0  0
    2.2671   -4.5549    1.8416 C   0  0  2  0  0  0  0  0  0  0  0  0
    3.6081   -3.8352    1.8982 C   0  0  0  0  0  0  0  0  0  0  0  0
    3.9664   -3.0168    1.0539 O   0  0  0  0  0  0  0  0  0  0  0  0
    2.4265   -5.9578    1.2766 C   0  0  0  0  0  0  0  0  0  0  0  0
    0.5015   -3.4376    1.4514 H   0  0  0  0  0  0  0  0  0  0  0  0
    1.8331   -4.5994    2.8464 H   0  0  0  0  0  0  0  0  0  0  0  0
    2.8600   -5.9335    0.2702 H   0  0  0  0  0  0  0  0  0  0  0  0
    3.0849   -6.5663    1.9054 H   0  0  0  0  0  0  0  0  0  0  0  0
    1.4571   -6.4632    1.2088 H   0  0  0  0  0  0  0  0  0  0  0  0
    4.3757   -4.2463    2.9790 N   0  0  0  0  0  0  0  0  0  0  0  0
    5.6943   -3.7198    3.2439 C   0  0  0  0  0  0  0  0  0  0  0  0
    3.9913   -4.9157    3.6391 H   0  0  0  0  0  0  0  0  0  0  0  0
    6.4490   -4.3629    2.7676 H   0  0  0  0  0  0  0  0  0  0  0  0
    5.7709   -2.7010    2.8361 H   0  0  0  0  0  0  0  0  0  0  0  0
    5.8673   -3.6941    4.3299 H   0  0  0  0  0  0  0  0  0  0  0  0
 18 19  1  0  0  0  0
 19 31  1  0  0  0  0
 19 20  2  0  0  0  0
  8  9  1  0  0  0  0
  9 17  1  0  0  0  0
  9 10  2  0  0  0  0
  1  3  1  0  0  0  0
  1  7  1  0  0  0  0
  1  2  2  0  0  0  0
 32 33  1  0  0  0  0
 33 41  1  0  0  0  0
 33 34  2  0  0  0  0
 21 22  1  0  0  0  0
 22 23  1  0  0  0  0
 18 21  1  0  0  0  0
 17 23  1  0  0  0  0
 17 18  1  0  0  0  0
  8 11  1  0  0  0  0
 32 35  1  0  0  0  0
 41 42  1  0  0  0  0
  7  8  1  0  0  0  0
 31 32  1  0  0  0  0
 22 27  1  0  0  0  0
 22 28  1  0  0  0  0
 21 25  1  0  0  0  0
 21 26  1  0  0  0  0
 23 29  1  0  0  0  0
 23 30  1  0  0  0  0
 18 24  1  0  0  0  0
  3  4  1  0  0  0  0
  3  5  1  0  0  0  0
  3  6  1  0  0  0  0
 11 14  1  0  0  0  0
 11 15  1  0  0  0  0
 11 16  1  0  0  0  0
 35 38  1  0  0  0  0
 35 39  1  0  0  0  0
 35 40  1  0  0  0  0
 42 44  1  0  0  0  0
 42 45  1  0  0  0  0
 42 46  1  0  0  0  0
  8 13  1  0  0  0  0
 32 37  1  0  0  0  0
 31 36  1  0  0  0  0
 41 43  1  0  0  0  0
  7 12  1  0  0  0  0
M  END
$$$$

  -OEChem-05262214473D

 46 46  0     1  0  0  0  0  0999 V2000
   -0.6012   -3.2995    3.8205 C   0  0  0  0  0  0  0  0  0  0  0  0
   -0.6574   -4.4683    3.4568 O   0  0  0  0  0  0  0  0  0  0  0  0
   -0.4935   -2.9859    5.2760 C   0  0  0  0  0  0  0  0  0  0  0  0
   -1.4789   -2.8689    5.7550 H   0  0  0  0  0  0  0  0  0  0  0  0
    0.0123   -3.7847    5.8419 H   0  0  0  0  0  0  0  0  0  0  0  0
    0.0585   -2.0642    5.5199 H   0  0  0  0  0  0  0  0  0  0  0  0
   -0.6261   -2.1849    2.9917 N   0  0  0  0  0  0  0  0  0  0  0  0
   -0.7237   -2.2601    1.5650 C   0  0  2  0  0  0  0  0  0  0  0  0
    0.1695   -1.1513    1.0687 C   0  0  0  0  0  0  0  0  0  0  0  0
    0.3193   -0.1267    1.7365 O   0  0  0  0  0  0  0  0  0  0  0  0
   -2.1397   -2.0663    1.0750 C   0  0  0  0  0  0  0  0  0  0  0  0
   -0.5717   -1.2606    3.4238 H   0  0  0  0  0  0  0  0  0  0  0  0
   -0.3076   -3.2111    1.2363 H   0  0  0  0  0  0  0  0  0  0  0  0
   -2.5584   -1.1089    1.4061 H   0  0  0  0  0  0  0  0  0  0  0  0
   -2.1682   -2.0790   -0.0197 H   0  0  0  0  0  0  0  0  0  0  0  0
   -2.7965   -2.8601    1.4459 H   0  0  0  0  0  0  0  0  0  0  0  0
    0.7724   -1.3745   -0.1593 N   0  0  0  0  0  0  0  0  0  0  0  0
    0.5614   -2.5964   -0.9244 C   0  0  2  0  0  0  0  0  0  0  0  0
    1.6157   -3.5728   -0.4972 C   0  0  0  0  0  0  0  0  0  0  0  0
    2.5642   -3.8007   -1.2389 O   0  0  0  0  0  0  0  0  0  0  0  0
    0.7345   -2.1771   -2.3796 C   0  0  0  0  0  0  0  0  0  0  0  0
    0.3244   -0.8671   -1.7112 C   0  0  0  0  0  0  0  0  0  0  0  0
    1.5408   -0.3981   -0.9273 C   0  0  0  0  0  0  0  0  0  0  0  0
   -0.4227   -3.0263   -0.7144 H   0  0  0  0  0  0  0  0  0  0  0  0
    0.0120   -2.7078   -3.0110 H   0  0  0  0  0  0  0  0  0  0  0  0
    1.7400   -2.3597   -2.7711 H   0  0  0  0  0  0  0  0  0  0  0  0
    0.0755   -0.1144   -2.4681 H   0  0  0  0  0  0  0  0  0  0  0  0
   -0.5410   -0.9920   -1.0542 H   0  0  0  0  0  0  0  0  0  0  0  0
    2.4811   -0.6014   -1.4471 H   0  0  0  0  0  0  0  0  0  0  0  0
    1.4806    0.6724   -0.7030 H   0  0  0  0  0  0  0  0  0  0  0  0
    1.1421   -4.0607    0.9093 N   0  0  0  0  0  0  0  0  0  0  0  0
    1.9653   -4.9383    1.7101 C   0  0  2  0  0  0  0  0  0  0  0  0
    3.2098   -4.1654    2.1266 C   0  0  0  0  0  0  0  0  0  0  0  0
    3.6253   -3.1832    1.5153 O   0  0  0  0  0  0  0  0  0  0  0  0
    2.3388   -6.1980    0.9443 C   0  0  0  0  0  0  0  0  0  0  0  0
    0.1934   -3.8720    1.2188 H   0  0  0  0  0  0  0  0  0  0  0  0
    1.3802   -5.1964    2.5995 H   0  0  0  0  0  0  0  0  0  0  0  0
    2.9254   -5.9593    0.0497 H   0  0  0  0  0  0  0  0  0  0  0  0
    2.9385   -6.8747    1.5619 H   0  0  0  0  0  0  0  0  0  0  0  0
    1.4421   -6.7370    0.6197 H   0  0  0  0  0  0  0  0  0  0  0  0
    3.8261   -4.7273    3.2359 N   0  0  0  0  0  0  0  0  0  0  0  0
    5.0321   -4.1844    3.8163 C   0  0  0  0  0  0  0  0  0  0  0  0
    3.4013   -5.5303    3.6903 H   0  0  0  0  0  0  0  0  0  0  0  0
    5.9083   -4.6813    3.3743 H   0  0  0  0  0  0  0  0  0  0  0  0
    5.0823   -3.1044    3.6138 H   0  0  0  0  0  0  0  0  0  0  0  0
    5.0242   -4.3537    4.9032 H   0  0  0  0  0  0  0  0  0  0  0  0
 18 19  1  0  0  0  0
 19 31  1  0  0  0  0
 19 20  2  0  0  0  0
  8  9  1  0  0  0  0
  9 17  1  0  0  0  0
  9 10  2  0  0  0  0
  1  3  1  0  0  0  0
  1  7  1  0  0  0  0
  1  2  2  0  0  0  0
 32 33  1  0  0  0  0
 33 41  1  0  0  0  0
 33 34  2  0  0  0  0
 21 22  1  0  0  0  0
 22 23  1  0  0  0  0
 18 21  1  0  0  0  0
 17 23  1  0  0  0  0
 17 18  1  0  0  0  0
  8 11  1  0  0  0  0
 32 35  1  0  0  0  0
 41 42  1  0  0  0  0
  7  8  1  0  0  0  0
 31 32  1  0  0  0  0
 22 27  1  0  0  0  0
 22 28  1  0  0  0  0
 21 25  1  0  0  0  0
 21 26  1  0  0  0  0
 23 29  1  0  0  0  0
 23 30  1  0  0  0  0
 18 24  1  0  0  0  0
  3  4  1  0  0  0  0
  3  5  1  0  0  0  0
  3  6  1  0  0  0  0
 11 14  1  0  0  0  0
 11 15  1  0  0  0  0
 11 16  1  0  0  0  0
 35 38  1  0  0  0  0
 35 39  1  0  0  0  0
 35 40  1  0  0  0  0
 42 44  1  0  0  0  0
 42 45  1  0  0  0  0
 42 46  1  0  0  0  0
  8 13  1  0  0  0  0
 32 37  1  0  0  0  0
 31 36  1  0  0  0  0
 41 43  1  0  0  0  0
  7 12  1  0  0  0  0
M  END
$$$$

  -OEChem-05262214473D

 46 46  0     1  0  0  0  0  0999 V2000
   -0.6012   -3.2995    3.8205 C   0  0  0  0  0  0  0  0  0  0  0  0
   -0.6574   -4.4683    3.4568 O   0  0  0  0  0  0  0  0  0  0  0  0
   -0.4935   -2.9859    5.2760 C   0  0  0  0  0  0  0  0  0  0  0  0
   -1.4789   -2.8689    5.7550 H   0  0  0  0  0  0  0  0  0  0  0  0
    0.0123   -3.7847    5.8419 H   0  0  0  0  0  0  0  0  0  0  0  0
    0.0585   -2.0642    5.5199 H   0  0  0  0  0  0  0  0  0  0  0  0
   -0.6261   -2.1849    2.9917 N   0  0  0  0  0  0  0  0  0  0  0  0
   -0.7237   -2.2601    1.5650 C   0  0  2  0  0  0  0  0  0  0  0  0
    0.1695   -1.1513    1.0687 C   0  0  0  0  0  0  0  0  0  0  0  0
    0.3193   -0.1267    1.7365 O   0  0  0  0  0  0  0  0  0  0  0  0
   -2.1397   -2.0663    1.0750 C   0  0  0  0  0  0  0  0  0  0  0  0
   -0.5717   -1.2606    3.4238 H   0  0  0  0  0  0  0  0  0  0  0  0
   -0.3076   -3.2111    1.2363 H   0  0  0  0  0  0  0  0  0  0  0  0
   -2.5584   -1.1089    1.4061 H   0  0  0  0  0  0  0  0  0  0  0  0
   -2.1682   -2.0790   -0.0197 H   0  0  0  0  0  0  0  0  0  0  0  0
   -2.7965   -2.8601    1.4459 H   0  0  0  0  0  0  0  0  0  0  0  0
    0.7724   -1.3745   -0.1593 N   0  0  0  0  0  0  0  0  0  0  0  0
    0.5614   -2.5964   -0.9244 C   0  0  2  0  0  0  0  0  0  0  0  0
    1.6157   -3.5728   -0.4972 C   0  0  0  0  0  0  0  0  0  0  0  0
    2.6882   -3.6014   -1.0893 O   0  0  0  0  0  0  0  0  0  0  0  0
    0.7345   -2.1771   -2.3796 C   0  0  0  0  0  0  0  0  0  0  0  0
    0.3244   -0.8671   -1.7112 C   0  0  0  0  0  0  0  0  0  0  0  0
    1.5408   -0.3981   -0.9273 C   0  0  0  0  0  0  0  0  0  0  0  0
   -0.4227   -3.0263   -0.7144 H   0  0  0  0  0  0  0  0  0  0  0  0
    0.0120   -2.7078   -3.0110 H   0  0  0  0  0  0  0  0  0  0  0  0
    1.7400   -2.3597   -2.7711 H   0  0  0  0  0  0  0  0  0  0  0  0
    0.0755   -0.1144   -2.4681 H   0  0  0  0  0  0  0  0  0  0  0  0
   -0.5410   -0.9920   -1.0542 H   0  0  0  0  0  0  0  0  0  0  0  0
    2.4811   -0.6014   -1.4471 H   0  0  0  0  0  0  0  0  0  0  0  0
    1.4806    0.6724   -0.7030 H   0  0  0  0  0  0  0  0  0  0  0  0
    0.9664   -4.3436    0.6965 N   0  0  0  0  0  0  0  0  0  0  0  0
    1.7243   -5.3069    1.4624 C   0  0  2  0  0  0  0  0  0  0  0  0
    2.8109   -4.5553    2.2200 C   0  0  0  0  0  0  0  0  0  0  0  0
    3.2304   -3.4531    1.8733 O   0  0  0  0  0  0  0  0  0  0  0  0
    2.3277   -6.3759    0.5648 C   0  0  0  0  0  0  0  0  0  0  0  0
   -0.0329   -4.2721    0.8630 H   0  0  0  0  0  0  0  0  0  0  0  0
    1.0285   -5.7615    2.1760 H   0  0  0  0  0  0  0  0  0  0  0  0
    3.0276   -5.9394   -0.1570 H   0  0  0  0  0  0  0  0  0  0  0  0
    2.8776   -7.1208    1.1494 H   0  0  0  0  0  0  0  0  0  0  0  0
    1.5472   -6.8954   -0.0016 H   0  0  0  0  0  0  0  0  0  0  0  0
    3.2874   -5.2793    3.3039 N   0  0  0  0  0  0  0  0  0  0  0  0
    4.3302   -4.7862    4.1731 C   0  0  0  0  0  0  0  0  0  0  0  0
    2.8682   -6.1768    3.5285 H   0  0  0  0  0  0  0  0  0  0  0  0
    5.3072   -5.1392    3.8113 H   0  0  0  0  0  0  0  0  0  0  0  0
    4.3158   -3.6863    4.1754 H   0  0  0  0  0  0  0  0  0  0  0  0
    4.1618   -5.1573    5.1948 H   0  0  0  0  0  0  0  0  0  0  0  0
 18 19  1  0  0  0  0
 19 31  1  0  0  0  0
 19 20  2  0  0  0  0
  8  9  1  0  0  0  0
  9 17  1  0  0  0  0
  9 10  2  0  0  0  0
  1  3  1  0  0  0  0
  1  7  1  0  0  0  0
  1  2  2  0  0  0  0
 32 33  1  0  0  0  0
 33 41  1  0  0  0  0
 33 34  2  0  0  0  0
 21 22  1  0  0  0  0
 22 23  1  0  0  0  0
 18 21  1  0  0  0  0
 17 23  1  0  0  0  0
 17 18  1  0  0  0  0
  8 11  1  0  0  0  0
 32 35  1  0  0  0  0
 41 42  1  0  0  0  0
  7  8  1  0  0  0  0
 31 32  1  0  0  0  0
 22 27  1  0  0  0  0
 22 28  1  0  0  0  0
 21 25  1  0  0  0  0
 21 26  1  0  0  0  0
 23 29  1  0  0  0  0
 23 30  1  0  0  0  0
 18 24  1  0  0  0  0
  3  4  1  0  0  0  0
  3  5  1  0  0  0  0
  3  6  1  0  0  0  0
 11 14  1  0  0  0  0
 11 15  1  0  0  0  0
 11 16  1  0  0  0  0
 35 38  1  0  0  0  0
 35 39  1  0  0  0  0
 35 40  1  0  0  0  0
 42 44  1  0  0  0  0
 42 45  1  0  0  0  0
 42 46  1  0  0  0  0
  8 13  1  0  0  0  0
 32 37  1  0  0  0  0
 31 36  1  0  0  0  0
 41 43  1  0  0  0  0
  7 12  1  0  0  0  0
M  END
$$$$

  -OEChem-05262214473D

 46 46  0     1  0  0  0  0  0999 V2000
   -0.6012   -3.2995    3.8205 C   0  0  0  0  0  0  0  0  0  0  0  0
   -0.6574   -4.4683    3.4568 O   0  0  0  0  0  0  0  0  0  0  0  0
   -0.4935   -2.9859    5.2760 C   0  0  0  0  0  0  0  0  0  0  0  0
   -1.4789   -2.8689    5.7550 H   0  0  0  0  0  0  0  0  0  0  0  0
    0.0123   -3.7847    5.8419 H   0  0  0  0  0  0  0  0  0  0  0  0
    0.0585   -2.0642    5.5199 H   0  0  0  0  0  0  0  0  0  0  0  0
   -0.6261   -2.1849    2.9917 N   0  0  0  0  0  0  0  0  0  0  0  0
   -0.7237   -2.2601    1.5650 C   0  0  2  0  0  0  0  0  0  0  0  0
    0.1695   -1.1513    1.0687 C   0  0  0  0  0  0  0  0  0  0  0  0
    0.3193   -0.1267    1.7365 O   0  0  0  0  0  0  0  0  0  0  0  0
   -2.1397   -2.0663    1.0750 C   0  0  0  0  0  0  0  0  0  0  0  0
   -0.5717   -1.2606    3.4238 H   0  0  0  0  0  0  0  0  0  0  0  0
   -0.3076   -3.2111    1.2363 H   0  0  0  0  0  0  0  0  0  0  0  0
   -2.5584   -1.1089    1.4061 H   0  0  0  0  0  0  0  0  0  0  0  0
   -2.1682   -2.0790   -0.0197 H   0  0  0  0  0  0  0  0  0  0  0  0
   -2.7965   -2.8601    1.4459 H   0  0  0  0  0  0  0  0  0  0  0  0
    0.7724   -1.3745   -0.1593 N   0  0  0  0  0  0  0  0  0  0  0  0
    0.5614   -2.5964   -0.9244 C   0  0  2  0  0  0  0  0  0  0  0  0
    1.6157   -3.5728   -0.4972 C   0  0  0  0  0  0  0  0  0  0  0  0
    2.7681   -3.4270   -0.8876 O   0  0  0  0  0  0  0  0  0  0  0  0
    0.7345   -2.1771   -2.3796 C   0  0  0  0  0  0  0  0  0  0  0  0
    0.3244   -0.8671   -1.7112 C   0  0  0  0  0  0  0  0  0  0  0  0
    1.5408   -0.3981   -0.9273 C   0  0  0  0  0  0  0  0  0  0  0  0
   -0.4227   -3.0263   -0.7144 H   0  0  0  0  0  0  0  0  0  0  0  0
    0.0120   -2.7078   -3.0110 H   0  0  0  0  0  0  0  0  0  0  0  0
    1.7400   -2.3597   -2.7711 H   0  0  0  0  0  0  0  0  0  0  0  0
    0.0755   -0.1144   -2.4681 H   0  0  0  0  0  0  0  0  0  0  0  0
   -0.5410   -0.9920   -1.0542 H   0  0  0  0  0  0  0  0  0  0  0  0
    2.4811   -0.6014   -1.4471 H   0  0  0  0  0  0  0  0  0  0  0  0
    1.4806    0.6724   -0.7030 H   0  0  0  0  0  0  0  0  0  0  0  0
    0.8533   -4.5910    0.4098 N   0  0  0  0  0  0  0  0  0  0  0  0
    1.5604   -5.6356    1.1154 C   0  0  2  0  0  0  0  0  0  0  0  0
    2.4386   -4.9783    2.1719 C   0  0  0  0  0  0  0  0  0  0  0  0
    2.8084   -3.8080    2.1033 O   0  0  0  0  0  0  0  0  0  0  0  0
    2.3941   -6.4796    0.1639 C   0  0  0  0  0  0  0  0  0  0  0  0
   -0.1621   -4.6104    0.4084 H   0  0  0  0  0  0  0  0  0  0  0  0
    0.8018   -6.2562    1.6047 H   0  0  0  0  0  0  0  0  0  0  0  0
    3.1598   -5.8749   -0.3358 H   0  0  0  0  0  0  0  0  0  0  0  0
    2.9066   -7.2880    0.6958 H   0  0  0  0  0  0  0  0  0  0  0  0
    1.7651   -6.9275   -0.6129 H   0  0  0  0  0  0  0  0  0  0  0  0
    2.7962   -5.8646    3.1783 N   0  0  0  0  0  0  0  0  0  0  0  0
    3.6365   -5.4842    4.2898 C   0  0  0  0  0  0  0  0  0  0  0  0
    2.4281   -6.8111    3.1646 H   0  0  0  0  0  0  0  0  0  0  0  0
    4.6867   -5.7053    4.0487 H   0  0  0  0  0  0  0  0  0  0  0  0
    3.5236   -4.4072    4.4828 H   0  0  0  0  0  0  0  0  0  0  0  0
    3.3389   -6.0503    5.1848 H   0  0  0  0  0  0  0  0  0  0  0  0
 18 19  1  0  0  0  0
 19 31  1  0  0  0  0
 19 20  2  0  0  0  0
  8  9  1  0  0  0  0
  9 17  1  0  0  0  0
  9 10  2  0  0  0  0
  1  3  1  0  0  0  0
  1  7  1  0  0  0  0
  1  2  2  0  0  0  0
 32 33  1  0  0  0  0
 33 41  1  0  0  0  0
 33 34  2  0  0  0  0
 21 22  1  0  0  0  0
 22 23  1  0  0  0  0
 18 21  1  0  0  0  0
 17 23  1  0  0  0  0
 17 18  1  0  0  0  0
  8 11  1  0  0  0  0
 32 35  1  0  0  0  0
 41 42  1  0  0  0  0
  7  8  1  0  0  0  0
 31 32  1  0  0  0  0
 22 27  1  0  0  0  0
 22 28  1  0  0  0  0
 21 25  1  0  0  0  0
 21 26  1  0  0  0  0
 23 29  1  0  0  0  0
 23 30  1  0  0  0  0
 18 24  1  0  0  0  0
  3  4  1  0  0  0  0
  3  5  1  0  0  0  0
  3  6  1  0  0  0  0
 11 14  1  0  0  0  0
 11 15  1  0  0  0  0
 11 16  1  0  0  0  0
 35 38  1  0  0  0  0
 35 39  1  0  0  0  0
 35 40  1  0  0  0  0
 42 44  1  0  0  0  0
 42 45  1  0  0  0  0
 42 46  1  0  0  0  0
  8 13  1  0  0  0  0
 32 37  1  0  0  0  0
 31 36  1  0  0  0  0
 41 43  1  0  0  0  0
  7 12  1  0  0  0  0
M  END
$$$$

  -OEChem-05262214473D

 46 46  0     1  0  0  0  0  0999 V2000
   -0.6012   -3.2995    3.8205 C   0  0  0  0  0  0  0  0  0  0  0  0
   -0.6574   -4.4683    3.4568 O   0  0  0  0  0  0  0  0  0  0  0  0
   -0.4935   -2.9859    5.2760 C   0  0  0  0  0  0  0  0  0  0  0  0
   -1.4789   -2.8689    5.7550 H   0  0  0  0  0  0  0  0  0  0  0  0
    0.0123   -3.7847    5.8419 H   0  0  0  0  0  0  0  0  0  0  0  0
    0.0585   -2.0642    5.5199 H   0  0  0  0  0  0  0  0  0  0  0  0
   -0.6261   -2.1849    2.9917 N   0  0  0  0  0  0  0  0  0  0  0  0
   -0.7237   -2.2601    1.5650 C   0  0  2  0  0  0  0  0  0  0  0  0
    0.1695   -1.1513    1.0687 C   0  0  0  0  0  0  0  0  0  0  0  0
    0.3193   -0.1267    1.7365 O   0  0  0  0  0  0  0  0  0  0  0  0
   -2.1397   -2.0663    1.0750 C   0  0  0  0  0  0  0  0  0  0  0  0
   -0.5717   -1.2606    3.4238 H   0  0  0  0  0  0  0  0  0  0  0  0
   -0.3076   -3.2111    1.2363 H   0  0  0  0  0  0  0  0  0  0  0  0
   -2.5584   -1.1089    1.4061 H   0  0  0  0  0  0  0  0  0  0  0  0
   -2.1682   -2.0790   -0.0197 H   0  0  0  0  0  0  0  0  0  0  0  0
   -2.7965   -2.8601    1.4459 H   0  0  0  0  0  0  0  0  0  0  0  0
    0.7724   -1.3745   -0.1593 N   0  0  0  0  0  0  0  0  0  0  0  0
    0.5614   -2.5964   -0.9244 C   0  0  2  0  0  0  0  0  0  0  0  0
    1.6157   -3.5728   -0.4972 C   0  0  0  0  0  0  0  0  0  0  0  0
    2.7983   -3.2893   -0.6477 O   0  0  0  0  0  0  0  0  0  0  0  0
    0.7345   -2.1771   -2.3796 C   0  0  0  0  0  0  0  0  0  0  0  0
    0.3244   -0.8671   -1.7112 C   0  0  0  0  0  0  0  0  0  0  0  0
    1.5408   -0.3981   -0.9273 C   0  0  0  0  0  0  0  0  0  0  0  0
   -0.4227   -3.0263   -0.7144 H   0  0  0  0  0  0  0  0  0  0  0  0
    0.0120   -2.7078   -3.0110 H   0  0  0  0  0  0  0  0  0  0  0  0
    1.7400   -2.3597   -2.7711 H   0  0  0  0  0  0  0  0  0  0  0  0
    0.0755   -0.1144   -2.4681 H   0  0  0  0  0  0  0  0  0  0  0  0
   -0.5410   -0.9920   -1.0542 H   0  0  0  0  0  0  0  0  0  0  0  0
    2.4811   -0.6014   -1.4471 H   0  0  0  0  0  0  0  0  0  0  0  0
    1.4806    0.6724   -0.7030 H   0  0  0  0  0  0  0  0  0  0  0  0
    0.8107   -4.7862    0.0688 N   0  0  0  0  0  0  0  0  0  0  0  0
    1.4848   -5.9021    0.6928 C   0  0  2  0  0  0  0  0  0  0  0  0
    2.1183   -5.4056    1.9857 C   0  0  0  0  0  0  0  0  0  0  0  0
    2.3883   -4.2239    2.1898 O   0  0  0  0  0  0  0  0  0  0  0  0
    2.5335   -6.5018   -0.2310 C   0  0  0  0  0  0  0  0  0  0  0  0
   -0.1852   -4.8639   -0.1141 H   0  0  0  0  0  0  0  0  0  0  0  0
    0.7156   -6.6467    0.9247 H   0  0  0  0  0  0  0  0  0  0  0  0
    3.3128   -5.7704   -0.4745 H   0  0  0  0  0  0  0  0  0  0  0  0
    3.0234   -7.3647    0.2321 H   0  0  0  0  0  0  0  0  0  0  0  0
    2.0810   -6.8312   -1.1725 H   0  0  0  0  0  0  0  0  0  0  0  0
    2.3862   -6.4432    2.8677 N   0  0  0  0  0  0  0  0  0  0  0  0
    2.9982   -6.2308    4.1585 C   0  0  0  0  0  0  0  0  0  0  0  0
    2.1112   -7.3901    2.6235 H   0  0  0  0  0  0  0  0  0  0  0  0
    4.0891   -6.3411    4.0703 H   0  0  0  0  0  0  0  0  0  0  0  0
    2.7598   -5.2179    4.5150 H   0  0  0  0  0  0  0  0  0  0  0  0
    2.6115   -6.9717    4.8738 H   0  0  0  0  0  0  0  0  0  0  0  0
 18 19  1  0  0  0  0
 19 31  1  0  0  0  0
 19 20  2  0  0  0  0
  8  9  1  0  0  0  0
  9 17  1  0  0  0  0
  9 10  2  0  0  0  0
  1  3  1  0  0  0  0
  1  7  1  0  0  0  0
  1  2  2  0  0  0  0
 32 33  1  0  0  0  0
 33 41  1  0  0  0  0
 33 34  2  0  0  0  0
 21 22  1  0  0  0  0
 22 23  1  0  0  0  0
 18 21  1  0  0  0  0
 17 23  1  0  0  0  0
 17 18  1  0  0  0  0
  8 11  1  0  0  0  0
 32 35  1  0  0  0  0
 41 42  1  0  0  0  0
  7  8  1  0  0  0  0
 31 32  1  0  0  0  0
 22 27  1  0  0  0  0
 22 28  1  0  0  0  0
 21 25  1  0  0  0  0
 21 26  1  0  0  0  0
 23 29  1  0  0  0  0
 23 30  1  0  0  0  0
 18 24  1  0  0  0  0
  3  4  1  0  0  0  0
  3  5  1  0  0  0  0
  3  6  1  0  0  0  0
 11 14  1  0  0  0  0
 11 15  1  0  0  0  0
 11 16  1  0  0  0  0
 35 38  1  0  0  0  0
 35 39  1  0  0  0  0
 35 40  1  0  0  0  0
 42 44  1  0  0  0  0
 42 45  1  0  0  0  0
 42 46  1  0  0  0  0
  8 13  1  0  0  0  0
 32 37  1  0  0  0  0
 31 36  1  0  0  0  0
 41 43  1  0  0  0  0
  7 12  1  0  0  0  0
M  END
$$$$

  -OEChem-05262214473D

 46 46  0     1  0  0  0  0  0999 V2000
   -0.6012   -3.2995    3.8205 C   0  0  0  0  0  0  0  0  0  0  0  0
   -0.6574   -4.4683    3.4568 O   0  0  0  0  0  0  0  0  0  0  0  0
   -0.4935   -2.9859    5.2760 C   0  0  0  0  0  0  0  0  0  0  0  0
   -1.4789   -2.8689    5.7550 H   0  0  0  0  0  0  0  0  0  0  0  0
    0.0123   -3.7847    5.8419 H   0  0  0  0  0  0  0  0  0  0  0  0
    0.0585   -2.0642    5.5199 H   0  0  0  0  0  0  0  0  0  0  0  0
   -0.6261   -2.1849    2.9917 N   0  0  0  0  0  0  0  0  0  0  0  0
   -0.7237   -2.2601    1.5650 C   0  0  2  0  0  0  0  0  0  0  0  0
    0.1695   -1.1513    1.0687 C   0  0  0  0  0  0  0  0  0  0  0  0
    0.3193   -0.1267    1.7365 O   0  0  0  0  0  0  0  0  0  0  0  0
   -2.1397   -2.0663    1.0750 C   0  0  0  0  0  0  0  0  0  0  0  0
   -0.5717   -1.2606    3.4238 H   0  0  0  0  0  0  0  0  0  0  0  0
   -0.3076   -3.2111    1.2363 H   0  0  0  0  0  0  0  0  0  0  0  0
   -2.5584   -1.1089    1.4061 H   0  0  0  0  0  0  0  0  0  0  0  0
   -2.1682   -2.0790   -0.0197 H   0  0  0  0  0  0  0  0  0  0  0  0
   -2.7965   -2.8601    1.4459 H   0  0  0  0  0  0  0  0  0  0  0  0
    0.7724   -1.3745   -0.1593 N   0  0  0  0  0  0  0  0  0  0  0  0
    0.5614   -2.5964   -0.9244 C   0  0  2  0  0  0  0  0  0  0  0  0
    1.6157   -3.5728   -0.4972 C   0  0  0  0  0  0  0  0  0  0  0  0
    2.7770   -3.1978   -0.3857 O   0  0  0  0  0  0  0  0  0  0  0  0
    0.7345   -2.1771   -2.3796 C   0  0  0  0  0  0  0  0  0  0  0  0
    0.3244   -0.8671   -1.7112 C   0  0  0  0  0  0  0  0  0  0  0  0
    1.5408   -0.3981   -0.9273 C   0  0  0  0  0  0  0  0  0  0  0  0
   -0.4227   -3.0263   -0.7144 H   0  0  0  0  0  0  0  0  0  0  0  0
    0.0120   -2.7078   -3.0110 H   0  0  0  0  0  0  0  0  0  0  0  0
    1.7400   -2.3597   -2.7711 H   0  0  0  0  0  0  0  0  0  0  0  0
    0.0755   -0.1144   -2.4681 H   0  0  0  0  0  0  0  0  0  0  0  0
   -0.5410   -0.9920   -1.0542 H   0  0  0  0  0  0  0  0  0  0  0  0
    2.4811   -0.6014   -1.4471 H   0  0  0  0  0  0  0  0  0  0  0  0
    1.4806    0.6724   -0.7030 H   0  0  0  0  0  0  0  0  0  0  0  0
    0.8415   -4.9158   -0.3033 N   0  0  0  0  0  0  0  0  0  0  0  0
    1.5027   -6.0882    0.2233 C   0  0  2  0  0  0  0  0  0  0  0  0
    1.8718   -5.8081    1.6741 C   0  0  0  0  0  0  0  0  0  0  0  0
    1.9986   -4.6723    2.1268 O   0  0  0  0  0  0  0  0  0  0  0  0
    2.7364   -6.4411   -0.5929 C   0  0  0  0  0  0  0  0  0  0  0  0
   -0.1008   -5.0155   -0.6688 H   0  0  0  0  0  0  0  0  0  0  0  0
    0.7758   -6.9066    0.1822 H   0  0  0  0  0  0  0  0  0  0  0  0
    3.4762   -5.6329   -0.5637 H   0  0  0  0  0  0  0  0  0  0  0  0
    3.2200   -7.3459   -0.2100 H   0  0  0  0  0  0  0  0  0  0  0  0
    2.4733   -6.6131   -1.6422 H   0  0  0  0  0  0  0  0  0  0  0  0
    2.0851   -6.9759    2.3931 N   0  0  0  0  0  0  0  0  0  0  0  0
    2.4588   -6.9752    3.7883 C   0  0  0  0  0  0  0  0  0  0  0  0
    1.9390   -7.8742    1.9421 H   0  0  0  0  0  0  0  0  0  0  0  0
    3.5551   -7.0033    3.8748 H   0  0  0  0  0  0  0  0  0  0  0  0
    2.0764   -6.0631    4.2697 H   0  0  0  0  0  0  0  0  0  0  0  0
    2.0293   -7.8587    4.2832 H   0  0  0  0  0  0  0  0  0  0  0  0
 18 19  1  0  0  0  0
 19 31  1  0  0  0  0
 19 20  2  0  0  0  0
  8  9  1  0  0  0  0
  9 17  1  0  0  0  0
  9 10  2  0  0  0  0
  1  3  1  0  0  0  0
  1  7  1  0  0  0  0
  1  2  2  0  0  0  0
 32 33  1  0  0  0  0
 33 41  1  0  0  0  0
 33 34  2  0  0  0  0
 21 22  1  0  0  0  0
 22 23  1  0  0  0  0
 18 21  1  0  0  0  0
 17 23  1  0  0  0  0
 17 18  1  0  0  0  0
  8 11  1  0  0  0  0
 32 35  1  0  0  0  0
 41 42  1  0  0  0  0
  7  8  1  0  0  0  0
 31 32  1  0  0  0  0
 22 27  1  0  0  0  0
 22 28  1  0  0  0  0
 21 25  1  0  0  0  0
 21 26  1  0  0  0  0
 23 29  1  0  0  0  0
 23 30  1  0  0  0  0
 18 24  1  0  0  0  0
  3  4  1  0  0  0  0
  3  5  1  0  0  0  0
  3  6  1  0  0  0  0
 11 14  1  0  0  0  0
 11 15  1  0  0  0  0
 11 16  1  0  0  0  0
 35 38  1  0  0  0  0
 35 39  1  0  0  0  0
 35 40  1  0  0  0  0
 42 44  1  0  0  0  0
 42 45  1  0  0  0  0
 42 46  1  0  0  0  0
  8 13  1  0  0  0  0
 32 37  1  0  0  0  0
 31 36  1  0  0  0  0
 41 43  1  0  0  0  0
  7 12  1  0  0  0  0
M  END
$$$$

  -OEChem-05262214473D

 46 46  0     1  0  0  0  0  0999 V2000
   -0.6012   -3.2995    3.8205 C   0  0  0  0  0  0  0  0  0  0  0  0
   -0.6574   -4.4683    3.4568 O   0  0  0  0  0  0  0  0  0  0  0  0
   -0.4935   -2.9859    5.2760 C   0  0  0  0  0  0  0  0  0  0  0  0
   -1.4789   -2.8689    5.7550 H   0  0  0  0  0  0  0  0  0  0  0  0
    0.0123   -3.7847    5.8419 H   0  0  0  0  0  0  0  0  0  0  0  0
    0.0585   -2.0642    5.5199 H   0  0  0  0  0  0  0  0  0  0  0  0
   -0.6261   -2.1849    2.9917 N   0  0  0  0  0  0  0  0  0  0  0  0
   -0.7237   -2.2601    1.5650 C   0  0  2  0  0  0  0  0  0  0  0  0
    0.1695   -1.1513    1.0687 C   0  0  0  0  0  0  0  0  0  0  0  0
    0.3193   -0.1267    1.7365 O   0  0  0  0  0  0  0  0  0  0  0  0
   -2.1397   -2.0663    1.0750 C   0  0  0  0  0  0  0  0  0  0  0  0
   -0.5717   -1.2606    3.4238 H   0  0  0  0  0  0  0  0  0  0  0  0
   -0.3076   -3.2111    1.2363 H   0  0  0  0  0  0  0  0  0  0  0  0
   -2.5584   -1.1089    1.4061 H   0  0  0  0  0  0  0  0  0  0  0  0
   -2.1682   -2.0790   -0.0197 H   0  0  0  0  0  0  0  0  0  0  0  0
   -2.7965   -2.8601    1.4459 H   0  0  0  0  0  0  0  0  0  0  0  0
    0.7724   -1.3745   -0.1593 N   0  0  0  0  0  0  0  0  0  0  0  0
    0.5614   -2.5964   -0.9244 C   0  0  2  0  0  0  0  0  0  0  0  0
    1.6157   -3.5728   -0.4972 C   0  0  0  0  0  0  0  0  0  0  0  0
    2.7054   -3.1586   -0.1196 O   0  0  0  0  0  0  0  0  0  0  0  0
    0.7345   -2.1771   -2.3796 C   0  0  0  0  0  0  0  0  0  0  0  0
    0.3244   -0.8671   -1.7112 C   0  0  0  0  0  0  0  0  0  0  0  0
    1.5408   -0.3981   -0.9273 C   0  0  0  0  0  0  0  0  0  0  0  0
   -0.4227   -3.0263   -0.7144 H   0  0  0  0  0  0  0  0  0  0  0  0
    0.0120   -2.7078   -3.0110 H   0  0  0  0  0  0  0  0  0  0  0  0
    1.7400   -2.3597   -2.7711 H   0  0  0  0  0  0  0  0  0  0  0  0
    0.0755   -0.1144   -2.4681 H   0  0  0  0  0  0  0  0  0  0  0  0
   -0.5410   -0.9920   -1.0542 H   0  0  0  0  0  0  0  0  0  0  0  0
    2.4811   -0.6014   -1.4471 H   0  0  0  0  0  0  0  0  0  0  0  0
    1.4806    0.6724   -0.7030 H   0  0  0  0  0  0  0  0  0  0  0  0
    0.9434   -4.9710   -0.6811 N   0  0  0  0  0  0  0  0  0  0  0  0
    1.6129   -6.1811   -0.2610 C   0  0  2  0  0  0  0  0  0  0  0  0
    1.7159   -6.1583    1.2584 C   0  0  0  0  0  0  0  0  0  0  0  0
    1.6658   -5.1227    1.9186 O   0  0  0  0  0  0  0  0  0  0  0  0
    2.9888   -6.3017   -0.8973 C   0  0  0  0  0  0  0  0  0  0  0  0
    0.0854   -5.0546   -1.2180 H   0  0  0  0  0  0  0  0  0  0  0  0
    0.9782   -7.0180   -0.5721 H   0  0  0  0  0  0  0  0  0  0  0  0
    3.6390   -5.4718   -0.5972 H   0  0  0  0  0  0  0  0  0  0  0  0
    3.4830   -7.2327   -0.6005 H   0  0  0  0  0  0  0  0  0  0  0  0
    2.9154   -6.2879   -1.9901 H   0  0  0  0  0  0  0  0  0  0  0  0
    1.9136   -7.4262    1.7871 N   0  0  0  0  0  0  0  0  0  0  0  0
    2.0552   -7.6666    3.2042 C   0  0  0  0  0  0  0  0  0  0  0  0
    1.9232   -8.2304    1.1667 H   0  0  0  0  0  0  0  0  0  0  0  0
    3.1210   -7.6467    3.4753 H   0  0  0  0  0  0  0  0  0  0  0  0
    1.5200   -6.8853    3.7637 H   0  0  0  0  0  0  0  0  0  0  0  0
    1.6319   -8.6509    3.4530 H   0  0  0  0  0  0  0  0  0  0  0  0
 18 19  1  0  0  0  0
 19 31  1  0  0  0  0
 19 20  2  0  0  0  0
  8  9  1  0  0  0  0
  9 17  1  0  0  0  0
  9 10  2  0  0  0  0
  1  3  1  0  0  0  0
  1  7  1  0  0  0  0
  1  2  2  0  0  0  0
 32 33  1  0  0  0  0
 33 41  1  0  0  0  0
 33 34  2  0  0  0  0
 21 22  1  0  0  0  0
 22 23  1  0  0  0  0
 18 21  1  0  0  0  0
 17 23  1  0  0  0  0
 17 18  1  0  0  0  0
  8 11  1  0  0  0  0
 32 35  1  0  0  0  0
 41 42  1  0  0  0  0
  7  8  1  0  0  0  0
 31 32  1  0  0  0  0
 22 27  1  0  0  0  0
 22 28  1  0  0  0  0
 21 25  1  0  0  0  0
 21 26  1  0  0  0  0
 23 29  1  0  0  0  0
 23 30  1  0  0  0  0
 18 24  1  0  0  0  0
  3  4  1  0  0  0  0
  3  5  1  0  0  0  0
  3  6  1  0  0  0  0
 11 14  1  0  0  0  0
 11 15  1  0  0  0  0
 11 16  1  0  0  0  0
 35 38  1  0  0  0  0
 35 39  1  0  0  0  0
 35 40  1  0  0  0  0
 42 44  1  0  0  0  0
 42 45  1  0  0  0  0
 42 46  1  0  0  0  0
  8 13  1  0  0  0  0
 32 37  1  0  0  0  0
 31 36  1  0  0  0  0
 41 43  1  0  0  0  0
  7 12  1  0  0  0  0
M  END
$$$$

  -OEChem-05262214473D

 46 46  0     1  0  0  0  0  0999 V2000
   -0.6012   -3.2995    3.8205 C   0  0  0  0  0  0  0  0  0  0  0  0
   -0.6574   -4.4683    3.4568 O   0  0  0  0  0  0  0  0  0  0  0  0
   -0.4935   -2.9859    5.2760 C   0  0  0  0  0  0  0  0  0  0  0  0
   -1.4789   -2.8689    5.7550 H   0  0  0  0  0  0  0  0  0  0  0  0
    0.0123   -3.7847    5.8419 H   0  0  0  0  0  0  0  0  0  0  0  0
    0.0585   -2.0642    5.5199 H   0  0  0  0  0  0  0  0  0  0  0  0
   -0.6261   -2.1849    2.9917 N   0  0  0  0  0  0  0  0  0  0  0  0
   -0.7237   -2.2601    1.5650 C   0  0  2  0  0  0  0  0  0  0  0  0
    0.1695   -1.1513    1.0687 C   0  0  0  0  0  0  0  0  0  0  0  0
    0.3193   -0.1267    1.7365 O   0  0  0  0  0  0  0  0  0  0  0  0
   -2.1397   -2.0663    1.0750 C   0  0  0  0  0  0  0  0  0  0  0  0
   -0.5717   -1.2606    3.4238 H   0  0  0  0  0  0  0  0  0  0  0  0
   -0.3076   -3.2111    1.2363 H   0  0  0  0  0  0  0  0  0  0  0  0
   -2.5584   -1.1089    1.4061 H   0  0  0  0  0  0  0  0  0  0  0  0
   -2.1682   -2.0790   -0.0197 H   0  0  0  0  0  0  0  0  0  0  0  0
   -2.7965   -2.8601    1.4459 H   0  0  0  0  0  0  0  0  0  0  0  0
    0.7724   -1.3745   -0.1593 N   0  0  0  0  0  0  0  0  0  0  0  0
    0.5614   -2.5964   -0.9244 C   0  0  2  0  0  0  0  0  0  0  0  0
    1.6157   -3.5728   -0.4972 C   0  0  0  0  0  0  0  0  0  0  0  0
    2.5886   -3.1745    0.1325 O   0  0  0  0  0  0  0  0  0  0  0  0
    0.7345   -2.1771   -2.3796 C   0  0  0  0  0  0  0  0  0  0  0  0
    0.3244   -0.8671   -1.7112 C   0  0  0  0  0  0  0  0  0  0  0  0
    1.5408   -0.3981   -0.9273 C   0  0  0  0  0  0  0  0  0  0  0  0
   -0.4227   -3.0263   -0.7144 H   0  0  0  0  0  0  0  0  0  0  0  0
    0.0120   -2.7078   -3.0110 H   0  0  0  0  0  0  0  0  0  0  0  0
    1.7400   -2.3597   -2.7711 H   0  0  0  0  0  0  0  0  0  0  0  0
    0.0755   -0.1144   -2.4681 H   0  0  0  0  0  0  0  0  0  0  0  0
   -0.5410   -0.9920   -1.0542 H   0  0  0  0  0  0  0  0  0  0  0  0
    2.4811   -0.6014   -1.4471 H   0  0  0  0  0  0  0  0  0  0  0  0
    1.4806    0.6724   -0.7030 H   0  0  0  0  0  0  0  0  0  0  0  0
    1.1097   -4.9480   -1.0389 N   0  0  0  0  0  0  0  0  0  0  0  0
    1.8078   -6.1746   -0.7271 C   0  0  2  0  0  0  0  0  0  0  0  0
    1.6612   -6.4324    0.7667 C   0  0  0  0  0  0  0  0  0  0  0  0
    1.4126   -5.5444    1.5795 O   0  0  0  0  0  0  0  0  0  0  0  0
    3.2737   -6.0929   -1.1234 C   0  0  0  0  0  0  0  0  0  0  0  0
    0.3607   -4.9788   -1.7241 H   0  0  0  0  0  0  0  0  0  0  0  0
    1.3091   -6.9734   -1.2869 H   0  0  0  0  0  0  0  0  0  0  0  0
    3.7900   -5.2981   -0.5728 H   0  0  0  0  0  0  0  0  0  0  0  0
    3.7946   -7.0328   -0.9128 H   0  0  0  0  0  0  0  0  0  0  0  0
    3.3771   -5.8779   -2.1924 H   0  0  0  0  0  0  0  0  0  0  0  0
    1.8833   -7.7635    1.0908 N   0  0  0  0  0  0  0  0  0  0  0  0
    1.8147   -8.2579    2.4461 C   0  0  0  0  0  0  0  0  0  0  0  0
    2.0649   -8.4345    0.3502 H   0  0  0  0  0  0  0  0  0  0  0  0
    2.8166   -8.2275    2.8992 H   0  0  0  0  0  0  0  0  0  0  0  0
    1.1284   -7.6284    3.0316 H   0  0  0  0  0  0  0  0  0  0  0  0
    1.4465   -9.2944    2.4400 H   0  0  0  0  0  0  0  0  0  0  0  0
 18 19  1  0  0  0  0
 19 31  1  0  0  0  0
 19 20  2  0  0  0  0
  8  9  1  0  0  0  0
  9 17  1  0  0  0  0
  9 10  2  0  0  0  0
  1  3  1  0  0  0  0
  1  7  1  0  0  0  0
  1  2  2  0  0  0  0
 32 33  1  0  0  0  0
 33 41  1  0  0  0  0
 33 34  2  0  0  0  0
 21 22  1  0  0  0  0
 22 23  1  0  0  0  0
 18 21  1  0  0  0  0
 17 23  1  0  0  0  0
 17 18  1  0  0  0  0
  8 11  1  0  0  0  0
 32 35  1  0  0  0  0
 41 42  1  0  0  0  0
  7  8  1  0  0  0  0
 31 32  1  0  0  0  0
 22 27  1  0  0  0  0
 22 28  1  0  0  0  0
 21 25  1  0  0  0  0
 21 26  1  0  0  0  0
 23 29  1  0  0  0  0
 23 30  1  0  0  0  0
 18 24  1  0  0  0  0
  3  4  1  0  0  0  0
  3  5  1  0  0  0  0
  3  6  1  0  0  0  0
 11 14  1  0  0  0  0
 11 15  1  0  0  0  0
 11 16  1  0  0  0  0
 35 38  1  0  0  0  0
 35 39  1  0  0  0  0
 35 40  1  0  0  0  0
 42 44  1  0  0  0  0
 42 45  1  0  0  0  0
 42 46  1  0  0  0  0
  8 13  1  0  0  0  0
 32 37  1  0  0  0  0
 31 36  1  0  0  0  0
 41 43  1  0  0  0  0
  7 12  1  0  0  0  0
M  END
$$$$

  -OEChem-05262214473D

 46 46  0     1  0  0  0  0  0999 V2000
   -0.6012   -3.2995    3.8205 C   0  0  0  0  0  0  0  0  0  0  0  0
   -0.6574   -4.4683    3.4568 O   0  0  0  0  0  0  0  0  0  0  0  0
   -0.4935   -2.9859    5.2760 C   0  0  0  0  0  0  0  0  0  0  0  0
   -1.4789   -2.8689    5.7550 H   0  0  0  0  0  0  0  0  0  0  0  0
    0.0123   -3.7847    5.8419 H   0  0  0  0  0  0  0  0  0  0  0  0
    0.0585   -2.0642    5.5199 H   0  0  0  0  0  0  0  0  0  0  0  0
   -0.6261   -2.1849    2.9917 N   0  0  0  0  0  0  0  0  0  0  0  0
   -0.7237   -2.2601    1.5650 C   0  0  2  0  0  0  0  0  0  0  0  0
    0.1695   -1.1513    1.0687 C   0  0  0  0  0  0  0  0  0  0  0  0
    0.3193   -0.1267    1.7365 O   0  0  0  0  0  0  0  0  0  0  0  0
   -2.1397   -2.0663    1.0750 C   0  0  0  0  0  0  0  0  0  0  0  0
   -0.5717   -1.2606    3.4238 H   0  0  0  0  0  0  0  0  0  0  0  0
   -0.3076   -3.2111    1.2363 H   0  0  0  0  0  0  0  0  0  0  0  0
   -2.5584   -1.1089    1.4061 H   0  0  0  0  0  0  0  0  0  0  0  0
   -2.1682   -2.0790   -0.0197 H   0  0  0  0  0  0  0  0  0  0  0  0
   -2.7965   -2.8601    1.4459 H   0  0  0  0  0  0  0  0  0  0  0  0
    0.7724   -1.3745   -0.1593 N   0  0  0  0  0  0  0  0  0  0  0  0
    0.5614   -2.5964   -0.9244 C   0  0  2  0  0  0  0  0  0  0  0  0
    1.6157   -3.5728   -0.4972 C   0  0  0  0  0  0  0  0  0  0  0  0
    2.4344   -3.2444    0.3534 O   0  0  0  0  0  0  0  0  0  0  0  0
    0.7345   -2.1771   -2.3796 C   0  0  0  0  0  0  0  0  0  0  0  0
    0.3244   -0.8671   -1.7112 C   0  0  0  0  0  0  0  0  0  0  0  0
    1.5408   -0.3981   -0.9273 C   0  0  0  0  0  0  0  0  0  0  0  0
   -0.4227   -3.0263   -0.7144 H   0  0  0  0  0  0  0  0  0  0  0  0
    0.0120   -2.7078   -3.0110 H   0  0  0  0  0  0  0  0  0  0  0  0
    1.7400   -2.3597   -2.7711 H   0  0  0  0  0  0  0  0  0  0  0  0
    0.0755   -0.1144   -2.4681 H   0  0  0  0  0  0  0  0  0  0  0  0
   -0.5410   -0.9920   -1.0542 H   0  0  0  0  0  0  0  0  0  0  0  0
    2.4811   -0.6014   -1.4471 H   0  0  0  0  0  0  0  0  0  0  0  0
    1.4806    0.6724   -0.7030 H   0  0  0  0  0  0  0  0  0  0  0  0
    1.3289   -4.8484   -1.3523 N   0  0  0  0  0  0  0  0  0  0  0  0
    2.0741   -6.0690   -1.1433 C   0  0  2  0  0  0  0  0  0  0  0  0
    1.7115   -6.6117    0.2327 C   0  0  0  0  0  0  0  0  0  0  0  0
    1.2564   -5.9086    1.1325 O   0  0  0  0  0  0  0  0  0  0  0  0
    3.5716   -5.8292   -1.2557 C   0  0  0  0  0  0  0  0  0  0  0  0
    0.7064   -4.7931   -2.1529 H   0  0  0  0  0  0  0  0  0  0  0  0
    1.7460   -6.7757   -1.9134 H   0  0  0  0  0  0  0  0  0  0  0  0
    3.9189   -5.1236   -0.4922 H   0  0  0  0  0  0  0  0  0  0  0  0
    4.1335   -6.7600   -1.1255 H   0  0  0  0  0  0  0  0  0  0  0  0
    3.8269   -5.4110   -2.2354 H   0  0  0  0  0  0  0  0  0  0  0  0
    1.9963   -7.9648    0.3517 N   0  0  0  0  0  0  0  0  0  0  0  0
    1.7538   -8.7087    1.5657 C   0  0  0  0  0  0  0  0  0  0  0  0
    2.3545   -8.4726   -0.4517 H   0  0  0  0  0  0  0  0  0  0  0  0
    2.6625   -8.7060    2.1857 H   0  0  0  0  0  0  0  0  0  0  0  0
    0.9284   -8.2418    2.1231 H   0  0  0  0  0  0  0  0  0  0  0  0
    1.4855   -9.7452    1.3131 H   0  0  0  0  0  0  0  0  0  0  0  0
 18 19  1  0  0  0  0
 19 31  1  0  0  0  0
 19 20  2  0  0  0  0
  8  9  1  0  0  0  0
  9 17  1  0  0  0  0
  9 10  2  0  0  0  0
  1  3  1  0  0  0  0
  1  7  1  0  0  0  0
  1  2  2  0  0  0  0
 32 33  1  0  0  0  0
 33 41  1  0  0  0  0
 33 34  2  0  0  0  0
 21 22  1  0  0  0  0
 22 23  1  0  0  0  0
 18 21  1  0  0  0  0
 17 23  1  0  0  0  0
 17 18  1  0  0  0  0
  8 11  1  0  0  0  0
 32 35  1  0  0  0  0
 41 42  1  0  0  0  0
  7  8  1  0  0  0  0
 31 32  1  0  0  0  0
 22 27  1  0  0  0  0
 22 28  1  0  0  0  0
 21 25  1  0  0  0  0
 21 26  1  0  0  0  0
 23 29  1  0  0  0  0
 23 30  1  0  0  0  0
 18 24  1  0  0  0  0
  3  4  1  0  0  0  0
  3  5  1  0  0  0  0
  3  6  1  0  0  0  0
 11 14  1  0  0  0  0
 11 15  1  0  0  0  0
 11 16  1  0  0  0  0
 35 38  1  0  0  0  0
 35 39  1  0  0  0  0
 35 40  1  0  0  0  0
 42 44  1  0  0  0  0
 42 45  1  0  0  0  0
 42 46  1  0  0  0  0
  8 13  1  0  0  0  0
 32 37  1  0  0  0  0
 31 36  1  0  0  0  0
 41 43  1  0  0  0  0
  7 12  1  0  0  0  0
M  END
$$$$

  -OEChem-05262214473D

 46 46  0     1  0  0  0  0  0999 V2000
   -0.6012   -3.2995    3.8205 C   0  0  0  0  0  0  0  0  0  0  0  0
   -0.6574   -4.4683    3.4568 O   0  0  0  0  0  0  0  0  0  0  0  0
   -0.4935   -2.9859    5.2760 C   0  0  0  0  0  0  0  0  0  0  0  0
   -1.4789   -2.8689    5.7550 H   0  0  0  0  0  0  0  0  0  0  0  0
    0.0123   -3.7847    5.8419 H   0  0  0  0  0  0  0  0  0  0  0  0
    0.0585   -2.0642    5.5199 H   0  0  0  0  0  0  0  0  0  0  0  0
   -0.6261   -2.1849    2.9917 N   0  0  0  0  0  0  0  0  0  0  0  0
   -0.7237   -2.2601    1.5650 C   0  0  2  0  0  0  0  0  0  0  0  0
    0.1695   -1.1513    1.0687 C   0  0  0  0  0  0  0  0  0  0  0  0
    0.3193   -0.1267    1.7365 O   0  0  0  0  0  0  0  0  0  0  0  0
   -2.1397   -2.0663    1.0750 C   0  0  0  0  0  0  0  0  0  0  0  0
   -0.5717   -1.2606    3.4238 H   0  0  0  0  0  0  0  0  0  0  0  0
   -0.3076   -3.2111    1.2363 H   0  0  0  0  0  0  0  0  0  0  0  0
   -2.5584   -1.1089    1.4061 H   0  0  0  0  0  0  0  0  0  0  0  0
   -2.1682   -2.0790   -0.0197 H   0  0  0  0  0  0  0  0  0  0  0  0
   -2.7965   -2.8601    1.4459 H   0  0  0  0  0  0  0  0  0  0  0  0
    0.7724   -1.3745   -0.1593 N   0  0  0  0  0  0  0  0  0  0  0  0
    0.5614   -2.5964   -0.9244 C   0  0  2  0  0  0  0  0  0  0  0  0
    1.6157   -3.5728   -0.4972 C   0  0  0  0  0  0  0  0  0  0  0  0
    2.2533   -3.3634    0.5281 O   0  0  0  0  0  0  0  0  0  0  0  0
    0.7345   -2.1771   -2.3796 C   0  0  0  0  0  0  0  0  0  0  0  0
    0.3244   -0.8671   -1.7112 C   0  0  0  0  0  0  0  0  0  0  0  0
    1.5408   -0.3981   -0.9273 C   0  0  0  0  0  0  0  0  0  0  0  0
   -0.4227   -3.0263   -0.7144 H   0  0  0  0  0  0  0  0  0  0  0  0
    0.0120   -2.7078   -3.0110 H   0  0  0  0  0  0  0  0  0  0  0  0
    1.7400   -2.3597   -2.7711 H   0  0  0  0  0  0  0  0  0  0  0  0
    0.0755   -0.1144   -2.4681 H   0  0  0  0  0  0  0  0  0  0  0  0
   -0.5410   -0.9920   -1.0542 H   0  0  0  0  0  0  0  0  0  0  0  0
    2.4811   -0.6014   -1.4471 H   0  0  0  0  0  0  0  0  0  0  0  0
    1.4806    0.6724   -0.7030 H   0  0  0  0  0  0  0  0  0  0  0  0
    1.5861   -4.6790   -1.6000 N   0  0  0  0  0  0  0  0  0  0  0  0
    2.3938   -5.8717   -1.4813 C   0  0  2  0  0  0  0  0  0  0  0  0
    1.8634   -6.6840   -0.3073 C   0  0  0  0  0  0  0  0  0  0  0  0
    1.2077   -6.1906    0.6080 O   0  0  0  0  0  0  0  0  0  0  0  0
    3.8623   -5.5283   -1.2853 C   0  0  0  0  0  0  0  0  0  0  0  0
    1.0989   -4.5102   -2.4749 H   0  0  0  0  0  0  0  0  0  0  0  0
    2.2590   -6.4386   -2.4089 H   0  0  0  0  0  0  0  0  0  0  0  0
    4.0170   -4.9602   -0.3608 H   0  0  0  0  0  0  0  0  0  0  0  0
    4.4765   -6.4328   -1.2242 H   0  0  0  0  0  0  0  0  0  0  0  0
    4.2342   -4.9190   -2.1161 H   0  0  0  0  0  0  0  0  0  0  0  0
    2.2449   -8.0164   -0.3797 N   0  0  0  0  0  0  0  0  0  0  0  0
    1.8767   -8.9885    0.6230 C   0  0  0  0  0  0  0  0  0  0  0  0
    2.7723   -8.3421   -1.1844 H   0  0  0  0  0  0  0  0  0  0  0  0
    2.6691   -9.0498    1.3834 H   0  0  0  0  0  0  0  0  0  0  0  0
    0.9336   -8.6836    1.1002 H   0  0  0  0  0  0  0  0  0  0  0  0
    1.7465   -9.9726    0.1491 H   0  0  0  0  0  0  0  0  0  0  0  0
 18 19  1  0  0  0  0
 19 31  1  0  0  0  0
 19 20  2  0  0  0  0
  8  9  1  0  0  0  0
  9 17  1  0  0  0  0
  9 10  2  0  0  0  0
  1  3  1  0  0  0  0
  1  7  1  0  0  0  0
  1  2  2  0  0  0  0
 32 33  1  0  0  0  0
 33 41  1  0  0  0  0
 33 34  2  0  0  0  0
 21 22  1  0  0  0  0
 22 23  1  0  0  0  0
 18 21  1  0  0  0  0
 17 23  1  0  0  0  0
 17 18  1  0  0  0  0
  8 11  1  0  0  0  0
 32 35  1  0  0  0  0
 41 42  1  0  0  0  0
  7  8  1  0  0  0  0
 31 32  1  0  0  0  0
 22 27  1  0  0  0  0
 22 28  1  0  0  0  0
 21 25  1  0  0  0  0
 21 26  1  0  0  0  0
 23 29  1  0  0  0  0
 23 30  1  0  0  0  0
 18 24  1  0  0  0  0
  3  4  1  0  0  0  0
  3  5  1  0  0  0  0
  3  6  1  0  0  0  0
 11 14  1  0  0  0  0
 11 15  1  0  0  0  0
 11 16  1  0  0  0  0
 35 38  1  0  0  0  0
 35 39  1  0  0  0  0
 35 40  1  0  0  0  0
 42 44  1  0  0  0  0
 42 45  1  0  0  0  0
 42 46  1  0  0  0  0
  8 13  1  0  0  0  0
 32 37  1  0  0  0  0
 31 36  1  0  0  0  0
 41 43  1  0  0  0  0
  7 12  1  0  0  0  0
M  END
$$$$

  -OEChem-05262214473D

 46 46  0     1  0  0  0  0  0999 V2000
   -0.6012   -3.2995    3.8205 C   0  0  0  0  0  0  0  0  0  0  0  0
   -0.6574   -4.4683    3.4568 O   0  0  0  0  0  0  0  0  0  0  0  0
   -0.4935   -2.9859    5.2760 C   0  0  0  0  0  0  0  0  0  0  0  0
   -1.4789   -2.8689    5.7550 H   0  0  0  0  0  0  0  0  0  0  0  0
    0.0123   -3.7847    5.8419 H   0  0  0  0  0  0  0  0  0  0  0  0
    0.0585   -2.0642    5.5199 H   0  0  0  0  0  0  0  0  0  0  0  0
   -0.6261   -2.1849    2.9917 N   0  0  0  0  0  0  0  0  0  0  0  0
   -0.7237   -2.2601    1.5650 C   0  0  2  0  0  0  0  0  0  0  0  0
    0.1695   -1.1513    1.0687 C   0  0  0  0  0  0  0  0  0  0  0  0
    0.3193   -0.1267    1.7365 O   0  0  0  0  0  0  0  0  0  0  0  0
   -2.1397   -2.0663    1.0750 C   0  0  0  0  0  0  0  0  0  0  0  0
   -0.5717   -1.2606    3.4238 H   0  0  0  0  0  0  0  0  0  0  0  0
   -0.3076   -3.2111    1.2363 H   0  0  0  0  0  0  0  0  0  0  0  0
   -2.5584   -1.1089    1.4061 H   0  0  0  0  0  0  0  0  0  0  0  0
   -2.1682   -2.0790   -0.0197 H   0  0  0  0  0  0  0  0  0  0  0  0
   -2.7965   -2.8601    1.4459 H   0  0  0  0  0  0  0  0  0  0  0  0
    0.7724   -1.3745   -0.1593 N   0  0  0  0  0  0  0  0  0  0  0  0
    0.5614   -2.5964   -0.9244 C   0  0  2  0  0  0  0  0  0  0  0  0
    1.6157   -3.5728   -0.4972 C   0  0  0  0  0  0  0  0  0  0  0  0
    2.0578   -3.5236    0.6446 O   0  0  0  0  0  0  0  0  0  0  0  0
    0.7345   -2.1771   -2.3796 C   0  0  0  0  0  0  0  0  0  0  0  0
    0.3244   -0.8671   -1.7112 C   0  0  0  0  0  0  0  0  0  0  0  0
    1.5408   -0.3981   -0.9273 C   0  0  0  0  0  0  0  0  0  0  0  0
   -0.4227   -3.0263   -0.7144 H   0  0  0  0  0  0  0  0  0  0  0  0
    0.0120   -2.7078   -3.0110 H   0  0  0  0  0  0  0  0  0  0  0  0
    1.7400   -2.3597   -2.7711 H   0  0  0  0  0  0  0  0  0  0  0  0
    0.0755   -0.1144   -2.4681 H   0  0  0  0  0  0  0  0  0  0  0  0
   -0.5410   -0.9920   -1.0542 H   0  0  0  0  0  0  0  0  0  0  0  0
    2.4811   -0.6014   -1.4471 H   0  0  0  0  0  0  0  0  0  0  0  0
    1.4806    0.6724   -0.7030 H   0  0  0  0  0  0  0  0  0  0  0  0
    1.8638   -4.4513   -1.7650 N   0  0  0  0  0  0  0  0  0  0  0  0
    2.7450   -5.5960   -1.7179 C   0  0  2  0  0  0  0  0  0  0  0  0
    2.1064   -6.6443   -0.8164 C   0  0  0  0  0  0  0  0  0  0  0  0
    1.2699   -6.3712    0.0419 O   0  0  0  0  0  0  0  0  0  0  0  0
    4.1258   -5.2109   -1.2102 C   0  0  0  0  0  0  0  0  0  0  0  0
    1.5114   -4.1493   -2.6683 H   0  0  0  0  0  0  0  0  0  0  0  0
    2.8132   -5.9849   -2.7397 H   0  0  0  0  0  0  0  0  0  0  0  0
    4.0776   -4.8191   -0.1876 H   0  0  0  0  0  0  0  0  0  0  0  0
    4.8004   -6.0734   -1.2021 H   0  0  0  0  0  0  0  0  0  0  0  0
    4.5713   -4.4354   -1.8426 H   0  0  0  0  0  0  0  0  0  0  0  0
    2.6121   -7.9148   -1.0538 N   0  0  0  0  0  0  0  0  0  0  0  0
    2.1749   -9.0780   -0.3178 C   0  0  0  0  0  0  0  0  0  0  0  0
    3.2897   -8.0519   -1.7980 H   0  0  0  0  0  0  0  0  0  0  0  0
    2.8362   -9.2353    0.5470 H   0  0  0  0  0  0  0  0  0  0  0  0
    1.1437   -8.9239    0.0326 H   0  0  0  0  0  0  0  0  0  0  0  0
    2.2115   -9.9612   -0.9726 H   0  0  0  0  0  0  0  0  0  0  0  0
 18 19  1  0  0  0  0
 19 31  1  0  0  0  0
 19 20  2  0  0  0  0
  8  9  1  0  0  0  0
  9 17  1  0  0  0  0
  9 10  2  0  0  0  0
  1  3  1  0  0  0  0
  1  7  1  0  0  0  0
  1  2  2  0  0  0  0
 32 33  1  0  0  0  0
 33 41  1  0  0  0  0
 33 34  2  0  0  0  0
 21 22  1  0  0  0  0
 22 23  1  0  0  0  0
 18 21  1  0  0  0  0
 17 23  1  0  0  0  0
 17 18  1  0  0  0  0
  8 11  1  0  0  0  0
 32 35  1  0  0  0  0
 41 42  1  0  0  0  0
  7  8  1  0  0  0  0
 31 32  1  0  0  0  0
 22 27  1  0  0  0  0
 22 28  1  0  0  0  0
 21 25  1  0  0  0  0
 21 26  1  0  0  0  0
 23 29  1  0  0  0  0
 23 30  1  0  0  0  0
 18 24  1  0  0  0  0
  3  4  1  0  0  0  0
  3  5  1  0  0  0  0
  3  6  1  0  0  0  0
 11 14  1  0  0  0  0
 11 15  1  0  0  0  0
 11 16  1  0  0  0  0
 35 38  1  0  0  0  0
 35 39  1  0  0  0  0
 35 40  1  0  0  0  0
 42 44  1  0  0  0  0
 42 45  1  0  0  0  0
 42 46  1  0  0  0  0
  8 13  1  0  0  0  0
 32 37  1  0  0  0  0
 31 36  1  0  0  0  0
 41 43  1  0  0  0  0
  7 12  1  0  0  0  0
M  END
$$$$

  -OEChem-05262214473D

 46 46  0     1  0  0  0  0  0999 V2000
   -0.6012   -3.2995    3.8205 C   0  0  0  0  0  0  0  0  0  0  0  0
   -0.6574   -4.4683    3.4568 O   0  0  0  0  0  0  0  0  0  0  0  0
   -0.4935   -2.9859    5.2760 C   0  0  0  0  0  0  0  0  0  0  0  0
   -1.4789   -2.8689    5.7550 H   0  0  0  0  0  0  0  0  0  0  0  0
    0.0123   -3.7847    5.8419 H   0  0  0  0  0  0  0  0  0  0  0  0
    0.0585   -2.0642    5.5199 H   0  0  0  0  0  0  0  0  0  0  0  0
   -0.6261   -2.1849    2.9917 N   0  0  0  0  0  0  0  0  0  0  0  0
   -0.7237   -2.2601    1.5650 C   0  0  2  0  0  0  0  0  0  0  0  0
    0.1695   -1.1513    1.0687 C   0  0  0  0  0  0  0  0  0  0  0  0
    0.3193   -0.1267    1.7365 O   0  0  0  0  0  0  0  0  0  0  0  0
   -2.1397   -2.0663    1.0750 C   0  0  0  0  0  0  0  0  0  0  0  0
   -0.5717   -1.2606    3.4238 H   0  0  0  0  0  0  0  0  0  0  0  0
   -0.3076   -3.2111    1.2363 H   0  0  0  0  0  0  0  0  0  0  0  0
   -2.5584   -1.1089    1.4061 H   0  0  0  0  0  0  0  0  0  0  0  0
   -2.1682   -2.0790   -0.0197 H   0  0  0  0  0  0  0  0  0  0  0  0
   -2.7965   -2.8601    1.4459 H   0  0  0  0  0  0  0  0  0  0  0  0
    0.7724   -1.3745   -0.1593 N   0  0  0  0  0  0  0  0  0  0  0  0
    0.5614   -2.5964   -0.9244 C   0  0  2  0  0  0  0  0  0  0  0  0
    1.6157   -3.5728   -0.4972 C   0  0  0  0  0  0  0  0  0  0  0  0
    1.8611   -3.7139    0.6951 O   0  0  0  0  0  0  0  0  0  0  0  0
    0.7345   -2.1771   -2.3796 C   0  0  0  0  0  0  0  0  0  0  0  0
    0.3244   -0.8671   -1.7112 C   0  0  0  0  0  0  0  0  0  0  0  0
    1.5408   -0.3981   -0.9273 C   0  0  0  0  0  0  0  0  0  0  0  0
   -0.4227   -3.0263   -0.7144 H   0  0  0  0  0  0  0  0  0  0  0  0
    0.0120   -2.7078   -3.0110 H   0  0  0  0  0  0  0  0  0  0  0  0
    1.7400   -2.3597   -2.7711 H   0  0  0  0  0  0  0  0  0  0  0  0
    0.0755   -0.1144   -2.4681 H   0  0  0  0  0  0  0  0  0  0  0  0
   -0.5410   -0.9920   -1.0542 H   0  0  0  0  0  0  0  0  0  0  0  0
    2.4811   -0.6014   -1.4471 H   0  0  0  0  0  0  0  0  0  0  0  0
    1.4806    0.6724   -0.7030 H   0  0  0  0  0  0  0  0  0  0  0  0
    2.1431   -4.1809   -1.8361 N   0  0  0  0  0  0  0  0  0  0  0  0
    3.1037   -5.2608   -1.8371 C   0  0  2  0  0  0  0  0  0  0  0  0
    2.4240   -6.4954   -1.2600 C   0  0  0  0  0  0  0  0  0  0  0  0
    1.4387   -6.4379   -0.5273 O   0  0  0  0  0  0  0  0  0  0  0  0
    4.3442   -4.8986   -1.0354 C   0  0  0  0  0  0  0  0  0  0  0  0
    1.9159   -3.7351   -2.7199 H   0  0  0  0  0  0  0  0  0  0  0  0
    3.3708   -5.4456   -2.8833 H   0  0  0  0  0  0  0  0  0  0  0  0
    4.0965   -4.7098    0.0155 H   0  0  0  0  0  0  0  0  0  0  0  0
    5.0830   -5.7064   -1.0608 H   0  0  0  0  0  0  0  0  0  0  0  0
    4.8150   -3.9933   -1.4336 H   0  0  0  0  0  0  0  0  0  0  0  0
    3.0729   -7.6668   -1.6245 N   0  0  0  0  0  0  0  0  0  0  0  0
    2.6282   -8.9713   -1.1926 C   0  0  0  0  0  0  0  0  0  0  0  0
    3.8714   -7.6217   -2.2506 H   0  0  0  0  0  0  0  0  0  0  0  0
    3.1522   -9.2499   -0.2665 H   0  0  0  0  0  0  0  0  0  0  0  0
    1.5442   -8.9461   -1.0070 H   0  0  0  0  0  0  0  0  0  0  0  0
    2.8490   -9.7117   -1.9756 H   0  0  0  0  0  0  0  0  0  0  0  0
 18 19  1  0  0  0  0
 19 31  1  0  0  0  0
 19 20  2  0  0  0  0
  8  9  1  0  0  0  0
  9 17  1  0  0  0  0
  9 10  2  0  0  0  0
  1  3  1  0  0  0  0
  1  7  1  0  0  0  0
  1  2  2  0  0  0  0
 32 33  1  0  0  0  0
 33 41  1  0  0  0  0
 33 34  2  0  0  0  0
 21 22  1  0  0  0  0
 22 23  1  0  0  0  0
 18 21  1  0  0  0  0
 17 23  1  0  0  0  0
 17 18  1  0  0  0  0
  8 11  1  0  0  0  0
 32 35  1  0  0  0  0
 41 42  1  0  0  0  0
  7  8  1  0  0  0  0
 31 32  1  0  0  0  0
 22 27  1  0  0  0  0
 22 28  1  0  0  0  0
 21 25  1  0  0  0  0
 21 26  1  0  0  0  0
 23 29  1  0  0  0  0
 23 30  1  0  0  0  0
 18 24  1  0  0  0  0
  3  4  1  0  0  0  0
  3  5  1  0  0  0  0
  3  6  1  0  0  0  0
 11 14  1  0  0  0  0
 11 15  1  0  0  0  0
 11 16  1  0  0  0  0
 35 38  1  0  0  0  0
 35 39  1  0  0  0  0
 35 40  1  0  0  0  0
 42 44  1  0  0  0  0
 42 45  1  0  0  0  0
 42 46  1  0  0  0  0
  8 13  1  0  0  0  0
 32 37  1  0  0  0  0
 31 36  1  0  0  0  0
 41 43  1  0  0  0  0
  7 12  1  0  0  0  0
M  END
$$$$

  -OEChem-05262214473D

 46 46  0     1  0  0  0  0  0999 V2000
   -0.6012   -3.2995    3.8205 C   0  0  0  0  0  0  0  0  0  0  0  0
   -0.6574   -4.4683    3.4568 O   0  0  0  0  0  0  0  0  0  0  0  0
   -0.4935   -2.9859    5.2760 C   0  0  0  0  0  0  0  0  0  0  0  0
   -1.4789   -2.8689    5.7550 H   0  0  0  0  0  0  0  0  0  0  0  0
    0.0123   -3.7847    5.8419 H   0  0  0  0  0  0  0  0  0  0  0  0
    0.0585   -2.0642    5.5199 H   0  0  0  0  0  0  0  0  0  0  0  0
   -0.6261   -2.1849    2.9917 N   0  0  0  0  0  0  0  0  0  0  0  0
   -0.7237   -2.2601    1.5650 C   0  0  2  0  0  0  0  0  0  0  0  0
    0.1695   -1.1513    1.0687 C   0  0  0  0  0  0  0  0  0  0  0  0
    0.3193   -0.1267    1.7365 O   0  0  0  0  0  0  0  0  0  0  0  0
   -2.1397   -2.0663    1.0750 C   0  0  0  0  0  0  0  0  0  0  0  0
   -0.5717   -1.2606    3.4238 H   0  0  0  0  0  0  0  0  0  0  0  0
   -0.3076   -3.2111    1.2363 H   0  0  0  0  0  0  0  0  0  0  0  0
   -2.5584   -1.1089    1.4061 H   0  0  0  0  0  0  0  0  0  0  0  0
   -2.1682   -2.0790   -0.0197 H   0  0  0  0  0  0  0  0  0  0  0  0
   -2.7965   -2.8601    1.4459 H   0  0  0  0  0  0  0  0  0  0  0  0
    0.7724   -1.3745   -0.1593 N   0  0  0  0  0  0  0  0  0  0  0  0
    0.5614   -2.5964   -0.9244 C   0  0  2  0  0  0  0  0  0  0  0  0
    1.6157   -3.5728   -0.4972 C   0  0  0  0  0  0  0  0  0  0  0  0
    1.6766   -3.9214    0.6760 O   0  0  0  0  0  0  0  0  0  0  0  0
    0.7345   -2.1771   -2.3796 C   0  0  0  0  0  0  0  0  0  0  0  0
    0.3244   -0.8671   -1.7112 C   0  0  0  0  0  0  0  0  0  0  0  0
    1.5408   -0.3981   -0.9273 C   0  0  0  0  0  0  0  0  0  0  0  0
   -0.4227   -3.0263   -0.7144 H   0  0  0  0  0  0  0  0  0  0  0  0
    0.0120   -2.7078   -3.0110 H   0  0  0  0  0  0  0  0  0  0  0  0
    1.7400   -2.3597   -2.7711 H   0  0  0  0  0  0  0  0  0  0  0  0
    0.0755   -0.1144   -2.4681 H   0  0  0  0  0  0  0  0  0  0  0  0
   -0.5410   -0.9920   -1.0542 H   0  0  0  0  0  0  0  0  0  0  0  0
    2.4811   -0.6014   -1.4471 H   0  0  0  0  0  0  0  0  0  0  0  0
    1.4806    0.6724   -0.7030 H   0  0  0  0  0  0  0  0  0  0  0  0
    2.4049   -3.8861   -1.8085 N   0  0  0  0  0  0  0  0  0  0  0  0
    3.4457   -4.8888   -1.8307 C   0  0  2  0  0  0  0  0  0  0  0  0
    2.7946   -6.2474   -1.6078 C   0  0  0  0  0  0  0  0  0  0  0  0
    1.7026   -6.3863   -1.0608 O   0  0  0  0  0  0  0  0  0  0  0  0
    4.5027   -4.6126   -0.7729 C   0  0  0  0  0  0  0  0  0  0  0  0
    2.2848   -3.2959   -2.6262 H   0  0  0  0  0  0  0  0  0  0  0  0
    3.8938   -4.8574   -2.8298 H   0  0  0  0  0  0  0  0  0  0  0  0
    4.0724   -4.6398    0.2348 H   0  0  0  0  0  0  0  0  0  0  0  0
    5.3051   -5.3568   -0.8099 H   0  0  0  0  0  0  0  0  0  0  0  0
    4.9490   -3.6227   -0.9170 H   0  0  0  0  0  0  0  0  0  0  0  0
    3.5960   -7.2895   -2.0529 N   0  0  0  0  0  0  0  0  0  0  0  0
    3.2056   -8.6756   -1.9417 C   0  0  0  0  0  0  0  0  0  0  0  0
    4.4780   -7.0808   -2.5114 H   0  0  0  0  0  0  0  0  0  0  0  0
    3.5957   -9.0927   -1.0016 H   0  0  0  0  0  0  0  0  0  0  0  0
    2.1080   -8.7488   -1.9476 H   0  0  0  0  0  0  0  0  0  0  0  0
    3.6154   -9.2411   -2.7916 H   0  0  0  0  0  0  0  0  0  0  0  0
 18 19  1  0  0  0  0
 19 31  1  0  0  0  0
 19 20  2  0  0  0  0
  8  9  1  0  0  0  0
  9 17  1  0  0  0  0
  9 10  2  0  0  0  0
  1  3  1  0  0  0  0
  1  7  1  0  0  0  0
  1  2  2  0  0  0  0
 32 33  1  0  0  0  0
 33 41  1  0  0  0  0
 33 34  2  0  0  0  0
 21 22  1  0  0  0  0
 22 23  1  0  0  0  0
 18 21  1  0  0  0  0
 17 23  1  0  0  0  0
 17 18  1  0  0  0  0
  8 11  1  0  0  0  0
 32 35  1  0  0  0  0
 41 42  1  0  0  0  0
  7  8  1  0  0  0  0
 31 32  1  0  0  0  0
 22 27  1  0  0  0  0
 22 28  1  0  0  0  0
 21 25  1  0  0  0  0
 21 26  1  0  0  0  0
 23 29  1  0  0  0  0
 23 30  1  0  0  0  0
 18 24  1  0  0  0  0
  3  4  1  0  0  0  0
  3  5  1  0  0  0  0
  3  6  1  0  0  0  0
 11 14  1  0  0  0  0
 11 15  1  0  0  0  0
 11 16  1  0  0  0  0
 35 38  1  0  0  0  0
 35 39  1  0  0  0  0
 35 40  1  0  0  0  0
 42 44  1  0  0  0  0
 42 45  1  0  0  0  0
 42 46  1  0  0  0  0
  8 13  1  0  0  0  0
 32 37  1  0  0  0  0
 31 36  1  0  0  0  0
 41 43  1  0  0  0  0
  7 12  1  0  0  0  0
M  END
$$$$

  -OEChem-05262214473D

 46 46  0     1  0  0  0  0  0999 V2000
   -0.6012   -3.2995    3.8205 C   0  0  0  0  0  0  0  0  0  0  0  0
   -0.6574   -4.4683    3.4568 O   0  0  0  0  0  0  0  0  0  0  0  0
   -0.4935   -2.9859    5.2760 C   0  0  0  0  0  0  0  0  0  0  0  0
   -1.4789   -2.8689    5.7550 H   0  0  0  0  0  0  0  0  0  0  0  0
    0.0123   -3.7847    5.8419 H   0  0  0  0  0  0  0  0  0  0  0  0
    0.0585   -2.0642    5.5199 H   0  0  0  0  0  0  0  0  0  0  0  0
   -0.6261   -2.1849    2.9917 N   0  0  0  0  0  0  0  0  0  0  0  0
   -0.7237   -2.2601    1.5650 C   0  0  2  0  0  0  0  0  0  0  0  0
    0.1695   -1.1513    1.0687 C   0  0  0  0  0  0  0  0  0  0  0  0
    0.3193   -0.1267    1.7365 O   0  0  0  0  0  0  0  0  0  0  0  0
   -2.1397   -2.0663    1.0750 C   0  0  0  0  0  0  0  0  0  0  0  0
   -0.5717   -1.2606    3.4238 H   0  0  0  0  0  0  0  0  0  0  0  0
   -0.3076   -3.2111    1.2363 H   0  0  0  0  0  0  0  0  0  0  0  0
   -2.5584   -1.1089    1.4061 H   0  0  0  0  0  0  0  0  0  0  0  0
   -2.1682   -2.0790   -0.0197 H   0  0  0  0  0  0  0  0  0  0  0  0
   -2.7965   -2.8601    1.4459 H   0  0  0  0  0  0  0  0  0  0  0  0
    0.7724   -1.3745   -0.1593 N   0  0  0  0  0  0  0  0  0  0  0  0
    0.5614   -2.5964   -0.9244 C   0  0  2  0  0  0  0  0  0  0  0  0
    1.6157   -3.5728   -0.4972 C   0  0  0  0  0  0  0  0  0  0  0  0
    1.5170   -4.1320    0.5887 O   0  0  0  0  0  0  0  0  0  0  0  0
    0.7345   -2.1771   -2.3796 C   0  0  0  0  0  0  0  0  0  0  0  0
    0.3244   -0.8671   -1.7112 C   0  0  0  0  0  0  0  0  0  0  0  0
    1.5408   -0.3981   -0.9273 C   0  0  0  0  0  0  0  0  0  0  0  0
   -0.4227   -3.0263   -0.7144 H   0  0  0  0  0  0  0  0  0  0  0  0
    0.0120   -2.7078   -3.0110 H   0  0  0  0  0  0  0  0  0  0  0  0
    1.7400   -2.3597   -2.7711 H   0  0  0  0  0  0  0  0  0  0  0  0
    0.0755   -0.1144   -2.4681 H   0  0  0  0  0  0  0  0  0  0  0  0
   -0.5410   -0.9920   -1.0542 H   0  0  0  0  0  0  0  0  0  0  0  0
    2.4811   -0.6014   -1.4471 H   0  0  0  0  0  0  0  0  0  0  0  0
    1.4806    0.6724   -0.7030 H   0  0  0  0  0  0  0  0  0  0  0  0
    2.6314   -3.5871   -1.6841 N   0  0  0  0  0  0  0  0  0  0  0  0
    3.7474   -4.5054   -1.6992 C   0  0  2  0  0  0  0  0  0  0  0  0
    3.1929   -5.9172   -1.8362 C   0  0  0  0  0  0  0  0  0  0  0  0
    2.0436   -6.2199   -1.5222 O   0  0  0  0  0  0  0  0  0  0  0  0
    4.5905   -4.3724   -0.4405 C   0  0  0  0  0  0  0  0  0  0  0  0
    2.5928   -2.8614   -2.3935 H   0  0  0  0  0  0  0  0  0  0  0  0
    4.3467   -4.2604   -2.5829 H   0  0  0  0  0  0  0  0  0  0  0  0
    4.0070   -4.6139    0.4554 H   0  0  0  0  0  0  0  0  0  0  0  0
    5.4515   -5.0485   -0.4664 H   0  0  0  0  0  0  0  0  0  0  0  0
    4.9639   -3.3488   -0.3280 H   0  0  0  0  0  0  0  0  0  0  0  0
    4.1456   -6.8084   -2.3098 N   0  0  0  0  0  0  0  0  0  0  0  0
    3.8678   -8.2110   -2.5142 C   0  0  0  0  0  0  0  0  0  0  0  0
    5.0679   -6.4662   -2.5627 H   0  0  0  0  0  0  0  0  0  0  0  0
    4.1364   -8.7743   -1.6084 H   0  0  0  0  0  0  0  0  0  0  0  0
    2.7966   -8.3455   -2.7253 H   0  0  0  0  0  0  0  0  0  0  0  0
    4.4585   -8.5815   -3.3649 H   0  0  0  0  0  0  0  0  0  0  0  0
 18 19  1  0  0  0  0
 19 31  1  0  0  0  0
 19 20  2  0  0  0  0
  8  9  1  0  0  0  0
  9 17  1  0  0  0  0
  9 10  2  0  0  0  0
  1  3  1  0  0  0  0
  1  7  1  0  0  0  0
  1  2  2  0  0  0  0
 32 33  1  0  0  0  0
 33 41  1  0  0  0  0
 33 34  2  0  0  0  0
 21 22  1  0  0  0  0
 22 23  1  0  0  0  0
 18 21  1  0  0  0  0
 17 23  1  0  0  0  0
 17 18  1  0  0  0  0
  8 11  1  0  0  0  0
 32 35  1  0  0  0  0
 41 42  1  0  0  0  0
  7  8  1  0  0  0  0
 31 32  1  0  0  0  0
 22 27  1  0  0  0  0
 22 28  1  0  0  0  0
 21 25  1  0  0  0  0
 21 26  1  0  0  0  0
 23 29  1  0  0  0  0
 23 30  1  0  0  0  0
 18 24  1  0  0  0  0
  3  4  1  0  0  0  0
  3  5  1  0  0  0  0
  3  6  1  0  0  0  0
 11 14  1  0  0  0  0
 11 15  1  0  0  0  0
 11 16  1  0  0  0  0
 35 38  1  0  0  0  0
 35 39  1  0  0  0  0
 35 40  1  0  0  0  0
 42 44  1  0  0  0  0
 42 45  1  0  0  0  0
 42 46  1  0  0  0  0
  8 13  1  0  0  0  0
 32 37  1  0  0  0  0
 31 36  1  0  0  0  0
 41 43  1  0  0  0  0
  7 12  1  0  0  0  0
M  END
$$$$

  -OEChem-05262214473D

 46 46  0     1  0  0  0  0  0999 V2000
   -0.6012   -3.2995    3.8205 C   0  0  0  0  0  0  0  0  0  0  0  0
   -0.6574   -4.4683    3.4568 O   0  0  0  0  0  0  0  0  0  0  0  0
   -0.4935   -2.9859    5.2760 C   0  0  0  0  0  0  0  0  0  0  0  0
   -1.4789   -2.8689    5.7550 H   0  0  0  0  0  0  0  0  0  0  0  0
    0.0123   -3.7847    5.8419 H   0  0  0  0  0  0  0  0  0  0  0  0
    0.0585   -2.0642    5.5199 H   0  0  0  0  0  0  0  0  0  0  0  0
   -0.6261   -2.1849    2.9917 N   0  0  0  0  0  0  0  0  0  0  0  0
   -0.7237   -2.2601    1.5650 C   0  0  2  0  0  0  0  0  0  0  0  0
    0.1695   -1.1513    1.0687 C   0  0  0  0  0  0  0  0  0  0  0  0
    0.3193   -0.1267    1.7365 O   0  0  0  0  0  0  0  0  0  0  0  0
   -2.1397   -2.0663    1.0750 C   0  0  0  0  0  0  0  0  0  0  0  0
   -0.5717   -1.2606    3.4238 H   0  0  0  0  0  0  0  0  0  0  0  0
   -0.3076   -3.2111    1.2363 H   0  0  0  0  0  0  0  0  0  0  0  0
   -2.5584   -1.1089    1.4061 H   0  0  0  0  0  0  0  0  0  0  0  0
   -2.1682   -2.0790   -0.0197 H   0  0  0  0  0  0  0  0  0  0  0  0
   -2.7965   -2.8601    1.4459 H   0  0  0  0  0  0  0  0  0  0  0  0
    0.7724   -1.3745   -0.1593 N   0  0  0  0  0  0  0  0  0  0  0  0
    0.5614   -2.5964   -0.9244 C   0  0  2  0  0  0  0  0  0  0  0  0
    1.6157   -3.5728   -0.4972 C   0  0  0  0  0  0  0  0  0  0  0  0
    1.3930   -4.3313    0.4392 O   0  0  0  0  0  0  0  0  0  0  0  0
    0.7345   -2.1771   -2.3796 C   0  0  0  0  0  0  0  0  0  0  0  0
    0.3244   -0.8671   -1.7112 C   0  0  0  0  0  0  0  0  0  0  0  0
    1.5408   -0.3981   -0.9273 C   0  0  0  0  0  0  0  0  0  0  0  0
   -0.4227   -3.0263   -0.7144 H   0  0  0  0  0  0  0  0  0  0  0  0
    0.0120   -2.7078   -3.0110 H   0  0  0  0  0  0  0  0  0  0  0  0
    1.7400   -2.3597   -2.7711 H   0  0  0  0  0  0  0  0  0  0  0  0
    0.0755   -0.1144   -2.4681 H   0  0  0  0  0  0  0  0  0  0  0  0
   -0.5410   -0.9920   -1.0542 H   0  0  0  0  0  0  0  0  0  0  0  0
    2.4811   -0.6014   -1.4471 H   0  0  0  0  0  0  0  0  0  0  0  0
    1.4806    0.6724   -0.7030 H   0  0  0  0  0  0  0  0  0  0  0  0
    2.8072   -3.3042   -1.4713 N   0  0  0  0  0  0  0  0  0  0  0  0
    3.9884   -4.1368   -1.4515 C   0  0  2  0  0  0  0  0  0  0  0  0
    3.5918   -5.5274   -1.9295 C   0  0  0  0  0  0  0  0  0  0  0  0
    2.4386   -5.9501   -1.8801 O   0  0  0  0  0  0  0  0  0  0  0  0
    4.6016   -4.1944   -0.0610 C   0  0  0  0  0  0  0  0  0  0  0  0
    2.8192   -2.4614   -2.0378 H   0  0  0  0  0  0  0  0  0  0  0  0
    4.6984   -3.6953   -2.1594 H   0  0  0  0  0  0  0  0  0  0  0  0
    3.9048   -4.6339    0.6621 H   0  0  0  0  0  0  0  0  0  0  0  0
    5.5123   -4.8023   -0.0538 H   0  0  0  0  0  0  0  0  0  0  0  0
    4.8589   -3.1904    0.2934 H   0  0  0  0  0  0  0  0  0  0  0  0
    4.6843   -6.2565   -2.3778 N   0  0  0  0  0  0  0  0  0  0  0  0
    4.5697   -7.6091   -2.8709 C   0  0  0  0  0  0  0  0  0  0  0  0
    5.6011   -5.8197   -2.4008 H   0  0  0  0  0  0  0  0  0  0  0  0
    4.7375   -8.3164   -2.0453 H   0  0  0  0  0  0  0  0  0  0  0  0
    3.5631   -7.7635   -3.2869 H   0  0  0  0  0  0  0  0  0  0  0  0
    5.3209   -7.7778   -3.6565 H   0  0  0  0  0  0  0  0  0  0  0  0
 18 19  1  0  0  0  0
 19 31  1  0  0  0  0
 19 20  2  0  0  0  0
  8  9  1  0  0  0  0
  9 17  1  0  0  0  0
  9 10  2  0  0  0  0
  1  3  1  0  0  0  0
  1  7  1  0  0  0  0
  1  2  2  0  0  0  0
 32 33  1  0  0  0  0
 33 41  1  0  0  0  0
 33 34  2  0  0  0  0
 21 22  1  0  0  0  0
 22 23  1  0  0  0  0
 18 21  1  0  0  0  0
 17 23  1  0  0  0  0
 17 18  1  0  0  0  0
  8 11  1  0  0  0  0
 32 35  1  0  0  0  0
 41 42  1  0  0  0  0
  7  8  1  0  0  0  0
 31 32  1  0  0  0  0
 22 27  1  0  0  0  0
 22 28  1  0  0  0  0
 21 25  1  0  0  0  0
 21 26  1  0  0  0  0
 23 29  1  0  0  0  0
 23 30  1  0  0  0  0
 18 24  1  0  0  0  0
  3  4  1  0  0  0  0
  3  5  1  0  0  0  0
  3  6  1  0  0  0  0
 11 14  1  0  0  0  0
 11 15  1  0  0  0  0
 11 16  1  0  0  0  0
 35 38  1  0  0  0  0
 35 39  1  0  0  0  0
 35 40  1  0  0  0  0
 42 44  1  0  0  0  0
 42 45  1  0  0  0  0
 42 46  1  0  0  0  0
  8 13  1  0  0  0  0
 32 37  1  0  0  0  0
 31 36  1  0  0  0  0
 41 43  1  0  0  0  0
  7 12  1  0  0  0  0
M  END
$$$$

  -OEChem-05262214473D

 46 46  0     1  0  0  0  0  0999 V2000
   -0.6012   -3.2995    3.8205 C   0  0  0  0  0  0  0  0  0  0  0  0
   -0.6574   -4.4683    3.4568 O   0  0  0  0  0  0  0  0  0  0  0  0
   -0.4935   -2.9859    5.2760 C   0  0  0  0  0  0  0  0  0  0  0  0
   -1.4789   -2.8689    5.7550 H   0  0  0  0  0  0  0  0  0  0  0  0
    0.0123   -3.7847    5.8419 H   0  0  0  0  0  0  0  0  0  0  0  0
    0.0585   -2.0642    5.5199 H   0  0  0  0  0  0  0  0  0  0  0  0
   -0.6261   -2.1849    2.9917 N   0  0  0  0  0  0  0  0  0  0  0  0
   -0.7237   -2.2601    1.5650 C   0  0  2  0  0  0  0  0  0  0  0  0
    0.1695   -1.1513    1.0687 C   0  0  0  0  0  0  0  0  0  0  0  0
    0.3193   -0.1267    1.7365 O   0  0  0  0  0  0  0  0  0  0  0  0
   -2.1397   -2.0663    1.0750 C   0  0  0  0  0  0  0  0  0  0  0  0
   -0.5717   -1.2606    3.4238 H   0  0  0  0  0  0  0  0  0  0  0  0
   -0.3076   -3.2111    1.2363 H   0  0  0  0  0  0  0  0  0  0  0  0
   -2.5584   -1.1089    1.4061 H   0  0  0  0  0  0  0  0  0  0  0  0
   -2.1682   -2.0790   -0.0197 H   0  0  0  0  0  0  0  0  0  0  0  0
   -2.7965   -2.8601    1.4459 H   0  0  0  0  0  0  0  0  0  0  0  0
    0.7724   -1.3745   -0.1593 N   0  0  0  0  0  0  0  0  0  0  0  0
    0.5614   -2.5964   -0.9244 C   0  0  2  0  0  0  0  0  0  0  0  0
    1.6157   -3.5728   -0.4972 C   0  0  0  0  0  0  0  0  0  0  0  0
    1.3131   -4.5058    0.2375 O   0  0  0  0  0  0  0  0  0  0  0  0
    0.7345   -2.1771   -2.3796 C   0  0  0  0  0  0  0  0  0  0  0  0
    0.3244   -0.8671   -1.7112 C   0  0  0  0  0  0  0  0  0  0  0  0
    1.5408   -0.3981   -0.9273 C   0  0  0  0  0  0  0  0  0  0  0  0
   -0.4227   -3.0263   -0.7144 H   0  0  0  0  0  0  0  0  0  0  0  0
    0.0120   -2.7078   -3.0110 H   0  0  0  0  0  0  0  0  0  0  0  0
    1.7400   -2.3597   -2.7711 H   0  0  0  0  0  0  0  0  0  0  0  0
    0.0755   -0.1144   -2.4681 H   0  0  0  0  0  0  0  0  0  0  0  0
   -0.5410   -0.9920   -1.0542 H   0  0  0  0  0  0  0  0  0  0  0  0
    2.4811   -0.6014   -1.4471 H   0  0  0  0  0  0  0  0  0  0  0  0
    1.4806    0.6724   -0.7030 H   0  0  0  0  0  0  0  0  0  0  0  0
    2.9202   -3.0568   -1.1846 N   0  0  0  0  0  0  0  0  0  0  0  0
    4.1523   -3.8081   -1.1045 C   0  0  2  0  0  0  0  0  0  0  0  0
    3.9641   -5.1044   -1.8815 C   0  0  0  0  0  0  0  0  0  0  0  0
    2.8605   -5.5951   -2.1102 O   0  0  0  0  0  0  0  0  0  0  0  0
    4.5351   -4.0908    0.3399 C   0  0  0  0  0  0  0  0  0  0  0  0
    2.9483   -2.1231   -1.5832 H   0  0  0  0  0  0  0  0  0  0  0  0
    4.9251   -3.2007   -1.5881 H   0  0  0  0  0  0  0  0  0  0  0  0
    3.7727   -4.6984    0.8409 H   0  0  0  0  0  0  0  0  0  0  0  0
    5.4833   -4.6352    0.3998 H   0  0  0  0  0  0  0  0  0  0  0  0
    4.6410   -3.1583    0.9047 H   0  0  0  0  0  0  0  0  0  0  0  0
    5.1754   -5.6712   -2.2522 N   0  0  0  0  0  0  0  0  0  0  0  0
    5.2634   -6.9111   -2.9877 C   0  0  0  0  0  0  0  0  0  0  0  0
    6.0411   -5.1854   -2.0370 H   0  0  0  0  0  0  0  0  0  0  0  0
    5.3580   -7.7503   -2.2827 H   0  0  0  0  0  0  0  0  0  0  0  0
    4.3553   -7.0427   -3.5943 H   0  0  0  0  0  0  0  0  0  0  0  0
    6.1439   -6.8849   -3.6465 H   0  0  0  0  0  0  0  0  0  0  0  0
 18 19  1  0  0  0  0
 19 31  1  0  0  0  0
 19 20  2  0  0  0  0
  8  9  1  0  0  0  0
  9 17  1  0  0  0  0
  9 10  2  0  0  0  0
  1  3  1  0  0  0  0
  1  7  1  0  0  0  0
  1  2  2  0  0  0  0
 32 33  1  0  0  0  0
 33 41  1  0  0  0  0
 33 34  2  0  0  0  0
 21 22  1  0  0  0  0
 22 23  1  0  0  0  0
 18 21  1  0  0  0  0
 17 23  1  0  0  0  0
 17 18  1  0  0  0  0
  8 11  1  0  0  0  0
 32 35  1  0  0  0  0
 41 42  1  0  0  0  0
  7  8  1  0  0  0  0
 31 32  1  0  0  0  0
 22 27  1  0  0  0  0
 22 28  1  0  0  0  0
 21 25  1  0  0  0  0
 21 26  1  0  0  0  0
 23 29  1  0  0  0  0
 23 30  1  0  0  0  0
 18 24  1  0  0  0  0
  3  4  1  0  0  0  0
  3  5  1  0  0  0  0
  3  6  1  0  0  0  0
 11 14  1  0  0  0  0
 11 15  1  0  0  0  0
 11 16  1  0  0  0  0
 35 38  1  0  0  0  0
 35 39  1  0  0  0  0
 35 40  1  0  0  0  0
 42 44  1  0  0  0  0
 42 45  1  0  0  0  0
 42 46  1  0  0  0  0
  8 13  1  0  0  0  0
 32 37  1  0  0  0  0
 31 36  1  0  0  0  0
 41 43  1  0  0  0  0
  7 12  1  0  0  0  0
M  END
$$$$

  -OEChem-05262214473D

 46 46  0     1  0  0  0  0  0999 V2000
   -0.6012   -3.2995    3.8205 C   0  0  0  0  0  0  0  0  0  0  0  0
   -0.6574   -4.4683    3.4568 O   0  0  0  0  0  0  0  0  0  0  0  0
   -0.4935   -2.9859    5.2760 C   0  0  0  0  0  0  0  0  0  0  0  0
   -1.4789   -2.8689    5.7550 H   0  0  0  0  0  0  0  0  0  0  0  0
    0.0123   -3.7847    5.8419 H   0  0  0  0  0  0  0  0  0  0  0  0
    0.0585   -2.0642    5.5199 H   0  0  0  0  0  0  0  0  0  0  0  0
   -0.6261   -2.1849    2.9917 N   0  0  0  0  0  0  0  0  0  0  0  0
   -0.7237   -2.2601    1.5650 C   0  0  2  0  0  0  0  0  0  0  0  0
    0.1695   -1.1513    1.0687 C   0  0  0  0  0  0  0  0  0  0  0  0
    0.3193   -0.1267    1.7365 O   0  0  0  0  0  0  0  0  0  0  0  0
   -2.1397   -2.0663    1.0750 C   0  0  0  0  0  0  0  0  0  0  0  0
   -0.5717   -1.2606    3.4238 H   0  0  0  0  0  0  0  0  0  0  0  0
   -0.3076   -3.2111    1.2363 H   0  0  0  0  0  0  0  0  0  0  0  0
   -2.5584   -1.1089    1.4061 H   0  0  0  0  0  0  0  0  0  0  0  0
   -2.1682   -2.0790   -0.0197 H   0  0  0  0  0  0  0  0  0  0  0  0
   -2.7965   -2.8601    1.4459 H   0  0  0  0  0  0  0  0  0  0  0  0
    0.7724   -1.3745   -0.1593 N   0  0  0  0  0  0  0  0  0  0  0  0
    0.5614   -2.5964   -0.9244 C   0  0  2  0  0  0  0  0  0  0  0  0
    1.6157   -3.5728   -0.4972 C   0  0  0  0  0  0  0  0  0  0  0  0
    1.2829   -4.6434   -0.0025 O   0  0  0  0  0  0  0  0  0  0  0  0
    0.7345   -2.1771   -2.3796 C   0  0  0  0  0  0  0  0  0  0  0  0
    0.3244   -0.8671   -1.7112 C   0  0  0  0  0  0  0  0  0  0  0  0
    1.5408   -0.3981   -0.9273 C   0  0  0  0  0  0  0  0  0  0  0  0
   -0.4227   -3.0263   -0.7144 H   0  0  0  0  0  0  0  0  0  0  0  0
    0.0120   -2.7078   -3.0110 H   0  0  0  0  0  0  0  0  0  0  0  0
    1.7400   -2.3597   -2.7711 H   0  0  0  0  0  0  0  0  0  0  0  0
    0.0755   -0.1144   -2.4681 H   0  0  0  0  0  0  0  0  0  0  0  0
   -0.5410   -0.9920   -1.0542 H   0  0  0  0  0  0  0  0  0  0  0  0
    2.4811   -0.6014   -1.4471 H   0  0  0  0  0  0  0  0  0  0  0  0
    1.4806    0.6724   -0.7030 H   0  0  0  0  0  0  0  0  0  0  0  0
    2.9628   -2.8616   -0.8436 N   0  0  0  0  0  0  0  0  0  0  0  0
    4.2279   -3.5416   -0.6819 C   0  0  2  0  0  0  0  0  0  0  0  0
    4.2844   -4.6771   -1.6953 C   0  0  0  0  0  0  0  0  0  0  0  0
    3.2806   -5.1793   -2.1967 O   0  0  0  0  0  0  0  0  0  0  0  0
    4.3957   -4.0686    0.7347 C   0  0  0  0  0  0  0  0  0  0  0  0
    2.9715   -1.8695   -1.0607 H   0  0  0  0  0  0  0  0  0  0  0  0
    5.0113   -2.8101   -0.9081 H   0  0  0  0  0  0  0  0  0  0  0  0
    3.6197   -4.8029    0.9795 H   0  0  0  0  0  0  0  0  0  0  0  0
    5.3666   -4.5584    0.8634 H   0  0  0  0  0  0  0  0  0  0  0  0
    4.3251   -3.2546    1.4643 H   0  0  0  0  0  0  0  0  0  0  0  0
    5.5855   -5.0925   -1.9416 N   0  0  0  0  0  0  0  0  0  0  0  0
    5.9017   -6.1645   -2.8564 C   0  0  0  0  0  0  0  0  0  0  0  0
    6.3581   -4.6065   -1.4959 H   0  0  0  0  0  0  0  0  0  0  0  0
    5.9556   -7.1144   -2.3044 H   0  0  0  0  0  0  0  0  0  0  0  0
    5.1191   -6.2320   -3.6265 H   0  0  0  0  0  0  0  0  0  0  0  0
    6.8712   -5.9635   -3.3356 H   0  0  0  0  0  0  0  0  0  0  0  0
 18 19  1  0  0  0  0
 19 31  1  0  0  0  0
 19 20  2  0  0  0  0
  8  9  1  0  0  0  0
  9 17  1  0  0  0  0
  9 10  2  0  0  0  0
  1  3  1  0  0  0  0
  1  7  1  0  0  0  0
  1  2  2  0  0  0  0
 32 33  1  0  0  0  0
 33 41  1  0  0  0  0
 33 34  2  0  0  0  0
 21 22  1  0  0  0  0
 22 23  1  0  0  0  0
 18 21  1  0  0  0  0
 17 23  1  0  0  0  0
 17 18  1  0  0  0  0
  8 11  1  0  0  0  0
 32 35  1  0  0  0  0
 41 42  1  0  0  0  0
  7  8  1  0  0  0  0
 31 32  1  0  0  0  0
 22 27  1  0  0  0  0
 22 28  1  0  0  0  0
 21 25  1  0  0  0  0
 21 26  1  0  0  0  0
 23 29  1  0  0  0  0
 23 30  1  0  0  0  0
 18 24  1  0  0  0  0
  3  4  1  0  0  0  0
  3  5  1  0  0  0  0
  3  6  1  0  0  0  0
 11 14  1  0  0  0  0
 11 15  1  0  0  0  0
 11 16  1  0  0  0  0
 35 38  1  0  0  0  0
 35 39  1  0  0  0  0
 35 40  1  0  0  0  0
 42 44  1  0  0  0  0
 42 45  1  0  0  0  0
 42 46  1  0  0  0  0
  8 13  1  0  0  0  0
 32 37  1  0  0  0  0
 31 36  1  0  0  0  0
 41 43  1  0  0  0  0
  7 12  1  0  0  0  0
M  END
$$$$

  -OEChem-05262214473D

 46 46  0     1  0  0  0  0  0999 V2000
   -0.6012   -3.2995    3.8205 C   0  0  0  0  0  0  0  0  0  0  0  0
   -0.6574   -4.4683    3.4568 O   0  0  0  0  0  0  0  0  0  0  0  0
   -0.4935   -2.9859    5.2760 C   0  0  0  0  0  0  0  0  0  0  0  0
   -1.4789   -2.8689    5.7550 H   0  0  0  0  0  0  0  0  0  0  0  0
    0.0123   -3.7847    5.8419 H   0  0  0  0  0  0  0  0  0  0  0  0
    0.0585   -2.0642    5.5199 H   0  0  0  0  0  0  0  0  0  0  0  0
   -0.6261   -2.1849    2.9917 N   0  0  0  0  0  0  0  0  0  0  0  0
   -0.7237   -2.2601    1.5650 C   0  0  2  0  0  0  0  0  0  0  0  0
    0.1695   -1.1513    1.0687 C   0  0  0  0  0  0  0  0  0  0  0  0
    0.3193   -0.1267    1.7365 O   0  0  0  0  0  0  0  0  0  0  0  0
   -2.1397   -2.0663    1.0750 C   0  0  0  0  0  0  0  0  0  0  0  0
   -0.5717   -1.2606    3.4238 H   0  0  0  0  0  0  0  0  0  0  0  0
   -0.3076   -3.2111    1.2363 H   0  0  0  0  0  0  0  0  0  0  0  0
   -2.5584   -1.1089    1.4061 H   0  0  0  0  0  0  0  0  0  0  0  0
   -2.1682   -2.0790   -0.0197 H   0  0  0  0  0  0  0  0  0  0  0  0
   -2.7965   -2.8601    1.4459 H   0  0  0  0  0  0  0  0  0  0  0  0
    0.7724   -1.3745   -0.1593 N   0  0  0  0  0  0  0  0  0  0  0  0
    0.5614   -2.5964   -0.9244 C   0  0  2  0  0  0  0  0  0  0  0  0
    1.6157   -3.5728   -0.4972 C   0  0  0  0  0  0  0  0  0  0  0  0
    1.3042   -4.7350   -0.2644 O   0  0  0  0  0  0  0  0  0  0  0  0
    0.7345   -2.1771   -2.3796 C   0  0  0  0  0  0  0  0  0  0  0  0
    0.3244   -0.8671   -1.7112 C   0  0  0  0  0  0  0  0  0  0  0  0
    1.5408   -0.3981   -0.9273 C   0  0  0  0  0  0  0  0  0  0  0  0
   -0.4227   -3.0263   -0.7144 H   0  0  0  0  0  0  0  0  0  0  0  0
    0.0120   -2.7078   -3.0110 H   0  0  0  0  0  0  0  0  0  0  0  0
    1.7400   -2.3597   -2.7711 H   0  0  0  0  0  0  0  0  0  0  0  0
    0.0755   -0.1144   -2.4681 H   0  0  0  0  0  0  0  0  0  0  0  0
   -0.5410   -0.9920   -1.0542 H   0  0  0  0  0  0  0  0  0  0  0  0
    2.4811   -0.6014   -1.4471 H   0  0  0  0  0  0  0  0  0  0  0  0
    1.4806    0.6724   -0.7030 H   0  0  0  0  0  0  0  0  0  0  0  0
    2.9321   -2.7320   -0.4715 N   0  0  0  0  0  0  0  0  0  0  0  0
    4.2100   -3.3556   -0.2124 C   0  0  2  0  0  0  0  0  0  0  0  0
    4.5309   -4.2746   -1.3837 C   0  0  0  0  0  0  0  0  0  0  0  0
    3.6704   -4.7309   -2.1337 O   0  0  0  0  0  0  0  0  0  0  0  0
    4.1929   -4.1293    1.0967 C   0  0  0  0  0  0  0  0  0  0  0  0
    2.8871   -1.7180   -0.5060 H   0  0  0  0  0  0  0  0  0  0  0  0
    4.9511   -2.5503   -0.1656 H   0  0  0  0  0  0  0  0  0  0  0  0
    3.4562   -4.9404    1.0687 H   0  0  0  0  0  0  0  0  0  0  0  0
    5.1700   -4.5773    1.3056 H   0  0  0  0  0  0  0  0  0  0  0  0
    3.9327   -3.4728    1.9340 H   0  0  0  0  0  0  0  0  0  0  0  0
    5.8865   -4.5599   -1.4670 N   0  0  0  0  0  0  0  0  0  0  0  0
    6.4410   -5.4201   -2.4861 C   0  0  0  0  0  0  0  0  0  0  0  0
    6.5303   -4.1224   -0.8144 H   0  0  0  0  0  0  0  0  0  0  0  0
    6.4896   -6.4523   -2.1088 H   0  0  0  0  0  0  0  0  0  0  0  0
    5.8025   -5.3868   -3.3812 H   0  0  0  0  0  0  0  0  0  0  0  0
    7.4534   -5.0764   -2.7449 H   0  0  0  0  0  0  0  0  0  0  0  0
 18 19  1  0  0  0  0
 19 31  1  0  0  0  0
 19 20  2  0  0  0  0
  8  9  1  0  0  0  0
  9 17  1  0  0  0  0
  9 10  2  0  0  0  0
  1  3  1  0  0  0  0
  1  7  1  0  0  0  0
  1  2  2  0  0  0  0
 32 33  1  0  0  0  0
 33 41  1  0  0  0  0
 33 34  2  0  0  0  0
 21 22  1  0  0  0  0
 22 23  1  0  0  0  0
 18 21  1  0  0  0  0
 17 23  1  0  0  0  0
 17 18  1  0  0  0  0
  8 11  1  0  0  0  0
 32 35  1  0  0  0  0
 41 42  1  0  0  0  0
  7  8  1  0  0  0  0
 31 32  1  0  0  0  0
 22 27  1  0  0  0  0
 22 28  1  0  0  0  0
 21 25  1  0  0  0  0
 21 26  1  0  0  0  0
 23 29  1  0  0  0  0
 23 30  1  0  0  0  0
 18 24  1  0  0  0  0
  3  4  1  0  0  0  0
  3  5  1  0  0  0  0
  3  6  1  0  0  0  0
 11 14  1  0  0  0  0
 11 15  1  0  0  0  0
 11 16  1  0  0  0  0
 35 38  1  0  0  0  0
 35 39  1  0  0  0  0
 35 40  1  0  0  0  0
 42 44  1  0  0  0  0
 42 45  1  0  0  0  0
 42 46  1  0  0  0  0
  8 13  1  0  0  0  0
 32 37  1  0  0  0  0
 31 36  1  0  0  0  0
 41 43  1  0  0  0  0
  7 12  1  0  0  0  0
M  END
$$$$

  -OEChem-05262214473D

 46 46  0     1  0  0  0  0  0999 V2000
   -0.6012   -3.2995    3.8205 C   0  0  0  0  0  0  0  0  0  0  0  0
   -0.6574   -4.4683    3.4568 O   0  0  0  0  0  0  0  0  0  0  0  0
   -0.4935   -2.9859    5.2760 C   0  0  0  0  0  0  0  0  0  0  0  0
   -1.4789   -2.8689    5.7550 H   0  0  0  0  0  0  0  0  0  0  0  0
    0.0123   -3.7847    5.8419 H   0  0  0  0  0  0  0  0  0  0  0  0
    0.0585   -2.0642    5.5199 H   0  0  0  0  0  0  0  0  0  0  0  0
   -0.6261   -2.1849    2.9917 N   0  0  0  0  0  0  0  0  0  0  0  0
   -0.7237   -2.2601    1.5650 C   0  0  2  0  0  0  0  0  0  0  0  0
    0.1695   -1.1513    1.0687 C   0  0  0  0  0  0  0  0  0  0  0  0
    0.3193   -0.1267    1.7365 O   0  0  0  0  0  0  0  0  0  0  0  0
   -2.1397   -2.0663    1.0750 C   0  0  0  0  0  0  0  0  0  0  0  0
   -0.5717   -1.2606    3.4238 H   0  0  0  0  0  0  0  0  0  0  0  0
   -0.3076   -3.2111    1.2363 H   0  0  0  0  0  0  0  0  0  0  0  0
   -2.5584   -1.1089    1.4061 H   0  0  0  0  0  0  0  0  0  0  0  0
   -2.1682   -2.0790   -0.0197 H   0  0  0  0  0  0  0  0  0  0  0  0
   -2.7965   -2.8601    1.4459 H   0  0  0  0  0  0  0  0  0  0  0  0
    0.7724   -1.3745   -0.1593 N   0  0  0  0  0  0  0  0  0  0  0  0
    0.5614   -2.5964   -0.9244 C   0  0  2  0  0  0  0  0  0  0  0  0
    1.6157   -3.5728   -0.4972 C   0  0  0  0  0  0  0  0  0  0  0  0
    1.3758   -4.7741   -0.5305 O   0  0  0  0  0  0  0  0  0  0  0  0
    0.7345   -2.1771   -2.3796 C   0  0  0  0  0  0  0  0  0  0  0  0
    0.3244   -0.8671   -1.7112 C   0  0  0  0  0  0  0  0  0  0  0  0
    1.5408   -0.3981   -0.9273 C   0  0  0  0  0  0  0  0  0  0  0  0
   -0.4227   -3.0263   -0.7144 H   0  0  0  0  0  0  0  0  0  0  0  0
    0.0120   -2.7078   -3.0110 H   0  0  0  0  0  0  0  0  0  0  0  0
    1.7400   -2.3597   -2.7711 H   0  0  0  0  0  0  0  0  0  0  0  0
    0.0755   -0.1144   -2.4681 H   0  0  0  0  0  0  0  0  0  0  0  0
   -0.5410   -0.9920   -1.0542 H   0  0  0  0  0  0  0  0  0  0  0  0
    2.4811   -0.6014   -1.4471 H   0  0  0  0  0  0  0  0  0  0  0  0
    1.4806    0.6724   -0.7030 H   0  0  0  0  0  0  0  0  0  0  0  0
    2.8301   -2.6768   -0.0937 N   0  0  0  0  0  0  0  0  0  0  0  0
    4.0998   -3.2626    0.2719 C   0  0  2  0  0  0  0  0  0  0  0  0
    4.6868   -3.9244   -0.9679 C   0  0  0  0  0  0  0  0  0  0  0  0
    4.0031   -4.2805   -1.9255 O   0  0  0  0  0  0  0  0  0  0  0  0
    3.9404   -4.2687    1.4011 C   0  0  0  0  0  0  0  0  0  0  0  0
    2.7008   -1.6788    0.0432 H   0  0  0  0  0  0  0  0  0  0  0  0
    4.7487   -2.4389    0.5887 H   0  0  0  0  0  0  0  0  0  0  0  0
    3.2934   -5.1015    1.1022 H   0  0  0  0  0  0  0  0  0  0  0  0
    4.9069   -4.6905    1.6961 H   0  0  0  0  0  0  0  0  0  0  0  0
    3.4906   -3.7979    2.2819 H   0  0  0  0  0  0  0  0  0  0  0  0
    6.0581   -4.1096   -0.8610 N   0  0  0  0  0  0  0  0  0  0  0  0
    6.8447   -4.7288   -1.9021 C   0  0  0  0  0  0  0  0  0  0  0  0
    6.5460   -3.7662   -0.0390 H   0  0  0  0  0  0  0  0  0  0  0  0
    6.9236   -5.8089   -1.7094 H   0  0  0  0  0  0  0  0  0  0  0  0
    6.3589   -4.5646   -2.8752 H   0  0  0  0  0  0  0  0  0  0  0  0
    7.8508   -4.2842   -1.9148 H   0  0  0  0  0  0  0  0  0  0  0  0
 18 19  1  0  0  0  0
 19 31  1  0  0  0  0
 19 20  2  0  0  0  0
  8  9  1  0  0  0  0
  9 17  1  0  0  0  0
  9 10  2  0  0  0  0
  1  3  1  0  0  0  0
  1  7  1  0  0  0  0
  1  2  2  0  0  0  0
 32 33  1  0  0  0  0
 33 41  1  0  0  0  0
 33 34  2  0  0  0  0
 21 22  1  0  0  0  0
 22 23  1  0  0  0  0
 18 21  1  0  0  0  0
 17 23  1  0  0  0  0
 17 18  1  0  0  0  0
  8 11  1  0  0  0  0
 32 35  1  0  0  0  0
 41 42  1  0  0  0  0
  7  8  1  0  0  0  0
 31 32  1  0  0  0  0
 22 27  1  0  0  0  0
 22 28  1  0  0  0  0
 21 25  1  0  0  0  0
 21 26  1  0  0  0  0
 23 29  1  0  0  0  0
 23 30  1  0  0  0  0
 18 24  1  0  0  0  0
  3  4  1  0  0  0  0
  3  5  1  0  0  0  0
  3  6  1  0  0  0  0
 11 14  1  0  0  0  0
 11 15  1  0  0  0  0
 11 16  1  0  0  0  0
 35 38  1  0  0  0  0
 35 39  1  0  0  0  0
 35 40  1  0  0  0  0
 42 44  1  0  0  0  0
 42 45  1  0  0  0  0
 42 46  1  0  0  0  0
  8 13  1  0  0  0  0
 32 37  1  0  0  0  0
 31 36  1  0  0  0  0
 41 43  1  0  0  0  0
  7 12  1  0  0  0  0
M  END
$$$$

  -OEChem-05262214473D

 46 46  0     1  0  0  0  0  0999 V2000
   -0.6012   -3.2995    3.8205 C   0  0  0  0  0  0  0  0  0  0  0  0
   -0.6574   -4.4683    3.4568 O   0  0  0  0  0  0  0  0  0  0  0  0
   -0.4935   -2.9859    5.2760 C   0  0  0  0  0  0  0  0  0  0  0  0
   -1.4789   -2.8689    5.7550 H   0  0  0  0  0  0  0  0  0  0  0  0
    0.0123   -3.7847    5.8419 H   0  0  0  0  0  0  0  0  0  0  0  0
    0.0585   -2.0642    5.5199 H   0  0  0  0  0  0  0  0  0  0  0  0
   -0.6261   -2.1849    2.9917 N   0  0  0  0  0  0  0  0  0  0  0  0
   -0.7237   -2.2601    1.5650 C   0  0  2  0  0  0  0  0  0  0  0  0
    0.1695   -1.1513    1.0687 C   0  0  0  0  0  0  0  0  0  0  0  0
    0.3193   -0.1267    1.7365 O   0  0  0  0  0  0  0  0  0  0  0  0
   -2.1397   -2.0663    1.0750 C   0  0  0  0  0  0  0  0  0  0  0  0
   -0.5717   -1.2606    3.4238 H   0  0  0  0  0  0  0  0  0  0  0  0
   -0.3076   -3.2111    1.2363 H   0  0  0  0  0  0  0  0  0  0  0  0
   -2.5584   -1.1089    1.4061 H   0  0  0  0  0  0  0  0  0  0  0  0
   -2.1682   -2.0790   -0.0197 H   0  0  0  0  0  0  0  0  0  0  0  0
   -2.7965   -2.8601    1.4459 H   0  0  0  0  0  0  0  0  0  0  0  0
    0.7724   -1.3745   -0.1593 N   0  0  0  0  0  0  0  0  0  0  0  0
    0.5614   -2.5964   -0.9244 C   0  0  2  0  0  0  0  0  0  0  0  0
    1.6157   -3.5728   -0.4972 C   0  0  0  0  0  0  0  0  0  0  0  0
    1.4926   -4.7582   -0.7826 O   0  0  0  0  0  0  0  0  0  0  0  0
    0.7345   -2.1771   -2.3796 C   0  0  0  0  0  0  0  0  0  0  0  0
    0.3244   -0.8671   -1.7112 C   0  0  0  0  0  0  0  0  0  0  0  0
    1.5408   -0.3981   -0.9273 C   0  0  0  0  0  0  0  0  0  0  0  0
   -0.4227   -3.0263   -0.7144 H   0  0  0  0  0  0  0  0  0  0  0  0
    0.0120   -2.7078   -3.0110 H   0  0  0  0  0  0  0  0  0  0  0  0
    1.7400   -2.3597   -2.7711 H   0  0  0  0  0  0  0  0  0  0  0  0
    0.0755   -0.1144   -2.4681 H   0  0  0  0  0  0  0  0  0  0  0  0
   -0.5410   -0.9920   -1.0542 H   0  0  0  0  0  0  0  0  0  0  0  0
    2.4811   -0.6014   -1.4471 H   0  0  0  0  0  0  0  0  0  0  0  0
    1.4806    0.6724   -0.7030 H   0  0  0  0  0  0  0  0  0  0  0  0
    2.6639   -2.6998    0.2641 N   0  0  0  0  0  0  0  0  0  0  0  0
    3.9049   -3.2692    0.7380 C   0  0  2  0  0  0  0  0  0  0  0  0
    4.7414   -3.6503   -0.4763 C   0  0  0  0  0  0  0  0  0  0  0  0
    4.2563   -3.8588   -1.5863 O   0  0  0  0  0  0  0  0  0  0  0  0
    3.6555   -4.4774    1.6271 C   0  0  0  0  0  0  0  0  0  0  0  0
    2.4255   -1.7547    0.5494 H   0  0  0  0  0  0  0  0  0  0  0  0
    4.4178   -2.4835    1.3035 H   0  0  0  0  0  0  0  0  0  0  0  0
    3.1424   -5.2752    1.0778 H   0  0  0  0  0  0  0  0  0  0  0  0
    4.5954   -4.8903    2.0083 H   0  0  0  0  0  0  0  0  0  0  0  0
    3.0290   -4.2079    2.4842 H   0  0  0  0  0  0  0  0  0  0  0  0
    6.0883   -3.7723   -0.1647 N   0  0  0  0  0  0  0  0  0  0  0  0
    7.0851   -4.1375   -1.1440 C   0  0  0  0  0  0  0  0  0  0  0  0
    6.4043   -3.5620    0.7775 H   0  0  0  0  0  0  0  0  0  0  0  0
    7.2281   -5.2281   -1.1333 H   0  0  0  0  0  0  0  0  0  0  0  0
    6.7505   -3.8215   -2.1431 H   0  0  0  0  0  0  0  0  0  0  0  0
    8.0362   -3.6408   -0.9017 H   0  0  0  0  0  0  0  0  0  0  0  0
 18 19  1  0  0  0  0
 19 31  1  0  0  0  0
 19 20  2  0  0  0  0
  8  9  1  0  0  0  0
  9 17  1  0  0  0  0
  9 10  2  0  0  0  0
  1  3  1  0  0  0  0
  1  7  1  0  0  0  0
  1  2  2  0  0  0  0
 32 33  1  0  0  0  0
 33 41  1  0  0  0  0
 33 34  2  0  0  0  0
 21 22  1  0  0  0  0
 22 23  1  0  0  0  0
 18 21  1  0  0  0  0
 17 23  1  0  0  0  0
 17 18  1  0  0  0  0
  8 11  1  0  0  0  0
 32 35  1  0  0  0  0
 41 42  1  0  0  0  0
  7  8  1  0  0  0  0
 31 32  1  0  0  0  0
 22 27  1  0  0  0  0
 22 28  1  0  0  0  0
 21 25  1  0  0  0  0
 21 26  1  0  0  0  0
 23 29  1  0  0  0  0
 23 30  1  0  0  0  0
 18 24  1  0  0  0  0
  3  4  1  0  0  0  0
  3  5  1  0  0  0  0
  3  6  1  0  0  0  0
 11 14  1  0  0  0  0
 11 15  1  0  0  0  0
 11 16  1  0  0  0  0
 35 38  1  0  0  0  0
 35 39  1  0  0  0  0
 35 40  1  0  0  0  0
 42 44  1  0  0  0  0
 42 45  1  0  0  0  0
 42 46  1  0  0  0  0
  8 13  1  0  0  0  0
 32 37  1  0  0  0  0
 31 36  1  0  0  0  0
 41 43  1  0  0  0  0
  7 12  1  0  0  0  0
M  END
$$$$

  -OEChem-05262214473D

 46 46  0     1  0  0  0  0  0999 V2000
   -0.6012   -3.2995    3.8205 C   0  0  0  0  0  0  0  0  0  0  0  0
   -0.6574   -4.4683    3.4568 O   0  0  0  0  0  0  0  0  0  0  0  0
   -0.4935   -2.9859    5.2760 C   0  0  0  0  0  0  0  0  0  0  0  0
   -1.4789   -2.8689    5.7550 H   0  0  0  0  0  0  0  0  0  0  0  0
    0.0123   -3.7847    5.8419 H   0  0  0  0  0  0  0  0  0  0  0  0
    0.0585   -2.0642    5.5199 H   0  0  0  0  0  0  0  0  0  0  0  0
   -0.6261   -2.1849    2.9917 N   0  0  0  0  0  0  0  0  0  0  0  0
   -0.7237   -2.2601    1.5650 C   0  0  2  0  0  0  0  0  0  0  0  0
    0.1695   -1.1513    1.0687 C   0  0  0  0  0  0  0  0  0  0  0  0
    0.3193   -0.1267    1.7365 O   0  0  0  0  0  0  0  0  0  0  0  0
   -2.1397   -2.0663    1.0750 C   0  0  0  0  0  0  0  0  0  0  0  0
   -0.5717   -1.2606    3.4238 H   0  0  0  0  0  0  0  0  0  0  0  0
   -0.3076   -3.2111    1.2363 H   0  0  0  0  0  0  0  0  0  0  0  0
   -2.5584   -1.1089    1.4061 H   0  0  0  0  0  0  0  0  0  0  0  0
   -2.1682   -2.0790   -0.0197 H   0  0  0  0  0  0  0  0  0  0  0  0
   -2.7965   -2.8601    1.4459 H   0  0  0  0  0  0  0  0  0  0  0  0
    0.7724   -1.3745   -0.1593 N   0  0  0  0  0  0  0  0  0  0  0  0
    0.5614   -2.5964   -0.9244 C   0  0  2  0  0  0  0  0  0  0  0  0
    1.6157   -3.5728   -0.4972 C   0  0  0  0  0  0  0  0  0  0  0  0
    1.6468   -4.6883   -1.0035 O   0  0  0  0  0  0  0  0  0  0  0  0
    0.7345   -2.1771   -2.3796 C   0  0  0  0  0  0  0  0  0  0  0  0
    0.3244   -0.8671   -1.7112 C   0  0  0  0  0  0  0  0  0  0  0  0
    1.5408   -0.3981   -0.9273 C   0  0  0  0  0  0  0  0  0  0  0  0
   -0.4227   -3.0263   -0.7144 H   0  0  0  0  0  0  0  0  0  0  0  0
    0.0120   -2.7078   -3.0110 H   0  0  0  0  0  0  0  0  0  0  0  0
    1.7400   -2.3597   -2.7711 H   0  0  0  0  0  0  0  0  0  0  0  0
    0.0755   -0.1144   -2.4681 H   0  0  0  0  0  0  0  0  0  0  0  0
   -0.5410   -0.9920   -1.0542 H   0  0  0  0  0  0  0  0  0  0  0  0
    2.4811   -0.6014   -1.4471 H   0  0  0  0  0  0  0  0  0  0  0  0
    1.4806    0.6724   -0.7030 H   0  0  0  0  0  0  0  0  0  0  0  0
    2.4447   -2.7994    0.5776 N   0  0  0  0  0  0  0  0  0  0  0  0
    3.6386   -3.3747    1.1542 C   0  0  2  0  0  0  0  0  0  0  0  0
    4.6911   -3.4710    0.0577 C   0  0  0  0  0  0  0  0  0  0  0  0
    4.4125   -3.4945   -1.1393 O   0  0  0  0  0  0  0  0  0  0  0  0
    3.3576   -4.7412    1.7595 C   0  0  0  0  0  0  0  0  0  0  0  0
    2.0798   -1.9404    0.9781 H   0  0  0  0  0  0  0  0  0  0  0  0
    3.9809   -2.6811    1.9300 H   0  0  0  0  0  0  0  0  0  0  0  0
    3.0135   -5.4497    0.9972 H   0  0  0  0  0  0  0  0  0  0  0  0
    4.2565   -5.1631    2.2211 H   0  0  0  0  0  0  0  0  0  0  0  0
    2.5791   -4.6748    2.5272 H   0  0  0  0  0  0  0  0  0  0  0  0
    5.9754   -3.5709    0.5744 N   0  0  0  0  0  0  0  0  0  0  0  0
    7.1460   -3.6866   -0.2636 C   0  0  0  0  0  0  0  0  0  0  0  0
    6.1147   -3.5239    1.5794 H   0  0  0  0  0  0  0  0  0  0  0  0
    7.3822   -4.7495   -0.4198 H   0  0  0  0  0  0  0  0  0  0  0  0
    6.9505   -3.2081   -1.2346 H   0  0  0  0  0  0  0  0  0  0  0  0
    7.9972   -3.1900    0.2252 H   0  0  0  0  0  0  0  0  0  0  0  0
 18 19  1  0  0  0  0
 19 31  1  0  0  0  0
 19 20  2  0  0  0  0
  8  9  1  0  0  0  0
  9 17  1  0  0  0  0
  9 10  2  0  0  0  0
  1  3  1  0  0  0  0
  1  7  1  0  0  0  0
  1  2  2  0  0  0  0
 32 33  1  0  0  0  0
 33 41  1  0  0  0  0
 33 34  2  0  0  0  0
 21 22  1  0  0  0  0
 22 23  1  0  0  0  0
 18 21  1  0  0  0  0
 17 23  1  0  0  0  0
 17 18  1  0  0  0  0
  8 11  1  0  0  0  0
 32 35  1  0  0  0  0
 41 42  1  0  0  0  0
  7  8  1  0  0  0  0
 31 32  1  0  0  0  0
 22 27  1  0  0  0  0
 22 28  1  0  0  0  0
 21 25  1  0  0  0  0
 21 26  1  0  0  0  0
 23 29  1  0  0  0  0
 23 30  1  0  0  0  0
 18 24  1  0  0  0  0
  3  4  1  0  0  0  0
  3  5  1  0  0  0  0
  3  6  1  0  0  0  0
 11 14  1  0  0  0  0
 11 15  1  0  0  0  0
 11 16  1  0  0  0  0
 35 38  1  0  0  0  0
 35 39  1  0  0  0  0
 35 40  1  0  0  0  0
 42 44  1  0  0  0  0
 42 45  1  0  0  0  0
 42 46  1  0  0  0  0
  8 13  1  0  0  0  0
 32 37  1  0  0  0  0
 31 36  1  0  0  0  0
 41 43  1  0  0  0  0
  7 12  1  0  0  0  0
M  END
$$$$

  -OEChem-05262214473D

 46 46  0     1  0  0  0  0  0999 V2000
   -0.6012   -3.2995    3.8205 C   0  0  0  0  0  0  0  0  0  0  0  0
   -0.6574   -4.4683    3.4568 O   0  0  0  0  0  0  0  0  0  0  0  0
   -0.4935   -2.9859    5.2760 C   0  0  0  0  0  0  0  0  0  0  0  0
   -1.4789   -2.8689    5.7550 H   0  0  0  0  0  0  0  0  0  0  0  0
    0.0123   -3.7847    5.8419 H   0  0  0  0  0  0  0  0  0  0  0  0
    0.0585   -2.0642    5.5199 H   0  0  0  0  0  0  0  0  0  0  0  0
   -0.6261   -2.1849    2.9917 N   0  0  0  0  0  0  0  0  0  0  0  0
   -0.7237   -2.2601    1.5650 C   0  0  2  0  0  0  0  0  0  0  0  0
    0.1695   -1.1513    1.0687 C   0  0  0  0  0  0  0  0  0  0  0  0
    0.3193   -0.1267    1.7365 O   0  0  0  0  0  0  0  0  0  0  0  0
   -2.1397   -2.0663    1.0750 C   0  0  0  0  0  0  0  0  0  0  0  0
   -0.5717   -1.2606    3.4238 H   0  0  0  0  0  0  0  0  0  0  0  0
   -0.3076   -3.2111    1.2363 H   0  0  0  0  0  0  0  0  0  0  0  0
   -2.5584   -1.1089    1.4061 H   0  0  0  0  0  0  0  0  0  0  0  0
   -2.1682   -2.0790   -0.0197 H   0  0  0  0  0  0  0  0  0  0  0  0
   -2.7965   -2.8601    1.4459 H   0  0  0  0  0  0  0  0  0  0  0  0
    0.7724   -1.3745   -0.1593 N   0  0  0  0  0  0  0  0  0  0  0  0
    0.5614   -2.5964   -0.9244 C   0  0  2  0  0  0  0  0  0  0  0  0
    1.6157   -3.5728   -0.4972 C   0  0  0  0  0  0  0  0  0  0  0  0
    1.8279   -4.5693   -1.1782 O   0  0  0  0  0  0  0  0  0  0  0  0
    0.7345   -2.1771   -2.3796 C   0  0  0  0  0  0  0  0  0  0  0  0
    0.3244   -0.8671   -1.7112 C   0  0  0  0  0  0  0  0  0  0  0  0
    1.5408   -0.3981   -0.9273 C   0  0  0  0  0  0  0  0  0  0  0  0
   -0.4227   -3.0263   -0.7144 H   0  0  0  0  0  0  0  0  0  0  0  0
    0.0120   -2.7078   -3.0110 H   0  0  0  0  0  0  0  0  0  0  0  0
    1.7400   -2.3597   -2.7711 H   0  0  0  0  0  0  0  0  0  0  0  0
    0.0755   -0.1144   -2.4681 H   0  0  0  0  0  0  0  0  0  0  0  0
   -0.5410   -0.9920   -1.0542 H   0  0  0  0  0  0  0  0  0  0  0  0
    2.4811   -0.6014   -1.4471 H   0  0  0  0  0  0  0  0  0  0  0  0
    1.4806    0.6724   -0.7030 H   0  0  0  0  0  0  0  0  0  0  0  0
    2.1874   -2.9688    0.8252 N   0  0  0  0  0  0  0  0  0  0  0  0
    3.3189   -3.5720    1.4922 C   0  0  2  0  0  0  0  0  0  0  0  0
    4.5393   -3.3987    0.5977 C   0  0  0  0  0  0  0  0  0  0  0  0
    4.4612   -3.2125   -0.6149 O   0  0  0  0  0  0  0  0  0  0  0  0
    3.0670   -5.0421    1.7891 C   0  0  0  0  0  0  0  0  0  0  0  0
    1.6873   -2.2233    1.3002 H   0  0  0  0  0  0  0  0  0  0  0  0
    3.4679   -3.0183    2.4255 H   0  0  0  0  0  0  0  0  0  0  0  0
    2.9154   -5.6131    0.8658 H   0  0  0  0  0  0  0  0  0  0  0  0
    3.9134   -5.4904    2.3197 H   0  0  0  0  0  0  0  0  0  0  0  0
    2.1718   -5.1668    2.4079 H   0  0  0  0  0  0  0  0  0  0  0  0
    5.7268   -3.5193    1.3058 N   0  0  0  0  0  0  0  0  0  0  0  0
    7.0232   -3.4069    0.6791 C   0  0  0  0  0  0  0  0  0  0  0  0
    5.6970   -3.6545    2.3121 H   0  0  0  0  0  0  0  0  0  0  0  0
    7.3755   -4.4058    0.3825 H   0  0  0  0  0  0  0  0  0  0  0  0
    6.9453   -2.7662   -0.2117 H   0  0  0  0  0  0  0  0  0  0  0  0
    7.7362   -2.9625    1.3891 H   0  0  0  0  0  0  0  0  0  0  0  0
 18 19  1  0  0  0  0
 19 31  1  0  0  0  0
 19 20  2  0  0  0  0
  8  9  1  0  0  0  0
  9 17  1  0  0  0  0
  9 10  2  0  0  0  0
  1  3  1  0  0  0  0
  1  7  1  0  0  0  0
  1  2  2  0  0  0  0
 32 33  1  0  0  0  0
 33 41  1  0  0  0  0
 33 34  2  0  0  0  0
 21 22  1  0  0  0  0
 22 23  1  0  0  0  0
 18 21  1  0  0  0  0
 17 23  1  0  0  0  0
 17 18  1  0  0  0  0
  8 11  1  0  0  0  0
 32 35  1  0  0  0  0
 41 42  1  0  0  0  0
  7  8  1  0  0  0  0
 31 32  1  0  0  0  0
 22 27  1  0  0  0  0
 22 28  1  0  0  0  0
 21 25  1  0  0  0  0
 21 26  1  0  0  0  0
 23 29  1  0  0  0  0
 23 30  1  0  0  0  0
 18 24  1  0  0  0  0
  3  4  1  0  0  0  0
  3  5  1  0  0  0  0
  3  6  1  0  0  0  0
 11 14  1  0  0  0  0
 11 15  1  0  0  0  0
 11 16  1  0  0  0  0
 35 38  1  0  0  0  0
 35 39  1  0  0  0  0
 35 40  1  0  0  0  0
 42 44  1  0  0  0  0
 42 45  1  0  0  0  0
 42 46  1  0  0  0  0
  8 13  1  0  0  0  0
 32 37  1  0  0  0  0
 31 36  1  0  0  0  0
 41 43  1  0  0  0  0
  7 12  1  0  0  0  0
M  END
$$$$

  -OEChem-05262214473D

 46 46  0     1  0  0  0  0  0999 V2000
   -0.6012   -3.2995    3.8205 C   0  0  0  0  0  0  0  0  0  0  0  0
   -0.6574   -4.4683    3.4568 O   0  0  0  0  0  0  0  0  0  0  0  0
   -0.4935   -2.9859    5.2760 C   0  0  0  0  0  0  0  0  0  0  0  0
   -1.4789   -2.8689    5.7550 H   0  0  0  0  0  0  0  0  0  0  0  0
    0.0123   -3.7847    5.8419 H   0  0  0  0  0  0  0  0  0  0  0  0
    0.0585   -2.0642    5.5199 H   0  0  0  0  0  0  0  0  0  0  0  0
   -0.6261   -2.1849    2.9917 N   0  0  0  0  0  0  0  0  0  0  0  0
   -0.7237   -2.2601    1.5650 C   0  0  2  0  0  0  0  0  0  0  0  0
    0.1695   -1.1513    1.0687 C   0  0  0  0  0  0  0  0  0  0  0  0
    0.3193   -0.1267    1.7365 O   0  0  0  0  0  0  0  0  0  0  0  0
   -2.1397   -2.0663    1.0750 C   0  0  0  0  0  0  0  0  0  0  0  0
   -0.5717   -1.2606    3.4238 H   0  0  0  0  0  0  0  0  0  0  0  0
   -0.3076   -3.2111    1.2363 H   0  0  0  0  0  0  0  0  0  0  0  0
   -2.5584   -1.1089    1.4061 H   0  0  0  0  0  0  0  0  0  0  0  0
   -2.1682   -2.0790   -0.0197 H   0  0  0  0  0  0  0  0  0  0  0  0
   -2.7965   -2.8601    1.4459 H   0  0  0  0  0  0  0  0  0  0  0  0
    0.7724   -1.3745   -0.1593 N   0  0  0  0  0  0  0  0  0  0  0  0
    0.5614   -2.5964   -0.9244 C   0  0  2  0  0  0  0  0  0  0  0  0
    1.6157   -3.5728   -0.4972 C   0  0  0  0  0  0  0  0  0  0  0  0
    2.0234   -4.4091   -1.2948 O   0  0  0  0  0  0  0  0  0  0  0  0
    0.7345   -2.1771   -2.3796 C   0  0  0  0  0  0  0  0  0  0  0  0
    0.3244   -0.8671   -1.7112 C   0  0  0  0  0  0  0  0  0  0  0  0
    1.5408   -0.3981   -0.9273 C   0  0  0  0  0  0  0  0  0  0  0  0
   -0.4227   -3.0263   -0.7144 H   0  0  0  0  0  0  0  0  0  0  0  0
    0.0120   -2.7078   -3.0110 H   0  0  0  0  0  0  0  0  0  0  0  0
    1.7400   -2.3597   -2.7711 H   0  0  0  0  0  0  0  0  0  0  0  0
    0.0755   -0.1144   -2.4681 H   0  0  0  0  0  0  0  0  0  0  0  0
   -0.5410   -0.9920   -1.0542 H   0  0  0  0  0  0  0  0  0  0  0  0
    2.4811   -0.6014   -1.4471 H   0  0  0  0  0  0  0  0  0  0  0  0
    1.4806    0.6724   -0.7030 H   0  0  0  0  0  0  0  0  0  0  0  0
    1.9097   -3.1965    0.9902 N   0  0  0  0  0  0  0  0  0  0  0  0
    2.9678   -3.8477    1.7288 C   0  0  2  0  0  0  0  0  0  0  0  0
    4.2963   -3.4383    1.1068 C   0  0  0  0  0  0  0  0  0  0  0  0
    4.3991   -3.0320   -0.0488 O   0  0  0  0  0  0  0  0  0  0  0  0
    2.8035   -5.3595    1.7139 C   0  0  0  0  0  0  0  0  0  0  0  0
    1.2748   -2.5842    1.4936 H   0  0  0  0  0  0  0  0  0  0  0  0
    2.9137   -3.4719    2.7564 H   0  0  0  0  0  0  0  0  0  0  0  0
    2.8548   -5.7542    0.6927 H   0  0  0  0  0  0  0  0  0  0  0  0
    3.5896   -5.8497    2.2977 H   0  0  0  0  0  0  0  0  0  0  0  0
    1.8348   -5.6504    2.1344 H   0  0  0  0  0  0  0  0  0  0  0  0
    5.3596   -3.6210    1.9799 N   0  0  0  0  0  0  0  0  0  0  0  0
    6.7249   -3.3173    1.6199 C   0  0  0  0  0  0  0  0  0  0  0  0
    5.1796   -3.9447    2.9257 H   0  0  0  0  0  0  0  0  0  0  0  0
    7.2085   -4.2203    1.2189 H   0  0  0  0  0  0  0  0  0  0  0  0
    6.7353   -2.5260    0.8559 H   0  0  0  0  0  0  0  0  0  0  0  0
    7.2712   -2.9740    2.5109 H   0  0  0  0  0  0  0  0  0  0  0  0
 18 19  1  0  0  0  0
 19 31  1  0  0  0  0
 19 20  2  0  0  0  0
  8  9  1  0  0  0  0
  9 17  1  0  0  0  0
  9 10  2  0  0  0  0
  1  3  1  0  0  0  0
  1  7  1  0  0  0  0
  1  2  2  0  0  0  0
 32 33  1  0  0  0  0
 33 41  1  0  0  0  0
 33 34  2  0  0  0  0
 21 22  1  0  0  0  0
 22 23  1  0  0  0  0
 18 21  1  0  0  0  0
 17 23  1  0  0  0  0
 17 18  1  0  0  0  0
  8 11  1  0  0  0  0
 32 35  1  0  0  0  0
 41 42  1  0  0  0  0
  7  8  1  0  0  0  0
 31 32  1  0  0  0  0
 22 27  1  0  0  0  0
 22 28  1  0  0  0  0
 21 25  1  0  0  0  0
 21 26  1  0  0  0  0
 23 29  1  0  0  0  0
 23 30  1  0  0  0  0
 18 24  1  0  0  0  0
  3  4  1  0  0  0  0
  3  5  1  0  0  0  0
  3  6  1  0  0  0  0
 11 14  1  0  0  0  0
 11 15  1  0  0  0  0
 11 16  1  0  0  0  0
 35 38  1  0  0  0  0
 35 39  1  0  0  0  0
 35 40  1  0  0  0  0
 42 44  1  0  0  0  0
 42 45  1  0  0  0  0
 42 46  1  0  0  0  0
  8 13  1  0  0  0  0
 32 37  1  0  0  0  0
 31 36  1  0  0  0  0
 41 43  1  0  0  0  0
  7 12  1  0  0  0  0
M  END
$$$$

  -OEChem-05262214473D

 46 46  0     1  0  0  0  0  0999 V2000
   -0.6012   -3.2995    3.8205 C   0  0  0  0  0  0  0  0  0  0  0  0
   -0.6574   -4.4683    3.4568 O   0  0  0  0  0  0  0  0  0  0  0  0
   -0.4935   -2.9859    5.2760 C   0  0  0  0  0  0  0  0  0  0  0  0
   -1.4789   -2.8689    5.7550 H   0  0  0  0  0  0  0  0  0  0  0  0
    0.0123   -3.7847    5.8419 H   0  0  0  0  0  0  0  0  0  0  0  0
    0.0585   -2.0642    5.5199 H   0  0  0  0  0  0  0  0  0  0  0  0
   -0.6261   -2.1849    2.9917 N   0  0  0  0  0  0  0  0  0  0  0  0
   -0.7237   -2.2601    1.5650 C   0  0  2  0  0  0  0  0  0  0  0  0
    0.1695   -1.1513    1.0687 C   0  0  0  0  0  0  0  0  0  0  0  0
    0.3193   -0.1267    1.7365 O   0  0  0  0  0  0  0  0  0  0  0  0
   -2.1397   -2.0663    1.0750 C   0  0  0  0  0  0  0  0  0  0  0  0
   -0.5717   -1.2606    3.4238 H   0  0  0  0  0  0  0  0  0  0  0  0
   -0.3076   -3.2111    1.2363 H   0  0  0  0  0  0  0  0  0  0  0  0
   -2.5584   -1.1089    1.4061 H   0  0  0  0  0  0  0  0  0  0  0  0
   -2.1682   -2.0790   -0.0197 H   0  0  0  0  0  0  0  0  0  0  0  0
   -2.7965   -2.8601    1.4459 H   0  0  0  0  0  0  0  0  0  0  0  0
    0.7724   -1.3745   -0.1593 N   0  0  0  0  0  0  0  0  0  0  0  0
    0.5614   -2.5964   -0.9244 C   0  0  2  0  0  0  0  0  0  0  0  0
    1.6157   -3.5728   -0.4972 C   0  0  0  0  0  0  0  0  0  0  0  0
    2.2201   -4.2188   -1.3452 O   0  0  0  0  0  0  0  0  0  0  0  0
    0.7345   -2.1771   -2.3796 C   0  0  0  0  0  0  0  0  0  0  0  0
    0.3244   -0.8671   -1.7112 C   0  0  0  0  0  0  0  0  0  0  0  0
    1.5408   -0.3981   -0.9273 C   0  0  0  0  0  0  0  0  0  0  0  0
   -0.4227   -3.0263   -0.7144 H   0  0  0  0  0  0  0  0  0  0  0  0
    0.0120   -2.7078   -3.0110 H   0  0  0  0  0  0  0  0  0  0  0  0
    1.7400   -2.3597   -2.7711 H   0  0  0  0  0  0  0  0  0  0  0  0
    0.0755   -0.1144   -2.4681 H   0  0  0  0  0  0  0  0  0  0  0  0
   -0.5410   -0.9920   -1.0542 H   0  0  0  0  0  0  0  0  0  0  0  0
    2.4811   -0.6014   -1.4471 H   0  0  0  0  0  0  0  0  0  0  0  0
    1.4806    0.6724   -0.7030 H   0  0  0  0  0  0  0  0  0  0  0  0
    1.6304   -3.4669    1.0614 N   0  0  0  0  0  0  0  0  0  0  0  0
    2.6090   -4.1829    1.8480 C   0  0  2  0  0  0  0  0  0  0  0  0
    3.9787   -3.5872    1.5504 C   0  0  0  0  0  0  0  0  0  0  0  0
    4.2303   -2.9653    0.5204 O   0  0  0  0  0  0  0  0  0  0  0  0
    2.5850   -5.6718    1.5392 C   0  0  0  0  0  0  0  0  0  0  0  0
    0.8703   -2.9983    1.5452 H   0  0  0  0  0  0  0  0  0  0  0  0
    2.3561   -4.0113    2.8999 H   0  0  0  0  0  0  0  0  0  0  0  0
    2.8360   -5.8635    0.4895 H   0  0  0  0  0  0  0  0  0  0  0  0
    3.3070   -6.2167    2.1564 H   0  0  0  0  0  0  0  0  0  0  0  0
    1.5910   -6.0925    1.7254 H   0  0  0  0  0  0  0  0  0  0  0  0
    4.8988   -3.8689    2.5505 N   0  0  0  0  0  0  0  0  0  0  0  0
    6.2717   -3.4240    2.4947 C   0  0  0  0  0  0  0  0  0  0  0  0
    4.5978   -4.3749    3.3783 H   0  0  0  0  0  0  0  0  0  0  0  0
    6.8924   -4.2057    2.0324 H   0  0  0  0  0  0  0  0  0  0  0  0
    6.3347   -2.5037    1.8955 H   0  0  0  0  0  0  0  0  0  0  0  0
    6.6337   -3.2235    3.5139 H   0  0  0  0  0  0  0  0  0  0  0  0
 18 19  1  0  0  0  0
 19 31  1  0  0  0  0
 19 20  2  0  0  0  0
  8  9  1  0  0  0  0
  9 17  1  0  0  0  0
  9 10  2  0  0  0  0
  1  3  1  0  0  0  0
  1  7  1  0  0  0  0
  1  2  2  0  0  0  0
 32 33  1  0  0  0  0
 33 41  1  0  0  0  0
 33 34  2  0  0  0  0
 21 22  1  0  0  0  0
 22 23  1  0  0  0  0
 18 21  1  0  0  0  0
 17 23  1  0  0  0  0
 17 18  1  0  0  0  0
  8 11  1  0  0  0  0
 32 35  1  0  0  0  0
 41 42  1  0  0  0  0
  7  8  1  0  0  0  0
 31 32  1  0  0  0  0
 22 27  1  0  0  0  0
 22 28  1  0  0  0  0
 21 25  1  0  0  0  0
 21 26  1  0  0  0  0
 23 29  1  0  0  0  0
 23 30  1  0  0  0  0
 18 24  1  0  0  0  0
  3  4  1  0  0  0  0
  3  5  1  0  0  0  0
  3  6  1  0  0  0  0
 11 14  1  0  0  0  0
 11 15  1  0  0  0  0
 11 16  1  0  0  0  0
 35 38  1  0  0  0  0
 35 39  1  0  0  0  0
 35 40  1  0  0  0  0
 42 44  1  0  0  0  0
 42 45  1  0  0  0  0
 42 46  1  0  0  0  0
  8 13  1  0  0  0  0
 32 37  1  0  0  0  0
 31 36  1  0  0  0  0
 41 43  1  0  0  0  0
  7 12  1  0  0  0  0
M  END
$$$$

  -OEChem-05262214473D

 46 46  0     1  0  0  0  0  0999 V2000
   -0.6012   -3.2995    3.8205 C   0  0  0  0  0  0  0  0  0  0  0  0
   -0.6574   -4.4683    3.4568 O   0  0  0  0  0  0  0  0  0  0  0  0
   -0.4935   -2.9859    5.2760 C   0  0  0  0  0  0  0  0  0  0  0  0
   -1.4789   -2.8689    5.7550 H   0  0  0  0  0  0  0  0  0  0  0  0
    0.0123   -3.7847    5.8419 H   0  0  0  0  0  0  0  0  0  0  0  0
    0.0585   -2.0642    5.5199 H   0  0  0  0  0  0  0  0  0  0  0  0
   -0.6261   -2.1849    2.9917 N   0  0  0  0  0  0  0  0  0  0  0  0
   -0.7237   -2.2601    1.5650 C   0  0  2  0  0  0  0  0  0  0  0  0
    0.1695   -1.1513    1.0687 C   0  0  0  0  0  0  0  0  0  0  0  0
    0.3193   -0.1267    1.7365 O   0  0  0  0  0  0  0  0  0  0  0  0
   -2.1397   -2.0663    1.0750 C   0  0  0  0  0  0  0  0  0  0  0  0
   -0.5717   -1.2606    3.4238 H   0  0  0  0  0  0  0  0  0  0  0  0
   -0.3076   -3.2111    1.2363 H   0  0  0  0  0  0  0  0  0  0  0  0
   -2.5584   -1.1089    1.4061 H   0  0  0  0  0  0  0  0  0  0  0  0
   -2.1682   -2.0790   -0.0197 H   0  0  0  0  0  0  0  0  0  0  0  0
   -2.7965   -2.8601    1.4459 H   0  0  0  0  0  0  0  0  0  0  0  0
    0.7724   -1.3745   -0.1593 N   0  0  0  0  0  0  0  0  0  0  0  0
    0.5614   -2.5964   -0.9244 C   0  0  2  0  0  0  0  0  0  0  0  0
    1.6157   -3.5728   -0.4972 C   0  0  0  0  0  0  0  0  0  0  0  0
    2.4046   -4.0113   -1.3261 O   0  0  0  0  0  0  0  0  0  0  0  0
    0.7345   -2.1771   -2.3796 C   0  0  0  0  0  0  0  0  0  0  0  0
    0.3244   -0.8671   -1.7112 C   0  0  0  0  0  0  0  0  0  0  0  0
    1.5408   -0.3981   -0.9273 C   0  0  0  0  0  0  0  0  0  0  0  0
   -0.4227   -3.0263   -0.7144 H   0  0  0  0  0  0  0  0  0  0  0  0
    0.0120   -2.7078   -3.0110 H   0  0  0  0  0  0  0  0  0  0  0  0
    1.7400   -2.3597   -2.7711 H   0  0  0  0  0  0  0  0  0  0  0  0
    0.0755   -0.1144   -2.4681 H   0  0  0  0  0  0  0  0  0  0  0  0
   -0.5410   -0.9920   -1.0542 H   0  0  0  0  0  0  0  0  0  0  0  0
    2.4811   -0.6014   -1.4471 H   0  0  0  0  0  0  0  0  0  0  0  0
    1.4806    0.6724   -0.7030 H   0  0  0  0  0  0  0  0  0  0  0  0
    1.3686   -3.7617    1.0338 N   0  0  0  0  0  0  0  0  0  0  0  0
    2.2671   -4.5549    1.8416 C   0  0  2  0  0  0  0  0  0  0  0  0
    3.6081   -3.8352    1.8982 C   0  0  0  0  0  0  0  0  0  0  0  0
    3.9664   -3.0168    1.0539 O   0  0  0  0  0  0  0  0  0  0  0  0
    2.4265   -5.9578    1.2766 C   0  0  0  0  0  0  0  0  0  0  0  0
    0.5015   -3.4376    1.4514 H   0  0  0  0  0  0  0  0  0  0  0  0
    1.8331   -4.5994    2.8464 H   0  0  0  0  0  0  0  0  0  0  0  0
    2.8600   -5.9335    0.2702 H   0  0  0  0  0  0  0  0  0  0  0  0
    3.0849   -6.5663    1.9054 H   0  0  0  0  0  0  0  0  0  0  0  0
    1.4571   -6.4632    1.2088 H   0  0  0  0  0  0  0  0  0  0  0  0
    4.3757   -4.2463    2.9790 N   0  0  0  0  0  0  0  0  0  0  0  0
    5.6943   -3.7198    3.2439 C   0  0  0  0  0  0  0  0  0  0  0  0
    3.9913   -4.9157    3.6391 H   0  0  0  0  0  0  0  0  0  0  0  0
    6.4490   -4.3629    2.7676 H   0  0  0  0  0  0  0  0  0  0  0  0
    5.7709   -2.7010    2.8361 H   0  0  0  0  0  0  0  0  0  0  0  0
    5.8673   -3.6941    4.3299 H   0  0  0  0  0  0  0  0  0  0  0  0
 18 19  1  0  0  0  0
 19 31  1  0  0  0  0
 19 20  2  0  0  0  0
  8  9  1  0  0  0  0
  9 17  1  0  0  0  0
  9 10  2  0  0  0  0
  1  3  1  0  0  0  0
  1  7  1  0  0  0  0
  1  2  2  0  0  0  0
 32 33  1  0  0  0  0
 33 41  1  0  0  0  0
 33 34  2  0  0  0  0
 21 22  1  0  0  0  0
 22 23  1  0  0  0  0
 18 21  1  0  0  0  0
 17 23  1  0  0  0  0
 17 18  1  0  0  0  0
  8 11  1  0  0  0  0
 32 35  1  0  0  0  0
 41 42  1  0  0  0  0
  7  8  1  0  0  0  0
 31 32  1  0  0  0  0
 22 27  1  0  0  0  0
 22 28  1  0  0  0  0
 21 25  1  0  0  0  0
 21 26  1  0  0  0  0
 23 29  1  0  0  0  0
 23 30  1  0  0  0  0
 18 24  1  0  0  0  0
  3  4  1  0  0  0  0
  3  5  1  0  0  0  0
  3  6  1  0  0  0  0
 11 14  1  0  0  0  0
 11 15  1  0  0  0  0
 11 16  1  0  0  0  0
 35 38  1  0  0  0  0
 35 39  1  0  0  0  0
 35 40  1  0  0  0  0
 42 44  1  0  0  0  0
 42 45  1  0  0  0  0
 42 46  1  0  0  0  0
  8 13  1  0  0  0  0
 32 37  1  0  0  0  0
 31 36  1  0  0  0  0
 41 43  1  0  0  0  0
  7 12  1  0  0  0  0
M  END
$$$$

  -OEChem-05262214473D

 46 46  0     1  0  0  0  0  0999 V2000
   -0.6012   -3.2995    3.8205 C   0  0  0  0  0  0  0  0  0  0  0  0
   -0.6574   -4.4683    3.4568 O   0  0  0  0  0  0  0  0  0  0  0  0
   -0.4935   -2.9859    5.2760 C   0  0  0  0  0  0  0  0  0  0  0  0
   -1.4789   -2.8689    5.7550 H   0  0  0  0  0  0  0  0  0  0  0  0
    0.0123   -3.7847    5.8419 H   0  0  0  0  0  0  0  0  0  0  0  0
    0.0585   -2.0642    5.5199 H   0  0  0  0  0  0  0  0  0  0  0  0
   -0.6261   -2.1849    2.9917 N   0  0  0  0  0  0  0  0  0  0  0  0
   -0.7237   -2.2601    1.5650 C   0  0  2  0  0  0  0  0  0  0  0  0
    0.1695   -1.1513    1.0687 C   0  0  0  0  0  0  0  0  0  0  0  0
    0.3193   -0.1267    1.7365 O   0  0  0  0  0  0  0  0  0  0  0  0
   -2.1397   -2.0663    1.0750 C   0  0  0  0  0  0  0  0  0  0  0  0
   -0.5717   -1.2606    3.4238 H   0  0  0  0  0  0  0  0  0  0  0  0
   -0.3076   -3.2111    1.2363 H   0  0  0  0  0  0  0  0  0  0  0  0
   -2.5584   -1.1089    1.4061 H   0  0  0  0  0  0  0  0  0  0  0  0
   -2.1682   -2.0790   -0.0197 H   0  0  0  0  0  0  0  0  0  0  0  0
   -2.7965   -2.8601    1.4459 H   0  0  0  0  0  0  0  0  0  0  0  0
    0.7724   -1.3745   -0.1593 N   0  0  0  0  0  0  0  0  0  0  0  0
    0.5614   -2.5964   -0.9244 C   0  0  2  0  0  0  0  0  0  0  0  0
    1.6157   -3.5728   -0.4972 C   0  0  0  0  0  0  0  0  0  0  0  0
    2.5642   -3.8007   -1.2389 O   0  0  0  0  0  0  0  0  0  0  0  0
    0.7345   -2.1771   -2.3796 C   0  0  0  0  0  0  0  0  0  0  0  0
    0.3244   -0.8671   -1.7112 C   0  0  0  0  0  0  0  0  0  0  0  0
    1.5408   -0.3981   -0.9273 C   0  0  0  0  0  0  0  0  0  0  0  0
   -0.4227   -3.0263   -0.7144 H   0  0  0  0  0  0  0  0  0  0  0  0
    0.0120   -2.7078   -3.0110 H   0  0  0  0  0  0  0  0  0  0  0  0
    1.7400   -2.3597   -2.7711 H   0  0  0  0  0  0  0  0  0  0  0  0
    0.0755   -0.1144   -2.4681 H   0  0  0  0  0  0  0  0  0  0  0  0
   -0.5410   -0.9920   -1.0542 H   0  0  0  0  0  0  0  0  0  0  0  0
    2.4811   -0.6014   -1.4471 H   0  0  0  0  0  0  0  0  0  0  0  0
    1.4806    0.6724   -0.7030 H   0  0  0  0  0  0  0  0  0  0  0  0
    1.1421   -4.0607    0.9093 N   0  0  0  0  0  0  0  0  0  0  0  0
    1.9653   -4.9383    1.7101 C   0  0  2  0  0  0  0  0  0  0  0  0
    3.2098   -4.1654    2.1266 C   0  0  0  0  0  0  0  0  0  0  0  0
    3.6253   -3.1832    1.5153 O   0  0  0  0  0  0  0  0  0  0  0  0
    2.3388   -6.1980    0.9443 C   0  0  0  0  0  0  0  0  0  0  0  0
    0.1934   -3.8720    1.2188 H   0  0  0  0  0  0  0  0  0  0  0  0
    1.3802   -5.1964    2.5995 H   0  0  0  0  0  0  0  0  0  0  0  0
    2.9254   -5.9593    0.0497 H   0  0  0  0  0  0  0  0  0  0  0  0
    2.9385   -6.8747    1.5619 H   0  0  0  0  0  0  0  0  0  0  0  0
    1.4421   -6.7370    0.6197 H   0  0  0  0  0  0  0  0  0  0  0  0
    3.8261   -4.7273    3.2359 N   0  0  0  0  0  0  0  0  0  0  0  0
    5.0321   -4.1844    3.8163 C   0  0  0  0  0  0  0  0  0  0  0  0
    3.4013   -5.5303    3.6903 H   0  0  0  0  0  0  0  0  0  0  0  0
    5.9083   -4.6813    3.3743 H   0  0  0  0  0  0  0  0  0  0  0  0
    5.0823   -3.1044    3.6138 H   0  0  0  0  0  0  0  0  0  0  0  0
    5.0242   -4.3537    4.9032 H   0  0  0  0  0  0  0  0  0  0  0  0
 18 19  1  0  0  0  0
 19 31  1  0  0  0  0
 19 20  2  0  0  0  0
  8  9  1  0  0  0  0
  9 17  1  0  0  0  0
  9 10  2  0  0  0  0
  1  3  1  0  0  0  0
  1  7  1  0  0  0  0
  1  2  2  0  0  0  0
 32 33  1  0  0  0  0
 33 41  1  0  0  0  0
 33 34  2  0  0  0  0
 21 22  1  0  0  0  0
 22 23  1  0  0  0  0
 18 21  1  0  0  0  0
 17 23  1  0  0  0  0
 17 18  1  0  0  0  0
  8 11  1  0  0  0  0
 32 35  1  0  0  0  0
 41 42  1  0  0  0  0
  7  8  1  0  0  0  0
 31 32  1  0  0  0  0
 22 27  1  0  0  0  0
 22 28  1  0  0  0  0
 21 25  1  0  0  0  0
 21 26  1  0  0  0  0
 23 29  1  0  0  0  0
 23 30  1  0  0  0  0
 18 24  1  0  0  0  0
  3  4  1  0  0  0  0
  3  5  1  0  0  0  0
  3  6  1  0  0  0  0
 11 14  1  0  0  0  0
 11 15  1  0  0  0  0
 11 16  1  0  0  0  0
 35 38  1  0  0  0  0
 35 39  1  0  0  0  0
 35 40  1  0  0  0  0
 42 44  1  0  0  0  0
 42 45  1  0  0  0  0
 42 46  1  0  0  0  0
  8 13  1  0  0  0  0
 32 37  1  0  0  0  0
 31 36  1  0  0  0  0
 41 43  1  0  0  0  0
  7 12  1  0  0  0  0
M  END
$$$$

  -OEChem-05262214473D

 46 46  0     1  0  0  0  0  0999 V2000
   -0.6012   -3.2995    3.8205 C   0  0  0  0  0  0  0  0  0  0  0  0
   -0.6574   -4.4683    3.4568 O   0  0  0  0  0  0  0  0  0  0  0  0
   -0.4935   -2.9859    5.2760 C   0  0  0  0  0  0  0  0  0  0  0  0
   -1.4789   -2.8689    5.7550 H   0  0  0  0  0  0  0  0  0  0  0  0
    0.0123   -3.7847    5.8419 H   0  0  0  0  0  0  0  0  0  0  0  0
    0.0585   -2.0642    5.5199 H   0  0  0  0  0  0  0  0  0  0  0  0
   -0.6261   -2.1849    2.9917 N   0  0  0  0  0  0  0  0  0  0  0  0
   -0.7237   -2.2601    1.5650 C   0  0  2  0  0  0  0  0  0  0  0  0
    0.1695   -1.1513    1.0687 C   0  0  0  0  0  0  0  0  0  0  0  0
    0.3193   -0.1267    1.7365 O   0  0  0  0  0  0  0  0  0  0  0  0
   -2.1397   -2.0663    1.0750 C   0  0  0  0  0  0  0  0  0  0  0  0
   -0.5717   -1.2606    3.4238 H   0  0  0  0  0  0  0  0  0  0  0  0
   -0.3076   -3.2111    1.2363 H   0  0  0  0  0  0  0  0  0  0  0  0
   -2.5584   -1.1089    1.4061 H   0  0  0  0  0  0  0  0  0  0  0  0
   -2.1682   -2.0790   -0.0197 H   0  0  0  0  0  0  0  0  0  0  0  0
   -2.7965   -2.8601    1.4459 H   0  0  0  0  0  0  0  0  0  0  0  0
    0.7724   -1.3745   -0.1593 N   0  0  0  0  0  0  0  0  0  0  0  0
    0.5614   -2.5964   -0.9244 C   0  0  2  0  0  0  0  0  0  0  0  0
    1.6157   -3.5728   -0.4972 C   0  0  0  0  0  0  0  0  0  0  0  0
    2.6882   -3.6014   -1.0893 O   0  0  0  0  0  0  0  0  0  0  0  0
    0.7345   -2.1771   -2.3796 C   0  0  0  0  0  0  0  0  0  0  0  0
    0.3244   -0.8671   -1.7112 C   0  0  0  0  0  0  0  0  0  0  0  0
    1.5408   -0.3981   -0.9273 C   0  0  0  0  0  0  0  0  0  0  0  0
   -0.4227   -3.0263   -0.7144 H   0  0  0  0  0  0  0  0  0  0  0  0
    0.0120   -2.7078   -3.0110 H   0  0  0  0  0  0  0  0  0  0  0  0
    1.7400   -2.3597   -2.7711 H   0  0  0  0  0  0  0  0  0  0  0  0
    0.0755   -0.1144   -2.4681 H   0  0  0  0  0  0  0  0  0  0  0  0
   -0.5410   -0.9920   -1.0542 H   0  0  0  0  0  0  0  0  0  0  0  0
    2.4811   -0.6014   -1.4471 H   0  0  0  0  0  0  0  0  0  0  0  0
    1.4806    0.6724   -0.7030 H   0  0  0  0  0  0  0  0  0  0  0  0
    0.9664   -4.3436    0.6965 N   0  0  0  0  0  0  0  0  0  0  0  0
    1.7243   -5.3069    1.4624 C   0  0  2  0  0  0  0  0  0  0  0  0
    2.8109   -4.5553    2.2200 C   0  0  0  0  0  0  0  0  0  0  0  0
    3.2304   -3.4531    1.8733 O   0  0  0  0  0  0  0  0  0  0  0  0
    2.3277   -6.3759    0.5648 C   0  0  0  0  0  0  0  0  0  0  0  0
   -0.0329   -4.2721    0.8630 H   0  0  0  0  0  0  0  0  0  0  0  0
    1.0285   -5.7615    2.1760 H   0  0  0  0  0  0  0  0  0  0  0  0
    3.0276   -5.9394   -0.1570 H   0  0  0  0  0  0  0  0  0  0  0  0
    2.8776   -7.1208    1.1494 H   0  0  0  0  0  0  0  0  0  0  0  0
    1.5472   -6.8954   -0.0016 H   0  0  0  0  0  0  0  0  0  0  0  0
    3.2874   -5.2793    3.3039 N   0  0  0  0  0  0  0  0  0  0  0  0
    4.3302   -4.7862    4.1730 C   0  0  0  0  0  0  0  0  0  0  0  0
    2.8682   -6.1768    3.5285 H   0  0  0  0  0  0  0  0  0  0  0  0
    5.3072   -5.1392    3.8113 H   0  0  0  0  0  0  0  0  0  0  0  0
    4.3158   -3.6863    4.1754 H   0  0  0  0  0  0  0  0  0  0  0  0
    4.1618   -5.1573    5.1948 H   0  0  0  0  0  0  0  0  0  0  0  0
 18 19  1  0  0  0  0
 19 31  1  0  0  0  0
 19 20  2  0  0  0  0
  8  9  1  0  0  0  0
  9 17  1  0  0  0  0
  9 10  2  0  0  0  0
  1  3  1  0  0  0  0
  1  7  1  0  0  0  0
  1  2  2  0  0  0  0
 32 33  1  0  0  0  0
 33 41  1  0  0  0  0
 33 34  2  0  0  0  0
 21 22  1  0  0  0  0
 22 23  1  0  0  0  0
 18 21  1  0  0  0  0
 17 23  1  0  0  0  0
 17 18  1  0  0  0  0
  8 11  1  0  0  0  0
 32 35  1  0  0  0  0
 41 42  1  0  0  0  0
  7  8  1  0  0  0  0
 31 32  1  0  0  0  0
 22 27  1  0  0  0  0
 22 28  1  0  0  0  0
 21 25  1  0  0  0  0
 21 26  1  0  0  0  0
 23 29  1  0  0  0  0
 23 30  1  0  0  0  0
 18 24  1  0  0  0  0
  3  4  1  0  0  0  0
  3  5  1  0  0  0  0
  3  6  1  0  0  0  0
 11 14  1  0  0  0  0
 11 15  1  0  0  0  0
 11 16  1  0  0  0  0
 35 38  1  0  0  0  0
 35 39  1  0  0  0  0
 35 40  1  0  0  0  0
 42 44  1  0  0  0  0
 42 45  1  0  0  0  0
 42 46  1  0  0  0  0
  8 13  1  0  0  0  0
 32 37  1  0  0  0  0
 31 36  1  0  0  0  0
 41 43  1  0  0  0  0
  7 12  1  0  0  0  0
M  END
$$$$

  -OEChem-05262214473D

 46 46  0     1  0  0  0  0  0999 V2000
   -0.6012   -3.2995    3.8205 C   0  0  0  0  0  0  0  0  0  0  0  0
   -0.6574   -4.4683    3.4568 O   0  0  0  0  0  0  0  0  0  0  0  0
   -0.4935   -2.9859    5.2760 C   0  0  0  0  0  0  0  0  0  0  0  0
   -1.4789   -2.8689    5.7550 H   0  0  0  0  0  0  0  0  0  0  0  0
    0.0123   -3.7847    5.8419 H   0  0  0  0  0  0  0  0  0  0  0  0
    0.0585   -2.0642    5.5199 H   0  0  0  0  0  0  0  0  0  0  0  0
   -0.6261   -2.1849    2.9917 N   0  0  0  0  0  0  0  0  0  0  0  0
   -0.7237   -2.2601    1.5650 C   0  0  2  0  0  0  0  0  0  0  0  0
    0.1695   -1.1513    1.0687 C   0  0  0  0  0  0  0  0  0  0  0  0
    0.3193   -0.1267    1.7365 O   0  0  0  0  0  0  0  0  0  0  0  0
   -2.1397   -2.0663    1.0750 C   0  0  0  0  0  0  0  0  0  0  0  0
   -0.5717   -1.2606    3.4238 H   0  0  0  0  0  0  0  0  0  0  0  0
   -0.3076   -3.2111    1.2363 H   0  0  0  0  0  0  0  0  0  0  0  0
   -2.5584   -1.1089    1.4061 H   0  0  0  0  0  0  0  0  0  0  0  0
   -2.1682   -2.0790   -0.0197 H   0  0  0  0  0  0  0  0  0  0  0  0
   -2.7965   -2.8601    1.4459 H   0  0  0  0  0  0  0  0  0  0  0  0
    0.7724   -1.3745   -0.1593 N   0  0  0  0  0  0  0  0  0  0  0  0
    0.5614   -2.5964   -0.9244 C   0  0  2  0  0  0  0  0  0  0  0  0
    1.6157   -3.5728   -0.4972 C   0  0  0  0  0  0  0  0  0  0  0  0
    2.7681   -3.4270   -0.8876 O   0  0  0  0  0  0  0  0  0  0  0  0
    0.7345   -2.1771   -2.3796 C   0  0  0  0  0  0  0  0  0  0  0  0
    0.3244   -0.8671   -1.7112 C   0  0  0  0  0  0  0  0  0  0  0  0
    1.5408   -0.3981   -0.9273 C   0  0  0  0  0  0  0  0  0  0  0  0
   -0.4227   -3.0263   -0.7144 H   0  0  0  0  0  0  0  0  0  0  0  0
    0.0120   -2.7078   -3.0110 H   0  0  0  0  0  0  0  0  0  0  0  0
    1.7400   -2.3597   -2.7711 H   0  0  0  0  0  0  0  0  0  0  0  0
    0.0755   -0.1144   -2.4681 H   0  0  0  0  0  0  0  0  0  0  0  0
   -0.5410   -0.9920   -1.0542 H   0  0  0  0  0  0  0  0  0  0  0  0
    2.4811   -0.6014   -1.4471 H   0  0  0  0  0  0  0  0  0  0  0  0
    1.4806    0.6724   -0.7030 H   0  0  0  0  0  0  0  0  0  0  0  0
    0.8533   -4.5910    0.4098 N   0  0  0  0  0  0  0  0  0  0  0  0
    1.5604   -5.6356    1.1154 C   0  0  2  0  0  0  0  0  0  0  0  0
    2.4386   -4.9783    2.1719 C   0  0  0  0  0  0  0  0  0  0  0  0
    2.8084   -3.8080    2.1033 O   0  0  0  0  0  0  0  0  0  0  0  0
    2.3941   -6.4796    0.1639 C   0  0  0  0  0  0  0  0  0  0  0  0
   -0.1621   -4.6104    0.4084 H   0  0  0  0  0  0  0  0  0  0  0  0
    0.8018   -6.2562    1.6047 H   0  0  0  0  0  0  0  0  0  0  0  0
    3.1598   -5.8749   -0.3358 H   0  0  0  0  0  0  0  0  0  0  0  0
    2.9066   -7.2880    0.6958 H   0  0  0  0  0  0  0  0  0  0  0  0
    1.7651   -6.9275   -0.6129 H   0  0  0  0  0  0  0  0  0  0  0  0
    2.7962   -5.8646    3.1783 N   0  0  0  0  0  0  0  0  0  0  0  0
    3.6365   -5.4842    4.2898 C   0  0  0  0  0  0  0  0  0  0  0  0
    2.4281   -6.8111    3.1646 H   0  0  0  0  0  0  0  0  0  0  0  0
    4.6867   -5.7053    4.0487 H   0  0  0  0  0  0  0  0  0  0  0  0
    3.5236   -4.4072    4.4828 H   0  0  0  0  0  0  0  0  0  0  0  0
    3.3389   -6.0503    5.1848 H   0  0  0  0  0  0  0  0  0  0  0  0
 18 19  1  0  0  0  0
 19 31  1  0  0  0  0
 19 20  2  0  0  0  0
  8  9  1  0  0  0  0
  9 17  1  0  0  0  0
  9 10  2  0  0  0  0
  1  3  1  0  0  0  0
  1  7  1  0  0  0  0
  1  2  2  0  0  0  0
 32 33  1  0  0  0  0
 33 41  1  0  0  0  0
 33 34  2  0  0  0  0
 21 22  1  0  0  0  0
 22 23  1  0  0  0  0
 18 21  1  0  0  0  0
 17 23  1  0  0  0  0
 17 18  1  0  0  0  0
  8 11  1  0  0  0  0
 32 35  1  0  0  0  0
 41 42  1  0  0  0  0
  7  8  1  0  0  0  0
 31 32  1  0  0  0  0
 22 27  1  0  0  0  0
 22 28  1  0  0  0  0
 21 25  1  0  0  0  0
 21 26  1  0  0  0  0
 23 29  1  0  0  0  0
 23 30  1  0  0  0  0
 18 24  1  0  0  0  0
  3  4  1  0  0  0  0
  3  5  1  0  0  0  0
  3  6  1  0  0  0  0
 11 14  1  0  0  0  0
 11 15  1  0  0  0  0
 11 16  1  0  0  0  0
 35 38  1  0  0  0  0
 35 39  1  0  0  0  0
 35 40  1  0  0  0  0
 42 44  1  0  0  0  0
 42 45  1  0  0  0  0
 42 46  1  0  0  0  0
  8 13  1  0  0  0  0
 32 37  1  0  0  0  0
 31 36  1  0  0  0  0
 41 43  1  0  0  0  0
  7 12  1  0  0  0  0
M  END
$$$$

  -OEChem-05262214473D

 46 46  0     1  0  0  0  0  0999 V2000
   -0.6012   -3.2995    3.8205 C   0  0  0  0  0  0  0  0  0  0  0  0
   -0.6574   -4.4683    3.4568 O   0  0  0  0  0  0  0  0  0  0  0  0
   -0.4935   -2.9859    5.2760 C   0  0  0  0  0  0  0  0  0  0  0  0
   -1.4789   -2.8689    5.7550 H   0  0  0  0  0  0  0  0  0  0  0  0
    0.0123   -3.7847    5.8419 H   0  0  0  0  0  0  0  0  0  0  0  0
    0.0585   -2.0642    5.5199 H   0  0  0  0  0  0  0  0  0  0  0  0
   -0.6261   -2.1849    2.9917 N   0  0  0  0  0  0  0  0  0  0  0  0
   -0.7237   -2.2601    1.5650 C   0  0  2  0  0  0  0  0  0  0  0  0
    0.1695   -1.1513    1.0687 C   0  0  0  0  0  0  0  0  0  0  0  0
    0.3193   -0.1267    1.7365 O   0  0  0  0  0  0  0  0  0  0  0  0
   -2.1397   -2.0663    1.0750 C   0  0  0  0  0  0  0  0  0  0  0  0
   -0.5717   -1.2606    3.4238 H   0  0  0  0  0  0  0  0  0  0  0  0
   -0.3076   -3.2111    1.2363 H   0  0  0  0  0  0  0  0  0  0  0  0
   -2.5584   -1.1089    1.4061 H   0  0  0  0  0  0  0  0  0  0  0  0
   -2.1682   -2.0790   -0.0197 H   0  0  0  0  0  0  0  0  0  0  0  0
   -2.7965   -2.8601    1.4459 H   0  0  0  0  0  0  0  0  0  0  0  0
    0.7724   -1.3745   -0.1593 N   0  0  0  0  0  0  0  0  0  0  0  0
    0.5614   -2.5964   -0.9244 C   0  0  2  0  0  0  0  0  0  0  0  0
    1.6157   -3.5728   -0.4972 C   0  0  0  0  0  0  0  0  0  0  0  0
    2.7983   -3.2893   -0.6477 O   0  0  0  0  0  0  0  0  0  0  0  0
    0.7345   -2.1771   -2.3796 C   0  0  0  0  0  0  0  0  0  0  0  0
    0.3244   -0.8671   -1.7112 C   0  0  0  0  0  0  0  0  0  0  0  0
    1.5408   -0.3981   -0.9273 C   0  0  0  0  0  0  0  0  0  0  0  0
   -0.4227   -3.0263   -0.7144 H   0  0  0  0  0  0  0  0  0  0  0  0
    0.0120   -2.7078   -3.0110 H   0  0  0  0  0  0  0  0  0  0  0  0
    1.7400   -2.3597   -2.7711 H   0  0  0  0  0  0  0  0  0  0  0  0
    0.0755   -0.1144   -2.4681 H   0  0  0  0  0  0  0  0  0  0  0  0
   -0.5410   -0.9920   -1.0542 H   0  0  0  0  0  0  0  0  0  0  0  0
    2.4811   -0.6014   -1.4471 H   0  0  0  0  0  0  0  0  0  0  0  0
    1.4806    0.6724   -0.7030 H   0  0  0  0  0  0  0  0  0  0  0  0
    0.8107   -4.7862    0.0688 N   0  0  0  0  0  0  0  0  0  0  0  0
    1.4848   -5.9021    0.6928 C   0  0  2  0  0  0  0  0  0  0  0  0
    2.1183   -5.4056    1.9857 C   0  0  0  0  0  0  0  0  0  0  0  0
    2.3883   -4.2239    2.1898 O   0  0  0  0  0  0  0  0  0  0  0  0
    2.5335   -6.5018   -0.2310 C   0  0  0  0  0  0  0  0  0  0  0  0
   -0.1852   -4.8639   -0.1141 H   0  0  0  0  0  0  0  0  0  0  0  0
    0.7156   -6.6467    0.9247 H   0  0  0  0  0  0  0  0  0  0  0  0
    3.3128   -5.7704   -0.4745 H   0  0  0  0  0  0  0  0  0  0  0  0
    3.0234   -7.3647    0.2321 H   0  0  0  0  0  0  0  0  0  0  0  0
    2.0810   -6.8312   -1.1725 H   0  0  0  0  0  0  0  0  0  0  0  0
    2.3862   -6.4432    2.8677 N   0  0  0  0  0  0  0  0  0  0  0  0
    2.9982   -6.2308    4.1585 C   0  0  0  0  0  0  0  0  0  0  0  0
    2.1112   -7.3901    2.6235 H   0  0  0  0  0  0  0  0  0  0  0  0
    4.0891   -6.3411    4.0703 H   0  0  0  0  0  0  0  0  0  0  0  0
    2.7598   -5.2179    4.5150 H   0  0  0  0  0  0  0  0  0  0  0  0
    2.6115   -6.9717    4.8738 H   0  0  0  0  0  0  0  0  0  0  0  0
 18 19  1  0  0  0  0
 19 31  1  0  0  0  0
 19 20  2  0  0  0  0
  8  9  1  0  0  0  0
  9 17  1  0  0  0  0
  9 10  2  0  0  0  0
  1  3  1  0  0  0  0
  1  7  1  0  0  0  0
  1  2  2  0  0  0  0
 32 33  1  0  0  0  0
 33 41  1  0  0  0  0
 33 34  2  0  0  0  0
 21 22  1  0  0  0  0
 22 23  1  0  0  0  0
 18 21  1  0  0  0  0
 17 23  1  0  0  0  0
 17 18  1  0  0  0  0
  8 11  1  0  0  0  0
 32 35  1  0  0  0  0
 41 42  1  0  0  0  0
  7  8  1  0  0  0  0
 31 32  1  0  0  0  0
 22 27  1  0  0  0  0
 22 28  1  0  0  0  0
 21 25  1  0  0  0  0
 21 26  1  0  0  0  0
 23 29  1  0  0  0  0
 23 30  1  0  0  0  0
 18 24  1  0  0  0  0
  3  4  1  0  0  0  0
  3  5  1  0  0  0  0
  3  6  1  0  0  0  0
 11 14  1  0  0  0  0
 11 15  1  0  0  0  0
 11 16  1  0  0  0  0
 35 38  1  0  0  0  0
 35 39  1  0  0  0  0
 35 40  1  0  0  0  0
 42 44  1  0  0  0  0
 42 45  1  0  0  0  0
 42 46  1  0  0  0  0
  8 13  1  0  0  0  0
 32 37  1  0  0  0  0
 31 36  1  0  0  0  0
 41 43  1  0  0  0  0
  7 12  1  0  0  0  0
M  END
$$$$

  -OEChem-05262214473D

 46 46  0     1  0  0  0  0  0999 V2000
   -0.6012   -3.2995    3.8205 C   0  0  0  0  0  0  0  0  0  0  0  0
   -0.6574   -4.4683    3.4568 O   0  0  0  0  0  0  0  0  0  0  0  0
   -0.4935   -2.9859    5.2760 C   0  0  0  0  0  0  0  0  0  0  0  0
   -1.4789   -2.8689    5.7550 H   0  0  0  0  0  0  0  0  0  0  0  0
    0.0123   -3.7847    5.8419 H   0  0  0  0  0  0  0  0  0  0  0  0
    0.0585   -2.0642    5.5199 H   0  0  0  0  0  0  0  0  0  0  0  0
   -0.6261   -2.1849    2.9917 N   0  0  0  0  0  0  0  0  0  0  0  0
   -0.7237   -2.2601    1.5650 C   0  0  2  0  0  0  0  0  0  0  0  0
    0.1695   -1.1513    1.0687 C   0  0  0  0  0  0  0  0  0  0  0  0
    0.3193   -0.1267    1.7365 O   0  0  0  0  0  0  0  0  0  0  0  0
   -2.1397   -2.0663    1.0750 C   0  0  0  0  0  0  0  0  0  0  0  0
   -0.5717   -1.2606    3.4238 H   0  0  0  0  0  0  0  0  0  0  0  0
   -0.3076   -3.2111    1.2363 H   0  0  0  0  0  0  0  0  0  0  0  0
   -2.5584   -1.1089    1.4061 H   0  0  0  0  0  0  0  0  0  0  0  0
   -2.1682   -2.0790   -0.0197 H   0  0  0  0  0  0  0  0  0  0  0  0
   -2.7965   -2.8601    1.4459 H   0  0  0  0  0  0  0  0  0  0  0  0
    0.7724   -1.3745   -0.1593 N   0  0  0  0  0  0  0  0  0  0  0  0
    0.5614   -2.5964   -0.9244 C   0  0  2  0  0  0  0  0  0  0  0  0
    1.6157   -3.5728   -0.4972 C   0  0  0  0  0  0  0  0  0  0  0  0
    2.7770   -3.1978   -0.3857 O   0  0  0  0  0  0  0  0  0  0  0  0
    0.7345   -2.1771   -2.3796 C   0  0  0  0  0  0  0  0  0  0  0  0
    0.3244   -0.8671   -1.7112 C   0  0  0  0  0  0  0  0  0  0  0  0
    1.5408   -0.3981   -0.9273 C   0  0  0  0  0  0  0  0  0  0  0  0
   -0.4227   -3.0263   -0.7144 H   0  0  0  0  0  0  0  0  0  0  0  0
    0.0120   -2.7078   -3.0110 H   0  0  0  0  0  0  0  0  0  0  0  0
    1.7400   -2.3597   -2.7711 H   0  0  0  0  0  0  0  0  0  0  0  0
    0.0755   -0.1144   -2.4681 H   0  0  0  0  0  0  0  0  0  0  0  0
   -0.5410   -0.9920   -1.0542 H   0  0  0  0  0  0  0  0  0  0  0  0
    2.4811   -0.6014   -1.4471 H   0  0  0  0  0  0  0  0  0  0  0  0
    1.4806    0.6724   -0.7030 H   0  0  0  0  0  0  0  0  0  0  0  0
    0.8415   -4.9158   -0.3033 N   0  0  0  0  0  0  0  0  0  0  0  0
    1.5027   -6.0882    0.2233 C   0  0  2  0  0  0  0  0  0  0  0  0
    1.8718   -5.8081    1.6741 C   0  0  0  0  0  0  0  0  0  0  0  0
    1.9986   -4.6723    2.1268 O   0  0  0  0  0  0  0  0  0  0  0  0
    2.7364   -6.4411   -0.5929 C   0  0  0  0  0  0  0  0  0  0  0  0
   -0.1008   -5.0155   -0.6688 H   0  0  0  0  0  0  0  0  0  0  0  0
    0.7758   -6.9066    0.1822 H   0  0  0  0  0  0  0  0  0  0  0  0
    3.4762   -5.6329   -0.5637 H   0  0  0  0  0  0  0  0  0  0  0  0
    3.2200   -7.3459   -0.2100 H   0  0  0  0  0  0  0  0  0  0  0  0
    2.4733   -6.6131   -1.6422 H   0  0  0  0  0  0  0  0  0  0  0  0
    2.0851   -6.9759    2.3931 N   0  0  0  0  0  0  0  0  0  0  0  0
    2.4588   -6.9752    3.7883 C   0  0  0  0  0  0  0  0  0  0  0  0
    1.9390   -7.8742    1.9421 H   0  0  0  0  0  0  0  0  0  0  0  0
    3.5551   -7.0033    3.8748 H   0  0  0  0  0  0  0  0  0  0  0  0
    2.0764   -6.0631    4.2697 H   0  0  0  0  0  0  0  0  0  0  0  0
    2.0293   -7.8587    4.2832 H   0  0  0  0  0  0  0  0  0  0  0  0
 18 19  1  0  0  0  0
 19 31  1  0  0  0  0
 19 20  2  0  0  0  0
  8  9  1  0  0  0  0
  9 17  1  0  0  0  0
  9 10  2  0  0  0  0
  1  3  1  0  0  0  0
  1  7  1  0  0  0  0
  1  2  2  0  0  0  0
 32 33  1  0  0  0  0
 33 41  1  0  0  0  0
 33 34  2  0  0  0  0
 21 22  1  0  0  0  0
 22 23  1  0  0  0  0
 18 21  1  0  0  0  0
 17 23  1  0  0  0  0
 17 18  1  0  0  0  0
  8 11  1  0  0  0  0
 32 35  1  0  0  0  0
 41 42  1  0  0  0  0
  7  8  1  0  0  0  0
 31 32  1  0  0  0  0
 22 27  1  0  0  0  0
 22 28  1  0  0  0  0
 21 25  1  0  0  0  0
 21 26  1  0  0  0  0
 23 29  1  0  0  0  0
 23 30  1  0  0  0  0
 18 24  1  0  0  0  0
  3  4  1  0  0  0  0
  3  5  1  0  0  0  0
  3  6  1  0  0  0  0
 11 14  1  0  0  0  0
 11 15  1  0  0  0  0
 11 16  1  0  0  0  0
 35 38  1  0  0  0  0
 35 39  1  0  0  0  0
 35 40  1  0  0  0  0
 42 44  1  0  0  0  0
 42 45  1  0  0  0  0
 42 46  1  0  0  0  0
  8 13  1  0  0  0  0
 32 37  1  0  0  0  0
 31 36  1  0  0  0  0
 41 43  1  0  0  0  0
  7 12  1  0  0  0  0
M  END
$$$$

  -OEChem-05262214473D

 46 46  0     1  0  0  0  0  0999 V2000
   -0.6012   -3.2995    3.8205 C   0  0  0  0  0  0  0  0  0  0  0  0
   -0.6574   -4.4683    3.4568 O   0  0  0  0  0  0  0  0  0  0  0  0
   -0.4935   -2.9859    5.2760 C   0  0  0  0  0  0  0  0  0  0  0  0
   -1.4789   -2.8689    5.7550 H   0  0  0  0  0  0  0  0  0  0  0  0
    0.0123   -3.7847    5.8419 H   0  0  0  0  0  0  0  0  0  0  0  0
    0.0585   -2.0642    5.5199 H   0  0  0  0  0  0  0  0  0  0  0  0
   -0.6261   -2.1849    2.9917 N   0  0  0  0  0  0  0  0  0  0  0  0
   -0.7237   -2.2601    1.5650 C   0  0  2  0  0  0  0  0  0  0  0  0
    0.1695   -1.1513    1.0687 C   0  0  0  0  0  0  0  0  0  0  0  0
    0.3193   -0.1267    1.7365 O   0  0  0  0  0  0  0  0  0  0  0  0
   -2.1397   -2.0663    1.0750 C   0  0  0  0  0  0  0  0  0  0  0  0
   -0.5717   -1.2606    3.4238 H   0  0  0  0  0  0  0  0  0  0  0  0
   -0.3076   -3.2111    1.2363 H   0  0  0  0  0  0  0  0  0  0  0  0
   -2.5584   -1.1089    1.4061 H   0  0  0  0  0  0  0  0  0  0  0  0
   -2.1682   -2.0790   -0.0197 H   0  0  0  0  0  0  0  0  0  0  0  0
   -2.7965   -2.8601    1.4459 H   0  0  0  0  0  0  0  0  0  0  0  0
    0.7724   -1.3745   -0.1593 N   0  0  0  0  0  0  0  0  0  0  0  0
    0.5614   -2.5964   -0.9244 C   0  0  2  0  0  0  0  0  0  0  0  0
    1.6157   -3.5728   -0.4972 C   0  0  0  0  0  0  0  0  0  0  0  0
    2.7054   -3.1586   -0.1196 O   0  0  0  0  0  0  0  0  0  0  0  0
    0.7345   -2.1771   -2.3796 C   0  0  0  0  0  0  0  0  0  0  0  0
    0.3244   -0.8671   -1.7112 C   0  0  0  0  0  0  0  0  0  0  0  0
    1.5408   -0.3981   -0.9273 C   0  0  0  0  0  0  0  0  0  0  0  0
   -0.4227   -3.0263   -0.7144 H   0  0  0  0  0  0  0  0  0  0  0  0
    0.0120   -2.7078   -3.0110 H   0  0  0  0  0  0  0  0  0  0  0  0
    1.7400   -2.3597   -2.7711 H   0  0  0  0  0  0  0  0  0  0  0  0
    0.0755   -0.1144   -2.4681 H   0  0  0  0  0  0  0  0  0  0  0  0
   -0.5410   -0.9920   -1.0542 H   0  0  0  0  0  0  0  0  0  0  0  0
    2.4811   -0.6014   -1.4471 H   0  0  0  0  0  0  0  0  0  0  0  0
    1.4806    0.6724   -0.7030 H   0  0  0  0  0  0  0  0  0  0  0  0
    0.9434   -4.9710   -0.6811 N   0  0  0  0  0  0  0  0  0  0  0  0
    1.6129   -6.1811   -0.2610 C   0  0  2  0  0  0  0  0  0  0  0  0
    1.7159   -6.1583    1.2584 C   0  0  0  0  0  0  0  0  0  0  0  0
    1.6658   -5.1227    1.9186 O   0  0  0  0  0  0  0  0  0  0  0  0
    2.9888   -6.3017   -0.8973 C   0  0  0  0  0  0  0  0  0  0  0  0
    0.0854   -5.0546   -1.2180 H   0  0  0  0  0  0  0  0  0  0  0  0
    0.9782   -7.0180   -0.5721 H   0  0  0  0  0  0  0  0  0  0  0  0
    3.6390   -5.4718   -0.5972 H   0  0  0  0  0  0  0  0  0  0  0  0
    3.4830   -7.2327   -0.6005 H   0  0  0  0  0  0  0  0  0  0  0  0
    2.9154   -6.2879   -1.9901 H   0  0  0  0  0  0  0  0  0  0  0  0
    1.9136   -7.4262    1.7871 N   0  0  0  0  0  0  0  0  0  0  0  0
    2.0552   -7.6666    3.2042 C   0  0  0  0  0  0  0  0  0  0  0  0
    1.9232   -8.2304    1.1667 H   0  0  0  0  0  0  0  0  0  0  0  0
    3.1210   -7.6467    3.4753 H   0  0  0  0  0  0  0  0  0  0  0  0
    1.5200   -6.8853    3.7637 H   0  0  0  0  0  0  0  0  0  0  0  0
    1.6319   -8.6509    3.4530 H   0  0  0  0  0  0  0  0  0  0  0  0
 18 19  1  0  0  0  0
 19 31  1  0  0  0  0
 19 20  2  0  0  0  0
  8  9  1  0  0  0  0
  9 17  1  0  0  0  0
  9 10  2  0  0  0  0
  1  3  1  0  0  0  0
  1  7  1  0  0  0  0
  1  2  2  0  0  0  0
 32 33  1  0  0  0  0
 33 41  1  0  0  0  0
 33 34  2  0  0  0  0
 21 22  1  0  0  0  0
 22 23  1  0  0  0  0
 18 21  1  0  0  0  0
 17 23  1  0  0  0  0
 17 18  1  0  0  0  0
  8 11  1  0  0  0  0
 32 35  1  0  0  0  0
 41 42  1  0  0  0  0
  7  8  1  0  0  0  0
 31 32  1  0  0  0  0
 22 27  1  0  0  0  0
 22 28  1  0  0  0  0
 21 25  1  0  0  0  0
 21 26  1  0  0  0  0
 23 29  1  0  0  0  0
 23 30  1  0  0  0  0
 18 24  1  0  0  0  0
  3  4  1  0  0  0  0
  3  5  1  0  0  0  0
  3  6  1  0  0  0  0
 11 14  1  0  0  0  0
 11 15  1  0  0  0  0
 11 16  1  0  0  0  0
 35 38  1  0  0  0  0
 35 39  1  0  0  0  0
 35 40  1  0  0  0  0
 42 44  1  0  0  0  0
 42 45  1  0  0  0  0
 42 46  1  0  0  0  0
  8 13  1  0  0  0  0
 32 37  1  0  0  0  0
 31 36  1  0  0  0  0
 41 43  1  0  0  0  0
  7 12  1  0  0  0  0
M  END
$$$$

  -OEChem-05262214473D

 46 46  0     1  0  0  0  0  0999 V2000
   -0.6012   -3.2995    3.8205 C   0  0  0  0  0  0  0  0  0  0  0  0
   -0.6574   -4.4683    3.4568 O   0  0  0  0  0  0  0  0  0  0  0  0
   -0.4935   -2.9859    5.2760 C   0  0  0  0  0  0  0  0  0  0  0  0
   -1.4789   -2.8689    5.7550 H   0  0  0  0  0  0  0  0  0  0  0  0
    0.0123   -3.7847    5.8419 H   0  0  0  0  0  0  0  0  0  0  0  0
    0.0585   -2.0642    5.5199 H   0  0  0  0  0  0  0  0  0  0  0  0
   -0.6261   -2.1849    2.9917 N   0  0  0  0  0  0  0  0  0  0  0  0
   -0.7237   -2.2601    1.5650 C   0  0  2  0  0  0  0  0  0  0  0  0
    0.1695   -1.1513    1.0687 C   0  0  0  0  0  0  0  0  0  0  0  0
    0.3193   -0.1267    1.7365 O   0  0  0  0  0  0  0  0  0  0  0  0
   -2.1397   -2.0663    1.0750 C   0  0  0  0  0  0  0  0  0  0  0  0
   -0.5717   -1.2606    3.4238 H   0  0  0  0  0  0  0  0  0  0  0  0
   -0.3076   -3.2111    1.2363 H   0  0  0  0  0  0  0  0  0  0  0  0
   -2.5584   -1.1089    1.4061 H   0  0  0  0  0  0  0  0  0  0  0  0
   -2.1682   -2.0790   -0.0197 H   0  0  0  0  0  0  0  0  0  0  0  0
   -2.7965   -2.8601    1.4459 H   0  0  0  0  0  0  0  0  0  0  0  0
    0.7724   -1.3745   -0.1593 N   0  0  0  0  0  0  0  0  0  0  0  0
    0.5614   -2.5964   -0.9244 C   0  0  2  0  0  0  0  0  0  0  0  0
    1.6157   -3.5728   -0.4972 C   0  0  0  0  0  0  0  0  0  0  0  0
    2.5886   -3.1745    0.1325 O   0  0  0  0  0  0  0  0  0  0  0  0
    0.7345   -2.1771   -2.3796 C   0  0  0  0  0  0  0  0  0  0  0  0
    0.3244   -0.8671   -1.7112 C   0  0  0  0  0  0  0  0  0  0  0  0
    1.5408   -0.3981   -0.9273 C   0  0  0  0  0  0  0  0  0  0  0  0
   -0.4227   -3.0263   -0.7144 H   0  0  0  0  0  0  0  0  0  0  0  0
    0.0120   -2.7078   -3.0110 H   0  0  0  0  0  0  0  0  0  0  0  0
    1.7400   -2.3597   -2.7711 H   0  0  0  0  0  0  0  0  0  0  0  0
    0.0755   -0.1144   -2.4681 H   0  0  0  0  0  0  0  0  0  0  0  0
   -0.5410   -0.9920   -1.0542 H   0  0  0  0  0  0  0  0  0  0  0  0
    2.4811   -0.6014   -1.4471 H   0  0  0  0  0  0  0  0  0  0  0  0
    1.4806    0.6724   -0.7030 H   0  0  0  0  0  0  0  0  0  0  0  0
    1.1097   -4.9480   -1.0389 N   0  0  0  0  0  0  0  0  0  0  0  0
    1.8078   -6.1746   -0.7271 C   0  0  2  0  0  0  0  0  0  0  0  0
    1.6612   -6.4324    0.7667 C   0  0  0  0  0  0  0  0  0  0  0  0
    1.4126   -5.5444    1.5795 O   0  0  0  0  0  0  0  0  0  0  0  0
    3.2737   -6.0929   -1.1234 C   0  0  0  0  0  0  0  0  0  0  0  0
    0.3607   -4.9788   -1.7241 H   0  0  0  0  0  0  0  0  0  0  0  0
    1.3091   -6.9734   -1.2869 H   0  0  0  0  0  0  0  0  0  0  0  0
    3.7900   -5.2981   -0.5728 H   0  0  0  0  0  0  0  0  0  0  0  0
    3.7946   -7.0328   -0.9128 H   0  0  0  0  0  0  0  0  0  0  0  0
    3.3771   -5.8779   -2.1924 H   0  0  0  0  0  0  0  0  0  0  0  0
    1.8833   -7.7635    1.0908 N   0  0  0  0  0  0  0  0  0  0  0  0
    1.8147   -8.2579    2.4461 C   0  0  0  0  0  0  0  0  0  0  0  0
    2.0649   -8.4345    0.3502 H   0  0  0  0  0  0  0  0  0  0  0  0
    2.8166   -8.2275    2.8992 H   0  0  0  0  0  0  0  0  0  0  0  0
    1.1284   -7.6284    3.0316 H   0  0  0  0  0  0  0  0  0  0  0  0
    1.4465   -9.2944    2.4400 H   0  0  0  0  0  0  0  0  0  0  0  0
 18 19  1  0  0  0  0
 19 31  1  0  0  0  0
 19 20  2  0  0  0  0
  8  9  1  0  0  0  0
  9 17  1  0  0  0  0
  9 10  2  0  0  0  0
  1  3  1  0  0  0  0
  1  7  1  0  0  0  0
  1  2  2  0  0  0  0
 32 33  1  0  0  0  0
 33 41  1  0  0  0  0
 33 34  2  0  0  0  0
 21 22  1  0  0  0  0
 22 23  1  0  0  0  0
 18 21  1  0  0  0  0
 17 23  1  0  0  0  0
 17 18  1  0  0  0  0
  8 11  1  0  0  0  0
 32 35  1  0  0  0  0
 41 42  1  0  0  0  0
  7  8  1  0  0  0  0
 31 32  1  0  0  0  0
 22 27  1  0  0  0  0
 22 28  1  0  0  0  0
 21 25  1  0  0  0  0
 21 26  1  0  0  0  0
 23 29  1  0  0  0  0
 23 30  1  0  0  0  0
 18 24  1  0  0  0  0
  3  4  1  0  0  0  0
  3  5  1  0  0  0  0
  3  6  1  0  0  0  0
 11 14  1  0  0  0  0
 11 15  1  0  0  0  0
 11 16  1  0  0  0  0
 35 38  1  0  0  0  0
 35 39  1  0  0  0  0
 35 40  1  0  0  0  0
 42 44  1  0  0  0  0
 42 45  1  0  0  0  0
 42 46  1  0  0  0  0
  8 13  1  0  0  0  0
 32 37  1  0  0  0  0
 31 36  1  0  0  0  0
 41 43  1  0  0  0  0
  7 12  1  0  0  0  0
M  END
$$$$

  -OEChem-05262214473D

 46 46  0     1  0  0  0  0  0999 V2000
   -0.6012   -3.2995    3.8205 C   0  0  0  0  0  0  0  0  0  0  0  0
   -0.6574   -4.4683    3.4568 O   0  0  0  0  0  0  0  0  0  0  0  0
   -0.4935   -2.9859    5.2760 C   0  0  0  0  0  0  0  0  0  0  0  0
   -1.4789   -2.8689    5.7550 H   0  0  0  0  0  0  0  0  0  0  0  0
    0.0123   -3.7847    5.8419 H   0  0  0  0  0  0  0  0  0  0  0  0
    0.0585   -2.0642    5.5199 H   0  0  0  0  0  0  0  0  0  0  0  0
   -0.6261   -2.1849    2.9917 N   0  0  0  0  0  0  0  0  0  0  0  0
   -0.7237   -2.2601    1.5650 C   0  0  2  0  0  0  0  0  0  0  0  0
    0.1695   -1.1513    1.0687 C   0  0  0  0  0  0  0  0  0  0  0  0
    0.3193   -0.1267    1.7365 O   0  0  0  0  0  0  0  0  0  0  0  0
   -2.1397   -2.0663    1.0750 C   0  0  0  0  0  0  0  0  0  0  0  0
   -0.5717   -1.2606    3.4238 H   0  0  0  0  0  0  0  0  0  0  0  0
   -0.3076   -3.2111    1.2363 H   0  0  0  0  0  0  0  0  0  0  0  0
   -2.5584   -1.1089    1.4061 H   0  0  0  0  0  0  0  0  0  0  0  0
   -2.1682   -2.0790   -0.0197 H   0  0  0  0  0  0  0  0  0  0  0  0
   -2.7965   -2.8601    1.4459 H   0  0  0  0  0  0  0  0  0  0  0  0
    0.7724   -1.3745   -0.1593 N   0  0  0  0  0  0  0  0  0  0  0  0
    0.5614   -2.5964   -0.9244 C   0  0  2  0  0  0  0  0  0  0  0  0
    1.6157   -3.5728   -0.4972 C   0  0  0  0  0  0  0  0  0  0  0  0
    2.4344   -3.2444    0.3534 O   0  0  0  0  0  0  0  0  0  0  0  0
    0.7345   -2.1771   -2.3796 C   0  0  0  0  0  0  0  0  0  0  0  0
    0.3244   -0.8671   -1.7112 C   0  0  0  0  0  0  0  0  0  0  0  0
    1.5408   -0.3981   -0.9273 C   0  0  0  0  0  0  0  0  0  0  0  0
   -0.4227   -3.0263   -0.7144 H   0  0  0  0  0  0  0  0  0  0  0  0
    0.0120   -2.7078   -3.0110 H   0  0  0  0  0  0  0  0  0  0  0  0
    1.7400   -2.3597   -2.7711 H   0  0  0  0  0  0  0  0  0  0  0  0
    0.0755   -0.1144   -2.4681 H   0  0  0  0  0  0  0  0  0  0  0  0
   -0.5410   -0.9920   -1.0542 H   0  0  0  0  0  0  0  0  0  0  0  0
    2.4811   -0.6014   -1.4471 H   0  0  0  0  0  0  0  0  0  0  0  0
    1.4806    0.6724   -0.7030 H   0  0  0  0  0  0  0  0  0  0  0  0
    1.3289   -4.8484   -1.3523 N   0  0  0  0  0  0  0  0  0  0  0  0
    2.0741   -6.0690   -1.1433 C   0  0  2  0  0  0  0  0  0  0  0  0
    1.7115   -6.6117    0.2327 C   0  0  0  0  0  0  0  0  0  0  0  0
    1.2564   -5.9086    1.1325 O   0  0  0  0  0  0  0  0  0  0  0  0
    3.5716   -5.8292   -1.2557 C   0  0  0  0  0  0  0  0  0  0  0  0
    0.7064   -4.7931   -2.1529 H   0  0  0  0  0  0  0  0  0  0  0  0
    1.7460   -6.7757   -1.9134 H   0  0  0  0  0  0  0  0  0  0  0  0
    3.9189   -5.1236   -0.4922 H   0  0  0  0  0  0  0  0  0  0  0  0
    4.1335   -6.7600   -1.1255 H   0  0  0  0  0  0  0  0  0  0  0  0
    3.8269   -5.4110   -2.2354 H   0  0  0  0  0  0  0  0  0  0  0  0
    1.9963   -7.9648    0.3517 N   0  0  0  0  0  0  0  0  0  0  0  0
    1.7538   -8.7087    1.5657 C   0  0  0  0  0  0  0  0  0  0  0  0
    2.3545   -8.4726   -0.4517 H   0  0  0  0  0  0  0  0  0  0  0  0
    2.6625   -8.7060    2.1857 H   0  0  0  0  0  0  0  0  0  0  0  0
    0.9284   -8.2418    2.1231 H   0  0  0  0  0  0  0  0  0  0  0  0
    1.4855   -9.7452    1.3131 H   0  0  0  0  0  0  0  0  0  0  0  0
 18 19  1  0  0  0  0
 19 31  1  0  0  0  0
 19 20  2  0  0  0  0
  8  9  1  0  0  0  0
  9 17  1  0  0  0  0
  9 10  2  0  0  0  0
  1  3  1  0  0  0  0
  1  7  1  0  0  0  0
  1  2  2  0  0  0  0
 32 33  1  0  0  0  0
 33 41  1  0  0  0  0
 33 34  2  0  0  0  0
 21 22  1  0  0  0  0
 22 23  1  0  0  0  0
 18 21  1  0  0  0  0
 17 23  1  0  0  0  0
 17 18  1  0  0  0  0
  8 11  1  0  0  0  0
 32 35  1  0  0  0  0
 41 42  1  0  0  0  0
  7  8  1  0  0  0  0
 31 32  1  0  0  0  0
 22 27  1  0  0  0  0
 22 28  1  0  0  0  0
 21 25  1  0  0  0  0
 21 26  1  0  0  0  0
 23 29  1  0  0  0  0
 23 30  1  0  0  0  0
 18 24  1  0  0  0  0
  3  4  1  0  0  0  0
  3  5  1  0  0  0  0
  3  6  1  0  0  0  0
 11 14  1  0  0  0  0
 11 15  1  0  0  0  0
 11 16  1  0  0  0  0
 35 38  1  0  0  0  0
 35 39  1  0  0  0  0
 35 40  1  0  0  0  0
 42 44  1  0  0  0  0
 42 45  1  0  0  0  0
 42 46  1  0  0  0  0
  8 13  1  0  0  0  0
 32 37  1  0  0  0  0
 31 36  1  0  0  0  0
 41 43  1  0  0  0  0
  7 12  1  0  0  0  0
M  END
$$$$

  -OEChem-05262214473D

 46 46  0     1  0  0  0  0  0999 V2000
   -0.6012   -3.2995    3.8205 C   0  0  0  0  0  0  0  0  0  0  0  0
   -0.6574   -4.4683    3.4568 O   0  0  0  0  0  0  0  0  0  0  0  0
   -0.4935   -2.9859    5.2760 C   0  0  0  0  0  0  0  0  0  0  0  0
   -1.4789   -2.8689    5.7550 H   0  0  0  0  0  0  0  0  0  0  0  0
    0.0123   -3.7847    5.8419 H   0  0  0  0  0  0  0  0  0  0  0  0
    0.0585   -2.0642    5.5199 H   0  0  0  0  0  0  0  0  0  0  0  0
   -0.6261   -2.1849    2.9917 N   0  0  0  0  0  0  0  0  0  0  0  0
   -0.7237   -2.2601    1.5650 C   0  0  2  0  0  0  0  0  0  0  0  0
    0.1695   -1.1513    1.0687 C   0  0  0  0  0  0  0  0  0  0  0  0
    0.3193   -0.1267    1.7365 O   0  0  0  0  0  0  0  0  0  0  0  0
   -2.1397   -2.0663    1.0750 C   0  0  0  0  0  0  0  0  0  0  0  0
   -0.5717   -1.2606    3.4238 H   0  0  0  0  0  0  0  0  0  0  0  0
   -0.3076   -3.2111    1.2363 H   0  0  0  0  0  0  0  0  0  0  0  0
   -2.5584   -1.1089    1.4061 H   0  0  0  0  0  0  0  0  0  0  0  0
   -2.1682   -2.0790   -0.0197 H   0  0  0  0  0  0  0  0  0  0  0  0
   -2.7965   -2.8601    1.4459 H   0  0  0  0  0  0  0  0  0  0  0  0
    0.7724   -1.3745   -0.1593 N   0  0  0  0  0  0  0  0  0  0  0  0
    0.5614   -2.5964   -0.9244 C   0  0  2  0  0  0  0  0  0  0  0  0
    1.6157   -3.5728   -0.4972 C   0  0  0  0  0  0  0  0  0  0  0  0
    2.2533   -3.3634    0.5281 O   0  0  0  0  0  0  0  0  0  0  0  0
    0.7345   -2.1771   -2.3796 C   0  0  0  0  0  0  0  0  0  0  0  0
    0.3244   -0.8671   -1.7112 C   0  0  0  0  0  0  0  0  0  0  0  0
    1.5408   -0.3981   -0.9273 C   0  0  0  0  0  0  0  0  0  0  0  0
   -0.4227   -3.0263   -0.7144 H   0  0  0  0  0  0  0  0  0  0  0  0
    0.0120   -2.7078   -3.0110 H   0  0  0  0  0  0  0  0  0  0  0  0
    1.7400   -2.3597   -2.7711 H   0  0  0  0  0  0  0  0  0  0  0  0
    0.0755   -0.1144   -2.4681 H   0  0  0  0  0  0  0  0  0  0  0  0
   -0.5410   -0.9920   -1.0542 H   0  0  0  0  0  0  0  0  0  0  0  0
    2.4811   -0.6014   -1.4471 H   0  0  0  0  0  0  0  0  0  0  0  0
    1.4806    0.6724   -0.7030 H   0  0  0  0  0  0  0  0  0  0  0  0
    1.5861   -4.6790   -1.6000 N   0  0  0  0  0  0  0  0  0  0  0  0
    2.3938   -5.8717   -1.4813 C   0  0  2  0  0  0  0  0  0  0  0  0
    1.8634   -6.6840   -0.3073 C   0  0  0  0  0  0  0  0  0  0  0  0
    1.2077   -6.1906    0.6080 O   0  0  0  0  0  0  0  0  0  0  0  0
    3.8623   -5.5283   -1.2853 C   0  0  0  0  0  0  0  0  0  0  0  0
    1.0989   -4.5102   -2.4749 H   0  0  0  0  0  0  0  0  0  0  0  0
    2.2590   -6.4386   -2.4089 H   0  0  0  0  0  0  0  0  0  0  0  0
    4.0170   -4.9602   -0.3608 H   0  0  0  0  0  0  0  0  0  0  0  0
    4.4765   -6.4328   -1.2242 H   0  0  0  0  0  0  0  0  0  0  0  0
    4.2342   -4.9190   -2.1161 H   0  0  0  0  0  0  0  0  0  0  0  0
    2.2449   -8.0164   -0.3797 N   0  0  0  0  0  0  0  0  0  0  0  0
    1.8767   -8.9885    0.6230 C   0  0  0  0  0  0  0  0  0  0  0  0
    2.7723   -8.3421   -1.1844 H   0  0  0  0  0  0  0  0  0  0  0  0
    2.6691   -9.0498    1.3834 H   0  0  0  0  0  0  0  0  0  0  0  0
    0.9336   -8.6836    1.1002 H   0  0  0  0  0  0  0  0  0  0  0  0
    1.7465   -9.9726    0.1491 H   0  0  0  0  0  0  0  0  0  0  0  0
 18 19  1  0  0  0  0
 19 31  1  0  0  0  0
 19 20  2  0  0  0  0
  8  9  1  0  0  0  0
  9 17  1  0  0  0  0
  9 10  2  0  0  0  0
  1  3  1  0  0  0  0
  1  7  1  0  0  0  0
  1  2  2  0  0  0  0
 32 33  1  0  0  0  0
 33 41  1  0  0  0  0
 33 34  2  0  0  0  0
 21 22  1  0  0  0  0
 22 23  1  0  0  0  0
 18 21  1  0  0  0  0
 17 23  1  0  0  0  0
 17 18  1  0  0  0  0
  8 11  1  0  0  0  0
 32 35  1  0  0  0  0
 41 42  1  0  0  0  0
  7  8  1  0  0  0  0
 31 32  1  0  0  0  0
 22 27  1  0  0  0  0
 22 28  1  0  0  0  0
 21 25  1  0  0  0  0
 21 26  1  0  0  0  0
 23 29  1  0  0  0  0
 23 30  1  0  0  0  0
 18 24  1  0  0  0  0
  3  4  1  0  0  0  0
  3  5  1  0  0  0  0
  3  6  1  0  0  0  0
 11 14  1  0  0  0  0
 11 15  1  0  0  0  0
 11 16  1  0  0  0  0
 35 38  1  0  0  0  0
 35 39  1  0  0  0  0
 35 40  1  0  0  0  0
 42 44  1  0  0  0  0
 42 45  1  0  0  0  0
 42 46  1  0  0  0  0
  8 13  1  0  0  0  0
 32 37  1  0  0  0  0
 31 36  1  0  0  0  0
 41 43  1  0  0  0  0
  7 12  1  0  0  0  0
M  END
$$$$

  -OEChem-05262214473D

 46 46  0     1  0  0  0  0  0999 V2000
   -0.6012   -3.2995    3.8205 C   0  0  0  0  0  0  0  0  0  0  0  0
   -0.6574   -4.4683    3.4568 O   0  0  0  0  0  0  0  0  0  0  0  0
   -0.4935   -2.9859    5.2760 C   0  0  0  0  0  0  0  0  0  0  0  0
   -1.4789   -2.8689    5.7550 H   0  0  0  0  0  0  0  0  0  0  0  0
    0.0123   -3.7847    5.8419 H   0  0  0  0  0  0  0  0  0  0  0  0
    0.0585   -2.0642    5.5199 H   0  0  0  0  0  0  0  0  0  0  0  0
   -0.6261   -2.1849    2.9917 N   0  0  0  0  0  0  0  0  0  0  0  0
   -0.7237   -2.2601    1.5650 C   0  0  2  0  0  0  0  0  0  0  0  0
    0.1695   -1.1513    1.0687 C   0  0  0  0  0  0  0  0  0  0  0  0
    0.3193   -0.1267    1.7365 O   0  0  0  0  0  0  0  0  0  0  0  0
   -2.1397   -2.0663    1.0750 C   0  0  0  0  0  0  0  0  0  0  0  0
   -0.5717   -1.2606    3.4238 H   0  0  0  0  0  0  0  0  0  0  0  0
   -0.3076   -3.2111    1.2363 H   0  0  0  0  0  0  0  0  0  0  0  0
   -2.5584   -1.1089    1.4061 H   0  0  0  0  0  0  0  0  0  0  0  0
   -2.1682   -2.0790   -0.0197 H   0  0  0  0  0  0  0  0  0  0  0  0
   -2.7965   -2.8601    1.4459 H   0  0  0  0  0  0  0  0  0  0  0  0
    0.7724   -1.3745   -0.1593 N   0  0  0  0  0  0  0  0  0  0  0  0
    0.5614   -2.5964   -0.9244 C   0  0  2  0  0  0  0  0  0  0  0  0
    1.6157   -3.5728   -0.4972 C   0  0  0  0  0  0  0  0  0  0  0  0
    2.0578   -3.5236    0.6446 O   0  0  0  0  0  0  0  0  0  0  0  0
    0.7345   -2.1771   -2.3796 C   0  0  0  0  0  0  0  0  0  0  0  0
    0.3244   -0.8671   -1.7112 C   0  0  0  0  0  0  0  0  0  0  0  0
    1.5408   -0.3981   -0.9273 C   0  0  0  0  0  0  0  0  0  0  0  0
   -0.4227   -3.0263   -0.7144 H   0  0  0  0  0  0  0  0  0  0  0  0
    0.0120   -2.7078   -3.0110 H   0  0  0  0  0  0  0  0  0  0  0  0
    1.7400   -2.3597   -2.7711 H   0  0  0  0  0  0  0  0  0  0  0  0
    0.0755   -0.1144   -2.4681 H   0  0  0  0  0  0  0  0  0  0  0  0
   -0.5410   -0.9920   -1.0542 H   0  0  0  0  0  0  0  0  0  0  0  0
    2.4811   -0.6014   -1.4471 H   0  0  0  0  0  0  0  0  0  0  0  0
    1.4806    0.6724   -0.7030 H   0  0  0  0  0  0  0  0  0  0  0  0
    1.8638   -4.4513   -1.7650 N   0  0  0  0  0  0  0  0  0  0  0  0
    2.7450   -5.5960   -1.7179 C   0  0  2  0  0  0  0  0  0  0  0  0
    2.1064   -6.6443   -0.8164 C   0  0  0  0  0  0  0  0  0  0  0  0
    1.2699   -6.3712    0.0419 O   0  0  0  0  0  0  0  0  0  0  0  0
    4.1258   -5.2109   -1.2102 C   0  0  0  0  0  0  0  0  0  0  0  0
    1.5114   -4.1493   -2.6683 H   0  0  0  0  0  0  0  0  0  0  0  0
    2.8132   -5.9849   -2.7397 H   0  0  0  0  0  0  0  0  0  0  0  0
    4.0776   -4.8191   -0.1876 H   0  0  0  0  0  0  0  0  0  0  0  0
    4.8004   -6.0734   -1.2021 H   0  0  0  0  0  0  0  0  0  0  0  0
    4.5713   -4.4354   -1.8426 H   0  0  0  0  0  0  0  0  0  0  0  0
    2.6121   -7.9148   -1.0538 N   0  0  0  0  0  0  0  0  0  0  0  0
    2.1749   -9.0780   -0.3178 C   0  0  0  0  0  0  0  0  0  0  0  0
    3.2897   -8.0519   -1.7980 H   0  0  0  0  0  0  0  0  0  0  0  0
    2.8362   -9.2353    0.5470 H   0  0  0  0  0  0  0  0  0  0  0  0
    1.1437   -8.9239    0.0326 H   0  0  0  0  0  0  0  0  0  0  0  0
    2.2115   -9.9612   -0.9726 H   0  0  0  0  0  0  0  0  0  0  0  0
 18 19  1  0  0  0  0
 19 31  1  0  0  0  0
 19 20  2  0  0  0  0
  8  9  1  0  0  0  0
  9 17  1  0  0  0  0
  9 10  2  0  0  0  0
  1  3  1  0  0  0  0
  1  7  1  0  0  0  0
  1  2  2  0  0  0  0
 32 33  1  0  0  0  0
 33 41  1  0  0  0  0
 33 34  2  0  0  0  0
 21 22  1  0  0  0  0
 22 23  1  0  0  0  0
 18 21  1  0  0  0  0
 17 23  1  0  0  0  0
 17 18  1  0  0  0  0
  8 11  1  0  0  0  0
 32 35  1  0  0  0  0
 41 42  1  0  0  0  0
  7  8  1  0  0  0  0
 31 32  1  0  0  0  0
 22 27  1  0  0  0  0
 22 28  1  0  0  0  0
 21 25  1  0  0  0  0
 21 26  1  0  0  0  0
 23 29  1  0  0  0  0
 23 30  1  0  0  0  0
 18 24  1  0  0  0  0
  3  4  1  0  0  0  0
  3  5  1  0  0  0  0
  3  6  1  0  0  0  0
 11 14  1  0  0  0  0
 11 15  1  0  0  0  0
 11 16  1  0  0  0  0
 35 38  1  0  0  0  0
 35 39  1  0  0  0  0
 35 40  1  0  0  0  0
 42 44  1  0  0  0  0
 42 45  1  0  0  0  0
 42 46  1  0  0  0  0
  8 13  1  0  0  0  0
 32 37  1  0  0  0  0
 31 36  1  0  0  0  0
 41 43  1  0  0  0  0
  7 12  1  0  0  0  0
M  END
$$$$

  -OEChem-05262214473D

 46 46  0     1  0  0  0  0  0999 V2000
   -0.6012   -3.2995    3.8205 C   0  0  0  0  0  0  0  0  0  0  0  0
   -0.6574   -4.4683    3.4568 O   0  0  0  0  0  0  0  0  0  0  0  0
   -0.4935   -2.9859    5.2760 C   0  0  0  0  0  0  0  0  0  0  0  0
   -1.4789   -2.8689    5.7550 H   0  0  0  0  0  0  0  0  0  0  0  0
    0.0123   -3.7847    5.8419 H   0  0  0  0  0  0  0  0  0  0  0  0
    0.0585   -2.0642    5.5199 H   0  0  0  0  0  0  0  0  0  0  0  0
   -0.6261   -2.1849    2.9917 N   0  0  0  0  0  0  0  0  0  0  0  0
   -0.7237   -2.2601    1.5650 C   0  0  2  0  0  0  0  0  0  0  0  0
    0.1695   -1.1513    1.0687 C   0  0  0  0  0  0  0  0  0  0  0  0
    0.3193   -0.1267    1.7365 O   0  0  0  0  0  0  0  0  0  0  0  0
   -2.1397   -2.0663    1.0750 C   0  0  0  0  0  0  0  0  0  0  0  0
   -0.5717   -1.2606    3.4238 H   0  0  0  0  0  0  0  0  0  0  0  0
   -0.3076   -3.2111    1.2363 H   0  0  0  0  0  0  0  0  0  0  0  0
   -2.5584   -1.1089    1.4061 H   0  0  0  0  0  0  0  0  0  0  0  0
   -2.1682   -2.0790   -0.0197 H   0  0  0  0  0  0  0  0  0  0  0  0
   -2.7965   -2.8601    1.4459 H   0  0  0  0  0  0  0  0  0  0  0  0
    0.7724   -1.3745   -0.1593 N   0  0  0  0  0  0  0  0  0  0  0  0
    0.5614   -2.5964   -0.9244 C   0  0  2  0  0  0  0  0  0  0  0  0
    1.6157   -3.5728   -0.4972 C   0  0  0  0  0  0  0  0  0  0  0  0
    1.8611   -3.7139    0.6951 O   0  0  0  0  0  0  0  0  0  0  0  0
    0.7345   -2.1771   -2.3796 C   0  0  0  0  0  0  0  0  0  0  0  0
    0.3244   -0.8671   -1.7112 C   0  0  0  0  0  0  0  0  0  0  0  0
    1.5408   -0.3981   -0.9273 C   0  0  0  0  0  0  0  0  0  0  0  0
   -0.4227   -3.0263   -0.7144 H   0  0  0  0  0  0  0  0  0  0  0  0
    0.0120   -2.7078   -3.0110 H   0  0  0  0  0  0  0  0  0  0  0  0
    1.7400   -2.3597   -2.7711 H   0  0  0  0  0  0  0  0  0  0  0  0
    0.0755   -0.1144   -2.4681 H   0  0  0  0  0  0  0  0  0  0  0  0
   -0.5410   -0.9920   -1.0542 H   0  0  0  0  0  0  0  0  0  0  0  0
    2.4811   -0.6014   -1.4471 H   0  0  0  0  0  0  0  0  0  0  0  0
    1.4806    0.6724   -0.7030 H   0  0  0  0  0  0  0  0  0  0  0  0
    2.1431   -4.1809   -1.8361 N   0  0  0  0  0  0  0  0  0  0  0  0
    3.1037   -5.2608   -1.8371 C   0  0  2  0  0  0  0  0  0  0  0  0
    2.4240   -6.4954   -1.2600 C   0  0  0  0  0  0  0  0  0  0  0  0
    1.4387   -6.4379   -0.5273 O   0  0  0  0  0  0  0  0  0  0  0  0
    4.3442   -4.8986   -1.0354 C   0  0  0  0  0  0  0  0  0  0  0  0
    1.9159   -3.7351   -2.7199 H   0  0  0  0  0  0  0  0  0  0  0  0
    3.3708   -5.4456   -2.8833 H   0  0  0  0  0  0  0  0  0  0  0  0
    4.0965   -4.7098    0.0155 H   0  0  0  0  0  0  0  0  0  0  0  0
    5.0830   -5.7064   -1.0608 H   0  0  0  0  0  0  0  0  0  0  0  0
    4.8150   -3.9933   -1.4336 H   0  0  0  0  0  0  0  0  0  0  0  0
    3.0729   -7.6668   -1.6245 N   0  0  0  0  0  0  0  0  0  0  0  0
    2.6282   -8.9713   -1.1926 C   0  0  0  0  0  0  0  0  0  0  0  0
    3.8714   -7.6217   -2.2506 H   0  0  0  0  0  0  0  0  0  0  0  0
    3.1522   -9.2499   -0.2665 H   0  0  0  0  0  0  0  0  0  0  0  0
    1.5442   -8.9461   -1.0070 H   0  0  0  0  0  0  0  0  0  0  0  0
    2.8490   -9.7117   -1.9756 H   0  0  0  0  0  0  0  0  0  0  0  0
 18 19  1  0  0  0  0
 19 31  1  0  0  0  0
 19 20  2  0  0  0  0
  8  9  1  0  0  0  0
  9 17  1  0  0  0  0
  9 10  2  0  0  0  0
  1  3  1  0  0  0  0
  1  7  1  0  0  0  0
  1  2  2  0  0  0  0
 32 33  1  0  0  0  0
 33 41  1  0  0  0  0
 33 34  2  0  0  0  0
 21 22  1  0  0  0  0
 22 23  1  0  0  0  0
 18 21  1  0  0  0  0
 17 23  1  0  0  0  0
 17 18  1  0  0  0  0
  8 11  1  0  0  0  0
 32 35  1  0  0  0  0
 41 42  1  0  0  0  0
  7  8  1  0  0  0  0
 31 32  1  0  0  0  0
 22 27  1  0  0  0  0
 22 28  1  0  0  0  0
 21 25  1  0  0  0  0
 21 26  1  0  0  0  0
 23 29  1  0  0  0  0
 23 30  1  0  0  0  0
 18 24  1  0  0  0  0
  3  4  1  0  0  0  0
  3  5  1  0  0  0  0
  3  6  1  0  0  0  0
 11 14  1  0  0  0  0
 11 15  1  0  0  0  0
 11 16  1  0  0  0  0
 35 38  1  0  0  0  0
 35 39  1  0  0  0  0
 35 40  1  0  0  0  0
 42 44  1  0  0  0  0
 42 45  1  0  0  0  0
 42 46  1  0  0  0  0
  8 13  1  0  0  0  0
 32 37  1  0  0  0  0
 31 36  1  0  0  0  0
 41 43  1  0  0  0  0
  7 12  1  0  0  0  0
M  END
$$$$

  -OEChem-05262214473D

 46 46  0     1  0  0  0  0  0999 V2000
   -0.6012   -3.2995    3.8205 C   0  0  0  0  0  0  0  0  0  0  0  0
   -0.6574   -4.4683    3.4568 O   0  0  0  0  0  0  0  0  0  0  0  0
   -0.4935   -2.9859    5.2760 C   0  0  0  0  0  0  0  0  0  0  0  0
   -1.4789   -2.8689    5.7550 H   0  0  0  0  0  0  0  0  0  0  0  0
    0.0123   -3.7847    5.8419 H   0  0  0  0  0  0  0  0  0  0  0  0
    0.0585   -2.0642    5.5199 H   0  0  0  0  0  0  0  0  0  0  0  0
   -0.6261   -2.1849    2.9917 N   0  0  0  0  0  0  0  0  0  0  0  0
   -0.7237   -2.2601    1.5650 C   0  0  2  0  0  0  0  0  0  0  0  0
    0.1695   -1.1513    1.0687 C   0  0  0  0  0  0  0  0  0  0  0  0
    0.3193   -0.1267    1.7365 O   0  0  0  0  0  0  0  0  0  0  0  0
   -2.1397   -2.0663    1.0750 C   0  0  0  0  0  0  0  0  0  0  0  0
   -0.5717   -1.2606    3.4238 H   0  0  0  0  0  0  0  0  0  0  0  0
   -0.3076   -3.2111    1.2363 H   0  0  0  0  0  0  0  0  0  0  0  0
   -2.5584   -1.1089    1.4061 H   0  0  0  0  0  0  0  0  0  0  0  0
   -2.1682   -2.0790   -0.0197 H   0  0  0  0  0  0  0  0  0  0  0  0
   -2.7965   -2.8601    1.4459 H   0  0  0  0  0  0  0  0  0  0  0  0
    0.7724   -1.3745   -0.1593 N   0  0  0  0  0  0  0  0  0  0  0  0
    0.5614   -2.5964   -0.9244 C   0  0  2  0  0  0  0  0  0  0  0  0
    1.6157   -3.5728   -0.4972 C   0  0  0  0  0  0  0  0  0  0  0  0
    1.6766   -3.9214    0.6760 O   0  0  0  0  0  0  0  0  0  0  0  0
    0.7345   -2.1771   -2.3796 C   0  0  0  0  0  0  0  0  0  0  0  0
    0.3244   -0.8671   -1.7112 C   0  0  0  0  0  0  0  0  0  0  0  0
    1.5408   -0.3981   -0.9273 C   0  0  0  0  0  0  0  0  0  0  0  0
   -0.4227   -3.0263   -0.7144 H   0  0  0  0  0  0  0  0  0  0  0  0
    0.0120   -2.7078   -3.0110 H   0  0  0  0  0  0  0  0  0  0  0  0
    1.7400   -2.3597   -2.7711 H   0  0  0  0  0  0  0  0  0  0  0  0
    0.0755   -0.1144   -2.4681 H   0  0  0  0  0  0  0  0  0  0  0  0
   -0.5410   -0.9920   -1.0542 H   0  0  0  0  0  0  0  0  0  0  0  0
    2.4811   -0.6014   -1.4471 H   0  0  0  0  0  0  0  0  0  0  0  0
    1.4806    0.6724   -0.7030 H   0  0  0  0  0  0  0  0  0  0  0  0
    2.4049   -3.8861   -1.8085 N   0  0  0  0  0  0  0  0  0  0  0  0
    3.4457   -4.8888   -1.8307 C   0  0  2  0  0  0  0  0  0  0  0  0
    2.7946   -6.2474   -1.6078 C   0  0  0  0  0  0  0  0  0  0  0  0
    1.7026   -6.3863   -1.0608 O   0  0  0  0  0  0  0  0  0  0  0  0
    4.5027   -4.6126   -0.7729 C   0  0  0  0  0  0  0  0  0  0  0  0
    2.2848   -3.2959   -2.6262 H   0  0  0  0  0  0  0  0  0  0  0  0
    3.8938   -4.8574   -2.8298 H   0  0  0  0  0  0  0  0  0  0  0  0
    4.0724   -4.6398    0.2348 H   0  0  0  0  0  0  0  0  0  0  0  0
    5.3051   -5.3568   -0.8099 H   0  0  0  0  0  0  0  0  0  0  0  0
    4.9490   -3.6227   -0.9170 H   0  0  0  0  0  0  0  0  0  0  0  0
    3.5960   -7.2895   -2.0529 N   0  0  0  0  0  0  0  0  0  0  0  0
    3.2056   -8.6756   -1.9417 C   0  0  0  0  0  0  0  0  0  0  0  0
    4.4780   -7.0808   -2.5114 H   0  0  0  0  0  0  0  0  0  0  0  0
    3.5957   -9.0927   -1.0016 H   0  0  0  0  0  0  0  0  0  0  0  0
    2.1080   -8.7488   -1.9476 H   0  0  0  0  0  0  0  0  0  0  0  0
    3.6154   -9.2411   -2.7916 H   0  0  0  0  0  0  0  0  0  0  0  0
 18 19  1  0  0  0  0
 19 31  1  0  0  0  0
 19 20  2  0  0  0  0
  8  9  1  0  0  0  0
  9 17  1  0  0  0  0
  9 10  2  0  0  0  0
  1  3  1  0  0  0  0
  1  7  1  0  0  0  0
  1  2  2  0  0  0  0
 32 33  1  0  0  0  0
 33 41  1  0  0  0  0
 33 34  2  0  0  0  0
 21 22  1  0  0  0  0
 22 23  1  0  0  0  0
 18 21  1  0  0  0  0
 17 23  1  0  0  0  0
 17 18  1  0  0  0  0
  8 11  1  0  0  0  0
 32 35  1  0  0  0  0
 41 42  1  0  0  0  0
  7  8  1  0  0  0  0
 31 32  1  0  0  0  0
 22 27  1  0  0  0  0
 22 28  1  0  0  0  0
 21 25  1  0  0  0  0
 21 26  1  0  0  0  0
 23 29  1  0  0  0  0
 23 30  1  0  0  0  0
 18 24  1  0  0  0  0
  3  4  1  0  0  0  0
  3  5  1  0  0  0  0
  3  6  1  0  0  0  0
 11 14  1  0  0  0  0
 11 15  1  0  0  0  0
 11 16  1  0  0  0  0
 35 38  1  0  0  0  0
 35 39  1  0  0  0  0
 35 40  1  0  0  0  0
 42 44  1  0  0  0  0
 42 45  1  0  0  0  0
 42 46  1  0  0  0  0
  8 13  1  0  0  0  0
 32 37  1  0  0  0  0
 31 36  1  0  0  0  0
 41 43  1  0  0  0  0
  7 12  1  0  0  0  0
M  END
$$$$

  -OEChem-05262214473D

 46 46  0     1  0  0  0  0  0999 V2000
   -0.6012   -3.2995    3.8205 C   0  0  0  0  0  0  0  0  0  0  0  0
   -0.6574   -4.4683    3.4568 O   0  0  0  0  0  0  0  0  0  0  0  0
   -0.4935   -2.9859    5.2760 C   0  0  0  0  0  0  0  0  0  0  0  0
   -1.4789   -2.8689    5.7550 H   0  0  0  0  0  0  0  0  0  0  0  0
    0.0123   -3.7847    5.8419 H   0  0  0  0  0  0  0  0  0  0  0  0
    0.0585   -2.0642    5.5199 H   0  0  0  0  0  0  0  0  0  0  0  0
   -0.6261   -2.1849    2.9917 N   0  0  0  0  0  0  0  0  0  0  0  0
   -0.7237   -2.2601    1.5650 C   0  0  2  0  0  0  0  0  0  0  0  0
    0.1695   -1.1513    1.0687 C   0  0  0  0  0  0  0  0  0  0  0  0
    0.3193   -0.1267    1.7365 O   0  0  0  0  0  0  0  0  0  0  0  0
   -2.1397   -2.0663    1.0750 C   0  0  0  0  0  0  0  0  0  0  0  0
   -0.5717   -1.2606    3.4238 H   0  0  0  0  0  0  0  0  0  0  0  0
   -0.3076   -3.2111    1.2363 H   0  0  0  0  0  0  0  0  0  0  0  0
   -2.5584   -1.1089    1.4061 H   0  0  0  0  0  0  0  0  0  0  0  0
   -2.1682   -2.0790   -0.0197 H   0  0  0  0  0  0  0  0  0  0  0  0
   -2.7965   -2.8601    1.4459 H   0  0  0  0  0  0  0  0  0  0  0  0
    0.7724   -1.3745   -0.1593 N   0  0  0  0  0  0  0  0  0  0  0  0
    0.5614   -2.5964   -0.9244 C   0  0  2  0  0  0  0  0  0  0  0  0
    1.6157   -3.5728   -0.4972 C   0  0  0  0  0  0  0  0  0  0  0  0
    1.5170   -4.1320    0.5887 O   0  0  0  0  0  0  0  0  0  0  0  0
    0.7345   -2.1771   -2.3796 C   0  0  0  0  0  0  0  0  0  0  0  0
    0.3244   -0.8671   -1.7112 C   0  0  0  0  0  0  0  0  0  0  0  0
    1.5408   -0.3981   -0.9273 C   0  0  0  0  0  0  0  0  0  0  0  0
   -0.4227   -3.0263   -0.7144 H   0  0  0  0  0  0  0  0  0  0  0  0
    0.0120   -2.7078   -3.0110 H   0  0  0  0  0  0  0  0  0  0  0  0
    1.7400   -2.3597   -2.7711 H   0  0  0  0  0  0  0  0  0  0  0  0
    0.0755   -0.1144   -2.4681 H   0  0  0  0  0  0  0  0  0  0  0  0
   -0.5410   -0.9920   -1.0542 H   0  0  0  0  0  0  0  0  0  0  0  0
    2.4811   -0.6014   -1.4471 H   0  0  0  0  0  0  0  0  0  0  0  0
    1.4806    0.6724   -0.7030 H   0  0  0  0  0  0  0  0  0  0  0  0
    2.6314   -3.5871   -1.6841 N   0  0  0  0  0  0  0  0  0  0  0  0
    3.7474   -4.5054   -1.6992 C   0  0  2  0  0  0  0  0  0  0  0  0
    3.1929   -5.9172   -1.8362 C   0  0  0  0  0  0  0  0  0  0  0  0
    2.0436   -6.2199   -1.5222 O   0  0  0  0  0  0  0  0  0  0  0  0
    4.5905   -4.3724   -0.4405 C   0  0  0  0  0  0  0  0  0  0  0  0
    2.5928   -2.8614   -2.3935 H   0  0  0  0  0  0  0  0  0  0  0  0
    4.3467   -4.2604   -2.5829 H   0  0  0  0  0  0  0  0  0  0  0  0
    4.0070   -4.6139    0.4554 H   0  0  0  0  0  0  0  0  0  0  0  0
    5.4515   -5.0485   -0.4664 H   0  0  0  0  0  0  0  0  0  0  0  0
    4.9639   -3.3488   -0.3280 H   0  0  0  0  0  0  0  0  0  0  0  0
    4.1456   -6.8084   -2.3098 N   0  0  0  0  0  0  0  0  0  0  0  0
    3.8678   -8.2110   -2.5142 C   0  0  0  0  0  0  0  0  0  0  0  0
    5.0679   -6.4662   -2.5627 H   0  0  0  0  0  0  0  0  0  0  0  0
    4.1364   -8.7743   -1.6084 H   0  0  0  0  0  0  0  0  0  0  0  0
    2.7966   -8.3455   -2.7253 H   0  0  0  0  0  0  0  0  0  0  0  0
    4.4585   -8.5815   -3.3649 H   0  0  0  0  0  0  0  0  0  0  0  0
 18 19  1  0  0  0  0
 19 31  1  0  0  0  0
 19 20  2  0  0  0  0
  8  9  1  0  0  0  0
  9 17  1  0  0  0  0
  9 10  2  0  0  0  0
  1  3  1  0  0  0  0
  1  7  1  0  0  0  0
  1  2  2  0  0  0  0
 32 33  1  0  0  0  0
 33 41  1  0  0  0  0
 33 34  2  0  0  0  0
 21 22  1  0  0  0  0
 22 23  1  0  0  0  0
 18 21  1  0  0  0  0
 17 23  1  0  0  0  0
 17 18  1  0  0  0  0
  8 11  1  0  0  0  0
 32 35  1  0  0  0  0
 41 42  1  0  0  0  0
  7  8  1  0  0  0  0
 31 32  1  0  0  0  0
 22 27  1  0  0  0  0
 22 28  1  0  0  0  0
 21 25  1  0  0  0  0
 21 26  1  0  0  0  0
 23 29  1  0  0  0  0
 23 30  1  0  0  0  0
 18 24  1  0  0  0  0
  3  4  1  0  0  0  0
  3  5  1  0  0  0  0
  3  6  1  0  0  0  0
 11 14  1  0  0  0  0
 11 15  1  0  0  0  0
 11 16  1  0  0  0  0
 35 38  1  0  0  0  0
 35 39  1  0  0  0  0
 35 40  1  0  0  0  0
 42 44  1  0  0  0  0
 42 45  1  0  0  0  0
 42 46  1  0  0  0  0
  8 13  1  0  0  0  0
 32 37  1  0  0  0  0
 31 36  1  0  0  0  0
 41 43  1  0  0  0  0
  7 12  1  0  0  0  0
M  END
$$$$

  -OEChem-05262214473D

 46 46  0     1  0  0  0  0  0999 V2000
   -0.6012   -3.2995    3.8205 C   0  0  0  0  0  0  0  0  0  0  0  0
   -0.6574   -4.4683    3.4568 O   0  0  0  0  0  0  0  0  0  0  0  0
   -0.4935   -2.9859    5.2760 C   0  0  0  0  0  0  0  0  0  0  0  0
   -1.4789   -2.8689    5.7550 H   0  0  0  0  0  0  0  0  0  0  0  0
    0.0123   -3.7847    5.8419 H   0  0  0  0  0  0  0  0  0  0  0  0
    0.0585   -2.0642    5.5199 H   0  0  0  0  0  0  0  0  0  0  0  0
   -0.6261   -2.1849    2.9917 N   0  0  0  0  0  0  0  0  0  0  0  0
   -0.7237   -2.2601    1.5650 C   0  0  2  0  0  0  0  0  0  0  0  0
    0.1695   -1.1513    1.0687 C   0  0  0  0  0  0  0  0  0  0  0  0
    0.3193   -0.1267    1.7365 O   0  0  0  0  0  0  0  0  0  0  0  0
   -2.1397   -2.0663    1.0750 C   0  0  0  0  0  0  0  0  0  0  0  0
   -0.5717   -1.2606    3.4238 H   0  0  0  0  0  0  0  0  0  0  0  0
   -0.3076   -3.2111    1.2363 H   0  0  0  0  0  0  0  0  0  0  0  0
   -2.5584   -1.1089    1.4061 H   0  0  0  0  0  0  0  0  0  0  0  0
   -2.1682   -2.0790   -0.0197 H   0  0  0  0  0  0  0  0  0  0  0  0
   -2.7965   -2.8601    1.4459 H   0  0  0  0  0  0  0  0  0  0  0  0
    0.7724   -1.3745   -0.1593 N   0  0  0  0  0  0  0  0  0  0  0  0
    0.5614   -2.5964   -0.9244 C   0  0  2  0  0  0  0  0  0  0  0  0
    1.6157   -3.5728   -0.4972 C   0  0  0  0  0  0  0  0  0  0  0  0
    1.3930   -4.3313    0.4392 O   0  0  0  0  0  0  0  0  0  0  0  0
    0.7345   -2.1771   -2.3796 C   0  0  0  0  0  0  0  0  0  0  0  0
    0.3244   -0.8671   -1.7112 C   0  0  0  0  0  0  0  0  0  0  0  0
    1.5408   -0.3981   -0.9273 C   0  0  0  0  0  0  0  0  0  0  0  0
   -0.4227   -3.0263   -0.7144 H   0  0  0  0  0  0  0  0  0  0  0  0
    0.0120   -2.7078   -3.0110 H   0  0  0  0  0  0  0  0  0  0  0  0
    1.7400   -2.3597   -2.7711 H   0  0  0  0  0  0  0  0  0  0  0  0
    0.0755   -0.1144   -2.4681 H   0  0  0  0  0  0  0  0  0  0  0  0
   -0.5410   -0.9920   -1.0542 H   0  0  0  0  0  0  0  0  0  0  0  0
    2.4811   -0.6014   -1.4471 H   0  0  0  0  0  0  0  0  0  0  0  0
    1.4806    0.6724   -0.7030 H   0  0  0  0  0  0  0  0  0  0  0  0
    2.8072   -3.3042   -1.4713 N   0  0  0  0  0  0  0  0  0  0  0  0
    3.9884   -4.1368   -1.4515 C   0  0  2  0  0  0  0  0  0  0  0  0
    3.5918   -5.5274   -1.9295 C   0  0  0  0  0  0  0  0  0  0  0  0
    2.4386   -5.9501   -1.8801 O   0  0  0  0  0  0  0  0  0  0  0  0
    4.6016   -4.1944   -0.0610 C   0  0  0  0  0  0  0  0  0  0  0  0
    2.8192   -2.4614   -2.0378 H   0  0  0  0  0  0  0  0  0  0  0  0
    4.6984   -3.6953   -2.1594 H   0  0  0  0  0  0  0  0  0  0  0  0
    3.9048   -4.6339    0.6621 H   0  0  0  0  0  0  0  0  0  0  0  0
    5.5123   -4.8023   -0.0538 H   0  0  0  0  0  0  0  0  0  0  0  0
    4.8589   -3.1904    0.2934 H   0  0  0  0  0  0  0  0  0  0  0  0
    4.6843   -6.2565   -2.3778 N   0  0  0  0  0  0  0  0  0  0  0  0
    4.5697   -7.6091   -2.8709 C   0  0  0  0  0  0  0  0  0  0  0  0
    5.6011   -5.8197   -2.4008 H   0  0  0  0  0  0  0  0  0  0  0  0
    4.7375   -8.3164   -2.0453 H   0  0  0  0  0  0  0  0  0  0  0  0
    3.5631   -7.7635   -3.2869 H   0  0  0  0  0  0  0  0  0  0  0  0
    5.3209   -7.7778   -3.6565 H   0  0  0  0  0  0  0  0  0  0  0  0
 18 19  1  0  0  0  0
 19 31  1  0  0  0  0
 19 20  2  0  0  0  0
  8  9  1  0  0  0  0
  9 17  1  0  0  0  0
  9 10  2  0  0  0  0
  1  3  1  0  0  0  0
  1  7  1  0  0  0  0
  1  2  2  0  0  0  0
 32 33  1  0  0  0  0
 33 41  1  0  0  0  0
 33 34  2  0  0  0  0
 21 22  1  0  0  0  0
 22 23  1  0  0  0  0
 18 21  1  0  0  0  0
 17 23  1  0  0  0  0
 17 18  1  0  0  0  0
  8 11  1  0  0  0  0
 32 35  1  0  0  0  0
 41 42  1  0  0  0  0
  7  8  1  0  0  0  0
 31 32  1  0  0  0  0
 22 27  1  0  0  0  0
 22 28  1  0  0  0  0
 21 25  1  0  0  0  0
 21 26  1  0  0  0  0
 23 29  1  0  0  0  0
 23 30  1  0  0  0  0
 18 24  1  0  0  0  0
  3  4  1  0  0  0  0
  3  5  1  0  0  0  0
  3  6  1  0  0  0  0
 11 14  1  0  0  0  0
 11 15  1  0  0  0  0
 11 16  1  0  0  0  0
 35 38  1  0  0  0  0
 35 39  1  0  0  0  0
 35 40  1  0  0  0  0
 42 44  1  0  0  0  0
 42 45  1  0  0  0  0
 42 46  1  0  0  0  0
  8 13  1  0  0  0  0
 32 37  1  0  0  0  0
 31 36  1  0  0  0  0
 41 43  1  0  0  0  0
  7 12  1  0  0  0  0
M  END
$$$$

  -OEChem-05262214473D

 46 46  0     1  0  0  0  0  0999 V2000
   -0.6012   -3.2995    3.8205 C   0  0  0  0  0  0  0  0  0  0  0  0
   -0.6574   -4.4683    3.4568 O   0  0  0  0  0  0  0  0  0  0  0  0
   -0.4935   -2.9859    5.2760 C   0  0  0  0  0  0  0  0  0  0  0  0
   -1.4789   -2.8689    5.7550 H   0  0  0  0  0  0  0  0  0  0  0  0
    0.0123   -3.7847    5.8419 H   0  0  0  0  0  0  0  0  0  0  0  0
    0.0585   -2.0642    5.5199 H   0  0  0  0  0  0  0  0  0  0  0  0
   -0.6261   -2.1849    2.9917 N   0  0  0  0  0  0  0  0  0  0  0  0
   -0.7237   -2.2601    1.5650 C   0  0  2  0  0  0  0  0  0  0  0  0
    0.1695   -1.1513    1.0687 C   0  0  0  0  0  0  0  0  0  0  0  0
    0.3193   -0.1267    1.7365 O   0  0  0  0  0  0  0  0  0  0  0  0
   -2.1397   -2.0663    1.0750 C   0  0  0  0  0  0  0  0  0  0  0  0
   -0.5717   -1.2606    3.4238 H   0  0  0  0  0  0  0  0  0  0  0  0
   -0.3076   -3.2111    1.2363 H   0  0  0  0  0  0  0  0  0  0  0  0
   -2.5584   -1.1089    1.4061 H   0  0  0  0  0  0  0  0  0  0  0  0
   -2.1682   -2.0790   -0.0197 H   0  0  0  0  0  0  0  0  0  0  0  0
   -2.7965   -2.8601    1.4459 H   0  0  0  0  0  0  0  0  0  0  0  0
    0.7724   -1.3745   -0.1593 N   0  0  0  0  0  0  0  0  0  0  0  0
    0.5614   -2.5964   -0.9244 C   0  0  2  0  0  0  0  0  0  0  0  0
    1.6157   -3.5728   -0.4972 C   0  0  0  0  0  0  0  0  0  0  0  0
    1.3131   -4.5058    0.2375 O   0  0  0  0  0  0  0  0  0  0  0  0
    0.7345   -2.1771   -2.3796 C   0  0  0  0  0  0  0  0  0  0  0  0
    0.3244   -0.8671   -1.7112 C   0  0  0  0  0  0  0  0  0  0  0  0
    1.5408   -0.3981   -0.9273 C   0  0  0  0  0  0  0  0  0  0  0  0
   -0.4227   -3.0263   -0.7144 H   0  0  0  0  0  0  0  0  0  0  0  0
    0.0120   -2.7078   -3.0110 H   0  0  0  0  0  0  0  0  0  0  0  0
    1.7400   -2.3597   -2.7711 H   0  0  0  0  0  0  0  0  0  0  0  0
    0.0755   -0.1144   -2.4681 H   0  0  0  0  0  0  0  0  0  0  0  0
   -0.5410   -0.9920   -1.0542 H   0  0  0  0  0  0  0  0  0  0  0  0
    2.4811   -0.6014   -1.4471 H   0  0  0  0  0  0  0  0  0  0  0  0
    1.4806    0.6724   -0.7030 H   0  0  0  0  0  0  0  0  0  0  0  0
    2.9202   -3.0568   -1.1846 N   0  0  0  0  0  0  0  0  0  0  0  0
    4.1523   -3.8081   -1.1045 C   0  0  2  0  0  0  0  0  0  0  0  0
    3.9641   -5.1044   -1.8815 C   0  0  0  0  0  0  0  0  0  0  0  0
    2.8605   -5.5951   -2.1102 O   0  0  0  0  0  0  0  0  0  0  0  0
    4.5351   -4.0908    0.3399 C   0  0  0  0  0  0  0  0  0  0  0  0
    2.9483   -2.1231   -1.5832 H   0  0  0  0  0  0  0  0  0  0  0  0
    4.9251   -3.2007   -1.5881 H   0  0  0  0  0  0  0  0  0  0  0  0
    3.7727   -4.6984    0.8409 H   0  0  0  0  0  0  0  0  0  0  0  0
    5.4833   -4.6352    0.3998 H   0  0  0  0  0  0  0  0  0  0  0  0
    4.6410   -3.1583    0.9047 H   0  0  0  0  0  0  0  0  0  0  0  0
    5.1754   -5.6712   -2.2522 N   0  0  0  0  0  0  0  0  0  0  0  0
    5.2634   -6.9111   -2.9877 C   0  0  0  0  0  0  0  0  0  0  0  0
    6.0411   -5.1854   -2.0370 H   0  0  0  0  0  0  0  0  0  0  0  0
    5.3580   -7.7503   -2.2827 H   0  0  0  0  0  0  0  0  0  0  0  0
    4.3553   -7.0427   -3.5943 H   0  0  0  0  0  0  0  0  0  0  0  0
    6.1439   -6.8849   -3.6465 H   0  0  0  0  0  0  0  0  0  0  0  0
 18 19  1  0  0  0  0
 19 31  1  0  0  0  0
 19 20  2  0  0  0  0
  8  9  1  0  0  0  0
  9 17  1  0  0  0  0
  9 10  2  0  0  0  0
  1  3  1  0  0  0  0
  1  7  1  0  0  0  0
  1  2  2  0  0  0  0
 32 33  1  0  0  0  0
 33 41  1  0  0  0  0
 33 34  2  0  0  0  0
 21 22  1  0  0  0  0
 22 23  1  0  0  0  0
 18 21  1  0  0  0  0
 17 23  1  0  0  0  0
 17 18  1  0  0  0  0
  8 11  1  0  0  0  0
 32 35  1  0  0  0  0
 41 42  1  0  0  0  0
  7  8  1  0  0  0  0
 31 32  1  0  0  0  0
 22 27  1  0  0  0  0
 22 28  1  0  0  0  0
 21 25  1  0  0  0  0
 21 26  1  0  0  0  0
 23 29  1  0  0  0  0
 23 30  1  0  0  0  0
 18 24  1  0  0  0  0
  3  4  1  0  0  0  0
  3  5  1  0  0  0  0
  3  6  1  0  0  0  0
 11 14  1  0  0  0  0
 11 15  1  0  0  0  0
 11 16  1  0  0  0  0
 35 38  1  0  0  0  0
 35 39  1  0  0  0  0
 35 40  1  0  0  0  0
 42 44  1  0  0  0  0
 42 45  1  0  0  0  0
 42 46  1  0  0  0  0
  8 13  1  0  0  0  0
 32 37  1  0  0  0  0
 31 36  1  0  0  0  0
 41 43  1  0  0  0  0
  7 12  1  0  0  0  0
M  END
$$$$

  -OEChem-05262214473D

 46 46  0     1  0  0  0  0  0999 V2000
   -0.6012   -3.2995    3.8205 C   0  0  0  0  0  0  0  0  0  0  0  0
   -0.6574   -4.4683    3.4568 O   0  0  0  0  0  0  0  0  0  0  0  0
   -0.4935   -2.9859    5.2760 C   0  0  0  0  0  0  0  0  0  0  0  0
   -1.4789   -2.8689    5.7550 H   0  0  0  0  0  0  0  0  0  0  0  0
    0.0123   -3.7847    5.8419 H   0  0  0  0  0  0  0  0  0  0  0  0
    0.0585   -2.0642    5.5199 H   0  0  0  0  0  0  0  0  0  0  0  0
   -0.6261   -2.1849    2.9917 N   0  0  0  0  0  0  0  0  0  0  0  0
   -0.7237   -2.2601    1.5650 C   0  0  2  0  0  0  0  0  0  0  0  0
    0.1695   -1.1513    1.0687 C   0  0  0  0  0  0  0  0  0  0  0  0
    0.3193   -0.1267    1.7365 O   0  0  0  0  0  0  0  0  0  0  0  0
   -2.1397   -2.0663    1.0750 C   0  0  0  0  0  0  0  0  0  0  0  0
   -0.5717   -1.2606    3.4238 H   0  0  0  0  0  0  0  0  0  0  0  0
   -0.3076   -3.2111    1.2363 H   0  0  0  0  0  0  0  0  0  0  0  0
   -2.5584   -1.1089    1.4061 H   0  0  0  0  0  0  0  0  0  0  0  0
   -2.1682   -2.0790   -0.0197 H   0  0  0  0  0  0  0  0  0  0  0  0
   -2.7965   -2.8601    1.4459 H   0  0  0  0  0  0  0  0  0  0  0  0
    0.7724   -1.3745   -0.1593 N   0  0  0  0  0  0  0  0  0  0  0  0
    0.5614   -2.5964   -0.9244 C   0  0  2  0  0  0  0  0  0  0  0  0
    1.6157   -3.5728   -0.4972 C   0  0  0  0  0  0  0  0  0  0  0  0
    1.2829   -4.6434   -0.0025 O   0  0  0  0  0  0  0  0  0  0  0  0
    0.7345   -2.1771   -2.3796 C   0  0  0  0  0  0  0  0  0  0  0  0
    0.3244   -0.8671   -1.7112 C   0  0  0  0  0  0  0  0  0  0  0  0
    1.5408   -0.3981   -0.9273 C   0  0  0  0  0  0  0  0  0  0  0  0
   -0.4227   -3.0263   -0.7144 H   0  0  0  0  0  0  0  0  0  0  0  0
    0.0120   -2.7078   -3.0110 H   0  0  0  0  0  0  0  0  0  0  0  0
    1.7400   -2.3597   -2.7711 H   0  0  0  0  0  0  0  0  0  0  0  0
    0.0755   -0.1144   -2.4681 H   0  0  0  0  0  0  0  0  0  0  0  0
   -0.5410   -0.9920   -1.0542 H   0  0  0  0  0  0  0  0  0  0  0  0
    2.4811   -0.6014   -1.4471 H   0  0  0  0  0  0  0  0  0  0  0  0
    1.4806    0.6724   -0.7030 H   0  0  0  0  0  0  0  0  0  0  0  0
    2.9628   -2.8616   -0.8436 N   0  0  0  0  0  0  0  0  0  0  0  0
    4.2279   -3.5416   -0.6819 C   0  0  2  0  0  0  0  0  0  0  0  0
    4.2844   -4.6771   -1.6953 C   0  0  0  0  0  0  0  0  0  0  0  0
    3.2806   -5.1793   -2.1967 O   0  0  0  0  0  0  0  0  0  0  0  0
    4.3957   -4.0686    0.7347 C   0  0  0  0  0  0  0  0  0  0  0  0
    2.9715   -1.8695   -1.0607 H   0  0  0  0  0  0  0  0  0  0  0  0
    5.0113   -2.8101   -0.9081 H   0  0  0  0  0  0  0  0  0  0  0  0
    3.6197   -4.8029    0.9795 H   0  0  0  0  0  0  0  0  0  0  0  0
    5.3666   -4.5584    0.8634 H   0  0  0  0  0  0  0  0  0  0  0  0
    4.3251   -3.2546    1.4643 H   0  0  0  0  0  0  0  0  0  0  0  0
    5.5855   -5.0925   -1.9416 N   0  0  0  0  0  0  0  0  0  0  0  0
    5.9017   -6.1645   -2.8564 C   0  0  0  0  0  0  0  0  0  0  0  0
    6.3581   -4.6065   -1.4959 H   0  0  0  0  0  0  0  0  0  0  0  0
    5.9556   -7.1144   -2.3044 H   0  0  0  0  0  0  0  0  0  0  0  0
    5.1191   -6.2320   -3.6265 H   0  0  0  0  0  0  0  0  0  0  0  0
    6.8712   -5.9635   -3.3356 H   0  0  0  0  0  0  0  0  0  0  0  0
 18 19  1  0  0  0  0
 19 31  1  0  0  0  0
 19 20  2  0  0  0  0
  8  9  1  0  0  0  0
  9 17  1  0  0  0  0
  9 10  2  0  0  0  0
  1  3  1  0  0  0  0
  1  7  1  0  0  0  0
  1  2  2  0  0  0  0
 32 33  1  0  0  0  0
 33 41  1  0  0  0  0
 33 34  2  0  0  0  0
 21 22  1  0  0  0  0
 22 23  1  0  0  0  0
 18 21  1  0  0  0  0
 17 23  1  0  0  0  0
 17 18  1  0  0  0  0
  8 11  1  0  0  0  0
 32 35  1  0  0  0  0
 41 42  1  0  0  0  0
  7  8  1  0  0  0  0
 31 32  1  0  0  0  0
 22 27  1  0  0  0  0
 22 28  1  0  0  0  0
 21 25  1  0  0  0  0
 21 26  1  0  0  0  0
 23 29  1  0  0  0  0
 23 30  1  0  0  0  0
 18 24  1  0  0  0  0
  3  4  1  0  0  0  0
  3  5  1  0  0  0  0
  3  6  1  0  0  0  0
 11 14  1  0  0  0  0
 11 15  1  0  0  0  0
 11 16  1  0  0  0  0
 35 38  1  0  0  0  0
 35 39  1  0  0  0  0
 35 40  1  0  0  0  0
 42 44  1  0  0  0  0
 42 45  1  0  0  0  0
 42 46  1  0  0  0  0
  8 13  1  0  0  0  0
 32 37  1  0  0  0  0
 31 36  1  0  0  0  0
 41 43  1  0  0  0  0
  7 12  1  0  0  0  0
M  END
$$$$

  -OEChem-05262214473D

 46 46  0     1  0  0  0  0  0999 V2000
   -0.6012   -3.2995    3.8205 C   0  0  0  0  0  0  0  0  0  0  0  0
   -0.6574   -4.4683    3.4568 O   0  0  0  0  0  0  0  0  0  0  0  0
   -0.4935   -2.9859    5.2760 C   0  0  0  0  0  0  0  0  0  0  0  0
   -1.4789   -2.8689    5.7550 H   0  0  0  0  0  0  0  0  0  0  0  0
    0.0123   -3.7847    5.8419 H   0  0  0  0  0  0  0  0  0  0  0  0
    0.0585   -2.0642    5.5199 H   0  0  0  0  0  0  0  0  0  0  0  0
   -0.6261   -2.1849    2.9917 N   0  0  0  0  0  0  0  0  0  0  0  0
   -0.7237   -2.2601    1.5650 C   0  0  2  0  0  0  0  0  0  0  0  0
    0.1695   -1.1513    1.0687 C   0  0  0  0  0  0  0  0  0  0  0  0
    0.3193   -0.1267    1.7365 O   0  0  0  0  0  0  0  0  0  0  0  0
   -2.1397   -2.0663    1.0750 C   0  0  0  0  0  0  0  0  0  0  0  0
   -0.5717   -1.2606    3.4238 H   0  0  0  0  0  0  0  0  0  0  0  0
   -0.3076   -3.2111    1.2363 H   0  0  0  0  0  0  0  0  0  0  0  0
   -2.5584   -1.1089    1.4061 H   0  0  0  0  0  0  0  0  0  0  0  0
   -2.1682   -2.0790   -0.0197 H   0  0  0  0  0  0  0  0  0  0  0  0
   -2.7965   -2.8601    1.4459 H   0  0  0  0  0  0  0  0  0  0  0  0
    0.7724   -1.3745   -0.1593 N   0  0  0  0  0  0  0  0  0  0  0  0
    0.5614   -2.5964   -0.9244 C   0  0  2  0  0  0  0  0  0  0  0  0
    1.6157   -3.5728   -0.4972 C   0  0  0  0  0  0  0  0  0  0  0  0
    1.3042   -4.7350   -0.2644 O   0  0  0  0  0  0  0  0  0  0  0  0
    0.7345   -2.1771   -2.3796 C   0  0  0  0  0  0  0  0  0  0  0  0
    0.3244   -0.8671   -1.7112 C   0  0  0  0  0  0  0  0  0  0  0  0
    1.5408   -0.3981   -0.9273 C   0  0  0  0  0  0  0  0  0  0  0  0
   -0.4227   -3.0263   -0.7144 H   0  0  0  0  0  0  0  0  0  0  0  0
    0.0120   -2.7078   -3.0110 H   0  0  0  0  0  0  0  0  0  0  0  0
    1.7400   -2.3597   -2.7711 H   0  0  0  0  0  0  0  0  0  0  0  0
    0.0755   -0.1144   -2.4681 H   0  0  0  0  0  0  0  0  0  0  0  0
   -0.5410   -0.9920   -1.0542 H   0  0  0  0  0  0  0  0  0  0  0  0
    2.4811   -0.6014   -1.4471 H   0  0  0  0  0  0  0  0  0  0  0  0
    1.4806    0.6724   -0.7030 H   0  0  0  0  0  0  0  0  0  0  0  0
    2.9321   -2.7320   -0.4715 N   0  0  0  0  0  0  0  0  0  0  0  0
    4.2100   -3.3556   -0.2124 C   0  0  2  0  0  0  0  0  0  0  0  0
    4.5309   -4.2746   -1.3837 C   0  0  0  0  0  0  0  0  0  0  0  0
    3.6704   -4.7309   -2.1337 O   0  0  0  0  0  0  0  0  0  0  0  0
    4.1929   -4.1293    1.0967 C   0  0  0  0  0  0  0  0  0  0  0  0
    2.8871   -1.7180   -0.5060 H   0  0  0  0  0  0  0  0  0  0  0  0
    4.9511   -2.5503   -0.1656 H   0  0  0  0  0  0  0  0  0  0  0  0
    3.4562   -4.9404    1.0687 H   0  0  0  0  0  0  0  0  0  0  0  0
    5.1700   -4.5773    1.3056 H   0  0  0  0  0  0  0  0  0  0  0  0
    3.9327   -3.4728    1.9340 H   0  0  0  0  0  0  0  0  0  0  0  0
    5.8865   -4.5599   -1.4670 N   0  0  0  0  0  0  0  0  0  0  0  0
    6.4410   -5.4201   -2.4861 C   0  0  0  0  0  0  0  0  0  0  0  0
    6.5303   -4.1224   -0.8144 H   0  0  0  0  0  0  0  0  0  0  0  0
    6.4896   -6.4523   -2.1088 H   0  0  0  0  0  0  0  0  0  0  0  0
    5.8025   -5.3868   -3.3812 H   0  0  0  0  0  0  0  0  0  0  0  0
    7.4534   -5.0764   -2.7449 H   0  0  0  0  0  0  0  0  0  0  0  0
 18 19  1  0  0  0  0
 19 31  1  0  0  0  0
 19 20  2  0  0  0  0
  8  9  1  0  0  0  0
  9 17  1  0  0  0  0
  9 10  2  0  0  0  0
  1  3  1  0  0  0  0
  1  7  1  0  0  0  0
  1  2  2  0  0  0  0
 32 33  1  0  0  0  0
 33 41  1  0  0  0  0
 33 34  2  0  0  0  0
 21 22  1  0  0  0  0
 22 23  1  0  0  0  0
 18 21  1  0  0  0  0
 17 23  1  0  0  0  0
 17 18  1  0  0  0  0
  8 11  1  0  0  0  0
 32 35  1  0  0  0  0
 41 42  1  0  0  0  0
  7  8  1  0  0  0  0
 31 32  1  0  0  0  0
 22 27  1  0  0  0  0
 22 28  1  0  0  0  0
 21 25  1  0  0  0  0
 21 26  1  0  0  0  0
 23 29  1  0  0  0  0
 23 30  1  0  0  0  0
 18 24  1  0  0  0  0
  3  4  1  0  0  0  0
  3  5  1  0  0  0  0
  3  6  1  0  0  0  0
 11 14  1  0  0  0  0
 11 15  1  0  0  0  0
 11 16  1  0  0  0  0
 35 38  1  0  0  0  0
 35 39  1  0  0  0  0
 35 40  1  0  0  0  0
 42 44  1  0  0  0  0
 42 45  1  0  0  0  0
 42 46  1  0  0  0  0
  8 13  1  0  0  0  0
 32 37  1  0  0  0  0
 31 36  1  0  0  0  0
 41 43  1  0  0  0  0
  7 12  1  0  0  0  0
M  END
$$$$

  -OEChem-05262214473D

 46 46  0     1  0  0  0  0  0999 V2000
   -0.6012   -3.2995    3.8205 C   0  0  0  0  0  0  0  0  0  0  0  0
   -0.6574   -4.4683    3.4568 O   0  0  0  0  0  0  0  0  0  0  0  0
   -0.4935   -2.9859    5.2760 C   0  0  0  0  0  0  0  0  0  0  0  0
   -1.4789   -2.8689    5.7550 H   0  0  0  0  0  0  0  0  0  0  0  0
    0.0123   -3.7847    5.8419 H   0  0  0  0  0  0  0  0  0  0  0  0
    0.0585   -2.0642    5.5199 H   0  0  0  0  0  0  0  0  0  0  0  0
   -0.6261   -2.1849    2.9917 N   0  0  0  0  0  0  0  0  0  0  0  0
   -0.7237   -2.2601    1.5650 C   0  0  2  0  0  0  0  0  0  0  0  0
    0.1695   -1.1513    1.0687 C   0  0  0  0  0  0  0  0  0  0  0  0
    0.3193   -0.1267    1.7365 O   0  0  0  0  0  0  0  0  0  0  0  0
   -2.1397   -2.0663    1.0750 C   0  0  0  0  0  0  0  0  0  0  0  0
   -0.5717   -1.2606    3.4238 H   0  0  0  0  0  0  0  0  0  0  0  0
   -0.3076   -3.2111    1.2363 H   0  0  0  0  0  0  0  0  0  0  0  0
   -2.5584   -1.1089    1.4061 H   0  0  0  0  0  0  0  0  0  0  0  0
   -2.1682   -2.0790   -0.0197 H   0  0  0  0  0  0  0  0  0  0  0  0
   -2.7965   -2.8601    1.4459 H   0  0  0  0  0  0  0  0  0  0  0  0
    0.7724   -1.3745   -0.1593 N   0  0  0  0  0  0  0  0  0  0  0  0
    0.5614   -2.5964   -0.9244 C   0  0  2  0  0  0  0  0  0  0  0  0
    1.6157   -3.5728   -0.4972 C   0  0  0  0  0  0  0  0  0  0  0  0
    1.3758   -4.7741   -0.5305 O   0  0  0  0  0  0  0  0  0  0  0  0
    0.7345   -2.1771   -2.3796 C   0  0  0  0  0  0  0  0  0  0  0  0
    0.3244   -0.8671   -1.7112 C   0  0  0  0  0  0  0  0  0  0  0  0
    1.5408   -0.3981   -0.9273 C   0  0  0  0  0  0  0  0  0  0  0  0
   -0.4227   -3.0263   -0.7144 H   0  0  0  0  0  0  0  0  0  0  0  0
    0.0120   -2.7078   -3.0110 H   0  0  0  0  0  0  0  0  0  0  0  0
    1.7400   -2.3597   -2.7711 H   0  0  0  0  0  0  0  0  0  0  0  0
    0.0755   -0.1144   -2.4681 H   0  0  0  0  0  0  0  0  0  0  0  0
   -0.5410   -0.9920   -1.0542 H   0  0  0  0  0  0  0  0  0  0  0  0
    2.4811   -0.6014   -1.4471 H   0  0  0  0  0  0  0  0  0  0  0  0
    1.4806    0.6724   -0.7030 H   0  0  0  0  0  0  0  0  0  0  0  0
    2.8301   -2.6768   -0.0937 N   0  0  0  0  0  0  0  0  0  0  0  0
    4.0998   -3.2626    0.2719 C   0  0  2  0  0  0  0  0  0  0  0  0
    4.6868   -3.9244   -0.9679 C   0  0  0  0  0  0  0  0  0  0  0  0
    4.0031   -4.2805   -1.9255 O   0  0  0  0  0  0  0  0  0  0  0  0
    3.9404   -4.2687    1.4011 C   0  0  0  0  0  0  0  0  0  0  0  0
    2.7008   -1.6788    0.0432 H   0  0  0  0  0  0  0  0  0  0  0  0
    4.7487   -2.4389    0.5887 H   0  0  0  0  0  0  0  0  0  0  0  0
    3.2934   -5.1015    1.1022 H   0  0  0  0  0  0  0  0  0  0  0  0
    4.9069   -4.6905    1.6961 H   0  0  0  0  0  0  0  0  0  0  0  0
    3.4906   -3.7979    2.2819 H   0  0  0  0  0  0  0  0  0  0  0  0
    6.0581   -4.1096   -0.8610 N   0  0  0  0  0  0  0  0  0  0  0  0
    6.8447   -4.7288   -1.9021 C   0  0  0  0  0  0  0  0  0  0  0  0
    6.5460   -3.7662   -0.0390 H   0  0  0  0  0  0  0  0  0  0  0  0
    6.9236   -5.8089   -1.7094 H   0  0  0  0  0  0  0  0  0  0  0  0
    6.3589   -4.5646   -2.8752 H   0  0  0  0  0  0  0  0  0  0  0  0
    7.8508   -4.2842   -1.9148 H   0  0  0  0  0  0  0  0  0  0  0  0
 18 19  1  0  0  0  0
 19 31  1  0  0  0  0
 19 20  2  0  0  0  0
  8  9  1  0  0  0  0
  9 17  1  0  0  0  0
  9 10  2  0  0  0  0
  1  3  1  0  0  0  0
  1  7  1  0  0  0  0
  1  2  2  0  0  0  0
 32 33  1  0  0  0  0
 33 41  1  0  0  0  0
 33 34  2  0  0  0  0
 21 22  1  0  0  0  0
 22 23  1  0  0  0  0
 18 21  1  0  0  0  0
 17 23  1  0  0  0  0
 17 18  1  0  0  0  0
  8 11  1  0  0  0  0
 32 35  1  0  0  0  0
 41 42  1  0  0  0  0
  7  8  1  0  0  0  0
 31 32  1  0  0  0  0
 22 27  1  0  0  0  0
 22 28  1  0  0  0  0
 21 25  1  0  0  0  0
 21 26  1  0  0  0  0
 23 29  1  0  0  0  0
 23 30  1  0  0  0  0
 18 24  1  0  0  0  0
  3  4  1  0  0  0  0
  3  5  1  0  0  0  0
  3  6  1  0  0  0  0
 11 14  1  0  0  0  0
 11 15  1  0  0  0  0
 11 16  1  0  0  0  0
 35 38  1  0  0  0  0
 35 39  1  0  0  0  0
 35 40  1  0  0  0  0
 42 44  1  0  0  0  0
 42 45  1  0  0  0  0
 42 46  1  0  0  0  0
  8 13  1  0  0  0  0
 32 37  1  0  0  0  0
 31 36  1  0  0  0  0
 41 43  1  0  0  0  0
  7 12  1  0  0  0  0
M  END
$$$$

  -OEChem-05262214473D

 46 46  0     1  0  0  0  0  0999 V2000
   -0.6012   -3.2995    3.8205 C   0  0  0  0  0  0  0  0  0  0  0  0
   -0.6574   -4.4683    3.4568 O   0  0  0  0  0  0  0  0  0  0  0  0
   -0.4935   -2.9859    5.2760 C   0  0  0  0  0  0  0  0  0  0  0  0
   -1.4789   -2.8689    5.7550 H   0  0  0  0  0  0  0  0  0  0  0  0
    0.0123   -3.7847    5.8419 H   0  0  0  0  0  0  0  0  0  0  0  0
    0.0585   -2.0642    5.5199 H   0  0  0  0  0  0  0  0  0  0  0  0
   -0.6261   -2.1849    2.9917 N   0  0  0  0  0  0  0  0  0  0  0  0
   -0.7237   -2.2601    1.5650 C   0  0  2  0  0  0  0  0  0  0  0  0
    0.1695   -1.1513    1.0687 C   0  0  0  0  0  0  0  0  0  0  0  0
    0.3193   -0.1267    1.7365 O   0  0  0  0  0  0  0  0  0  0  0  0
   -2.1397   -2.0663    1.0750 C   0  0  0  0  0  0  0  0  0  0  0  0
   -0.5717   -1.2606    3.4238 H   0  0  0  0  0  0  0  0  0  0  0  0
   -0.3076   -3.2111    1.2363 H   0  0  0  0  0  0  0  0  0  0  0  0
   -2.5584   -1.1089    1.4061 H   0  0  0  0  0  0  0  0  0  0  0  0
   -2.1682   -2.0790   -0.0197 H   0  0  0  0  0  0  0  0  0  0  0  0
   -2.7965   -2.8601    1.4459 H   0  0  0  0  0  0  0  0  0  0  0  0
    0.7724   -1.3745   -0.1593 N   0  0  0  0  0  0  0  0  0  0  0  0
    0.5614   -2.5964   -0.9244 C   0  0  2  0  0  0  0  0  0  0  0  0
    1.6157   -3.5728   -0.4972 C   0  0  0  0  0  0  0  0  0  0  0  0
    1.4926   -4.7582   -0.7826 O   0  0  0  0  0  0  0  0  0  0  0  0
    0.7345   -2.1771   -2.3796 C   0  0  0  0  0  0  0  0  0  0  0  0
    0.3244   -0.8671   -1.7112 C   0  0  0  0  0  0  0  0  0  0  0  0
    1.5408   -0.3981   -0.9273 C   0  0  0  0  0  0  0  0  0  0  0  0
   -0.4227   -3.0263   -0.7144 H   0  0  0  0  0  0  0  0  0  0  0  0
    0.0120   -2.7078   -3.0110 H   0  0  0  0  0  0  0  0  0  0  0  0
    1.7400   -2.3597   -2.7711 H   0  0  0  0  0  0  0  0  0  0  0  0
    0.0755   -0.1144   -2.4681 H   0  0  0  0  0  0  0  0  0  0  0  0
   -0.5410   -0.9920   -1.0542 H   0  0  0  0  0  0  0  0  0  0  0  0
    2.4811   -0.6014   -1.4471 H   0  0  0  0  0  0  0  0  0  0  0  0
    1.4806    0.6724   -0.7030 H   0  0  0  0  0  0  0  0  0  0  0  0
    2.6639   -2.6998    0.2641 N   0  0  0  0  0  0  0  0  0  0  0  0
    3.9049   -3.2692    0.7380 C   0  0  2  0  0  0  0  0  0  0  0  0
    4.7414   -3.6503   -0.4763 C   0  0  0  0  0  0  0  0  0  0  0  0
    4.2563   -3.8588   -1.5863 O   0  0  0  0  0  0  0  0  0  0  0  0
    3.6555   -4.4774    1.6271 C   0  0  0  0  0  0  0  0  0  0  0  0
    2.4255   -1.7547    0.5494 H   0  0  0  0  0  0  0  0  0  0  0  0
    4.4178   -2.4835    1.3035 H   0  0  0  0  0  0  0  0  0  0  0  0
    3.1424   -5.2752    1.0778 H   0  0  0  0  0  0  0  0  0  0  0  0
    4.5954   -4.8903    2.0083 H   0  0  0  0  0  0  0  0  0  0  0  0
    3.0290   -4.2079    2.4842 H   0  0  0  0  0  0  0  0  0  0  0  0
    6.0884   -3.7723   -0.1647 N   0  0  0  0  0  0  0  0  0  0  0  0
    7.0851   -4.1375   -1.1440 C   0  0  0  0  0  0  0  0  0  0  0  0
    6.4043   -3.5620    0.7775 H   0  0  0  0  0  0  0  0  0  0  0  0
    7.2281   -5.2281   -1.1333 H   0  0  0  0  0  0  0  0  0  0  0  0
    6.7505   -3.8215   -2.1431 H   0  0  0  0  0  0  0  0  0  0  0  0
    8.0362   -3.6408   -0.9017 H   0  0  0  0  0  0  0  0  0  0  0  0
 18 19  1  0  0  0  0
 19 31  1  0  0  0  0
 19 20  2  0  0  0  0
  8  9  1  0  0  0  0
  9 17  1  0  0  0  0
  9 10  2  0  0  0  0
  1  3  1  0  0  0  0
  1  7  1  0  0  0  0
  1  2  2  0  0  0  0
 32 33  1  0  0  0  0
 33 41  1  0  0  0  0
 33 34  2  0  0  0  0
 21 22  1  0  0  0  0
 22 23  1  0  0  0  0
 18 21  1  0  0  0  0
 17 23  1  0  0  0  0
 17 18  1  0  0  0  0
  8 11  1  0  0  0  0
 32 35  1  0  0  0  0
 41 42  1  0  0  0  0
  7  8  1  0  0  0  0
 31 32  1  0  0  0  0
 22 27  1  0  0  0  0
 22 28  1  0  0  0  0
 21 25  1  0  0  0  0
 21 26  1  0  0  0  0
 23 29  1  0  0  0  0
 23 30  1  0  0  0  0
 18 24  1  0  0  0  0
  3  4  1  0  0  0  0
  3  5  1  0  0  0  0
  3  6  1  0  0  0  0
 11 14  1  0  0  0  0
 11 15  1  0  0  0  0
 11 16  1  0  0  0  0
 35 38  1  0  0  0  0
 35 39  1  0  0  0  0
 35 40  1  0  0  0  0
 42 44  1  0  0  0  0
 42 45  1  0  0  0  0
 42 46  1  0  0  0  0
  8 13  1  0  0  0  0
 32 37  1  0  0  0  0
 31 36  1  0  0  0  0
 41 43  1  0  0  0  0
  7 12  1  0  0  0  0
M  END
$$$$

  -OEChem-05262214473D

 46 46  0     1  0  0  0  0  0999 V2000
   -0.6012   -3.2995    3.8205 C   0  0  0  0  0  0  0  0  0  0  0  0
   -0.6574   -4.4683    3.4568 O   0  0  0  0  0  0  0  0  0  0  0  0
   -0.4935   -2.9859    5.2760 C   0  0  0  0  0  0  0  0  0  0  0  0
   -1.4789   -2.8689    5.7550 H   0  0  0  0  0  0  0  0  0  0  0  0
    0.0123   -3.7847    5.8419 H   0  0  0  0  0  0  0  0  0  0  0  0
    0.0585   -2.0642    5.5199 H   0  0  0  0  0  0  0  0  0  0  0  0
   -0.6261   -2.1849    2.9917 N   0  0  0  0  0  0  0  0  0  0  0  0
   -0.7237   -2.2601    1.5650 C   0  0  2  0  0  0  0  0  0  0  0  0
    0.1695   -1.1513    1.0687 C   0  0  0  0  0  0  0  0  0  0  0  0
    0.3193   -0.1267    1.7365 O   0  0  0  0  0  0  0  0  0  0  0  0
   -2.1397   -2.0663    1.0750 C   0  0  0  0  0  0  0  0  0  0  0  0
   -0.5717   -1.2606    3.4238 H   0  0  0  0  0  0  0  0  0  0  0  0
   -0.3076   -3.2111    1.2363 H   0  0  0  0  0  0  0  0  0  0  0  0
   -2.5584   -1.1089    1.4061 H   0  0  0  0  0  0  0  0  0  0  0  0
   -2.1682   -2.0790   -0.0197 H   0  0  0  0  0  0  0  0  0  0  0  0
   -2.7965   -2.8601    1.4459 H   0  0  0  0  0  0  0  0  0  0  0  0
    0.7724   -1.3745   -0.1593 N   0  0  0  0  0  0  0  0  0  0  0  0
    0.5614   -2.5964   -0.9244 C   0  0  2  0  0  0  0  0  0  0  0  0
    1.6157   -3.5728   -0.4972 C   0  0  0  0  0  0  0  0  0  0  0  0
    1.6468   -4.6883   -1.0035 O   0  0  0  0  0  0  0  0  0  0  0  0
    0.7345   -2.1771   -2.3796 C   0  0  0  0  0  0  0  0  0  0  0  0
    0.3244   -0.8671   -1.7112 C   0  0  0  0  0  0  0  0  0  0  0  0
    1.5408   -0.3981   -0.9273 C   0  0  0  0  0  0  0  0  0  0  0  0
   -0.4227   -3.0263   -0.7144 H   0  0  0  0  0  0  0  0  0  0  0  0
    0.0120   -2.7078   -3.0110 H   0  0  0  0  0  0  0  0  0  0  0  0
    1.7400   -2.3597   -2.7711 H   0  0  0  0  0  0  0  0  0  0  0  0
    0.0755   -0.1144   -2.4681 H   0  0  0  0  0  0  0  0  0  0  0  0
   -0.5410   -0.9920   -1.0542 H   0  0  0  0  0  0  0  0  0  0  0  0
    2.4811   -0.6014   -1.4471 H   0  0  0  0  0  0  0  0  0  0  0  0
    1.4806    0.6724   -0.7030 H   0  0  0  0  0  0  0  0  0  0  0  0
    2.4447   -2.7994    0.5776 N   0  0  0  0  0  0  0  0  0  0  0  0
    3.6386   -3.3747    1.1542 C   0  0  2  0  0  0  0  0  0  0  0  0
    4.6911   -3.4710    0.0577 C   0  0  0  0  0  0  0  0  0  0  0  0
    4.4125   -3.4945   -1.1393 O   0  0  0  0  0  0  0  0  0  0  0  0
    3.3576   -4.7412    1.7595 C   0  0  0  0  0  0  0  0  0  0  0  0
    2.0798   -1.9404    0.9781 H   0  0  0  0  0  0  0  0  0  0  0  0
    3.9809   -2.6811    1.9300 H   0  0  0  0  0  0  0  0  0  0  0  0
    3.0135   -5.4497    0.9972 H   0  0  0  0  0  0  0  0  0  0  0  0
    4.2565   -5.1631    2.2211 H   0  0  0  0  0  0  0  0  0  0  0  0
    2.5791   -4.6748    2.5272 H   0  0  0  0  0  0  0  0  0  0  0  0
    5.9754   -3.5709    0.5744 N   0  0  0  0  0  0  0  0  0  0  0  0
    7.1460   -3.6866   -0.2636 C   0  0  0  0  0  0  0  0  0  0  0  0
    6.1147   -3.5239    1.5794 H   0  0  0  0  0  0  0  0  0  0  0  0
    7.3822   -4.7495   -0.4198 H   0  0  0  0  0  0  0  0  0  0  0  0
    6.9505   -3.2081   -1.2346 H   0  0  0  0  0  0  0  0  0  0  0  0
    7.9972   -3.1900    0.2252 H   0  0  0  0  0  0  0  0  0  0  0  0
 18 19  1  0  0  0  0
 19 31  1  0  0  0  0
 19 20  2  0  0  0  0
  8  9  1  0  0  0  0
  9 17  1  0  0  0  0
  9 10  2  0  0  0  0
  1  3  1  0  0  0  0
  1  7  1  0  0  0  0
  1  2  2  0  0  0  0
 32 33  1  0  0  0  0
 33 41  1  0  0  0  0
 33 34  2  0  0  0  0
 21 22  1  0  0  0  0
 22 23  1  0  0  0  0
 18 21  1  0  0  0  0
 17 23  1  0  0  0  0
 17 18  1  0  0  0  0
  8 11  1  0  0  0  0
 32 35  1  0  0  0  0
 41 42  1  0  0  0  0
  7  8  1  0  0  0  0
 31 32  1  0  0  0  0
 22 27  1  0  0  0  0
 22 28  1  0  0  0  0
 21 25  1  0  0  0  0
 21 26  1  0  0  0  0
 23 29  1  0  0  0  0
 23 30  1  0  0  0  0
 18 24  1  0  0  0  0
  3  4  1  0  0  0  0
  3  5  1  0  0  0  0
  3  6  1  0  0  0  0
 11 14  1  0  0  0  0
 11 15  1  0  0  0  0
 11 16  1  0  0  0  0
 35 38  1  0  0  0  0
 35 39  1  0  0  0  0
 35 40  1  0  0  0  0
 42 44  1  0  0  0  0
 42 45  1  0  0  0  0
 42 46  1  0  0  0  0
  8 13  1  0  0  0  0
 32 37  1  0  0  0  0
 31 36  1  0  0  0  0
 41 43  1  0  0  0  0
  7 12  1  0  0  0  0
M  END
$$$$

  -OEChem-05262214473D

 46 46  0     1  0  0  0  0  0999 V2000
   -0.6012   -3.2995    3.8205 C   0  0  0  0  0  0  0  0  0  0  0  0
   -0.6574   -4.4683    3.4568 O   0  0  0  0  0  0  0  0  0  0  0  0
   -0.4935   -2.9859    5.2760 C   0  0  0  0  0  0  0  0  0  0  0  0
   -1.4789   -2.8689    5.7550 H   0  0  0  0  0  0  0  0  0  0  0  0
    0.0123   -3.7847    5.8419 H   0  0  0  0  0  0  0  0  0  0  0  0
    0.0585   -2.0642    5.5199 H   0  0  0  0  0  0  0  0  0  0  0  0
   -0.6261   -2.1849    2.9917 N   0  0  0  0  0  0  0  0  0  0  0  0
   -0.7237   -2.2601    1.5650 C   0  0  2  0  0  0  0  0  0  0  0  0
    0.1695   -1.1513    1.0687 C   0  0  0  0  0  0  0  0  0  0  0  0
    0.3193   -0.1267    1.7365 O   0  0  0  0  0  0  0  0  0  0  0  0
   -2.1397   -2.0663    1.0750 C   0  0  0  0  0  0  0  0  0  0  0  0
   -0.5717   -1.2606    3.4238 H   0  0  0  0  0  0  0  0  0  0  0  0
   -0.3076   -3.2111    1.2363 H   0  0  0  0  0  0  0  0  0  0  0  0
   -2.5584   -1.1089    1.4061 H   0  0  0  0  0  0  0  0  0  0  0  0
   -2.1682   -2.0790   -0.0197 H   0  0  0  0  0  0  0  0  0  0  0  0
   -2.7965   -2.8601    1.4459 H   0  0  0  0  0  0  0  0  0  0  0  0
    0.7724   -1.3745   -0.1593 N   0  0  0  0  0  0  0  0  0  0  0  0
    0.5614   -2.5964   -0.9244 C   0  0  2  0  0  0  0  0  0  0  0  0
    1.6157   -3.5728   -0.4972 C   0  0  0  0  0  0  0  0  0  0  0  0
    1.8279   -4.5693   -1.1782 O   0  0  0  0  0  0  0  0  0  0  0  0
    0.7345   -2.1771   -2.3796 C   0  0  0  0  0  0  0  0  0  0  0  0
    0.3244   -0.8671   -1.7112 C   0  0  0  0  0  0  0  0  0  0  0  0
    1.5408   -0.3981   -0.9273 C   0  0  0  0  0  0  0  0  0  0  0  0
   -0.4227   -3.0263   -0.7144 H   0  0  0  0  0  0  0  0  0  0  0  0
    0.0120   -2.7078   -3.0110 H   0  0  0  0  0  0  0  0  0  0  0  0
    1.7400   -2.3597   -2.7711 H   0  0  0  0  0  0  0  0  0  0  0  0
    0.0755   -0.1144   -2.4681 H   0  0  0  0  0  0  0  0  0  0  0  0
   -0.5410   -0.9920   -1.0542 H   0  0  0  0  0  0  0  0  0  0  0  0
    2.4811   -0.6014   -1.4471 H   0  0  0  0  0  0  0  0  0  0  0  0
    1.4806    0.6724   -0.7030 H   0  0  0  0  0  0  0  0  0  0  0  0
    2.1874   -2.9688    0.8252 N   0  0  0  0  0  0  0  0  0  0  0  0
    3.3189   -3.5720    1.4922 C   0  0  2  0  0  0  0  0  0  0  0  0
    4.5393   -3.3987    0.5977 C   0  0  0  0  0  0  0  0  0  0  0  0
    4.4612   -3.2125   -0.6149 O   0  0  0  0  0  0  0  0  0  0  0  0
    3.0670   -5.0421    1.7891 C   0  0  0  0  0  0  0  0  0  0  0  0
    1.6873   -2.2233    1.3002 H   0  0  0  0  0  0  0  0  0  0  0  0
    3.4679   -3.0183    2.4256 H   0  0  0  0  0  0  0  0  0  0  0  0
    2.9154   -5.6131    0.8658 H   0  0  0  0  0  0  0  0  0  0  0  0
    3.9134   -5.4904    2.3197 H   0  0  0  0  0  0  0  0  0  0  0  0
    2.1718   -5.1668    2.4079 H   0  0  0  0  0  0  0  0  0  0  0  0
    5.7268   -3.5193    1.3058 N   0  0  0  0  0  0  0  0  0  0  0  0
    7.0232   -3.4069    0.6791 C   0  0  0  0  0  0  0  0  0  0  0  0
    5.6970   -3.6545    2.3121 H   0  0  0  0  0  0  0  0  0  0  0  0
    7.3755   -4.4058    0.3825 H   0  0  0  0  0  0  0  0  0  0  0  0
    6.9453   -2.7662   -0.2117 H   0  0  0  0  0  0  0  0  0  0  0  0
    7.7362   -2.9625    1.3891 H   0  0  0  0  0  0  0  0  0  0  0  0
 18 19  1  0  0  0  0
 19 31  1  0  0  0  0
 19 20  2  0  0  0  0
  8  9  1  0  0  0  0
  9 17  1  0  0  0  0
  9 10  2  0  0  0  0
  1  3  1  0  0  0  0
  1  7  1  0  0  0  0
  1  2  2  0  0  0  0
 32 33  1  0  0  0  0
 33 41  1  0  0  0  0
 33 34  2  0  0  0  0
 21 22  1  0  0  0  0
 22 23  1  0  0  0  0
 18 21  1  0  0  0  0
 17 23  1  0  0  0  0
 17 18  1  0  0  0  0
  8 11  1  0  0  0  0
 32 35  1  0  0  0  0
 41 42  1  0  0  0  0
  7  8  1  0  0  0  0
 31 32  1  0  0  0  0
 22 27  1  0  0  0  0
 22 28  1  0  0  0  0
 21 25  1  0  0  0  0
 21 26  1  0  0  0  0
 23 29  1  0  0  0  0
 23 30  1  0  0  0  0
 18 24  1  0  0  0  0
  3  4  1  0  0  0  0
  3  5  1  0  0  0  0
  3  6  1  0  0  0  0
 11 14  1  0  0  0  0
 11 15  1  0  0  0  0
 11 16  1  0  0  0  0
 35 38  1  0  0  0  0
 35 39  1  0  0  0  0
 35 40  1  0  0  0  0
 42 44  1  0  0  0  0
 42 45  1  0  0  0  0
 42 46  1  0  0  0  0
  8 13  1  0  0  0  0
 32 37  1  0  0  0  0
 31 36  1  0  0  0  0
 41 43  1  0  0  0  0
  7 12  1  0  0  0  0
M  END
$$$$

  -OEChem-05262214473D

 46 46  0     1  0  0  0  0  0999 V2000
   -0.6012   -3.2995    3.8205 C   0  0  0  0  0  0  0  0  0  0  0  0
   -0.6574   -4.4683    3.4568 O   0  0  0  0  0  0  0  0  0  0  0  0
   -0.4935   -2.9859    5.2760 C   0  0  0  0  0  0  0  0  0  0  0  0
   -1.4789   -2.8689    5.7550 H   0  0  0  0  0  0  0  0  0  0  0  0
    0.0123   -3.7847    5.8419 H   0  0  0  0  0  0  0  0  0  0  0  0
    0.0585   -2.0642    5.5199 H   0  0  0  0  0  0  0  0  0  0  0  0
   -0.6261   -2.1849    2.9917 N   0  0  0  0  0  0  0  0  0  0  0  0
   -0.7237   -2.2601    1.5650 C   0  0  2  0  0  0  0  0  0  0  0  0
    0.1695   -1.1513    1.0687 C   0  0  0  0  0  0  0  0  0  0  0  0
    0.3193   -0.1267    1.7365 O   0  0  0  0  0  0  0  0  0  0  0  0
   -2.1397   -2.0663    1.0750 C   0  0  0  0  0  0  0  0  0  0  0  0
   -0.5717   -1.2606    3.4238 H   0  0  0  0  0  0  0  0  0  0  0  0
   -0.3076   -3.2111    1.2363 H   0  0  0  0  0  0  0  0  0  0  0  0
   -2.5584   -1.1089    1.4061 H   0  0  0  0  0  0  0  0  0  0  0  0
   -2.1682   -2.0790   -0.0197 H   0  0  0  0  0  0  0  0  0  0  0  0
   -2.7965   -2.8601    1.4459 H   0  0  0  0  0  0  0  0  0  0  0  0
    0.7724   -1.3745   -0.1593 N   0  0  0  0  0  0  0  0  0  0  0  0
    0.5614   -2.5964   -0.9244 C   0  0  2  0  0  0  0  0  0  0  0  0
    1.6157   -3.5728   -0.4972 C   0  0  0  0  0  0  0  0  0  0  0  0
    2.0234   -4.4091   -1.2948 O   0  0  0  0  0  0  0  0  0  0  0  0
    0.7345   -2.1771   -2.3796 C   0  0  0  0  0  0  0  0  0  0  0  0
    0.3244   -0.8671   -1.7112 C   0  0  0  0  0  0  0  0  0  0  0  0
    1.5408   -0.3981   -0.9273 C   0  0  0  0  0  0  0  0  0  0  0  0
   -0.4227   -3.0263   -0.7144 H   0  0  0  0  0  0  0  0  0  0  0  0
    0.0120   -2.7078   -3.0110 H   0  0  0  0  0  0  0  0  0  0  0  0
    1.7400   -2.3597   -2.7711 H   0  0  0  0  0  0  0  0  0  0  0  0
    0.0755   -0.1144   -2.4681 H   0  0  0  0  0  0  0  0  0  0  0  0
   -0.5410   -0.9920   -1.0542 H   0  0  0  0  0  0  0  0  0  0  0  0
    2.4811   -0.6014   -1.4471 H   0  0  0  0  0  0  0  0  0  0  0  0
    1.4806    0.6724   -0.7030 H   0  0  0  0  0  0  0  0  0  0  0  0
    1.9097   -3.1965    0.9902 N   0  0  0  0  0  0  0  0  0  0  0  0
    2.9678   -3.8477    1.7288 C   0  0  2  0  0  0  0  0  0  0  0  0
    4.2963   -3.4383    1.1068 C   0  0  0  0  0  0  0  0  0  0  0  0
    4.3991   -3.0320   -0.0488 O   0  0  0  0  0  0  0  0  0  0  0  0
    2.8035   -5.3595    1.7139 C   0  0  0  0  0  0  0  0  0  0  0  0
    1.2748   -2.5842    1.4936 H   0  0  0  0  0  0  0  0  0  0  0  0
    2.9137   -3.4719    2.7564 H   0  0  0  0  0  0  0  0  0  0  0  0
    2.8548   -5.7542    0.6927 H   0  0  0  0  0  0  0  0  0  0  0  0
    3.5896   -5.8497    2.2977 H   0  0  0  0  0  0  0  0  0  0  0  0
    1.8348   -5.6504    2.1344 H   0  0  0  0  0  0  0  0  0  0  0  0
    5.3596   -3.6210    1.9799 N   0  0  0  0  0  0  0  0  0  0  0  0
    6.7249   -3.3173    1.6199 C   0  0  0  0  0  0  0  0  0  0  0  0
    5.1796   -3.9447    2.9257 H   0  0  0  0  0  0  0  0  0  0  0  0
    7.2085   -4.2203    1.2189 H   0  0  0  0  0  0  0  0  0  0  0  0
    6.7352   -2.5260    0.8559 H   0  0  0  0  0  0  0  0  0  0  0  0
    7.2712   -2.9740    2.5109 H   0  0  0  0  0  0  0  0  0  0  0  0
 18 19  1  0  0  0  0
 19 31  1  0  0  0  0
 19 20  2  0  0  0  0
  8  9  1  0  0  0  0
  9 17  1  0  0  0  0
  9 10  2  0  0  0  0
  1  3  1  0  0  0  0
  1  7  1  0  0  0  0
  1  2  2  0  0  0  0
 32 33  1  0  0  0  0
 33 41  1  0  0  0  0
 33 34  2  0  0  0  0
 21 22  1  0  0  0  0
 22 23  1  0  0  0  0
 18 21  1  0  0  0  0
 17 23  1  0  0  0  0
 17 18  1  0  0  0  0
  8 11  1  0  0  0  0
 32 35  1  0  0  0  0
 41 42  1  0  0  0  0
  7  8  1  0  0  0  0
 31 32  1  0  0  0  0
 22 27  1  0  0  0  0
 22 28  1  0  0  0  0
 21 25  1  0  0  0  0
 21 26  1  0  0  0  0
 23 29  1  0  0  0  0
 23 30  1  0  0  0  0
 18 24  1  0  0  0  0
  3  4  1  0  0  0  0
  3  5  1  0  0  0  0
  3  6  1  0  0  0  0
 11 14  1  0  0  0  0
 11 15  1  0  0  0  0
 11 16  1  0  0  0  0
 35 38  1  0  0  0  0
 35 39  1  0  0  0  0
 35 40  1  0  0  0  0
 42 44  1  0  0  0  0
 42 45  1  0  0  0  0
 42 46  1  0  0  0  0
  8 13  1  0  0  0  0
 32 37  1  0  0  0  0
 31 36  1  0  0  0  0
 41 43  1  0  0  0  0
  7 12  1  0  0  0  0
M  END
$$$$

  -OEChem-05262214473D

 46 46  0     1  0  0  0  0  0999 V2000
   -0.6012   -3.2995    3.8205 C   0  0  0  0  0  0  0  0  0  0  0  0
   -0.6574   -4.4683    3.4568 O   0  0  0  0  0  0  0  0  0  0  0  0
   -0.4935   -2.9859    5.2760 C   0  0  0  0  0  0  0  0  0  0  0  0
   -1.4789   -2.8689    5.7550 H   0  0  0  0  0  0  0  0  0  0  0  0
    0.0123   -3.7847    5.8419 H   0  0  0  0  0  0  0  0  0  0  0  0
    0.0585   -2.0642    5.5199 H   0  0  0  0  0  0  0  0  0  0  0  0
   -0.6261   -2.1849    2.9917 N   0  0  0  0  0  0  0  0  0  0  0  0
   -0.7237   -2.2601    1.5650 C   0  0  2  0  0  0  0  0  0  0  0  0
    0.1695   -1.1513    1.0687 C   0  0  0  0  0  0  0  0  0  0  0  0
    0.3193   -0.1267    1.7365 O   0  0  0  0  0  0  0  0  0  0  0  0
   -2.1397   -2.0663    1.0750 C   0  0  0  0  0  0  0  0  0  0  0  0
   -0.5717   -1.2606    3.4238 H   0  0  0  0  0  0  0  0  0  0  0  0
   -0.3076   -3.2111    1.2363 H   0  0  0  0  0  0  0  0  0  0  0  0
   -2.5584   -1.1089    1.4061 H   0  0  0  0  0  0  0  0  0  0  0  0
   -2.1682   -2.0790   -0.0197 H   0  0  0  0  0  0  0  0  0  0  0  0
   -2.7965   -2.8601    1.4459 H   0  0  0  0  0  0  0  0  0  0  0  0
    0.7724   -1.3745   -0.1593 N   0  0  0  0  0  0  0  0  0  0  0  0
    0.5614   -2.5964   -0.9244 C   0  0  2  0  0  0  0  0  0  0  0  0
    1.6157   -3.5728   -0.4972 C   0  0  0  0  0  0  0  0  0  0  0  0
    2.2201   -4.2188   -1.3452 O   0  0  0  0  0  0  0  0  0  0  0  0
    0.7345   -2.1771   -2.3796 C   0  0  0  0  0  0  0  0  0  0  0  0
    0.3244   -0.8671   -1.7112 C   0  0  0  0  0  0  0  0  0  0  0  0
    1.5408   -0.3981   -0.9273 C   0  0  0  0  0  0  0  0  0  0  0  0
   -0.4227   -3.0263   -0.7144 H   0  0  0  0  0  0  0  0  0  0  0  0
    0.0120   -2.7078   -3.0110 H   0  0  0  0  0  0  0  0  0  0  0  0
    1.7400   -2.3597   -2.7711 H   0  0  0  0  0  0  0  0  0  0  0  0
    0.0755   -0.1144   -2.4681 H   0  0  0  0  0  0  0  0  0  0  0  0
   -0.5410   -0.9920   -1.0542 H   0  0  0  0  0  0  0  0  0  0  0  0
    2.4811   -0.6014   -1.4471 H   0  0  0  0  0  0  0  0  0  0  0  0
    1.4806    0.6724   -0.7030 H   0  0  0  0  0  0  0  0  0  0  0  0
    1.6304   -3.4669    1.0614 N   0  0  0  0  0  0  0  0  0  0  0  0
    2.6090   -4.1829    1.8480 C   0  0  2  0  0  0  0  0  0  0  0  0
    3.9787   -3.5872    1.5504 C   0  0  0  0  0  0  0  0  0  0  0  0
    4.2303   -2.9653    0.5204 O   0  0  0  0  0  0  0  0  0  0  0  0
    2.5850   -5.6718    1.5392 C   0  0  0  0  0  0  0  0  0  0  0  0
    0.8703   -2.9983    1.5452 H   0  0  0  0  0  0  0  0  0  0  0  0
    2.3561   -4.0113    2.8999 H   0  0  0  0  0  0  0  0  0  0  0  0
    2.8360   -5.8635    0.4895 H   0  0  0  0  0  0  0  0  0  0  0  0
    3.3070   -6.2167    2.1564 H   0  0  0  0  0  0  0  0  0  0  0  0
    1.5910   -6.0925    1.7254 H   0  0  0  0  0  0  0  0  0  0  0  0
    4.8988   -3.8689    2.5506 N   0  0  0  0  0  0  0  0  0  0  0  0
    6.2717   -3.4240    2.4947 C   0  0  0  0  0  0  0  0  0  0  0  0
    4.5978   -4.3749    3.3783 H   0  0  0  0  0  0  0  0  0  0  0  0
    6.8924   -4.2057    2.0324 H   0  0  0  0  0  0  0  0  0  0  0  0
    6.3347   -2.5037    1.8955 H   0  0  0  0  0  0  0  0  0  0  0  0
    6.6337   -3.2235    3.5139 H   0  0  0  0  0  0  0  0  0  0  0  0
 18 19  1  0  0  0  0
 19 31  1  0  0  0  0
 19 20  2  0  0  0  0
  8  9  1  0  0  0  0
  9 17  1  0  0  0  0
  9 10  2  0  0  0  0
  1  3  1  0  0  0  0
  1  7  1  0  0  0  0
  1  2  2  0  0  0  0
 32 33  1  0  0  0  0
 33 41  1  0  0  0  0
 33 34  2  0  0  0  0
 21 22  1  0  0  0  0
 22 23  1  0  0  0  0
 18 21  1  0  0  0  0
 17 23  1  0  0  0  0
 17 18  1  0  0  0  0
  8 11  1  0  0  0  0
 32 35  1  0  0  0  0
 41 42  1  0  0  0  0
  7  8  1  0  0  0  0
 31 32  1  0  0  0  0
 22 27  1  0  0  0  0
 22 28  1  0  0  0  0
 21 25  1  0  0  0  0
 21 26  1  0  0  0  0
 23 29  1  0  0  0  0
 23 30  1  0  0  0  0
 18 24  1  0  0  0  0
  3  4  1  0  0  0  0
  3  5  1  0  0  0  0
  3  6  1  0  0  0  0
 11 14  1  0  0  0  0
 11 15  1  0  0  0  0
 11 16  1  0  0  0  0
 35 38  1  0  0  0  0
 35 39  1  0  0  0  0
 35 40  1  0  0  0  0
 42 44  1  0  0  0  0
 42 45  1  0  0  0  0
 42 46  1  0  0  0  0
  8 13  1  0  0  0  0
 32 37  1  0  0  0  0
 31 36  1  0  0  0  0
 41 43  1  0  0  0  0
  7 12  1  0  0  0  0
M  END
$$$$

  -OEChem-05262214473D

 46 46  0     1  0  0  0  0  0999 V2000
   -0.6012   -3.2995    3.8205 C   0  0  0  0  0  0  0  0  0  0  0  0
   -0.6574   -4.4683    3.4568 O   0  0  0  0  0  0  0  0  0  0  0  0
   -0.4935   -2.9859    5.2760 C   0  0  0  0  0  0  0  0  0  0  0  0
   -1.4789   -2.8689    5.7550 H   0  0  0  0  0  0  0  0  0  0  0  0
    0.0123   -3.7847    5.8419 H   0  0  0  0  0  0  0  0  0  0  0  0
    0.0585   -2.0642    5.5199 H   0  0  0  0  0  0  0  0  0  0  0  0
   -0.6261   -2.1849    2.9917 N   0  0  0  0  0  0  0  0  0  0  0  0
   -0.7237   -2.2601    1.5650 C   0  0  2  0  0  0  0  0  0  0  0  0
    0.1695   -1.1513    1.0687 C   0  0  0  0  0  0  0  0  0  0  0  0
    0.3193   -0.1267    1.7365 O   0  0  0  0  0  0  0  0  0  0  0  0
   -2.1397   -2.0663    1.0750 C   0  0  0  0  0  0  0  0  0  0  0  0
   -0.5717   -1.2606    3.4238 H   0  0  0  0  0  0  0  0  0  0  0  0
   -0.3076   -3.2111    1.2363 H   0  0  0  0  0  0  0  0  0  0  0  0
   -2.5584   -1.1089    1.4061 H   0  0  0  0  0  0  0  0  0  0  0  0
   -2.1682   -2.0790   -0.0197 H   0  0  0  0  0  0  0  0  0  0  0  0
   -2.7965   -2.8601    1.4459 H   0  0  0  0  0  0  0  0  0  0  0  0
    0.7724   -1.3745   -0.1593 N   0  0  0  0  0  0  0  0  0  0  0  0
    0.5614   -2.5964   -0.9244 C   0  0  2  0  0  0  0  0  0  0  0  0
    1.6157   -3.5728   -0.4972 C   0  0  0  0  0  0  0  0  0  0  0  0
    2.4046   -4.0113   -1.3261 O   0  0  0  0  0  0  0  0  0  0  0  0
    0.7345   -2.1771   -2.3796 C   0  0  0  0  0  0  0  0  0  0  0  0
    0.3244   -0.8671   -1.7112 C   0  0  0  0  0  0  0  0  0  0  0  0
    1.5408   -0.3981   -0.9273 C   0  0  0  0  0  0  0  0  0  0  0  0
   -0.4227   -3.0263   -0.7144 H   0  0  0  0  0  0  0  0  0  0  0  0
    0.0120   -2.7078   -3.0110 H   0  0  0  0  0  0  0  0  0  0  0  0
    1.7400   -2.3597   -2.7711 H   0  0  0  0  0  0  0  0  0  0  0  0
    0.0755   -0.1144   -2.4681 H   0  0  0  0  0  0  0  0  0  0  0  0
   -0.5410   -0.9920   -1.0542 H   0  0  0  0  0  0  0  0  0  0  0  0
    2.4811   -0.6014   -1.4471 H   0  0  0  0  0  0  0  0  0  0  0  0
    1.4806    0.6724   -0.7030 H   0  0  0  0  0  0  0  0  0  0  0  0
    1.3686   -3.7617    1.0338 N   0  0  0  0  0  0  0  0  0  0  0  0
    2.2671   -4.5549    1.8416 C   0  0  2  0  0  0  0  0  0  0  0  0
    3.6081   -3.8352    1.8982 C   0  0  0  0  0  0  0  0  0  0  0  0
    3.9664   -3.0168    1.0539 O   0  0  0  0  0  0  0  0  0  0  0  0
    2.4265   -5.9578    1.2766 C   0  0  0  0  0  0  0  0  0  0  0  0
    0.5015   -3.4376    1.4514 H   0  0  0  0  0  0  0  0  0  0  0  0
    1.8331   -4.5994    2.8464 H   0  0  0  0  0  0  0  0  0  0  0  0
    2.8600   -5.9335    0.2702 H   0  0  0  0  0  0  0  0  0  0  0  0
    3.0849   -6.5663    1.9054 H   0  0  0  0  0  0  0  0  0  0  0  0
    1.4571   -6.4632    1.2088 H   0  0  0  0  0  0  0  0  0  0  0  0
    4.3757   -4.2463    2.9790 N   0  0  0  0  0  0  0  0  0  0  0  0
    5.6943   -3.7198    3.2439 C   0  0  0  0  0  0  0  0  0  0  0  0
    3.9913   -4.9157    3.6391 H   0  0  0  0  0  0  0  0  0  0  0  0
    6.4490   -4.3629    2.7676 H   0  0  0  0  0  0  0  0  0  0  0  0
    5.7709   -2.7010    2.8361 H   0  0  0  0  0  0  0  0  0  0  0  0
    5.8673   -3.6941    4.3299 H   0  0  0  0  0  0  0  0  0  0  0  0
 18 19  1  0  0  0  0
 19 31  1  0  0  0  0
 19 20  2  0  0  0  0
  8  9  1  0  0  0  0
  9 17  1  0  0  0  0
  9 10  2  0  0  0  0
  1  3  1  0  0  0  0
  1  7  1  0  0  0  0
  1  2  2  0  0  0  0
 32 33  1  0  0  0  0
 33 41  1  0  0  0  0
 33 34  2  0  0  0  0
 21 22  1  0  0  0  0
 22 23  1  0  0  0  0
 18 21  1  0  0  0  0
 17 23  1  0  0  0  0
 17 18  1  0  0  0  0
  8 11  1  0  0  0  0
 32 35  1  0  0  0  0
 41 42  1  0  0  0  0
  7  8  1  0  0  0  0
 31 32  1  0  0  0  0
 22 27  1  0  0  0  0
 22 28  1  0  0  0  0
 21 25  1  0  0  0  0
 21 26  1  0  0  0  0
 23 29  1  0  0  0  0
 23 30  1  0  0  0  0
 18 24  1  0  0  0  0
  3  4  1  0  0  0  0
  3  5  1  0  0  0  0
  3  6  1  0  0  0  0
 11 14  1  0  0  0  0
 11 15  1  0  0  0  0
 11 16  1  0  0  0  0
 35 38  1  0  0  0  0
 35 39  1  0  0  0  0
 35 40  1  0  0  0  0
 42 44  1  0  0  0  0
 42 45  1  0  0  0  0
 42 46  1  0  0  0  0
  8 13  1  0  0  0  0
 32 37  1  0  0  0  0
 31 36  1  0  0  0  0
 41 43  1  0  0  0  0
  7 12  1  0  0  0  0
M  END
$$$$

  -OEChem-05262214473D

 46 46  0     1  0  0  0  0  0999 V2000
   -0.6012   -3.2995    3.8205 C   0  0  0  0  0  0  0  0  0  0  0  0
   -0.6574   -4.4683    3.4568 O   0  0  0  0  0  0  0  0  0  0  0  0
   -0.4935   -2.9859    5.2760 C   0  0  0  0  0  0  0  0  0  0  0  0
   -1.4789   -2.8689    5.7550 H   0  0  0  0  0  0  0  0  0  0  0  0
    0.0123   -3.7847    5.8419 H   0  0  0  0  0  0  0  0  0  0  0  0
    0.0585   -2.0642    5.5199 H   0  0  0  0  0  0  0  0  0  0  0  0
   -0.6261   -2.1849    2.9917 N   0  0  0  0  0  0  0  0  0  0  0  0
   -0.7237   -2.2601    1.5650 C   0  0  2  0  0  0  0  0  0  0  0  0
    0.1695   -1.1513    1.0687 C   0  0  0  0  0  0  0  0  0  0  0  0
    0.3193   -0.1267    1.7365 O   0  0  0  0  0  0  0  0  0  0  0  0
   -2.1397   -2.0663    1.0750 C   0  0  0  0  0  0  0  0  0  0  0  0
   -0.5717   -1.2606    3.4238 H   0  0  0  0  0  0  0  0  0  0  0  0
   -0.3076   -3.2111    1.2363 H   0  0  0  0  0  0  0  0  0  0  0  0
   -2.5584   -1.1089    1.4061 H   0  0  0  0  0  0  0  0  0  0  0  0
   -2.1682   -2.0790   -0.0197 H   0  0  0  0  0  0  0  0  0  0  0  0
   -2.7965   -2.8601    1.4459 H   0  0  0  0  0  0  0  0  0  0  0  0
    0.7724   -1.3745   -0.1593 N   0  0  0  0  0  0  0  0  0  0  0  0
    0.5614   -2.5964   -0.9244 C   0  0  2  0  0  0  0  0  0  0  0  0
    1.6157   -3.5728   -0.4972 C   0  0  0  0  0  0  0  0  0  0  0  0
    2.5642   -3.8007   -1.2389 O   0  0  0  0  0  0  0  0  0  0  0  0
    0.7345   -2.1771   -2.3796 C   0  0  0  0  0  0  0  0  0  0  0  0
    0.3244   -0.8671   -1.7112 C   0  0  0  0  0  0  0  0  0  0  0  0
    1.5408   -0.3981   -0.9273 C   0  0  0  0  0  0  0  0  0  0  0  0
   -0.4227   -3.0263   -0.7144 H   0  0  0  0  0  0  0  0  0  0  0  0
    0.0120   -2.7078   -3.0110 H   0  0  0  0  0  0  0  0  0  0  0  0
    1.7400   -2.3597   -2.7711 H   0  0  0  0  0  0  0  0  0  0  0  0
    0.0755   -0.1144   -2.4681 H   0  0  0  0  0  0  0  0  0  0  0  0
   -0.5410   -0.9920   -1.0542 H   0  0  0  0  0  0  0  0  0  0  0  0
    2.4811   -0.6014   -1.4471 H   0  0  0  0  0  0  0  0  0  0  0  0
    1.4806    0.6724   -0.7030 H   0  0  0  0  0  0  0  0  0  0  0  0
    1.1421   -4.0607    0.9093 N   0  0  0  0  0  0  0  0  0  0  0  0
    1.9653   -4.9383    1.7101 C   0  0  2  0  0  0  0  0  0  0  0  0
    3.2098   -4.1654    2.1266 C   0  0  0  0  0  0  0  0  0  0  0  0
    3.6253   -3.1832    1.5153 O   0  0  0  0  0  0  0  0  0  0  0  0
    2.3388   -6.1980    0.9443 C   0  0  0  0  0  0  0  0  0  0  0  0
    0.1934   -3.8720    1.2188 H   0  0  0  0  0  0  0  0  0  0  0  0
    1.3802   -5.1964    2.5995 H   0  0  0  0  0  0  0  0  0  0  0  0
    2.9254   -5.9593    0.0497 H   0  0  0  0  0  0  0  0  0  0  0  0
    2.9385   -6.8747    1.5619 H   0  0  0  0  0  0  0  0  0  0  0  0
    1.4421   -6.7370    0.6197 H   0  0  0  0  0  0  0  0  0  0  0  0
    3.8261   -4.7273    3.2359 N   0  0  0  0  0  0  0  0  0  0  0  0
    5.0321   -4.1844    3.8163 C   0  0  0  0  0  0  0  0  0  0  0  0
    3.4013   -5.5303    3.6903 H   0  0  0  0  0  0  0  0  0  0  0  0
    5.9083   -4.6813    3.3743 H   0  0  0  0  0  0  0  0  0  0  0  0
    5.0823   -3.1044    3.6138 H   0  0  0  0  0  0  0  0  0  0  0  0
    5.0242   -4.3537    4.9032 H   0  0  0  0  0  0  0  0  0  0  0  0
 18 19  1  0  0  0  0
 19 31  1  0  0  0  0
 19 20  2  0  0  0  0
  8  9  1  0  0  0  0
  9 17  1  0  0  0  0
  9 10  2  0  0  0  0
  1  3  1  0  0  0  0
  1  7  1  0  0  0  0
  1  2  2  0  0  0  0
 32 33  1  0  0  0  0
 33 41  1  0  0  0  0
 33 34  2  0  0  0  0
 21 22  1  0  0  0  0
 22 23  1  0  0  0  0
 18 21  1  0  0  0  0
 17 23  1  0  0  0  0
 17 18  1  0  0  0  0
  8 11  1  0  0  0  0
 32 35  1  0  0  0  0
 41 42  1  0  0  0  0
  7  8  1  0  0  0  0
 31 32  1  0  0  0  0
 22 27  1  0  0  0  0
 22 28  1  0  0  0  0
 21 25  1  0  0  0  0
 21 26  1  0  0  0  0
 23 29  1  0  0  0  0
 23 30  1  0  0  0  0
 18 24  1  0  0  0  0
  3  4  1  0  0  0  0
  3  5  1  0  0  0  0
  3  6  1  0  0  0  0
 11 14  1  0  0  0  0
 11 15  1  0  0  0  0
 11 16  1  0  0  0  0
 35 38  1  0  0  0  0
 35 39  1  0  0  0  0
 35 40  1  0  0  0  0
 42 44  1  0  0  0  0
 42 45  1  0  0  0  0
 42 46  1  0  0  0  0
  8 13  1  0  0  0  0
 32 37  1  0  0  0  0
 31 36  1  0  0  0  0
 41 43  1  0  0  0  0
  7 12  1  0  0  0  0
M  END
$$$$

  -OEChem-05262214473D

 46 46  0     1  0  0  0  0  0999 V2000
   -0.6012   -3.2995    3.8205 C   0  0  0  0  0  0  0  0  0  0  0  0
   -0.6574   -4.4683    3.4568 O   0  0  0  0  0  0  0  0  0  0  0  0
   -0.4935   -2.9859    5.2760 C   0  0  0  0  0  0  0  0  0  0  0  0
   -1.4789   -2.8689    5.7550 H   0  0  0  0  0  0  0  0  0  0  0  0
    0.0123   -3.7847    5.8419 H   0  0  0  0  0  0  0  0  0  0  0  0
    0.0585   -2.0642    5.5199 H   0  0  0  0  0  0  0  0  0  0  0  0
   -0.6261   -2.1849    2.9917 N   0  0  0  0  0  0  0  0  0  0  0  0
   -0.7237   -2.2601    1.5650 C   0  0  2  0  0  0  0  0  0  0  0  0
    0.1695   -1.1513    1.0687 C   0  0  0  0  0  0  0  0  0  0  0  0
    0.3193   -0.1267    1.7365 O   0  0  0  0  0  0  0  0  0  0  0  0
   -2.1397   -2.0663    1.0750 C   0  0  0  0  0  0  0  0  0  0  0  0
   -0.5717   -1.2606    3.4238 H   0  0  0  0  0  0  0  0  0  0  0  0
   -0.3076   -3.2111    1.2363 H   0  0  0  0  0  0  0  0  0  0  0  0
   -2.5584   -1.1089    1.4061 H   0  0  0  0  0  0  0  0  0  0  0  0
   -2.1682   -2.0790   -0.0197 H   0  0  0  0  0  0  0  0  0  0  0  0
   -2.7965   -2.8601    1.4459 H   0  0  0  0  0  0  0  0  0  0  0  0
    0.7724   -1.3745   -0.1593 N   0  0  0  0  0  0  0  0  0  0  0  0
    0.5614   -2.5964   -0.9244 C   0  0  2  0  0  0  0  0  0  0  0  0
    1.6157   -3.5728   -0.4972 C   0  0  0  0  0  0  0  0  0  0  0  0
    2.6882   -3.6014   -1.0893 O   0  0  0  0  0  0  0  0  0  0  0  0
    0.7345   -2.1771   -2.3796 C   0  0  0  0  0  0  0  0  0  0  0  0
    0.3244   -0.8671   -1.7112 C   0  0  0  0  0  0  0  0  0  0  0  0
    1.5408   -0.3981   -0.9273 C   0  0  0  0  0  0  0  0  0  0  0  0
   -0.4227   -3.0263   -0.7144 H   0  0  0  0  0  0  0  0  0  0  0  0
    0.0120   -2.7078   -3.0110 H   0  0  0  0  0  0  0  0  0  0  0  0
    1.7400   -2.3597   -2.7711 H   0  0  0  0  0  0  0  0  0  0  0  0
    0.0755   -0.1144   -2.4681 H   0  0  0  0  0  0  0  0  0  0  0  0
   -0.5410   -0.9920   -1.0542 H   0  0  0  0  0  0  0  0  0  0  0  0
    2.4811   -0.6014   -1.4471 H   0  0  0  0  0  0  0  0  0  0  0  0
    1.4806    0.6724   -0.7030 H   0  0  0  0  0  0  0  0  0  0  0  0
    0.9664   -4.3436    0.6965 N   0  0  0  0  0  0  0  0  0  0  0  0
    1.7243   -5.3069    1.4624 C   0  0  2  0  0  0  0  0  0  0  0  0
    2.8109   -4.5553    2.2200 C   0  0  0  0  0  0  0  0  0  0  0  0
    3.2304   -3.4531    1.8733 O   0  0  0  0  0  0  0  0  0  0  0  0
    2.3277   -6.3759    0.5647 C   0  0  0  0  0  0  0  0  0  0  0  0
   -0.0329   -4.2721    0.8630 H   0  0  0  0  0  0  0  0  0  0  0  0
    1.0285   -5.7615    2.1760 H   0  0  0  0  0  0  0  0  0  0  0  0
    3.0276   -5.9394   -0.1570 H   0  0  0  0  0  0  0  0  0  0  0  0
    2.8776   -7.1208    1.1494 H   0  0  0  0  0  0  0  0  0  0  0  0
    1.5472   -6.8954   -0.0016 H   0  0  0  0  0  0  0  0  0  0  0  0
    3.2874   -5.2793    3.3039 N   0  0  0  0  0  0  0  0  0  0  0  0
    4.3302   -4.7862    4.1730 C   0  0  0  0  0  0  0  0  0  0  0  0
    2.8681   -6.1768    3.5285 H   0  0  0  0  0  0  0  0  0  0  0  0
    5.3072   -5.1392    3.8113 H   0  0  0  0  0  0  0  0  0  0  0  0
    4.3158   -3.6863    4.1754 H   0  0  0  0  0  0  0  0  0  0  0  0
    4.1618   -5.1573    5.1948 H   0  0  0  0  0  0  0  0  0  0  0  0
 18 19  1  0  0  0  0
 19 31  1  0  0  0  0
 19 20  2  0  0  0  0
  8  9  1  0  0  0  0
  9 17  1  0  0  0  0
  9 10  2  0  0  0  0
  1  3  1  0  0  0  0
  1  7  1  0  0  0  0
  1  2  2  0  0  0  0
 32 33  1  0  0  0  0
 33 41  1  0  0  0  0
 33 34  2  0  0  0  0
 21 22  1  0  0  0  0
 22 23  1  0  0  0  0
 18 21  1  0  0  0  0
 17 23  1  0  0  0  0
 17 18  1  0  0  0  0
  8 11  1  0  0  0  0
 32 35  1  0  0  0  0
 41 42  1  0  0  0  0
  7  8  1  0  0  0  0
 31 32  1  0  0  0  0
 22 27  1  0  0  0  0
 22 28  1  0  0  0  0
 21 25  1  0  0  0  0
 21 26  1  0  0  0  0
 23 29  1  0  0  0  0
 23 30  1  0  0  0  0
 18 24  1  0  0  0  0
  3  4  1  0  0  0  0
  3  5  1  0  0  0  0
  3  6  1  0  0  0  0
 11 14  1  0  0  0  0
 11 15  1  0  0  0  0
 11 16  1  0  0  0  0
 35 38  1  0  0  0  0
 35 39  1  0  0  0  0
 35 40  1  0  0  0  0
 42 44  1  0  0  0  0
 42 45  1  0  0  0  0
 42 46  1  0  0  0  0
  8 13  1  0  0  0  0
 32 37  1  0  0  0  0
 31 36  1  0  0  0  0
 41 43  1  0  0  0  0
  7 12  1  0  0  0  0
M  END
$$$$

  -OEChem-05262214473D

 46 46  0     1  0  0  0  0  0999 V2000
   -0.6012   -3.2995    3.8205 C   0  0  0  0  0  0  0  0  0  0  0  0
   -0.6574   -4.4683    3.4568 O   0  0  0  0  0  0  0  0  0  0  0  0
   -0.4935   -2.9859    5.2760 C   0  0  0  0  0  0  0  0  0  0  0  0
   -1.4789   -2.8689    5.7550 H   0  0  0  0  0  0  0  0  0  0  0  0
    0.0123   -3.7847    5.8419 H   0  0  0  0  0  0  0  0  0  0  0  0
    0.0585   -2.0642    5.5199 H   0  0  0  0  0  0  0  0  0  0  0  0
   -0.6261   -2.1849    2.9917 N   0  0  0  0  0  0  0  0  0  0  0  0
   -0.7237   -2.2601    1.5650 C   0  0  2  0  0  0  0  0  0  0  0  0
    0.1695   -1.1513    1.0687 C   0  0  0  0  0  0  0  0  0  0  0  0
    0.3193   -0.1267    1.7365 O   0  0  0  0  0  0  0  0  0  0  0  0
   -2.1397   -2.0663    1.0750 C   0  0  0  0  0  0  0  0  0  0  0  0
   -0.5717   -1.2606    3.4238 H   0  0  0  0  0  0  0  0  0  0  0  0
   -0.3076   -3.2111    1.2363 H   0  0  0  0  0  0  0  0  0  0  0  0
   -2.5584   -1.1089    1.4061 H   0  0  0  0  0  0  0  0  0  0  0  0
   -2.1682   -2.0790   -0.0197 H   0  0  0  0  0  0  0  0  0  0  0  0
   -2.7965   -2.8601    1.4459 H   0  0  0  0  0  0  0  0  0  0  0  0
    0.7724   -1.3745   -0.1593 N   0  0  0  0  0  0  0  0  0  0  0  0
    0.5614   -2.5964   -0.9244 C   0  0  2  0  0  0  0  0  0  0  0  0
    1.6157   -3.5728   -0.4972 C   0  0  0  0  0  0  0  0  0  0  0  0
    2.7681   -3.4270   -0.8876 O   0  0  0  0  0  0  0  0  0  0  0  0
    0.7345   -2.1771   -2.3796 C   0  0  0  0  0  0  0  0  0  0  0  0
    0.3244   -0.8671   -1.7112 C   0  0  0  0  0  0  0  0  0  0  0  0
    1.5408   -0.3981   -0.9273 C   0  0  0  0  0  0  0  0  0  0  0  0
   -0.4227   -3.0263   -0.7144 H   0  0  0  0  0  0  0  0  0  0  0  0
    0.0120   -2.7078   -3.0110 H   0  0  0  0  0  0  0  0  0  0  0  0
    1.7400   -2.3597   -2.7711 H   0  0  0  0  0  0  0  0  0  0  0  0
    0.0755   -0.1144   -2.4681 H   0  0  0  0  0  0  0  0  0  0  0  0
   -0.5410   -0.9920   -1.0542 H   0  0  0  0  0  0  0  0  0  0  0  0
    2.4811   -0.6014   -1.4471 H   0  0  0  0  0  0  0  0  0  0  0  0
    1.4806    0.6724   -0.7030 H   0  0  0  0  0  0  0  0  0  0  0  0
    0.8533   -4.5910    0.4098 N   0  0  0  0  0  0  0  0  0  0  0  0
    1.5604   -5.6356    1.1154 C   0  0  2  0  0  0  0  0  0  0  0  0
    2.4386   -4.9783    2.1719 C   0  0  0  0  0  0  0  0  0  0  0  0
    2.8084   -3.8080    2.1033 O   0  0  0  0  0  0  0  0  0  0  0  0
    2.3941   -6.4796    0.1639 C   0  0  0  0  0  0  0  0  0  0  0  0
   -0.1621   -4.6104    0.4084 H   0  0  0  0  0  0  0  0  0  0  0  0
    0.8018   -6.2562    1.6047 H   0  0  0  0  0  0  0  0  0  0  0  0
    3.1597   -5.8749   -0.3358 H   0  0  0  0  0  0  0  0  0  0  0  0
    2.9066   -7.2880    0.6958 H   0  0  0  0  0  0  0  0  0  0  0  0
    1.7651   -6.9275   -0.6129 H   0  0  0  0  0  0  0  0  0  0  0  0
    2.7962   -5.8646    3.1783 N   0  0  0  0  0  0  0  0  0  0  0  0
    3.6365   -5.4842    4.2898 C   0  0  0  0  0  0  0  0  0  0  0  0
    2.4281   -6.8111    3.1646 H   0  0  0  0  0  0  0  0  0  0  0  0
    4.6867   -5.7053    4.0487 H   0  0  0  0  0  0  0  0  0  0  0  0
    3.5236   -4.4072    4.4828 H   0  0  0  0  0  0  0  0  0  0  0  0
    3.3388   -6.0503    5.1848 H   0  0  0  0  0  0  0  0  0  0  0  0
 18 19  1  0  0  0  0
 19 31  1  0  0  0  0
 19 20  2  0  0  0  0
  8  9  1  0  0  0  0
  9 17  1  0  0  0  0
  9 10  2  0  0  0  0
  1  3  1  0  0  0  0
  1  7  1  0  0  0  0
  1  2  2  0  0  0  0
 32 33  1  0  0  0  0
 33 41  1  0  0  0  0
 33 34  2  0  0  0  0
 21 22  1  0  0  0  0
 22 23  1  0  0  0  0
 18 21  1  0  0  0  0
 17 23  1  0  0  0  0
 17 18  1  0  0  0  0
  8 11  1  0  0  0  0
 32 35  1  0  0  0  0
 41 42  1  0  0  0  0
  7  8  1  0  0  0  0
 31 32  1  0  0  0  0
 22 27  1  0  0  0  0
 22 28  1  0  0  0  0
 21 25  1  0  0  0  0
 21 26  1  0  0  0  0
 23 29  1  0  0  0  0
 23 30  1  0  0  0  0
 18 24  1  0  0  0  0
  3  4  1  0  0  0  0
  3  5  1  0  0  0  0
  3  6  1  0  0  0  0
 11 14  1  0  0  0  0
 11 15  1  0  0  0  0
 11 16  1  0  0  0  0
 35 38  1  0  0  0  0
 35 39  1  0  0  0  0
 35 40  1  0  0  0  0
 42 44  1  0  0  0  0
 42 45  1  0  0  0  0
 42 46  1  0  0  0  0
  8 13  1  0  0  0  0
 32 37  1  0  0  0  0
 31 36  1  0  0  0  0
 41 43  1  0  0  0  0
  7 12  1  0  0  0  0
M  END
$$$$

  -OEChem-05262214473D

 46 46  0     1  0  0  0  0  0999 V2000
   -0.6012   -3.2995    3.8205 C   0  0  0  0  0  0  0  0  0  0  0  0
   -0.6574   -4.4683    3.4568 O   0  0  0  0  0  0  0  0  0  0  0  0
   -0.4935   -2.9859    5.2760 C   0  0  0  0  0  0  0  0  0  0  0  0
   -1.4789   -2.8689    5.7550 H   0  0  0  0  0  0  0  0  0  0  0  0
    0.0123   -3.7847    5.8419 H   0  0  0  0  0  0  0  0  0  0  0  0
    0.0585   -2.0642    5.5199 H   0  0  0  0  0  0  0  0  0  0  0  0
   -0.6261   -2.1849    2.9917 N   0  0  0  0  0  0  0  0  0  0  0  0
   -0.7237   -2.2601    1.5650 C   0  0  2  0  0  0  0  0  0  0  0  0
    0.1695   -1.1513    1.0687 C   0  0  0  0  0  0  0  0  0  0  0  0
    0.3193   -0.1267    1.7365 O   0  0  0  0  0  0  0  0  0  0  0  0
   -2.1397   -2.0663    1.0750 C   0  0  0  0  0  0  0  0  0  0  0  0
   -0.5717   -1.2606    3.4238 H   0  0  0  0  0  0  0  0  0  0  0  0
   -0.3076   -3.2111    1.2363 H   0  0  0  0  0  0  0  0  0  0  0  0
   -2.5584   -1.1089    1.4061 H   0  0  0  0  0  0  0  0  0  0  0  0
   -2.1682   -2.0790   -0.0197 H   0  0  0  0  0  0  0  0  0  0  0  0
   -2.7965   -2.8601    1.4459 H   0  0  0  0  0  0  0  0  0  0  0  0
    0.7724   -1.3745   -0.1593 N   0  0  0  0  0  0  0  0  0  0  0  0
    0.5614   -2.5964   -0.9244 C   0  0  2  0  0  0  0  0  0  0  0  0
    1.6157   -3.5728   -0.4972 C   0  0  0  0  0  0  0  0  0  0  0  0
    2.7983   -3.2893   -0.6477 O   0  0  0  0  0  0  0  0  0  0  0  0
    0.7345   -2.1771   -2.3796 C   0  0  0  0  0  0  0  0  0  0  0  0
    0.3244   -0.8671   -1.7112 C   0  0  0  0  0  0  0  0  0  0  0  0
    1.5408   -0.3981   -0.9273 C   0  0  0  0  0  0  0  0  0  0  0  0
   -0.4227   -3.0263   -0.7144 H   0  0  0  0  0  0  0  0  0  0  0  0
    0.0120   -2.7078   -3.0110 H   0  0  0  0  0  0  0  0  0  0  0  0
    1.7400   -2.3597   -2.7711 H   0  0  0  0  0  0  0  0  0  0  0  0
    0.0755   -0.1144   -2.4681 H   0  0  0  0  0  0  0  0  0  0  0  0
   -0.5410   -0.9920   -1.0542 H   0  0  0  0  0  0  0  0  0  0  0  0
    2.4811   -0.6014   -1.4471 H   0  0  0  0  0  0  0  0  0  0  0  0
    1.4806    0.6724   -0.7030 H   0  0  0  0  0  0  0  0  0  0  0  0
    0.8107   -4.7862    0.0688 N   0  0  0  0  0  0  0  0  0  0  0  0
    1.4848   -5.9021    0.6928 C   0  0  2  0  0  0  0  0  0  0  0  0
    2.1183   -5.4056    1.9857 C   0  0  0  0  0  0  0  0  0  0  0  0
    2.3883   -4.2239    2.1898 O   0  0  0  0  0  0  0  0  0  0  0  0
    2.5335   -6.5018   -0.2310 C   0  0  0  0  0  0  0  0  0  0  0  0
   -0.1852   -4.8639   -0.1141 H   0  0  0  0  0  0  0  0  0  0  0  0
    0.7156   -6.6467    0.9247 H   0  0  0  0  0  0  0  0  0  0  0  0
    3.3128   -5.7704   -0.4745 H   0  0  0  0  0  0  0  0  0  0  0  0
    3.0234   -7.3647    0.2321 H   0  0  0  0  0  0  0  0  0  0  0  0
    2.0810   -6.8312   -1.1725 H   0  0  0  0  0  0  0  0  0  0  0  0
    2.3862   -6.4432    2.8677 N   0  0  0  0  0  0  0  0  0  0  0  0
    2.9982   -6.2308    4.1585 C   0  0  0  0  0  0  0  0  0  0  0  0
    2.1112   -7.3901    2.6235 H   0  0  0  0  0  0  0  0  0  0  0  0
    4.0891   -6.3412    4.0703 H   0  0  0  0  0  0  0  0  0  0  0  0
    2.7598   -5.2179    4.5150 H   0  0  0  0  0  0  0  0  0  0  0  0
    2.6115   -6.9717    4.8738 H   0  0  0  0  0  0  0  0  0  0  0  0
 18 19  1  0  0  0  0
 19 31  1  0  0  0  0
 19 20  2  0  0  0  0
  8  9  1  0  0  0  0
  9 17  1  0  0  0  0
  9 10  2  0  0  0  0
  1  3  1  0  0  0  0
  1  7  1  0  0  0  0
  1  2  2  0  0  0  0
 32 33  1  0  0  0  0
 33 41  1  0  0  0  0
 33 34  2  0  0  0  0
 21 22  1  0  0  0  0
 22 23  1  0  0  0  0
 18 21  1  0  0  0  0
 17 23  1  0  0  0  0
 17 18  1  0  0  0  0
  8 11  1  0  0  0  0
 32 35  1  0  0  0  0
 41 42  1  0  0  0  0
  7  8  1  0  0  0  0
 31 32  1  0  0  0  0
 22 27  1  0  0  0  0
 22 28  1  0  0  0  0
 21 25  1  0  0  0  0
 21 26  1  0  0  0  0
 23 29  1  0  0  0  0
 23 30  1  0  0  0  0
 18 24  1  0  0  0  0
  3  4  1  0  0  0  0
  3  5  1  0  0  0  0
  3  6  1  0  0  0  0
 11 14  1  0  0  0  0
 11 15  1  0  0  0  0
 11 16  1  0  0  0  0
 35 38  1  0  0  0  0
 35 39  1  0  0  0  0
 35 40  1  0  0  0  0
 42 44  1  0  0  0  0
 42 45  1  0  0  0  0
 42 46  1  0  0  0  0
  8 13  1  0  0  0  0
 32 37  1  0  0  0  0
 31 36  1  0  0  0  0
 41 43  1  0  0  0  0
  7 12  1  0  0  0  0
M  END
$$$$

  -OEChem-05262214473D

 46 46  0     1  0  0  0  0  0999 V2000
   -0.6012   -3.2995    3.8205 C   0  0  0  0  0  0  0  0  0  0  0  0
   -0.6574   -4.4683    3.4568 O   0  0  0  0  0  0  0  0  0  0  0  0
   -0.4935   -2.9859    5.2760 C   0  0  0  0  0  0  0  0  0  0  0  0
   -1.4789   -2.8689    5.7550 H   0  0  0  0  0  0  0  0  0  0  0  0
    0.0123   -3.7847    5.8419 H   0  0  0  0  0  0  0  0  0  0  0  0
    0.0585   -2.0642    5.5199 H   0  0  0  0  0  0  0  0  0  0  0  0
   -0.6261   -2.1849    2.9917 N   0  0  0  0  0  0  0  0  0  0  0  0
   -0.7237   -2.2601    1.5650 C   0  0  2  0  0  0  0  0  0  0  0  0
    0.1695   -1.1513    1.0687 C   0  0  0  0  0  0  0  0  0  0  0  0
    0.3193   -0.1267    1.7365 O   0  0  0  0  0  0  0  0  0  0  0  0
   -2.1397   -2.0663    1.0750 C   0  0  0  0  0  0  0  0  0  0  0  0
   -0.5717   -1.2606    3.4238 H   0  0  0  0  0  0  0  0  0  0  0  0
   -0.3076   -3.2111    1.2363 H   0  0  0  0  0  0  0  0  0  0  0  0
   -2.5584   -1.1089    1.4061 H   0  0  0  0  0  0  0  0  0  0  0  0
   -2.1682   -2.0790   -0.0197 H   0  0  0  0  0  0  0  0  0  0  0  0
   -2.7965   -2.8601    1.4459 H   0  0  0  0  0  0  0  0  0  0  0  0
    0.7724   -1.3745   -0.1593 N   0  0  0  0  0  0  0  0  0  0  0  0
    0.5614   -2.5964   -0.9244 C   0  0  2  0  0  0  0  0  0  0  0  0
    1.6157   -3.5728   -0.4972 C   0  0  0  0  0  0  0  0  0  0  0  0
    2.7770   -3.1978   -0.3857 O   0  0  0  0  0  0  0  0  0  0  0  0
    0.7345   -2.1771   -2.3796 C   0  0  0  0  0  0  0  0  0  0  0  0
    0.3244   -0.8671   -1.7112 C   0  0  0  0  0  0  0  0  0  0  0  0
    1.5408   -0.3981   -0.9273 C   0  0  0  0  0  0  0  0  0  0  0  0
   -0.4227   -3.0263   -0.7144 H   0  0  0  0  0  0  0  0  0  0  0  0
    0.0120   -2.7078   -3.0110 H   0  0  0  0  0  0  0  0  0  0  0  0
    1.7400   -2.3597   -2.7711 H   0  0  0  0  0  0  0  0  0  0  0  0
    0.0755   -0.1144   -2.4681 H   0  0  0  0  0  0  0  0  0  0  0  0
   -0.5410   -0.9920   -1.0542 H   0  0  0  0  0  0  0  0  0  0  0  0
    2.4811   -0.6014   -1.4471 H   0  0  0  0  0  0  0  0  0  0  0  0
    1.4806    0.6724   -0.7030 H   0  0  0  0  0  0  0  0  0  0  0  0
    0.8415   -4.9158   -0.3033 N   0  0  0  0  0  0  0  0  0  0  0  0
    1.5027   -6.0882    0.2233 C   0  0  2  0  0  0  0  0  0  0  0  0
    1.8718   -5.8081    1.6741 C   0  0  0  0  0  0  0  0  0  0  0  0
    1.9986   -4.6723    2.1268 O   0  0  0  0  0  0  0  0  0  0  0  0
    2.7364   -6.4411   -0.5929 C   0  0  0  0  0  0  0  0  0  0  0  0
   -0.1008   -5.0155   -0.6688 H   0  0  0  0  0  0  0  0  0  0  0  0
    0.7758   -6.9066    0.1822 H   0  0  0  0  0  0  0  0  0  0  0  0
    3.4762   -5.6329   -0.5637 H   0  0  0  0  0  0  0  0  0  0  0  0
    3.2200   -7.3459   -0.2100 H   0  0  0  0  0  0  0  0  0  0  0  0
    2.4733   -6.6131   -1.6422 H   0  0  0  0  0  0  0  0  0  0  0  0
    2.0851   -6.9759    2.3931 N   0  0  0  0  0  0  0  0  0  0  0  0
    2.4588   -6.9752    3.7883 C   0  0  0  0  0  0  0  0  0  0  0  0
    1.9390   -7.8742    1.9421 H   0  0  0  0  0  0  0  0  0  0  0  0
    3.5551   -7.0033    3.8748 H   0  0  0  0  0  0  0  0  0  0  0  0
    2.0764   -6.0631    4.2697 H   0  0  0  0  0  0  0  0  0  0  0  0
    2.0293   -7.8587    4.2832 H   0  0  0  0  0  0  0  0  0  0  0  0
 18 19  1  0  0  0  0
 19 31  1  0  0  0  0
 19 20  2  0  0  0  0
  8  9  1  0  0  0  0
  9 17  1  0  0  0  0
  9 10  2  0  0  0  0
  1  3  1  0  0  0  0
  1  7  1  0  0  0  0
  1  2  2  0  0  0  0
 32 33  1  0  0  0  0
 33 41  1  0  0  0  0
 33 34  2  0  0  0  0
 21 22  1  0  0  0  0
 22 23  1  0  0  0  0
 18 21  1  0  0  0  0
 17 23  1  0  0  0  0
 17 18  1  0  0  0  0
  8 11  1  0  0  0  0
 32 35  1  0  0  0  0
 41 42  1  0  0  0  0
  7  8  1  0  0  0  0
 31 32  1  0  0  0  0
 22 27  1  0  0  0  0
 22 28  1  0  0  0  0
 21 25  1  0  0  0  0
 21 26  1  0  0  0  0
 23 29  1  0  0  0  0
 23 30  1  0  0  0  0
 18 24  1  0  0  0  0
  3  4  1  0  0  0  0
  3  5  1  0  0  0  0
  3  6  1  0  0  0  0
 11 14  1  0  0  0  0
 11 15  1  0  0  0  0
 11 16  1  0  0  0  0
 35 38  1  0  0  0  0
 35 39  1  0  0  0  0
 35 40  1  0  0  0  0
 42 44  1  0  0  0  0
 42 45  1  0  0  0  0
 42 46  1  0  0  0  0
  8 13  1  0  0  0  0
 32 37  1  0  0  0  0
 31 36  1  0  0  0  0
 41 43  1  0  0  0  0
  7 12  1  0  0  0  0
M  END
$$$$

  -OEChem-05262214473D

 46 46  0     1  0  0  0  0  0999 V2000
   -0.6012   -3.2995    3.8205 C   0  0  0  0  0  0  0  0  0  0  0  0
   -0.6574   -4.4683    3.4568 O   0  0  0  0  0  0  0  0  0  0  0  0
   -0.4935   -2.9859    5.2760 C   0  0  0  0  0  0  0  0  0  0  0  0
   -1.4789   -2.8689    5.7550 H   0  0  0  0  0  0  0  0  0  0  0  0
    0.0123   -3.7847    5.8419 H   0  0  0  0  0  0  0  0  0  0  0  0
    0.0585   -2.0642    5.5199 H   0  0  0  0  0  0  0  0  0  0  0  0
   -0.6261   -2.1849    2.9917 N   0  0  0  0  0  0  0  0  0  0  0  0
   -0.7237   -2.2601    1.5650 C   0  0  2  0  0  0  0  0  0  0  0  0
    0.1695   -1.1513    1.0687 C   0  0  0  0  0  0  0  0  0  0  0  0
    0.3193   -0.1267    1.7365 O   0  0  0  0  0  0  0  0  0  0  0  0
   -2.1397   -2.0663    1.0750 C   0  0  0  0  0  0  0  0  0  0  0  0
   -0.5717   -1.2606    3.4238 H   0  0  0  0  0  0  0  0  0  0  0  0
   -0.3076   -3.2111    1.2363 H   0  0  0  0  0  0  0  0  0  0  0  0
   -2.5584   -1.1089    1.4061 H   0  0  0  0  0  0  0  0  0  0  0  0
   -2.1682   -2.0790   -0.0197 H   0  0  0  0  0  0  0  0  0  0  0  0
   -2.7965   -2.8601    1.4459 H   0  0  0  0  0  0  0  0  0  0  0  0
    0.7724   -1.3745   -0.1593 N   0  0  0  0  0  0  0  0  0  0  0  0
    0.5614   -2.5964   -0.9244 C   0  0  2  0  0  0  0  0  0  0  0  0
    1.6157   -3.5728   -0.4972 C   0  0  0  0  0  0  0  0  0  0  0  0
    2.7054   -3.1586   -0.1196 O   0  0  0  0  0  0  0  0  0  0  0  0
    0.7345   -2.1771   -2.3796 C   0  0  0  0  0  0  0  0  0  0  0  0
    0.3244   -0.8671   -1.7112 C   0  0  0  0  0  0  0  0  0  0  0  0
    1.5408   -0.3981   -0.9273 C   0  0  0  0  0  0  0  0  0  0  0  0
   -0.4227   -3.0263   -0.7144 H   0  0  0  0  0  0  0  0  0  0  0  0
    0.0120   -2.7078   -3.0110 H   0  0  0  0  0  0  0  0  0  0  0  0
    1.7400   -2.3597   -2.7711 H   0  0  0  0  0  0  0  0  0  0  0  0
    0.0755   -0.1144   -2.4681 H   0  0  0  0  0  0  0  0  0  0  0  0
   -0.5410   -0.9920   -1.0542 H   0  0  0  0  0  0  0  0  0  0  0  0
    2.4811   -0.6014   -1.4471 H   0  0  0  0  0  0  0  0  0  0  0  0
    1.4806    0.6724   -0.7030 H   0  0  0  0  0  0  0  0  0  0  0  0
    0.9434   -4.9710   -0.6811 N   0  0  0  0  0  0  0  0  0  0  0  0
    1.6129   -6.1811   -0.2610 C   0  0  2  0  0  0  0  0  0  0  0  0
    1.7159   -6.1583    1.2584 C   0  0  0  0  0  0  0  0  0  0  0  0
    1.6658   -5.1227    1.9186 O   0  0  0  0  0  0  0  0  0  0  0  0
    2.9888   -6.3017   -0.8973 C   0  0  0  0  0  0  0  0  0  0  0  0
    0.0854   -5.0546   -1.2180 H   0  0  0  0  0  0  0  0  0  0  0  0
    0.9782   -7.0180   -0.5721 H   0  0  0  0  0  0  0  0  0  0  0  0
    3.6390   -5.4718   -0.5972 H   0  0  0  0  0  0  0  0  0  0  0  0
    3.4830   -7.2327   -0.6005 H   0  0  0  0  0  0  0  0  0  0  0  0
    2.9154   -6.2879   -1.9901 H   0  0  0  0  0  0  0  0  0  0  0  0
    1.9136   -7.4262    1.7871 N   0  0  0  0  0  0  0  0  0  0  0  0
    2.0552   -7.6666    3.2042 C   0  0  0  0  0  0  0  0  0  0  0  0
    1.9232   -8.2304    1.1667 H   0  0  0  0  0  0  0  0  0  0  0  0
    3.1210   -7.6467    3.4753 H   0  0  0  0  0  0  0  0  0  0  0  0
    1.5200   -6.8853    3.7637 H   0  0  0  0  0  0  0  0  0  0  0  0
    1.6319   -8.6509    3.4530 H   0  0  0  0  0  0  0  0  0  0  0  0
 18 19  1  0  0  0  0
 19 31  1  0  0  0  0
 19 20  2  0  0  0  0
  8  9  1  0  0  0  0
  9 17  1  0  0  0  0
  9 10  2  0  0  0  0
  1  3  1  0  0  0  0
  1  7  1  0  0  0  0
  1  2  2  0  0  0  0
 32 33  1  0  0  0  0
 33 41  1  0  0  0  0
 33 34  2  0  0  0  0
 21 22  1  0  0  0  0
 22 23  1  0  0  0  0
 18 21  1  0  0  0  0
 17 23  1  0  0  0  0
 17 18  1  0  0  0  0
  8 11  1  0  0  0  0
 32 35  1  0  0  0  0
 41 42  1  0  0  0  0
  7  8  1  0  0  0  0
 31 32  1  0  0  0  0
 22 27  1  0  0  0  0
 22 28  1  0  0  0  0
 21 25  1  0  0  0  0
 21 26  1  0  0  0  0
 23 29  1  0  0  0  0
 23 30  1  0  0  0  0
 18 24  1  0  0  0  0
  3  4  1  0  0  0  0
  3  5  1  0  0  0  0
  3  6  1  0  0  0  0
 11 14  1  0  0  0  0
 11 15  1  0  0  0  0
 11 16  1  0  0  0  0
 35 38  1  0  0  0  0
 35 39  1  0  0  0  0
 35 40  1  0  0  0  0
 42 44  1  0  0  0  0
 42 45  1  0  0  0  0
 42 46  1  0  0  0  0
  8 13  1  0  0  0  0
 32 37  1  0  0  0  0
 31 36  1  0  0  0  0
 41 43  1  0  0  0  0
  7 12  1  0  0  0  0
M  END
$$$$

  -OEChem-05262214473D

 46 46  0     1  0  0  0  0  0999 V2000
   -0.6012   -3.2995    3.8205 C   0  0  0  0  0  0  0  0  0  0  0  0
   -0.6574   -4.4683    3.4568 O   0  0  0  0  0  0  0  0  0  0  0  0
   -0.4935   -2.9859    5.2760 C   0  0  0  0  0  0  0  0  0  0  0  0
   -1.4789   -2.8689    5.7550 H   0  0  0  0  0  0  0  0  0  0  0  0
    0.0123   -3.7847    5.8419 H   0  0  0  0  0  0  0  0  0  0  0  0
    0.0585   -2.0642    5.5199 H   0  0  0  0  0  0  0  0  0  0  0  0
   -0.6261   -2.1849    2.9917 N   0  0  0  0  0  0  0  0  0  0  0  0
   -0.7237   -2.2601    1.5650 C   0  0  2  0  0  0  0  0  0  0  0  0
    0.1695   -1.1513    1.0687 C   0  0  0  0  0  0  0  0  0  0  0  0
    0.3193   -0.1267    1.7365 O   0  0  0  0  0  0  0  0  0  0  0  0
   -2.1397   -2.0663    1.0750 C   0  0  0  0  0  0  0  0  0  0  0  0
   -0.5717   -1.2606    3.4238 H   0  0  0  0  0  0  0  0  0  0  0  0
   -0.3076   -3.2111    1.2363 H   0  0  0  0  0  0  0  0  0  0  0  0
   -2.5584   -1.1089    1.4061 H   0  0  0  0  0  0  0  0  0  0  0  0
   -2.1682   -2.0790   -0.0197 H   0  0  0  0  0  0  0  0  0  0  0  0
   -2.7965   -2.8601    1.4459 H   0  0  0  0  0  0  0  0  0  0  0  0
    0.7724   -1.3745   -0.1593 N   0  0  0  0  0  0  0  0  0  0  0  0
    0.5614   -2.5964   -0.9244 C   0  0  2  0  0  0  0  0  0  0  0  0
    1.6157   -3.5728   -0.4972 C   0  0  0  0  0  0  0  0  0  0  0  0
    2.5886   -3.1745    0.1325 O   0  0  0  0  0  0  0  0  0  0  0  0
    0.7345   -2.1771   -2.3796 C   0  0  0  0  0  0  0  0  0  0  0  0
    0.3244   -0.8671   -1.7112 C   0  0  0  0  0  0  0  0  0  0  0  0
    1.5408   -0.3981   -0.9273 C   0  0  0  0  0  0  0  0  0  0  0  0
   -0.4227   -3.0263   -0.7144 H   0  0  0  0  0  0  0  0  0  0  0  0
    0.0120   -2.7078   -3.0110 H   0  0  0  0  0  0  0  0  0  0  0  0
    1.7400   -2.3597   -2.7711 H   0  0  0  0  0  0  0  0  0  0  0  0
    0.0755   -0.1144   -2.4681 H   0  0  0  0  0  0  0  0  0  0  0  0
   -0.5410   -0.9920   -1.0542 H   0  0  0  0  0  0  0  0  0  0  0  0
    2.4811   -0.6014   -1.4471 H   0  0  0  0  0  0  0  0  0  0  0  0
    1.4806    0.6724   -0.7030 H   0  0  0  0  0  0  0  0  0  0  0  0
    1.1097   -4.9480   -1.0389 N   0  0  0  0  0  0  0  0  0  0  0  0
    1.8078   -6.1746   -0.7271 C   0  0  2  0  0  0  0  0  0  0  0  0
    1.6612   -6.4324    0.7667 C   0  0  0  0  0  0  0  0  0  0  0  0
    1.4126   -5.5444    1.5795 O   0  0  0  0  0  0  0  0  0  0  0  0
    3.2737   -6.0929   -1.1234 C   0  0  0  0  0  0  0  0  0  0  0  0
    0.3607   -4.9788   -1.7241 H   0  0  0  0  0  0  0  0  0  0  0  0
    1.3091   -6.9734   -1.2869 H   0  0  0  0  0  0  0  0  0  0  0  0
    3.7900   -5.2981   -0.5728 H   0  0  0  0  0  0  0  0  0  0  0  0
    3.7946   -7.0328   -0.9128 H   0  0  0  0  0  0  0  0  0  0  0  0
    3.3771   -5.8779   -2.1924 H   0  0  0  0  0  0  0  0  0  0  0  0
    1.8833   -7.7635    1.0908 N   0  0  0  0  0  0  0  0  0  0  0  0
    1.8147   -8.2579    2.4461 C   0  0  0  0  0  0  0  0  0  0  0  0
    2.0649   -8.4345    0.3502 H   0  0  0  0  0  0  0  0  0  0  0  0
    2.8166   -8.2275    2.8992 H   0  0  0  0  0  0  0  0  0  0  0  0
    1.1284   -7.6284    3.0316 H   0  0  0  0  0  0  0  0  0  0  0  0
    1.4465   -9.2944    2.4400 H   0  0  0  0  0  0  0  0  0  0  0  0
 18 19  1  0  0  0  0
 19 31  1  0  0  0  0
 19 20  2  0  0  0  0
  8  9  1  0  0  0  0
  9 17  1  0  0  0  0
  9 10  2  0  0  0  0
  1  3  1  0  0  0  0
  1  7  1  0  0  0  0
  1  2  2  0  0  0  0
 32 33  1  0  0  0  0
 33 41  1  0  0  0  0
 33 34  2  0  0  0  0
 21 22  1  0  0  0  0
 22 23  1  0  0  0  0
 18 21  1  0  0  0  0
 17 23  1  0  0  0  0
 17 18  1  0  0  0  0
  8 11  1  0  0  0  0
 32 35  1  0  0  0  0
 41 42  1  0  0  0  0
  7  8  1  0  0  0  0
 31 32  1  0  0  0  0
 22 27  1  0  0  0  0
 22 28  1  0  0  0  0
 21 25  1  0  0  0  0
 21 26  1  0  0  0  0
 23 29  1  0  0  0  0
 23 30  1  0  0  0  0
 18 24  1  0  0  0  0
  3  4  1  0  0  0  0
  3  5  1  0  0  0  0
  3  6  1  0  0  0  0
 11 14  1  0  0  0  0
 11 15  1  0  0  0  0
 11 16  1  0  0  0  0
 35 38  1  0  0  0  0
 35 39  1  0  0  0  0
 35 40  1  0  0  0  0
 42 44  1  0  0  0  0
 42 45  1  0  0  0  0
 42 46  1  0  0  0  0
  8 13  1  0  0  0  0
 32 37  1  0  0  0  0
 31 36  1  0  0  0  0
 41 43  1  0  0  0  0
  7 12  1  0  0  0  0
M  END
$$$$

  -OEChem-05262214473D

 46 46  0     1  0  0  0  0  0999 V2000
   -0.6012   -3.2995    3.8205 C   0  0  0  0  0  0  0  0  0  0  0  0
   -0.6574   -4.4683    3.4568 O   0  0  0  0  0  0  0  0  0  0  0  0
   -0.4935   -2.9859    5.2760 C   0  0  0  0  0  0  0  0  0  0  0  0
   -1.4789   -2.8689    5.7550 H   0  0  0  0  0  0  0  0  0  0  0  0
    0.0123   -3.7847    5.8419 H   0  0  0  0  0  0  0  0  0  0  0  0
    0.0585   -2.0642    5.5199 H   0  0  0  0  0  0  0  0  0  0  0  0
   -0.6261   -2.1849    2.9917 N   0  0  0  0  0  0  0  0  0  0  0  0
   -0.7237   -2.2601    1.5650 C   0  0  2  0  0  0  0  0  0  0  0  0
    0.1695   -1.1513    1.0687 C   0  0  0  0  0  0  0  0  0  0  0  0
    0.3193   -0.1267    1.7365 O   0  0  0  0  0  0  0  0  0  0  0  0
   -2.1397   -2.0663    1.0750 C   0  0  0  0  0  0  0  0  0  0  0  0
   -0.5717   -1.2606    3.4238 H   0  0  0  0  0  0  0  0  0  0  0  0
   -0.3076   -3.2111    1.2363 H   0  0  0  0  0  0  0  0  0  0  0  0
   -2.5584   -1.1089    1.4061 H   0  0  0  0  0  0  0  0  0  0  0  0
   -2.1682   -2.0790   -0.0197 H   0  0  0  0  0  0  0  0  0  0  0  0
   -2.7965   -2.8601    1.4459 H   0  0  0  0  0  0  0  0  0  0  0  0
    0.7724   -1.3745   -0.1593 N   0  0  0  0  0  0  0  0  0  0  0  0
    0.5614   -2.5964   -0.9244 C   0  0  2  0  0  0  0  0  0  0  0  0
    1.6157   -3.5728   -0.4972 C   0  0  0  0  0  0  0  0  0  0  0  0
    2.4344   -3.2444    0.3534 O   0  0  0  0  0  0  0  0  0  0  0  0
    0.7345   -2.1771   -2.3796 C   0  0  0  0  0  0  0  0  0  0  0  0
    0.3244   -0.8671   -1.7112 C   0  0  0  0  0  0  0  0  0  0  0  0
    1.5408   -0.3981   -0.9273 C   0  0  0  0  0  0  0  0  0  0  0  0
   -0.4227   -3.0263   -0.7144 H   0  0  0  0  0  0  0  0  0  0  0  0
    0.0120   -2.7078   -3.0110 H   0  0  0  0  0  0  0  0  0  0  0  0
    1.7400   -2.3597   -2.7711 H   0  0  0  0  0  0  0  0  0  0  0  0
    0.0755   -0.1144   -2.4681 H   0  0  0  0  0  0  0  0  0  0  0  0
   -0.5410   -0.9920   -1.0542 H   0  0  0  0  0  0  0  0  0  0  0  0
    2.4811   -0.6014   -1.4471 H   0  0  0  0  0  0  0  0  0  0  0  0
    1.4806    0.6724   -0.7030 H   0  0  0  0  0  0  0  0  0  0  0  0
    1.3289   -4.8484   -1.3523 N   0  0  0  0  0  0  0  0  0  0  0  0
    2.0741   -6.0690   -1.1433 C   0  0  2  0  0  0  0  0  0  0  0  0
    1.7115   -6.6117    0.2327 C   0  0  0  0  0  0  0  0  0  0  0  0
    1.2564   -5.9086    1.1325 O   0  0  0  0  0  0  0  0  0  0  0  0
    3.5716   -5.8292   -1.2557 C   0  0  0  0  0  0  0  0  0  0  0  0
    0.7064   -4.7931   -2.1529 H   0  0  0  0  0  0  0  0  0  0  0  0
    1.7460   -6.7757   -1.9134 H   0  0  0  0  0  0  0  0  0  0  0  0
    3.9189   -5.1236   -0.4922 H   0  0  0  0  0  0  0  0  0  0  0  0
    4.1335   -6.7600   -1.1255 H   0  0  0  0  0  0  0  0  0  0  0  0
    3.8269   -5.4110   -2.2354 H   0  0  0  0  0  0  0  0  0  0  0  0
    1.9963   -7.9648    0.3517 N   0  0  0  0  0  0  0  0  0  0  0  0
    1.7538   -8.7087    1.5657 C   0  0  0  0  0  0  0  0  0  0  0  0
    2.3545   -8.4726   -0.4517 H   0  0  0  0  0  0  0  0  0  0  0  0
    2.6625   -8.7060    2.1857 H   0  0  0  0  0  0  0  0  0  0  0  0
    0.9284   -8.2418    2.1231 H   0  0  0  0  0  0  0  0  0  0  0  0
    1.4855   -9.7452    1.3131 H   0  0  0  0  0  0  0  0  0  0  0  0
 18 19  1  0  0  0  0
 19 31  1  0  0  0  0
 19 20  2  0  0  0  0
  8  9  1  0  0  0  0
  9 17  1  0  0  0  0
  9 10  2  0  0  0  0
  1  3  1  0  0  0  0
  1  7  1  0  0  0  0
  1  2  2  0  0  0  0
 32 33  1  0  0  0  0
 33 41  1  0  0  0  0
 33 34  2  0  0  0  0
 21 22  1  0  0  0  0
 22 23  1  0  0  0  0
 18 21  1  0  0  0  0
 17 23  1  0  0  0  0
 17 18  1  0  0  0  0
  8 11  1  0  0  0  0
 32 35  1  0  0  0  0
 41 42  1  0  0  0  0
  7  8  1  0  0  0  0
 31 32  1  0  0  0  0
 22 27  1  0  0  0  0
 22 28  1  0  0  0  0
 21 25  1  0  0  0  0
 21 26  1  0  0  0  0
 23 29  1  0  0  0  0
 23 30  1  0  0  0  0
 18 24  1  0  0  0  0
  3  4  1  0  0  0  0
  3  5  1  0  0  0  0
  3  6  1  0  0  0  0
 11 14  1  0  0  0  0
 11 15  1  0  0  0  0
 11 16  1  0  0  0  0
 35 38  1  0  0  0  0
 35 39  1  0  0  0  0
 35 40  1  0  0  0  0
 42 44  1  0  0  0  0
 42 45  1  0  0  0  0
 42 46  1  0  0  0  0
  8 13  1  0  0  0  0
 32 37  1  0  0  0  0
 31 36  1  0  0  0  0
 41 43  1  0  0  0  0
  7 12  1  0  0  0  0
M  END
$$$$

  -OEChem-05262214473D

 46 46  0     1  0  0  0  0  0999 V2000
   -0.6012   -3.2995    3.8205 C   0  0  0  0  0  0  0  0  0  0  0  0
   -0.6574   -4.4683    3.4568 O   0  0  0  0  0  0  0  0  0  0  0  0
   -0.4935   -2.9859    5.2760 C   0  0  0  0  0  0  0  0  0  0  0  0
   -1.4789   -2.8689    5.7550 H   0  0  0  0  0  0  0  0  0  0  0  0
    0.0123   -3.7847    5.8419 H   0  0  0  0  0  0  0  0  0  0  0  0
    0.0585   -2.0642    5.5199 H   0  0  0  0  0  0  0  0  0  0  0  0
   -0.6261   -2.1849    2.9917 N   0  0  0  0  0  0  0  0  0  0  0  0
   -0.7237   -2.2601    1.5650 C   0  0  2  0  0  0  0  0  0  0  0  0
    0.1695   -1.1513    1.0687 C   0  0  0  0  0  0  0  0  0  0  0  0
    0.3193   -0.1267    1.7365 O   0  0  0  0  0  0  0  0  0  0  0  0
   -2.1397   -2.0663    1.0750 C   0  0  0  0  0  0  0  0  0  0  0  0
   -0.5717   -1.2606    3.4238 H   0  0  0  0  0  0  0  0  0  0  0  0
   -0.3076   -3.2111    1.2363 H   0  0  0  0  0  0  0  0  0  0  0  0
   -2.5584   -1.1089    1.4061 H   0  0  0  0  0  0  0  0  0  0  0  0
   -2.1682   -2.0790   -0.0197 H   0  0  0  0  0  0  0  0  0  0  0  0
   -2.7965   -2.8601    1.4459 H   0  0  0  0  0  0  0  0  0  0  0  0
    0.7724   -1.3745   -0.1593 N   0  0  0  0  0  0  0  0  0  0  0  0
    0.5614   -2.5964   -0.9244 C   0  0  2  0  0  0  0  0  0  0  0  0
    1.6157   -3.5728   -0.4972 C   0  0  0  0  0  0  0  0  0  0  0  0
    2.2533   -3.3634    0.5281 O   0  0  0  0  0  0  0  0  0  0  0  0
    0.7345   -2.1771   -2.3796 C   0  0  0  0  0  0  0  0  0  0  0  0
    0.3244   -0.8671   -1.7112 C   0  0  0  0  0  0  0  0  0  0  0  0
    1.5408   -0.3981   -0.9273 C   0  0  0  0  0  0  0  0  0  0  0  0
   -0.4227   -3.0263   -0.7144 H   0  0  0  0  0  0  0  0  0  0  0  0
    0.0120   -2.7078   -3.0110 H   0  0  0  0  0  0  0  0  0  0  0  0
    1.7400   -2.3597   -2.7711 H   0  0  0  0  0  0  0  0  0  0  0  0
    0.0755   -0.1144   -2.4681 H   0  0  0  0  0  0  0  0  0  0  0  0
   -0.5410   -0.9920   -1.0542 H   0  0  0  0  0  0  0  0  0  0  0  0
    2.4811   -0.6014   -1.4471 H   0  0  0  0  0  0  0  0  0  0  0  0
    1.4806    0.6724   -0.7030 H   0  0  0  0  0  0  0  0  0  0  0  0
    1.5861   -4.6790   -1.6000 N   0  0  0  0  0  0  0  0  0  0  0  0
    2.3938   -5.8717   -1.4813 C   0  0  2  0  0  0  0  0  0  0  0  0
    1.8634   -6.6840   -0.3073 C   0  0  0  0  0  0  0  0  0  0  0  0
    1.2077   -6.1906    0.6080 O   0  0  0  0  0  0  0  0  0  0  0  0
    3.8623   -5.5283   -1.2853 C   0  0  0  0  0  0  0  0  0  0  0  0
    1.0989   -4.5102   -2.4749 H   0  0  0  0  0  0  0  0  0  0  0  0
    2.2590   -6.4386   -2.4089 H   0  0  0  0  0  0  0  0  0  0  0  0
    4.0170   -4.9602   -0.3608 H   0  0  0  0  0  0  0  0  0  0  0  0
    4.4765   -6.4328   -1.2242 H   0  0  0  0  0  0  0  0  0  0  0  0
    4.2342   -4.9190   -2.1161 H   0  0  0  0  0  0  0  0  0  0  0  0
    2.2449   -8.0164   -0.3797 N   0  0  0  0  0  0  0  0  0  0  0  0
    1.8767   -8.9885    0.6230 C   0  0  0  0  0  0  0  0  0  0  0  0
    2.7723   -8.3421   -1.1844 H   0  0  0  0  0  0  0  0  0  0  0  0
    2.6691   -9.0498    1.3834 H   0  0  0  0  0  0  0  0  0  0  0  0
    0.9336   -8.6836    1.1002 H   0  0  0  0  0  0  0  0  0  0  0  0
    1.7465   -9.9726    0.1491 H   0  0  0  0  0  0  0  0  0  0  0  0
 18 19  1  0  0  0  0
 19 31  1  0  0  0  0
 19 20  2  0  0  0  0
  8  9  1  0  0  0  0
  9 17  1  0  0  0  0
  9 10  2  0  0  0  0
  1  3  1  0  0  0  0
  1  7  1  0  0  0  0
  1  2  2  0  0  0  0
 32 33  1  0  0  0  0
 33 41  1  0  0  0  0
 33 34  2  0  0  0  0
 21 22  1  0  0  0  0
 22 23  1  0  0  0  0
 18 21  1  0  0  0  0
 17 23  1  0  0  0  0
 17 18  1  0  0  0  0
  8 11  1  0  0  0  0
 32 35  1  0  0  0  0
 41 42  1  0  0  0  0
  7  8  1  0  0  0  0
 31 32  1  0  0  0  0
 22 27  1  0  0  0  0
 22 28  1  0  0  0  0
 21 25  1  0  0  0  0
 21 26  1  0  0  0  0
 23 29  1  0  0  0  0
 23 30  1  0  0  0  0
 18 24  1  0  0  0  0
  3  4  1  0  0  0  0
  3  5  1  0  0  0  0
  3  6  1  0  0  0  0
 11 14  1  0  0  0  0
 11 15  1  0  0  0  0
 11 16  1  0  0  0  0
 35 38  1  0  0  0  0
 35 39  1  0  0  0  0
 35 40  1  0  0  0  0
 42 44  1  0  0  0  0
 42 45  1  0  0  0  0
 42 46  1  0  0  0  0
  8 13  1  0  0  0  0
 32 37  1  0  0  0  0
 31 36  1  0  0  0  0
 41 43  1  0  0  0  0
  7 12  1  0  0  0  0
M  END
$$$$

  -OEChem-05262214473D

 46 46  0     1  0  0  0  0  0999 V2000
   -0.6012   -3.2995    3.8205 C   0  0  0  0  0  0  0  0  0  0  0  0
   -0.6574   -4.4683    3.4568 O   0  0  0  0  0  0  0  0  0  0  0  0
   -0.4935   -2.9859    5.2760 C   0  0  0  0  0  0  0  0  0  0  0  0
   -1.4789   -2.8689    5.7550 H   0  0  0  0  0  0  0  0  0  0  0  0
    0.0123   -3.7847    5.8419 H   0  0  0  0  0  0  0  0  0  0  0  0
    0.0585   -2.0642    5.5199 H   0  0  0  0  0  0  0  0  0  0  0  0
   -0.6261   -2.1849    2.9917 N   0  0  0  0  0  0  0  0  0  0  0  0
   -0.7237   -2.2601    1.5650 C   0  0  2  0  0  0  0  0  0  0  0  0
    0.1695   -1.1513    1.0687 C   0  0  0  0  0  0  0  0  0  0  0  0
    0.3193   -0.1267    1.7365 O   0  0  0  0  0  0  0  0  0  0  0  0
   -2.1397   -2.0663    1.0750 C   0  0  0  0  0  0  0  0  0  0  0  0
   -0.5717   -1.2606    3.4238 H   0  0  0  0  0  0  0  0  0  0  0  0
   -0.3076   -3.2111    1.2363 H   0  0  0  0  0  0  0  0  0  0  0  0
   -2.5584   -1.1089    1.4061 H   0  0  0  0  0  0  0  0  0  0  0  0
   -2.1682   -2.0790   -0.0197 H   0  0  0  0  0  0  0  0  0  0  0  0
   -2.7965   -2.8601    1.4459 H   0  0  0  0  0  0  0  0  0  0  0  0
    0.7724   -1.3745   -0.1593 N   0  0  0  0  0  0  0  0  0  0  0  0
    0.5614   -2.5964   -0.9244 C   0  0  2  0  0  0  0  0  0  0  0  0
    1.6157   -3.5728   -0.4972 C   0  0  0  0  0  0  0  0  0  0  0  0
    2.0578   -3.5236    0.6446 O   0  0  0  0  0  0  0  0  0  0  0  0
    0.7345   -2.1771   -2.3796 C   0  0  0  0  0  0  0  0  0  0  0  0
    0.3244   -0.8671   -1.7112 C   0  0  0  0  0  0  0  0  0  0  0  0
    1.5408   -0.3981   -0.9273 C   0  0  0  0  0  0  0  0  0  0  0  0
   -0.4227   -3.0263   -0.7144 H   0  0  0  0  0  0  0  0  0  0  0  0
    0.0120   -2.7078   -3.0110 H   0  0  0  0  0  0  0  0  0  0  0  0
    1.7400   -2.3597   -2.7711 H   0  0  0  0  0  0  0  0  0  0  0  0
    0.0755   -0.1144   -2.4681 H   0  0  0  0  0  0  0  0  0  0  0  0
   -0.5410   -0.9920   -1.0542 H   0  0  0  0  0  0  0  0  0  0  0  0
    2.4811   -0.6014   -1.4471 H   0  0  0  0  0  0  0  0  0  0  0  0
    1.4806    0.6724   -0.7030 H   0  0  0  0  0  0  0  0  0  0  0  0
    1.8638   -4.4513   -1.7650 N   0  0  0  0  0  0  0  0  0  0  0  0
    2.7450   -5.5960   -1.7179 C   0  0  2  0  0  0  0  0  0  0  0  0
    2.1064   -6.6443   -0.8164 C   0  0  0  0  0  0  0  0  0  0  0  0
    1.2699   -6.3712    0.0419 O   0  0  0  0  0  0  0  0  0  0  0  0
    4.1258   -5.2109   -1.2102 C   0  0  0  0  0  0  0  0  0  0  0  0
    1.5114   -4.1493   -2.6683 H   0  0  0  0  0  0  0  0  0  0  0  0
    2.8132   -5.9849   -2.7397 H   0  0  0  0  0  0  0  0  0  0  0  0
    4.0776   -4.8191   -0.1876 H   0  0  0  0  0  0  0  0  0  0  0  0
    4.8004   -6.0734   -1.2021 H   0  0  0  0  0  0  0  0  0  0  0  0
    4.5713   -4.4354   -1.8426 H   0  0  0  0  0  0  0  0  0  0  0  0
    2.6121   -7.9148   -1.0538 N   0  0  0  0  0  0  0  0  0  0  0  0
    2.1749   -9.0780   -0.3178 C   0  0  0  0  0  0  0  0  0  0  0  0
    3.2897   -8.0519   -1.7980 H   0  0  0  0  0  0  0  0  0  0  0  0
    2.8362   -9.2353    0.5470 H   0  0  0  0  0  0  0  0  0  0  0  0
    1.1437   -8.9239    0.0325 H   0  0  0  0  0  0  0  0  0  0  0  0
    2.2115   -9.9612   -0.9726 H   0  0  0  0  0  0  0  0  0  0  0  0
 18 19  1  0  0  0  0
 19 31  1  0  0  0  0
 19 20  2  0  0  0  0
  8  9  1  0  0  0  0
  9 17  1  0  0  0  0
  9 10  2  0  0  0  0
  1  3  1  0  0  0  0
  1  7  1  0  0  0  0
  1  2  2  0  0  0  0
 32 33  1  0  0  0  0
 33 41  1  0  0  0  0
 33 34  2  0  0  0  0
 21 22  1  0  0  0  0
 22 23  1  0  0  0  0
 18 21  1  0  0  0  0
 17 23  1  0  0  0  0
 17 18  1  0  0  0  0
  8 11  1  0  0  0  0
 32 35  1  0  0  0  0
 41 42  1  0  0  0  0
  7  8  1  0  0  0  0
 31 32  1  0  0  0  0
 22 27  1  0  0  0  0
 22 28  1  0  0  0  0
 21 25  1  0  0  0  0
 21 26  1  0  0  0  0
 23 29  1  0  0  0  0
 23 30  1  0  0  0  0
 18 24  1  0  0  0  0
  3  4  1  0  0  0  0
  3  5  1  0  0  0  0
  3  6  1  0  0  0  0
 11 14  1  0  0  0  0
 11 15  1  0  0  0  0
 11 16  1  0  0  0  0
 35 38  1  0  0  0  0
 35 39  1  0  0  0  0
 35 40  1  0  0  0  0
 42 44  1  0  0  0  0
 42 45  1  0  0  0  0
 42 46  1  0  0  0  0
  8 13  1  0  0  0  0
 32 37  1  0  0  0  0
 31 36  1  0  0  0  0
 41 43  1  0  0  0  0
  7 12  1  0  0  0  0
M  END
$$$$

  -OEChem-05262214473D

 46 46  0     1  0  0  0  0  0999 V2000
   -0.6012   -3.2995    3.8205 C   0  0  0  0  0  0  0  0  0  0  0  0
   -0.6574   -4.4683    3.4568 O   0  0  0  0  0  0  0  0  0  0  0  0
   -0.4935   -2.9859    5.2760 C   0  0  0  0  0  0  0  0  0  0  0  0
   -1.4789   -2.8689    5.7550 H   0  0  0  0  0  0  0  0  0  0  0  0
    0.0123   -3.7847    5.8419 H   0  0  0  0  0  0  0  0  0  0  0  0
    0.0585   -2.0642    5.5199 H   0  0  0  0  0  0  0  0  0  0  0  0
   -0.6261   -2.1849    2.9917 N   0  0  0  0  0  0  0  0  0  0  0  0
   -0.7237   -2.2601    1.5650 C   0  0  2  0  0  0  0  0  0  0  0  0
    0.1695   -1.1513    1.0687 C   0  0  0  0  0  0  0  0  0  0  0  0
    0.3193   -0.1267    1.7365 O   0  0  0  0  0  0  0  0  0  0  0  0
   -2.1397   -2.0663    1.0750 C   0  0  0  0  0  0  0  0  0  0  0  0
   -0.5717   -1.2606    3.4238 H   0  0  0  0  0  0  0  0  0  0  0  0
   -0.3076   -3.2111    1.2363 H   0  0  0  0  0  0  0  0  0  0  0  0
   -2.5584   -1.1089    1.4061 H   0  0  0  0  0  0  0  0  0  0  0  0
   -2.1682   -2.0790   -0.0197 H   0  0  0  0  0  0  0  0  0  0  0  0
   -2.7965   -2.8601    1.4459 H   0  0  0  0  0  0  0  0  0  0  0  0
    0.7724   -1.3745   -0.1593 N   0  0  0  0  0  0  0  0  0  0  0  0
    0.5614   -2.5964   -0.9244 C   0  0  2  0  0  0  0  0  0  0  0  0
    1.6157   -3.5728   -0.4972 C   0  0  0  0  0  0  0  0  0  0  0  0
    1.8611   -3.7139    0.6951 O   0  0  0  0  0  0  0  0  0  0  0  0
    0.7345   -2.1771   -2.3796 C   0  0  0  0  0  0  0  0  0  0  0  0
    0.3244   -0.8671   -1.7112 C   0  0  0  0  0  0  0  0  0  0  0  0
    1.5408   -0.3981   -0.9273 C   0  0  0  0  0  0  0  0  0  0  0  0
   -0.4227   -3.0263   -0.7144 H   0  0  0  0  0  0  0  0  0  0  0  0
    0.0120   -2.7078   -3.0110 H   0  0  0  0  0  0  0  0  0  0  0  0
    1.7400   -2.3597   -2.7711 H   0  0  0  0  0  0  0  0  0  0  0  0
    0.0755   -0.1144   -2.4681 H   0  0  0  0  0  0  0  0  0  0  0  0
   -0.5410   -0.9920   -1.0542 H   0  0  0  0  0  0  0  0  0  0  0  0
    2.4811   -0.6014   -1.4471 H   0  0  0  0  0  0  0  0  0  0  0  0
    1.4806    0.6724   -0.7030 H   0  0  0  0  0  0  0  0  0  0  0  0
    2.1431   -4.1809   -1.8361 N   0  0  0  0  0  0  0  0  0  0  0  0
    3.1037   -5.2608   -1.8371 C   0  0  2  0  0  0  0  0  0  0  0  0
    2.4240   -6.4954   -1.2600 C   0  0  0  0  0  0  0  0  0  0  0  0
    1.4387   -6.4379   -0.5273 O   0  0  0  0  0  0  0  0  0  0  0  0
    4.3442   -4.8986   -1.0354 C   0  0  0  0  0  0  0  0  0  0  0  0
    1.9159   -3.7351   -2.7199 H   0  0  0  0  0  0  0  0  0  0  0  0
    3.3708   -5.4456   -2.8833 H   0  0  0  0  0  0  0  0  0  0  0  0
    4.0964   -4.7098    0.0155 H   0  0  0  0  0  0  0  0  0  0  0  0
    5.0830   -5.7064   -1.0608 H   0  0  0  0  0  0  0  0  0  0  0  0
    4.8150   -3.9933   -1.4336 H   0  0  0  0  0  0  0  0  0  0  0  0
    3.0729   -7.6668   -1.6245 N   0  0  0  0  0  0  0  0  0  0  0  0
    2.6282   -8.9713   -1.1926 C   0  0  0  0  0  0  0  0  0  0  0  0
    3.8714   -7.6217   -2.2506 H   0  0  0  0  0  0  0  0  0  0  0  0
    3.1522   -9.2499   -0.2665 H   0  0  0  0  0  0  0  0  0  0  0  0
    1.5442   -8.9461   -1.0070 H   0  0  0  0  0  0  0  0  0  0  0  0
    2.8490   -9.7117   -1.9756 H   0  0  0  0  0  0  0  0  0  0  0  0
 18 19  1  0  0  0  0
 19 31  1  0  0  0  0
 19 20  2  0  0  0  0
  8  9  1  0  0  0  0
  9 17  1  0  0  0  0
  9 10  2  0  0  0  0
  1  3  1  0  0  0  0
  1  7  1  0  0  0  0
  1  2  2  0  0  0  0
 32 33  1  0  0  0  0
 33 41  1  0  0  0  0
 33 34  2  0  0  0  0
 21 22  1  0  0  0  0
 22 23  1  0  0  0  0
 18 21  1  0  0  0  0
 17 23  1  0  0  0  0
 17 18  1  0  0  0  0
  8 11  1  0  0  0  0
 32 35  1  0  0  0  0
 41 42  1  0  0  0  0
  7  8  1  0  0  0  0
 31 32  1  0  0  0  0
 22 27  1  0  0  0  0
 22 28  1  0  0  0  0
 21 25  1  0  0  0  0
 21 26  1  0  0  0  0
 23 29  1  0  0  0  0
 23 30  1  0  0  0  0
 18 24  1  0  0  0  0
  3  4  1  0  0  0  0
  3  5  1  0  0  0  0
  3  6  1  0  0  0  0
 11 14  1  0  0  0  0
 11 15  1  0  0  0  0
 11 16  1  0  0  0  0
 35 38  1  0  0  0  0
 35 39  1  0  0  0  0
 35 40  1  0  0  0  0
 42 44  1  0  0  0  0
 42 45  1  0  0  0  0
 42 46  1  0  0  0  0
  8 13  1  0  0  0  0
 32 37  1  0  0  0  0
 31 36  1  0  0  0  0
 41 43  1  0  0  0  0
  7 12  1  0  0  0  0
M  END
$$$$

  -OEChem-05262214473D

 46 46  0     1  0  0  0  0  0999 V2000
   -0.6012   -3.2995    3.8205 C   0  0  0  0  0  0  0  0  0  0  0  0
   -0.6574   -4.4683    3.4568 O   0  0  0  0  0  0  0  0  0  0  0  0
   -0.4935   -2.9859    5.2760 C   0  0  0  0  0  0  0  0  0  0  0  0
   -1.4789   -2.8689    5.7550 H   0  0  0  0  0  0  0  0  0  0  0  0
    0.0123   -3.7847    5.8419 H   0  0  0  0  0  0  0  0  0  0  0  0
    0.0585   -2.0642    5.5199 H   0  0  0  0  0  0  0  0  0  0  0  0
   -0.6261   -2.1849    2.9917 N   0  0  0  0  0  0  0  0  0  0  0  0
   -0.7237   -2.2601    1.5650 C   0  0  2  0  0  0  0  0  0  0  0  0
    0.1695   -1.1513    1.0687 C   0  0  0  0  0  0  0  0  0  0  0  0
    0.3193   -0.1267    1.7365 O   0  0  0  0  0  0  0  0  0  0  0  0
   -2.1397   -2.0663    1.0750 C   0  0  0  0  0  0  0  0  0  0  0  0
   -0.5717   -1.2606    3.4238 H   0  0  0  0  0  0  0  0  0  0  0  0
   -0.3076   -3.2111    1.2363 H   0  0  0  0  0  0  0  0  0  0  0  0
   -2.5584   -1.1089    1.4061 H   0  0  0  0  0  0  0  0  0  0  0  0
   -2.1682   -2.0790   -0.0197 H   0  0  0  0  0  0  0  0  0  0  0  0
   -2.7965   -2.8601    1.4459 H   0  0  0  0  0  0  0  0  0  0  0  0
    0.7724   -1.3745   -0.1593 N   0  0  0  0  0  0  0  0  0  0  0  0
    0.5614   -2.5964   -0.9244 C   0  0  2  0  0  0  0  0  0  0  0  0
    1.6157   -3.5728   -0.4972 C   0  0  0  0  0  0  0  0  0  0  0  0
    1.6766   -3.9214    0.6760 O   0  0  0  0  0  0  0  0  0  0  0  0
    0.7345   -2.1771   -2.3796 C   0  0  0  0  0  0  0  0  0  0  0  0
    0.3244   -0.8671   -1.7112 C   0  0  0  0  0  0  0  0  0  0  0  0
    1.5408   -0.3981   -0.9273 C   0  0  0  0  0  0  0  0  0  0  0  0
   -0.4227   -3.0263   -0.7144 H   0  0  0  0  0  0  0  0  0  0  0  0
    0.0120   -2.7078   -3.0110 H   0  0  0  0  0  0  0  0  0  0  0  0
    1.7400   -2.3597   -2.7711 H   0  0  0  0  0  0  0  0  0  0  0  0
    0.0755   -0.1144   -2.4681 H   0  0  0  0  0  0  0  0  0  0  0  0
   -0.5410   -0.9920   -1.0542 H   0  0  0  0  0  0  0  0  0  0  0  0
    2.4811   -0.6014   -1.4471 H   0  0  0  0  0  0  0  0  0  0  0  0
    1.4806    0.6724   -0.7030 H   0  0  0  0  0  0  0  0  0  0  0  0
    2.4049   -3.8861   -1.8085 N   0  0  0  0  0  0  0  0  0  0  0  0
    3.4457   -4.8888   -1.8307 C   0  0  2  0  0  0  0  0  0  0  0  0
    2.7946   -6.2474   -1.6078 C   0  0  0  0  0  0  0  0  0  0  0  0
    1.7026   -6.3863   -1.0608 O   0  0  0  0  0  0  0  0  0  0  0  0
    4.5027   -4.6126   -0.7729 C   0  0  0  0  0  0  0  0  0  0  0  0
    2.2848   -3.2959   -2.6262 H   0  0  0  0  0  0  0  0  0  0  0  0
    3.8938   -4.8574   -2.8298 H   0  0  0  0  0  0  0  0  0  0  0  0
    4.0724   -4.6398    0.2348 H   0  0  0  0  0  0  0  0  0  0  0  0
    5.3051   -5.3568   -0.8099 H   0  0  0  0  0  0  0  0  0  0  0  0
    4.9490   -3.6227   -0.9170 H   0  0  0  0  0  0  0  0  0  0  0  0
    3.5960   -7.2895   -2.0529 N   0  0  0  0  0  0  0  0  0  0  0  0
    3.2056   -8.6756   -1.9417 C   0  0  0  0  0  0  0  0  0  0  0  0
    4.4780   -7.0808   -2.5114 H   0  0  0  0  0  0  0  0  0  0  0  0
    3.5957   -9.0927   -1.0016 H   0  0  0  0  0  0  0  0  0  0  0  0
    2.1080   -8.7488   -1.9476 H   0  0  0  0  0  0  0  0  0  0  0  0
    3.6154   -9.2411   -2.7916 H   0  0  0  0  0  0  0  0  0  0  0  0
 18 19  1  0  0  0  0
 19 31  1  0  0  0  0
 19 20  2  0  0  0  0
  8  9  1  0  0  0  0
  9 17  1  0  0  0  0
  9 10  2  0  0  0  0
  1  3  1  0  0  0  0
  1  7  1  0  0  0  0
  1  2  2  0  0  0  0
 32 33  1  0  0  0  0
 33 41  1  0  0  0  0
 33 34  2  0  0  0  0
 21 22  1  0  0  0  0
 22 23  1  0  0  0  0
 18 21  1  0  0  0  0
 17 23  1  0  0  0  0
 17 18  1  0  0  0  0
  8 11  1  0  0  0  0
 32 35  1  0  0  0  0
 41 42  1  0  0  0  0
  7  8  1  0  0  0  0
 31 32  1  0  0  0  0
 22 27  1  0  0  0  0
 22 28  1  0  0  0  0
 21 25  1  0  0  0  0
 21 26  1  0  0  0  0
 23 29  1  0  0  0  0
 23 30  1  0  0  0  0
 18 24  1  0  0  0  0
  3  4  1  0  0  0  0
  3  5  1  0  0  0  0
  3  6  1  0  0  0  0
 11 14  1  0  0  0  0
 11 15  1  0  0  0  0
 11 16  1  0  0  0  0
 35 38  1  0  0  0  0
 35 39  1  0  0  0  0
 35 40  1  0  0  0  0
 42 44  1  0  0  0  0
 42 45  1  0  0  0  0
 42 46  1  0  0  0  0
  8 13  1  0  0  0  0
 32 37  1  0  0  0  0
 31 36  1  0  0  0  0
 41 43  1  0  0  0  0
  7 12  1  0  0  0  0
M  END
$$$$

  -OEChem-05262214473D

 46 46  0     1  0  0  0  0  0999 V2000
   -0.6012   -3.2995    3.8205 C   0  0  0  0  0  0  0  0  0  0  0  0
   -0.6574   -4.4683    3.4568 O   0  0  0  0  0  0  0  0  0  0  0  0
   -0.4935   -2.9859    5.2760 C   0  0  0  0  0  0  0  0  0  0  0  0
   -1.4789   -2.8689    5.7550 H   0  0  0  0  0  0  0  0  0  0  0  0
    0.0123   -3.7847    5.8419 H   0  0  0  0  0  0  0  0  0  0  0  0
    0.0585   -2.0642    5.5199 H   0  0  0  0  0  0  0  0  0  0  0  0
   -0.6261   -2.1849    2.9917 N   0  0  0  0  0  0  0  0  0  0  0  0
   -0.7237   -2.2601    1.5650 C   0  0  2  0  0  0  0  0  0  0  0  0
    0.1695   -1.1513    1.0687 C   0  0  0  0  0  0  0  0  0  0  0  0
    0.3193   -0.1267    1.7365 O   0  0  0  0  0  0  0  0  0  0  0  0
   -2.1397   -2.0663    1.0750 C   0  0  0  0  0  0  0  0  0  0  0  0
   -0.5717   -1.2606    3.4238 H   0  0  0  0  0  0  0  0  0  0  0  0
   -0.3076   -3.2111    1.2363 H   0  0  0  0  0  0  0  0  0  0  0  0
   -2.5584   -1.1089    1.4061 H   0  0  0  0  0  0  0  0  0  0  0  0
   -2.1682   -2.0790   -0.0197 H   0  0  0  0  0  0  0  0  0  0  0  0
   -2.7965   -2.8601    1.4459 H   0  0  0  0  0  0  0  0  0  0  0  0
    0.7724   -1.3745   -0.1593 N   0  0  0  0  0  0  0  0  0  0  0  0
    0.5614   -2.5964   -0.9244 C   0  0  2  0  0  0  0  0  0  0  0  0
    1.6157   -3.5728   -0.4972 C   0  0  0  0  0  0  0  0  0  0  0  0
    1.5170   -4.1320    0.5887 O   0  0  0  0  0  0  0  0  0  0  0  0
    0.7345   -2.1771   -2.3796 C   0  0  0  0  0  0  0  0  0  0  0  0
    0.3244   -0.8671   -1.7112 C   0  0  0  0  0  0  0  0  0  0  0  0
    1.5408   -0.3981   -0.9273 C   0  0  0  0  0  0  0  0  0  0  0  0
   -0.4227   -3.0263   -0.7144 H   0  0  0  0  0  0  0  0  0  0  0  0
    0.0120   -2.7078   -3.0110 H   0  0  0  0  0  0  0  0  0  0  0  0
    1.7400   -2.3597   -2.7711 H   0  0  0  0  0  0  0  0  0  0  0  0
    0.0755   -0.1144   -2.4681 H   0  0  0  0  0  0  0  0  0  0  0  0
   -0.5410   -0.9920   -1.0542 H   0  0  0  0  0  0  0  0  0  0  0  0
    2.4811   -0.6014   -1.4471 H   0  0  0  0  0  0  0  0  0  0  0  0
    1.4806    0.6724   -0.7030 H   0  0  0  0  0  0  0  0  0  0  0  0
    2.6314   -3.5871   -1.6841 N   0  0  0  0  0  0  0  0  0  0  0  0
    3.7474   -4.5054   -1.6992 C   0  0  2  0  0  0  0  0  0  0  0  0
    3.1929   -5.9172   -1.8362 C   0  0  0  0  0  0  0  0  0  0  0  0
    2.0436   -6.2199   -1.5222 O   0  0  0  0  0  0  0  0  0  0  0  0
    4.5905   -4.3724   -0.4405 C   0  0  0  0  0  0  0  0  0  0  0  0
    2.5928   -2.8614   -2.3935 H   0  0  0  0  0  0  0  0  0  0  0  0
    4.3467   -4.2604   -2.5829 H   0  0  0  0  0  0  0  0  0  0  0  0
    4.0070   -4.6139    0.4554 H   0  0  0  0  0  0  0  0  0  0  0  0
    5.4515   -5.0485   -0.4664 H   0  0  0  0  0  0  0  0  0  0  0  0
    4.9639   -3.3488   -0.3280 H   0  0  0  0  0  0  0  0  0  0  0  0
    4.1456   -6.8084   -2.3098 N   0  0  0  0  0  0  0  0  0  0  0  0
    3.8678   -8.2110   -2.5142 C   0  0  0  0  0  0  0  0  0  0  0  0
    5.0679   -6.4662   -2.5627 H   0  0  0  0  0  0  0  0  0  0  0  0
    4.1364   -8.7743   -1.6084 H   0  0  0  0  0  0  0  0  0  0  0  0
    2.7966   -8.3455   -2.7253 H   0  0  0  0  0  0  0  0  0  0  0  0
    4.4585   -8.5815   -3.3649 H   0  0  0  0  0  0  0  0  0  0  0  0
 18 19  1  0  0  0  0
 19 31  1  0  0  0  0
 19 20  2  0  0  0  0
  8  9  1  0  0  0  0
  9 17  1  0  0  0  0
  9 10  2  0  0  0  0
  1  3  1  0  0  0  0
  1  7  1  0  0  0  0
  1  2  2  0  0  0  0
 32 33  1  0  0  0  0
 33 41  1  0  0  0  0
 33 34  2  0  0  0  0
 21 22  1  0  0  0  0
 22 23  1  0  0  0  0
 18 21  1  0  0  0  0
 17 23  1  0  0  0  0
 17 18  1  0  0  0  0
  8 11  1  0  0  0  0
 32 35  1  0  0  0  0
 41 42  1  0  0  0  0
  7  8  1  0  0  0  0
 31 32  1  0  0  0  0
 22 27  1  0  0  0  0
 22 28  1  0  0  0  0
 21 25  1  0  0  0  0
 21 26  1  0  0  0  0
 23 29  1  0  0  0  0
 23 30  1  0  0  0  0
 18 24  1  0  0  0  0
  3  4  1  0  0  0  0
  3  5  1  0  0  0  0
  3  6  1  0  0  0  0
 11 14  1  0  0  0  0
 11 15  1  0  0  0  0
 11 16  1  0  0  0  0
 35 38  1  0  0  0  0
 35 39  1  0  0  0  0
 35 40  1  0  0  0  0
 42 44  1  0  0  0  0
 42 45  1  0  0  0  0
 42 46  1  0  0  0  0
  8 13  1  0  0  0  0
 32 37  1  0  0  0  0
 31 36  1  0  0  0  0
 41 43  1  0  0  0  0
  7 12  1  0  0  0  0
M  END
$$$$

  -OEChem-05262214473D

 46 46  0     1  0  0  0  0  0999 V2000
   -0.6012   -3.2995    3.8205 C   0  0  0  0  0  0  0  0  0  0  0  0
   -0.6574   -4.4683    3.4568 O   0  0  0  0  0  0  0  0  0  0  0  0
   -0.4935   -2.9859    5.2760 C   0  0  0  0  0  0  0  0  0  0  0  0
   -1.4789   -2.8689    5.7550 H   0  0  0  0  0  0  0  0  0  0  0  0
    0.0123   -3.7847    5.8419 H   0  0  0  0  0  0  0  0  0  0  0  0
    0.0585   -2.0642    5.5199 H   0  0  0  0  0  0  0  0  0  0  0  0
   -0.6261   -2.1849    2.9917 N   0  0  0  0  0  0  0  0  0  0  0  0
   -0.7237   -2.2601    1.5650 C   0  0  2  0  0  0  0  0  0  0  0  0
    0.1695   -1.1513    1.0687 C   0  0  0  0  0  0  0  0  0  0  0  0
    0.3193   -0.1267    1.7365 O   0  0  0  0  0  0  0  0  0  0  0  0
   -2.1397   -2.0663    1.0750 C   0  0  0  0  0  0  0  0  0  0  0  0
   -0.5717   -1.2606    3.4238 H   0  0  0  0  0  0  0  0  0  0  0  0
   -0.3076   -3.2111    1.2363 H   0  0  0  0  0  0  0  0  0  0  0  0
   -2.5584   -1.1089    1.4061 H   0  0  0  0  0  0  0  0  0  0  0  0
   -2.1682   -2.0790   -0.0197 H   0  0  0  0  0  0  0  0  0  0  0  0
   -2.7965   -2.8601    1.4459 H   0  0  0  0  0  0  0  0  0  0  0  0
    0.7724   -1.3745   -0.1593 N   0  0  0  0  0  0  0  0  0  0  0  0
    0.5614   -2.5964   -0.9244 C   0  0  2  0  0  0  0  0  0  0  0  0
    1.6157   -3.5728   -0.4972 C   0  0  0  0  0  0  0  0  0  0  0  0
    1.3930   -4.3313    0.4392 O   0  0  0  0  0  0  0  0  0  0  0  0
    0.7345   -2.1771   -2.3796 C   0  0  0  0  0  0  0  0  0  0  0  0
    0.3244   -0.8671   -1.7112 C   0  0  0  0  0  0  0  0  0  0  0  0
    1.5408   -0.3981   -0.9273 C   0  0  0  0  0  0  0  0  0  0  0  0
   -0.4227   -3.0263   -0.7144 H   0  0  0  0  0  0  0  0  0  0  0  0
    0.0120   -2.7078   -3.0110 H   0  0  0  0  0  0  0  0  0  0  0  0
    1.7400   -2.3597   -2.7711 H   0  0  0  0  0  0  0  0  0  0  0  0
    0.0755   -0.1144   -2.4681 H   0  0  0  0  0  0  0  0  0  0  0  0
   -0.5410   -0.9920   -1.0542 H   0  0  0  0  0  0  0  0  0  0  0  0
    2.4811   -0.6014   -1.4471 H   0  0  0  0  0  0  0  0  0  0  0  0
    1.4806    0.6724   -0.7030 H   0  0  0  0  0  0  0  0  0  0  0  0
    2.8072   -3.3042   -1.4713 N   0  0  0  0  0  0  0  0  0  0  0  0
    3.9884   -4.1368   -1.4515 C   0  0  2  0  0  0  0  0  0  0  0  0
    3.5918   -5.5274   -1.9295 C   0  0  0  0  0  0  0  0  0  0  0  0
    2.4386   -5.9501   -1.8801 O   0  0  0  0  0  0  0  0  0  0  0  0
    4.6016   -4.1944   -0.0610 C   0  0  0  0  0  0  0  0  0  0  0  0
    2.8192   -2.4614   -2.0378 H   0  0  0  0  0  0  0  0  0  0  0  0
    4.6984   -3.6953   -2.1594 H   0  0  0  0  0  0  0  0  0  0  0  0
    3.9048   -4.6339    0.6621 H   0  0  0  0  0  0  0  0  0  0  0  0
    5.5123   -4.8023   -0.0538 H   0  0  0  0  0  0  0  0  0  0  0  0
    4.8589   -3.1904    0.2934 H   0  0  0  0  0  0  0  0  0  0  0  0
    4.6843   -6.2565   -2.3778 N   0  0  0  0  0  0  0  0  0  0  0  0
    4.5697   -7.6091   -2.8709 C   0  0  0  0  0  0  0  0  0  0  0  0
    5.6011   -5.8197   -2.4008 H   0  0  0  0  0  0  0  0  0  0  0  0
    4.7375   -8.3164   -2.0453 H   0  0  0  0  0  0  0  0  0  0  0  0
    3.5631   -7.7635   -3.2869 H   0  0  0  0  0  0  0  0  0  0  0  0
    5.3209   -7.7778   -3.6565 H   0  0  0  0  0  0  0  0  0  0  0  0
 18 19  1  0  0  0  0
 19 31  1  0  0  0  0
 19 20  2  0  0  0  0
  8  9  1  0  0  0  0
  9 17  1  0  0  0  0
  9 10  2  0  0  0  0
  1  3  1  0  0  0  0
  1  7  1  0  0  0  0
  1  2  2  0  0  0  0
 32 33  1  0  0  0  0
 33 41  1  0  0  0  0
 33 34  2  0  0  0  0
 21 22  1  0  0  0  0
 22 23  1  0  0  0  0
 18 21  1  0  0  0  0
 17 23  1  0  0  0  0
 17 18  1  0  0  0  0
  8 11  1  0  0  0  0
 32 35  1  0  0  0  0
 41 42  1  0  0  0  0
  7  8  1  0  0  0  0
 31 32  1  0  0  0  0
 22 27  1  0  0  0  0
 22 28  1  0  0  0  0
 21 25  1  0  0  0  0
 21 26  1  0  0  0  0
 23 29  1  0  0  0  0
 23 30  1  0  0  0  0
 18 24  1  0  0  0  0
  3  4  1  0  0  0  0
  3  5  1  0  0  0  0
  3  6  1  0  0  0  0
 11 14  1  0  0  0  0
 11 15  1  0  0  0  0
 11 16  1  0  0  0  0
 35 38  1  0  0  0  0
 35 39  1  0  0  0  0
 35 40  1  0  0  0  0
 42 44  1  0  0  0  0
 42 45  1  0  0  0  0
 42 46  1  0  0  0  0
  8 13  1  0  0  0  0
 32 37  1  0  0  0  0
 31 36  1  0  0  0  0
 41 43  1  0  0  0  0
  7 12  1  0  0  0  0
M  END
$$$$

  -OEChem-05262214473D

 46 46  0     1  0  0  0  0  0999 V2000
   -0.6012   -3.2995    3.8205 C   0  0  0  0  0  0  0  0  0  0  0  0
   -0.6574   -4.4683    3.4568 O   0  0  0  0  0  0  0  0  0  0  0  0
   -0.4935   -2.9859    5.2760 C   0  0  0  0  0  0  0  0  0  0  0  0
   -1.4789   -2.8689    5.7550 H   0  0  0  0  0  0  0  0  0  0  0  0
    0.0123   -3.7847    5.8419 H   0  0  0  0  0  0  0  0  0  0  0  0
    0.0585   -2.0642    5.5199 H   0  0  0  0  0  0  0  0  0  0  0  0
   -0.6261   -2.1849    2.9917 N   0  0  0  0  0  0  0  0  0  0  0  0
   -0.7237   -2.2601    1.5650 C   0  0  2  0  0  0  0  0  0  0  0  0
    0.1695   -1.1513    1.0687 C   0  0  0  0  0  0  0  0  0  0  0  0
    0.3193   -0.1267    1.7365 O   0  0  0  0  0  0  0  0  0  0  0  0
   -2.1397   -2.0663    1.0750 C   0  0  0  0  0  0  0  0  0  0  0  0
   -0.5717   -1.2606    3.4238 H   0  0  0  0  0  0  0  0  0  0  0  0
   -0.3076   -3.2111    1.2363 H   0  0  0  0  0  0  0  0  0  0  0  0
   -2.5584   -1.1089    1.4061 H   0  0  0  0  0  0  0  0  0  0  0  0
   -2.1682   -2.0790   -0.0197 H   0  0  0  0  0  0  0  0  0  0  0  0
   -2.7965   -2.8601    1.4459 H   0  0  0  0  0  0  0  0  0  0  0  0
    0.7724   -1.3745   -0.1593 N   0  0  0  0  0  0  0  0  0  0  0  0
    0.5614   -2.5964   -0.9244 C   0  0  2  0  0  0  0  0  0  0  0  0
    1.6157   -3.5728   -0.4972 C   0  0  0  0  0  0  0  0  0  0  0  0
    1.3131   -4.5058    0.2375 O   0  0  0  0  0  0  0  0  0  0  0  0
    0.7345   -2.1771   -2.3796 C   0  0  0  0  0  0  0  0  0  0  0  0
    0.3244   -0.8671   -1.7112 C   0  0  0  0  0  0  0  0  0  0  0  0
    1.5408   -0.3981   -0.9273 C   0  0  0  0  0  0  0  0  0  0  0  0
   -0.4227   -3.0263   -0.7144 H   0  0  0  0  0  0  0  0  0  0  0  0
    0.0120   -2.7078   -3.0110 H   0  0  0  0  0  0  0  0  0  0  0  0
    1.7400   -2.3597   -2.7711 H   0  0  0  0  0  0  0  0  0  0  0  0
    0.0755   -0.1144   -2.4681 H   0  0  0  0  0  0  0  0  0  0  0  0
   -0.5410   -0.9920   -1.0542 H   0  0  0  0  0  0  0  0  0  0  0  0
    2.4811   -0.6014   -1.4471 H   0  0  0  0  0  0  0  0  0  0  0  0
    1.4806    0.6724   -0.7030 H   0  0  0  0  0  0  0  0  0  0  0  0
    2.9202   -3.0568   -1.1846 N   0  0  0  0  0  0  0  0  0  0  0  0
    4.1523   -3.8081   -1.1045 C   0  0  2  0  0  0  0  0  0  0  0  0
    3.9641   -5.1044   -1.8815 C   0  0  0  0  0  0  0  0  0  0  0  0
    2.8605   -5.5951   -2.1102 O   0  0  0  0  0  0  0  0  0  0  0  0
    4.5351   -4.0908    0.3399 C   0  0  0  0  0  0  0  0  0  0  0  0
    2.9483   -2.1231   -1.5832 H   0  0  0  0  0  0  0  0  0  0  0  0
    4.9251   -3.2007   -1.5881 H   0  0  0  0  0  0  0  0  0  0  0  0
    3.7727   -4.6984    0.8409 H   0  0  0  0  0  0  0  0  0  0  0  0
    5.4833   -4.6352    0.3998 H   0  0  0  0  0  0  0  0  0  0  0  0
    4.6410   -3.1583    0.9047 H   0  0  0  0  0  0  0  0  0  0  0  0
    5.1754   -5.6712   -2.2522 N   0  0  0  0  0  0  0  0  0  0  0  0
    5.2634   -6.9111   -2.9877 C   0  0  0  0  0  0  0  0  0  0  0  0
    6.0411   -5.1854   -2.0370 H   0  0  0  0  0  0  0  0  0  0  0  0
    5.3580   -7.7503   -2.2827 H   0  0  0  0  0  0  0  0  0  0  0  0
    4.3553   -7.0427   -3.5943 H   0  0  0  0  0  0  0  0  0  0  0  0
    6.1439   -6.8849   -3.6465 H   0  0  0  0  0  0  0  0  0  0  0  0
 18 19  1  0  0  0  0
 19 31  1  0  0  0  0
 19 20  2  0  0  0  0
  8  9  1  0  0  0  0
  9 17  1  0  0  0  0
  9 10  2  0  0  0  0
  1  3  1  0  0  0  0
  1  7  1  0  0  0  0
  1  2  2  0  0  0  0
 32 33  1  0  0  0  0
 33 41  1  0  0  0  0
 33 34  2  0  0  0  0
 21 22  1  0  0  0  0
 22 23  1  0  0  0  0
 18 21  1  0  0  0  0
 17 23  1  0  0  0  0
 17 18  1  0  0  0  0
  8 11  1  0  0  0  0
 32 35  1  0  0  0  0
 41 42  1  0  0  0  0
  7  8  1  0  0  0  0
 31 32  1  0  0  0  0
 22 27  1  0  0  0  0
 22 28  1  0  0  0  0
 21 25  1  0  0  0  0
 21 26  1  0  0  0  0
 23 29  1  0  0  0  0
 23 30  1  0  0  0  0
 18 24  1  0  0  0  0
  3  4  1  0  0  0  0
  3  5  1  0  0  0  0
  3  6  1  0  0  0  0
 11 14  1  0  0  0  0
 11 15  1  0  0  0  0
 11 16  1  0  0  0  0
 35 38  1  0  0  0  0
 35 39  1  0  0  0  0
 35 40  1  0  0  0  0
 42 44  1  0  0  0  0
 42 45  1  0  0  0  0
 42 46  1  0  0  0  0
  8 13  1  0  0  0  0
 32 37  1  0  0  0  0
 31 36  1  0  0  0  0
 41 43  1  0  0  0  0
  7 12  1  0  0  0  0
M  END
$$$$

  -OEChem-05262214473D

 46 46  0     1  0  0  0  0  0999 V2000
   -0.6012   -3.2995    3.8205 C   0  0  0  0  0  0  0  0  0  0  0  0
   -0.6574   -4.4683    3.4568 O   0  0  0  0  0  0  0  0  0  0  0  0
   -0.4935   -2.9859    5.2760 C   0  0  0  0  0  0  0  0  0  0  0  0
   -1.4789   -2.8689    5.7550 H   0  0  0  0  0  0  0  0  0  0  0  0
    0.0123   -3.7847    5.8419 H   0  0  0  0  0  0  0  0  0  0  0  0
    0.0585   -2.0642    5.5199 H   0  0  0  0  0  0  0  0  0  0  0  0
   -0.6261   -2.1849    2.9917 N   0  0  0  0  0  0  0  0  0  0  0  0
   -0.7237   -2.2601    1.5650 C   0  0  2  0  0  0  0  0  0  0  0  0
    0.1695   -1.1513    1.0687 C   0  0  0  0  0  0  0  0  0  0  0  0
    0.3193   -0.1267    1.7365 O   0  0  0  0  0  0  0  0  0  0  0  0
   -2.1397   -2.0663    1.0750 C   0  0  0  0  0  0  0  0  0  0  0  0
   -0.5717   -1.2606    3.4238 H   0  0  0  0  0  0  0  0  0  0  0  0
   -0.3076   -3.2111    1.2363 H   0  0  0  0  0  0  0  0  0  0  0  0
   -2.5584   -1.1089    1.4061 H   0  0  0  0  0  0  0  0  0  0  0  0
   -2.1682   -2.0790   -0.0197 H   0  0  0  0  0  0  0  0  0  0  0  0
   -2.7965   -2.8601    1.4459 H   0  0  0  0  0  0  0  0  0  0  0  0
    0.7724   -1.3745   -0.1593 N   0  0  0  0  0  0  0  0  0  0  0  0
    0.5614   -2.5964   -0.9244 C   0  0  2  0  0  0  0  0  0  0  0  0
    1.6157   -3.5728   -0.4972 C   0  0  0  0  0  0  0  0  0  0  0  0
    1.2829   -4.6434   -0.0025 O   0  0  0  0  0  0  0  0  0  0  0  0
    0.7345   -2.1771   -2.3796 C   0  0  0  0  0  0  0  0  0  0  0  0
    0.3244   -0.8671   -1.7112 C   0  0  0  0  0  0  0  0  0  0  0  0
    1.5408   -0.3981   -0.9273 C   0  0  0  0  0  0  0  0  0  0  0  0
   -0.4227   -3.0263   -0.7144 H   0  0  0  0  0  0  0  0  0  0  0  0
    0.0120   -2.7078   -3.0110 H   0  0  0  0  0  0  0  0  0  0  0  0
    1.7400   -2.3597   -2.7711 H   0  0  0  0  0  0  0  0  0  0  0  0
    0.0755   -0.1144   -2.4681 H   0  0  0  0  0  0  0  0  0  0  0  0
   -0.5410   -0.9920   -1.0542 H   0  0  0  0  0  0  0  0  0  0  0  0
    2.4811   -0.6014   -1.4471 H   0  0  0  0  0  0  0  0  0  0  0  0
    1.4806    0.6724   -0.7030 H   0  0  0  0  0  0  0  0  0  0  0  0
    2.9628   -2.8616   -0.8436 N   0  0  0  0  0  0  0  0  0  0  0  0
    4.2279   -3.5416   -0.6819 C   0  0  2  0  0  0  0  0  0  0  0  0
    4.2844   -4.6771   -1.6953 C   0  0  0  0  0  0  0  0  0  0  0  0
    3.2806   -5.1793   -2.1967 O   0  0  0  0  0  0  0  0  0  0  0  0
    4.3957   -4.0686    0.7347 C   0  0  0  0  0  0  0  0  0  0  0  0
    2.9715   -1.8695   -1.0607 H   0  0  0  0  0  0  0  0  0  0  0  0
    5.0113   -2.8101   -0.9081 H   0  0  0  0  0  0  0  0  0  0  0  0
    3.6197   -4.8029    0.9795 H   0  0  0  0  0  0  0  0  0  0  0  0
    5.3666   -4.5584    0.8634 H   0  0  0  0  0  0  0  0  0  0  0  0
    4.3251   -3.2546    1.4643 H   0  0  0  0  0  0  0  0  0  0  0  0
    5.5855   -5.0925   -1.9416 N   0  0  0  0  0  0  0  0  0  0  0  0
    5.9017   -6.1645   -2.8564 C   0  0  0  0  0  0  0  0  0  0  0  0
    6.3581   -4.6065   -1.4959 H   0  0  0  0  0  0  0  0  0  0  0  0
    5.9556   -7.1144   -2.3044 H   0  0  0  0  0  0  0  0  0  0  0  0
    5.1191   -6.2320   -3.6265 H   0  0  0  0  0  0  0  0  0  0  0  0
    6.8712   -5.9635   -3.3356 H   0  0  0  0  0  0  0  0  0  0  0  0
 18 19  1  0  0  0  0
 19 31  1  0  0  0  0
 19 20  2  0  0  0  0
  8  9  1  0  0  0  0
  9 17  1  0  0  0  0
  9 10  2  0  0  0  0
  1  3  1  0  0  0  0
  1  7  1  0  0  0  0
  1  2  2  0  0  0  0
 32 33  1  0  0  0  0
 33 41  1  0  0  0  0
 33 34  2  0  0  0  0
 21 22  1  0  0  0  0
 22 23  1  0  0  0  0
 18 21  1  0  0  0  0
 17 23  1  0  0  0  0
 17 18  1  0  0  0  0
  8 11  1  0  0  0  0
 32 35  1  0  0  0  0
 41 42  1  0  0  0  0
  7  8  1  0  0  0  0
 31 32  1  0  0  0  0
 22 27  1  0  0  0  0
 22 28  1  0  0  0  0
 21 25  1  0  0  0  0
 21 26  1  0  0  0  0
 23 29  1  0  0  0  0
 23 30  1  0  0  0  0
 18 24  1  0  0  0  0
  3  4  1  0  0  0  0
  3  5  1  0  0  0  0
  3  6  1  0  0  0  0
 11 14  1  0  0  0  0
 11 15  1  0  0  0  0
 11 16  1  0  0  0  0
 35 38  1  0  0  0  0
 35 39  1  0  0  0  0
 35 40  1  0  0  0  0
 42 44  1  0  0  0  0
 42 45  1  0  0  0  0
 42 46  1  0  0  0  0
  8 13  1  0  0  0  0
 32 37  1  0  0  0  0
 31 36  1  0  0  0  0
 41 43  1  0  0  0  0
  7 12  1  0  0  0  0
M  END
$$$$

  -OEChem-05262214473D

 46 46  0     1  0  0  0  0  0999 V2000
   -0.6012   -3.2995    3.8205 C   0  0  0  0  0  0  0  0  0  0  0  0
   -0.6574   -4.4683    3.4568 O   0  0  0  0  0  0  0  0  0  0  0  0
   -0.4935   -2.9859    5.2760 C   0  0  0  0  0  0  0  0  0  0  0  0
   -1.4789   -2.8689    5.7550 H   0  0  0  0  0  0  0  0  0  0  0  0
    0.0123   -3.7847    5.8419 H   0  0  0  0  0  0  0  0  0  0  0  0
    0.0585   -2.0642    5.5199 H   0  0  0  0  0  0  0  0  0  0  0  0
   -0.6261   -2.1849    2.9917 N   0  0  0  0  0  0  0  0  0  0  0  0
   -0.7237   -2.2601    1.5650 C   0  0  2  0  0  0  0  0  0  0  0  0
    0.1695   -1.1513    1.0687 C   0  0  0  0  0  0  0  0  0  0  0  0
    0.3193   -0.1267    1.7365 O   0  0  0  0  0  0  0  0  0  0  0  0
   -2.1397   -2.0663    1.0750 C   0  0  0  0  0  0  0  0  0  0  0  0
   -0.5717   -1.2606    3.4238 H   0  0  0  0  0  0  0  0  0  0  0  0
   -0.3076   -3.2111    1.2363 H   0  0  0  0  0  0  0  0  0  0  0  0
   -2.5584   -1.1089    1.4061 H   0  0  0  0  0  0  0  0  0  0  0  0
   -2.1682   -2.0790   -0.0197 H   0  0  0  0  0  0  0  0  0  0  0  0
   -2.7965   -2.8601    1.4459 H   0  0  0  0  0  0  0  0  0  0  0  0
    0.7724   -1.3745   -0.1593 N   0  0  0  0  0  0  0  0  0  0  0  0
    0.5614   -2.5964   -0.9244 C   0  0  2  0  0  0  0  0  0  0  0  0
    1.6157   -3.5728   -0.4972 C   0  0  0  0  0  0  0  0  0  0  0  0
    1.3042   -4.7350   -0.2644 O   0  0  0  0  0  0  0  0  0  0  0  0
    0.7345   -2.1771   -2.3796 C   0  0  0  0  0  0  0  0  0  0  0  0
    0.3244   -0.8671   -1.7112 C   0  0  0  0  0  0  0  0  0  0  0  0
    1.5408   -0.3981   -0.9273 C   0  0  0  0  0  0  0  0  0  0  0  0
   -0.4227   -3.0263   -0.7144 H   0  0  0  0  0  0  0  0  0  0  0  0
    0.0120   -2.7078   -3.0110 H   0  0  0  0  0  0  0  0  0  0  0  0
    1.7400   -2.3597   -2.7711 H   0  0  0  0  0  0  0  0  0  0  0  0
    0.0755   -0.1144   -2.4681 H   0  0  0  0  0  0  0  0  0  0  0  0
   -0.5410   -0.9920   -1.0542 H   0  0  0  0  0  0  0  0  0  0  0  0
    2.4811   -0.6014   -1.4471 H   0  0  0  0  0  0  0  0  0  0  0  0
    1.4806    0.6724   -0.7030 H   0  0  0  0  0  0  0  0  0  0  0  0
    2.9321   -2.7320   -0.4715 N   0  0  0  0  0  0  0  0  0  0  0  0
    4.2100   -3.3556   -0.2124 C   0  0  2  0  0  0  0  0  0  0  0  0
    4.5309   -4.2746   -1.3837 C   0  0  0  0  0  0  0  0  0  0  0  0
    3.6704   -4.7309   -2.1337 O   0  0  0  0  0  0  0  0  0  0  0  0
    4.1929   -4.1293    1.0967 C   0  0  0  0  0  0  0  0  0  0  0  0
    2.8871   -1.7180   -0.5060 H   0  0  0  0  0  0  0  0  0  0  0  0
    4.9511   -2.5503   -0.1656 H   0  0  0  0  0  0  0  0  0  0  0  0
    3.4562   -4.9404    1.0687 H   0  0  0  0  0  0  0  0  0  0  0  0
    5.1700   -4.5773    1.3056 H   0  0  0  0  0  0  0  0  0  0  0  0
    3.9327   -3.4728    1.9340 H   0  0  0  0  0  0  0  0  0  0  0  0
    5.8865   -4.5599   -1.4670 N   0  0  0  0  0  0  0  0  0  0  0  0
    6.4410   -5.4201   -2.4861 C   0  0  0  0  0  0  0  0  0  0  0  0
    6.5303   -4.1224   -0.8144 H   0  0  0  0  0  0  0  0  0  0  0  0
    6.4896   -6.4523   -2.1088 H   0  0  0  0  0  0  0  0  0  0  0  0
    5.8025   -5.3868   -3.3812 H   0  0  0  0  0  0  0  0  0  0  0  0
    7.4534   -5.0764   -2.7449 H   0  0  0  0  0  0  0  0  0  0  0  0
 18 19  1  0  0  0  0
 19 31  1  0  0  0  0
 19 20  2  0  0  0  0
  8  9  1  0  0  0  0
  9 17  1  0  0  0  0
  9 10  2  0  0  0  0
  1  3  1  0  0  0  0
  1  7  1  0  0  0  0
  1  2  2  0  0  0  0
 32 33  1  0  0  0  0
 33 41  1  0  0  0  0
 33 34  2  0  0  0  0
 21 22  1  0  0  0  0
 22 23  1  0  0  0  0
 18 21  1  0  0  0  0
 17 23  1  0  0  0  0
 17 18  1  0  0  0  0
  8 11  1  0  0  0  0
 32 35  1  0  0  0  0
 41 42  1  0  0  0  0
  7  8  1  0  0  0  0
 31 32  1  0  0  0  0
 22 27  1  0  0  0  0
 22 28  1  0  0  0  0
 21 25  1  0  0  0  0
 21 26  1  0  0  0  0
 23 29  1  0  0  0  0
 23 30  1  0  0  0  0
 18 24  1  0  0  0  0
  3  4  1  0  0  0  0
  3  5  1  0  0  0  0
  3  6  1  0  0  0  0
 11 14  1  0  0  0  0
 11 15  1  0  0  0  0
 11 16  1  0  0  0  0
 35 38  1  0  0  0  0
 35 39  1  0  0  0  0
 35 40  1  0  0  0  0
 42 44  1  0  0  0  0
 42 45  1  0  0  0  0
 42 46  1  0  0  0  0
  8 13  1  0  0  0  0
 32 37  1  0  0  0  0
 31 36  1  0  0  0  0
 41 43  1  0  0  0  0
  7 12  1  0  0  0  0
M  END
$$$$

  -OEChem-05262214473D

 46 46  0     1  0  0  0  0  0999 V2000
   -0.6012   -3.2995    3.8205 C   0  0  0  0  0  0  0  0  0  0  0  0
   -0.6574   -4.4683    3.4568 O   0  0  0  0  0  0  0  0  0  0  0  0
   -0.4935   -2.9859    5.2760 C   0  0  0  0  0  0  0  0  0  0  0  0
   -1.4789   -2.8689    5.7550 H   0  0  0  0  0  0  0  0  0  0  0  0
    0.0123   -3.7847    5.8419 H   0  0  0  0  0  0  0  0  0  0  0  0
    0.0585   -2.0642    5.5199 H   0  0  0  0  0  0  0  0  0  0  0  0
   -0.6261   -2.1849    2.9917 N   0  0  0  0  0  0  0  0  0  0  0  0
   -0.7237   -2.2601    1.5650 C   0  0  2  0  0  0  0  0  0  0  0  0
    0.1695   -1.1513    1.0687 C   0  0  0  0  0  0  0  0  0  0  0  0
    0.3193   -0.1267    1.7365 O   0  0  0  0  0  0  0  0  0  0  0  0
   -2.1397   -2.0663    1.0750 C   0  0  0  0  0  0  0  0  0  0  0  0
   -0.5717   -1.2606    3.4238 H   0  0  0  0  0  0  0  0  0  0  0  0
   -0.3076   -3.2111    1.2363 H   0  0  0  0  0  0  0  0  0  0  0  0
   -2.5584   -1.1089    1.4061 H   0  0  0  0  0  0  0  0  0  0  0  0
   -2.1682   -2.0790   -0.0197 H   0  0  0  0  0  0  0  0  0  0  0  0
   -2.7965   -2.8601    1.4459 H   0  0  0  0  0  0  0  0  0  0  0  0
    0.7724   -1.3745   -0.1593 N   0  0  0  0  0  0  0  0  0  0  0  0
    0.5614   -2.5964   -0.9244 C   0  0  2  0  0  0  0  0  0  0  0  0
    1.6157   -3.5728   -0.4972 C   0  0  0  0  0  0  0  0  0  0  0  0
    1.3758   -4.7741   -0.5305 O   0  0  0  0  0  0  0  0  0  0  0  0
    0.7345   -2.1771   -2.3796 C   0  0  0  0  0  0  0  0  0  0  0  0
    0.3244   -0.8671   -1.7112 C   0  0  0  0  0  0  0  0  0  0  0  0
    1.5408   -0.3981   -0.9273 C   0  0  0  0  0  0  0  0  0  0  0  0
   -0.4227   -3.0263   -0.7144 H   0  0  0  0  0  0  0  0  0  0  0  0
    0.0120   -2.7078   -3.0110 H   0  0  0  0  0  0  0  0  0  0  0  0
    1.7400   -2.3597   -2.7711 H   0  0  0  0  0  0  0  0  0  0  0  0
    0.0755   -0.1144   -2.4681 H   0  0  0  0  0  0  0  0  0  0  0  0
   -0.5410   -0.9920   -1.0542 H   0  0  0  0  0  0  0  0  0  0  0  0
    2.4811   -0.6014   -1.4471 H   0  0  0  0  0  0  0  0  0  0  0  0
    1.4806    0.6724   -0.7030 H   0  0  0  0  0  0  0  0  0  0  0  0
    2.8301   -2.6768   -0.0937 N   0  0  0  0  0  0  0  0  0  0  0  0
    4.0998   -3.2626    0.2719 C   0  0  2  0  0  0  0  0  0  0  0  0
    4.6868   -3.9244   -0.9679 C   0  0  0  0  0  0  0  0  0  0  0  0
    4.0031   -4.2805   -1.9255 O   0  0  0  0  0  0  0  0  0  0  0  0
    3.9404   -4.2687    1.4011 C   0  0  0  0  0  0  0  0  0  0  0  0
    2.7008   -1.6788    0.0432 H   0  0  0  0  0  0  0  0  0  0  0  0
    4.7487   -2.4389    0.5887 H   0  0  0  0  0  0  0  0  0  0  0  0
    3.2934   -5.1015    1.1022 H   0  0  0  0  0  0  0  0  0  0  0  0
    4.9069   -4.6905    1.6961 H   0  0  0  0  0  0  0  0  0  0  0  0
    3.4906   -3.7979    2.2819 H   0  0  0  0  0  0  0  0  0  0  0  0
    6.0581   -4.1096   -0.8610 N   0  0  0  0  0  0  0  0  0  0  0  0
    6.8447   -4.7288   -1.9021 C   0  0  0  0  0  0  0  0  0  0  0  0
    6.5460   -3.7662   -0.0390 H   0  0  0  0  0  0  0  0  0  0  0  0
    6.9236   -5.8089   -1.7094 H   0  0  0  0  0  0  0  0  0  0  0  0
    6.3589   -4.5646   -2.8752 H   0  0  0  0  0  0  0  0  0  0  0  0
    7.8508   -4.2842   -1.9148 H   0  0  0  0  0  0  0  0  0  0  0  0
 18 19  1  0  0  0  0
 19 31  1  0  0  0  0
 19 20  2  0  0  0  0
  8  9  1  0  0  0  0
  9 17  1  0  0  0  0
  9 10  2  0  0  0  0
  1  3  1  0  0  0  0
  1  7  1  0  0  0  0
  1  2  2  0  0  0  0
 32 33  1  0  0  0  0
 33 41  1  0  0  0  0
 33 34  2  0  0  0  0
 21 22  1  0  0  0  0
 22 23  1  0  0  0  0
 18 21  1  0  0  0  0
 17 23  1  0  0  0  0
 17 18  1  0  0  0  0
  8 11  1  0  0  0  0
 32 35  1  0  0  0  0
 41 42  1  0  0  0  0
  7  8  1  0  0  0  0
 31 32  1  0  0  0  0
 22 27  1  0  0  0  0
 22 28  1  0  0  0  0
 21 25  1  0  0  0  0
 21 26  1  0  0  0  0
 23 29  1  0  0  0  0
 23 30  1  0  0  0  0
 18 24  1  0  0  0  0
  3  4  1  0  0  0  0
  3  5  1  0  0  0  0
  3  6  1  0  0  0  0
 11 14  1  0  0  0  0
 11 15  1  0  0  0  0
 11 16  1  0  0  0  0
 35 38  1  0  0  0  0
 35 39  1  0  0  0  0
 35 40  1  0  0  0  0
 42 44  1  0  0  0  0
 42 45  1  0  0  0  0
 42 46  1  0  0  0  0
  8 13  1  0  0  0  0
 32 37  1  0  0  0  0
 31 36  1  0  0  0  0
 41 43  1  0  0  0  0
  7 12  1  0  0  0  0
M  END
$$$$

  -OEChem-05262214473D

 46 46  0     1  0  0  0  0  0999 V2000
   -0.6012   -3.2995    3.8205 C   0  0  0  0  0  0  0  0  0  0  0  0
   -0.6574   -4.4683    3.4568 O   0  0  0  0  0  0  0  0  0  0  0  0
   -0.4935   -2.9859    5.2760 C   0  0  0  0  0  0  0  0  0  0  0  0
   -1.4789   -2.8689    5.7550 H   0  0  0  0  0  0  0  0  0  0  0  0
    0.0123   -3.7847    5.8419 H   0  0  0  0  0  0  0  0  0  0  0  0
    0.0585   -2.0642    5.5199 H   0  0  0  0  0  0  0  0  0  0  0  0
   -0.6261   -2.1849    2.9917 N   0  0  0  0  0  0  0  0  0  0  0  0
   -0.7237   -2.2601    1.5650 C   0  0  2  0  0  0  0  0  0  0  0  0
    0.1695   -1.1513    1.0687 C   0  0  0  0  0  0  0  0  0  0  0  0
    0.3193   -0.1267    1.7365 O   0  0  0  0  0  0  0  0  0  0  0  0
   -2.1397   -2.0663    1.0750 C   0  0  0  0  0  0  0  0  0  0  0  0
   -0.5717   -1.2606    3.4238 H   0  0  0  0  0  0  0  0  0  0  0  0
   -0.3076   -3.2111    1.2363 H   0  0  0  0  0  0  0  0  0  0  0  0
   -2.5584   -1.1089    1.4061 H   0  0  0  0  0  0  0  0  0  0  0  0
   -2.1682   -2.0790   -0.0197 H   0  0  0  0  0  0  0  0  0  0  0  0
   -2.7965   -2.8601    1.4459 H   0  0  0  0  0  0  0  0  0  0  0  0
    0.7724   -1.3745   -0.1593 N   0  0  0  0  0  0  0  0  0  0  0  0
    0.5614   -2.5964   -0.9244 C   0  0  2  0  0  0  0  0  0  0  0  0
    1.6157   -3.5728   -0.4972 C   0  0  0  0  0  0  0  0  0  0  0  0
    1.4926   -4.7582   -0.7826 O   0  0  0  0  0  0  0  0  0  0  0  0
    0.7345   -2.1771   -2.3796 C   0  0  0  0  0  0  0  0  0  0  0  0
    0.3244   -0.8671   -1.7112 C   0  0  0  0  0  0  0  0  0  0  0  0
    1.5408   -0.3981   -0.9273 C   0  0  0  0  0  0  0  0  0  0  0  0
   -0.4227   -3.0263   -0.7144 H   0  0  0  0  0  0  0  0  0  0  0  0
    0.0120   -2.7078   -3.0110 H   0  0  0  0  0  0  0  0  0  0  0  0
    1.7400   -2.3597   -2.7711 H   0  0  0  0  0  0  0  0  0  0  0  0
    0.0755   -0.1144   -2.4681 H   0  0  0  0  0  0  0  0  0  0  0  0
   -0.5410   -0.9920   -1.0542 H   0  0  0  0  0  0  0  0  0  0  0  0
    2.4811   -0.6014   -1.4471 H   0  0  0  0  0  0  0  0  0  0  0  0
    1.4806    0.6724   -0.7030 H   0  0  0  0  0  0  0  0  0  0  0  0
    2.6639   -2.6998    0.2641 N   0  0  0  0  0  0  0  0  0  0  0  0
    3.9049   -3.2692    0.7380 C   0  0  2  0  0  0  0  0  0  0  0  0
    4.7414   -3.6503   -0.4763 C   0  0  0  0  0  0  0  0  0  0  0  0
    4.2563   -3.8588   -1.5863 O   0  0  0  0  0  0  0  0  0  0  0  0
    3.6555   -4.4774    1.6271 C   0  0  0  0  0  0  0  0  0  0  0  0
    2.4255   -1.7547    0.5494 H   0  0  0  0  0  0  0  0  0  0  0  0
    4.4178   -2.4835    1.3035 H   0  0  0  0  0  0  0  0  0  0  0  0
    3.1424   -5.2752    1.0778 H   0  0  0  0  0  0  0  0  0  0  0  0
    4.5954   -4.8903    2.0083 H   0  0  0  0  0  0  0  0  0  0  0  0
    3.0290   -4.2079    2.4842 H   0  0  0  0  0  0  0  0  0  0  0  0
    6.0884   -3.7723   -0.1647 N   0  0  0  0  0  0  0  0  0  0  0  0
    7.0851   -4.1375   -1.1440 C   0  0  0  0  0  0  0  0  0  0  0  0
    6.4043   -3.5620    0.7775 H   0  0  0  0  0  0  0  0  0  0  0  0
    7.2281   -5.2281   -1.1333 H   0  0  0  0  0  0  0  0  0  0  0  0
    6.7505   -3.8215   -2.1431 H   0  0  0  0  0  0  0  0  0  0  0  0
    8.0362   -3.6408   -0.9017 H   0  0  0  0  0  0  0  0  0  0  0  0
 18 19  1  0  0  0  0
 19 31  1  0  0  0  0
 19 20  2  0  0  0  0
  8  9  1  0  0  0  0
  9 17  1  0  0  0  0
  9 10  2  0  0  0  0
  1  3  1  0  0  0  0
  1  7  1  0  0  0  0
  1  2  2  0  0  0  0
 32 33  1  0  0  0  0
 33 41  1  0  0  0  0
 33 34  2  0  0  0  0
 21 22  1  0  0  0  0
 22 23  1  0  0  0  0
 18 21  1  0  0  0  0
 17 23  1  0  0  0  0
 17 18  1  0  0  0  0
  8 11  1  0  0  0  0
 32 35  1  0  0  0  0
 41 42  1  0  0  0  0
  7  8  1  0  0  0  0
 31 32  1  0  0  0  0
 22 27  1  0  0  0  0
 22 28  1  0  0  0  0
 21 25  1  0  0  0  0
 21 26  1  0  0  0  0
 23 29  1  0  0  0  0
 23 30  1  0  0  0  0
 18 24  1  0  0  0  0
  3  4  1  0  0  0  0
  3  5  1  0  0  0  0
  3  6  1  0  0  0  0
 11 14  1  0  0  0  0
 11 15  1  0  0  0  0
 11 16  1  0  0  0  0
 35 38  1  0  0  0  0
 35 39  1  0  0  0  0
 35 40  1  0  0  0  0
 42 44  1  0  0  0  0
 42 45  1  0  0  0  0
 42 46  1  0  0  0  0
  8 13  1  0  0  0  0
 32 37  1  0  0  0  0
 31 36  1  0  0  0  0
 41 43  1  0  0  0  0
  7 12  1  0  0  0  0
M  END
$$$$

  -OEChem-05262214473D

 46 46  0     1  0  0  0  0  0999 V2000
   -0.6012   -3.2995    3.8205 C   0  0  0  0  0  0  0  0  0  0  0  0
   -0.6574   -4.4683    3.4568 O   0  0  0  0  0  0  0  0  0  0  0  0
   -0.4935   -2.9859    5.2760 C   0  0  0  0  0  0  0  0  0  0  0  0
   -1.4789   -2.8689    5.7550 H   0  0  0  0  0  0  0  0  0  0  0  0
    0.0123   -3.7847    5.8419 H   0  0  0  0  0  0  0  0  0  0  0  0
    0.0585   -2.0642    5.5199 H   0  0  0  0  0  0  0  0  0  0  0  0
   -0.6261   -2.1849    2.9917 N   0  0  0  0  0  0  0  0  0  0  0  0
   -0.7237   -2.2601    1.5650 C   0  0  2  0  0  0  0  0  0  0  0  0
    0.1695   -1.1513    1.0687 C   0  0  0  0  0  0  0  0  0  0  0  0
    0.3193   -0.1267    1.7365 O   0  0  0  0  0  0  0  0  0  0  0  0
   -2.1397   -2.0663    1.0750 C   0  0  0  0  0  0  0  0  0  0  0  0
   -0.5717   -1.2606    3.4238 H   0  0  0  0  0  0  0  0  0  0  0  0
   -0.3076   -3.2111    1.2363 H   0  0  0  0  0  0  0  0  0  0  0  0
   -2.5584   -1.1089    1.4061 H   0  0  0  0  0  0  0  0  0  0  0  0
   -2.1682   -2.0790   -0.0197 H   0  0  0  0  0  0  0  0  0  0  0  0
   -2.7965   -2.8601    1.4459 H   0  0  0  0  0  0  0  0  0  0  0  0
    0.7724   -1.3745   -0.1593 N   0  0  0  0  0  0  0  0  0  0  0  0
    0.5614   -2.5964   -0.9244 C   0  0  2  0  0  0  0  0  0  0  0  0
    1.6157   -3.5728   -0.4972 C   0  0  0  0  0  0  0  0  0  0  0  0
    1.6468   -4.6883   -1.0035 O   0  0  0  0  0  0  0  0  0  0  0  0
    0.7345   -2.1771   -2.3796 C   0  0  0  0  0  0  0  0  0  0  0  0
    0.3244   -0.8671   -1.7112 C   0  0  0  0  0  0  0  0  0  0  0  0
    1.5408   -0.3981   -0.9273 C   0  0  0  0  0  0  0  0  0  0  0  0
   -0.4227   -3.0263   -0.7144 H   0  0  0  0  0  0  0  0  0  0  0  0
    0.0120   -2.7078   -3.0110 H   0  0  0  0  0  0  0  0  0  0  0  0
    1.7400   -2.3597   -2.7711 H   0  0  0  0  0  0  0  0  0  0  0  0
    0.0755   -0.1144   -2.4681 H   0  0  0  0  0  0  0  0  0  0  0  0
   -0.5410   -0.9920   -1.0542 H   0  0  0  0  0  0  0  0  0  0  0  0
    2.4811   -0.6014   -1.4471 H   0  0  0  0  0  0  0  0  0  0  0  0
    1.4806    0.6724   -0.7030 H   0  0  0  0  0  0  0  0  0  0  0  0
    2.4447   -2.7994    0.5776 N   0  0  0  0  0  0  0  0  0  0  0  0
    3.6386   -3.3747    1.1542 C   0  0  2  0  0  0  0  0  0  0  0  0
    4.6911   -3.4710    0.0577 C   0  0  0  0  0  0  0  0  0  0  0  0
    4.4125   -3.4945   -1.1393 O   0  0  0  0  0  0  0  0  0  0  0  0
    3.3576   -4.7412    1.7595 C   0  0  0  0  0  0  0  0  0  0  0  0
    2.0798   -1.9404    0.9781 H   0  0  0  0  0  0  0  0  0  0  0  0
    3.9809   -2.6811    1.9300 H   0  0  0  0  0  0  0  0  0  0  0  0
    3.0135   -5.4497    0.9972 H   0  0  0  0  0  0  0  0  0  0  0  0
    4.2565   -5.1631    2.2211 H   0  0  0  0  0  0  0  0  0  0  0  0
    2.5791   -4.6748    2.5272 H   0  0  0  0  0  0  0  0  0  0  0  0
    5.9754   -3.5709    0.5744 N   0  0  0  0  0  0  0  0  0  0  0  0
    7.1460   -3.6866   -0.2636 C   0  0  0  0  0  0  0  0  0  0  0  0
    6.1147   -3.5239    1.5794 H   0  0  0  0  0  0  0  0  0  0  0  0
    7.3822   -4.7495   -0.4198 H   0  0  0  0  0  0  0  0  0  0  0  0
    6.9505   -3.2081   -1.2346 H   0  0  0  0  0  0  0  0  0  0  0  0
    7.9972   -3.1900    0.2252 H   0  0  0  0  0  0  0  0  0  0  0  0
 18 19  1  0  0  0  0
 19 31  1  0  0  0  0
 19 20  2  0  0  0  0
  8  9  1  0  0  0  0
  9 17  1  0  0  0  0
  9 10  2  0  0  0  0
  1  3  1  0  0  0  0
  1  7  1  0  0  0  0
  1  2  2  0  0  0  0
 32 33  1  0  0  0  0
 33 41  1  0  0  0  0
 33 34  2  0  0  0  0
 21 22  1  0  0  0  0
 22 23  1  0  0  0  0
 18 21  1  0  0  0  0
 17 23  1  0  0  0  0
 17 18  1  0  0  0  0
  8 11  1  0  0  0  0
 32 35  1  0  0  0  0
 41 42  1  0  0  0  0
  7  8  1  0  0  0  0
 31 32  1  0  0  0  0
 22 27  1  0  0  0  0
 22 28  1  0  0  0  0
 21 25  1  0  0  0  0
 21 26  1  0  0  0  0
 23 29  1  0  0  0  0
 23 30  1  0  0  0  0
 18 24  1  0  0  0  0
  3  4  1  0  0  0  0
  3  5  1  0  0  0  0
  3  6  1  0  0  0  0
 11 14  1  0  0  0  0
 11 15  1  0  0  0  0
 11 16  1  0  0  0  0
 35 38  1  0  0  0  0
 35 39  1  0  0  0  0
 35 40  1  0  0  0  0
 42 44  1  0  0  0  0
 42 45  1  0  0  0  0
 42 46  1  0  0  0  0
  8 13  1  0  0  0  0
 32 37  1  0  0  0  0
 31 36  1  0  0  0  0
 41 43  1  0  0  0  0
  7 12  1  0  0  0  0
M  END
$$$$

  -OEChem-05262214473D

 46 46  0     1  0  0  0  0  0999 V2000
   -0.6012   -3.2995    3.8205 C   0  0  0  0  0  0  0  0  0  0  0  0
   -0.6574   -4.4683    3.4568 O   0  0  0  0  0  0  0  0  0  0  0  0
   -0.4935   -2.9859    5.2760 C   0  0  0  0  0  0  0  0  0  0  0  0
   -1.4789   -2.8689    5.7550 H   0  0  0  0  0  0  0  0  0  0  0  0
    0.0123   -3.7847    5.8419 H   0  0  0  0  0  0  0  0  0  0  0  0
    0.0585   -2.0642    5.5199 H   0  0  0  0  0  0  0  0  0  0  0  0
   -0.6261   -2.1849    2.9917 N   0  0  0  0  0  0  0  0  0  0  0  0
   -0.7237   -2.2601    1.5650 C   0  0  2  0  0  0  0  0  0  0  0  0
    0.1695   -1.1513    1.0687 C   0  0  0  0  0  0  0  0  0  0  0  0
    0.3193   -0.1267    1.7365 O   0  0  0  0  0  0  0  0  0  0  0  0
   -2.1397   -2.0663    1.0750 C   0  0  0  0  0  0  0  0  0  0  0  0
   -0.5717   -1.2606    3.4238 H   0  0  0  0  0  0  0  0  0  0  0  0
   -0.3076   -3.2111    1.2363 H   0  0  0  0  0  0  0  0  0  0  0  0
   -2.5584   -1.1089    1.4061 H   0  0  0  0  0  0  0  0  0  0  0  0
   -2.1682   -2.0790   -0.0197 H   0  0  0  0  0  0  0  0  0  0  0  0
   -2.7965   -2.8601    1.4459 H   0  0  0  0  0  0  0  0  0  0  0  0
    0.7724   -1.3745   -0.1593 N   0  0  0  0  0  0  0  0  0  0  0  0
    0.5614   -2.5964   -0.9244 C   0  0  2  0  0  0  0  0  0  0  0  0
    1.6157   -3.5728   -0.4972 C   0  0  0  0  0  0  0  0  0  0  0  0
    1.8279   -4.5693   -1.1782 O   0  0  0  0  0  0  0  0  0  0  0  0
    0.7345   -2.1771   -2.3796 C   0  0  0  0  0  0  0  0  0  0  0  0
    0.3244   -0.8671   -1.7112 C   0  0  0  0  0  0  0  0  0  0  0  0
    1.5408   -0.3981   -0.9273 C   0  0  0  0  0  0  0  0  0  0  0  0
   -0.4227   -3.0263   -0.7144 H   0  0  0  0  0  0  0  0  0  0  0  0
    0.0120   -2.7078   -3.0110 H   0  0  0  0  0  0  0  0  0  0  0  0
    1.7400   -2.3597   -2.7711 H   0  0  0  0  0  0  0  0  0  0  0  0
    0.0755   -0.1144   -2.4681 H   0  0  0  0  0  0  0  0  0  0  0  0
   -0.5410   -0.9920   -1.0542 H   0  0  0  0  0  0  0  0  0  0  0  0
    2.4811   -0.6014   -1.4471 H   0  0  0  0  0  0  0  0  0  0  0  0
    1.4806    0.6724   -0.7030 H   0  0  0  0  0  0  0  0  0  0  0  0
    2.1874   -2.9688    0.8252 N   0  0  0  0  0  0  0  0  0  0  0  0
    3.3189   -3.5720    1.4922 C   0  0  2  0  0  0  0  0  0  0  0  0
    4.5393   -3.3987    0.5977 C   0  0  0  0  0  0  0  0  0  0  0  0
    4.4612   -3.2125   -0.6149 O   0  0  0  0  0  0  0  0  0  0  0  0
    3.0670   -5.0421    1.7891 C   0  0  0  0  0  0  0  0  0  0  0  0
    1.6873   -2.2233    1.3002 H   0  0  0  0  0  0  0  0  0  0  0  0
    3.4679   -3.0183    2.4256 H   0  0  0  0  0  0  0  0  0  0  0  0
    2.9154   -5.6131    0.8658 H   0  0  0  0  0  0  0  0  0  0  0  0
    3.9134   -5.4904    2.3197 H   0  0  0  0  0  0  0  0  0  0  0  0
    2.1718   -5.1668    2.4079 H   0  0  0  0  0  0  0  0  0  0  0  0
    5.7268   -3.5193    1.3058 N   0  0  0  0  0  0  0  0  0  0  0  0
    7.0232   -3.4069    0.6791 C   0  0  0  0  0  0  0  0  0  0  0  0
    5.6970   -3.6545    2.3121 H   0  0  0  0  0  0  0  0  0  0  0  0
    7.3755   -4.4058    0.3825 H   0  0  0  0  0  0  0  0  0  0  0  0
    6.9453   -2.7662   -0.2117 H   0  0  0  0  0  0  0  0  0  0  0  0
    7.7362   -2.9625    1.3891 H   0  0  0  0  0  0  0  0  0  0  0  0
 18 19  1  0  0  0  0
 19 31  1  0  0  0  0
 19 20  2  0  0  0  0
  8  9  1  0  0  0  0
  9 17  1  0  0  0  0
  9 10  2  0  0  0  0
  1  3  1  0  0  0  0
  1  7  1  0  0  0  0
  1  2  2  0  0  0  0
 32 33  1  0  0  0  0
 33 41  1  0  0  0  0
 33 34  2  0  0  0  0
 21 22  1  0  0  0  0
 22 23  1  0  0  0  0
 18 21  1  0  0  0  0
 17 23  1  0  0  0  0
 17 18  1  0  0  0  0
  8 11  1  0  0  0  0
 32 35  1  0  0  0  0
 41 42  1  0  0  0  0
  7  8  1  0  0  0  0
 31 32  1  0  0  0  0
 22 27  1  0  0  0  0
 22 28  1  0  0  0  0
 21 25  1  0  0  0  0
 21 26  1  0  0  0  0
 23 29  1  0  0  0  0
 23 30  1  0  0  0  0
 18 24  1  0  0  0  0
  3  4  1  0  0  0  0
  3  5  1  0  0  0  0
  3  6  1  0  0  0  0
 11 14  1  0  0  0  0
 11 15  1  0  0  0  0
 11 16  1  0  0  0  0
 35 38  1  0  0  0  0
 35 39  1  0  0  0  0
 35 40  1  0  0  0  0
 42 44  1  0  0  0  0
 42 45  1  0  0  0  0
 42 46  1  0  0  0  0
  8 13  1  0  0  0  0
 32 37  1  0  0  0  0
 31 36  1  0  0  0  0
 41 43  1  0  0  0  0
  7 12  1  0  0  0  0
M  END
$$$$

  -OEChem-05262214473D

 46 46  0     1  0  0  0  0  0999 V2000
   -0.6012   -3.2995    3.8205 C   0  0  0  0  0  0  0  0  0  0  0  0
   -0.6574   -4.4683    3.4568 O   0  0  0  0  0  0  0  0  0  0  0  0
   -0.4935   -2.9859    5.2760 C   0  0  0  0  0  0  0  0  0  0  0  0
   -1.4789   -2.8689    5.7550 H   0  0  0  0  0  0  0  0  0  0  0  0
    0.0123   -3.7847    5.8419 H   0  0  0  0  0  0  0  0  0  0  0  0
    0.0585   -2.0642    5.5199 H   0  0  0  0  0  0  0  0  0  0  0  0
   -0.6261   -2.1849    2.9917 N   0  0  0  0  0  0  0  0  0  0  0  0
   -0.7237   -2.2601    1.5650 C   0  0  2  0  0  0  0  0  0  0  0  0
    0.1695   -1.1513    1.0687 C   0  0  0  0  0  0  0  0  0  0  0  0
    0.3193   -0.1267    1.7365 O   0  0  0  0  0  0  0  0  0  0  0  0
   -2.1397   -2.0663    1.0750 C   0  0  0  0  0  0  0  0  0  0  0  0
   -0.5717   -1.2606    3.4238 H   0  0  0  0  0  0  0  0  0  0  0  0
   -0.3076   -3.2111    1.2363 H   0  0  0  0  0  0  0  0  0  0  0  0
   -2.5584   -1.1089    1.4061 H   0  0  0  0  0  0  0  0  0  0  0  0
   -2.1682   -2.0790   -0.0197 H   0  0  0  0  0  0  0  0  0  0  0  0
   -2.7965   -2.8601    1.4459 H   0  0  0  0  0  0  0  0  0  0  0  0
    0.7724   -1.3745   -0.1593 N   0  0  0  0  0  0  0  0  0  0  0  0
    0.5614   -2.5964   -0.9244 C   0  0  2  0  0  0  0  0  0  0  0  0
    1.6157   -3.5728   -0.4972 C   0  0  0  0  0  0  0  0  0  0  0  0
    2.0234   -4.4091   -1.2948 O   0  0  0  0  0  0  0  0  0  0  0  0
    0.7345   -2.1771   -2.3796 C   0  0  0  0  0  0  0  0  0  0  0  0
    0.3244   -0.8671   -1.7112 C   0  0  0  0  0  0  0  0  0  0  0  0
    1.5408   -0.3981   -0.9273 C   0  0  0  0  0  0  0  0  0  0  0  0
   -0.4227   -3.0263   -0.7144 H   0  0  0  0  0  0  0  0  0  0  0  0
    0.0120   -2.7078   -3.0110 H   0  0  0  0  0  0  0  0  0  0  0  0
    1.7400   -2.3597   -2.7711 H   0  0  0  0  0  0  0  0  0  0  0  0
    0.0755   -0.1144   -2.4681 H   0  0  0  0  0  0  0  0  0  0  0  0
   -0.5410   -0.9920   -1.0542 H   0  0  0  0  0  0  0  0  0  0  0  0
    2.4811   -0.6014   -1.4471 H   0  0  0  0  0  0  0  0  0  0  0  0
    1.4806    0.6724   -0.7030 H   0  0  0  0  0  0  0  0  0  0  0  0
    1.9097   -3.1965    0.9902 N   0  0  0  0  0  0  0  0  0  0  0  0
    2.9678   -3.8477    1.7288 C   0  0  2  0  0  0  0  0  0  0  0  0
    4.2963   -3.4383    1.1068 C   0  0  0  0  0  0  0  0  0  0  0  0
    4.3991   -3.0320   -0.0488 O   0  0  0  0  0  0  0  0  0  0  0  0
    2.8035   -5.3595    1.7139 C   0  0  0  0  0  0  0  0  0  0  0  0
    1.2748   -2.5842    1.4936 H   0  0  0  0  0  0  0  0  0  0  0  0
    2.9137   -3.4719    2.7564 H   0  0  0  0  0  0  0  0  0  0  0  0
    2.8548   -5.7542    0.6927 H   0  0  0  0  0  0  0  0  0  0  0  0
    3.5896   -5.8497    2.2977 H   0  0  0  0  0  0  0  0  0  0  0  0
    1.8348   -5.6504    2.1344 H   0  0  0  0  0  0  0  0  0  0  0  0
    5.3596   -3.6210    1.9799 N   0  0  0  0  0  0  0  0  0  0  0  0
    6.7249   -3.3173    1.6199 C   0  0  0  0  0  0  0  0  0  0  0  0
    5.1796   -3.9447    2.9257 H   0  0  0  0  0  0  0  0  0  0  0  0
    7.2085   -4.2203    1.2189 H   0  0  0  0  0  0  0  0  0  0  0  0
    6.7352   -2.5260    0.8559 H   0  0  0  0  0  0  0  0  0  0  0  0
    7.2712   -2.9740    2.5109 H   0  0  0  0  0  0  0  0  0  0  0  0
 18 19  1  0  0  0  0
 19 31  1  0  0  0  0
 19 20  2  0  0  0  0
  8  9  1  0  0  0  0
  9 17  1  0  0  0  0
  9 10  2  0  0  0  0
  1  3  1  0  0  0  0
  1  7  1  0  0  0  0
  1  2  2  0  0  0  0
 32 33  1  0  0  0  0
 33 41  1  0  0  0  0
 33 34  2  0  0  0  0
 21 22  1  0  0  0  0
 22 23  1  0  0  0  0
 18 21  1  0  0  0  0
 17 23  1  0  0  0  0
 17 18  1  0  0  0  0
  8 11  1  0  0  0  0
 32 35  1  0  0  0  0
 41 42  1  0  0  0  0
  7  8  1  0  0  0  0
 31 32  1  0  0  0  0
 22 27  1  0  0  0  0
 22 28  1  0  0  0  0
 21 25  1  0  0  0  0
 21 26  1  0  0  0  0
 23 29  1  0  0  0  0
 23 30  1  0  0  0  0
 18 24  1  0  0  0  0
  3  4  1  0  0  0  0
  3  5  1  0  0  0  0
  3  6  1  0  0  0  0
 11 14  1  0  0  0  0
 11 15  1  0  0  0  0
 11 16  1  0  0  0  0
 35 38  1  0  0  0  0
 35 39  1  0  0  0  0
 35 40  1  0  0  0  0
 42 44  1  0  0  0  0
 42 45  1  0  0  0  0
 42 46  1  0  0  0  0
  8 13  1  0  0  0  0
 32 37  1  0  0  0  0
 31 36  1  0  0  0  0
 41 43  1  0  0  0  0
  7 12  1  0  0  0  0
M  END
$$$$

  -OEChem-05262214473D

 46 46  0     1  0  0  0  0  0999 V2000
   -0.6012   -3.2995    3.8205 C   0  0  0  0  0  0  0  0  0  0  0  0
   -0.6574   -4.4683    3.4568 O   0  0  0  0  0  0  0  0  0  0  0  0
   -0.4935   -2.9859    5.2760 C   0  0  0  0  0  0  0  0  0  0  0  0
   -1.4789   -2.8689    5.7550 H   0  0  0  0  0  0  0  0  0  0  0  0
    0.0123   -3.7847    5.8419 H   0  0  0  0  0  0  0  0  0  0  0  0
    0.0585   -2.0642    5.5199 H   0  0  0  0  0  0  0  0  0  0  0  0
   -0.6261   -2.1849    2.9917 N   0  0  0  0  0  0  0  0  0  0  0  0
   -0.7237   -2.2601    1.5650 C   0  0  2  0  0  0  0  0  0  0  0  0
    0.1695   -1.1513    1.0687 C   0  0  0  0  0  0  0  0  0  0  0  0
    0.3193   -0.1267    1.7365 O   0  0  0  0  0  0  0  0  0  0  0  0
   -2.1397   -2.0663    1.0750 C   0  0  0  0  0  0  0  0  0  0  0  0
   -0.5717   -1.2606    3.4238 H   0  0  0  0  0  0  0  0  0  0  0  0
   -0.3076   -3.2111    1.2363 H   0  0  0  0  0  0  0  0  0  0  0  0
   -2.5584   -1.1089    1.4061 H   0  0  0  0  0  0  0  0  0  0  0  0
   -2.1682   -2.0790   -0.0197 H   0  0  0  0  0  0  0  0  0  0  0  0
   -2.7965   -2.8601    1.4459 H   0  0  0  0  0  0  0  0  0  0  0  0
    0.7724   -1.3745   -0.1593 N   0  0  0  0  0  0  0  0  0  0  0  0
    0.5614   -2.5964   -0.9244 C   0  0  2  0  0  0  0  0  0  0  0  0
    1.6157   -3.5728   -0.4972 C   0  0  0  0  0  0  0  0  0  0  0  0
    2.2201   -4.2188   -1.3452 O   0  0  0  0  0  0  0  0  0  0  0  0
    0.7345   -2.1771   -2.3796 C   0  0  0  0  0  0  0  0  0  0  0  0
    0.3244   -0.8671   -1.7112 C   0  0  0  0  0  0  0  0  0  0  0  0
    1.5408   -0.3981   -0.9273 C   0  0  0  0  0  0  0  0  0  0  0  0
   -0.4227   -3.0263   -0.7144 H   0  0  0  0  0  0  0  0  0  0  0  0
    0.0120   -2.7078   -3.0110 H   0  0  0  0  0  0  0  0  0  0  0  0
    1.7400   -2.3597   -2.7711 H   0  0  0  0  0  0  0  0  0  0  0  0
    0.0755   -0.1144   -2.4681 H   0  0  0  0  0  0  0  0  0  0  0  0
   -0.5410   -0.9920   -1.0542 H   0  0  0  0  0  0  0  0  0  0  0  0
    2.4811   -0.6014   -1.4471 H   0  0  0  0  0  0  0  0  0  0  0  0
    1.4806    0.6724   -0.7030 H   0  0  0  0  0  0  0  0  0  0  0  0
    1.6304   -3.4669    1.0614 N   0  0  0  0  0  0  0  0  0  0  0  0
    2.6090   -4.1829    1.8480 C   0  0  2  0  0  0  0  0  0  0  0  0
    3.9787   -3.5872    1.5504 C   0  0  0  0  0  0  0  0  0  0  0  0
    4.2303   -2.9653    0.5204 O   0  0  0  0  0  0  0  0  0  0  0  0
    2.5850   -5.6718    1.5391 C   0  0  0  0  0  0  0  0  0  0  0  0
    0.8703   -2.9983    1.5452 H   0  0  0  0  0  0  0  0  0  0  0  0
    2.3561   -4.0113    2.8999 H   0  0  0  0  0  0  0  0  0  0  0  0
    2.8360   -5.8635    0.4895 H   0  0  0  0  0  0  0  0  0  0  0  0
    3.3070   -6.2167    2.1564 H   0  0  0  0  0  0  0  0  0  0  0  0
    1.5910   -6.0925    1.7254 H   0  0  0  0  0  0  0  0  0  0  0  0
    4.8988   -3.8689    2.5506 N   0  0  0  0  0  0  0  0  0  0  0  0
    6.2717   -3.4240    2.4947 C   0  0  0  0  0  0  0  0  0  0  0  0
    4.5978   -4.3749    3.3783 H   0  0  0  0  0  0  0  0  0  0  0  0
    6.8924   -4.2057    2.0324 H   0  0  0  0  0  0  0  0  0  0  0  0
    6.3347   -2.5037    1.8955 H   0  0  0  0  0  0  0  0  0  0  0  0
    6.6337   -3.2235    3.5139 H   0  0  0  0  0  0  0  0  0  0  0  0
 18 19  1  0  0  0  0
 19 31  1  0  0  0  0
 19 20  2  0  0  0  0
  8  9  1  0  0  0  0
  9 17  1  0  0  0  0
  9 10  2  0  0  0  0
  1  3  1  0  0  0  0
  1  7  1  0  0  0  0
  1  2  2  0  0  0  0
 32 33  1  0  0  0  0
 33 41  1  0  0  0  0
 33 34  2  0  0  0  0
 21 22  1  0  0  0  0
 22 23  1  0  0  0  0
 18 21  1  0  0  0  0
 17 23  1  0  0  0  0
 17 18  1  0  0  0  0
  8 11  1  0  0  0  0
 32 35  1  0  0  0  0
 41 42  1  0  0  0  0
  7  8  1  0  0  0  0
 31 32  1  0  0  0  0
 22 27  1  0  0  0  0
 22 28  1  0  0  0  0
 21 25  1  0  0  0  0
 21 26  1  0  0  0  0
 23 29  1  0  0  0  0
 23 30  1  0  0  0  0
 18 24  1  0  0  0  0
  3  4  1  0  0  0  0
  3  5  1  0  0  0  0
  3  6  1  0  0  0  0
 11 14  1  0  0  0  0
 11 15  1  0  0  0  0
 11 16  1  0  0  0  0
 35 38  1  0  0  0  0
 35 39  1  0  0  0  0
 35 40  1  0  0  0  0
 42 44  1  0  0  0  0
 42 45  1  0  0  0  0
 42 46  1  0  0  0  0
  8 13  1  0  0  0  0
 32 37  1  0  0  0  0
 31 36  1  0  0  0  0
 41 43  1  0  0  0  0
  7 12  1  0  0  0  0
M  END
$$$$

  -OEChem-05262214473D

 46 46  0     1  0  0  0  0  0999 V2000
   -0.6012   -3.2995    3.8205 C   0  0  0  0  0  0  0  0  0  0  0  0
   -0.6574   -4.4683    3.4568 O   0  0  0  0  0  0  0  0  0  0  0  0
   -0.4935   -2.9859    5.2760 C   0  0  0  0  0  0  0  0  0  0  0  0
   -1.4789   -2.8689    5.7550 H   0  0  0  0  0  0  0  0  0  0  0  0
    0.0123   -3.7847    5.8419 H   0  0  0  0  0  0  0  0  0  0  0  0
    0.0585   -2.0642    5.5199 H   0  0  0  0  0  0  0  0  0  0  0  0
   -0.6261   -2.1849    2.9917 N   0  0  0  0  0  0  0  0  0  0  0  0
   -0.7237   -2.2601    1.5650 C   0  0  2  0  0  0  0  0  0  0  0  0
    0.1695   -1.1513    1.0687 C   0  0  0  0  0  0  0  0  0  0  0  0
    0.3193   -0.1267    1.7365 O   0  0  0  0  0  0  0  0  0  0  0  0
   -2.1397   -2.0663    1.0750 C   0  0  0  0  0  0  0  0  0  0  0  0
   -0.5717   -1.2606    3.4238 H   0  0  0  0  0  0  0  0  0  0  0  0
   -0.3076   -3.2111    1.2363 H   0  0  0  0  0  0  0  0  0  0  0  0
   -2.5584   -1.1089    1.4061 H   0  0  0  0  0  0  0  0  0  0  0  0
   -2.1682   -2.0790   -0.0197 H   0  0  0  0  0  0  0  0  0  0  0  0
   -2.7965   -2.8601    1.4459 H   0  0  0  0  0  0  0  0  0  0  0  0
    0.7724   -1.3745   -0.1593 N   0  0  0  0  0  0  0  0  0  0  0  0
    0.5614   -2.5964   -0.9244 C   0  0  2  0  0  0  0  0  0  0  0  0
    1.6157   -3.5728   -0.4972 C   0  0  0  0  0  0  0  0  0  0  0  0
    2.4046   -4.0113   -1.3261 O   0  0  0  0  0  0  0  0  0  0  0  0
    0.7345   -2.1771   -2.3796 C   0  0  0  0  0  0  0  0  0  0  0  0
    0.3244   -0.8671   -1.7112 C   0  0  0  0  0  0  0  0  0  0  0  0
    1.5408   -0.3981   -0.9273 C   0  0  0  0  0  0  0  0  0  0  0  0
   -0.4227   -3.0263   -0.7144 H   0  0  0  0  0  0  0  0  0  0  0  0
    0.0120   -2.7078   -3.0110 H   0  0  0  0  0  0  0  0  0  0  0  0
    1.7400   -2.3597   -2.7711 H   0  0  0  0  0  0  0  0  0  0  0  0
    0.0755   -0.1144   -2.4681 H   0  0  0  0  0  0  0  0  0  0  0  0
   -0.5410   -0.9920   -1.0542 H   0  0  0  0  0  0  0  0  0  0  0  0
    2.4811   -0.6014   -1.4471 H   0  0  0  0  0  0  0  0  0  0  0  0
    1.4806    0.6724   -0.7030 H   0  0  0  0  0  0  0  0  0  0  0  0
    1.3686   -3.7617    1.0338 N   0  0  0  0  0  0  0  0  0  0  0  0
    2.2671   -4.5549    1.8416 C   0  0  2  0  0  0  0  0  0  0  0  0
    3.6081   -3.8352    1.8982 C   0  0  0  0  0  0  0  0  0  0  0  0
    3.9664   -3.0168    1.0539 O   0  0  0  0  0  0  0  0  0  0  0  0
    2.4265   -5.9578    1.2766 C   0  0  0  0  0  0  0  0  0  0  0  0
    0.5015   -3.4376    1.4514 H   0  0  0  0  0  0  0  0  0  0  0  0
    1.8331   -4.5994    2.8464 H   0  0  0  0  0  0  0  0  0  0  0  0
    2.8600   -5.9335    0.2702 H   0  0  0  0  0  0  0  0  0  0  0  0
    3.0849   -6.5663    1.9054 H   0  0  0  0  0  0  0  0  0  0  0  0
    1.4571   -6.4632    1.2088 H   0  0  0  0  0  0  0  0  0  0  0  0
    4.3757   -4.2463    2.9790 N   0  0  0  0  0  0  0  0  0  0  0  0
    5.6943   -3.7198    3.2439 C   0  0  0  0  0  0  0  0  0  0  0  0
    3.9913   -4.9157    3.6391 H   0  0  0  0  0  0  0  0  0  0  0  0
    6.4490   -4.3629    2.7676 H   0  0  0  0  0  0  0  0  0  0  0  0
    5.7709   -2.7010    2.8361 H   0  0  0  0  0  0  0  0  0  0  0  0
    5.8673   -3.6941    4.3299 H   0  0  0  0  0  0  0  0  0  0  0  0
 18 19  1  0  0  0  0
 19 31  1  0  0  0  0
 19 20  2  0  0  0  0
  8  9  1  0  0  0  0
  9 17  1  0  0  0  0
  9 10  2  0  0  0  0
  1  3  1  0  0  0  0
  1  7  1  0  0  0  0
  1  2  2  0  0  0  0
 32 33  1  0  0  0  0
 33 41  1  0  0  0  0
 33 34  2  0  0  0  0
 21 22  1  0  0  0  0
 22 23  1  0  0  0  0
 18 21  1  0  0  0  0
 17 23  1  0  0  0  0
 17 18  1  0  0  0  0
  8 11  1  0  0  0  0
 32 35  1  0  0  0  0
 41 42  1  0  0  0  0
  7  8  1  0  0  0  0
 31 32  1  0  0  0  0
 22 27  1  0  0  0  0
 22 28  1  0  0  0  0
 21 25  1  0  0  0  0
 21 26  1  0  0  0  0
 23 29  1  0  0  0  0
 23 30  1  0  0  0  0
 18 24  1  0  0  0  0
  3  4  1  0  0  0  0
  3  5  1  0  0  0  0
  3  6  1  0  0  0  0
 11 14  1  0  0  0  0
 11 15  1  0  0  0  0
 11 16  1  0  0  0  0
 35 38  1  0  0  0  0
 35 39  1  0  0  0  0
 35 40  1  0  0  0  0
 42 44  1  0  0  0  0
 42 45  1  0  0  0  0
 42 46  1  0  0  0  0
  8 13  1  0  0  0  0
 32 37  1  0  0  0  0
 31 36  1  0  0  0  0
 41 43  1  0  0  0  0
  7 12  1  0  0  0  0
M  END
$$$$

  -OEChem-05262214473D

 46 46  0     1  0  0  0  0  0999 V2000
   -0.6012   -3.2995    3.8205 C   0  0  0  0  0  0  0  0  0  0  0  0
   -0.6574   -4.4683    3.4568 O   0  0  0  0  0  0  0  0  0  0  0  0
   -0.4935   -2.9859    5.2760 C   0  0  0  0  0  0  0  0  0  0  0  0
   -1.4789   -2.8689    5.7550 H   0  0  0  0  0  0  0  0  0  0  0  0
    0.0123   -3.7847    5.8419 H   0  0  0  0  0  0  0  0  0  0  0  0
    0.0585   -2.0642    5.5199 H   0  0  0  0  0  0  0  0  0  0  0  0
   -0.6261   -2.1849    2.9917 N   0  0  0  0  0  0  0  0  0  0  0  0
   -0.7237   -2.2601    1.5650 C   0  0  2  0  0  0  0  0  0  0  0  0
    0.1695   -1.1513    1.0687 C   0  0  0  0  0  0  0  0  0  0  0  0
    0.3193   -0.1267    1.7365 O   0  0  0  0  0  0  0  0  0  0  0  0
   -2.1397   -2.0663    1.0750 C   0  0  0  0  0  0  0  0  0  0  0  0
   -0.5717   -1.2606    3.4238 H   0  0  0  0  0  0  0  0  0  0  0  0
   -0.3076   -3.2111    1.2363 H   0  0  0  0  0  0  0  0  0  0  0  0
   -2.5584   -1.1089    1.4061 H   0  0  0  0  0  0  0  0  0  0  0  0
   -2.1682   -2.0790   -0.0197 H   0  0  0  0  0  0  0  0  0  0  0  0
   -2.7965   -2.8601    1.4459 H   0  0  0  0  0  0  0  0  0  0  0  0
    0.7724   -1.3745   -0.1593 N   0  0  0  0  0  0  0  0  0  0  0  0
    0.5614   -2.5964   -0.9244 C   0  0  2  0  0  0  0  0  0  0  0  0
    1.6157   -3.5728   -0.4972 C   0  0  0  0  0  0  0  0  0  0  0  0
    2.5642   -3.8007   -1.2389 O   0  0  0  0  0  0  0  0  0  0  0  0
    0.7345   -2.1771   -2.3796 C   0  0  0  0  0  0  0  0  0  0  0  0
    0.3244   -0.8671   -1.7112 C   0  0  0  0  0  0  0  0  0  0  0  0
    1.5408   -0.3981   -0.9273 C   0  0  0  0  0  0  0  0  0  0  0  0
   -0.4227   -3.0263   -0.7144 H   0  0  0  0  0  0  0  0  0  0  0  0
    0.0120   -2.7078   -3.0110 H   0  0  0  0  0  0  0  0  0  0  0  0
    1.7400   -2.3597   -2.7711 H   0  0  0  0  0  0  0  0  0  0  0  0
    0.0755   -0.1144   -2.4681 H   0  0  0  0  0  0  0  0  0  0  0  0
   -0.5410   -0.9920   -1.0542 H   0  0  0  0  0  0  0  0  0  0  0  0
    2.4811   -0.6014   -1.4471 H   0  0  0  0  0  0  0  0  0  0  0  0
    1.4806    0.6724   -0.7030 H   0  0  0  0  0  0  0  0  0  0  0  0
    1.1421   -4.0607    0.9093 N   0  0  0  0  0  0  0  0  0  0  0  0
    1.9653   -4.9383    1.7101 C   0  0  2  0  0  0  0  0  0  0  0  0
    3.2098   -4.1654    2.1266 C   0  0  0  0  0  0  0  0  0  0  0  0
    3.6253   -3.1832    1.5153 O   0  0  0  0  0  0  0  0  0  0  0  0
    2.3388   -6.1980    0.9443 C   0  0  0  0  0  0  0  0  0  0  0  0
    0.1934   -3.8720    1.2188 H   0  0  0  0  0  0  0  0  0  0  0  0
    1.3802   -5.1964    2.5995 H   0  0  0  0  0  0  0  0  0  0  0  0
    2.9254   -5.9593    0.0497 H   0  0  0  0  0  0  0  0  0  0  0  0
    2.9384   -6.8747    1.5619 H   0  0  0  0  0  0  0  0  0  0  0  0
    1.4421   -6.7370    0.6197 H   0  0  0  0  0  0  0  0  0  0  0  0
    3.8261   -4.7273    3.2359 N   0  0  0  0  0  0  0  0  0  0  0  0
    5.0321   -4.1844    3.8163 C   0  0  0  0  0  0  0  0  0  0  0  0
    3.4013   -5.5303    3.6903 H   0  0  0  0  0  0  0  0  0  0  0  0
    5.9083   -4.6813    3.3743 H   0  0  0  0  0  0  0  0  0  0  0  0
    5.0823   -3.1044    3.6138 H   0  0  0  0  0  0  0  0  0  0  0  0
    5.0242   -4.3537    4.9032 H   0  0  0  0  0  0  0  0  0  0  0  0
 18 19  1  0  0  0  0
 19 31  1  0  0  0  0
 19 20  2  0  0  0  0
  8  9  1  0  0  0  0
  9 17  1  0  0  0  0
  9 10  2  0  0  0  0
  1  3  1  0  0  0  0
  1  7  1  0  0  0  0
  1  2  2  0  0  0  0
 32 33  1  0  0  0  0
 33 41  1  0  0  0  0
 33 34  2  0  0  0  0
 21 22  1  0  0  0  0
 22 23  1  0  0  0  0
 18 21  1  0  0  0  0
 17 23  1  0  0  0  0
 17 18  1  0  0  0  0
  8 11  1  0  0  0  0
 32 35  1  0  0  0  0
 41 42  1  0  0  0  0
  7  8  1  0  0  0  0
 31 32  1  0  0  0  0
 22 27  1  0  0  0  0
 22 28  1  0  0  0  0
 21 25  1  0  0  0  0
 21 26  1  0  0  0  0
 23 29  1  0  0  0  0
 23 30  1  0  0  0  0
 18 24  1  0  0  0  0
  3  4  1  0  0  0  0
  3  5  1  0  0  0  0
  3  6  1  0  0  0  0
 11 14  1  0  0  0  0
 11 15  1  0  0  0  0
 11 16  1  0  0  0  0
 35 38  1  0  0  0  0
 35 39  1  0  0  0  0
 35 40  1  0  0  0  0
 42 44  1  0  0  0  0
 42 45  1  0  0  0  0
 42 46  1  0  0  0  0
  8 13  1  0  0  0  0
 32 37  1  0  0  0  0
 31 36  1  0  0  0  0
 41 43  1  0  0  0  0
  7 12  1  0  0  0  0
M  END
$$$$

  -OEChem-05262214473D

 46 46  0     1  0  0  0  0  0999 V2000
   -0.6012   -3.2995    3.8205 C   0  0  0  0  0  0  0  0  0  0  0  0
   -0.6574   -4.4683    3.4568 O   0  0  0  0  0  0  0  0  0  0  0  0
   -0.4935   -2.9859    5.2760 C   0  0  0  0  0  0  0  0  0  0  0  0
   -1.4789   -2.8689    5.7550 H   0  0  0  0  0  0  0  0  0  0  0  0
    0.0123   -3.7847    5.8419 H   0  0  0  0  0  0  0  0  0  0  0  0
    0.0585   -2.0642    5.5199 H   0  0  0  0  0  0  0  0  0  0  0  0
   -0.6261   -2.1849    2.9917 N   0  0  0  0  0  0  0  0  0  0  0  0
   -0.7237   -2.2601    1.5650 C   0  0  2  0  0  0  0  0  0  0  0  0
    0.1695   -1.1513    1.0687 C   0  0  0  0  0  0  0  0  0  0  0  0
    0.3193   -0.1267    1.7365 O   0  0  0  0  0  0  0  0  0  0  0  0
   -2.1397   -2.0663    1.0750 C   0  0  0  0  0  0  0  0  0  0  0  0
   -0.5717   -1.2606    3.4238 H   0  0  0  0  0  0  0  0  0  0  0  0
   -0.3076   -3.2111    1.2363 H   0  0  0  0  0  0  0  0  0  0  0  0
   -2.5584   -1.1089    1.4061 H   0  0  0  0  0  0  0  0  0  0  0  0
   -2.1682   -2.0790   -0.0197 H   0  0  0  0  0  0  0  0  0  0  0  0
   -2.7965   -2.8601    1.4459 H   0  0  0  0  0  0  0  0  0  0  0  0
    0.7724   -1.3745   -0.1593 N   0  0  0  0  0  0  0  0  0  0  0  0
    0.5614   -2.5964   -0.9244 C   0  0  2  0  0  0  0  0  0  0  0  0
    1.6157   -3.5728   -0.4972 C   0  0  0  0  0  0  0  0  0  0  0  0
    2.6882   -3.6014   -1.0893 O   0  0  0  0  0  0  0  0  0  0  0  0
    0.7345   -2.1771   -2.3796 C   0  0  0  0  0  0  0  0  0  0  0  0
    0.3244   -0.8671   -1.7112 C   0  0  0  0  0  0  0  0  0  0  0  0
    1.5408   -0.3981   -0.9273 C   0  0  0  0  0  0  0  0  0  0  0  0
   -0.4227   -3.0263   -0.7144 H   0  0  0  0  0  0  0  0  0  0  0  0
    0.0120   -2.7078   -3.0110 H   0  0  0  0  0  0  0  0  0  0  0  0
    1.7400   -2.3597   -2.7711 H   0  0  0  0  0  0  0  0  0  0  0  0
    0.0755   -0.1144   -2.4681 H   0  0  0  0  0  0  0  0  0  0  0  0
   -0.5410   -0.9920   -1.0542 H   0  0  0  0  0  0  0  0  0  0  0  0
    2.4811   -0.6014   -1.4471 H   0  0  0  0  0  0  0  0  0  0  0  0
    1.4806    0.6724   -0.7030 H   0  0  0  0  0  0  0  0  0  0  0  0
    0.9664   -4.3436    0.6965 N   0  0  0  0  0  0  0  0  0  0  0  0
    1.7243   -5.3069    1.4624 C   0  0  2  0  0  0  0  0  0  0  0  0
    2.8109   -4.5553    2.2200 C   0  0  0  0  0  0  0  0  0  0  0  0
    3.2304   -3.4531    1.8733 O   0  0  0  0  0  0  0  0  0  0  0  0
    2.3277   -6.3759    0.5647 C   0  0  0  0  0  0  0  0  0  0  0  0
   -0.0329   -4.2721    0.8630 H   0  0  0  0  0  0  0  0  0  0  0  0
    1.0285   -5.7615    2.1760 H   0  0  0  0  0  0  0  0  0  0  0  0
    3.0276   -5.9394   -0.1570 H   0  0  0  0  0  0  0  0  0  0  0  0
    2.8776   -7.1208    1.1494 H   0  0  0  0  0  0  0  0  0  0  0  0
    1.5472   -6.8954   -0.0016 H   0  0  0  0  0  0  0  0  0  0  0  0
    3.2874   -5.2793    3.3039 N   0  0  0  0  0  0  0  0  0  0  0  0
    4.3302   -4.7862    4.1730 C   0  0  0  0  0  0  0  0  0  0  0  0
    2.8681   -6.1768    3.5285 H   0  0  0  0  0  0  0  0  0  0  0  0
    5.3072   -5.1392    3.8113 H   0  0  0  0  0  0  0  0  0  0  0  0
    4.3158   -3.6863    4.1754 H   0  0  0  0  0  0  0  0  0  0  0  0
    4.1618   -5.1573    5.1948 H   0  0  0  0  0  0  0  0  0  0  0  0
 18 19  1  0  0  0  0
 19 31  1  0  0  0  0
 19 20  2  0  0  0  0
  8  9  1  0  0  0  0
  9 17  1  0  0  0  0
  9 10  2  0  0  0  0
  1  3  1  0  0  0  0
  1  7  1  0  0  0  0
  1  2  2  0  0  0  0
 32 33  1  0  0  0  0
 33 41  1  0  0  0  0
 33 34  2  0  0  0  0
 21 22  1  0  0  0  0
 22 23  1  0  0  0  0
 18 21  1  0  0  0  0
 17 23  1  0  0  0  0
 17 18  1  0  0  0  0
  8 11  1  0  0  0  0
 32 35  1  0  0  0  0
 41 42  1  0  0  0  0
  7  8  1  0  0  0  0
 31 32  1  0  0  0  0
 22 27  1  0  0  0  0
 22 28  1  0  0  0  0
 21 25  1  0  0  0  0
 21 26  1  0  0  0  0
 23 29  1  0  0  0  0
 23 30  1  0  0  0  0
 18 24  1  0  0  0  0
  3  4  1  0  0  0  0
  3  5  1  0  0  0  0
  3  6  1  0  0  0  0
 11 14  1  0  0  0  0
 11 15  1  0  0  0  0
 11 16  1  0  0  0  0
 35 38  1  0  0  0  0
 35 39  1  0  0  0  0
 35 40  1  0  0  0  0
 42 44  1  0  0  0  0
 42 45  1  0  0  0  0
 42 46  1  0  0  0  0
  8 13  1  0  0  0  0
 32 37  1  0  0  0  0
 31 36  1  0  0  0  0
 41 43  1  0  0  0  0
  7 12  1  0  0  0  0
M  END
$$$$

  -OEChem-05262214473D

 46 46  0     1  0  0  0  0  0999 V2000
   -0.6012   -3.2995    3.8205 C   0  0  0  0  0  0  0  0  0  0  0  0
   -0.6574   -4.4683    3.4568 O   0  0  0  0  0  0  0  0  0  0  0  0
   -0.4935   -2.9859    5.2760 C   0  0  0  0  0  0  0  0  0  0  0  0
   -1.4789   -2.8689    5.7550 H   0  0  0  0  0  0  0  0  0  0  0  0
    0.0123   -3.7847    5.8419 H   0  0  0  0  0  0  0  0  0  0  0  0
    0.0585   -2.0642    5.5199 H   0  0  0  0  0  0  0  0  0  0  0  0
   -0.6261   -2.1849    2.9917 N   0  0  0  0  0  0  0  0  0  0  0  0
   -0.7237   -2.2601    1.5650 C   0  0  2  0  0  0  0  0  0  0  0  0
    0.1695   -1.1513    1.0687 C   0  0  0  0  0  0  0  0  0  0  0  0
    0.3193   -0.1267    1.7365 O   0  0  0  0  0  0  0  0  0  0  0  0
   -2.1397   -2.0663    1.0750 C   0  0  0  0  0  0  0  0  0  0  0  0
   -0.5717   -1.2606    3.4238 H   0  0  0  0  0  0  0  0  0  0  0  0
   -0.3076   -3.2111    1.2363 H   0  0  0  0  0  0  0  0  0  0  0  0
   -2.5584   -1.1089    1.4061 H   0  0  0  0  0  0  0  0  0  0  0  0
   -2.1682   -2.0790   -0.0197 H   0  0  0  0  0  0  0  0  0  0  0  0
   -2.7965   -2.8601    1.4459 H   0  0  0  0  0  0  0  0  0  0  0  0
    0.7724   -1.3745   -0.1593 N   0  0  0  0  0  0  0  0  0  0  0  0
    0.5614   -2.5964   -0.9244 C   0  0  2  0  0  0  0  0  0  0  0  0
    1.6157   -3.5728   -0.4972 C   0  0  0  0  0  0  0  0  0  0  0  0
    2.7681   -3.4270   -0.8876 O   0  0  0  0  0  0  0  0  0  0  0  0
    0.7345   -2.1771   -2.3796 C   0  0  0  0  0  0  0  0  0  0  0  0
    0.3244   -0.8671   -1.7112 C   0  0  0  0  0  0  0  0  0  0  0  0
    1.5408   -0.3981   -0.9273 C   0  0  0  0  0  0  0  0  0  0  0  0
   -0.4227   -3.0263   -0.7144 H   0  0  0  0  0  0  0  0  0  0  0  0
    0.0120   -2.7078   -3.0110 H   0  0  0  0  0  0  0  0  0  0  0  0
    1.7400   -2.3597   -2.7711 H   0  0  0  0  0  0  0  0  0  0  0  0
    0.0755   -0.1144   -2.4681 H   0  0  0  0  0  0  0  0  0  0  0  0
   -0.5410   -0.9920   -1.0542 H   0  0  0  0  0  0  0  0  0  0  0  0
    2.4811   -0.6014   -1.4471 H   0  0  0  0  0  0  0  0  0  0  0  0
    1.4806    0.6724   -0.7030 H   0  0  0  0  0  0  0  0  0  0  0  0
    0.8533   -4.5910    0.4098 N   0  0  0  0  0  0  0  0  0  0  0  0
    1.5604   -5.6356    1.1154 C   0  0  2  0  0  0  0  0  0  0  0  0
    2.4386   -4.9783    2.1719 C   0  0  0  0  0  0  0  0  0  0  0  0
    2.8084   -3.8080    2.1033 O   0  0  0  0  0  0  0  0  0  0  0  0
    2.3941   -6.4796    0.1639 C   0  0  0  0  0  0  0  0  0  0  0  0
   -0.1621   -4.6104    0.4084 H   0  0  0  0  0  0  0  0  0  0  0  0
    0.8018   -6.2562    1.6047 H   0  0  0  0  0  0  0  0  0  0  0  0
    3.1598   -5.8749   -0.3358 H   0  0  0  0  0  0  0  0  0  0  0  0
    2.9066   -7.2880    0.6958 H   0  0  0  0  0  0  0  0  0  0  0  0
    1.7651   -6.9275   -0.6129 H   0  0  0  0  0  0  0  0  0  0  0  0
    2.7962   -5.8646    3.1783 N   0  0  0  0  0  0  0  0  0  0  0  0
    3.6365   -5.4842    4.2898 C   0  0  0  0  0  0  0  0  0  0  0  0
    2.4281   -6.8112    3.1646 H   0  0  0  0  0  0  0  0  0  0  0  0
    4.6867   -5.7053    4.0487 H   0  0  0  0  0  0  0  0  0  0  0  0
    3.5236   -4.4072    4.4828 H   0  0  0  0  0  0  0  0  0  0  0  0
    3.3388   -6.0503    5.1848 H   0  0  0  0  0  0  0  0  0  0  0  0
 18 19  1  0  0  0  0
 19 31  1  0  0  0  0
 19 20  2  0  0  0  0
  8  9  1  0  0  0  0
  9 17  1  0  0  0  0
  9 10  2  0  0  0  0
  1  3  1  0  0  0  0
  1  7  1  0  0  0  0
  1  2  2  0  0  0  0
 32 33  1  0  0  0  0
 33 41  1  0  0  0  0
 33 34  2  0  0  0  0
 21 22  1  0  0  0  0
 22 23  1  0  0  0  0
 18 21  1  0  0  0  0
 17 23  1  0  0  0  0
 17 18  1  0  0  0  0
  8 11  1  0  0  0  0
 32 35  1  0  0  0  0
 41 42  1  0  0  0  0
  7  8  1  0  0  0  0
 31 32  1  0  0  0  0
 22 27  1  0  0  0  0
 22 28  1  0  0  0  0
 21 25  1  0  0  0  0
 21 26  1  0  0  0  0
 23 29  1  0  0  0  0
 23 30  1  0  0  0  0
 18 24  1  0  0  0  0
  3  4  1  0  0  0  0
  3  5  1  0  0  0  0
  3  6  1  0  0  0  0
 11 14  1  0  0  0  0
 11 15  1  0  0  0  0
 11 16  1  0  0  0  0
 35 38  1  0  0  0  0
 35 39  1  0  0  0  0
 35 40  1  0  0  0  0
 42 44  1  0  0  0  0
 42 45  1  0  0  0  0
 42 46  1  0  0  0  0
  8 13  1  0  0  0  0
 32 37  1  0  0  0  0
 31 36  1  0  0  0  0
 41 43  1  0  0  0  0
  7 12  1  0  0  0  0
M  END
$$$$

  -OEChem-05262214473D

 46 46  0     1  0  0  0  0  0999 V2000
   -0.6012   -3.2995    3.8205 C   0  0  0  0  0  0  0  0  0  0  0  0
   -0.6574   -4.4683    3.4568 O   0  0  0  0  0  0  0  0  0  0  0  0
   -0.4935   -2.9859    5.2760 C   0  0  0  0  0  0  0  0  0  0  0  0
   -1.4789   -2.8689    5.7550 H   0  0  0  0  0  0  0  0  0  0  0  0
    0.0123   -3.7847    5.8419 H   0  0  0  0  0  0  0  0  0  0  0  0
    0.0585   -2.0642    5.5199 H   0  0  0  0  0  0  0  0  0  0  0  0
   -0.6261   -2.1849    2.9917 N   0  0  0  0  0  0  0  0  0  0  0  0
   -0.7237   -2.2601    1.5650 C   0  0  2  0  0  0  0  0  0  0  0  0
    0.1695   -1.1513    1.0687 C   0  0  0  0  0  0  0  0  0  0  0  0
    0.3193   -0.1267    1.7365 O   0  0  0  0  0  0  0  0  0  0  0  0
   -2.1397   -2.0663    1.0750 C   0  0  0  0  0  0  0  0  0  0  0  0
   -0.5717   -1.2606    3.4238 H   0  0  0  0  0  0  0  0  0  0  0  0
   -0.3076   -3.2111    1.2363 H   0  0  0  0  0  0  0  0  0  0  0  0
   -2.5584   -1.1089    1.4061 H   0  0  0  0  0  0  0  0  0  0  0  0
   -2.1682   -2.0790   -0.0197 H   0  0  0  0  0  0  0  0  0  0  0  0
   -2.7965   -2.8601    1.4459 H   0  0  0  0  0  0  0  0  0  0  0  0
    0.7724   -1.3745   -0.1593 N   0  0  0  0  0  0  0  0  0  0  0  0
    0.5614   -2.5964   -0.9244 C   0  0  2  0  0  0  0  0  0  0  0  0
    1.6157   -3.5728   -0.4972 C   0  0  0  0  0  0  0  0  0  0  0  0
    2.7983   -3.2893   -0.6477 O   0  0  0  0  0  0  0  0  0  0  0  0
    0.7345   -2.1771   -2.3796 C   0  0  0  0  0  0  0  0  0  0  0  0
    0.3244   -0.8671   -1.7112 C   0  0  0  0  0  0  0  0  0  0  0  0
    1.5408   -0.3981   -0.9273 C   0  0  0  0  0  0  0  0  0  0  0  0
   -0.4227   -3.0263   -0.7144 H   0  0  0  0  0  0  0  0  0  0  0  0
    0.0120   -2.7078   -3.0110 H   0  0  0  0  0  0  0  0  0  0  0  0
    1.7400   -2.3597   -2.7711 H   0  0  0  0  0  0  0  0  0  0  0  0
    0.0755   -0.1144   -2.4681 H   0  0  0  0  0  0  0  0  0  0  0  0
   -0.5410   -0.9920   -1.0542 H   0  0  0  0  0  0  0  0  0  0  0  0
    2.4811   -0.6014   -1.4471 H   0  0  0  0  0  0  0  0  0  0  0  0
    1.4806    0.6724   -0.7030 H   0  0  0  0  0  0  0  0  0  0  0  0
    0.8107   -4.7862    0.0688 N   0  0  0  0  0  0  0  0  0  0  0  0
    1.4848   -5.9021    0.6928 C   0  0  2  0  0  0  0  0  0  0  0  0
    2.1183   -5.4056    1.9857 C   0  0  0  0  0  0  0  0  0  0  0  0
    2.3883   -4.2239    2.1898 O   0  0  0  0  0  0  0  0  0  0  0  0
    2.5335   -6.5018   -0.2310 C   0  0  0  0  0  0  0  0  0  0  0  0
   -0.1852   -4.8639   -0.1141 H   0  0  0  0  0  0  0  0  0  0  0  0
    0.7156   -6.6467    0.9247 H   0  0  0  0  0  0  0  0  0  0  0  0
    3.3128   -5.7704   -0.4745 H   0  0  0  0  0  0  0  0  0  0  0  0
    3.0234   -7.3647    0.2321 H   0  0  0  0  0  0  0  0  0  0  0  0
    2.0810   -6.8312   -1.1725 H   0  0  0  0  0  0  0  0  0  0  0  0
    2.3862   -6.4432    2.8677 N   0  0  0  0  0  0  0  0  0  0  0  0
    2.9982   -6.2308    4.1585 C   0  0  0  0  0  0  0  0  0  0  0  0
    2.1112   -7.3901    2.6235 H   0  0  0  0  0  0  0  0  0  0  0  0
    4.0891   -6.3412    4.0703 H   0  0  0  0  0  0  0  0  0  0  0  0
    2.7598   -5.2179    4.5150 H   0  0  0  0  0  0  0  0  0  0  0  0
    2.6115   -6.9717    4.8738 H   0  0  0  0  0  0  0  0  0  0  0  0
 18 19  1  0  0  0  0
 19 31  1  0  0  0  0
 19 20  2  0  0  0  0
  8  9  1  0  0  0  0
  9 17  1  0  0  0  0
  9 10  2  0  0  0  0
  1  3  1  0  0  0  0
  1  7  1  0  0  0  0
  1  2  2  0  0  0  0
 32 33  1  0  0  0  0
 33 41  1  0  0  0  0
 33 34  2  0  0  0  0
 21 22  1  0  0  0  0
 22 23  1  0  0  0  0
 18 21  1  0  0  0  0
 17 23  1  0  0  0  0
 17 18  1  0  0  0  0
  8 11  1  0  0  0  0
 32 35  1  0  0  0  0
 41 42  1  0  0  0  0
  7  8  1  0  0  0  0
 31 32  1  0  0  0  0
 22 27  1  0  0  0  0
 22 28  1  0  0  0  0
 21 25  1  0  0  0  0
 21 26  1  0  0  0  0
 23 29  1  0  0  0  0
 23 30  1  0  0  0  0
 18 24  1  0  0  0  0
  3  4  1  0  0  0  0
  3  5  1  0  0  0  0
  3  6  1  0  0  0  0
 11 14  1  0  0  0  0
 11 15  1  0  0  0  0
 11 16  1  0  0  0  0
 35 38  1  0  0  0  0
 35 39  1  0  0  0  0
 35 40  1  0  0  0  0
 42 44  1  0  0  0  0
 42 45  1  0  0  0  0
 42 46  1  0  0  0  0
  8 13  1  0  0  0  0
 32 37  1  0  0  0  0
 31 36  1  0  0  0  0
 41 43  1  0  0  0  0
  7 12  1  0  0  0  0
M  END
$$$$

  -OEChem-05262214473D

 46 46  0     1  0  0  0  0  0999 V2000
   -0.6012   -3.2995    3.8205 C   0  0  0  0  0  0  0  0  0  0  0  0
   -0.6574   -4.4683    3.4568 O   0  0  0  0  0  0  0  0  0  0  0  0
   -0.4935   -2.9859    5.2760 C   0  0  0  0  0  0  0  0  0  0  0  0
   -1.4789   -2.8689    5.7550 H   0  0  0  0  0  0  0  0  0  0  0  0
    0.0123   -3.7847    5.8419 H   0  0  0  0  0  0  0  0  0  0  0  0
    0.0585   -2.0642    5.5199 H   0  0  0  0  0  0  0  0  0  0  0  0
   -0.6261   -2.1849    2.9917 N   0  0  0  0  0  0  0  0  0  0  0  0
   -0.7237   -2.2601    1.5650 C   0  0  2  0  0  0  0  0  0  0  0  0
    0.1695   -1.1513    1.0687 C   0  0  0  0  0  0  0  0  0  0  0  0
    0.3193   -0.1267    1.7365 O   0  0  0  0  0  0  0  0  0  0  0  0
   -2.1397   -2.0663    1.0750 C   0  0  0  0  0  0  0  0  0  0  0  0
   -0.5717   -1.2606    3.4238 H   0  0  0  0  0  0  0  0  0  0  0  0
   -0.3076   -3.2111    1.2363 H   0  0  0  0  0  0  0  0  0  0  0  0
   -2.5584   -1.1089    1.4061 H   0  0  0  0  0  0  0  0  0  0  0  0
   -2.1682   -2.0790   -0.0197 H   0  0  0  0  0  0  0  0  0  0  0  0
   -2.7965   -2.8601    1.4459 H   0  0  0  0  0  0  0  0  0  0  0  0
    0.7724   -1.3745   -0.1593 N   0  0  0  0  0  0  0  0  0  0  0  0
    0.5614   -2.5964   -0.9244 C   0  0  2  0  0  0  0  0  0  0  0  0
    1.6157   -3.5728   -0.4972 C   0  0  0  0  0  0  0  0  0  0  0  0
    2.7770   -3.1978   -0.3857 O   0  0  0  0  0  0  0  0  0  0  0  0
    0.7345   -2.1771   -2.3796 C   0  0  0  0  0  0  0  0  0  0  0  0
    0.3244   -0.8671   -1.7112 C   0  0  0  0  0  0  0  0  0  0  0  0
    1.5408   -0.3981   -0.9273 C   0  0  0  0  0  0  0  0  0  0  0  0
   -0.4227   -3.0263   -0.7144 H   0  0  0  0  0  0  0  0  0  0  0  0
    0.0120   -2.7078   -3.0110 H   0  0  0  0  0  0  0  0  0  0  0  0
    1.7400   -2.3597   -2.7711 H   0  0  0  0  0  0  0  0  0  0  0  0
    0.0755   -0.1144   -2.4681 H   0  0  0  0  0  0  0  0  0  0  0  0
   -0.5410   -0.9920   -1.0542 H   0  0  0  0  0  0  0  0  0  0  0  0
    2.4811   -0.6014   -1.4471 H   0  0  0  0  0  0  0  0  0  0  0  0
    1.4806    0.6724   -0.7030 H   0  0  0  0  0  0  0  0  0  0  0  0
    0.8415   -4.9158   -0.3033 N   0  0  0  0  0  0  0  0  0  0  0  0
    1.5027   -6.0882    0.2233 C   0  0  2  0  0  0  0  0  0  0  0  0
    1.8718   -5.8081    1.6741 C   0  0  0  0  0  0  0  0  0  0  0  0
    1.9986   -4.6723    2.1268 O   0  0  0  0  0  0  0  0  0  0  0  0
    2.7364   -6.4411   -0.5929 C   0  0  0  0  0  0  0  0  0  0  0  0
   -0.1008   -5.0155   -0.6688 H   0  0  0  0  0  0  0  0  0  0  0  0
    0.7758   -6.9066    0.1822 H   0  0  0  0  0  0  0  0  0  0  0  0
    3.4762   -5.6329   -0.5637 H   0  0  0  0  0  0  0  0  0  0  0  0
    3.2200   -7.3459   -0.2100 H   0  0  0  0  0  0  0  0  0  0  0  0
    2.4733   -6.6131   -1.6422 H   0  0  0  0  0  0  0  0  0  0  0  0
    2.0851   -6.9759    2.3931 N   0  0  0  0  0  0  0  0  0  0  0  0
    2.4588   -6.9752    3.7882 C   0  0  0  0  0  0  0  0  0  0  0  0
    1.9390   -7.8742    1.9421 H   0  0  0  0  0  0  0  0  0  0  0  0
    3.5551   -7.0033    3.8748 H   0  0  0  0  0  0  0  0  0  0  0  0
    2.0764   -6.0631    4.2697 H   0  0  0  0  0  0  0  0  0  0  0  0
    2.0293   -7.8587    4.2832 H   0  0  0  0  0  0  0  0  0  0  0  0
 18 19  1  0  0  0  0
 19 31  1  0  0  0  0
 19 20  2  0  0  0  0
  8  9  1  0  0  0  0
  9 17  1  0  0  0  0
  9 10  2  0  0  0  0
  1  3  1  0  0  0  0
  1  7  1  0  0  0  0
  1  2  2  0  0  0  0
 32 33  1  0  0  0  0
 33 41  1  0  0  0  0
 33 34  2  0  0  0  0
 21 22  1  0  0  0  0
 22 23  1  0  0  0  0
 18 21  1  0  0  0  0
 17 23  1  0  0  0  0
 17 18  1  0  0  0  0
  8 11  1  0  0  0  0
 32 35  1  0  0  0  0
 41 42  1  0  0  0  0
  7  8  1  0  0  0  0
 31 32  1  0  0  0  0
 22 27  1  0  0  0  0
 22 28  1  0  0  0  0
 21 25  1  0  0  0  0
 21 26  1  0  0  0  0
 23 29  1  0  0  0  0
 23 30  1  0  0  0  0
 18 24  1  0  0  0  0
  3  4  1  0  0  0  0
  3  5  1  0  0  0  0
  3  6  1  0  0  0  0
 11 14  1  0  0  0  0
 11 15  1  0  0  0  0
 11 16  1  0  0  0  0
 35 38  1  0  0  0  0
 35 39  1  0  0  0  0
 35 40  1  0  0  0  0
 42 44  1  0  0  0  0
 42 45  1  0  0  0  0
 42 46  1  0  0  0  0
  8 13  1  0  0  0  0
 32 37  1  0  0  0  0
 31 36  1  0  0  0  0
 41 43  1  0  0  0  0
  7 12  1  0  0  0  0
M  END
$$$$

  -OEChem-05262214473D

 46 46  0     1  0  0  0  0  0999 V2000
   -0.6012   -3.2995    3.8205 C   0  0  0  0  0  0  0  0  0  0  0  0
   -0.6574   -4.4683    3.4568 O   0  0  0  0  0  0  0  0  0  0  0  0
   -0.4935   -2.9859    5.2760 C   0  0  0  0  0  0  0  0  0  0  0  0
   -1.4789   -2.8689    5.7550 H   0  0  0  0  0  0  0  0  0  0  0  0
    0.0123   -3.7847    5.8419 H   0  0  0  0  0  0  0  0  0  0  0  0
    0.0585   -2.0642    5.5199 H   0  0  0  0  0  0  0  0  0  0  0  0
   -0.6261   -2.1849    2.9917 N   0  0  0  0  0  0  0  0  0  0  0  0
   -0.7237   -2.2601    1.5650 C   0  0  2  0  0  0  0  0  0  0  0  0
    0.1695   -1.1513    1.0687 C   0  0  0  0  0  0  0  0  0  0  0  0
    0.3193   -0.1267    1.7365 O   0  0  0  0  0  0  0  0  0  0  0  0
   -2.1397   -2.0663    1.0750 C   0  0  0  0  0  0  0  0  0  0  0  0
   -0.5717   -1.2606    3.4238 H   0  0  0  0  0  0  0  0  0  0  0  0
   -0.3076   -3.2111    1.2363 H   0  0  0  0  0  0  0  0  0  0  0  0
   -2.5584   -1.1089    1.4061 H   0  0  0  0  0  0  0  0  0  0  0  0
   -2.1682   -2.0790   -0.0197 H   0  0  0  0  0  0  0  0  0  0  0  0
   -2.7965   -2.8601    1.4459 H   0  0  0  0  0  0  0  0  0  0  0  0
    0.7724   -1.3745   -0.1593 N   0  0  0  0  0  0  0  0  0  0  0  0
    0.5614   -2.5964   -0.9244 C   0  0  2  0  0  0  0  0  0  0  0  0
    1.6157   -3.5728   -0.4972 C   0  0  0  0  0  0  0  0  0  0  0  0
    2.7054   -3.1586   -0.1196 O   0  0  0  0  0  0  0  0  0  0  0  0
    0.7345   -2.1771   -2.3796 C   0  0  0  0  0  0  0  0  0  0  0  0
    0.3244   -0.8671   -1.7112 C   0  0  0  0  0  0  0  0  0  0  0  0
    1.5408   -0.3981   -0.9273 C   0  0  0  0  0  0  0  0  0  0  0  0
   -0.4227   -3.0263   -0.7144 H   0  0  0  0  0  0  0  0  0  0  0  0
    0.0120   -2.7078   -3.0110 H   0  0  0  0  0  0  0  0  0  0  0  0
    1.7400   -2.3597   -2.7711 H   0  0  0  0  0  0  0  0  0  0  0  0
    0.0755   -0.1144   -2.4681 H   0  0  0  0  0  0  0  0  0  0  0  0
   -0.5410   -0.9920   -1.0542 H   0  0  0  0  0  0  0  0  0  0  0  0
    2.4811   -0.6014   -1.4471 H   0  0  0  0  0  0  0  0  0  0  0  0
    1.4806    0.6724   -0.7030 H   0  0  0  0  0  0  0  0  0  0  0  0
    0.9434   -4.9710   -0.6811 N   0  0  0  0  0  0  0  0  0  0  0  0
    1.6129   -6.1811   -0.2610 C   0  0  2  0  0  0  0  0  0  0  0  0
    1.7159   -6.1583    1.2584 C   0  0  0  0  0  0  0  0  0  0  0  0
    1.6658   -5.1227    1.9186 O   0  0  0  0  0  0  0  0  0  0  0  0
    2.9888   -6.3017   -0.8973 C   0  0  0  0  0  0  0  0  0  0  0  0
    0.0854   -5.0546   -1.2180 H   0  0  0  0  0  0  0  0  0  0  0  0
    0.9782   -7.0180   -0.5721 H   0  0  0  0  0  0  0  0  0  0  0  0
    3.6390   -5.4718   -0.5972 H   0  0  0  0  0  0  0  0  0  0  0  0
    3.4830   -7.2327   -0.6005 H   0  0  0  0  0  0  0  0  0  0  0  0
    2.9154   -6.2879   -1.9901 H   0  0  0  0  0  0  0  0  0  0  0  0
    1.9136   -7.4262    1.7871 N   0  0  0  0  0  0  0  0  0  0  0  0
    2.0552   -7.6666    3.2042 C   0  0  0  0  0  0  0  0  0  0  0  0
    1.9232   -8.2304    1.1667 H   0  0  0  0  0  0  0  0  0  0  0  0
    3.1210   -7.6467    3.4753 H   0  0  0  0  0  0  0  0  0  0  0  0
    1.5200   -6.8853    3.7637 H   0  0  0  0  0  0  0  0  0  0  0  0
    1.6319   -8.6509    3.4530 H   0  0  0  0  0  0  0  0  0  0  0  0
 18 19  1  0  0  0  0
 19 31  1  0  0  0  0
 19 20  2  0  0  0  0
  8  9  1  0  0  0  0
  9 17  1  0  0  0  0
  9 10  2  0  0  0  0
  1  3  1  0  0  0  0
  1  7  1  0  0  0  0
  1  2  2  0  0  0  0
 32 33  1  0  0  0  0
 33 41  1  0  0  0  0
 33 34  2  0  0  0  0
 21 22  1  0  0  0  0
 22 23  1  0  0  0  0
 18 21  1  0  0  0  0
 17 23  1  0  0  0  0
 17 18  1  0  0  0  0
  8 11  1  0  0  0  0
 32 35  1  0  0  0  0
 41 42  1  0  0  0  0
  7  8  1  0  0  0  0
 31 32  1  0  0  0  0
 22 27  1  0  0  0  0
 22 28  1  0  0  0  0
 21 25  1  0  0  0  0
 21 26  1  0  0  0  0
 23 29  1  0  0  0  0
 23 30  1  0  0  0  0
 18 24  1  0  0  0  0
  3  4  1  0  0  0  0
  3  5  1  0  0  0  0
  3  6  1  0  0  0  0
 11 14  1  0  0  0  0
 11 15  1  0  0  0  0
 11 16  1  0  0  0  0
 35 38  1  0  0  0  0
 35 39  1  0  0  0  0
 35 40  1  0  0  0  0
 42 44  1  0  0  0  0
 42 45  1  0  0  0  0
 42 46  1  0  0  0  0
  8 13  1  0  0  0  0
 32 37  1  0  0  0  0
 31 36  1  0  0  0  0
 41 43  1  0  0  0  0
  7 12  1  0  0  0  0
M  END
$$$$

  -OEChem-05262214473D

 46 46  0     1  0  0  0  0  0999 V2000
   -0.6012   -3.2995    3.8205 C   0  0  0  0  0  0  0  0  0  0  0  0
   -0.6574   -4.4683    3.4568 O   0  0  0  0  0  0  0  0  0  0  0  0
   -0.4935   -2.9859    5.2760 C   0  0  0  0  0  0  0  0  0  0  0  0
   -1.4789   -2.8689    5.7550 H   0  0  0  0  0  0  0  0  0  0  0  0
    0.0123   -3.7847    5.8419 H   0  0  0  0  0  0  0  0  0  0  0  0
    0.0585   -2.0642    5.5199 H   0  0  0  0  0  0  0  0  0  0  0  0
   -0.6261   -2.1849    2.9917 N   0  0  0  0  0  0  0  0  0  0  0  0
   -0.7237   -2.2601    1.5650 C   0  0  2  0  0  0  0  0  0  0  0  0
    0.1695   -1.1513    1.0687 C   0  0  0  0  0  0  0  0  0  0  0  0
    0.3193   -0.1267    1.7365 O   0  0  0  0  0  0  0  0  0  0  0  0
   -2.1397   -2.0663    1.0750 C   0  0  0  0  0  0  0  0  0  0  0  0
   -0.5717   -1.2606    3.4238 H   0  0  0  0  0  0  0  0  0  0  0  0
   -0.3076   -3.2111    1.2363 H   0  0  0  0  0  0  0  0  0  0  0  0
   -2.5584   -1.1089    1.4061 H   0  0  0  0  0  0  0  0  0  0  0  0
   -2.1682   -2.0790   -0.0197 H   0  0  0  0  0  0  0  0  0  0  0  0
   -2.7965   -2.8601    1.4459 H   0  0  0  0  0  0  0  0  0  0  0  0
    0.7724   -1.3745   -0.1593 N   0  0  0  0  0  0  0  0  0  0  0  0
    0.5614   -2.5964   -0.9244 C   0  0  2  0  0  0  0  0  0  0  0  0
    1.6157   -3.5728   -0.4972 C   0  0  0  0  0  0  0  0  0  0  0  0
    2.5886   -3.1745    0.1325 O   0  0  0  0  0  0  0  0  0  0  0  0
    0.7345   -2.1771   -2.3796 C   0  0  0  0  0  0  0  0  0  0  0  0
    0.3244   -0.8671   -1.7112 C   0  0  0  0  0  0  0  0  0  0  0  0
    1.5408   -0.3981   -0.9273 C   0  0  0  0  0  0  0  0  0  0  0  0
   -0.4227   -3.0263   -0.7144 H   0  0  0  0  0  0  0  0  0  0  0  0
    0.0120   -2.7078   -3.0110 H   0  0  0  0  0  0  0  0  0  0  0  0
    1.7400   -2.3597   -2.7711 H   0  0  0  0  0  0  0  0  0  0  0  0
    0.0755   -0.1144   -2.4681 H   0  0  0  0  0  0  0  0  0  0  0  0
   -0.5410   -0.9920   -1.0542 H   0  0  0  0  0  0  0  0  0  0  0  0
    2.4811   -0.6014   -1.4471 H   0  0  0  0  0  0  0  0  0  0  0  0
    1.4806    0.6724   -0.7030 H   0  0  0  0  0  0  0  0  0  0  0  0
    1.1097   -4.9480   -1.0389 N   0  0  0  0  0  0  0  0  0  0  0  0
    1.8078   -6.1746   -0.7271 C   0  0  2  0  0  0  0  0  0  0  0  0
    1.6612   -6.4324    0.7667 C   0  0  0  0  0  0  0  0  0  0  0  0
    1.4126   -5.5444    1.5795 O   0  0  0  0  0  0  0  0  0  0  0  0
    3.2737   -6.0929   -1.1234 C   0  0  0  0  0  0  0  0  0  0  0  0
    0.3607   -4.9788   -1.7241 H   0  0  0  0  0  0  0  0  0  0  0  0
    1.3091   -6.9734   -1.2869 H   0  0  0  0  0  0  0  0  0  0  0  0
    3.7900   -5.2981   -0.5728 H   0  0  0  0  0  0  0  0  0  0  0  0
    3.7946   -7.0328   -0.9128 H   0  0  0  0  0  0  0  0  0  0  0  0
    3.3771   -5.8779   -2.1924 H   0  0  0  0  0  0  0  0  0  0  0  0
    1.8833   -7.7635    1.0908 N   0  0  0  0  0  0  0  0  0  0  0  0
    1.8147   -8.2579    2.4461 C   0  0  0  0  0  0  0  0  0  0  0  0
    2.0649   -8.4345    0.3502 H   0  0  0  0  0  0  0  0  0  0  0  0
    2.8166   -8.2275    2.8992 H   0  0  0  0  0  0  0  0  0  0  0  0
    1.1284   -7.6284    3.0316 H   0  0  0  0  0  0  0  0  0  0  0  0
    1.4465   -9.2944    2.4400 H   0  0  0  0  0  0  0  0  0  0  0  0
 18 19  1  0  0  0  0
 19 31  1  0  0  0  0
 19 20  2  0  0  0  0
  8  9  1  0  0  0  0
  9 17  1  0  0  0  0
  9 10  2  0  0  0  0
  1  3  1  0  0  0  0
  1  7  1  0  0  0  0
  1  2  2  0  0  0  0
 32 33  1  0  0  0  0
 33 41  1  0  0  0  0
 33 34  2  0  0  0  0
 21 22  1  0  0  0  0
 22 23  1  0  0  0  0
 18 21  1  0  0  0  0
 17 23  1  0  0  0  0
 17 18  1  0  0  0  0
  8 11  1  0  0  0  0
 32 35  1  0  0  0  0
 41 42  1  0  0  0  0
  7  8  1  0  0  0  0
 31 32  1  0  0  0  0
 22 27  1  0  0  0  0
 22 28  1  0  0  0  0
 21 25  1  0  0  0  0
 21 26  1  0  0  0  0
 23 29  1  0  0  0  0
 23 30  1  0  0  0  0
 18 24  1  0  0  0  0
  3  4  1  0  0  0  0
  3  5  1  0  0  0  0
  3  6  1  0  0  0  0
 11 14  1  0  0  0  0
 11 15  1  0  0  0  0
 11 16  1  0  0  0  0
 35 38  1  0  0  0  0
 35 39  1  0  0  0  0
 35 40  1  0  0  0  0
 42 44  1  0  0  0  0
 42 45  1  0  0  0  0
 42 46  1  0  0  0  0
  8 13  1  0  0  0  0
 32 37  1  0  0  0  0
 31 36  1  0  0  0  0
 41 43  1  0  0  0  0
  7 12  1  0  0  0  0
M  END
$$$$

  -OEChem-05262214473D

 46 46  0     1  0  0  0  0  0999 V2000
   -0.6012   -3.2995    3.8205 C   0  0  0  0  0  0  0  0  0  0  0  0
   -0.6574   -4.4683    3.4568 O   0  0  0  0  0  0  0  0  0  0  0  0
   -0.4935   -2.9859    5.2760 C   0  0  0  0  0  0  0  0  0  0  0  0
   -1.4789   -2.8689    5.7550 H   0  0  0  0  0  0  0  0  0  0  0  0
    0.0123   -3.7847    5.8419 H   0  0  0  0  0  0  0  0  0  0  0  0
    0.0585   -2.0642    5.5199 H   0  0  0  0  0  0  0  0  0  0  0  0
   -0.6261   -2.1849    2.9917 N   0  0  0  0  0  0  0  0  0  0  0  0
   -0.7237   -2.2601    1.5650 C   0  0  2  0  0  0  0  0  0  0  0  0
    0.1695   -1.1513    1.0687 C   0  0  0  0  0  0  0  0  0  0  0  0
    0.3193   -0.1267    1.7365 O   0  0  0  0  0  0  0  0  0  0  0  0
   -2.1397   -2.0663    1.0750 C   0  0  0  0  0  0  0  0  0  0  0  0
   -0.5717   -1.2606    3.4238 H   0  0  0  0  0  0  0  0  0  0  0  0
   -0.3076   -3.2111    1.2363 H   0  0  0  0  0  0  0  0  0  0  0  0
   -2.5584   -1.1089    1.4061 H   0  0  0  0  0  0  0  0  0  0  0  0
   -2.1682   -2.0790   -0.0197 H   0  0  0  0  0  0  0  0  0  0  0  0
   -2.7965   -2.8601    1.4459 H   0  0  0  0  0  0  0  0  0  0  0  0
    0.7724   -1.3745   -0.1593 N   0  0  0  0  0  0  0  0  0  0  0  0
    0.5614   -2.5964   -0.9244 C   0  0  2  0  0  0  0  0  0  0  0  0
    1.6157   -3.5728   -0.4972 C   0  0  0  0  0  0  0  0  0  0  0  0
    2.4344   -3.2444    0.3534 O   0  0  0  0  0  0  0  0  0  0  0  0
    0.7345   -2.1771   -2.3796 C   0  0  0  0  0  0  0  0  0  0  0  0
    0.3244   -0.8671   -1.7112 C   0  0  0  0  0  0  0  0  0  0  0  0
    1.5408   -0.3981   -0.9273 C   0  0  0  0  0  0  0  0  0  0  0  0
   -0.4227   -3.0263   -0.7144 H   0  0  0  0  0  0  0  0  0  0  0  0
    0.0120   -2.7078   -3.0110 H   0  0  0  0  0  0  0  0  0  0  0  0
    1.7400   -2.3597   -2.7711 H   0  0  0  0  0  0  0  0  0  0  0  0
    0.0755   -0.1144   -2.4681 H   0  0  0  0  0  0  0  0  0  0  0  0
   -0.5410   -0.9920   -1.0542 H   0  0  0  0  0  0  0  0  0  0  0  0
    2.4811   -0.6014   -1.4471 H   0  0  0  0  0  0  0  0  0  0  0  0
    1.4806    0.6724   -0.7030 H   0  0  0  0  0  0  0  0  0  0  0  0
    1.3289   -4.8484   -1.3523 N   0  0  0  0  0  0  0  0  0  0  0  0
    2.0741   -6.0690   -1.1433 C   0  0  2  0  0  0  0  0  0  0  0  0
    1.7115   -6.6117    0.2327 C   0  0  0  0  0  0  0  0  0  0  0  0
    1.2564   -5.9086    1.1325 O   0  0  0  0  0  0  0  0  0  0  0  0
    3.5716   -5.8292   -1.2557 C   0  0  0  0  0  0  0  0  0  0  0  0
    0.7064   -4.7931   -2.1529 H   0  0  0  0  0  0  0  0  0  0  0  0
    1.7460   -6.7757   -1.9134 H   0  0  0  0  0  0  0  0  0  0  0  0
    3.9189   -5.1236   -0.4922 H   0  0  0  0  0  0  0  0  0  0  0  0
    4.1335   -6.7600   -1.1255 H   0  0  0  0  0  0  0  0  0  0  0  0
    3.8269   -5.4110   -2.2354 H   0  0  0  0  0  0  0  0  0  0  0  0
    1.9963   -7.9648    0.3517 N   0  0  0  0  0  0  0  0  0  0  0  0
    1.7538   -8.7087    1.5657 C   0  0  0  0  0  0  0  0  0  0  0  0
    2.3545   -8.4726   -0.4517 H   0  0  0  0  0  0  0  0  0  0  0  0
    2.6625   -8.7060    2.1857 H   0  0  0  0  0  0  0  0  0  0  0  0
    0.9284   -8.2418    2.1231 H   0  0  0  0  0  0  0  0  0  0  0  0
    1.4855   -9.7452    1.3131 H   0  0  0  0  0  0  0  0  0  0  0  0
 18 19  1  0  0  0  0
 19 31  1  0  0  0  0
 19 20  2  0  0  0  0
  8  9  1  0  0  0  0
  9 17  1  0  0  0  0
  9 10  2  0  0  0  0
  1  3  1  0  0  0  0
  1  7  1  0  0  0  0
  1  2  2  0  0  0  0
 32 33  1  0  0  0  0
 33 41  1  0  0  0  0
 33 34  2  0  0  0  0
 21 22  1  0  0  0  0
 22 23  1  0  0  0  0
 18 21  1  0  0  0  0
 17 23  1  0  0  0  0
 17 18  1  0  0  0  0
  8 11  1  0  0  0  0
 32 35  1  0  0  0  0
 41 42  1  0  0  0  0
  7  8  1  0  0  0  0
 31 32  1  0  0  0  0
 22 27  1  0  0  0  0
 22 28  1  0  0  0  0
 21 25  1  0  0  0  0
 21 26  1  0  0  0  0
 23 29  1  0  0  0  0
 23 30  1  0  0  0  0
 18 24  1  0  0  0  0
  3  4  1  0  0  0  0
  3  5  1  0  0  0  0
  3  6  1  0  0  0  0
 11 14  1  0  0  0  0
 11 15  1  0  0  0  0
 11 16  1  0  0  0  0
 35 38  1  0  0  0  0
 35 39  1  0  0  0  0
 35 40  1  0  0  0  0
 42 44  1  0  0  0  0
 42 45  1  0  0  0  0
 42 46  1  0  0  0  0
  8 13  1  0  0  0  0
 32 37  1  0  0  0  0
 31 36  1  0  0  0  0
 41 43  1  0  0  0  0
  7 12  1  0  0  0  0
M  END
$$$$

  -OEChem-05262214473D

 46 46  0     1  0  0  0  0  0999 V2000
   -0.6012   -3.2995    3.8205 C   0  0  0  0  0  0  0  0  0  0  0  0
   -0.6574   -4.4683    3.4568 O   0  0  0  0  0  0  0  0  0  0  0  0
   -0.4935   -2.9859    5.2760 C   0  0  0  0  0  0  0  0  0  0  0  0
   -1.4789   -2.8689    5.7550 H   0  0  0  0  0  0  0  0  0  0  0  0
    0.0123   -3.7847    5.8419 H   0  0  0  0  0  0  0  0  0  0  0  0
    0.0585   -2.0642    5.5199 H   0  0  0  0  0  0  0  0  0  0  0  0
   -0.6261   -2.1849    2.9917 N   0  0  0  0  0  0  0  0  0  0  0  0
   -0.7237   -2.2601    1.5650 C   0  0  2  0  0  0  0  0  0  0  0  0
    0.1695   -1.1513    1.0687 C   0  0  0  0  0  0  0  0  0  0  0  0
    0.3193   -0.1267    1.7365 O   0  0  0  0  0  0  0  0  0  0  0  0
   -2.1397   -2.0663    1.0750 C   0  0  0  0  0  0  0  0  0  0  0  0
   -0.5717   -1.2606    3.4238 H   0  0  0  0  0  0  0  0  0  0  0  0
   -0.3076   -3.2111    1.2363 H   0  0  0  0  0  0  0  0  0  0  0  0
   -2.5584   -1.1089    1.4061 H   0  0  0  0  0  0  0  0  0  0  0  0
   -2.1682   -2.0790   -0.0197 H   0  0  0  0  0  0  0  0  0  0  0  0
   -2.7965   -2.8601    1.4459 H   0  0  0  0  0  0  0  0  0  0  0  0
    0.7724   -1.3745   -0.1593 N   0  0  0  0  0  0  0  0  0  0  0  0
    0.5614   -2.5964   -0.9244 C   0  0  2  0  0  0  0  0  0  0  0  0
    1.6157   -3.5728   -0.4972 C   0  0  0  0  0  0  0  0  0  0  0  0
    2.2533   -3.3634    0.5281 O   0  0  0  0  0  0  0  0  0  0  0  0
    0.7345   -2.1771   -2.3796 C   0  0  0  0  0  0  0  0  0  0  0  0
    0.3244   -0.8671   -1.7112 C   0  0  0  0  0  0  0  0  0  0  0  0
    1.5408   -0.3981   -0.9273 C   0  0  0  0  0  0  0  0  0  0  0  0
   -0.4227   -3.0263   -0.7144 H   0  0  0  0  0  0  0  0  0  0  0  0
    0.0120   -2.7078   -3.0110 H   0  0  0  0  0  0  0  0  0  0  0  0
    1.7400   -2.3597   -2.7711 H   0  0  0  0  0  0  0  0  0  0  0  0
    0.0755   -0.1144   -2.4681 H   0  0  0  0  0  0  0  0  0  0  0  0
   -0.5410   -0.9920   -1.0542 H   0  0  0  0  0  0  0  0  0  0  0  0
    2.4811   -0.6014   -1.4471 H   0  0  0  0  0  0  0  0  0  0  0  0
    1.4806    0.6724   -0.7030 H   0  0  0  0  0  0  0  0  0  0  0  0
    1.5861   -4.6790   -1.6000 N   0  0  0  0  0  0  0  0  0  0  0  0
    2.3938   -5.8717   -1.4813 C   0  0  2  0  0  0  0  0  0  0  0  0
    1.8634   -6.6840   -0.3073 C   0  0  0  0  0  0  0  0  0  0  0  0
    1.2077   -6.1906    0.6080 O   0  0  0  0  0  0  0  0  0  0  0  0
    3.8623   -5.5283   -1.2853 C   0  0  0  0  0  0  0  0  0  0  0  0
    1.0989   -4.5102   -2.4749 H   0  0  0  0  0  0  0  0  0  0  0  0
    2.2590   -6.4386   -2.4089 H   0  0  0  0  0  0  0  0  0  0  0  0
    4.0170   -4.9602   -0.3608 H   0  0  0  0  0  0  0  0  0  0  0  0
    4.4765   -6.4328   -1.2242 H   0  0  0  0  0  0  0  0  0  0  0  0
    4.2342   -4.9190   -2.1161 H   0  0  0  0  0  0  0  0  0  0  0  0
    2.2449   -8.0164   -0.3797 N   0  0  0  0  0  0  0  0  0  0  0  0
    1.8767   -8.9885    0.6230 C   0  0  0  0  0  0  0  0  0  0  0  0
    2.7723   -8.3421   -1.1844 H   0  0  0  0  0  0  0  0  0  0  0  0
    2.6691   -9.0498    1.3834 H   0  0  0  0  0  0  0  0  0  0  0  0
    0.9336   -8.6836    1.1002 H   0  0  0  0  0  0  0  0  0  0  0  0
    1.7465   -9.9726    0.1491 H   0  0  0  0  0  0  0  0  0  0  0  0
 18 19  1  0  0  0  0
 19 31  1  0  0  0  0
 19 20  2  0  0  0  0
  8  9  1  0  0  0  0
  9 17  1  0  0  0  0
  9 10  2  0  0  0  0
  1  3  1  0  0  0  0
  1  7  1  0  0  0  0
  1  2  2  0  0  0  0
 32 33  1  0  0  0  0
 33 41  1  0  0  0  0
 33 34  2  0  0  0  0
 21 22  1  0  0  0  0
 22 23  1  0  0  0  0
 18 21  1  0  0  0  0
 17 23  1  0  0  0  0
 17 18  1  0  0  0  0
  8 11  1  0  0  0  0
 32 35  1  0  0  0  0
 41 42  1  0  0  0  0
  7  8  1  0  0  0  0
 31 32  1  0  0  0  0
 22 27  1  0  0  0  0
 22 28  1  0  0  0  0
 21 25  1  0  0  0  0
 21 26  1  0  0  0  0
 23 29  1  0  0  0  0
 23 30  1  0  0  0  0
 18 24  1  0  0  0  0
  3  4  1  0  0  0  0
  3  5  1  0  0  0  0
  3  6  1  0  0  0  0
 11 14  1  0  0  0  0
 11 15  1  0  0  0  0
 11 16  1  0  0  0  0
 35 38  1  0  0  0  0
 35 39  1  0  0  0  0
 35 40  1  0  0  0  0
 42 44  1  0  0  0  0
 42 45  1  0  0  0  0
 42 46  1  0  0  0  0
  8 13  1  0  0  0  0
 32 37  1  0  0  0  0
 31 36  1  0  0  0  0
 41 43  1  0  0  0  0
  7 12  1  0  0  0  0
M  END
$$$$

  -OEChem-05262214473D

 46 46  0     1  0  0  0  0  0999 V2000
   -0.6012   -3.2995    3.8205 C   0  0  0  0  0  0  0  0  0  0  0  0
   -0.6574   -4.4683    3.4568 O   0  0  0  0  0  0  0  0  0  0  0  0
   -0.4935   -2.9859    5.2760 C   0  0  0  0  0  0  0  0  0  0  0  0
   -1.4789   -2.8689    5.7550 H   0  0  0  0  0  0  0  0  0  0  0  0
    0.0123   -3.7847    5.8419 H   0  0  0  0  0  0  0  0  0  0  0  0
    0.0585   -2.0642    5.5199 H   0  0  0  0  0  0  0  0  0  0  0  0
   -0.6261   -2.1849    2.9917 N   0  0  0  0  0  0  0  0  0  0  0  0
   -0.7237   -2.2601    1.5650 C   0  0  2  0  0  0  0  0  0  0  0  0
    0.1695   -1.1513    1.0687 C   0  0  0  0  0  0  0  0  0  0  0  0
    0.3193   -0.1267    1.7365 O   0  0  0  0  0  0  0  0  0  0  0  0
   -2.1397   -2.0663    1.0750 C   0  0  0  0  0  0  0  0  0  0  0  0
   -0.5717   -1.2606    3.4238 H   0  0  0  0  0  0  0  0  0  0  0  0
   -0.3076   -3.2111    1.2363 H   0  0  0  0  0  0  0  0  0  0  0  0
   -2.5584   -1.1089    1.4061 H   0  0  0  0  0  0  0  0  0  0  0  0
   -2.1682   -2.0790   -0.0197 H   0  0  0  0  0  0  0  0  0  0  0  0
   -2.7965   -2.8601    1.4459 H   0  0  0  0  0  0  0  0  0  0  0  0
    0.7724   -1.3745   -0.1593 N   0  0  0  0  0  0  0  0  0  0  0  0
    0.5614   -2.5964   -0.9244 C   0  0  2  0  0  0  0  0  0  0  0  0
    1.6157   -3.5728   -0.4972 C   0  0  0  0  0  0  0  0  0  0  0  0
    2.0578   -3.5236    0.6446 O   0  0  0  0  0  0  0  0  0  0  0  0
    0.7345   -2.1771   -2.3796 C   0  0  0  0  0  0  0  0  0  0  0  0
    0.3244   -0.8671   -1.7112 C   0  0  0  0  0  0  0  0  0  0  0  0
    1.5408   -0.3981   -0.9273 C   0  0  0  0  0  0  0  0  0  0  0  0
   -0.4227   -3.0263   -0.7144 H   0  0  0  0  0  0  0  0  0  0  0  0
    0.0120   -2.7078   -3.0110 H   0  0  0  0  0  0  0  0  0  0  0  0
    1.7400   -2.3597   -2.7711 H   0  0  0  0  0  0  0  0  0  0  0  0
    0.0755   -0.1144   -2.4681 H   0  0  0  0  0  0  0  0  0  0  0  0
   -0.5410   -0.9920   -1.0542 H   0  0  0  0  0  0  0  0  0  0  0  0
    2.4811   -0.6014   -1.4471 H   0  0  0  0  0  0  0  0  0  0  0  0
    1.4806    0.6724   -0.7030 H   0  0  0  0  0  0  0  0  0  0  0  0
    1.8638   -4.4513   -1.7650 N   0  0  0  0  0  0  0  0  0  0  0  0
    2.7450   -5.5960   -1.7179 C   0  0  2  0  0  0  0  0  0  0  0  0
    2.1064   -6.6443   -0.8164 C   0  0  0  0  0  0  0  0  0  0  0  0
    1.2699   -6.3712    0.0419 O   0  0  0  0  0  0  0  0  0  0  0  0
    4.1258   -5.2109   -1.2102 C   0  0  0  0  0  0  0  0  0  0  0  0
    1.5114   -4.1493   -2.6683 H   0  0  0  0  0  0  0  0  0  0  0  0
    2.8132   -5.9849   -2.7397 H   0  0  0  0  0  0  0  0  0  0  0  0
    4.0776   -4.8191   -0.1876 H   0  0  0  0  0  0  0  0  0  0  0  0
    4.8004   -6.0734   -1.2021 H   0  0  0  0  0  0  0  0  0  0  0  0
    4.5713   -4.4354   -1.8426 H   0  0  0  0  0  0  0  0  0  0  0  0
    2.6121   -7.9148   -1.0538 N   0  0  0  0  0  0  0  0  0  0  0  0
    2.1749   -9.0780   -0.3178 C   0  0  0  0  0  0  0  0  0  0  0  0
    3.2897   -8.0519   -1.7980 H   0  0  0  0  0  0  0  0  0  0  0  0
    2.8362   -9.2353    0.5470 H   0  0  0  0  0  0  0  0  0  0  0  0
    1.1437   -8.9239    0.0325 H   0  0  0  0  0  0  0  0  0  0  0  0
    2.2115   -9.9612   -0.9726 H   0  0  0  0  0  0  0  0  0  0  0  0
 18 19  1  0  0  0  0
 19 31  1  0  0  0  0
 19 20  2  0  0  0  0
  8  9  1  0  0  0  0
  9 17  1  0  0  0  0
  9 10  2  0  0  0  0
  1  3  1  0  0  0  0
  1  7  1  0  0  0  0
  1  2  2  0  0  0  0
 32 33  1  0  0  0  0
 33 41  1  0  0  0  0
 33 34  2  0  0  0  0
 21 22  1  0  0  0  0
 22 23  1  0  0  0  0
 18 21  1  0  0  0  0
 17 23  1  0  0  0  0
 17 18  1  0  0  0  0
  8 11  1  0  0  0  0
 32 35  1  0  0  0  0
 41 42  1  0  0  0  0
  7  8  1  0  0  0  0
 31 32  1  0  0  0  0
 22 27  1  0  0  0  0
 22 28  1  0  0  0  0
 21 25  1  0  0  0  0
 21 26  1  0  0  0  0
 23 29  1  0  0  0  0
 23 30  1  0  0  0  0
 18 24  1  0  0  0  0
  3  4  1  0  0  0  0
  3  5  1  0  0  0  0
  3  6  1  0  0  0  0
 11 14  1  0  0  0  0
 11 15  1  0  0  0  0
 11 16  1  0  0  0  0
 35 38  1  0  0  0  0
 35 39  1  0  0  0  0
 35 40  1  0  0  0  0
 42 44  1  0  0  0  0
 42 45  1  0  0  0  0
 42 46  1  0  0  0  0
  8 13  1  0  0  0  0
 32 37  1  0  0  0  0
 31 36  1  0  0  0  0
 41 43  1  0  0  0  0
  7 12  1  0  0  0  0
M  END
$$$$

  -OEChem-05262214473D

 46 46  0     1  0  0  0  0  0999 V2000
   -0.6012   -3.2995    3.8205 C   0  0  0  0  0  0  0  0  0  0  0  0
   -0.6574   -4.4683    3.4568 O   0  0  0  0  0  0  0  0  0  0  0  0
   -0.4935   -2.9859    5.2760 C   0  0  0  0  0  0  0  0  0  0  0  0
   -1.4789   -2.8689    5.7550 H   0  0  0  0  0  0  0  0  0  0  0  0
    0.0123   -3.7847    5.8419 H   0  0  0  0  0  0  0  0  0  0  0  0
    0.0585   -2.0642    5.5199 H   0  0  0  0  0  0  0  0  0  0  0  0
   -0.6261   -2.1849    2.9917 N   0  0  0  0  0  0  0  0  0  0  0  0
   -0.7237   -2.2601    1.5650 C   0  0  2  0  0  0  0  0  0  0  0  0
    0.1695   -1.1513    1.0687 C   0  0  0  0  0  0  0  0  0  0  0  0
    0.3193   -0.1267    1.7365 O   0  0  0  0  0  0  0  0  0  0  0  0
   -2.1397   -2.0663    1.0750 C   0  0  0  0  0  0  0  0  0  0  0  0
   -0.5717   -1.2606    3.4238 H   0  0  0  0  0  0  0  0  0  0  0  0
   -0.3076   -3.2111    1.2363 H   0  0  0  0  0  0  0  0  0  0  0  0
   -2.5584   -1.1089    1.4061 H   0  0  0  0  0  0  0  0  0  0  0  0
   -2.1682   -2.0790   -0.0197 H   0  0  0  0  0  0  0  0  0  0  0  0
   -2.7965   -2.8601    1.4459 H   0  0  0  0  0  0  0  0  0  0  0  0
    0.7724   -1.3745   -0.1593 N   0  0  0  0  0  0  0  0  0  0  0  0
    0.5614   -2.5964   -0.9244 C   0  0  2  0  0  0  0  0  0  0  0  0
    1.6157   -3.5728   -0.4972 C   0  0  0  0  0  0  0  0  0  0  0  0
    1.8611   -3.7139    0.6951 O   0  0  0  0  0  0  0  0  0  0  0  0
    0.7345   -2.1771   -2.3796 C   0  0  0  0  0  0  0  0  0  0  0  0
    0.3244   -0.8671   -1.7112 C   0  0  0  0  0  0  0  0  0  0  0  0
    1.5408   -0.3981   -0.9273 C   0  0  0  0  0  0  0  0  0  0  0  0
   -0.4227   -3.0263   -0.7144 H   0  0  0  0  0  0  0  0  0  0  0  0
    0.0120   -2.7078   -3.0110 H   0  0  0  0  0  0  0  0  0  0  0  0
    1.7400   -2.3597   -2.7711 H   0  0  0  0  0  0  0  0  0  0  0  0
    0.0755   -0.1144   -2.4681 H   0  0  0  0  0  0  0  0  0  0  0  0
   -0.5410   -0.9920   -1.0542 H   0  0  0  0  0  0  0  0  0  0  0  0
    2.4811   -0.6014   -1.4471 H   0  0  0  0  0  0  0  0  0  0  0  0
    1.4806    0.6724   -0.7030 H   0  0  0  0  0  0  0  0  0  0  0  0
    2.1431   -4.1809   -1.8361 N   0  0  0  0  0  0  0  0  0  0  0  0
    3.1037   -5.2608   -1.8371 C   0  0  2  0  0  0  0  0  0  0  0  0
    2.4240   -6.4954   -1.2600 C   0  0  0  0  0  0  0  0  0  0  0  0
    1.4387   -6.4379   -0.5273 O   0  0  0  0  0  0  0  0  0  0  0  0
    4.3442   -4.8986   -1.0354 C   0  0  0  0  0  0  0  0  0  0  0  0
    1.9159   -3.7351   -2.7199 H   0  0  0  0  0  0  0  0  0  0  0  0
    3.3708   -5.4456   -2.8833 H   0  0  0  0  0  0  0  0  0  0  0  0
    4.0965   -4.7098    0.0155 H   0  0  0  0  0  0  0  0  0  0  0  0
    5.0830   -5.7064   -1.0608 H   0  0  0  0  0  0  0  0  0  0  0  0
    4.8150   -3.9933   -1.4336 H   0  0  0  0  0  0  0  0  0  0  0  0
    3.0729   -7.6668   -1.6245 N   0  0  0  0  0  0  0  0  0  0  0  0
    2.6282   -8.9713   -1.1926 C   0  0  0  0  0  0  0  0  0  0  0  0
    3.8715   -7.6217   -2.2506 H   0  0  0  0  0  0  0  0  0  0  0  0
    3.1522   -9.2499   -0.2665 H   0  0  0  0  0  0  0  0  0  0  0  0
    1.5442   -8.9461   -1.0070 H   0  0  0  0  0  0  0  0  0  0  0  0
    2.8490   -9.7117   -1.9756 H   0  0  0  0  0  0  0  0  0  0  0  0
 18 19  1  0  0  0  0
 19 31  1  0  0  0  0
 19 20  2  0  0  0  0
  8  9  1  0  0  0  0
  9 17  1  0  0  0  0
  9 10  2  0  0  0  0
  1  3  1  0  0  0  0
  1  7  1  0  0  0  0
  1  2  2  0  0  0  0
 32 33  1  0  0  0  0
 33 41  1  0  0  0  0
 33 34  2  0  0  0  0
 21 22  1  0  0  0  0
 22 23  1  0  0  0  0
 18 21  1  0  0  0  0
 17 23  1  0  0  0  0
 17 18  1  0  0  0  0
  8 11  1  0  0  0  0
 32 35  1  0  0  0  0
 41 42  1  0  0  0  0
  7  8  1  0  0  0  0
 31 32  1  0  0  0  0
 22 27  1  0  0  0  0
 22 28  1  0  0  0  0
 21 25  1  0  0  0  0
 21 26  1  0  0  0  0
 23 29  1  0  0  0  0
 23 30  1  0  0  0  0
 18 24  1  0  0  0  0
  3  4  1  0  0  0  0
  3  5  1  0  0  0  0
  3  6  1  0  0  0  0
 11 14  1  0  0  0  0
 11 15  1  0  0  0  0
 11 16  1  0  0  0  0
 35 38  1  0  0  0  0
 35 39  1  0  0  0  0
 35 40  1  0  0  0  0
 42 44  1  0  0  0  0
 42 45  1  0  0  0  0
 42 46  1  0  0  0  0
  8 13  1  0  0  0  0
 32 37  1  0  0  0  0
 31 36  1  0  0  0  0
 41 43  1  0  0  0  0
  7 12  1  0  0  0  0
M  END
$$$$

  -OEChem-05262214473D

 46 46  0     1  0  0  0  0  0999 V2000
   -0.6012   -3.2995    3.8205 C   0  0  0  0  0  0  0  0  0  0  0  0
   -0.6574   -4.4683    3.4568 O   0  0  0  0  0  0  0  0  0  0  0  0
   -0.4935   -2.9859    5.2760 C   0  0  0  0  0  0  0  0  0  0  0  0
   -1.4789   -2.8689    5.7550 H   0  0  0  0  0  0  0  0  0  0  0  0
    0.0123   -3.7847    5.8419 H   0  0  0  0  0  0  0  0  0  0  0  0
    0.0585   -2.0642    5.5199 H   0  0  0  0  0  0  0  0  0  0  0  0
   -0.6261   -2.1849    2.9917 N   0  0  0  0  0  0  0  0  0  0  0  0
   -0.7237   -2.2601    1.5650 C   0  0  2  0  0  0  0  0  0  0  0  0
    0.1695   -1.1513    1.0687 C   0  0  0  0  0  0  0  0  0  0  0  0
    0.3193   -0.1267    1.7365 O   0  0  0  0  0  0  0  0  0  0  0  0
   -2.1397   -2.0663    1.0750 C   0  0  0  0  0  0  0  0  0  0  0  0
   -0.5717   -1.2606    3.4238 H   0  0  0  0  0  0  0  0  0  0  0  0
   -0.3076   -3.2111    1.2363 H   0  0  0  0  0  0  0  0  0  0  0  0
   -2.5584   -1.1089    1.4061 H   0  0  0  0  0  0  0  0  0  0  0  0
   -2.1682   -2.0790   -0.0197 H   0  0  0  0  0  0  0  0  0  0  0  0
   -2.7965   -2.8601    1.4459 H   0  0  0  0  0  0  0  0  0  0  0  0
    0.7724   -1.3745   -0.1593 N   0  0  0  0  0  0  0  0  0  0  0  0
    0.5614   -2.5964   -0.9244 C   0  0  2  0  0  0  0  0  0  0  0  0
    1.6157   -3.5728   -0.4972 C   0  0  0  0  0  0  0  0  0  0  0  0
    1.6766   -3.9214    0.6760 O   0  0  0  0  0  0  0  0  0  0  0  0
    0.7345   -2.1771   -2.3796 C   0  0  0  0  0  0  0  0  0  0  0  0
    0.3244   -0.8671   -1.7112 C   0  0  0  0  0  0  0  0  0  0  0  0
    1.5408   -0.3981   -0.9273 C   0  0  0  0  0  0  0  0  0  0  0  0
   -0.4227   -3.0263   -0.7144 H   0  0  0  0  0  0  0  0  0  0  0  0
    0.0120   -2.7078   -3.0110 H   0  0  0  0  0  0  0  0  0  0  0  0
    1.7400   -2.3597   -2.7711 H   0  0  0  0  0  0  0  0  0  0  0  0
    0.0755   -0.1144   -2.4681 H   0  0  0  0  0  0  0  0  0  0  0  0
   -0.5410   -0.9920   -1.0542 H   0  0  0  0  0  0  0  0  0  0  0  0
    2.4811   -0.6014   -1.4471 H   0  0  0  0  0  0  0  0  0  0  0  0
    1.4806    0.6724   -0.7030 H   0  0  0  0  0  0  0  0  0  0  0  0
    2.4049   -3.8861   -1.8085 N   0  0  0  0  0  0  0  0  0  0  0  0
    3.4457   -4.8888   -1.8307 C   0  0  2  0  0  0  0  0  0  0  0  0
    2.7946   -6.2474   -1.6078 C   0  0  0  0  0  0  0  0  0  0  0  0
    1.7026   -6.3863   -1.0608 O   0  0  0  0  0  0  0  0  0  0  0  0
    4.5027   -4.6126   -0.7729 C   0  0  0  0  0  0  0  0  0  0  0  0
    2.2848   -3.2959   -2.6262 H   0  0  0  0  0  0  0  0  0  0  0  0
    3.8938   -4.8574   -2.8298 H   0  0  0  0  0  0  0  0  0  0  0  0
    4.0724   -4.6398    0.2348 H   0  0  0  0  0  0  0  0  0  0  0  0
    5.3051   -5.3568   -0.8099 H   0  0  0  0  0  0  0  0  0  0  0  0
    4.9490   -3.6227   -0.9170 H   0  0  0  0  0  0  0  0  0  0  0  0
    3.5960   -7.2895   -2.0529 N   0  0  0  0  0  0  0  0  0  0  0  0
    3.2056   -8.6756   -1.9417 C   0  0  0  0  0  0  0  0  0  0  0  0
    4.4780   -7.0808   -2.5114 H   0  0  0  0  0  0  0  0  0  0  0  0
    3.5957   -9.0927   -1.0016 H   0  0  0  0  0  0  0  0  0  0  0  0
    2.1080   -8.7488   -1.9477 H   0  0  0  0  0  0  0  0  0  0  0  0
    3.6154   -9.2411   -2.7916 H   0  0  0  0  0  0  0  0  0  0  0  0
 18 19  1  0  0  0  0
 19 31  1  0  0  0  0
 19 20  2  0  0  0  0
  8  9  1  0  0  0  0
  9 17  1  0  0  0  0
  9 10  2  0  0  0  0
  1  3  1  0  0  0  0
  1  7  1  0  0  0  0
  1  2  2  0  0  0  0
 32 33  1  0  0  0  0
 33 41  1  0  0  0  0
 33 34  2  0  0  0  0
 21 22  1  0  0  0  0
 22 23  1  0  0  0  0
 18 21  1  0  0  0  0
 17 23  1  0  0  0  0
 17 18  1  0  0  0  0
  8 11  1  0  0  0  0
 32 35  1  0  0  0  0
 41 42  1  0  0  0  0
  7  8  1  0  0  0  0
 31 32  1  0  0  0  0
 22 27  1  0  0  0  0
 22 28  1  0  0  0  0
 21 25  1  0  0  0  0
 21 26  1  0  0  0  0
 23 29  1  0  0  0  0
 23 30  1  0  0  0  0
 18 24  1  0  0  0  0
  3  4  1  0  0  0  0
  3  5  1  0  0  0  0
  3  6  1  0  0  0  0
 11 14  1  0  0  0  0
 11 15  1  0  0  0  0
 11 16  1  0  0  0  0
 35 38  1  0  0  0  0
 35 39  1  0  0  0  0
 35 40  1  0  0  0  0
 42 44  1  0  0  0  0
 42 45  1  0  0  0  0
 42 46  1  0  0  0  0
  8 13  1  0  0  0  0
 32 37  1  0  0  0  0
 31 36  1  0  0  0  0
 41 43  1  0  0  0  0
  7 12  1  0  0  0  0
M  END
$$$$

  -OEChem-05262214473D

 46 46  0     1  0  0  0  0  0999 V2000
   -0.6012   -3.2995    3.8205 C   0  0  0  0  0  0  0  0  0  0  0  0
   -0.6574   -4.4683    3.4568 O   0  0  0  0  0  0  0  0  0  0  0  0
   -0.4935   -2.9859    5.2760 C   0  0  0  0  0  0  0  0  0  0  0  0
   -1.4789   -2.8689    5.7550 H   0  0  0  0  0  0  0  0  0  0  0  0
    0.0123   -3.7847    5.8419 H   0  0  0  0  0  0  0  0  0  0  0  0
    0.0585   -2.0642    5.5199 H   0  0  0  0  0  0  0  0  0  0  0  0
   -0.6261   -2.1849    2.9917 N   0  0  0  0  0  0  0  0  0  0  0  0
   -0.7237   -2.2601    1.5650 C   0  0  2  0  0  0  0  0  0  0  0  0
    0.1695   -1.1513    1.0687 C   0  0  0  0  0  0  0  0  0  0  0  0
    0.3193   -0.1267    1.7365 O   0  0  0  0  0  0  0  0  0  0  0  0
   -2.1397   -2.0663    1.0750 C   0  0  0  0  0  0  0  0  0  0  0  0
   -0.5717   -1.2606    3.4238 H   0  0  0  0  0  0  0  0  0  0  0  0
   -0.3076   -3.2111    1.2363 H   0  0  0  0  0  0  0  0  0  0  0  0
   -2.5584   -1.1089    1.4061 H   0  0  0  0  0  0  0  0  0  0  0  0
   -2.1682   -2.0790   -0.0197 H   0  0  0  0  0  0  0  0  0  0  0  0
   -2.7965   -2.8601    1.4459 H   0  0  0  0  0  0  0  0  0  0  0  0
    0.7724   -1.3745   -0.1593 N   0  0  0  0  0  0  0  0  0  0  0  0
    0.5614   -2.5964   -0.9244 C   0  0  2  0  0  0  0  0  0  0  0  0
    1.6157   -3.5728   -0.4972 C   0  0  0  0  0  0  0  0  0  0  0  0
    1.5170   -4.1320    0.5887 O   0  0  0  0  0  0  0  0  0  0  0  0
    0.7345   -2.1771   -2.3796 C   0  0  0  0  0  0  0  0  0  0  0  0
    0.3244   -0.8671   -1.7112 C   0  0  0  0  0  0  0  0  0  0  0  0
    1.5408   -0.3981   -0.9273 C   0  0  0  0  0  0  0  0  0  0  0  0
   -0.4227   -3.0263   -0.7144 H   0  0  0  0  0  0  0  0  0  0  0  0
    0.0120   -2.7078   -3.0110 H   0  0  0  0  0  0  0  0  0  0  0  0
    1.7400   -2.3597   -2.7711 H   0  0  0  0  0  0  0  0  0  0  0  0
    0.0755   -0.1144   -2.4681 H   0  0  0  0  0  0  0  0  0  0  0  0
   -0.5410   -0.9920   -1.0542 H   0  0  0  0  0  0  0  0  0  0  0  0
    2.4811   -0.6014   -1.4471 H   0  0  0  0  0  0  0  0  0  0  0  0
    1.4806    0.6724   -0.7030 H   0  0  0  0  0  0  0  0  0  0  0  0
    2.6314   -3.5871   -1.6841 N   0  0  0  0  0  0  0  0  0  0  0  0
    3.7474   -4.5054   -1.6992 C   0  0  2  0  0  0  0  0  0  0  0  0
    3.1929   -5.9172   -1.8362 C   0  0  0  0  0  0  0  0  0  0  0  0
    2.0436   -6.2199   -1.5222 O   0  0  0  0  0  0  0  0  0  0  0  0
    4.5905   -4.3724   -0.4405 C   0  0  0  0  0  0  0  0  0  0  0  0
    2.5928   -2.8614   -2.3935 H   0  0  0  0  0  0  0  0  0  0  0  0
    4.3467   -4.2604   -2.5829 H   0  0  0  0  0  0  0  0  0  0  0  0
    4.0070   -4.6139    0.4554 H   0  0  0  0  0  0  0  0  0  0  0  0
    5.4515   -5.0485   -0.4664 H   0  0  0  0  0  0  0  0  0  0  0  0
    4.9639   -3.3488   -0.3280 H   0  0  0  0  0  0  0  0  0  0  0  0
    4.1456   -6.8084   -2.3098 N   0  0  0  0  0  0  0  0  0  0  0  0
    3.8678   -8.2110   -2.5142 C   0  0  0  0  0  0  0  0  0  0  0  0
    5.0679   -6.4662   -2.5627 H   0  0  0  0  0  0  0  0  0  0  0  0
    4.1364   -8.7743   -1.6084 H   0  0  0  0  0  0  0  0  0  0  0  0
    2.7966   -8.3455   -2.7253 H   0  0  0  0  0  0  0  0  0  0  0  0
    4.4585   -8.5815   -3.3649 H   0  0  0  0  0  0  0  0  0  0  0  0
 18 19  1  0  0  0  0
 19 31  1  0  0  0  0
 19 20  2  0  0  0  0
  8  9  1  0  0  0  0
  9 17  1  0  0  0  0
  9 10  2  0  0  0  0
  1  3  1  0  0  0  0
  1  7  1  0  0  0  0
  1  2  2  0  0  0  0
 32 33  1  0  0  0  0
 33 41  1  0  0  0  0
 33 34  2  0  0  0  0
 21 22  1  0  0  0  0
 22 23  1  0  0  0  0
 18 21  1  0  0  0  0
 17 23  1  0  0  0  0
 17 18  1  0  0  0  0
  8 11  1  0  0  0  0
 32 35  1  0  0  0  0
 41 42  1  0  0  0  0
  7  8  1  0  0  0  0
 31 32  1  0  0  0  0
 22 27  1  0  0  0  0
 22 28  1  0  0  0  0
 21 25  1  0  0  0  0
 21 26  1  0  0  0  0
 23 29  1  0  0  0  0
 23 30  1  0  0  0  0
 18 24  1  0  0  0  0
  3  4  1  0  0  0  0
  3  5  1  0  0  0  0
  3  6  1  0  0  0  0
 11 14  1  0  0  0  0
 11 15  1  0  0  0  0
 11 16  1  0  0  0  0
 35 38  1  0  0  0  0
 35 39  1  0  0  0  0
 35 40  1  0  0  0  0
 42 44  1  0  0  0  0
 42 45  1  0  0  0  0
 42 46  1  0  0  0  0
  8 13  1  0  0  0  0
 32 37  1  0  0  0  0
 31 36  1  0  0  0  0
 41 43  1  0  0  0  0
  7 12  1  0  0  0  0
M  END
$$$$

  -OEChem-05262214473D

 46 46  0     1  0  0  0  0  0999 V2000
   -0.6012   -3.2995    3.8205 C   0  0  0  0  0  0  0  0  0  0  0  0
   -0.6574   -4.4683    3.4568 O   0  0  0  0  0  0  0  0  0  0  0  0
   -0.4935   -2.9859    5.2760 C   0  0  0  0  0  0  0  0  0  0  0  0
   -1.4789   -2.8689    5.7550 H   0  0  0  0  0  0  0  0  0  0  0  0
    0.0123   -3.7847    5.8419 H   0  0  0  0  0  0  0  0  0  0  0  0
    0.0585   -2.0642    5.5199 H   0  0  0  0  0  0  0  0  0  0  0  0
   -0.6261   -2.1849    2.9917 N   0  0  0  0  0  0  0  0  0  0  0  0
   -0.7237   -2.2601    1.5650 C   0  0  2  0  0  0  0  0  0  0  0  0
    0.1695   -1.1513    1.0687 C   0  0  0  0  0  0  0  0  0  0  0  0
    0.3193   -0.1267    1.7365 O   0  0  0  0  0  0  0  0  0  0  0  0
   -2.1397   -2.0663    1.0750 C   0  0  0  0  0  0  0  0  0  0  0  0
   -0.5717   -1.2606    3.4238 H   0  0  0  0  0  0  0  0  0  0  0  0
   -0.3076   -3.2111    1.2363 H   0  0  0  0  0  0  0  0  0  0  0  0
   -2.5584   -1.1089    1.4061 H   0  0  0  0  0  0  0  0  0  0  0  0
   -2.1682   -2.0790   -0.0197 H   0  0  0  0  0  0  0  0  0  0  0  0
   -2.7965   -2.8601    1.4459 H   0  0  0  0  0  0  0  0  0  0  0  0
    0.7724   -1.3745   -0.1593 N   0  0  0  0  0  0  0  0  0  0  0  0
    0.5614   -2.5964   -0.9244 C   0  0  2  0  0  0  0  0  0  0  0  0
    1.6157   -3.5728   -0.4972 C   0  0  0  0  0  0  0  0  0  0  0  0
    1.3930   -4.3313    0.4392 O   0  0  0  0  0  0  0  0  0  0  0  0
    0.7345   -2.1771   -2.3796 C   0  0  0  0  0  0  0  0  0  0  0  0
    0.3244   -0.8671   -1.7112 C   0  0  0  0  0  0  0  0  0  0  0  0
    1.5408   -0.3981   -0.9273 C   0  0  0  0  0  0  0  0  0  0  0  0
   -0.4227   -3.0263   -0.7144 H   0  0  0  0  0  0  0  0  0  0  0  0
    0.0120   -2.7078   -3.0110 H   0  0  0  0  0  0  0  0  0  0  0  0
    1.7400   -2.3597   -2.7711 H   0  0  0  0  0  0  0  0  0  0  0  0
    0.0755   -0.1144   -2.4681 H   0  0  0  0  0  0  0  0  0  0  0  0
   -0.5410   -0.9920   -1.0542 H   0  0  0  0  0  0  0  0  0  0  0  0
    2.4811   -0.6014   -1.4471 H   0  0  0  0  0  0  0  0  0  0  0  0
    1.4806    0.6724   -0.7030 H   0  0  0  0  0  0  0  0  0  0  0  0
    2.8072   -3.3042   -1.4713 N   0  0  0  0  0  0  0  0  0  0  0  0
    3.9884   -4.1368   -1.4515 C   0  0  2  0  0  0  0  0  0  0  0  0
    3.5918   -5.5274   -1.9295 C   0  0  0  0  0  0  0  0  0  0  0  0
    2.4386   -5.9501   -1.8801 O   0  0  0  0  0  0  0  0  0  0  0  0
    4.6016   -4.1944   -0.0610 C   0  0  0  0  0  0  0  0  0  0  0  0
    2.8192   -2.4614   -2.0378 H   0  0  0  0  0  0  0  0  0  0  0  0
    4.6984   -3.6953   -2.1593 H   0  0  0  0  0  0  0  0  0  0  0  0
    3.9048   -4.6339    0.6621 H   0  0  0  0  0  0  0  0  0  0  0  0
    5.5123   -4.8023   -0.0538 H   0  0  0  0  0  0  0  0  0  0  0  0
    4.8589   -3.1904    0.2934 H   0  0  0  0  0  0  0  0  0  0  0  0
    4.6843   -6.2565   -2.3778 N   0  0  0  0  0  0  0  0  0  0  0  0
    4.5697   -7.6091   -2.8709 C   0  0  0  0  0  0  0  0  0  0  0  0
    5.6011   -5.8197   -2.4008 H   0  0  0  0  0  0  0  0  0  0  0  0
    4.7375   -8.3164   -2.0453 H   0  0  0  0  0  0  0  0  0  0  0  0
    3.5631   -7.7635   -3.2869 H   0  0  0  0  0  0  0  0  0  0  0  0
    5.3209   -7.7778   -3.6565 H   0  0  0  0  0  0  0  0  0  0  0  0
 18 19  1  0  0  0  0
 19 31  1  0  0  0  0
 19 20  2  0  0  0  0
  8  9  1  0  0  0  0
  9 17  1  0  0  0  0
  9 10  2  0  0  0  0
  1  3  1  0  0  0  0
  1  7  1  0  0  0  0
  1  2  2  0  0  0  0
 32 33  1  0  0  0  0
 33 41  1  0  0  0  0
 33 34  2  0  0  0  0
 21 22  1  0  0  0  0
 22 23  1  0  0  0  0
 18 21  1  0  0  0  0
 17 23  1  0  0  0  0
 17 18  1  0  0  0  0
  8 11  1  0  0  0  0
 32 35  1  0  0  0  0
 41 42  1  0  0  0  0
  7  8  1  0  0  0  0
 31 32  1  0  0  0  0
 22 27  1  0  0  0  0
 22 28  1  0  0  0  0
 21 25  1  0  0  0  0
 21 26  1  0  0  0  0
 23 29  1  0  0  0  0
 23 30  1  0  0  0  0
 18 24  1  0  0  0  0
  3  4  1  0  0  0  0
  3  5  1  0  0  0  0
  3  6  1  0  0  0  0
 11 14  1  0  0  0  0
 11 15  1  0  0  0  0
 11 16  1  0  0  0  0
 35 38  1  0  0  0  0
 35 39  1  0  0  0  0
 35 40  1  0  0  0  0
 42 44  1  0  0  0  0
 42 45  1  0  0  0  0
 42 46  1  0  0  0  0
  8 13  1  0  0  0  0
 32 37  1  0  0  0  0
 31 36  1  0  0  0  0
 41 43  1  0  0  0  0
  7 12  1  0  0  0  0
M  END
$$$$

  -OEChem-05262214473D

 46 46  0     1  0  0  0  0  0999 V2000
   -0.6012   -3.2995    3.8205 C   0  0  0  0  0  0  0  0  0  0  0  0
   -0.6574   -4.4683    3.4568 O   0  0  0  0  0  0  0  0  0  0  0  0
   -0.4935   -2.9859    5.2760 C   0  0  0  0  0  0  0  0  0  0  0  0
   -1.4789   -2.8689    5.7550 H   0  0  0  0  0  0  0  0  0  0  0  0
    0.0123   -3.7847    5.8419 H   0  0  0  0  0  0  0  0  0  0  0  0
    0.0585   -2.0642    5.5199 H   0  0  0  0  0  0  0  0  0  0  0  0
   -0.6261   -2.1849    2.9917 N   0  0  0  0  0  0  0  0  0  0  0  0
   -0.7237   -2.2601    1.5650 C   0  0  2  0  0  0  0  0  0  0  0  0
    0.1695   -1.1513    1.0687 C   0  0  0  0  0  0  0  0  0  0  0  0
    0.3193   -0.1267    1.7365 O   0  0  0  0  0  0  0  0  0  0  0  0
   -2.1397   -2.0663    1.0750 C   0  0  0  0  0  0  0  0  0  0  0  0
   -0.5717   -1.2606    3.4238 H   0  0  0  0  0  0  0  0  0  0  0  0
   -0.3076   -3.2111    1.2363 H   0  0  0  0  0  0  0  0  0  0  0  0
   -2.5584   -1.1089    1.4061 H   0  0  0  0  0  0  0  0  0  0  0  0
   -2.1682   -2.0790   -0.0197 H   0  0  0  0  0  0  0  0  0  0  0  0
   -2.7965   -2.8601    1.4459 H   0  0  0  0  0  0  0  0  0  0  0  0
    0.7724   -1.3745   -0.1593 N   0  0  0  0  0  0  0  0  0  0  0  0
    0.5614   -2.5964   -0.9244 C   0  0  2  0  0  0  0  0  0  0  0  0
    1.6157   -3.5728   -0.4972 C   0  0  0  0  0  0  0  0  0  0  0  0
    1.3131   -4.5058    0.2375 O   0  0  0  0  0  0  0  0  0  0  0  0
    0.7345   -2.1771   -2.3796 C   0  0  0  0  0  0  0  0  0  0  0  0
    0.3244   -0.8671   -1.7112 C   0  0  0  0  0  0  0  0  0  0  0  0
    1.5408   -0.3981   -0.9273 C   0  0  0  0  0  0  0  0  0  0  0  0
   -0.4227   -3.0263   -0.7144 H   0  0  0  0  0  0  0  0  0  0  0  0
    0.0120   -2.7078   -3.0110 H   0  0  0  0  0  0  0  0  0  0  0  0
    1.7400   -2.3597   -2.7711 H   0  0  0  0  0  0  0  0  0  0  0  0
    0.0755   -0.1144   -2.4681 H   0  0  0  0  0  0  0  0  0  0  0  0
   -0.5410   -0.9920   -1.0542 H   0  0  0  0  0  0  0  0  0  0  0  0
    2.4811   -0.6014   -1.4471 H   0  0  0  0  0  0  0  0  0  0  0  0
    1.4806    0.6724   -0.7030 H   0  0  0  0  0  0  0  0  0  0  0  0
    2.9202   -3.0568   -1.1846 N   0  0  0  0  0  0  0  0  0  0  0  0
    4.1523   -3.8081   -1.1045 C   0  0  2  0  0  0  0  0  0  0  0  0
    3.9641   -5.1044   -1.8815 C   0  0  0  0  0  0  0  0  0  0  0  0
    2.8605   -5.5951   -2.1102 O   0  0  0  0  0  0  0  0  0  0  0  0
    4.5351   -4.0908    0.3399 C   0  0  0  0  0  0  0  0  0  0  0  0
    2.9483   -2.1231   -1.5831 H   0  0  0  0  0  0  0  0  0  0  0  0
    4.9251   -3.2007   -1.5881 H   0  0  0  0  0  0  0  0  0  0  0  0
    3.7727   -4.6984    0.8409 H   0  0  0  0  0  0  0  0  0  0  0  0
    5.4833   -4.6352    0.3998 H   0  0  0  0  0  0  0  0  0  0  0  0
    4.6410   -3.1583    0.9047 H   0  0  0  0  0  0  0  0  0  0  0  0
    5.1754   -5.6712   -2.2522 N   0  0  0  0  0  0  0  0  0  0  0  0
    5.2634   -6.9111   -2.9877 C   0  0  0  0  0  0  0  0  0  0  0  0
    6.0411   -5.1854   -2.0370 H   0  0  0  0  0  0  0  0  0  0  0  0
    5.3580   -7.7503   -2.2827 H   0  0  0  0  0  0  0  0  0  0  0  0
    4.3553   -7.0427   -3.5943 H   0  0  0  0  0  0  0  0  0  0  0  0
    6.1439   -6.8849   -3.6465 H   0  0  0  0  0  0  0  0  0  0  0  0
 18 19  1  0  0  0  0
 19 31  1  0  0  0  0
 19 20  2  0  0  0  0
  8  9  1  0  0  0  0
  9 17  1  0  0  0  0
  9 10  2  0  0  0  0
  1  3  1  0  0  0  0
  1  7  1  0  0  0  0
  1  2  2  0  0  0  0
 32 33  1  0  0  0  0
 33 41  1  0  0  0  0
 33 34  2  0  0  0  0
 21 22  1  0  0  0  0
 22 23  1  0  0  0  0
 18 21  1  0  0  0  0
 17 23  1  0  0  0  0
 17 18  1  0  0  0  0
  8 11  1  0  0  0  0
 32 35  1  0  0  0  0
 41 42  1  0  0  0  0
  7  8  1  0  0  0  0
 31 32  1  0  0  0  0
 22 27  1  0  0  0  0
 22 28  1  0  0  0  0
 21 25  1  0  0  0  0
 21 26  1  0  0  0  0
 23 29  1  0  0  0  0
 23 30  1  0  0  0  0
 18 24  1  0  0  0  0
  3  4  1  0  0  0  0
  3  5  1  0  0  0  0
  3  6  1  0  0  0  0
 11 14  1  0  0  0  0
 11 15  1  0  0  0  0
 11 16  1  0  0  0  0
 35 38  1  0  0  0  0
 35 39  1  0  0  0  0
 35 40  1  0  0  0  0
 42 44  1  0  0  0  0
 42 45  1  0  0  0  0
 42 46  1  0  0  0  0
  8 13  1  0  0  0  0
 32 37  1  0  0  0  0
 31 36  1  0  0  0  0
 41 43  1  0  0  0  0
  7 12  1  0  0  0  0
M  END
$$$$

  -OEChem-05262214473D

 46 46  0     1  0  0  0  0  0999 V2000
   -0.6012   -3.2995    3.8205 C   0  0  0  0  0  0  0  0  0  0  0  0
   -0.6574   -4.4683    3.4568 O   0  0  0  0  0  0  0  0  0  0  0  0
   -0.4935   -2.9859    5.2760 C   0  0  0  0  0  0  0  0  0  0  0  0
   -1.4789   -2.8689    5.7550 H   0  0  0  0  0  0  0  0  0  0  0  0
    0.0123   -3.7847    5.8419 H   0  0  0  0  0  0  0  0  0  0  0  0
    0.0585   -2.0642    5.5199 H   0  0  0  0  0  0  0  0  0  0  0  0
   -0.6261   -2.1849    2.9917 N   0  0  0  0  0  0  0  0  0  0  0  0
   -0.7237   -2.2601    1.5650 C   0  0  2  0  0  0  0  0  0  0  0  0
    0.1695   -1.1513    1.0687 C   0  0  0  0  0  0  0  0  0  0  0  0
    0.3193   -0.1267    1.7365 O   0  0  0  0  0  0  0  0  0  0  0  0
   -2.1397   -2.0663    1.0750 C   0  0  0  0  0  0  0  0  0  0  0  0
   -0.5717   -1.2606    3.4238 H   0  0  0  0  0  0  0  0  0  0  0  0
   -0.3076   -3.2111    1.2363 H   0  0  0  0  0  0  0  0  0  0  0  0
   -2.5584   -1.1089    1.4061 H   0  0  0  0  0  0  0  0  0  0  0  0
   -2.1682   -2.0790   -0.0197 H   0  0  0  0  0  0  0  0  0  0  0  0
   -2.7965   -2.8601    1.4459 H   0  0  0  0  0  0  0  0  0  0  0  0
    0.7724   -1.3745   -0.1593 N   0  0  0  0  0  0  0  0  0  0  0  0
    0.5614   -2.5964   -0.9244 C   0  0  2  0  0  0  0  0  0  0  0  0
    1.6157   -3.5728   -0.4972 C   0  0  0  0  0  0  0  0  0  0  0  0
    1.2829   -4.6434   -0.0025 O   0  0  0  0  0  0  0  0  0  0  0  0
    0.7345   -2.1771   -2.3796 C   0  0  0  0  0  0  0  0  0  0  0  0
    0.3244   -0.8671   -1.7112 C   0  0  0  0  0  0  0  0  0  0  0  0
    1.5408   -0.3981   -0.9273 C   0  0  0  0  0  0  0  0  0  0  0  0
   -0.4227   -3.0263   -0.7144 H   0  0  0  0  0  0  0  0  0  0  0  0
    0.0120   -2.7078   -3.0110 H   0  0  0  0  0  0  0  0  0  0  0  0
    1.7400   -2.3597   -2.7711 H   0  0  0  0  0  0  0  0  0  0  0  0
    0.0755   -0.1144   -2.4681 H   0  0  0  0  0  0  0  0  0  0  0  0
   -0.5410   -0.9920   -1.0542 H   0  0  0  0  0  0  0  0  0  0  0  0
    2.4811   -0.6014   -1.4471 H   0  0  0  0  0  0  0  0  0  0  0  0
    1.4806    0.6724   -0.7030 H   0  0  0  0  0  0  0  0  0  0  0  0
    2.9628   -2.8616   -0.8436 N   0  0  0  0  0  0  0  0  0  0  0  0
    4.2279   -3.5416   -0.6819 C   0  0  2  0  0  0  0  0  0  0  0  0
    4.2844   -4.6771   -1.6953 C   0  0  0  0  0  0  0  0  0  0  0  0
    3.2806   -5.1793   -2.1967 O   0  0  0  0  0  0  0  0  0  0  0  0
    4.3957   -4.0686    0.7347 C   0  0  0  0  0  0  0  0  0  0  0  0
    2.9715   -1.8695   -1.0607 H   0  0  0  0  0  0  0  0  0  0  0  0
    5.0113   -2.8101   -0.9081 H   0  0  0  0  0  0  0  0  0  0  0  0
    3.6197   -4.8029    0.9795 H   0  0  0  0  0  0  0  0  0  0  0  0
    5.3666   -4.5584    0.8634 H   0  0  0  0  0  0  0  0  0  0  0  0
    4.3251   -3.2546    1.4643 H   0  0  0  0  0  0  0  0  0  0  0  0
    5.5855   -5.0925   -1.9416 N   0  0  0  0  0  0  0  0  0  0  0  0
    5.9017   -6.1645   -2.8564 C   0  0  0  0  0  0  0  0  0  0  0  0
    6.3581   -4.6065   -1.4959 H   0  0  0  0  0  0  0  0  0  0  0  0
    5.9556   -7.1144   -2.3044 H   0  0  0  0  0  0  0  0  0  0  0  0
    5.1191   -6.2320   -3.6265 H   0  0  0  0  0  0  0  0  0  0  0  0
    6.8712   -5.9635   -3.3356 H   0  0  0  0  0  0  0  0  0  0  0  0
 18 19  1  0  0  0  0
 19 31  1  0  0  0  0
 19 20  2  0  0  0  0
  8  9  1  0  0  0  0
  9 17  1  0  0  0  0
  9 10  2  0  0  0  0
  1  3  1  0  0  0  0
  1  7  1  0  0  0  0
  1  2  2  0  0  0  0
 32 33  1  0  0  0  0
 33 41  1  0  0  0  0
 33 34  2  0  0  0  0
 21 22  1  0  0  0  0
 22 23  1  0  0  0  0
 18 21  1  0  0  0  0
 17 23  1  0  0  0  0
 17 18  1  0  0  0  0
  8 11  1  0  0  0  0
 32 35  1  0  0  0  0
 41 42  1  0  0  0  0
  7  8  1  0  0  0  0
 31 32  1  0  0  0  0
 22 27  1  0  0  0  0
 22 28  1  0  0  0  0
 21 25  1  0  0  0  0
 21 26  1  0  0  0  0
 23 29  1  0  0  0  0
 23 30  1  0  0  0  0
 18 24  1  0  0  0  0
  3  4  1  0  0  0  0
  3  5  1  0  0  0  0
  3  6  1  0  0  0  0
 11 14  1  0  0  0  0
 11 15  1  0  0  0  0
 11 16  1  0  0  0  0
 35 38  1  0  0  0  0
 35 39  1  0  0  0  0
 35 40  1  0  0  0  0
 42 44  1  0  0  0  0
 42 45  1  0  0  0  0
 42 46  1  0  0  0  0
  8 13  1  0  0  0  0
 32 37  1  0  0  0  0
 31 36  1  0  0  0  0
 41 43  1  0  0  0  0
  7 12  1  0  0  0  0
M  END
$$$$

  -OEChem-05262214473D

 46 46  0     1  0  0  0  0  0999 V2000
   -0.6012   -3.2995    3.8205 C   0  0  0  0  0  0  0  0  0  0  0  0
   -0.6574   -4.4683    3.4568 O   0  0  0  0  0  0  0  0  0  0  0  0
   -0.4935   -2.9859    5.2760 C   0  0  0  0  0  0  0  0  0  0  0  0
   -1.4789   -2.8689    5.7550 H   0  0  0  0  0  0  0  0  0  0  0  0
    0.0123   -3.7847    5.8419 H   0  0  0  0  0  0  0  0  0  0  0  0
    0.0585   -2.0642    5.5199 H   0  0  0  0  0  0  0  0  0  0  0  0
   -0.6261   -2.1849    2.9917 N   0  0  0  0  0  0  0  0  0  0  0  0
   -0.7237   -2.2601    1.5650 C   0  0  2  0  0  0  0  0  0  0  0  0
    0.1695   -1.1513    1.0687 C   0  0  0  0  0  0  0  0  0  0  0  0
    0.3193   -0.1267    1.7365 O   0  0  0  0  0  0  0  0  0  0  0  0
   -2.1397   -2.0663    1.0750 C   0  0  0  0  0  0  0  0  0  0  0  0
   -0.5717   -1.2606    3.4238 H   0  0  0  0  0  0  0  0  0  0  0  0
   -0.3076   -3.2111    1.2363 H   0  0  0  0  0  0  0  0  0  0  0  0
   -2.5584   -1.1089    1.4061 H   0  0  0  0  0  0  0  0  0  0  0  0
   -2.1682   -2.0790   -0.0197 H   0  0  0  0  0  0  0  0  0  0  0  0
   -2.7965   -2.8601    1.4459 H   0  0  0  0  0  0  0  0  0  0  0  0
    0.7724   -1.3745   -0.1593 N   0  0  0  0  0  0  0  0  0  0  0  0
    0.5614   -2.5964   -0.9244 C   0  0  2  0  0  0  0  0  0  0  0  0
    1.6157   -3.5728   -0.4972 C   0  0  0  0  0  0  0  0  0  0  0  0
    1.3042   -4.7350   -0.2644 O   0  0  0  0  0  0  0  0  0  0  0  0
    0.7345   -2.1771   -2.3796 C   0  0  0  0  0  0  0  0  0  0  0  0
    0.3244   -0.8671   -1.7112 C   0  0  0  0  0  0  0  0  0  0  0  0
    1.5408   -0.3981   -0.9273 C   0  0  0  0  0  0  0  0  0  0  0  0
   -0.4227   -3.0263   -0.7144 H   0  0  0  0  0  0  0  0  0  0  0  0
    0.0120   -2.7078   -3.0110 H   0  0  0  0  0  0  0  0  0  0  0  0
    1.7400   -2.3597   -2.7711 H   0  0  0  0  0  0  0  0  0  0  0  0
    0.0755   -0.1144   -2.4681 H   0  0  0  0  0  0  0  0  0  0  0  0
   -0.5410   -0.9920   -1.0542 H   0  0  0  0  0  0  0  0  0  0  0  0
    2.4811   -0.6014   -1.4471 H   0  0  0  0  0  0  0  0  0  0  0  0
    1.4806    0.6724   -0.7030 H   0  0  0  0  0  0  0  0  0  0  0  0
    2.9321   -2.7320   -0.4715 N   0  0  0  0  0  0  0  0  0  0  0  0
    4.2100   -3.3556   -0.2124 C   0  0  2  0  0  0  0  0  0  0  0  0
    4.5309   -4.2746   -1.3837 C   0  0  0  0  0  0  0  0  0  0  0  0
    3.6704   -4.7309   -2.1337 O   0  0  0  0  0  0  0  0  0  0  0  0
    4.1929   -4.1293    1.0967 C   0  0  0  0  0  0  0  0  0  0  0  0
    2.8871   -1.7180   -0.5060 H   0  0  0  0  0  0  0  0  0  0  0  0
    4.9511   -2.5503   -0.1656 H   0  0  0  0  0  0  0  0  0  0  0  0
    3.4562   -4.9404    1.0687 H   0  0  0  0  0  0  0  0  0  0  0  0
    5.1700   -4.5773    1.3056 H   0  0  0  0  0  0  0  0  0  0  0  0
    3.9327   -3.4728    1.9340 H   0  0  0  0  0  0  0  0  0  0  0  0
    5.8865   -4.5599   -1.4670 N   0  0  0  0  0  0  0  0  0  0  0  0
    6.4410   -5.4201   -2.4861 C   0  0  0  0  0  0  0  0  0  0  0  0
    6.5303   -4.1224   -0.8144 H   0  0  0  0  0  0  0  0  0  0  0  0
    6.4896   -6.4523   -2.1088 H   0  0  0  0  0  0  0  0  0  0  0  0
    5.8025   -5.3868   -3.3812 H   0  0  0  0  0  0  0  0  0  0  0  0
    7.4534   -5.0764   -2.7449 H   0  0  0  0  0  0  0  0  0  0  0  0
 18 19  1  0  0  0  0
 19 31  1  0  0  0  0
 19 20  2  0  0  0  0
  8  9  1  0  0  0  0
  9 17  1  0  0  0  0
  9 10  2  0  0  0  0
  1  3  1  0  0  0  0
  1  7  1  0  0  0  0
  1  2  2  0  0  0  0
 32 33  1  0  0  0  0
 33 41  1  0  0  0  0
 33 34  2  0  0  0  0
 21 22  1  0  0  0  0
 22 23  1  0  0  0  0
 18 21  1  0  0  0  0
 17 23  1  0  0  0  0
 17 18  1  0  0  0  0
  8 11  1  0  0  0  0
 32 35  1  0  0  0  0
 41 42  1  0  0  0  0
  7  8  1  0  0  0  0
 31 32  1  0  0  0  0
 22 27  1  0  0  0  0
 22 28  1  0  0  0  0
 21 25  1  0  0  0  0
 21 26  1  0  0  0  0
 23 29  1  0  0  0  0
 23 30  1  0  0  0  0
 18 24  1  0  0  0  0
  3  4  1  0  0  0  0
  3  5  1  0  0  0  0
  3  6  1  0  0  0  0
 11 14  1  0  0  0  0
 11 15  1  0  0  0  0
 11 16  1  0  0  0  0
 35 38  1  0  0  0  0
 35 39  1  0  0  0  0
 35 40  1  0  0  0  0
 42 44  1  0  0  0  0
 42 45  1  0  0  0  0
 42 46  1  0  0  0  0
  8 13  1  0  0  0  0
 32 37  1  0  0  0  0
 31 36  1  0  0  0  0
 41 43  1  0  0  0  0
  7 12  1  0  0  0  0
M  END
$$$$

  -OEChem-05262214473D

 46 46  0     1  0  0  0  0  0999 V2000
   -0.6012   -3.2995    3.8205 C   0  0  0  0  0  0  0  0  0  0  0  0
   -0.6574   -4.4683    3.4568 O   0  0  0  0  0  0  0  0  0  0  0  0
   -0.4935   -2.9859    5.2760 C   0  0  0  0  0  0  0  0  0  0  0  0
   -1.4789   -2.8689    5.7550 H   0  0  0  0  0  0  0  0  0  0  0  0
    0.0123   -3.7847    5.8419 H   0  0  0  0  0  0  0  0  0  0  0  0
    0.0585   -2.0642    5.5199 H   0  0  0  0  0  0  0  0  0  0  0  0
   -0.6261   -2.1849    2.9917 N   0  0  0  0  0  0  0  0  0  0  0  0
   -0.7237   -2.2601    1.5650 C   0  0  2  0  0  0  0  0  0  0  0  0
    0.1695   -1.1513    1.0687 C   0  0  0  0  0  0  0  0  0  0  0  0
    0.3193   -0.1267    1.7365 O   0  0  0  0  0  0  0  0  0  0  0  0
   -2.1397   -2.0663    1.0750 C   0  0  0  0  0  0  0  0  0  0  0  0
   -0.5717   -1.2606    3.4238 H   0  0  0  0  0  0  0  0  0  0  0  0
   -0.3076   -3.2111    1.2363 H   0  0  0  0  0  0  0  0  0  0  0  0
   -2.5584   -1.1089    1.4061 H   0  0  0  0  0  0  0  0  0  0  0  0
   -2.1682   -2.0790   -0.0197 H   0  0  0  0  0  0  0  0  0  0  0  0
   -2.7965   -2.8601    1.4459 H   0  0  0  0  0  0  0  0  0  0  0  0
    0.7724   -1.3745   -0.1593 N   0  0  0  0  0  0  0  0  0  0  0  0
    0.5614   -2.5964   -0.9244 C   0  0  2  0  0  0  0  0  0  0  0  0
    1.6157   -3.5728   -0.4972 C   0  0  0  0  0  0  0  0  0  0  0  0
    1.3758   -4.7741   -0.5305 O   0  0  0  0  0  0  0  0  0  0  0  0
    0.7345   -2.1771   -2.3796 C   0  0  0  0  0  0  0  0  0  0  0  0
    0.3244   -0.8671   -1.7112 C   0  0  0  0  0  0  0  0  0  0  0  0
    1.5408   -0.3981   -0.9273 C   0  0  0  0  0  0  0  0  0  0  0  0
   -0.4227   -3.0263   -0.7144 H   0  0  0  0  0  0  0  0  0  0  0  0
    0.0120   -2.7078   -3.0110 H   0  0  0  0  0  0  0  0  0  0  0  0
    1.7400   -2.3597   -2.7711 H   0  0  0  0  0  0  0  0  0  0  0  0
    0.0755   -0.1144   -2.4681 H   0  0  0  0  0  0  0  0  0  0  0  0
   -0.5410   -0.9920   -1.0542 H   0  0  0  0  0  0  0  0  0  0  0  0
    2.4811   -0.6014   -1.4471 H   0  0  0  0  0  0  0  0  0  0  0  0
    1.4806    0.6724   -0.7030 H   0  0  0  0  0  0  0  0  0  0  0  0
    2.8301   -2.6768   -0.0937 N   0  0  0  0  0  0  0  0  0  0  0  0
    4.0998   -3.2626    0.2719 C   0  0  2  0  0  0  0  0  0  0  0  0
    4.6868   -3.9244   -0.9679 C   0  0  0  0  0  0  0  0  0  0  0  0
    4.0031   -4.2805   -1.9255 O   0  0  0  0  0  0  0  0  0  0  0  0
    3.9404   -4.2687    1.4011 C   0  0  0  0  0  0  0  0  0  0  0  0
    2.7008   -1.6788    0.0432 H   0  0  0  0  0  0  0  0  0  0  0  0
    4.7487   -2.4389    0.5887 H   0  0  0  0  0  0  0  0  0  0  0  0
    3.2934   -5.1015    1.1022 H   0  0  0  0  0  0  0  0  0  0  0  0
    4.9069   -4.6905    1.6961 H   0  0  0  0  0  0  0  0  0  0  0  0
    3.4906   -3.7979    2.2819 H   0  0  0  0  0  0  0  0  0  0  0  0
    6.0581   -4.1096   -0.8610 N   0  0  0  0  0  0  0  0  0  0  0  0
    6.8447   -4.7288   -1.9021 C   0  0  0  0  0  0  0  0  0  0  0  0
    6.5460   -3.7662   -0.0390 H   0  0  0  0  0  0  0  0  0  0  0  0
    6.9236   -5.8089   -1.7094 H   0  0  0  0  0  0  0  0  0  0  0  0
    6.3589   -4.5646   -2.8752 H   0  0  0  0  0  0  0  0  0  0  0  0
    7.8508   -4.2842   -1.9148 H   0  0  0  0  0  0  0  0  0  0  0  0
 18 19  1  0  0  0  0
 19 31  1  0  0  0  0
 19 20  2  0  0  0  0
  8  9  1  0  0  0  0
  9 17  1  0  0  0  0
  9 10  2  0  0  0  0
  1  3  1  0  0  0  0
  1  7  1  0  0  0  0
  1  2  2  0  0  0  0
 32 33  1  0  0  0  0
 33 41  1  0  0  0  0
 33 34  2  0  0  0  0
 21 22  1  0  0  0  0
 22 23  1  0  0  0  0
 18 21  1  0  0  0  0
 17 23  1  0  0  0  0
 17 18  1  0  0  0  0
  8 11  1  0  0  0  0
 32 35  1  0  0  0  0
 41 42  1  0  0  0  0
  7  8  1  0  0  0  0
 31 32  1  0  0  0  0
 22 27  1  0  0  0  0
 22 28  1  0  0  0  0
 21 25  1  0  0  0  0
 21 26  1  0  0  0  0
 23 29  1  0  0  0  0
 23 30  1  0  0  0  0
 18 24  1  0  0  0  0
  3  4  1  0  0  0  0
  3  5  1  0  0  0  0
  3  6  1  0  0  0  0
 11 14  1  0  0  0  0
 11 15  1  0  0  0  0
 11 16  1  0  0  0  0
 35 38  1  0  0  0  0
 35 39  1  0  0  0  0
 35 40  1  0  0  0  0
 42 44  1  0  0  0  0
 42 45  1  0  0  0  0
 42 46  1  0  0  0  0
  8 13  1  0  0  0  0
 32 37  1  0  0  0  0
 31 36  1  0  0  0  0
 41 43  1  0  0  0  0
  7 12  1  0  0  0  0
M  END
$$$$

  -OEChem-05262214473D

 46 46  0     1  0  0  0  0  0999 V2000
   -0.6012   -3.2995    3.8205 C   0  0  0  0  0  0  0  0  0  0  0  0
   -0.6574   -4.4683    3.4568 O   0  0  0  0  0  0  0  0  0  0  0  0
   -0.4935   -2.9859    5.2760 C   0  0  0  0  0  0  0  0  0  0  0  0
   -1.4789   -2.8689    5.7550 H   0  0  0  0  0  0  0  0  0  0  0  0
    0.0123   -3.7847    5.8419 H   0  0  0  0  0  0  0  0  0  0  0  0
    0.0585   -2.0642    5.5199 H   0  0  0  0  0  0  0  0  0  0  0  0
   -0.6261   -2.1849    2.9917 N   0  0  0  0  0  0  0  0  0  0  0  0
   -0.7237   -2.2601    1.5650 C   0  0  2  0  0  0  0  0  0  0  0  0
    0.1695   -1.1513    1.0687 C   0  0  0  0  0  0  0  0  0  0  0  0
    0.3193   -0.1267    1.7365 O   0  0  0  0  0  0  0  0  0  0  0  0
   -2.1397   -2.0663    1.0750 C   0  0  0  0  0  0  0  0  0  0  0  0
   -0.5717   -1.2606    3.4238 H   0  0  0  0  0  0  0  0  0  0  0  0
   -0.3076   -3.2111    1.2363 H   0  0  0  0  0  0  0  0  0  0  0  0
   -2.5584   -1.1089    1.4061 H   0  0  0  0  0  0  0  0  0  0  0  0
   -2.1682   -2.0790   -0.0197 H   0  0  0  0  0  0  0  0  0  0  0  0
   -2.7965   -2.8601    1.4459 H   0  0  0  0  0  0  0  0  0  0  0  0
    0.7724   -1.3745   -0.1593 N   0  0  0  0  0  0  0  0  0  0  0  0
    0.5614   -2.5964   -0.9244 C   0  0  2  0  0  0  0  0  0  0  0  0
    1.6157   -3.5728   -0.4972 C   0  0  0  0  0  0  0  0  0  0  0  0
    1.4926   -4.7582   -0.7826 O   0  0  0  0  0  0  0  0  0  0  0  0
    0.7345   -2.1771   -2.3796 C   0  0  0  0  0  0  0  0  0  0  0  0
    0.3244   -0.8671   -1.7112 C   0  0  0  0  0  0  0  0  0  0  0  0
    1.5408   -0.3981   -0.9273 C   0  0  0  0  0  0  0  0  0  0  0  0
   -0.4227   -3.0263   -0.7144 H   0  0  0  0  0  0  0  0  0  0  0  0
    0.0120   -2.7078   -3.0110 H   0  0  0  0  0  0  0  0  0  0  0  0
    1.7400   -2.3597   -2.7711 H   0  0  0  0  0  0  0  0  0  0  0  0
    0.0755   -0.1144   -2.4681 H   0  0  0  0  0  0  0  0  0  0  0  0
   -0.5410   -0.9920   -1.0542 H   0  0  0  0  0  0  0  0  0  0  0  0
    2.4811   -0.6014   -1.4471 H   0  0  0  0  0  0  0  0  0  0  0  0
    1.4806    0.6724   -0.7030 H   0  0  0  0  0  0  0  0  0  0  0  0
    2.6639   -2.6998    0.2641 N   0  0  0  0  0  0  0  0  0  0  0  0
    3.9049   -3.2692    0.7380 C   0  0  2  0  0  0  0  0  0  0  0  0
    4.7414   -3.6503   -0.4763 C   0  0  0  0  0  0  0  0  0  0  0  0
    4.2563   -3.8588   -1.5863 O   0  0  0  0  0  0  0  0  0  0  0  0
    3.6555   -4.4774    1.6271 C   0  0  0  0  0  0  0  0  0  0  0  0
    2.4255   -1.7547    0.5494 H   0  0  0  0  0  0  0  0  0  0  0  0
    4.4178   -2.4835    1.3035 H   0  0  0  0  0  0  0  0  0  0  0  0
    3.1424   -5.2752    1.0778 H   0  0  0  0  0  0  0  0  0  0  0  0
    4.5953   -4.8903    2.0083 H   0  0  0  0  0  0  0  0  0  0  0  0
    3.0290   -4.2079    2.4842 H   0  0  0  0  0  0  0  0  0  0  0  0
    6.0884   -3.7723   -0.1647 N   0  0  0  0  0  0  0  0  0  0  0  0
    7.0851   -4.1375   -1.1440 C   0  0  0  0  0  0  0  0  0  0  0  0
    6.4043   -3.5620    0.7775 H   0  0  0  0  0  0  0  0  0  0  0  0
    7.2281   -5.2281   -1.1333 H   0  0  0  0  0  0  0  0  0  0  0  0
    6.7505   -3.8215   -2.1431 H   0  0  0  0  0  0  0  0  0  0  0  0
    8.0362   -3.6408   -0.9017 H   0  0  0  0  0  0  0  0  0  0  0  0
 18 19  1  0  0  0  0
 19 31  1  0  0  0  0
 19 20  2  0  0  0  0
  8  9  1  0  0  0  0
  9 17  1  0  0  0  0
  9 10  2  0  0  0  0
  1  3  1  0  0  0  0
  1  7  1  0  0  0  0
  1  2  2  0  0  0  0
 32 33  1  0  0  0  0
 33 41  1  0  0  0  0
 33 34  2  0  0  0  0
 21 22  1  0  0  0  0
 22 23  1  0  0  0  0
 18 21  1  0  0  0  0
 17 23  1  0  0  0  0
 17 18  1  0  0  0  0
  8 11  1  0  0  0  0
 32 35  1  0  0  0  0
 41 42  1  0  0  0  0
  7  8  1  0  0  0  0
 31 32  1  0  0  0  0
 22 27  1  0  0  0  0
 22 28  1  0  0  0  0
 21 25  1  0  0  0  0
 21 26  1  0  0  0  0
 23 29  1  0  0  0  0
 23 30  1  0  0  0  0
 18 24  1  0  0  0  0
  3  4  1  0  0  0  0
  3  5  1  0  0  0  0
  3  6  1  0  0  0  0
 11 14  1  0  0  0  0
 11 15  1  0  0  0  0
 11 16  1  0  0  0  0
 35 38  1  0  0  0  0
 35 39  1  0  0  0  0
 35 40  1  0  0  0  0
 42 44  1  0  0  0  0
 42 45  1  0  0  0  0
 42 46  1  0  0  0  0
  8 13  1  0  0  0  0
 32 37  1  0  0  0  0
 31 36  1  0  0  0  0
 41 43  1  0  0  0  0
  7 12  1  0  0  0  0
M  END
$$$$

  -OEChem-05262214473D

 46 46  0     1  0  0  0  0  0999 V2000
   -0.6012   -3.2995    3.8205 C   0  0  0  0  0  0  0  0  0  0  0  0
   -0.6574   -4.4683    3.4568 O   0  0  0  0  0  0  0  0  0  0  0  0
   -0.4935   -2.9859    5.2760 C   0  0  0  0  0  0  0  0  0  0  0  0
   -1.4789   -2.8689    5.7550 H   0  0  0  0  0  0  0  0  0  0  0  0
    0.0123   -3.7847    5.8419 H   0  0  0  0  0  0  0  0  0  0  0  0
    0.0585   -2.0642    5.5199 H   0  0  0  0  0  0  0  0  0  0  0  0
   -0.6261   -2.1849    2.9917 N   0  0  0  0  0  0  0  0  0  0  0  0
   -0.7237   -2.2601    1.5650 C   0  0  2  0  0  0  0  0  0  0  0  0
    0.1695   -1.1513    1.0687 C   0  0  0  0  0  0  0  0  0  0  0  0
    0.3193   -0.1267    1.7365 O   0  0  0  0  0  0  0  0  0  0  0  0
   -2.1397   -2.0663    1.0750 C   0  0  0  0  0  0  0  0  0  0  0  0
   -0.5717   -1.2606    3.4238 H   0  0  0  0  0  0  0  0  0  0  0  0
   -0.3076   -3.2111    1.2363 H   0  0  0  0  0  0  0  0  0  0  0  0
   -2.5584   -1.1089    1.4061 H   0  0  0  0  0  0  0  0  0  0  0  0
   -2.1682   -2.0790   -0.0197 H   0  0  0  0  0  0  0  0  0  0  0  0
   -2.7965   -2.8601    1.4459 H   0  0  0  0  0  0  0  0  0  0  0  0
    0.7724   -1.3745   -0.1593 N   0  0  0  0  0  0  0  0  0  0  0  0
    0.5614   -2.5964   -0.9244 C   0  0  2  0  0  0  0  0  0  0  0  0
    1.6157   -3.5728   -0.4972 C   0  0  0  0  0  0  0  0  0  0  0  0
    1.6468   -4.6883   -1.0035 O   0  0  0  0  0  0  0  0  0  0  0  0
    0.7345   -2.1771   -2.3796 C   0  0  0  0  0  0  0  0  0  0  0  0
    0.3244   -0.8671   -1.7112 C   0  0  0  0  0  0  0  0  0  0  0  0
    1.5408   -0.3981   -0.9273 C   0  0  0  0  0  0  0  0  0  0  0  0
   -0.4227   -3.0263   -0.7144 H   0  0  0  0  0  0  0  0  0  0  0  0
    0.0120   -2.7078   -3.0110 H   0  0  0  0  0  0  0  0  0  0  0  0
    1.7400   -2.3597   -2.7711 H   0  0  0  0  0  0  0  0  0  0  0  0
    0.0755   -0.1144   -2.4681 H   0  0  0  0  0  0  0  0  0  0  0  0
   -0.5410   -0.9920   -1.0542 H   0  0  0  0  0  0  0  0  0  0  0  0
    2.4811   -0.6014   -1.4471 H   0  0  0  0  0  0  0  0  0  0  0  0
    1.4806    0.6724   -0.7030 H   0  0  0  0  0  0  0  0  0  0  0  0
    2.4447   -2.7994    0.5776 N   0  0  0  0  0  0  0  0  0  0  0  0
    3.6386   -3.3747    1.1542 C   0  0  2  0  0  0  0  0  0  0  0  0
    4.6911   -3.4710    0.0577 C   0  0  0  0  0  0  0  0  0  0  0  0
    4.4125   -3.4945   -1.1393 O   0  0  0  0  0  0  0  0  0  0  0  0
    3.3576   -4.7412    1.7595 C   0  0  0  0  0  0  0  0  0  0  0  0
    2.0798   -1.9404    0.9781 H   0  0  0  0  0  0  0  0  0  0  0  0
    3.9809   -2.6811    1.9300 H   0  0  0  0  0  0  0  0  0  0  0  0
    3.0135   -5.4497    0.9972 H   0  0  0  0  0  0  0  0  0  0  0  0
    4.2565   -5.1631    2.2211 H   0  0  0  0  0  0  0  0  0  0  0  0
    2.5791   -4.6748    2.5272 H   0  0  0  0  0  0  0  0  0  0  0  0
    5.9754   -3.5709    0.5744 N   0  0  0  0  0  0  0  0  0  0  0  0
    7.1460   -3.6866   -0.2636 C   0  0  0  0  0  0  0  0  0  0  0  0
    6.1147   -3.5239    1.5794 H   0  0  0  0  0  0  0  0  0  0  0  0
    7.3822   -4.7495   -0.4198 H   0  0  0  0  0  0  0  0  0  0  0  0
    6.9505   -3.2081   -1.2346 H   0  0  0  0  0  0  0  0  0  0  0  0
    7.9972   -3.1900    0.2252 H   0  0  0  0  0  0  0  0  0  0  0  0
 18 19  1  0  0  0  0
 19 31  1  0  0  0  0
 19 20  2  0  0  0  0
  8  9  1  0  0  0  0
  9 17  1  0  0  0  0
  9 10  2  0  0  0  0
  1  3  1  0  0  0  0
  1  7  1  0  0  0  0
  1  2  2  0  0  0  0
 32 33  1  0  0  0  0
 33 41  1  0  0  0  0
 33 34  2  0  0  0  0
 21 22  1  0  0  0  0
 22 23  1  0  0  0  0
 18 21  1  0  0  0  0
 17 23  1  0  0  0  0
 17 18  1  0  0  0  0
  8 11  1  0  0  0  0
 32 35  1  0  0  0  0
 41 42  1  0  0  0  0
  7  8  1  0  0  0  0
 31 32  1  0  0  0  0
 22 27  1  0  0  0  0
 22 28  1  0  0  0  0
 21 25  1  0  0  0  0
 21 26  1  0  0  0  0
 23 29  1  0  0  0  0
 23 30  1  0  0  0  0
 18 24  1  0  0  0  0
  3  4  1  0  0  0  0
  3  5  1  0  0  0  0
  3  6  1  0  0  0  0
 11 14  1  0  0  0  0
 11 15  1  0  0  0  0
 11 16  1  0  0  0  0
 35 38  1  0  0  0  0
 35 39  1  0  0  0  0
 35 40  1  0  0  0  0
 42 44  1  0  0  0  0
 42 45  1  0  0  0  0
 42 46  1  0  0  0  0
  8 13  1  0  0  0  0
 32 37  1  0  0  0  0
 31 36  1  0  0  0  0
 41 43  1  0  0  0  0
  7 12  1  0  0  0  0
M  END
$$$$

  -OEChem-05262214473D

 46 46  0     1  0  0  0  0  0999 V2000
   -0.6012   -3.2995    3.8205 C   0  0  0  0  0  0  0  0  0  0  0  0
   -0.6574   -4.4683    3.4568 O   0  0  0  0  0  0  0  0  0  0  0  0
   -0.4935   -2.9859    5.2760 C   0  0  0  0  0  0  0  0  0  0  0  0
   -1.4789   -2.8689    5.7550 H   0  0  0  0  0  0  0  0  0  0  0  0
    0.0123   -3.7847    5.8419 H   0  0  0  0  0  0  0  0  0  0  0  0
    0.0585   -2.0642    5.5199 H   0  0  0  0  0  0  0  0  0  0  0  0
   -0.6261   -2.1849    2.9917 N   0  0  0  0  0  0  0  0  0  0  0  0
   -0.7237   -2.2601    1.5650 C   0  0  2  0  0  0  0  0  0  0  0  0
    0.1695   -1.1513    1.0687 C   0  0  0  0  0  0  0  0  0  0  0  0
    0.3193   -0.1267    1.7365 O   0  0  0  0  0  0  0  0  0  0  0  0
   -2.1397   -2.0663    1.0750 C   0  0  0  0  0  0  0  0  0  0  0  0
   -0.5717   -1.2606    3.4238 H   0  0  0  0  0  0  0  0  0  0  0  0
   -0.3076   -3.2111    1.2363 H   0  0  0  0  0  0  0  0  0  0  0  0
   -2.5584   -1.1089    1.4061 H   0  0  0  0  0  0  0  0  0  0  0  0
   -2.1682   -2.0790   -0.0197 H   0  0  0  0  0  0  0  0  0  0  0  0
   -2.7965   -2.8601    1.4459 H   0  0  0  0  0  0  0  0  0  0  0  0
    0.7724   -1.3745   -0.1593 N   0  0  0  0  0  0  0  0  0  0  0  0
    0.5614   -2.5964   -0.9244 C   0  0  2  0  0  0  0  0  0  0  0  0
    1.6157   -3.5728   -0.4972 C   0  0  0  0  0  0  0  0  0  0  0  0
    1.8279   -4.5693   -1.1782 O   0  0  0  0  0  0  0  0  0  0  0  0
    0.7345   -2.1771   -2.3796 C   0  0  0  0  0  0  0  0  0  0  0  0
    0.3244   -0.8671   -1.7112 C   0  0  0  0  0  0  0  0  0  0  0  0
    1.5408   -0.3981   -0.9273 C   0  0  0  0  0  0  0  0  0  0  0  0
   -0.4227   -3.0263   -0.7144 H   0  0  0  0  0  0  0  0  0  0  0  0
    0.0120   -2.7078   -3.0110 H   0  0  0  0  0  0  0  0  0  0  0  0
    1.7400   -2.3597   -2.7711 H   0  0  0  0  0  0  0  0  0  0  0  0
    0.0755   -0.1144   -2.4681 H   0  0  0  0  0  0  0  0  0  0  0  0
   -0.5410   -0.9920   -1.0542 H   0  0  0  0  0  0  0  0  0  0  0  0
    2.4811   -0.6014   -1.4471 H   0  0  0  0  0  0  0  0  0  0  0  0
    1.4806    0.6724   -0.7030 H   0  0  0  0  0  0  0  0  0  0  0  0
    2.1874   -2.9688    0.8252 N   0  0  0  0  0  0  0  0  0  0  0  0
    3.3189   -3.5720    1.4922 C   0  0  2  0  0  0  0  0  0  0  0  0
    4.5393   -3.3987    0.5977 C   0  0  0  0  0  0  0  0  0  0  0  0
    4.4612   -3.2125   -0.6149 O   0  0  0  0  0  0  0  0  0  0  0  0
    3.0670   -5.0421    1.7891 C   0  0  0  0  0  0  0  0  0  0  0  0
    1.6873   -2.2233    1.3002 H   0  0  0  0  0  0  0  0  0  0  0  0
    3.4679   -3.0183    2.4256 H   0  0  0  0  0  0  0  0  0  0  0  0
    2.9154   -5.6131    0.8658 H   0  0  0  0  0  0  0  0  0  0  0  0
    3.9134   -5.4904    2.3197 H   0  0  0  0  0  0  0  0  0  0  0  0
    2.1718   -5.1668    2.4079 H   0  0  0  0  0  0  0  0  0  0  0  0
    5.7268   -3.5193    1.3058 N   0  0  0  0  0  0  0  0  0  0  0  0
    7.0232   -3.4069    0.6791 C   0  0  0  0  0  0  0  0  0  0  0  0
    5.6970   -3.6545    2.3121 H   0  0  0  0  0  0  0  0  0  0  0  0
    7.3755   -4.4058    0.3825 H   0  0  0  0  0  0  0  0  0  0  0  0
    6.9453   -2.7662   -0.2117 H   0  0  0  0  0  0  0  0  0  0  0  0
    7.7362   -2.9625    1.3891 H   0  0  0  0  0  0  0  0  0  0  0  0
 18 19  1  0  0  0  0
 19 31  1  0  0  0  0
 19 20  2  0  0  0  0
  8  9  1  0  0  0  0
  9 17  1  0  0  0  0
  9 10  2  0  0  0  0
  1  3  1  0  0  0  0
  1  7  1  0  0  0  0
  1  2  2  0  0  0  0
 32 33  1  0  0  0  0
 33 41  1  0  0  0  0
 33 34  2  0  0  0  0
 21 22  1  0  0  0  0
 22 23  1  0  0  0  0
 18 21  1  0  0  0  0
 17 23  1  0  0  0  0
 17 18  1  0  0  0  0
  8 11  1  0  0  0  0
 32 35  1  0  0  0  0
 41 42  1  0  0  0  0
  7  8  1  0  0  0  0
 31 32  1  0  0  0  0
 22 27  1  0  0  0  0
 22 28  1  0  0  0  0
 21 25  1  0  0  0  0
 21 26  1  0  0  0  0
 23 29  1  0  0  0  0
 23 30  1  0  0  0  0
 18 24  1  0  0  0  0
  3  4  1  0  0  0  0
  3  5  1  0  0  0  0
  3  6  1  0  0  0  0
 11 14  1  0  0  0  0
 11 15  1  0  0  0  0
 11 16  1  0  0  0  0
 35 38  1  0  0  0  0
 35 39  1  0  0  0  0
 35 40  1  0  0  0  0
 42 44  1  0  0  0  0
 42 45  1  0  0  0  0
 42 46  1  0  0  0  0
  8 13  1  0  0  0  0
 32 37  1  0  0  0  0
 31 36  1  0  0  0  0
 41 43  1  0  0  0  0
  7 12  1  0  0  0  0
M  END
$$$$

  -OEChem-05262214473D

 46 46  0     1  0  0  0  0  0999 V2000
   -0.6012   -3.2995    3.8205 C   0  0  0  0  0  0  0  0  0  0  0  0
   -0.6574   -4.4683    3.4568 O   0  0  0  0  0  0  0  0  0  0  0  0
   -0.4935   -2.9859    5.2760 C   0  0  0  0  0  0  0  0  0  0  0  0
   -1.4789   -2.8689    5.7550 H   0  0  0  0  0  0  0  0  0  0  0  0
    0.0123   -3.7847    5.8419 H   0  0  0  0  0  0  0  0  0  0  0  0
    0.0585   -2.0642    5.5199 H   0  0  0  0  0  0  0  0  0  0  0  0
   -0.6261   -2.1849    2.9917 N   0  0  0  0  0  0  0  0  0  0  0  0
   -0.7237   -2.2601    1.5650 C   0  0  2  0  0  0  0  0  0  0  0  0
    0.1695   -1.1513    1.0687 C   0  0  0  0  0  0  0  0  0  0  0  0
    0.3193   -0.1267    1.7365 O   0  0  0  0  0  0  0  0  0  0  0  0
   -2.1397   -2.0663    1.0750 C   0  0  0  0  0  0  0  0  0  0  0  0
   -0.5717   -1.2606    3.4238 H   0  0  0  0  0  0  0  0  0  0  0  0
   -0.3076   -3.2111    1.2363 H   0  0  0  0  0  0  0  0  0  0  0  0
   -2.5584   -1.1089    1.4061 H   0  0  0  0  0  0  0  0  0  0  0  0
   -2.1682   -2.0790   -0.0197 H   0  0  0  0  0  0  0  0  0  0  0  0
   -2.7965   -2.8601    1.4459 H   0  0  0  0  0  0  0  0  0  0  0  0
    0.7724   -1.3745   -0.1593 N   0  0  0  0  0  0  0  0  0  0  0  0
    0.5614   -2.5964   -0.9244 C   0  0  2  0  0  0  0  0  0  0  0  0
    1.6157   -3.5728   -0.4972 C   0  0  0  0  0  0  0  0  0  0  0  0
    2.0234   -4.4091   -1.2948 O   0  0  0  0  0  0  0  0  0  0  0  0
    0.7345   -2.1771   -2.3796 C   0  0  0  0  0  0  0  0  0  0  0  0
    0.3244   -0.8671   -1.7112 C   0  0  0  0  0  0  0  0  0  0  0  0
    1.5408   -0.3981   -0.9273 C   0  0  0  0  0  0  0  0  0  0  0  0
   -0.4227   -3.0263   -0.7144 H   0  0  0  0  0  0  0  0  0  0  0  0
    0.0120   -2.7078   -3.0110 H   0  0  0  0  0  0  0  0  0  0  0  0
    1.7400   -2.3597   -2.7711 H   0  0  0  0  0  0  0  0  0  0  0  0
    0.0755   -0.1144   -2.4681 H   0  0  0  0  0  0  0  0  0  0  0  0
   -0.5410   -0.9920   -1.0542 H   0  0  0  0  0  0  0  0  0  0  0  0
    2.4811   -0.6014   -1.4471 H   0  0  0  0  0  0  0  0  0  0  0  0
    1.4806    0.6724   -0.7030 H   0  0  0  0  0  0  0  0  0  0  0  0
    1.9097   -3.1965    0.9902 N   0  0  0  0  0  0  0  0  0  0  0  0
    2.9678   -3.8477    1.7288 C   0  0  2  0  0  0  0  0  0  0  0  0
    4.2963   -3.4383    1.1068 C   0  0  0  0  0  0  0  0  0  0  0  0
    4.3991   -3.0320   -0.0488 O   0  0  0  0  0  0  0  0  0  0  0  0
    2.8035   -5.3595    1.7139 C   0  0  0  0  0  0  0  0  0  0  0  0
    1.2748   -2.5842    1.4936 H   0  0  0  0  0  0  0  0  0  0  0  0
    2.9137   -3.4719    2.7564 H   0  0  0  0  0  0  0  0  0  0  0  0
    2.8548   -5.7542    0.6927 H   0  0  0  0  0  0  0  0  0  0  0  0
    3.5896   -5.8497    2.2977 H   0  0  0  0  0  0  0  0  0  0  0  0
    1.8348   -5.6504    2.1344 H   0  0  0  0  0  0  0  0  0  0  0  0
    5.3596   -3.6210    1.9799 N   0  0  0  0  0  0  0  0  0  0  0  0
    6.7249   -3.3173    1.6199 C   0  0  0  0  0  0  0  0  0  0  0  0
    5.1796   -3.9447    2.9257 H   0  0  0  0  0  0  0  0  0  0  0  0
    7.2085   -4.2203    1.2189 H   0  0  0  0  0  0  0  0  0  0  0  0
    6.7352   -2.5260    0.8559 H   0  0  0  0  0  0  0  0  0  0  0  0
    7.2712   -2.9740    2.5109 H   0  0  0  0  0  0  0  0  0  0  0  0
 18 19  1  0  0  0  0
 19 31  1  0  0  0  0
 19 20  2  0  0  0  0
  8  9  1  0  0  0  0
  9 17  1  0  0  0  0
  9 10  2  0  0  0  0
  1  3  1  0  0  0  0
  1  7  1  0  0  0  0
  1  2  2  0  0  0  0
 32 33  1  0  0  0  0
 33 41  1  0  0  0  0
 33 34  2  0  0  0  0
 21 22  1  0  0  0  0
 22 23  1  0  0  0  0
 18 21  1  0  0  0  0
 17 23  1  0  0  0  0
 17 18  1  0  0  0  0
  8 11  1  0  0  0  0
 32 35  1  0  0  0  0
 41 42  1  0  0  0  0
  7  8  1  0  0  0  0
 31 32  1  0  0  0  0
 22 27  1  0  0  0  0
 22 28  1  0  0  0  0
 21 25  1  0  0  0  0
 21 26  1  0  0  0  0
 23 29  1  0  0  0  0
 23 30  1  0  0  0  0
 18 24  1  0  0  0  0
  3  4  1  0  0  0  0
  3  5  1  0  0  0  0
  3  6  1  0  0  0  0
 11 14  1  0  0  0  0
 11 15  1  0  0  0  0
 11 16  1  0  0  0  0
 35 38  1  0  0  0  0
 35 39  1  0  0  0  0
 35 40  1  0  0  0  0
 42 44  1  0  0  0  0
 42 45  1  0  0  0  0
 42 46  1  0  0  0  0
  8 13  1  0  0  0  0
 32 37  1  0  0  0  0
 31 36  1  0  0  0  0
 41 43  1  0  0  0  0
  7 12  1  0  0  0  0
M  END
$$$$

  -OEChem-05262214473D

 46 46  0     1  0  0  0  0  0999 V2000
   -0.6012   -3.2995    3.8205 C   0  0  0  0  0  0  0  0  0  0  0  0
   -0.6574   -4.4683    3.4568 O   0  0  0  0  0  0  0  0  0  0  0  0
   -0.4935   -2.9859    5.2760 C   0  0  0  0  0  0  0  0  0  0  0  0
   -1.4789   -2.8689    5.7550 H   0  0  0  0  0  0  0  0  0  0  0  0
    0.0123   -3.7847    5.8419 H   0  0  0  0  0  0  0  0  0  0  0  0
    0.0585   -2.0642    5.5199 H   0  0  0  0  0  0  0  0  0  0  0  0
   -0.6261   -2.1849    2.9917 N   0  0  0  0  0  0  0  0  0  0  0  0
   -0.7237   -2.2601    1.5650 C   0  0  2  0  0  0  0  0  0  0  0  0
    0.1695   -1.1513    1.0687 C   0  0  0  0  0  0  0  0  0  0  0  0
    0.3193   -0.1267    1.7365 O   0  0  0  0  0  0  0  0  0  0  0  0
   -2.1397   -2.0663    1.0750 C   0  0  0  0  0  0  0  0  0  0  0  0
   -0.5717   -1.2606    3.4238 H   0  0  0  0  0  0  0  0  0  0  0  0
   -0.3076   -3.2111    1.2363 H   0  0  0  0  0  0  0  0  0  0  0  0
   -2.5584   -1.1089    1.4061 H   0  0  0  0  0  0  0  0  0  0  0  0
   -2.1682   -2.0790   -0.0197 H   0  0  0  0  0  0  0  0  0  0  0  0
   -2.7965   -2.8601    1.4459 H   0  0  0  0  0  0  0  0  0  0  0  0
    0.7724   -1.3745   -0.1593 N   0  0  0  0  0  0  0  0  0  0  0  0
    0.5614   -2.5964   -0.9244 C   0  0  2  0  0  0  0  0  0  0  0  0
    1.6157   -3.5728   -0.4972 C   0  0  0  0  0  0  0  0  0  0  0  0
    2.2201   -4.2188   -1.3452 O   0  0  0  0  0  0  0  0  0  0  0  0
    0.7345   -2.1771   -2.3796 C   0  0  0  0  0  0  0  0  0  0  0  0
    0.3244   -0.8671   -1.7112 C   0  0  0  0  0  0  0  0  0  0  0  0
    1.5408   -0.3981   -0.9273 C   0  0  0  0  0  0  0  0  0  0  0  0
   -0.4227   -3.0263   -0.7144 H   0  0  0  0  0  0  0  0  0  0  0  0
    0.0120   -2.7078   -3.0110 H   0  0  0  0  0  0  0  0  0  0  0  0
    1.7400   -2.3597   -2.7711 H   0  0  0  0  0  0  0  0  0  0  0  0
    0.0755   -0.1144   -2.4681 H   0  0  0  0  0  0  0  0  0  0  0  0
   -0.5410   -0.9920   -1.0542 H   0  0  0  0  0  0  0  0  0  0  0  0
    2.4811   -0.6014   -1.4471 H   0  0  0  0  0  0  0  0  0  0  0  0
    1.4806    0.6724   -0.7030 H   0  0  0  0  0  0  0  0  0  0  0  0
    1.6304   -3.4669    1.0614 N   0  0  0  0  0  0  0  0  0  0  0  0
    2.6090   -4.1829    1.8480 C   0  0  2  0  0  0  0  0  0  0  0  0
    3.9787   -3.5872    1.5504 C   0  0  0  0  0  0  0  0  0  0  0  0
    4.2303   -2.9653    0.5204 O   0  0  0  0  0  0  0  0  0  0  0  0
    2.5850   -5.6718    1.5392 C   0  0  0  0  0  0  0  0  0  0  0  0
    0.8703   -2.9983    1.5452 H   0  0  0  0  0  0  0  0  0  0  0  0
    2.3561   -4.0113    2.8999 H   0  0  0  0  0  0  0  0  0  0  0  0
    2.8360   -5.8635    0.4895 H   0  0  0  0  0  0  0  0  0  0  0  0
    3.3070   -6.2167    2.1564 H   0  0  0  0  0  0  0  0  0  0  0  0
    1.5910   -6.0925    1.7254 H   0  0  0  0  0  0  0  0  0  0  0  0
    4.8988   -3.8689    2.5506 N   0  0  0  0  0  0  0  0  0  0  0  0
    6.2717   -3.4240    2.4947 C   0  0  0  0  0  0  0  0  0  0  0  0
    4.5978   -4.3749    3.3783 H   0  0  0  0  0  0  0  0  0  0  0  0
    6.8924   -4.2057    2.0324 H   0  0  0  0  0  0  0  0  0  0  0  0
    6.3347   -2.5037    1.8955 H   0  0  0  0  0  0  0  0  0  0  0  0
    6.6337   -3.2235    3.5139 H   0  0  0  0  0  0  0  0  0  0  0  0
 18 19  1  0  0  0  0
 19 31  1  0  0  0  0
 19 20  2  0  0  0  0
  8  9  1  0  0  0  0
  9 17  1  0  0  0  0
  9 10  2  0  0  0  0
  1  3  1  0  0  0  0
  1  7  1  0  0  0  0
  1  2  2  0  0  0  0
 32 33  1  0  0  0  0
 33 41  1  0  0  0  0
 33 34  2  0  0  0  0
 21 22  1  0  0  0  0
 22 23  1  0  0  0  0
 18 21  1  0  0  0  0
 17 23  1  0  0  0  0
 17 18  1  0  0  0  0
  8 11  1  0  0  0  0
 32 35  1  0  0  0  0
 41 42  1  0  0  0  0
  7  8  1  0  0  0  0
 31 32  1  0  0  0  0
 22 27  1  0  0  0  0
 22 28  1  0  0  0  0
 21 25  1  0  0  0  0
 21 26  1  0  0  0  0
 23 29  1  0  0  0  0
 23 30  1  0  0  0  0
 18 24  1  0  0  0  0
  3  4  1  0  0  0  0
  3  5  1  0  0  0  0
  3  6  1  0  0  0  0
 11 14  1  0  0  0  0
 11 15  1  0  0  0  0
 11 16  1  0  0  0  0
 35 38  1  0  0  0  0
 35 39  1  0  0  0  0
 35 40  1  0  0  0  0
 42 44  1  0  0  0  0
 42 45  1  0  0  0  0
 42 46  1  0  0  0  0
  8 13  1  0  0  0  0
 32 37  1  0  0  0  0
 31 36  1  0  0  0  0
 41 43  1  0  0  0  0
  7 12  1  0  0  0  0
M  END
$$$$

  -OEChem-05262214473D

 46 46  0     1  0  0  0  0  0999 V2000
   -0.6012   -3.2995    3.8205 C   0  0  0  0  0  0  0  0  0  0  0  0
   -0.6574   -4.4683    3.4568 O   0  0  0  0  0  0  0  0  0  0  0  0
   -0.4935   -2.9859    5.2760 C   0  0  0  0  0  0  0  0  0  0  0  0
   -1.4789   -2.8689    5.7550 H   0  0  0  0  0  0  0  0  0  0  0  0
    0.0123   -3.7847    5.8419 H   0  0  0  0  0  0  0  0  0  0  0  0
    0.0585   -2.0642    5.5199 H   0  0  0  0  0  0  0  0  0  0  0  0
   -0.6261   -2.1849    2.9917 N   0  0  0  0  0  0  0  0  0  0  0  0
   -0.7237   -2.2601    1.5650 C   0  0  2  0  0  0  0  0  0  0  0  0
    0.1695   -1.1513    1.0687 C   0  0  0  0  0  0  0  0  0  0  0  0
    0.3193   -0.1267    1.7365 O   0  0  0  0  0  0  0  0  0  0  0  0
   -2.1397   -2.0663    1.0750 C   0  0  0  0  0  0  0  0  0  0  0  0
   -0.5717   -1.2606    3.4238 H   0  0  0  0  0  0  0  0  0  0  0  0
   -0.3076   -3.2111    1.2363 H   0  0  0  0  0  0  0  0  0  0  0  0
   -2.5584   -1.1089    1.4061 H   0  0  0  0  0  0  0  0  0  0  0  0
   -2.1682   -2.0790   -0.0197 H   0  0  0  0  0  0  0  0  0  0  0  0
   -2.7965   -2.8601    1.4459 H   0  0  0  0  0  0  0  0  0  0  0  0
    0.7724   -1.3745   -0.1593 N   0  0  0  0  0  0  0  0  0  0  0  0
    0.5614   -2.5964   -0.9244 C   0  0  2  0  0  0  0  0  0  0  0  0
    1.6157   -3.5728   -0.4972 C   0  0  0  0  0  0  0  0  0  0  0  0
    2.4046   -4.0113   -1.3261 O   0  0  0  0  0  0  0  0  0  0  0  0
    0.7345   -2.1771   -2.3796 C   0  0  0  0  0  0  0  0  0  0  0  0
    0.3244   -0.8671   -1.7112 C   0  0  0  0  0  0  0  0  0  0  0  0
    1.5408   -0.3981   -0.9273 C   0  0  0  0  0  0  0  0  0  0  0  0
   -0.4227   -3.0263   -0.7144 H   0  0  0  0  0  0  0  0  0  0  0  0
    0.0120   -2.7078   -3.0110 H   0  0  0  0  0  0  0  0  0  0  0  0
    1.7400   -2.3597   -2.7711 H   0  0  0  0  0  0  0  0  0  0  0  0
    0.0755   -0.1144   -2.4681 H   0  0  0  0  0  0  0  0  0  0  0  0
   -0.5410   -0.9920   -1.0542 H   0  0  0  0  0  0  0  0  0  0  0  0
    2.4811   -0.6014   -1.4471 H   0  0  0  0  0  0  0  0  0  0  0  0
    1.4806    0.6724   -0.7030 H   0  0  0  0  0  0  0  0  0  0  0  0
    1.3686   -3.7617    1.0338 N   0  0  0  0  0  0  0  0  0  0  0  0
    2.2671   -4.5549    1.8416 C   0  0  2  0  0  0  0  0  0  0  0  0
    3.6081   -3.8352    1.8982 C   0  0  0  0  0  0  0  0  0  0  0  0
    3.9664   -3.0168    1.0539 O   0  0  0  0  0  0  0  0  0  0  0  0
    2.4265   -5.9578    1.2766 C   0  0  0  0  0  0  0  0  0  0  0  0
    0.5015   -3.4376    1.4514 H   0  0  0  0  0  0  0  0  0  0  0  0
    1.8331   -4.5994    2.8464 H   0  0  0  0  0  0  0  0  0  0  0  0
    2.8600   -5.9335    0.2702 H   0  0  0  0  0  0  0  0  0  0  0  0
    3.0849   -6.5663    1.9054 H   0  0  0  0  0  0  0  0  0  0  0  0
    1.4571   -6.4632    1.2088 H   0  0  0  0  0  0  0  0  0  0  0  0
    4.3757   -4.2463    2.9790 N   0  0  0  0  0  0  0  0  0  0  0  0
    5.6943   -3.7198    3.2439 C   0  0  0  0  0  0  0  0  0  0  0  0
    3.9913   -4.9157    3.6391 H   0  0  0  0  0  0  0  0  0  0  0  0
    6.4490   -4.3629    2.7676 H   0  0  0  0  0  0  0  0  0  0  0  0
    5.7709   -2.7010    2.8361 H   0  0  0  0  0  0  0  0  0  0  0  0
    5.8673   -3.6941    4.3299 H   0  0  0  0  0  0  0  0  0  0  0  0
 18 19  1  0  0  0  0
 19 31  1  0  0  0  0
 19 20  2  0  0  0  0
  8  9  1  0  0  0  0
  9 17  1  0  0  0  0
  9 10  2  0  0  0  0
  1  3  1  0  0  0  0
  1  7  1  0  0  0  0
  1  2  2  0  0  0  0
 32 33  1  0  0  0  0
 33 41  1  0  0  0  0
 33 34  2  0  0  0  0
 21 22  1  0  0  0  0
 22 23  1  0  0  0  0
 18 21  1  0  0  0  0
 17 23  1  0  0  0  0
 17 18  1  0  0  0  0
  8 11  1  0  0  0  0
 32 35  1  0  0  0  0
 41 42  1  0  0  0  0
  7  8  1  0  0  0  0
 31 32  1  0  0  0  0
 22 27  1  0  0  0  0
 22 28  1  0  0  0  0
 21 25  1  0  0  0  0
 21 26  1  0  0  0  0
 23 29  1  0  0  0  0
 23 30  1  0  0  0  0
 18 24  1  0  0  0  0
  3  4  1  0  0  0  0
  3  5  1  0  0  0  0
  3  6  1  0  0  0  0
 11 14  1  0  0  0  0
 11 15  1  0  0  0  0
 11 16  1  0  0  0  0
 35 38  1  0  0  0  0
 35 39  1  0  0  0  0
 35 40  1  0  0  0  0
 42 44  1  0  0  0  0
 42 45  1  0  0  0  0
 42 46  1  0  0  0  0
  8 13  1  0  0  0  0
 32 37  1  0  0  0  0
 31 36  1  0  0  0  0
 41 43  1  0  0  0  0
  7 12  1  0  0  0  0
M  END
$$$$

  -OEChem-05262214473D

 46 46  0     1  0  0  0  0  0999 V2000
   -0.6012   -3.2995    3.8205 C   0  0  0  0  0  0  0  0  0  0  0  0
   -0.6574   -4.4683    3.4568 O   0  0  0  0  0  0  0  0  0  0  0  0
   -0.4935   -2.9859    5.2760 C   0  0  0  0  0  0  0  0  0  0  0  0
   -1.4789   -2.8689    5.7550 H   0  0  0  0  0  0  0  0  0  0  0  0
    0.0123   -3.7847    5.8419 H   0  0  0  0  0  0  0  0  0  0  0  0
    0.0585   -2.0642    5.5199 H   0  0  0  0  0  0  0  0  0  0  0  0
   -0.6261   -2.1849    2.9917 N   0  0  0  0  0  0  0  0  0  0  0  0
   -0.7237   -2.2601    1.5650 C   0  0  2  0  0  0  0  0  0  0  0  0
    0.1695   -1.1513    1.0687 C   0  0  0  0  0  0  0  0  0  0  0  0
    0.3193   -0.1267    1.7365 O   0  0  0  0  0  0  0  0  0  0  0  0
   -2.1397   -2.0663    1.0750 C   0  0  0  0  0  0  0  0  0  0  0  0
   -0.5717   -1.2606    3.4238 H   0  0  0  0  0  0  0  0  0  0  0  0
   -0.3076   -3.2111    1.2363 H   0  0  0  0  0  0  0  0  0  0  0  0
   -2.5584   -1.1089    1.4061 H   0  0  0  0  0  0  0  0  0  0  0  0
   -2.1682   -2.0790   -0.0197 H   0  0  0  0  0  0  0  0  0  0  0  0
   -2.7965   -2.8601    1.4459 H   0  0  0  0  0  0  0  0  0  0  0  0
    0.7724   -1.3745   -0.1593 N   0  0  0  0  0  0  0  0  0  0  0  0
    0.5614   -2.5964   -0.9244 C   0  0  2  0  0  0  0  0  0  0  0  0
    1.6157   -3.5728   -0.4972 C   0  0  0  0  0  0  0  0  0  0  0  0
    2.5642   -3.8007   -1.2389 O   0  0  0  0  0  0  0  0  0  0  0  0
    0.7345   -2.1771   -2.3796 C   0  0  0  0  0  0  0  0  0  0  0  0
    0.3244   -0.8671   -1.7112 C   0  0  0  0  0  0  0  0  0  0  0  0
    1.5408   -0.3981   -0.9273 C   0  0  0  0  0  0  0  0  0  0  0  0
   -0.4227   -3.0263   -0.7144 H   0  0  0  0  0  0  0  0  0  0  0  0
    0.0120   -2.7078   -3.0110 H   0  0  0  0  0  0  0  0  0  0  0  0
    1.7400   -2.3597   -2.7711 H   0  0  0  0  0  0  0  0  0  0  0  0
    0.0755   -0.1144   -2.4681 H   0  0  0  0  0  0  0  0  0  0  0  0
   -0.5410   -0.9920   -1.0542 H   0  0  0  0  0  0  0  0  0  0  0  0
    2.4811   -0.6014   -1.4471 H   0  0  0  0  0  0  0  0  0  0  0  0
    1.4806    0.6724   -0.7030 H   0  0  0  0  0  0  0  0  0  0  0  0
    1.1421   -4.0607    0.9093 N   0  0  0  0  0  0  0  0  0  0  0  0
    1.9653   -4.9383    1.7101 C   0  0  2  0  0  0  0  0  0  0  0  0
    3.2098   -4.1654    2.1266 C   0  0  0  0  0  0  0  0  0  0  0  0
    3.6253   -3.1832    1.5153 O   0  0  0  0  0  0  0  0  0  0  0  0
    2.3388   -6.1980    0.9443 C   0  0  0  0  0  0  0  0  0  0  0  0
    0.1934   -3.8720    1.2188 H   0  0  0  0  0  0  0  0  0  0  0  0
    1.3802   -5.1964    2.5995 H   0  0  0  0  0  0  0  0  0  0  0  0
    2.9254   -5.9593    0.0497 H   0  0  0  0  0  0  0  0  0  0  0  0
    2.9384   -6.8747    1.5619 H   0  0  0  0  0  0  0  0  0  0  0  0
    1.4421   -6.7370    0.6197 H   0  0  0  0  0  0  0  0  0  0  0  0
    3.8261   -4.7273    3.2359 N   0  0  0  0  0  0  0  0  0  0  0  0
    5.0321   -4.1844    3.8163 C   0  0  0  0  0  0  0  0  0  0  0  0
    3.4013   -5.5303    3.6903 H   0  0  0  0  0  0  0  0  0  0  0  0
    5.9083   -4.6813    3.3743 H   0  0  0  0  0  0  0  0  0  0  0  0
    5.0823   -3.1044    3.6138 H   0  0  0  0  0  0  0  0  0  0  0  0
    5.0242   -4.3537    4.9032 H   0  0  0  0  0  0  0  0  0  0  0  0
 18 19  1  0  0  0  0
 19 31  1  0  0  0  0
 19 20  2  0  0  0  0
  8  9  1  0  0  0  0
  9 17  1  0  0  0  0
  9 10  2  0  0  0  0
  1  3  1  0  0  0  0
  1  7  1  0  0  0  0
  1  2  2  0  0  0  0
 32 33  1  0  0  0  0
 33 41  1  0  0  0  0
 33 34  2  0  0  0  0
 21 22  1  0  0  0  0
 22 23  1  0  0  0  0
 18 21  1  0  0  0  0
 17 23  1  0  0  0  0
 17 18  1  0  0  0  0
  8 11  1  0  0  0  0
 32 35  1  0  0  0  0
 41 42  1  0  0  0  0
  7  8  1  0  0  0  0
 31 32  1  0  0  0  0
 22 27  1  0  0  0  0
 22 28  1  0  0  0  0
 21 25  1  0  0  0  0
 21 26  1  0  0  0  0
 23 29  1  0  0  0  0
 23 30  1  0  0  0  0
 18 24  1  0  0  0  0
  3  4  1  0  0  0  0
  3  5  1  0  0  0  0
  3  6  1  0  0  0  0
 11 14  1  0  0  0  0
 11 15  1  0  0  0  0
 11 16  1  0  0  0  0
 35 38  1  0  0  0  0
 35 39  1  0  0  0  0
 35 40  1  0  0  0  0
 42 44  1  0  0  0  0
 42 45  1  0  0  0  0
 42 46  1  0  0  0  0
  8 13  1  0  0  0  0
 32 37  1  0  0  0  0
 31 36  1  0  0  0  0
 41 43  1  0  0  0  0
  7 12  1  0  0  0  0
M  END
$$$$

  -OEChem-05262214473D

 46 46  0     1  0  0  0  0  0999 V2000
   -0.6012   -3.2995    3.8205 C   0  0  0  0  0  0  0  0  0  0  0  0
   -0.6574   -4.4683    3.4568 O   0  0  0  0  0  0  0  0  0  0  0  0
   -0.4935   -2.9859    5.2760 C   0  0  0  0  0  0  0  0  0  0  0  0
   -1.4789   -2.8689    5.7550 H   0  0  0  0  0  0  0  0  0  0  0  0
    0.0123   -3.7847    5.8419 H   0  0  0  0  0  0  0  0  0  0  0  0
    0.0585   -2.0642    5.5199 H   0  0  0  0  0  0  0  0  0  0  0  0
   -0.6261   -2.1849    2.9917 N   0  0  0  0  0  0  0  0  0  0  0  0
   -0.7237   -2.2601    1.5650 C   0  0  2  0  0  0  0  0  0  0  0  0
    0.1695   -1.1513    1.0687 C   0  0  0  0  0  0  0  0  0  0  0  0
    0.3193   -0.1267    1.7365 O   0  0  0  0  0  0  0  0  0  0  0  0
   -2.1397   -2.0663    1.0750 C   0  0  0  0  0  0  0  0  0  0  0  0
   -0.5717   -1.2606    3.4238 H   0  0  0  0  0  0  0  0  0  0  0  0
   -0.3076   -3.2111    1.2363 H   0  0  0  0  0  0  0  0  0  0  0  0
   -2.5584   -1.1089    1.4061 H   0  0  0  0  0  0  0  0  0  0  0  0
   -2.1682   -2.0790   -0.0197 H   0  0  0  0  0  0  0  0  0  0  0  0
   -2.7965   -2.8601    1.4459 H   0  0  0  0  0  0  0  0  0  0  0  0
    0.7724   -1.3745   -0.1593 N   0  0  0  0  0  0  0  0  0  0  0  0
    0.5614   -2.5964   -0.9244 C   0  0  2  0  0  0  0  0  0  0  0  0
    1.6157   -3.5728   -0.4972 C   0  0  0  0  0  0  0  0  0  0  0  0
    2.6882   -3.6014   -1.0893 O   0  0  0  0  0  0  0  0  0  0  0  0
    0.7345   -2.1771   -2.3796 C   0  0  0  0  0  0  0  0  0  0  0  0
    0.3244   -0.8671   -1.7112 C   0  0  0  0  0  0  0  0  0  0  0  0
    1.5408   -0.3981   -0.9273 C   0  0  0  0  0  0  0  0  0  0  0  0
   -0.4227   -3.0263   -0.7144 H   0  0  0  0  0  0  0  0  0  0  0  0
    0.0120   -2.7078   -3.0110 H   0  0  0  0  0  0  0  0  0  0  0  0
    1.7400   -2.3597   -2.7711 H   0  0  0  0  0  0  0  0  0  0  0  0
    0.0755   -0.1144   -2.4681 H   0  0  0  0  0  0  0  0  0  0  0  0
   -0.5410   -0.9920   -1.0542 H   0  0  0  0  0  0  0  0  0  0  0  0
    2.4811   -0.6014   -1.4471 H   0  0  0  0  0  0  0  0  0  0  0  0
    1.4806    0.6724   -0.7030 H   0  0  0  0  0  0  0  0  0  0  0  0
    0.9664   -4.3436    0.6965 N   0  0  0  0  0  0  0  0  0  0  0  0
    1.7243   -5.3069    1.4624 C   0  0  2  0  0  0  0  0  0  0  0  0
    2.8109   -4.5553    2.2200 C   0  0  0  0  0  0  0  0  0  0  0  0
    3.2304   -3.4531    1.8733 O   0  0  0  0  0  0  0  0  0  0  0  0
    2.3277   -6.3759    0.5647 C   0  0  0  0  0  0  0  0  0  0  0  0
   -0.0329   -4.2721    0.8630 H   0  0  0  0  0  0  0  0  0  0  0  0
    1.0285   -5.7615    2.1760 H   0  0  0  0  0  0  0  0  0  0  0  0
    3.0276   -5.9394   -0.1570 H   0  0  0  0  0  0  0  0  0  0  0  0
    2.8776   -7.1208    1.1494 H   0  0  0  0  0  0  0  0  0  0  0  0
    1.5472   -6.8954   -0.0016 H   0  0  0  0  0  0  0  0  0  0  0  0
    3.2874   -5.2793    3.3039 N   0  0  0  0  0  0  0  0  0  0  0  0
    4.3302   -4.7862    4.1731 C   0  0  0  0  0  0  0  0  0  0  0  0
    2.8681   -6.1768    3.5285 H   0  0  0  0  0  0  0  0  0  0  0  0
    5.3072   -5.1392    3.8113 H   0  0  0  0  0  0  0  0  0  0  0  0
    4.3158   -3.6863    4.1754 H   0  0  0  0  0  0  0  0  0  0  0  0
    4.1618   -5.1573    5.1948 H   0  0  0  0  0  0  0  0  0  0  0  0
 18 19  1  0  0  0  0
 19 31  1  0  0  0  0
 19 20  2  0  0  0  0
  8  9  1  0  0  0  0
  9 17  1  0  0  0  0
  9 10  2  0  0  0  0
  1  3  1  0  0  0  0
  1  7  1  0  0  0  0
  1  2  2  0  0  0  0
 32 33  1  0  0  0  0
 33 41  1  0  0  0  0
 33 34  2  0  0  0  0
 21 22  1  0  0  0  0
 22 23  1  0  0  0  0
 18 21  1  0  0  0  0
 17 23  1  0  0  0  0
 17 18  1  0  0  0  0
  8 11  1  0  0  0  0
 32 35  1  0  0  0  0
 41 42  1  0  0  0  0
  7  8  1  0  0  0  0
 31 32  1  0  0  0  0
 22 27  1  0  0  0  0
 22 28  1  0  0  0  0
 21 25  1  0  0  0  0
 21 26  1  0  0  0  0
 23 29  1  0  0  0  0
 23 30  1  0  0  0  0
 18 24  1  0  0  0  0
  3  4  1  0  0  0  0
  3  5  1  0  0  0  0
  3  6  1  0  0  0  0
 11 14  1  0  0  0  0
 11 15  1  0  0  0  0
 11 16  1  0  0  0  0
 35 38  1  0  0  0  0
 35 39  1  0  0  0  0
 35 40  1  0  0  0  0
 42 44  1  0  0  0  0
 42 45  1  0  0  0  0
 42 46  1  0  0  0  0
  8 13  1  0  0  0  0
 32 37  1  0  0  0  0
 31 36  1  0  0  0  0
 41 43  1  0  0  0  0
  7 12  1  0  0  0  0
M  END
$$$$

  -OEChem-05262214473D

 46 46  0     1  0  0  0  0  0999 V2000
   -0.6012   -3.2995    3.8205 C   0  0  0  0  0  0  0  0  0  0  0  0
   -0.6574   -4.4683    3.4568 O   0  0  0  0  0  0  0  0  0  0  0  0
   -0.4935   -2.9859    5.2760 C   0  0  0  0  0  0  0  0  0  0  0  0
   -1.4789   -2.8689    5.7550 H   0  0  0  0  0  0  0  0  0  0  0  0
    0.0123   -3.7847    5.8419 H   0  0  0  0  0  0  0  0  0  0  0  0
    0.0585   -2.0642    5.5199 H   0  0  0  0  0  0  0  0  0  0  0  0
   -0.6261   -2.1849    2.9917 N   0  0  0  0  0  0  0  0  0  0  0  0
   -0.7237   -2.2601    1.5650 C   0  0  2  0  0  0  0  0  0  0  0  0
    0.1695   -1.1513    1.0687 C   0  0  0  0  0  0  0  0  0  0  0  0
    0.3193   -0.1267    1.7365 O   0  0  0  0  0  0  0  0  0  0  0  0
   -2.1397   -2.0663    1.0750 C   0  0  0  0  0  0  0  0  0  0  0  0
   -0.5717   -1.2606    3.4238 H   0  0  0  0  0  0  0  0  0  0  0  0
   -0.3076   -3.2111    1.2363 H   0  0  0  0  0  0  0  0  0  0  0  0
   -2.5584   -1.1089    1.4061 H   0  0  0  0  0  0  0  0  0  0  0  0
   -2.1682   -2.0790   -0.0197 H   0  0  0  0  0  0  0  0  0  0  0  0
   -2.7965   -2.8601    1.4459 H   0  0  0  0  0  0  0  0  0  0  0  0
    0.7724   -1.3745   -0.1593 N   0  0  0  0  0  0  0  0  0  0  0  0
    0.5614   -2.5964   -0.9244 C   0  0  2  0  0  0  0  0  0  0  0  0
    1.6157   -3.5728   -0.4972 C   0  0  0  0  0  0  0  0  0  0  0  0
    2.7681   -3.4270   -0.8876 O   0  0  0  0  0  0  0  0  0  0  0  0
    0.7345   -2.1771   -2.3796 C   0  0  0  0  0  0  0  0  0  0  0  0
    0.3244   -0.8671   -1.7112 C   0  0  0  0  0  0  0  0  0  0  0  0
    1.5408   -0.3981   -0.9273 C   0  0  0  0  0  0  0  0  0  0  0  0
   -0.4227   -3.0263   -0.7144 H   0  0  0  0  0  0  0  0  0  0  0  0
    0.0120   -2.7078   -3.0110 H   0  0  0  0  0  0  0  0  0  0  0  0
    1.7400   -2.3597   -2.7711 H   0  0  0  0  0  0  0  0  0  0  0  0
    0.0755   -0.1144   -2.4681 H   0  0  0  0  0  0  0  0  0  0  0  0
   -0.5410   -0.9920   -1.0542 H   0  0  0  0  0  0  0  0  0  0  0  0
    2.4811   -0.6014   -1.4471 H   0  0  0  0  0  0  0  0  0  0  0  0
    1.4806    0.6724   -0.7030 H   0  0  0  0  0  0  0  0  0  0  0  0
    0.8533   -4.5910    0.4098 N   0  0  0  0  0  0  0  0  0  0  0  0
    1.5604   -5.6356    1.1154 C   0  0  2  0  0  0  0  0  0  0  0  0
    2.4386   -4.9783    2.1719 C   0  0  0  0  0  0  0  0  0  0  0  0
    2.8084   -3.8080    2.1033 O   0  0  0  0  0  0  0  0  0  0  0  0
    2.3941   -6.4796    0.1639 C   0  0  0  0  0  0  0  0  0  0  0  0
   -0.1621   -4.6104    0.4084 H   0  0  0  0  0  0  0  0  0  0  0  0
    0.8018   -6.2562    1.6047 H   0  0  0  0  0  0  0  0  0  0  0  0
    3.1597   -5.8749   -0.3358 H   0  0  0  0  0  0  0  0  0  0  0  0
    2.9066   -7.2880    0.6958 H   0  0  0  0  0  0  0  0  0  0  0  0
    1.7651   -6.9275   -0.6129 H   0  0  0  0  0  0  0  0  0  0  0  0
    2.7962   -5.8646    3.1783 N   0  0  0  0  0  0  0  0  0  0  0  0
    3.6365   -5.4842    4.2898 C   0  0  0  0  0  0  0  0  0  0  0  0
    2.4281   -6.8112    3.1646 H   0  0  0  0  0  0  0  0  0  0  0  0
    4.6867   -5.7053    4.0487 H   0  0  0  0  0  0  0  0  0  0  0  0
    3.5236   -4.4072    4.4828 H   0  0  0  0  0  0  0  0  0  0  0  0
    3.3388   -6.0503    5.1848 H   0  0  0  0  0  0  0  0  0  0  0  0
 18 19  1  0  0  0  0
 19 31  1  0  0  0  0
 19 20  2  0  0  0  0
  8  9  1  0  0  0  0
  9 17  1  0  0  0  0
  9 10  2  0  0  0  0
  1  3  1  0  0  0  0
  1  7  1  0  0  0  0
  1  2  2  0  0  0  0
 32 33  1  0  0  0  0
 33 41  1  0  0  0  0
 33 34  2  0  0  0  0
 21 22  1  0  0  0  0
 22 23  1  0  0  0  0
 18 21  1  0  0  0  0
 17 23  1  0  0  0  0
 17 18  1  0  0  0  0
  8 11  1  0  0  0  0
 32 35  1  0  0  0  0
 41 42  1  0  0  0  0
  7  8  1  0  0  0  0
 31 32  1  0  0  0  0
 22 27  1  0  0  0  0
 22 28  1  0  0  0  0
 21 25  1  0  0  0  0
 21 26  1  0  0  0  0
 23 29  1  0  0  0  0
 23 30  1  0  0  0  0
 18 24  1  0  0  0  0
  3  4  1  0  0  0  0
  3  5  1  0  0  0  0
  3  6  1  0  0  0  0
 11 14  1  0  0  0  0
 11 15  1  0  0  0  0
 11 16  1  0  0  0  0
 35 38  1  0  0  0  0
 35 39  1  0  0  0  0
 35 40  1  0  0  0  0
 42 44  1  0  0  0  0
 42 45  1  0  0  0  0
 42 46  1  0  0  0  0
  8 13  1  0  0  0  0
 32 37  1  0  0  0  0
 31 36  1  0  0  0  0
 41 43  1  0  0  0  0
  7 12  1  0  0  0  0
M  END
$$$$

  -OEChem-05262214473D

 46 46  0     1  0  0  0  0  0999 V2000
   -0.6012   -3.2995    3.8205 C   0  0  0  0  0  0  0  0  0  0  0  0
   -0.6574   -4.4683    3.4568 O   0  0  0  0  0  0  0  0  0  0  0  0
   -0.4935   -2.9859    5.2760 C   0  0  0  0  0  0  0  0  0  0  0  0
   -1.4789   -2.8689    5.7550 H   0  0  0  0  0  0  0  0  0  0  0  0
    0.0123   -3.7847    5.8419 H   0  0  0  0  0  0  0  0  0  0  0  0
    0.0585   -2.0642    5.5199 H   0  0  0  0  0  0  0  0  0  0  0  0
   -0.6261   -2.1849    2.9917 N   0  0  0  0  0  0  0  0  0  0  0  0
   -0.7237   -2.2601    1.5650 C   0  0  2  0  0  0  0  0  0  0  0  0
    0.1695   -1.1513    1.0687 C   0  0  0  0  0  0  0  0  0  0  0  0
    0.3193   -0.1267    1.7365 O   0  0  0  0  0  0  0  0  0  0  0  0
   -2.1397   -2.0663    1.0750 C   0  0  0  0  0  0  0  0  0  0  0  0
   -0.5717   -1.2606    3.4238 H   0  0  0  0  0  0  0  0  0  0  0  0
   -0.3076   -3.2111    1.2363 H   0  0  0  0  0  0  0  0  0  0  0  0
   -2.5584   -1.1089    1.4061 H   0  0  0  0  0  0  0  0  0  0  0  0
   -2.1682   -2.0790   -0.0197 H   0  0  0  0  0  0  0  0  0  0  0  0
   -2.7965   -2.8601    1.4459 H   0  0  0  0  0  0  0  0  0  0  0  0
    0.7724   -1.3745   -0.1593 N   0  0  0  0  0  0  0  0  0  0  0  0
    0.5614   -2.5964   -0.9244 C   0  0  2  0  0  0  0  0  0  0  0  0
    1.6157   -3.5728   -0.4972 C   0  0  0  0  0  0  0  0  0  0  0  0
    2.7983   -3.2893   -0.6477 O   0  0  0  0  0  0  0  0  0  0  0  0
    0.7345   -2.1771   -2.3796 C   0  0  0  0  0  0  0  0  0  0  0  0
    0.3244   -0.8671   -1.7112 C   0  0  0  0  0  0  0  0  0  0  0  0
    1.5408   -0.3981   -0.9273 C   0  0  0  0  0  0  0  0  0  0  0  0
   -0.4227   -3.0263   -0.7144 H   0  0  0  0  0  0  0  0  0  0  0  0
    0.0120   -2.7078   -3.0110 H   0  0  0  0  0  0  0  0  0  0  0  0
    1.7400   -2.3597   -2.7711 H   0  0  0  0  0  0  0  0  0  0  0  0
    0.0755   -0.1144   -2.4681 H   0  0  0  0  0  0  0  0  0  0  0  0
   -0.5410   -0.9920   -1.0542 H   0  0  0  0  0  0  0  0  0  0  0  0
    2.4811   -0.6014   -1.4471 H   0  0  0  0  0  0  0  0  0  0  0  0
    1.4806    0.6724   -0.7030 H   0  0  0  0  0  0  0  0  0  0  0  0
    0.8107   -4.7862    0.0688 N   0  0  0  0  0  0  0  0  0  0  0  0
    1.4848   -5.9021    0.6928 C   0  0  2  0  0  0  0  0  0  0  0  0
    2.1183   -5.4056    1.9857 C   0  0  0  0  0  0  0  0  0  0  0  0
    2.3883   -4.2239    2.1898 O   0  0  0  0  0  0  0  0  0  0  0  0
    2.5335   -6.5018   -0.2310 C   0  0  0  0  0  0  0  0  0  0  0  0
   -0.1852   -4.8639   -0.1141 H   0  0  0  0  0  0  0  0  0  0  0  0
    0.7156   -6.6468    0.9247 H   0  0  0  0  0  0  0  0  0  0  0  0
    3.3128   -5.7704   -0.4745 H   0  0  0  0  0  0  0  0  0  0  0  0
    3.0234   -7.3647    0.2321 H   0  0  0  0  0  0  0  0  0  0  0  0
    2.0810   -6.8312   -1.1725 H   0  0  0  0  0  0  0  0  0  0  0  0
    2.3862   -6.4432    2.8677 N   0  0  0  0  0  0  0  0  0  0  0  0
    2.9982   -6.2308    4.1585 C   0  0  0  0  0  0  0  0  0  0  0  0
    2.1112   -7.3901    2.6235 H   0  0  0  0  0  0  0  0  0  0  0  0
    4.0891   -6.3412    4.0703 H   0  0  0  0  0  0  0  0  0  0  0  0
    2.7598   -5.2179    4.5150 H   0  0  0  0  0  0  0  0  0  0  0  0
    2.6115   -6.9717    4.8738 H   0  0  0  0  0  0  0  0  0  0  0  0
 18 19  1  0  0  0  0
 19 31  1  0  0  0  0
 19 20  2  0  0  0  0
  8  9  1  0  0  0  0
  9 17  1  0  0  0  0
  9 10  2  0  0  0  0
  1  3  1  0  0  0  0
  1  7  1  0  0  0  0
  1  2  2  0  0  0  0
 32 33  1  0  0  0  0
 33 41  1  0  0  0  0
 33 34  2  0  0  0  0
 21 22  1  0  0  0  0
 22 23  1  0  0  0  0
 18 21  1  0  0  0  0
 17 23  1  0  0  0  0
 17 18  1  0  0  0  0
  8 11  1  0  0  0  0
 32 35  1  0  0  0  0
 41 42  1  0  0  0  0
  7  8  1  0  0  0  0
 31 32  1  0  0  0  0
 22 27  1  0  0  0  0
 22 28  1  0  0  0  0
 21 25  1  0  0  0  0
 21 26  1  0  0  0  0
 23 29  1  0  0  0  0
 23 30  1  0  0  0  0
 18 24  1  0  0  0  0
  3  4  1  0  0  0  0
  3  5  1  0  0  0  0
  3  6  1  0  0  0  0
 11 14  1  0  0  0  0
 11 15  1  0  0  0  0
 11 16  1  0  0  0  0
 35 38  1  0  0  0  0
 35 39  1  0  0  0  0
 35 40  1  0  0  0  0
 42 44  1  0  0  0  0
 42 45  1  0  0  0  0
 42 46  1  0  0  0  0
  8 13  1  0  0  0  0
 32 37  1  0  0  0  0
 31 36  1  0  0  0  0
 41 43  1  0  0  0  0
  7 12  1  0  0  0  0
M  END
$$$$

  -OEChem-05262214473D

 46 46  0     1  0  0  0  0  0999 V2000
   -0.6012   -3.2995    3.8205 C   0  0  0  0  0  0  0  0  0  0  0  0
   -0.6574   -4.4683    3.4568 O   0  0  0  0  0  0  0  0  0  0  0  0
   -0.4935   -2.9859    5.2760 C   0  0  0  0  0  0  0  0  0  0  0  0
   -1.4789   -2.8689    5.7550 H   0  0  0  0  0  0  0  0  0  0  0  0
    0.0123   -3.7847    5.8419 H   0  0  0  0  0  0  0  0  0  0  0  0
    0.0585   -2.0642    5.5199 H   0  0  0  0  0  0  0  0  0  0  0  0
   -0.6261   -2.1849    2.9917 N   0  0  0  0  0  0  0  0  0  0  0  0
   -0.7237   -2.2601    1.5650 C   0  0  2  0  0  0  0  0  0  0  0  0
    0.1695   -1.1513    1.0687 C   0  0  0  0  0  0  0  0  0  0  0  0
    0.3193   -0.1267    1.7365 O   0  0  0  0  0  0  0  0  0  0  0  0
   -2.1397   -2.0663    1.0750 C   0  0  0  0  0  0  0  0  0  0  0  0
   -0.5717   -1.2606    3.4238 H   0  0  0  0  0  0  0  0  0  0  0  0
   -0.3076   -3.2111    1.2363 H   0  0  0  0  0  0  0  0  0  0  0  0
   -2.5584   -1.1089    1.4061 H   0  0  0  0  0  0  0  0  0  0  0  0
   -2.1682   -2.0790   -0.0197 H   0  0  0  0  0  0  0  0  0  0  0  0
   -2.7965   -2.8601    1.4459 H   0  0  0  0  0  0  0  0  0  0  0  0
    0.7724   -1.3745   -0.1593 N   0  0  0  0  0  0  0  0  0  0  0  0
    0.5614   -2.5964   -0.9244 C   0  0  2  0  0  0  0  0  0  0  0  0
    1.6157   -3.5728   -0.4972 C   0  0  0  0  0  0  0  0  0  0  0  0
    2.7770   -3.1978   -0.3857 O   0  0  0  0  0  0  0  0  0  0  0  0
    0.7345   -2.1771   -2.3796 C   0  0  0  0  0  0  0  0  0  0  0  0
    0.3244   -0.8671   -1.7112 C   0  0  0  0  0  0  0  0  0  0  0  0
    1.5408   -0.3981   -0.9273 C   0  0  0  0  0  0  0  0  0  0  0  0
   -0.4227   -3.0263   -0.7144 H   0  0  0  0  0  0  0  0  0  0  0  0
    0.0120   -2.7078   -3.0110 H   0  0  0  0  0  0  0  0  0  0  0  0
    1.7400   -2.3597   -2.7711 H   0  0  0  0  0  0  0  0  0  0  0  0
    0.0755   -0.1144   -2.4681 H   0  0  0  0  0  0  0  0  0  0  0  0
   -0.5410   -0.9920   -1.0542 H   0  0  0  0  0  0  0  0  0  0  0  0
    2.4811   -0.6014   -1.4471 H   0  0  0  0  0  0  0  0  0  0  0  0
    1.4806    0.6724   -0.7030 H   0  0  0  0  0  0  0  0  0  0  0  0
    0.8415   -4.9158   -0.3033 N   0  0  0  0  0  0  0  0  0  0  0  0
    1.5027   -6.0882    0.2233 C   0  0  2  0  0  0  0  0  0  0  0  0
    1.8718   -5.8081    1.6741 C   0  0  0  0  0  0  0  0  0  0  0  0
    1.9986   -4.6723    2.1268 O   0  0  0  0  0  0  0  0  0  0  0  0
    2.7364   -6.4411   -0.5929 C   0  0  0  0  0  0  0  0  0  0  0  0
   -0.1008   -5.0155   -0.6688 H   0  0  0  0  0  0  0  0  0  0  0  0
    0.7758   -6.9066    0.1822 H   0  0  0  0  0  0  0  0  0  0  0  0
    3.4762   -5.6329   -0.5637 H   0  0  0  0  0  0  0  0  0  0  0  0
    3.2200   -7.3459   -0.2100 H   0  0  0  0  0  0  0  0  0  0  0  0
    2.4733   -6.6131   -1.6422 H   0  0  0  0  0  0  0  0  0  0  0  0
    2.0851   -6.9759    2.3931 N   0  0  0  0  0  0  0  0  0  0  0  0
    2.4588   -6.9752    3.7883 C   0  0  0  0  0  0  0  0  0  0  0  0
    1.9390   -7.8742    1.9421 H   0  0  0  0  0  0  0  0  0  0  0  0
    3.5551   -7.0033    3.8748 H   0  0  0  0  0  0  0  0  0  0  0  0
    2.0764   -6.0631    4.2697 H   0  0  0  0  0  0  0  0  0  0  0  0
    2.0293   -7.8587    4.2832 H   0  0  0  0  0  0  0  0  0  0  0  0
 18 19  1  0  0  0  0
 19 31  1  0  0  0  0
 19 20  2  0  0  0  0
  8  9  1  0  0  0  0
  9 17  1  0  0  0  0
  9 10  2  0  0  0  0
  1  3  1  0  0  0  0
  1  7  1  0  0  0  0
  1  2  2  0  0  0  0
 32 33  1  0  0  0  0
 33 41  1  0  0  0  0
 33 34  2  0  0  0  0
 21 22  1  0  0  0  0
 22 23  1  0  0  0  0
 18 21  1  0  0  0  0
 17 23  1  0  0  0  0
 17 18  1  0  0  0  0
  8 11  1  0  0  0  0
 32 35  1  0  0  0  0
 41 42  1  0  0  0  0
  7  8  1  0  0  0  0
 31 32  1  0  0  0  0
 22 27  1  0  0  0  0
 22 28  1  0  0  0  0
 21 25  1  0  0  0  0
 21 26  1  0  0  0  0
 23 29  1  0  0  0  0
 23 30  1  0  0  0  0
 18 24  1  0  0  0  0
  3  4  1  0  0  0  0
  3  5  1  0  0  0  0
  3  6  1  0  0  0  0
 11 14  1  0  0  0  0
 11 15  1  0  0  0  0
 11 16  1  0  0  0  0
 35 38  1  0  0  0  0
 35 39  1  0  0  0  0
 35 40  1  0  0  0  0
 42 44  1  0  0  0  0
 42 45  1  0  0  0  0
 42 46  1  0  0  0  0
  8 13  1  0  0  0  0
 32 37  1  0  0  0  0
 31 36  1  0  0  0  0
 41 43  1  0  0  0  0
  7 12  1  0  0  0  0
M  END
$$$$

  -OEChem-05262214473D

 46 46  0     1  0  0  0  0  0999 V2000
   -0.6012   -3.2995    3.8205 C   0  0  0  0  0  0  0  0  0  0  0  0
   -0.6574   -4.4683    3.4568 O   0  0  0  0  0  0  0  0  0  0  0  0
   -0.4935   -2.9859    5.2760 C   0  0  0  0  0  0  0  0  0  0  0  0
   -1.4789   -2.8689    5.7550 H   0  0  0  0  0  0  0  0  0  0  0  0
    0.0123   -3.7847    5.8419 H   0  0  0  0  0  0  0  0  0  0  0  0
    0.0585   -2.0642    5.5199 H   0  0  0  0  0  0  0  0  0  0  0  0
   -0.6261   -2.1849    2.9917 N   0  0  0  0  0  0  0  0  0  0  0  0
   -0.7237   -2.2601    1.5650 C   0  0  2  0  0  0  0  0  0  0  0  0
    0.1695   -1.1513    1.0687 C   0  0  0  0  0  0  0  0  0  0  0  0
    0.3193   -0.1267    1.7365 O   0  0  0  0  0  0  0  0  0  0  0  0
   -2.1397   -2.0663    1.0750 C   0  0  0  0  0  0  0  0  0  0  0  0
   -0.5717   -1.2606    3.4238 H   0  0  0  0  0  0  0  0  0  0  0  0
   -0.3076   -3.2111    1.2363 H   0  0  0  0  0  0  0  0  0  0  0  0
   -2.5584   -1.1089    1.4061 H   0  0  0  0  0  0  0  0  0  0  0  0
   -2.1682   -2.0790   -0.0197 H   0  0  0  0  0  0  0  0  0  0  0  0
   -2.7965   -2.8601    1.4459 H   0  0  0  0  0  0  0  0  0  0  0  0
    0.7724   -1.3745   -0.1593 N   0  0  0  0  0  0  0  0  0  0  0  0
    0.5614   -2.5964   -0.9244 C   0  0  2  0  0  0  0  0  0  0  0  0
    1.6157   -3.5728   -0.4972 C   0  0  0  0  0  0  0  0  0  0  0  0
    2.7054   -3.1586   -0.1196 O   0  0  0  0  0  0  0  0  0  0  0  0
    0.7345   -2.1771   -2.3796 C   0  0  0  0  0  0  0  0  0  0  0  0
    0.3244   -0.8671   -1.7112 C   0  0  0  0  0  0  0  0  0  0  0  0
    1.5408   -0.3981   -0.9273 C   0  0  0  0  0  0  0  0  0  0  0  0
   -0.4227   -3.0263   -0.7144 H   0  0  0  0  0  0  0  0  0  0  0  0
    0.0120   -2.7078   -3.0110 H   0  0  0  0  0  0  0  0  0  0  0  0
    1.7400   -2.3597   -2.7711 H   0  0  0  0  0  0  0  0  0  0  0  0
    0.0755   -0.1144   -2.4681 H   0  0  0  0  0  0  0  0  0  0  0  0
   -0.5410   -0.9920   -1.0542 H   0  0  0  0  0  0  0  0  0  0  0  0
    2.4811   -0.6014   -1.4471 H   0  0  0  0  0  0  0  0  0  0  0  0
    1.4806    0.6724   -0.7030 H   0  0  0  0  0  0  0  0  0  0  0  0
    0.9434   -4.9710   -0.6811 N   0  0  0  0  0  0  0  0  0  0  0  0
    1.6129   -6.1811   -0.2610 C   0  0  2  0  0  0  0  0  0  0  0  0
    1.7159   -6.1583    1.2583 C   0  0  0  0  0  0  0  0  0  0  0  0
    1.6658   -5.1227    1.9186 O   0  0  0  0  0  0  0  0  0  0  0  0
    2.9888   -6.3017   -0.8973 C   0  0  0  0  0  0  0  0  0  0  0  0
    0.0854   -5.0546   -1.2180 H   0  0  0  0  0  0  0  0  0  0  0  0
    0.9782   -7.0180   -0.5721 H   0  0  0  0  0  0  0  0  0  0  0  0
    3.6390   -5.4718   -0.5972 H   0  0  0  0  0  0  0  0  0  0  0  0
    3.4830   -7.2327   -0.6005 H   0  0  0  0  0  0  0  0  0  0  0  0
    2.9154   -6.2879   -1.9901 H   0  0  0  0  0  0  0  0  0  0  0  0
    1.9136   -7.4262    1.7871 N   0  0  0  0  0  0  0  0  0  0  0  0
    2.0552   -7.6666    3.2042 C   0  0  0  0  0  0  0  0  0  0  0  0
    1.9232   -8.2304    1.1667 H   0  0  0  0  0  0  0  0  0  0  0  0
    3.1210   -7.6467    3.4753 H   0  0  0  0  0  0  0  0  0  0  0  0
    1.5200   -6.8853    3.7637 H   0  0  0  0  0  0  0  0  0  0  0  0
    1.6319   -8.6509    3.4530 H   0  0  0  0  0  0  0  0  0  0  0  0
 18 19  1  0  0  0  0
 19 31  1  0  0  0  0
 19 20  2  0  0  0  0
  8  9  1  0  0  0  0
  9 17  1  0  0  0  0
  9 10  2  0  0  0  0
  1  3  1  0  0  0  0
  1  7  1  0  0  0  0
  1  2  2  0  0  0  0
 32 33  1  0  0  0  0
 33 41  1  0  0  0  0
 33 34  2  0  0  0  0
 21 22  1  0  0  0  0
 22 23  1  0  0  0  0
 18 21  1  0  0  0  0
 17 23  1  0  0  0  0
 17 18  1  0  0  0  0
  8 11  1  0  0  0  0
 32 35  1  0  0  0  0
 41 42  1  0  0  0  0
  7  8  1  0  0  0  0
 31 32  1  0  0  0  0
 22 27  1  0  0  0  0
 22 28  1  0  0  0  0
 21 25  1  0  0  0  0
 21 26  1  0  0  0  0
 23 29  1  0  0  0  0
 23 30  1  0  0  0  0
 18 24  1  0  0  0  0
  3  4  1  0  0  0  0
  3  5  1  0  0  0  0
  3  6  1  0  0  0  0
 11 14  1  0  0  0  0
 11 15  1  0  0  0  0
 11 16  1  0  0  0  0
 35 38  1  0  0  0  0
 35 39  1  0  0  0  0
 35 40  1  0  0  0  0
 42 44  1  0  0  0  0
 42 45  1  0  0  0  0
 42 46  1  0  0  0  0
  8 13  1  0  0  0  0
 32 37  1  0  0  0  0
 31 36  1  0  0  0  0
 41 43  1  0  0  0  0
  7 12  1  0  0  0  0
M  END
$$$$

  -OEChem-05262214473D

 46 46  0     1  0  0  0  0  0999 V2000
   -0.6012   -3.2995    3.8205 C   0  0  0  0  0  0  0  0  0  0  0  0
   -0.6574   -4.4683    3.4568 O   0  0  0  0  0  0  0  0  0  0  0  0
   -0.4935   -2.9859    5.2760 C   0  0  0  0  0  0  0  0  0  0  0  0
   -1.4789   -2.8689    5.7550 H   0  0  0  0  0  0  0  0  0  0  0  0
    0.0123   -3.7847    5.8419 H   0  0  0  0  0  0  0  0  0  0  0  0
    0.0585   -2.0642    5.5199 H   0  0  0  0  0  0  0  0  0  0  0  0
   -0.6261   -2.1849    2.9917 N   0  0  0  0  0  0  0  0  0  0  0  0
   -0.7237   -2.2601    1.5650 C   0  0  2  0  0  0  0  0  0  0  0  0
    0.1695   -1.1513    1.0687 C   0  0  0  0  0  0  0  0  0  0  0  0
    0.3193   -0.1267    1.7365 O   0  0  0  0  0  0  0  0  0  0  0  0
   -2.1397   -2.0663    1.0750 C   0  0  0  0  0  0  0  0  0  0  0  0
   -0.5717   -1.2606    3.4238 H   0  0  0  0  0  0  0  0  0  0  0  0
   -0.3076   -3.2111    1.2363 H   0  0  0  0  0  0  0  0  0  0  0  0
   -2.5584   -1.1089    1.4061 H   0  0  0  0  0  0  0  0  0  0  0  0
   -2.1682   -2.0790   -0.0197 H   0  0  0  0  0  0  0  0  0  0  0  0
   -2.7965   -2.8601    1.4459 H   0  0  0  0  0  0  0  0  0  0  0  0
    0.7724   -1.3745   -0.1593 N   0  0  0  0  0  0  0  0  0  0  0  0
    0.5614   -2.5964   -0.9244 C   0  0  2  0  0  0  0  0  0  0  0  0
    1.6157   -3.5728   -0.4972 C   0  0  0  0  0  0  0  0  0  0  0  0
    2.5886   -3.1745    0.1325 O   0  0  0  0  0  0  0  0  0  0  0  0
    0.7345   -2.1771   -2.3796 C   0  0  0  0  0  0  0  0  0  0  0  0
    0.3244   -0.8671   -1.7112 C   0  0  0  0  0  0  0  0  0  0  0  0
    1.5408   -0.3981   -0.9273 C   0  0  0  0  0  0  0  0  0  0  0  0
   -0.4227   -3.0263   -0.7144 H   0  0  0  0  0  0  0  0  0  0  0  0
    0.0120   -2.7078   -3.0110 H   0  0  0  0  0  0  0  0  0  0  0  0
    1.7400   -2.3597   -2.7711 H   0  0  0  0  0  0  0  0  0  0  0  0
    0.0755   -0.1144   -2.4681 H   0  0  0  0  0  0  0  0  0  0  0  0
   -0.5410   -0.9920   -1.0542 H   0  0  0  0  0  0  0  0  0  0  0  0
    2.4811   -0.6014   -1.4471 H   0  0  0  0  0  0  0  0  0  0  0  0
    1.4806    0.6724   -0.7030 H   0  0  0  0  0  0  0  0  0  0  0  0
    1.1097   -4.9480   -1.0389 N   0  0  0  0  0  0  0  0  0  0  0  0
    1.8078   -6.1746   -0.7271 C   0  0  2  0  0  0  0  0  0  0  0  0
    1.6612   -6.4324    0.7667 C   0  0  0  0  0  0  0  0  0  0  0  0
    1.4126   -5.5444    1.5795 O   0  0  0  0  0  0  0  0  0  0  0  0
    3.2737   -6.0929   -1.1234 C   0  0  0  0  0  0  0  0  0  0  0  0
    0.3607   -4.9788   -1.7241 H   0  0  0  0  0  0  0  0  0  0  0  0
    1.3091   -6.9734   -1.2869 H   0  0  0  0  0  0  0  0  0  0  0  0
    3.7900   -5.2981   -0.5728 H   0  0  0  0  0  0  0  0  0  0  0  0
    3.7946   -7.0328   -0.9128 H   0  0  0  0  0  0  0  0  0  0  0  0
    3.3771   -5.8779   -2.1924 H   0  0  0  0  0  0  0  0  0  0  0  0
    1.8833   -7.7635    1.0908 N   0  0  0  0  0  0  0  0  0  0  0  0
    1.8147   -8.2579    2.4461 C   0  0  0  0  0  0  0  0  0  0  0  0
    2.0649   -8.4345    0.3502 H   0  0  0  0  0  0  0  0  0  0  0  0
    2.8166   -8.2275    2.8992 H   0  0  0  0  0  0  0  0  0  0  0  0
    1.1284   -7.6284    3.0316 H   0  0  0  0  0  0  0  0  0  0  0  0
    1.4465   -9.2944    2.4400 H   0  0  0  0  0  0  0  0  0  0  0  0
 18 19  1  0  0  0  0
 19 31  1  0  0  0  0
 19 20  2  0  0  0  0
  8  9  1  0  0  0  0
  9 17  1  0  0  0  0
  9 10  2  0  0  0  0
  1  3  1  0  0  0  0
  1  7  1  0  0  0  0
  1  2  2  0  0  0  0
 32 33  1  0  0  0  0
 33 41  1  0  0  0  0
 33 34  2  0  0  0  0
 21 22  1  0  0  0  0
 22 23  1  0  0  0  0
 18 21  1  0  0  0  0
 17 23  1  0  0  0  0
 17 18  1  0  0  0  0
  8 11  1  0  0  0  0
 32 35  1  0  0  0  0
 41 42  1  0  0  0  0
  7  8  1  0  0  0  0
 31 32  1  0  0  0  0
 22 27  1  0  0  0  0
 22 28  1  0  0  0  0
 21 25  1  0  0  0  0
 21 26  1  0  0  0  0
 23 29  1  0  0  0  0
 23 30  1  0  0  0  0
 18 24  1  0  0  0  0
  3  4  1  0  0  0  0
  3  5  1  0  0  0  0
  3  6  1  0  0  0  0
 11 14  1  0  0  0  0
 11 15  1  0  0  0  0
 11 16  1  0  0  0  0
 35 38  1  0  0  0  0
 35 39  1  0  0  0  0
 35 40  1  0  0  0  0
 42 44  1  0  0  0  0
 42 45  1  0  0  0  0
 42 46  1  0  0  0  0
  8 13  1  0  0  0  0
 32 37  1  0  0  0  0
 31 36  1  0  0  0  0
 41 43  1  0  0  0  0
  7 12  1  0  0  0  0
M  END
$$$$

  -OEChem-05262214473D

 46 46  0     1  0  0  0  0  0999 V2000
   -0.6012   -3.2995    3.8205 C   0  0  0  0  0  0  0  0  0  0  0  0
   -0.6574   -4.4683    3.4568 O   0  0  0  0  0  0  0  0  0  0  0  0
   -0.4935   -2.9859    5.2760 C   0  0  0  0  0  0  0  0  0  0  0  0
   -1.4789   -2.8689    5.7550 H   0  0  0  0  0  0  0  0  0  0  0  0
    0.0123   -3.7847    5.8419 H   0  0  0  0  0  0  0  0  0  0  0  0
    0.0585   -2.0642    5.5199 H   0  0  0  0  0  0  0  0  0  0  0  0
   -0.6261   -2.1849    2.9917 N   0  0  0  0  0  0  0  0  0  0  0  0
   -0.7237   -2.2601    1.5650 C   0  0  2  0  0  0  0  0  0  0  0  0
    0.1695   -1.1513    1.0687 C   0  0  0  0  0  0  0  0  0  0  0  0
    0.3193   -0.1267    1.7365 O   0  0  0  0  0  0  0  0  0  0  0  0
   -2.1397   -2.0663    1.0750 C   0  0  0  0  0  0  0  0  0  0  0  0
   -0.5717   -1.2606    3.4238 H   0  0  0  0  0  0  0  0  0  0  0  0
   -0.3076   -3.2111    1.2363 H   0  0  0  0  0  0  0  0  0  0  0  0
   -2.5584   -1.1089    1.4061 H   0  0  0  0  0  0  0  0  0  0  0  0
   -2.1682   -2.0790   -0.0197 H   0  0  0  0  0  0  0  0  0  0  0  0
   -2.7965   -2.8601    1.4459 H   0  0  0  0  0  0  0  0  0  0  0  0
    0.7724   -1.3745   -0.1593 N   0  0  0  0  0  0  0  0  0  0  0  0
    0.5614   -2.5964   -0.9244 C   0  0  2  0  0  0  0  0  0  0  0  0
    1.6157   -3.5728   -0.4972 C   0  0  0  0  0  0  0  0  0  0  0  0
    2.4344   -3.2444    0.3534 O   0  0  0  0  0  0  0  0  0  0  0  0
    0.7345   -2.1771   -2.3796 C   0  0  0  0  0  0  0  0  0  0  0  0
    0.3244   -0.8671   -1.7112 C   0  0  0  0  0  0  0  0  0  0  0  0
    1.5408   -0.3981   -0.9273 C   0  0  0  0  0  0  0  0  0  0  0  0
   -0.4227   -3.0263   -0.7144 H   0  0  0  0  0  0  0  0  0  0  0  0
    0.0120   -2.7078   -3.0110 H   0  0  0  0  0  0  0  0  0  0  0  0
    1.7400   -2.3597   -2.7711 H   0  0  0  0  0  0  0  0  0  0  0  0
    0.0755   -0.1144   -2.4681 H   0  0  0  0  0  0  0  0  0  0  0  0
   -0.5410   -0.9920   -1.0542 H   0  0  0  0  0  0  0  0  0  0  0  0
    2.4811   -0.6014   -1.4471 H   0  0  0  0  0  0  0  0  0  0  0  0
    1.4806    0.6724   -0.7030 H   0  0  0  0  0  0  0  0  0  0  0  0
    1.3289   -4.8484   -1.3523 N   0  0  0  0  0  0  0  0  0  0  0  0
    2.0741   -6.0690   -1.1433 C   0  0  2  0  0  0  0  0  0  0  0  0
    1.7115   -6.6117    0.2327 C   0  0  0  0  0  0  0  0  0  0  0  0
    1.2564   -5.9086    1.1325 O   0  0  0  0  0  0  0  0  0  0  0  0
    3.5716   -5.8292   -1.2557 C   0  0  0  0  0  0  0  0  0  0  0  0
    0.7064   -4.7931   -2.1529 H   0  0  0  0  0  0  0  0  0  0  0  0
    1.7460   -6.7757   -1.9134 H   0  0  0  0  0  0  0  0  0  0  0  0
    3.9189   -5.1236   -0.4922 H   0  0  0  0  0  0  0  0  0  0  0  0
    4.1335   -6.7600   -1.1255 H   0  0  0  0  0  0  0  0  0  0  0  0
    3.8269   -5.4110   -2.2354 H   0  0  0  0  0  0  0  0  0  0  0  0
    1.9963   -7.9648    0.3517 N   0  0  0  0  0  0  0  0  0  0  0  0
    1.7538   -8.7087    1.5657 C   0  0  0  0  0  0  0  0  0  0  0  0
    2.3545   -8.4726   -0.4517 H   0  0  0  0  0  0  0  0  0  0  0  0
    2.6625   -8.7060    2.1857 H   0  0  0  0  0  0  0  0  0  0  0  0
    0.9284   -8.2418    2.1231 H   0  0  0  0  0  0  0  0  0  0  0  0
    1.4855   -9.7452    1.3131 H   0  0  0  0  0  0  0  0  0  0  0  0
 18 19  1  0  0  0  0
 19 31  1  0  0  0  0
 19 20  2  0  0  0  0
  8  9  1  0  0  0  0
  9 17  1  0  0  0  0
  9 10  2  0  0  0  0
  1  3  1  0  0  0  0
  1  7  1  0  0  0  0
  1  2  2  0  0  0  0
 32 33  1  0  0  0  0
 33 41  1  0  0  0  0
 33 34  2  0  0  0  0
 21 22  1  0  0  0  0
 22 23  1  0  0  0  0
 18 21  1  0  0  0  0
 17 23  1  0  0  0  0
 17 18  1  0  0  0  0
  8 11  1  0  0  0  0
 32 35  1  0  0  0  0
 41 42  1  0  0  0  0
  7  8  1  0  0  0  0
 31 32  1  0  0  0  0
 22 27  1  0  0  0  0
 22 28  1  0  0  0  0
 21 25  1  0  0  0  0
 21 26  1  0  0  0  0
 23 29  1  0  0  0  0
 23 30  1  0  0  0  0
 18 24  1  0  0  0  0
  3  4  1  0  0  0  0
  3  5  1  0  0  0  0
  3  6  1  0  0  0  0
 11 14  1  0  0  0  0
 11 15  1  0  0  0  0
 11 16  1  0  0  0  0
 35 38  1  0  0  0  0
 35 39  1  0  0  0  0
 35 40  1  0  0  0  0
 42 44  1  0  0  0  0
 42 45  1  0  0  0  0
 42 46  1  0  0  0  0
  8 13  1  0  0  0  0
 32 37  1  0  0  0  0
 31 36  1  0  0  0  0
 41 43  1  0  0  0  0
  7 12  1  0  0  0  0
M  END
$$$$

  -OEChem-05262214473D

 46 46  0     1  0  0  0  0  0999 V2000
   -0.6012   -3.2995    3.8205 C   0  0  0  0  0  0  0  0  0  0  0  0
   -0.6574   -4.4683    3.4568 O   0  0  0  0  0  0  0  0  0  0  0  0
   -0.4935   -2.9859    5.2760 C   0  0  0  0  0  0  0  0  0  0  0  0
   -1.4789   -2.8689    5.7550 H   0  0  0  0  0  0  0  0  0  0  0  0
    0.0123   -3.7847    5.8419 H   0  0  0  0  0  0  0  0  0  0  0  0
    0.0585   -2.0642    5.5199 H   0  0  0  0  0  0  0  0  0  0  0  0
   -0.6261   -2.1849    2.9917 N   0  0  0  0  0  0  0  0  0  0  0  0
   -0.7237   -2.2601    1.5650 C   0  0  2  0  0  0  0  0  0  0  0  0
    0.1695   -1.1513    1.0687 C   0  0  0  0  0  0  0  0  0  0  0  0
    0.3193   -0.1267    1.7365 O   0  0  0  0  0  0  0  0  0  0  0  0
   -2.1397   -2.0663    1.0750 C   0  0  0  0  0  0  0  0  0  0  0  0
   -0.5717   -1.2606    3.4238 H   0  0  0  0  0  0  0  0  0  0  0  0
   -0.3076   -3.2111    1.2363 H   0  0  0  0  0  0  0  0  0  0  0  0
   -2.5584   -1.1089    1.4061 H   0  0  0  0  0  0  0  0  0  0  0  0
   -2.1682   -2.0790   -0.0197 H   0  0  0  0  0  0  0  0  0  0  0  0
   -2.7965   -2.8601    1.4459 H   0  0  0  0  0  0  0  0  0  0  0  0
    0.7724   -1.3745   -0.1593 N   0  0  0  0  0  0  0  0  0  0  0  0
    0.5614   -2.5964   -0.9244 C   0  0  2  0  0  0  0  0  0  0  0  0
    1.6157   -3.5728   -0.4972 C   0  0  0  0  0  0  0  0  0  0  0  0
    2.2533   -3.3634    0.5281 O   0  0  0  0  0  0  0  0  0  0  0  0
    0.7345   -2.1771   -2.3796 C   0  0  0  0  0  0  0  0  0  0  0  0
    0.3244   -0.8671   -1.7112 C   0  0  0  0  0  0  0  0  0  0  0  0
    1.5408   -0.3981   -0.9273 C   0  0  0  0  0  0  0  0  0  0  0  0
   -0.4227   -3.0263   -0.7144 H   0  0  0  0  0  0  0  0  0  0  0  0
    0.0120   -2.7078   -3.0110 H   0  0  0  0  0  0  0  0  0  0  0  0
    1.7400   -2.3597   -2.7711 H   0  0  0  0  0  0  0  0  0  0  0  0
    0.0755   -0.1144   -2.4681 H   0  0  0  0  0  0  0  0  0  0  0  0
   -0.5410   -0.9920   -1.0542 H   0  0  0  0  0  0  0  0  0  0  0  0
    2.4811   -0.6014   -1.4471 H   0  0  0  0  0  0  0  0  0  0  0  0
    1.4806    0.6724   -0.7030 H   0  0  0  0  0  0  0  0  0  0  0  0
    1.5861   -4.6790   -1.6000 N   0  0  0  0  0  0  0  0  0  0  0  0
    2.3938   -5.8717   -1.4813 C   0  0  2  0  0  0  0  0  0  0  0  0
    1.8634   -6.6840   -0.3073 C   0  0  0  0  0  0  0  0  0  0  0  0
    1.2077   -6.1906    0.6080 O   0  0  0  0  0  0  0  0  0  0  0  0
    3.8623   -5.5283   -1.2853 C   0  0  0  0  0  0  0  0  0  0  0  0
    1.0989   -4.5102   -2.4749 H   0  0  0  0  0  0  0  0  0  0  0  0
    2.2590   -6.4386   -2.4089 H   0  0  0  0  0  0  0  0  0  0  0  0
    4.0170   -4.9602   -0.3608 H   0  0  0  0  0  0  0  0  0  0  0  0
    4.4765   -6.4328   -1.2242 H   0  0  0  0  0  0  0  0  0  0  0  0
    4.2342   -4.9190   -2.1161 H   0  0  0  0  0  0  0  0  0  0  0  0
    2.2449   -8.0164   -0.3797 N   0  0  0  0  0  0  0  0  0  0  0  0
    1.8767   -8.9885    0.6230 C   0  0  0  0  0  0  0  0  0  0  0  0
    2.7723   -8.3421   -1.1844 H   0  0  0  0  0  0  0  0  0  0  0  0
    2.6691   -9.0498    1.3834 H   0  0  0  0  0  0  0  0  0  0  0  0
    0.9336   -8.6836    1.1002 H   0  0  0  0  0  0  0  0  0  0  0  0
    1.7465   -9.9726    0.1491 H   0  0  0  0  0  0  0  0  0  0  0  0
 18 19  1  0  0  0  0
 19 31  1  0  0  0  0
 19 20  2  0  0  0  0
  8  9  1  0  0  0  0
  9 17  1  0  0  0  0
  9 10  2  0  0  0  0
  1  3  1  0  0  0  0
  1  7  1  0  0  0  0
  1  2  2  0  0  0  0
 32 33  1  0  0  0  0
 33 41  1  0  0  0  0
 33 34  2  0  0  0  0
 21 22  1  0  0  0  0
 22 23  1  0  0  0  0
 18 21  1  0  0  0  0
 17 23  1  0  0  0  0
 17 18  1  0  0  0  0
  8 11  1  0  0  0  0
 32 35  1  0  0  0  0
 41 42  1  0  0  0  0
  7  8  1  0  0  0  0
 31 32  1  0  0  0  0
 22 27  1  0  0  0  0
 22 28  1  0  0  0  0
 21 25  1  0  0  0  0
 21 26  1  0  0  0  0
 23 29  1  0  0  0  0
 23 30  1  0  0  0  0
 18 24  1  0  0  0  0
  3  4  1  0  0  0  0
  3  5  1  0  0  0  0
  3  6  1  0  0  0  0
 11 14  1  0  0  0  0
 11 15  1  0  0  0  0
 11 16  1  0  0  0  0
 35 38  1  0  0  0  0
 35 39  1  0  0  0  0
 35 40  1  0  0  0  0
 42 44  1  0  0  0  0
 42 45  1  0  0  0  0
 42 46  1  0  0  0  0
  8 13  1  0  0  0  0
 32 37  1  0  0  0  0
 31 36  1  0  0  0  0
 41 43  1  0  0  0  0
  7 12  1  0  0  0  0
M  END
$$$$

  -OEChem-05262214473D

 46 46  0     1  0  0  0  0  0999 V2000
   -0.6012   -3.2995    3.8205 C   0  0  0  0  0  0  0  0  0  0  0  0
   -0.6574   -4.4683    3.4568 O   0  0  0  0  0  0  0  0  0  0  0  0
   -0.4935   -2.9859    5.2760 C   0  0  0  0  0  0  0  0  0  0  0  0
   -1.4789   -2.8689    5.7550 H   0  0  0  0  0  0  0  0  0  0  0  0
    0.0123   -3.7847    5.8419 H   0  0  0  0  0  0  0  0  0  0  0  0
    0.0585   -2.0642    5.5199 H   0  0  0  0  0  0  0  0  0  0  0  0
   -0.6261   -2.1849    2.9917 N   0  0  0  0  0  0  0  0  0  0  0  0
   -0.7237   -2.2601    1.5650 C   0  0  2  0  0  0  0  0  0  0  0  0
    0.1695   -1.1513    1.0687 C   0  0  0  0  0  0  0  0  0  0  0  0
    0.3193   -0.1267    1.7365 O   0  0  0  0  0  0  0  0  0  0  0  0
   -2.1397   -2.0663    1.0750 C   0  0  0  0  0  0  0  0  0  0  0  0
   -0.5717   -1.2606    3.4238 H   0  0  0  0  0  0  0  0  0  0  0  0
   -0.3076   -3.2111    1.2363 H   0  0  0  0  0  0  0  0  0  0  0  0
   -2.5584   -1.1089    1.4061 H   0  0  0  0  0  0  0  0  0  0  0  0
   -2.1682   -2.0790   -0.0197 H   0  0  0  0  0  0  0  0  0  0  0  0
   -2.7965   -2.8601    1.4459 H   0  0  0  0  0  0  0  0  0  0  0  0
    0.7724   -1.3745   -0.1593 N   0  0  0  0  0  0  0  0  0  0  0  0
    0.5614   -2.5964   -0.9244 C   0  0  2  0  0  0  0  0  0  0  0  0
    1.6157   -3.5728   -0.4972 C   0  0  0  0  0  0  0  0  0  0  0  0
    2.0578   -3.5236    0.6446 O   0  0  0  0  0  0  0  0  0  0  0  0
    0.7345   -2.1771   -2.3796 C   0  0  0  0  0  0  0  0  0  0  0  0
    0.3244   -0.8671   -1.7112 C   0  0  0  0  0  0  0  0  0  0  0  0
    1.5408   -0.3981   -0.9273 C   0  0  0  0  0  0  0  0  0  0  0  0
   -0.4227   -3.0263   -0.7144 H   0  0  0  0  0  0  0  0  0  0  0  0
    0.0120   -2.7078   -3.0110 H   0  0  0  0  0  0  0  0  0  0  0  0
    1.7400   -2.3597   -2.7711 H   0  0  0  0  0  0  0  0  0  0  0  0
    0.0755   -0.1144   -2.4681 H   0  0  0  0  0  0  0  0  0  0  0  0
   -0.5410   -0.9920   -1.0542 H   0  0  0  0  0  0  0  0  0  0  0  0
    2.4811   -0.6014   -1.4471 H   0  0  0  0  0  0  0  0  0  0  0  0
    1.4806    0.6724   -0.7030 H   0  0  0  0  0  0  0  0  0  0  0  0
    1.8638   -4.4513   -1.7650 N   0  0  0  0  0  0  0  0  0  0  0  0
    2.7450   -5.5960   -1.7179 C   0  0  2  0  0  0  0  0  0  0  0  0
    2.1064   -6.6443   -0.8164 C   0  0  0  0  0  0  0  0  0  0  0  0
    1.2699   -6.3712    0.0419 O   0  0  0  0  0  0  0  0  0  0  0  0
    4.1258   -5.2109   -1.2102 C   0  0  0  0  0  0  0  0  0  0  0  0
    1.5114   -4.1493   -2.6683 H   0  0  0  0  0  0  0  0  0  0  0  0
    2.8132   -5.9849   -2.7397 H   0  0  0  0  0  0  0  0  0  0  0  0
    4.0776   -4.8191   -0.1876 H   0  0  0  0  0  0  0  0  0  0  0  0
    4.8004   -6.0734   -1.2021 H   0  0  0  0  0  0  0  0  0  0  0  0
    4.5713   -4.4354   -1.8426 H   0  0  0  0  0  0  0  0  0  0  0  0
    2.6121   -7.9148   -1.0538 N   0  0  0  0  0  0  0  0  0  0  0  0
    2.1749   -9.0780   -0.3178 C   0  0  0  0  0  0  0  0  0  0  0  0
    3.2897   -8.0519   -1.7980 H   0  0  0  0  0  0  0  0  0  0  0  0
    2.8362   -9.2353    0.5470 H   0  0  0  0  0  0  0  0  0  0  0  0
    1.1437   -8.9239    0.0325 H   0  0  0  0  0  0  0  0  0  0  0  0
    2.2115   -9.9612   -0.9726 H   0  0  0  0  0  0  0  0  0  0  0  0
 18 19  1  0  0  0  0
 19 31  1  0  0  0  0
 19 20  2  0  0  0  0
  8  9  1  0  0  0  0
  9 17  1  0  0  0  0
  9 10  2  0  0  0  0
  1  3  1  0  0  0  0
  1  7  1  0  0  0  0
  1  2  2  0  0  0  0
 32 33  1  0  0  0  0
 33 41  1  0  0  0  0
 33 34  2  0  0  0  0
 21 22  1  0  0  0  0
 22 23  1  0  0  0  0
 18 21  1  0  0  0  0
 17 23  1  0  0  0  0
 17 18  1  0  0  0  0
  8 11  1  0  0  0  0
 32 35  1  0  0  0  0
 41 42  1  0  0  0  0
  7  8  1  0  0  0  0
 31 32  1  0  0  0  0
 22 27  1  0  0  0  0
 22 28  1  0  0  0  0
 21 25  1  0  0  0  0
 21 26  1  0  0  0  0
 23 29  1  0  0  0  0
 23 30  1  0  0  0  0
 18 24  1  0  0  0  0
  3  4  1  0  0  0  0
  3  5  1  0  0  0  0
  3  6  1  0  0  0  0
 11 14  1  0  0  0  0
 11 15  1  0  0  0  0
 11 16  1  0  0  0  0
 35 38  1  0  0  0  0
 35 39  1  0  0  0  0
 35 40  1  0  0  0  0
 42 44  1  0  0  0  0
 42 45  1  0  0  0  0
 42 46  1  0  0  0  0
  8 13  1  0  0  0  0
 32 37  1  0  0  0  0
 31 36  1  0  0  0  0
 41 43  1  0  0  0  0
  7 12  1  0  0  0  0
M  END
$$$$

  -OEChem-05262214473D

 46 46  0     1  0  0  0  0  0999 V2000
   -0.6012   -3.2995    3.8205 C   0  0  0  0  0  0  0  0  0  0  0  0
   -0.6574   -4.4683    3.4568 O   0  0  0  0  0  0  0  0  0  0  0  0
   -0.4935   -2.9859    5.2760 C   0  0  0  0  0  0  0  0  0  0  0  0
   -1.4789   -2.8689    5.7550 H   0  0  0  0  0  0  0  0  0  0  0  0
    0.0123   -3.7847    5.8419 H   0  0  0  0  0  0  0  0  0  0  0  0
    0.0585   -2.0642    5.5199 H   0  0  0  0  0  0  0  0  0  0  0  0
   -0.6261   -2.1849    2.9917 N   0  0  0  0  0  0  0  0  0  0  0  0
   -0.7237   -2.2601    1.5650 C   0  0  2  0  0  0  0  0  0  0  0  0
    0.1695   -1.1513    1.0687 C   0  0  0  0  0  0  0  0  0  0  0  0
    0.3193   -0.1267    1.7365 O   0  0  0  0  0  0  0  0  0  0  0  0
   -2.1397   -2.0663    1.0750 C   0  0  0  0  0  0  0  0  0  0  0  0
   -0.5717   -1.2606    3.4238 H   0  0  0  0  0  0  0  0  0  0  0  0
   -0.3076   -3.2111    1.2363 H   0  0  0  0  0  0  0  0  0  0  0  0
   -2.5584   -1.1089    1.4061 H   0  0  0  0  0  0  0  0  0  0  0  0
   -2.1682   -2.0790   -0.0197 H   0  0  0  0  0  0  0  0  0  0  0  0
   -2.7965   -2.8601    1.4459 H   0  0  0  0  0  0  0  0  0  0  0  0
    0.7724   -1.3745   -0.1593 N   0  0  0  0  0  0  0  0  0  0  0  0
    0.5614   -2.5964   -0.9244 C   0  0  2  0  0  0  0  0  0  0  0  0
    1.6157   -3.5728   -0.4972 C   0  0  0  0  0  0  0  0  0  0  0  0
    1.8611   -3.7139    0.6951 O   0  0  0  0  0  0  0  0  0  0  0  0
    0.7345   -2.1771   -2.3796 C   0  0  0  0  0  0  0  0  0  0  0  0
    0.3244   -0.8671   -1.7112 C   0  0  0  0  0  0  0  0  0  0  0  0
    1.5408   -0.3981   -0.9273 C   0  0  0  0  0  0  0  0  0  0  0  0
   -0.4227   -3.0263   -0.7144 H   0  0  0  0  0  0  0  0  0  0  0  0
    0.0120   -2.7078   -3.0110 H   0  0  0  0  0  0  0  0  0  0  0  0
    1.7400   -2.3597   -2.7711 H   0  0  0  0  0  0  0  0  0  0  0  0
    0.0755   -0.1144   -2.4681 H   0  0  0  0  0  0  0  0  0  0  0  0
   -0.5410   -0.9920   -1.0542 H   0  0  0  0  0  0  0  0  0  0  0  0
    2.4811   -0.6014   -1.4471 H   0  0  0  0  0  0  0  0  0  0  0  0
    1.4806    0.6724   -0.7030 H   0  0  0  0  0  0  0  0  0  0  0  0
    2.1431   -4.1809   -1.8361 N   0  0  0  0  0  0  0  0  0  0  0  0
    3.1037   -5.2608   -1.8371 C   0  0  2  0  0  0  0  0  0  0  0  0
    2.4240   -6.4954   -1.2600 C   0  0  0  0  0  0  0  0  0  0  0  0
    1.4387   -6.4379   -0.5273 O   0  0  0  0  0  0  0  0  0  0  0  0
    4.3442   -4.8986   -1.0354 C   0  0  0  0  0  0  0  0  0  0  0  0
    1.9159   -3.7351   -2.7199 H   0  0  0  0  0  0  0  0  0  0  0  0
    3.3708   -5.4456   -2.8833 H   0  0  0  0  0  0  0  0  0  0  0  0
    4.0965   -4.7098    0.0155 H   0  0  0  0  0  0  0  0  0  0  0  0
    5.0830   -5.7064   -1.0608 H   0  0  0  0  0  0  0  0  0  0  0  0
    4.8150   -3.9933   -1.4336 H   0  0  0  0  0  0  0  0  0  0  0  0
    3.0729   -7.6668   -1.6245 N   0  0  0  0  0  0  0  0  0  0  0  0
    2.6282   -8.9713   -1.1926 C   0  0  0  0  0  0  0  0  0  0  0  0
    3.8715   -7.6217   -2.2506 H   0  0  0  0  0  0  0  0  0  0  0  0
    3.1522   -9.2499   -0.2665 H   0  0  0  0  0  0  0  0  0  0  0  0
    1.5442   -8.9461   -1.0070 H   0  0  0  0  0  0  0  0  0  0  0  0
    2.8490   -9.7117   -1.9756 H   0  0  0  0  0  0  0  0  0  0  0  0
 18 19  1  0  0  0  0
 19 31  1  0  0  0  0
 19 20  2  0  0  0  0
  8  9  1  0  0  0  0
  9 17  1  0  0  0  0
  9 10  2  0  0  0  0
  1  3  1  0  0  0  0
  1  7  1  0  0  0  0
  1  2  2  0  0  0  0
 32 33  1  0  0  0  0
 33 41  1  0  0  0  0
 33 34  2  0  0  0  0
 21 22  1  0  0  0  0
 22 23  1  0  0  0  0
 18 21  1  0  0  0  0
 17 23  1  0  0  0  0
 17 18  1  0  0  0  0
  8 11  1  0  0  0  0
 32 35  1  0  0  0  0
 41 42  1  0  0  0  0
  7  8  1  0  0  0  0
 31 32  1  0  0  0  0
 22 27  1  0  0  0  0
 22 28  1  0  0  0  0
 21 25  1  0  0  0  0
 21 26  1  0  0  0  0
 23 29  1  0  0  0  0
 23 30  1  0  0  0  0
 18 24  1  0  0  0  0
  3  4  1  0  0  0  0
  3  5  1  0  0  0  0
  3  6  1  0  0  0  0
 11 14  1  0  0  0  0
 11 15  1  0  0  0  0
 11 16  1  0  0  0  0
 35 38  1  0  0  0  0
 35 39  1  0  0  0  0
 35 40  1  0  0  0  0
 42 44  1  0  0  0  0
 42 45  1  0  0  0  0
 42 46  1  0  0  0  0
  8 13  1  0  0  0  0
 32 37  1  0  0  0  0
 31 36  1  0  0  0  0
 41 43  1  0  0  0  0
  7 12  1  0  0  0  0
M  END
$$$$

  -OEChem-05262214473D

 46 46  0     1  0  0  0  0  0999 V2000
   -0.6012   -3.2995    3.8205 C   0  0  0  0  0  0  0  0  0  0  0  0
   -0.6574   -4.4683    3.4568 O   0  0  0  0  0  0  0  0  0  0  0  0
   -0.4935   -2.9859    5.2760 C   0  0  0  0  0  0  0  0  0  0  0  0
   -1.4789   -2.8689    5.7550 H   0  0  0  0  0  0  0  0  0  0  0  0
    0.0123   -3.7847    5.8419 H   0  0  0  0  0  0  0  0  0  0  0  0
    0.0585   -2.0642    5.5199 H   0  0  0  0  0  0  0  0  0  0  0  0
   -0.6261   -2.1849    2.9917 N   0  0  0  0  0  0  0  0  0  0  0  0
   -0.7237   -2.2601    1.5650 C   0  0  2  0  0  0  0  0  0  0  0  0
    0.1695   -1.1513    1.0687 C   0  0  0  0  0  0  0  0  0  0  0  0
    0.3193   -0.1267    1.7365 O   0  0  0  0  0  0  0  0  0  0  0  0
   -2.1397   -2.0663    1.0750 C   0  0  0  0  0  0  0  0  0  0  0  0
   -0.5717   -1.2606    3.4238 H   0  0  0  0  0  0  0  0  0  0  0  0
   -0.3076   -3.2111    1.2363 H   0  0  0  0  0  0  0  0  0  0  0  0
   -2.5584   -1.1089    1.4061 H   0  0  0  0  0  0  0  0  0  0  0  0
   -2.1682   -2.0790   -0.0197 H   0  0  0  0  0  0  0  0  0  0  0  0
   -2.7965   -2.8601    1.4459 H   0  0  0  0  0  0  0  0  0  0  0  0
    0.7724   -1.3745   -0.1593 N   0  0  0  0  0  0  0  0  0  0  0  0
    0.5614   -2.5964   -0.9244 C   0  0  2  0  0  0  0  0  0  0  0  0
    1.6157   -3.5728   -0.4972 C   0  0  0  0  0  0  0  0  0  0  0  0
    1.6766   -3.9214    0.6760 O   0  0  0  0  0  0  0  0  0  0  0  0
    0.7345   -2.1771   -2.3796 C   0  0  0  0  0  0  0  0  0  0  0  0
    0.3244   -0.8671   -1.7112 C   0  0  0  0  0  0  0  0  0  0  0  0
    1.5408   -0.3981   -0.9273 C   0  0  0  0  0  0  0  0  0  0  0  0
   -0.4227   -3.0263   -0.7144 H   0  0  0  0  0  0  0  0  0  0  0  0
    0.0120   -2.7078   -3.0110 H   0  0  0  0  0  0  0  0  0  0  0  0
    1.7400   -2.3597   -2.7711 H   0  0  0  0  0  0  0  0  0  0  0  0
    0.0755   -0.1144   -2.4681 H   0  0  0  0  0  0  0  0  0  0  0  0
   -0.5410   -0.9920   -1.0542 H   0  0  0  0  0  0  0  0  0  0  0  0
    2.4811   -0.6014   -1.4471 H   0  0  0  0  0  0  0  0  0  0  0  0
    1.4806    0.6724   -0.7030 H   0  0  0  0  0  0  0  0  0  0  0  0
    2.4049   -3.8861   -1.8085 N   0  0  0  0  0  0  0  0  0  0  0  0
    3.4457   -4.8888   -1.8307 C   0  0  2  0  0  0  0  0  0  0  0  0
    2.7946   -6.2474   -1.6078 C   0  0  0  0  0  0  0  0  0  0  0  0
    1.7026   -6.3863   -1.0608 O   0  0  0  0  0  0  0  0  0  0  0  0
    4.5027   -4.6125   -0.7729 C   0  0  0  0  0  0  0  0  0  0  0  0
    2.2848   -3.2959   -2.6262 H   0  0  0  0  0  0  0  0  0  0  0  0
    3.8938   -4.8574   -2.8298 H   0  0  0  0  0  0  0  0  0  0  0  0
    4.0724   -4.6398    0.2348 H   0  0  0  0  0  0  0  0  0  0  0  0
    5.3051   -5.3568   -0.8099 H   0  0  0  0  0  0  0  0  0  0  0  0
    4.9490   -3.6226   -0.9170 H   0  0  0  0  0  0  0  0  0  0  0  0
    3.5960   -7.2895   -2.0529 N   0  0  0  0  0  0  0  0  0  0  0  0
    3.2056   -8.6756   -1.9417 C   0  0  0  0  0  0  0  0  0  0  0  0
    4.4780   -7.0808   -2.5114 H   0  0  0  0  0  0  0  0  0  0  0  0
    3.5957   -9.0927   -1.0016 H   0  0  0  0  0  0  0  0  0  0  0  0
    2.1080   -8.7488   -1.9477 H   0  0  0  0  0  0  0  0  0  0  0  0
    3.6154   -9.2411   -2.7916 H   0  0  0  0  0  0  0  0  0  0  0  0
 18 19  1  0  0  0  0
 19 31  1  0  0  0  0
 19 20  2  0  0  0  0
  8  9  1  0  0  0  0
  9 17  1  0  0  0  0
  9 10  2  0  0  0  0
  1  3  1  0  0  0  0
  1  7  1  0  0  0  0
  1  2  2  0  0  0  0
 32 33  1  0  0  0  0
 33 41  1  0  0  0  0
 33 34  2  0  0  0  0
 21 22  1  0  0  0  0
 22 23  1  0  0  0  0
 18 21  1  0  0  0  0
 17 23  1  0  0  0  0
 17 18  1  0  0  0  0
  8 11  1  0  0  0  0
 32 35  1  0  0  0  0
 41 42  1  0  0  0  0
  7  8  1  0  0  0  0
 31 32  1  0  0  0  0
 22 27  1  0  0  0  0
 22 28  1  0  0  0  0
 21 25  1  0  0  0  0
 21 26  1  0  0  0  0
 23 29  1  0  0  0  0
 23 30  1  0  0  0  0
 18 24  1  0  0  0  0
  3  4  1  0  0  0  0
  3  5  1  0  0  0  0
  3  6  1  0  0  0  0
 11 14  1  0  0  0  0
 11 15  1  0  0  0  0
 11 16  1  0  0  0  0
 35 38  1  0  0  0  0
 35 39  1  0  0  0  0
 35 40  1  0  0  0  0
 42 44  1  0  0  0  0
 42 45  1  0  0  0  0
 42 46  1  0  0  0  0
  8 13  1  0  0  0  0
 32 37  1  0  0  0  0
 31 36  1  0  0  0  0
 41 43  1  0  0  0  0
  7 12  1  0  0  0  0
M  END
$$$$

  -OEChem-05262214473D

 46 46  0     1  0  0  0  0  0999 V2000
   -0.6012   -3.2995    3.8205 C   0  0  0  0  0  0  0  0  0  0  0  0
   -0.6574   -4.4683    3.4568 O   0  0  0  0  0  0  0  0  0  0  0  0
   -0.4935   -2.9859    5.2760 C   0  0  0  0  0  0  0  0  0  0  0  0
   -1.4789   -2.8689    5.7550 H   0  0  0  0  0  0  0  0  0  0  0  0
    0.0123   -3.7847    5.8419 H   0  0  0  0  0  0  0  0  0  0  0  0
    0.0585   -2.0642    5.5199 H   0  0  0  0  0  0  0  0  0  0  0  0
   -0.6261   -2.1849    2.9917 N   0  0  0  0  0  0  0  0  0  0  0  0
   -0.7237   -2.2601    1.5650 C   0  0  2  0  0  0  0  0  0  0  0  0
    0.1695   -1.1513    1.0687 C   0  0  0  0  0  0  0  0  0  0  0  0
    0.3193   -0.1267    1.7365 O   0  0  0  0  0  0  0  0  0  0  0  0
   -2.1397   -2.0663    1.0750 C   0  0  0  0  0  0  0  0  0  0  0  0
   -0.5717   -1.2606    3.4238 H   0  0  0  0  0  0  0  0  0  0  0  0
   -0.3076   -3.2111    1.2363 H   0  0  0  0  0  0  0  0  0  0  0  0
   -2.5584   -1.1089    1.4061 H   0  0  0  0  0  0  0  0  0  0  0  0
   -2.1682   -2.0790   -0.0197 H   0  0  0  0  0  0  0  0  0  0  0  0
   -2.7965   -2.8601    1.4459 H   0  0  0  0  0  0  0  0  0  0  0  0
    0.7724   -1.3745   -0.1593 N   0  0  0  0  0  0  0  0  0  0  0  0
    0.5614   -2.5964   -0.9244 C   0  0  2  0  0  0  0  0  0  0  0  0
    1.6157   -3.5728   -0.4972 C   0  0  0  0  0  0  0  0  0  0  0  0
    1.5170   -4.1320    0.5887 O   0  0  0  0  0  0  0  0  0  0  0  0
    0.7345   -2.1771   -2.3796 C   0  0  0  0  0  0  0  0  0  0  0  0
    0.3244   -0.8671   -1.7112 C   0  0  0  0  0  0  0  0  0  0  0  0
    1.5408   -0.3981   -0.9273 C   0  0  0  0  0  0  0  0  0  0  0  0
   -0.4227   -3.0263   -0.7144 H   0  0  0  0  0  0  0  0  0  0  0  0
    0.0120   -2.7078   -3.0110 H   0  0  0  0  0  0  0  0  0  0  0  0
    1.7400   -2.3597   -2.7711 H   0  0  0  0  0  0  0  0  0  0  0  0
    0.0755   -0.1144   -2.4681 H   0  0  0  0  0  0  0  0  0  0  0  0
   -0.5410   -0.9920   -1.0542 H   0  0  0  0  0  0  0  0  0  0  0  0
    2.4811   -0.6014   -1.4471 H   0  0  0  0  0  0  0  0  0  0  0  0
    1.4806    0.6724   -0.7030 H   0  0  0  0  0  0  0  0  0  0  0  0
    2.6314   -3.5871   -1.6841 N   0  0  0  0  0  0  0  0  0  0  0  0
    3.7474   -4.5054   -1.6992 C   0  0  2  0  0  0  0  0  0  0  0  0
    3.1929   -5.9172   -1.8362 C   0  0  0  0  0  0  0  0  0  0  0  0
    2.0436   -6.2199   -1.5222 O   0  0  0  0  0  0  0  0  0  0  0  0
    4.5905   -4.3724   -0.4405 C   0  0  0  0  0  0  0  0  0  0  0  0
    2.5928   -2.8614   -2.3935 H   0  0  0  0  0  0  0  0  0  0  0  0
    4.3467   -4.2604   -2.5829 H   0  0  0  0  0  0  0  0  0  0  0  0
    4.0070   -4.6139    0.4554 H   0  0  0  0  0  0  0  0  0  0  0  0
    5.4515   -5.0485   -0.4664 H   0  0  0  0  0  0  0  0  0  0  0  0
    4.9639   -3.3488   -0.3280 H   0  0  0  0  0  0  0  0  0  0  0  0
    4.1456   -6.8084   -2.3098 N   0  0  0  0  0  0  0  0  0  0  0  0
    3.8678   -8.2110   -2.5142 C   0  0  0  0  0  0  0  0  0  0  0  0
    5.0679   -6.4662   -2.5627 H   0  0  0  0  0  0  0  0  0  0  0  0
    4.1364   -8.7743   -1.6084 H   0  0  0  0  0  0  0  0  0  0  0  0
    2.7966   -8.3455   -2.7253 H   0  0  0  0  0  0  0  0  0  0  0  0
    4.4585   -8.5815   -3.3649 H   0  0  0  0  0  0  0  0  0  0  0  0
 18 19  1  0  0  0  0
 19 31  1  0  0  0  0
 19 20  2  0  0  0  0
  8  9  1  0  0  0  0
  9 17  1  0  0  0  0
  9 10  2  0  0  0  0
  1  3  1  0  0  0  0
  1  7  1  0  0  0  0
  1  2  2  0  0  0  0
 32 33  1  0  0  0  0
 33 41  1  0  0  0  0
 33 34  2  0  0  0  0
 21 22  1  0  0  0  0
 22 23  1  0  0  0  0
 18 21  1  0  0  0  0
 17 23  1  0  0  0  0
 17 18  1  0  0  0  0
  8 11  1  0  0  0  0
 32 35  1  0  0  0  0
 41 42  1  0  0  0  0
  7  8  1  0  0  0  0
 31 32  1  0  0  0  0
 22 27  1  0  0  0  0
 22 28  1  0  0  0  0
 21 25  1  0  0  0  0
 21 26  1  0  0  0  0
 23 29  1  0  0  0  0
 23 30  1  0  0  0  0
 18 24  1  0  0  0  0
  3  4  1  0  0  0  0
  3  5  1  0  0  0  0
  3  6  1  0  0  0  0
 11 14  1  0  0  0  0
 11 15  1  0  0  0  0
 11 16  1  0  0  0  0
 35 38  1  0  0  0  0
 35 39  1  0  0  0  0
 35 40  1  0  0  0  0
 42 44  1  0  0  0  0
 42 45  1  0  0  0  0
 42 46  1  0  0  0  0
  8 13  1  0  0  0  0
 32 37  1  0  0  0  0
 31 36  1  0  0  0  0
 41 43  1  0  0  0  0
  7 12  1  0  0  0  0
M  END
$$$$

  -OEChem-05262214473D

 46 46  0     1  0  0  0  0  0999 V2000
   -0.6012   -3.2995    3.8205 C   0  0  0  0  0  0  0  0  0  0  0  0
   -0.6574   -4.4683    3.4568 O   0  0  0  0  0  0  0  0  0  0  0  0
   -0.4935   -2.9859    5.2760 C   0  0  0  0  0  0  0  0  0  0  0  0
   -1.4789   -2.8689    5.7550 H   0  0  0  0  0  0  0  0  0  0  0  0
    0.0123   -3.7847    5.8419 H   0  0  0  0  0  0  0  0  0  0  0  0
    0.0585   -2.0642    5.5199 H   0  0  0  0  0  0  0  0  0  0  0  0
   -0.6261   -2.1849    2.9917 N   0  0  0  0  0  0  0  0  0  0  0  0
   -0.7237   -2.2601    1.5650 C   0  0  2  0  0  0  0  0  0  0  0  0
    0.1695   -1.1513    1.0687 C   0  0  0  0  0  0  0  0  0  0  0  0
    0.3193   -0.1267    1.7365 O   0  0  0  0  0  0  0  0  0  0  0  0
   -2.1397   -2.0663    1.0750 C   0  0  0  0  0  0  0  0  0  0  0  0
   -0.5717   -1.2606    3.4238 H   0  0  0  0  0  0  0  0  0  0  0  0
   -0.3076   -3.2111    1.2363 H   0  0  0  0  0  0  0  0  0  0  0  0
   -2.5584   -1.1089    1.4061 H   0  0  0  0  0  0  0  0  0  0  0  0
   -2.1682   -2.0790   -0.0197 H   0  0  0  0  0  0  0  0  0  0  0  0
   -2.7965   -2.8601    1.4459 H   0  0  0  0  0  0  0  0  0  0  0  0
    0.7724   -1.3745   -0.1593 N   0  0  0  0  0  0  0  0  0  0  0  0
    0.5614   -2.5964   -0.9244 C   0  0  2  0  0  0  0  0  0  0  0  0
    1.6157   -3.5728   -0.4972 C   0  0  0  0  0  0  0  0  0  0  0  0
    1.3930   -4.3313    0.4392 O   0  0  0  0  0  0  0  0  0  0  0  0
    0.7345   -2.1771   -2.3796 C   0  0  0  0  0  0  0  0  0  0  0  0
    0.3244   -0.8671   -1.7112 C   0  0  0  0  0  0  0  0  0  0  0  0
    1.5408   -0.3981   -0.9273 C   0  0  0  0  0  0  0  0  0  0  0  0
   -0.4227   -3.0263   -0.7144 H   0  0  0  0  0  0  0  0  0  0  0  0
    0.0120   -2.7078   -3.0110 H   0  0  0  0  0  0  0  0  0  0  0  0
    1.7400   -2.3597   -2.7711 H   0  0  0  0  0  0  0  0  0  0  0  0
    0.0755   -0.1144   -2.4681 H   0  0  0  0  0  0  0  0  0  0  0  0
   -0.5410   -0.9920   -1.0542 H   0  0  0  0  0  0  0  0  0  0  0  0
    2.4811   -0.6014   -1.4471 H   0  0  0  0  0  0  0  0  0  0  0  0
    1.4806    0.6724   -0.7030 H   0  0  0  0  0  0  0  0  0  0  0  0
    2.8072   -3.3042   -1.4713 N   0  0  0  0  0  0  0  0  0  0  0  0
    3.9884   -4.1368   -1.4515 C   0  0  2  0  0  0  0  0  0  0  0  0
    3.5918   -5.5274   -1.9295 C   0  0  0  0  0  0  0  0  0  0  0  0
    2.4386   -5.9501   -1.8801 O   0  0  0  0  0  0  0  0  0  0  0  0
    4.6016   -4.1944   -0.0610 C   0  0  0  0  0  0  0  0  0  0  0  0
    2.8192   -2.4614   -2.0378 H   0  0  0  0  0  0  0  0  0  0  0  0
    4.6984   -3.6953   -2.1593 H   0  0  0  0  0  0  0  0  0  0  0  0
    3.9048   -4.6339    0.6621 H   0  0  0  0  0  0  0  0  0  0  0  0
    5.5123   -4.8023   -0.0538 H   0  0  0  0  0  0  0  0  0  0  0  0
    4.8589   -3.1904    0.2934 H   0  0  0  0  0  0  0  0  0  0  0  0
    4.6843   -6.2565   -2.3778 N   0  0  0  0  0  0  0  0  0  0  0  0
    4.5697   -7.6091   -2.8709 C   0  0  0  0  0  0  0  0  0  0  0  0
    5.6011   -5.8197   -2.4008 H   0  0  0  0  0  0  0  0  0  0  0  0
    4.7375   -8.3164   -2.0453 H   0  0  0  0  0  0  0  0  0  0  0  0
    3.5631   -7.7635   -3.2869 H   0  0  0  0  0  0  0  0  0  0  0  0
    5.3209   -7.7778   -3.6565 H   0  0  0  0  0  0  0  0  0  0  0  0
 18 19  1  0  0  0  0
 19 31  1  0  0  0  0
 19 20  2  0  0  0  0
  8  9  1  0  0  0  0
  9 17  1  0  0  0  0
  9 10  2  0  0  0  0
  1  3  1  0  0  0  0
  1  7  1  0  0  0  0
  1  2  2  0  0  0  0
 32 33  1  0  0  0  0
 33 41  1  0  0  0  0
 33 34  2  0  0  0  0
 21 22  1  0  0  0  0
 22 23  1  0  0  0  0
 18 21  1  0  0  0  0
 17 23  1  0  0  0  0
 17 18  1  0  0  0  0
  8 11  1  0  0  0  0
 32 35  1  0  0  0  0
 41 42  1  0  0  0  0
  7  8  1  0  0  0  0
 31 32  1  0  0  0  0
 22 27  1  0  0  0  0
 22 28  1  0  0  0  0
 21 25  1  0  0  0  0
 21 26  1  0  0  0  0
 23 29  1  0  0  0  0
 23 30  1  0  0  0  0
 18 24  1  0  0  0  0
  3  4  1  0  0  0  0
  3  5  1  0  0  0  0
  3  6  1  0  0  0  0
 11 14  1  0  0  0  0
 11 15  1  0  0  0  0
 11 16  1  0  0  0  0
 35 38  1  0  0  0  0
 35 39  1  0  0  0  0
 35 40  1  0  0  0  0
 42 44  1  0  0  0  0
 42 45  1  0  0  0  0
 42 46  1  0  0  0  0
  8 13  1  0  0  0  0
 32 37  1  0  0  0  0
 31 36  1  0  0  0  0
 41 43  1  0  0  0  0
  7 12  1  0  0  0  0
M  END
$$$$

  -OEChem-05262214473D

 46 46  0     1  0  0  0  0  0999 V2000
   -0.6012   -3.2995    3.8205 C   0  0  0  0  0  0  0  0  0  0  0  0
   -0.6574   -4.4683    3.4568 O   0  0  0  0  0  0  0  0  0  0  0  0
   -0.4935   -2.9859    5.2760 C   0  0  0  0  0  0  0  0  0  0  0  0
   -1.4789   -2.8689    5.7550 H   0  0  0  0  0  0  0  0  0  0  0  0
    0.0123   -3.7847    5.8419 H   0  0  0  0  0  0  0  0  0  0  0  0
    0.0585   -2.0642    5.5199 H   0  0  0  0  0  0  0  0  0  0  0  0
   -0.6261   -2.1849    2.9917 N   0  0  0  0  0  0  0  0  0  0  0  0
   -0.7237   -2.2601    1.5650 C   0  0  2  0  0  0  0  0  0  0  0  0
    0.1695   -1.1513    1.0687 C   0  0  0  0  0  0  0  0  0  0  0  0
    0.3193   -0.1267    1.7365 O   0  0  0  0  0  0  0  0  0  0  0  0
   -2.1397   -2.0663    1.0750 C   0  0  0  0  0  0  0  0  0  0  0  0
   -0.5717   -1.2606    3.4238 H   0  0  0  0  0  0  0  0  0  0  0  0
   -0.3076   -3.2111    1.2363 H   0  0  0  0  0  0  0  0  0  0  0  0
   -2.5584   -1.1089    1.4061 H   0  0  0  0  0  0  0  0  0  0  0  0
   -2.1682   -2.0790   -0.0197 H   0  0  0  0  0  0  0  0  0  0  0  0
   -2.7965   -2.8601    1.4459 H   0  0  0  0  0  0  0  0  0  0  0  0
    0.7724   -1.3745   -0.1593 N   0  0  0  0  0  0  0  0  0  0  0  0
    0.5614   -2.5964   -0.9244 C   0  0  2  0  0  0  0  0  0  0  0  0
    1.6157   -3.5728   -0.4972 C   0  0  0  0  0  0  0  0  0  0  0  0
    1.3131   -4.5058    0.2375 O   0  0  0  0  0  0  0  0  0  0  0  0
    0.7345   -2.1771   -2.3796 C   0  0  0  0  0  0  0  0  0  0  0  0
    0.3244   -0.8671   -1.7112 C   0  0  0  0  0  0  0  0  0  0  0  0
    1.5408   -0.3981   -0.9273 C   0  0  0  0  0  0  0  0  0  0  0  0
   -0.4227   -3.0263   -0.7144 H   0  0  0  0  0  0  0  0  0  0  0  0
    0.0120   -2.7078   -3.0110 H   0  0  0  0  0  0  0  0  0  0  0  0
    1.7400   -2.3597   -2.7711 H   0  0  0  0  0  0  0  0  0  0  0  0
    0.0755   -0.1144   -2.4681 H   0  0  0  0  0  0  0  0  0  0  0  0
   -0.5410   -0.9920   -1.0542 H   0  0  0  0  0  0  0  0  0  0  0  0
    2.4811   -0.6014   -1.4471 H   0  0  0  0  0  0  0  0  0  0  0  0
    1.4806    0.6724   -0.7030 H   0  0  0  0  0  0  0  0  0  0  0  0
    2.9202   -3.0568   -1.1846 N   0  0  0  0  0  0  0  0  0  0  0  0
    4.1523   -3.8081   -1.1045 C   0  0  2  0  0  0  0  0  0  0  0  0
    3.9641   -5.1044   -1.8815 C   0  0  0  0  0  0  0  0  0  0  0  0
    2.8605   -5.5951   -2.1102 O   0  0  0  0  0  0  0  0  0  0  0  0
    4.5351   -4.0908    0.3399 C   0  0  0  0  0  0  0  0  0  0  0  0
    2.9483   -2.1231   -1.5831 H   0  0  0  0  0  0  0  0  0  0  0  0
    4.9251   -3.2007   -1.5881 H   0  0  0  0  0  0  0  0  0  0  0  0
    3.7727   -4.6984    0.8409 H   0  0  0  0  0  0  0  0  0  0  0  0
    5.4833   -4.6352    0.3998 H   0  0  0  0  0  0  0  0  0  0  0  0
    4.6410   -3.1583    0.9047 H   0  0  0  0  0  0  0  0  0  0  0  0
    5.1754   -5.6712   -2.2522 N   0  0  0  0  0  0  0  0  0  0  0  0
    5.2634   -6.9111   -2.9877 C   0  0  0  0  0  0  0  0  0  0  0  0
    6.0411   -5.1854   -2.0370 H   0  0  0  0  0  0  0  0  0  0  0  0
    5.3580   -7.7503   -2.2827 H   0  0  0  0  0  0  0  0  0  0  0  0
    4.3553   -7.0427   -3.5943 H   0  0  0  0  0  0  0  0  0  0  0  0
    6.1439   -6.8849   -3.6465 H   0  0  0  0  0  0  0  0  0  0  0  0
 18 19  1  0  0  0  0
 19 31  1  0  0  0  0
 19 20  2  0  0  0  0
  8  9  1  0  0  0  0
  9 17  1  0  0  0  0
  9 10  2  0  0  0  0
  1  3  1  0  0  0  0
  1  7  1  0  0  0  0
  1  2  2  0  0  0  0
 32 33  1  0  0  0  0
 33 41  1  0  0  0  0
 33 34  2  0  0  0  0
 21 22  1  0  0  0  0
 22 23  1  0  0  0  0
 18 21  1  0  0  0  0
 17 23  1  0  0  0  0
 17 18  1  0  0  0  0
  8 11  1  0  0  0  0
 32 35  1  0  0  0  0
 41 42  1  0  0  0  0
  7  8  1  0  0  0  0
 31 32  1  0  0  0  0
 22 27  1  0  0  0  0
 22 28  1  0  0  0  0
 21 25  1  0  0  0  0
 21 26  1  0  0  0  0
 23 29  1  0  0  0  0
 23 30  1  0  0  0  0
 18 24  1  0  0  0  0
  3  4  1  0  0  0  0
  3  5  1  0  0  0  0
  3  6  1  0  0  0  0
 11 14  1  0  0  0  0
 11 15  1  0  0  0  0
 11 16  1  0  0  0  0
 35 38  1  0  0  0  0
 35 39  1  0  0  0  0
 35 40  1  0  0  0  0
 42 44  1  0  0  0  0
 42 45  1  0  0  0  0
 42 46  1  0  0  0  0
  8 13  1  0  0  0  0
 32 37  1  0  0  0  0
 31 36  1  0  0  0  0
 41 43  1  0  0  0  0
  7 12  1  0  0  0  0
M  END
$$$$

  -OEChem-05262214473D

 46 46  0     1  0  0  0  0  0999 V2000
   -0.6012   -3.2995    3.8205 C   0  0  0  0  0  0  0  0  0  0  0  0
   -0.6574   -4.4683    3.4568 O   0  0  0  0  0  0  0  0  0  0  0  0
   -0.4935   -2.9859    5.2760 C   0  0  0  0  0  0  0  0  0  0  0  0
   -1.4789   -2.8689    5.7550 H   0  0  0  0  0  0  0  0  0  0  0  0
    0.0123   -3.7847    5.8419 H   0  0  0  0  0  0  0  0  0  0  0  0
    0.0585   -2.0642    5.5199 H   0  0  0  0  0  0  0  0  0  0  0  0
   -0.6261   -2.1849    2.9917 N   0  0  0  0  0  0  0  0  0  0  0  0
   -0.7237   -2.2601    1.5650 C   0  0  2  0  0  0  0  0  0  0  0  0
    0.1695   -1.1513    1.0687 C   0  0  0  0  0  0  0  0  0  0  0  0
    0.3193   -0.1267    1.7365 O   0  0  0  0  0  0  0  0  0  0  0  0
   -2.1397   -2.0663    1.0750 C   0  0  0  0  0  0  0  0  0  0  0  0
   -0.5717   -1.2606    3.4238 H   0  0  0  0  0  0  0  0  0  0  0  0
   -0.3076   -3.2111    1.2363 H   0  0  0  0  0  0  0  0  0  0  0  0
   -2.5584   -1.1089    1.4061 H   0  0  0  0  0  0  0  0  0  0  0  0
   -2.1682   -2.0790   -0.0197 H   0  0  0  0  0  0  0  0  0  0  0  0
   -2.7965   -2.8601    1.4459 H   0  0  0  0  0  0  0  0  0  0  0  0
    0.7724   -1.3745   -0.1593 N   0  0  0  0  0  0  0  0  0  0  0  0
    0.5614   -2.5964   -0.9244 C   0  0  2  0  0  0  0  0  0  0  0  0
    1.6157   -3.5728   -0.4972 C   0  0  0  0  0  0  0  0  0  0  0  0
    1.2829   -4.6434   -0.0025 O   0  0  0  0  0  0  0  0  0  0  0  0
    0.7345   -2.1771   -2.3796 C   0  0  0  0  0  0  0  0  0  0  0  0
    0.3244   -0.8671   -1.7112 C   0  0  0  0  0  0  0  0  0  0  0  0
    1.5408   -0.3981   -0.9273 C   0  0  0  0  0  0  0  0  0  0  0  0
   -0.4227   -3.0263   -0.7144 H   0  0  0  0  0  0  0  0  0  0  0  0
    0.0120   -2.7078   -3.0110 H   0  0  0  0  0  0  0  0  0  0  0  0
    1.7400   -2.3597   -2.7711 H   0  0  0  0  0  0  0  0  0  0  0  0
    0.0755   -0.1144   -2.4681 H   0  0  0  0  0  0  0  0  0  0  0  0
   -0.5410   -0.9920   -1.0542 H   0  0  0  0  0  0  0  0  0  0  0  0
    2.4811   -0.6014   -1.4471 H   0  0  0  0  0  0  0  0  0  0  0  0
    1.4806    0.6724   -0.7030 H   0  0  0  0  0  0  0  0  0  0  0  0
    2.9628   -2.8616   -0.8436 N   0  0  0  0  0  0  0  0  0  0  0  0
    4.2279   -3.5416   -0.6819 C   0  0  2  0  0  0  0  0  0  0  0  0
    4.2844   -4.6771   -1.6953 C   0  0  0  0  0  0  0  0  0  0  0  0
    3.2806   -5.1793   -2.1967 O   0  0  0  0  0  0  0  0  0  0  0  0
    4.3957   -4.0686    0.7347 C   0  0  0  0  0  0  0  0  0  0  0  0
    2.9715   -1.8695   -1.0607 H   0  0  0  0  0  0  0  0  0  0  0  0
    5.0113   -2.8101   -0.9081 H   0  0  0  0  0  0  0  0  0  0  0  0
    3.6197   -4.8029    0.9795 H   0  0  0  0  0  0  0  0  0  0  0  0
    5.3666   -4.5584    0.8634 H   0  0  0  0  0  0  0  0  0  0  0  0
    4.3251   -3.2546    1.4643 H   0  0  0  0  0  0  0  0  0  0  0  0
    5.5855   -5.0925   -1.9416 N   0  0  0  0  0  0  0  0  0  0  0  0
    5.9017   -6.1645   -2.8564 C   0  0  0  0  0  0  0  0  0  0  0  0
    6.3581   -4.6065   -1.4959 H   0  0  0  0  0  0  0  0  0  0  0  0
    5.9556   -7.1144   -2.3044 H   0  0  0  0  0  0  0  0  0  0  0  0
    5.1191   -6.2320   -3.6265 H   0  0  0  0  0  0  0  0  0  0  0  0
    6.8712   -5.9635   -3.3356 H   0  0  0  0  0  0  0  0  0  0  0  0
 18 19  1  0  0  0  0
 19 31  1  0  0  0  0
 19 20  2  0  0  0  0
  8  9  1  0  0  0  0
  9 17  1  0  0  0  0
  9 10  2  0  0  0  0
  1  3  1  0  0  0  0
  1  7  1  0  0  0  0
  1  2  2  0  0  0  0
 32 33  1  0  0  0  0
 33 41  1  0  0  0  0
 33 34  2  0  0  0  0
 21 22  1  0  0  0  0
 22 23  1  0  0  0  0
 18 21  1  0  0  0  0
 17 23  1  0  0  0  0
 17 18  1  0  0  0  0
  8 11  1  0  0  0  0
 32 35  1  0  0  0  0
 41 42  1  0  0  0  0
  7  8  1  0  0  0  0
 31 32  1  0  0  0  0
 22 27  1  0  0  0  0
 22 28  1  0  0  0  0
 21 25  1  0  0  0  0
 21 26  1  0  0  0  0
 23 29  1  0  0  0  0
 23 30  1  0  0  0  0
 18 24  1  0  0  0  0
  3  4  1  0  0  0  0
  3  5  1  0  0  0  0
  3  6  1  0  0  0  0
 11 14  1  0  0  0  0
 11 15  1  0  0  0  0
 11 16  1  0  0  0  0
 35 38  1  0  0  0  0
 35 39  1  0  0  0  0
 35 40  1  0  0  0  0
 42 44  1  0  0  0  0
 42 45  1  0  0  0  0
 42 46  1  0  0  0  0
  8 13  1  0  0  0  0
 32 37  1  0  0  0  0
 31 36  1  0  0  0  0
 41 43  1  0  0  0  0
  7 12  1  0  0  0  0
M  END
$$$$

  -OEChem-05262214473D

 46 46  0     1  0  0  0  0  0999 V2000
   -0.6012   -3.2995    3.8205 C   0  0  0  0  0  0  0  0  0  0  0  0
   -0.6574   -4.4683    3.4568 O   0  0  0  0  0  0  0  0  0  0  0  0
   -0.4935   -2.9859    5.2760 C   0  0  0  0  0  0  0  0  0  0  0  0
   -1.4789   -2.8689    5.7550 H   0  0  0  0  0  0  0  0  0  0  0  0
    0.0123   -3.7847    5.8419 H   0  0  0  0  0  0  0  0  0  0  0  0
    0.0585   -2.0642    5.5199 H   0  0  0  0  0  0  0  0  0  0  0  0
   -0.6261   -2.1849    2.9917 N   0  0  0  0  0  0  0  0  0  0  0  0
   -0.7237   -2.2601    1.5650 C   0  0  2  0  0  0  0  0  0  0  0  0
    0.1695   -1.1513    1.0687 C   0  0  0  0  0  0  0  0  0  0  0  0
    0.3193   -0.1267    1.7365 O   0  0  0  0  0  0  0  0  0  0  0  0
   -2.1397   -2.0663    1.0750 C   0  0  0  0  0  0  0  0  0  0  0  0
   -0.5717   -1.2606    3.4238 H   0  0  0  0  0  0  0  0  0  0  0  0
   -0.3076   -3.2111    1.2363 H   0  0  0  0  0  0  0  0  0  0  0  0
   -2.5584   -1.1089    1.4061 H   0  0  0  0  0  0  0  0  0  0  0  0
   -2.1682   -2.0790   -0.0197 H   0  0  0  0  0  0  0  0  0  0  0  0
   -2.7965   -2.8601    1.4459 H   0  0  0  0  0  0  0  0  0  0  0  0
    0.7724   -1.3745   -0.1593 N   0  0  0  0  0  0  0  0  0  0  0  0
    0.5614   -2.5964   -0.9244 C   0  0  2  0  0  0  0  0  0  0  0  0
    1.6157   -3.5728   -0.4972 C   0  0  0  0  0  0  0  0  0  0  0  0
    1.3042   -4.7350   -0.2644 O   0  0  0  0  0  0  0  0  0  0  0  0
    0.7345   -2.1771   -2.3796 C   0  0  0  0  0  0  0  0  0  0  0  0
    0.3244   -0.8671   -1.7112 C   0  0  0  0  0  0  0  0  0  0  0  0
    1.5408   -0.3981   -0.9273 C   0  0  0  0  0  0  0  0  0  0  0  0
   -0.4227   -3.0263   -0.7144 H   0  0  0  0  0  0  0  0  0  0  0  0
    0.0120   -2.7078   -3.0110 H   0  0  0  0  0  0  0  0  0  0  0  0
    1.7400   -2.3597   -2.7711 H   0  0  0  0  0  0  0  0  0  0  0  0
    0.0755   -0.1144   -2.4681 H   0  0  0  0  0  0  0  0  0  0  0  0
   -0.5410   -0.9920   -1.0542 H   0  0  0  0  0  0  0  0  0  0  0  0
    2.4811   -0.6014   -1.4471 H   0  0  0  0  0  0  0  0  0  0  0  0
    1.4806    0.6724   -0.7030 H   0  0  0  0  0  0  0  0  0  0  0  0
    2.9321   -2.7320   -0.4715 N   0  0  0  0  0  0  0  0  0  0  0  0
    4.2100   -3.3556   -0.2124 C   0  0  2  0  0  0  0  0  0  0  0  0
    4.5309   -4.2746   -1.3837 C   0  0  0  0  0  0  0  0  0  0  0  0
    3.6704   -4.7309   -2.1337 O   0  0  0  0  0  0  0  0  0  0  0  0
    4.1929   -4.1293    1.0967 C   0  0  0  0  0  0  0  0  0  0  0  0
    2.8871   -1.7180   -0.5060 H   0  0  0  0  0  0  0  0  0  0  0  0
    4.9511   -2.5503   -0.1656 H   0  0  0  0  0  0  0  0  0  0  0  0
    3.4562   -4.9404    1.0687 H   0  0  0  0  0  0  0  0  0  0  0  0
    5.1700   -4.5773    1.3056 H   0  0  0  0  0  0  0  0  0  0  0  0
    3.9327   -3.4728    1.9340 H   0  0  0  0  0  0  0  0  0  0  0  0
    5.8865   -4.5599   -1.4670 N   0  0  0  0  0  0  0  0  0  0  0  0
    6.4410   -5.4201   -2.4861 C   0  0  0  0  0  0  0  0  0  0  0  0
    6.5303   -4.1224   -0.8144 H   0  0  0  0  0  0  0  0  0  0  0  0
    6.4896   -6.4523   -2.1088 H   0  0  0  0  0  0  0  0  0  0  0  0
    5.8025   -5.3868   -3.3812 H   0  0  0  0  0  0  0  0  0  0  0  0
    7.4534   -5.0764   -2.7449 H   0  0  0  0  0  0  0  0  0  0  0  0
 18 19  1  0  0  0  0
 19 31  1  0  0  0  0
 19 20  2  0  0  0  0
  8  9  1  0  0  0  0
  9 17  1  0  0  0  0
  9 10  2  0  0  0  0
  1  3  1  0  0  0  0
  1  7  1  0  0  0  0
  1  2  2  0  0  0  0
 32 33  1  0  0  0  0
 33 41  1  0  0  0  0
 33 34  2  0  0  0  0
 21 22  1  0  0  0  0
 22 23  1  0  0  0  0
 18 21  1  0  0  0  0
 17 23  1  0  0  0  0
 17 18  1  0  0  0  0
  8 11  1  0  0  0  0
 32 35  1  0  0  0  0
 41 42  1  0  0  0  0
  7  8  1  0  0  0  0
 31 32  1  0  0  0  0
 22 27  1  0  0  0  0
 22 28  1  0  0  0  0
 21 25  1  0  0  0  0
 21 26  1  0  0  0  0
 23 29  1  0  0  0  0
 23 30  1  0  0  0  0
 18 24  1  0  0  0  0
  3  4  1  0  0  0  0
  3  5  1  0  0  0  0
  3  6  1  0  0  0  0
 11 14  1  0  0  0  0
 11 15  1  0  0  0  0
 11 16  1  0  0  0  0
 35 38  1  0  0  0  0
 35 39  1  0  0  0  0
 35 40  1  0  0  0  0
 42 44  1  0  0  0  0
 42 45  1  0  0  0  0
 42 46  1  0  0  0  0
  8 13  1  0  0  0  0
 32 37  1  0  0  0  0
 31 36  1  0  0  0  0
 41 43  1  0  0  0  0
  7 12  1  0  0  0  0
M  END
$$$$

  -OEChem-05262214473D

 46 46  0     1  0  0  0  0  0999 V2000
   -0.6012   -3.2995    3.8205 C   0  0  0  0  0  0  0  0  0  0  0  0
   -0.6574   -4.4683    3.4568 O   0  0  0  0  0  0  0  0  0  0  0  0
   -0.4935   -2.9859    5.2760 C   0  0  0  0  0  0  0  0  0  0  0  0
   -1.4789   -2.8689    5.7550 H   0  0  0  0  0  0  0  0  0  0  0  0
    0.0123   -3.7847    5.8419 H   0  0  0  0  0  0  0  0  0  0  0  0
    0.0585   -2.0642    5.5199 H   0  0  0  0  0  0  0  0  0  0  0  0
   -0.6261   -2.1849    2.9917 N   0  0  0  0  0  0  0  0  0  0  0  0
   -0.7237   -2.2601    1.5650 C   0  0  2  0  0  0  0  0  0  0  0  0
    0.1695   -1.1513    1.0687 C   0  0  0  0  0  0  0  0  0  0  0  0
    0.3193   -0.1267    1.7365 O   0  0  0  0  0  0  0  0  0  0  0  0
   -2.1397   -2.0663    1.0750 C   0  0  0  0  0  0  0  0  0  0  0  0
   -0.5717   -1.2606    3.4238 H   0  0  0  0  0  0  0  0  0  0  0  0
   -0.3076   -3.2111    1.2363 H   0  0  0  0  0  0  0  0  0  0  0  0
   -2.5584   -1.1089    1.4061 H   0  0  0  0  0  0  0  0  0  0  0  0
   -2.1682   -2.0790   -0.0197 H   0  0  0  0  0  0  0  0  0  0  0  0
   -2.7965   -2.8601    1.4459 H   0  0  0  0  0  0  0  0  0  0  0  0
    0.7724   -1.3745   -0.1593 N   0  0  0  0  0  0  0  0  0  0  0  0
    0.5614   -2.5964   -0.9244 C   0  0  2  0  0  0  0  0  0  0  0  0
    1.6157   -3.5728   -0.4972 C   0  0  0  0  0  0  0  0  0  0  0  0
    1.3758   -4.7741   -0.5305 O   0  0  0  0  0  0  0  0  0  0  0  0
    0.7345   -2.1771   -2.3796 C   0  0  0  0  0  0  0  0  0  0  0  0
    0.3244   -0.8671   -1.7112 C   0  0  0  0  0  0  0  0  0  0  0  0
    1.5408   -0.3981   -0.9273 C   0  0  0  0  0  0  0  0  0  0  0  0
   -0.4227   -3.0263   -0.7144 H   0  0  0  0  0  0  0  0  0  0  0  0
    0.0120   -2.7078   -3.0110 H   0  0  0  0  0  0  0  0  0  0  0  0
    1.7400   -2.3597   -2.7711 H   0  0  0  0  0  0  0  0  0  0  0  0
    0.0755   -0.1144   -2.4681 H   0  0  0  0  0  0  0  0  0  0  0  0
   -0.5410   -0.9920   -1.0542 H   0  0  0  0  0  0  0  0  0  0  0  0
    2.4811   -0.6014   -1.4471 H   0  0  0  0  0  0  0  0  0  0  0  0
    1.4806    0.6724   -0.7030 H   0  0  0  0  0  0  0  0  0  0  0  0
    2.8301   -2.6768   -0.0937 N   0  0  0  0  0  0  0  0  0  0  0  0
    4.0998   -3.2626    0.2719 C   0  0  2  0  0  0  0  0  0  0  0  0
    4.6868   -3.9244   -0.9679 C   0  0  0  0  0  0  0  0  0  0  0  0
    4.0031   -4.2805   -1.9255 O   0  0  0  0  0  0  0  0  0  0  0  0
    3.9404   -4.2687    1.4011 C   0  0  0  0  0  0  0  0  0  0  0  0
    2.7008   -1.6788    0.0432 H   0  0  0  0  0  0  0  0  0  0  0  0
    4.7487   -2.4389    0.5887 H   0  0  0  0  0  0  0  0  0  0  0  0
    3.2934   -5.1015    1.1022 H   0  0  0  0  0  0  0  0  0  0  0  0
    4.9069   -4.6905    1.6961 H   0  0  0  0  0  0  0  0  0  0  0  0
    3.4906   -3.7979    2.2819 H   0  0  0  0  0  0  0  0  0  0  0  0
    6.0581   -4.1096   -0.8610 N   0  0  0  0  0  0  0  0  0  0  0  0
    6.8447   -4.7288   -1.9021 C   0  0  0  0  0  0  0  0  0  0  0  0
    6.5460   -3.7662   -0.0390 H   0  0  0  0  0  0  0  0  0  0  0  0
    6.9236   -5.8089   -1.7094 H   0  0  0  0  0  0  0  0  0  0  0  0
    6.3589   -4.5646   -2.8752 H   0  0  0  0  0  0  0  0  0  0  0  0
    7.8508   -4.2842   -1.9148 H   0  0  0  0  0  0  0  0  0  0  0  0
 18 19  1  0  0  0  0
 19 31  1  0  0  0  0
 19 20  2  0  0  0  0
  8  9  1  0  0  0  0
  9 17  1  0  0  0  0
  9 10  2  0  0  0  0
  1  3  1  0  0  0  0
  1  7  1  0  0  0  0
  1  2  2  0  0  0  0
 32 33  1  0  0  0  0
 33 41  1  0  0  0  0
 33 34  2  0  0  0  0
 21 22  1  0  0  0  0
 22 23  1  0  0  0  0
 18 21  1  0  0  0  0
 17 23  1  0  0  0  0
 17 18  1  0  0  0  0
  8 11  1  0  0  0  0
 32 35  1  0  0  0  0
 41 42  1  0  0  0  0
  7  8  1  0  0  0  0
 31 32  1  0  0  0  0
 22 27  1  0  0  0  0
 22 28  1  0  0  0  0
 21 25  1  0  0  0  0
 21 26  1  0  0  0  0
 23 29  1  0  0  0  0
 23 30  1  0  0  0  0
 18 24  1  0  0  0  0
  3  4  1  0  0  0  0
  3  5  1  0  0  0  0
  3  6  1  0  0  0  0
 11 14  1  0  0  0  0
 11 15  1  0  0  0  0
 11 16  1  0  0  0  0
 35 38  1  0  0  0  0
 35 39  1  0  0  0  0
 35 40  1  0  0  0  0
 42 44  1  0  0  0  0
 42 45  1  0  0  0  0
 42 46  1  0  0  0  0
  8 13  1  0  0  0  0
 32 37  1  0  0  0  0
 31 36  1  0  0  0  0
 41 43  1  0  0  0  0
  7 12  1  0  0  0  0
M  END
$$$$

  -OEChem-05262214473D

 46 46  0     1  0  0  0  0  0999 V2000
   -0.6012   -3.2995    3.8205 C   0  0  0  0  0  0  0  0  0  0  0  0
   -0.6574   -4.4683    3.4568 O   0  0  0  0  0  0  0  0  0  0  0  0
   -0.4935   -2.9859    5.2760 C   0  0  0  0  0  0  0  0  0  0  0  0
   -1.4789   -2.8689    5.7550 H   0  0  0  0  0  0  0  0  0  0  0  0
    0.0123   -3.7847    5.8419 H   0  0  0  0  0  0  0  0  0  0  0  0
    0.0585   -2.0642    5.5199 H   0  0  0  0  0  0  0  0  0  0  0  0
   -0.6261   -2.1849    2.9917 N   0  0  0  0  0  0  0  0  0  0  0  0
   -0.7237   -2.2601    1.5650 C   0  0  2  0  0  0  0  0  0  0  0  0
    0.1695   -1.1513    1.0687 C   0  0  0  0  0  0  0  0  0  0  0  0
    0.3193   -0.1267    1.7365 O   0  0  0  0  0  0  0  0  0  0  0  0
   -2.1397   -2.0663    1.0750 C   0  0  0  0  0  0  0  0  0  0  0  0
   -0.5717   -1.2606    3.4238 H   0  0  0  0  0  0  0  0  0  0  0  0
   -0.3076   -3.2111    1.2363 H   0  0  0  0  0  0  0  0  0  0  0  0
   -2.5584   -1.1089    1.4061 H   0  0  0  0  0  0  0  0  0  0  0  0
   -2.1682   -2.0790   -0.0197 H   0  0  0  0  0  0  0  0  0  0  0  0
   -2.7965   -2.8601    1.4459 H   0  0  0  0  0  0  0  0  0  0  0  0
    0.7724   -1.3745   -0.1593 N   0  0  0  0  0  0  0  0  0  0  0  0
    0.5614   -2.5964   -0.9244 C   0  0  2  0  0  0  0  0  0  0  0  0
    1.6157   -3.5728   -0.4972 C   0  0  0  0  0  0  0  0  0  0  0  0
    1.4926   -4.7582   -0.7826 O   0  0  0  0  0  0  0  0  0  0  0  0
    0.7345   -2.1771   -2.3796 C   0  0  0  0  0  0  0  0  0  0  0  0
    0.3244   -0.8671   -1.7112 C   0  0  0  0  0  0  0  0  0  0  0  0
    1.5408   -0.3981   -0.9273 C   0  0  0  0  0  0  0  0  0  0  0  0
   -0.4227   -3.0263   -0.7144 H   0  0  0  0  0  0  0  0  0  0  0  0
    0.0120   -2.7078   -3.0110 H   0  0  0  0  0  0  0  0  0  0  0  0
    1.7400   -2.3597   -2.7711 H   0  0  0  0  0  0  0  0  0  0  0  0
    0.0755   -0.1144   -2.4681 H   0  0  0  0  0  0  0  0  0  0  0  0
   -0.5410   -0.9920   -1.0542 H   0  0  0  0  0  0  0  0  0  0  0  0
    2.4811   -0.6014   -1.4471 H   0  0  0  0  0  0  0  0  0  0  0  0
    1.4806    0.6724   -0.7030 H   0  0  0  0  0  0  0  0  0  0  0  0
    2.6639   -2.6998    0.2641 N   0  0  0  0  0  0  0  0  0  0  0  0
    3.9049   -3.2692    0.7380 C   0  0  2  0  0  0  0  0  0  0  0  0
    4.7414   -3.6503   -0.4763 C   0  0  0  0  0  0  0  0  0  0  0  0
    4.2563   -3.8588   -1.5863 O   0  0  0  0  0  0  0  0  0  0  0  0
    3.6555   -4.4774    1.6271 C   0  0  0  0  0  0  0  0  0  0  0  0
    2.4255   -1.7547    0.5494 H   0  0  0  0  0  0  0  0  0  0  0  0
    4.4178   -2.4835    1.3035 H   0  0  0  0  0  0  0  0  0  0  0  0
    3.1424   -5.2752    1.0778 H   0  0  0  0  0  0  0  0  0  0  0  0
    4.5953   -4.8903    2.0083 H   0  0  0  0  0  0  0  0  0  0  0  0
    3.0290   -4.2079    2.4842 H   0  0  0  0  0  0  0  0  0  0  0  0
    6.0884   -3.7723   -0.1647 N   0  0  0  0  0  0  0  0  0  0  0  0
    7.0851   -4.1375   -1.1440 C   0  0  0  0  0  0  0  0  0  0  0  0
    6.4043   -3.5620    0.7775 H   0  0  0  0  0  0  0  0  0  0  0  0
    7.2281   -5.2281   -1.1333 H   0  0  0  0  0  0  0  0  0  0  0  0
    6.7505   -3.8215   -2.1431 H   0  0  0  0  0  0  0  0  0  0  0  0
    8.0362   -3.6408   -0.9017 H   0  0  0  0  0  0  0  0  0  0  0  0
 18 19  1  0  0  0  0
 19 31  1  0  0  0  0
 19 20  2  0  0  0  0
  8  9  1  0  0  0  0
  9 17  1  0  0  0  0
  9 10  2  0  0  0  0
  1  3  1  0  0  0  0
  1  7  1  0  0  0  0
  1  2  2  0  0  0  0
 32 33  1  0  0  0  0
 33 41  1  0  0  0  0
 33 34  2  0  0  0  0
 21 22  1  0  0  0  0
 22 23  1  0  0  0  0
 18 21  1  0  0  0  0
 17 23  1  0  0  0  0
 17 18  1  0  0  0  0
  8 11  1  0  0  0  0
 32 35  1  0  0  0  0
 41 42  1  0  0  0  0
  7  8  1  0  0  0  0
 31 32  1  0  0  0  0
 22 27  1  0  0  0  0
 22 28  1  0  0  0  0
 21 25  1  0  0  0  0
 21 26  1  0  0  0  0
 23 29  1  0  0  0  0
 23 30  1  0  0  0  0
 18 24  1  0  0  0  0
  3  4  1  0  0  0  0
  3  5  1  0  0  0  0
  3  6  1  0  0  0  0
 11 14  1  0  0  0  0
 11 15  1  0  0  0  0
 11 16  1  0  0  0  0
 35 38  1  0  0  0  0
 35 39  1  0  0  0  0
 35 40  1  0  0  0  0
 42 44  1  0  0  0  0
 42 45  1  0  0  0  0
 42 46  1  0  0  0  0
  8 13  1  0  0  0  0
 32 37  1  0  0  0  0
 31 36  1  0  0  0  0
 41 43  1  0  0  0  0
  7 12  1  0  0  0  0
M  END
$$$$

  -OEChem-05262214473D

 46 46  0     1  0  0  0  0  0999 V2000
   -0.6012   -3.2995    3.8205 C   0  0  0  0  0  0  0  0  0  0  0  0
   -0.6574   -4.4683    3.4568 O   0  0  0  0  0  0  0  0  0  0  0  0
   -0.4935   -2.9859    5.2760 C   0  0  0  0  0  0  0  0  0  0  0  0
   -1.4789   -2.8689    5.7550 H   0  0  0  0  0  0  0  0  0  0  0  0
    0.0123   -3.7847    5.8419 H   0  0  0  0  0  0  0  0  0  0  0  0
    0.0585   -2.0642    5.5199 H   0  0  0  0  0  0  0  0  0  0  0  0
   -0.6261   -2.1849    2.9917 N   0  0  0  0  0  0  0  0  0  0  0  0
   -0.7237   -2.2601    1.5650 C   0  0  2  0  0  0  0  0  0  0  0  0
    0.1695   -1.1513    1.0687 C   0  0  0  0  0  0  0  0  0  0  0  0
    0.3193   -0.1267    1.7365 O   0  0  0  0  0  0  0  0  0  0  0  0
   -2.1397   -2.0663    1.0750 C   0  0  0  0  0  0  0  0  0  0  0  0
   -0.5717   -1.2606    3.4238 H   0  0  0  0  0  0  0  0  0  0  0  0
   -0.3076   -3.2111    1.2363 H   0  0  0  0  0  0  0  0  0  0  0  0
   -2.5584   -1.1089    1.4061 H   0  0  0  0  0  0  0  0  0  0  0  0
   -2.1682   -2.0790   -0.0197 H   0  0  0  0  0  0  0  0  0  0  0  0
   -2.7965   -2.8601    1.4459 H   0  0  0  0  0  0  0  0  0  0  0  0
    0.7724   -1.3745   -0.1593 N   0  0  0  0  0  0  0  0  0  0  0  0
    0.5614   -2.5964   -0.9244 C   0  0  2  0  0  0  0  0  0  0  0  0
    1.6157   -3.5728   -0.4972 C   0  0  0  0  0  0  0  0  0  0  0  0
    1.6468   -4.6883   -1.0035 O   0  0  0  0  0  0  0  0  0  0  0  0
    0.7345   -2.1771   -2.3796 C   0  0  0  0  0  0  0  0  0  0  0  0
    0.3244   -0.8671   -1.7112 C   0  0  0  0  0  0  0  0  0  0  0  0
    1.5408   -0.3981   -0.9273 C   0  0  0  0  0  0  0  0  0  0  0  0
   -0.4227   -3.0263   -0.7144 H   0  0  0  0  0  0  0  0  0  0  0  0
    0.0120   -2.7078   -3.0110 H   0  0  0  0  0  0  0  0  0  0  0  0
    1.7400   -2.3597   -2.7711 H   0  0  0  0  0  0  0  0  0  0  0  0
    0.0755   -0.1144   -2.4681 H   0  0  0  0  0  0  0  0  0  0  0  0
   -0.5410   -0.9920   -1.0542 H   0  0  0  0  0  0  0  0  0  0  0  0
    2.4811   -0.6014   -1.4471 H   0  0  0  0  0  0  0  0  0  0  0  0
    1.4806    0.6724   -0.7030 H   0  0  0  0  0  0  0  0  0  0  0  0
    2.4447   -2.7994    0.5776 N   0  0  0  0  0  0  0  0  0  0  0  0
    3.6386   -3.3747    1.1542 C   0  0  2  0  0  0  0  0  0  0  0  0
    4.6911   -3.4710    0.0577 C   0  0  0  0  0  0  0  0  0  0  0  0
    4.4125   -3.4945   -1.1393 O   0  0  0  0  0  0  0  0  0  0  0  0
    3.3576   -4.7412    1.7595 C   0  0  0  0  0  0  0  0  0  0  0  0
    2.0798   -1.9404    0.9781 H   0  0  0  0  0  0  0  0  0  0  0  0
    3.9809   -2.6811    1.9300 H   0  0  0  0  0  0  0  0  0  0  0  0
    3.0135   -5.4497    0.9972 H   0  0  0  0  0  0  0  0  0  0  0  0
    4.2565   -5.1631    2.2211 H   0  0  0  0  0  0  0  0  0  0  0  0
    2.5791   -4.6748    2.5272 H   0  0  0  0  0  0  0  0  0  0  0  0
    5.9754   -3.5709    0.5744 N   0  0  0  0  0  0  0  0  0  0  0  0
    7.1460   -3.6866   -0.2636 C   0  0  0  0  0  0  0  0  0  0  0  0
    6.1147   -3.5239    1.5794 H   0  0  0  0  0  0  0  0  0  0  0  0
    7.3822   -4.7495   -0.4198 H   0  0  0  0  0  0  0  0  0  0  0  0
    6.9505   -3.2081   -1.2346 H   0  0  0  0  0  0  0  0  0  0  0  0
    7.9972   -3.1900    0.2252 H   0  0  0  0  0  0  0  0  0  0  0  0
 18 19  1  0  0  0  0
 19 31  1  0  0  0  0
 19 20  2  0  0  0  0
  8  9  1  0  0  0  0
  9 17  1  0  0  0  0
  9 10  2  0  0  0  0
  1  3  1  0  0  0  0
  1  7  1  0  0  0  0
  1  2  2  0  0  0  0
 32 33  1  0  0  0  0
 33 41  1  0  0  0  0
 33 34  2  0  0  0  0
 21 22  1  0  0  0  0
 22 23  1  0  0  0  0
 18 21  1  0  0  0  0
 17 23  1  0  0  0  0
 17 18  1  0  0  0  0
  8 11  1  0  0  0  0
 32 35  1  0  0  0  0
 41 42  1  0  0  0  0
  7  8  1  0  0  0  0
 31 32  1  0  0  0  0
 22 27  1  0  0  0  0
 22 28  1  0  0  0  0
 21 25  1  0  0  0  0
 21 26  1  0  0  0  0
 23 29  1  0  0  0  0
 23 30  1  0  0  0  0
 18 24  1  0  0  0  0
  3  4  1  0  0  0  0
  3  5  1  0  0  0  0
  3  6  1  0  0  0  0
 11 14  1  0  0  0  0
 11 15  1  0  0  0  0
 11 16  1  0  0  0  0
 35 38  1  0  0  0  0
 35 39  1  0  0  0  0
 35 40  1  0  0  0  0
 42 44  1  0  0  0  0
 42 45  1  0  0  0  0
 42 46  1  0  0  0  0
  8 13  1  0  0  0  0
 32 37  1  0  0  0  0
 31 36  1  0  0  0  0
 41 43  1  0  0  0  0
  7 12  1  0  0  0  0
M  END
$$$$

  -OEChem-05262214473D

 46 46  0     1  0  0  0  0  0999 V2000
   -0.6012   -3.2995    3.8205 C   0  0  0  0  0  0  0  0  0  0  0  0
   -0.6574   -4.4683    3.4568 O   0  0  0  0  0  0  0  0  0  0  0  0
   -0.4935   -2.9859    5.2760 C   0  0  0  0  0  0  0  0  0  0  0  0
   -1.4789   -2.8689    5.7550 H   0  0  0  0  0  0  0  0  0  0  0  0
    0.0123   -3.7847    5.8419 H   0  0  0  0  0  0  0  0  0  0  0  0
    0.0585   -2.0642    5.5199 H   0  0  0  0  0  0  0  0  0  0  0  0
   -0.6261   -2.1849    2.9917 N   0  0  0  0  0  0  0  0  0  0  0  0
   -0.7237   -2.2601    1.5650 C   0  0  2  0  0  0  0  0  0  0  0  0
    0.1695   -1.1513    1.0687 C   0  0  0  0  0  0  0  0  0  0  0  0
    0.3193   -0.1267    1.7365 O   0  0  0  0  0  0  0  0  0  0  0  0
   -2.1397   -2.0663    1.0750 C   0  0  0  0  0  0  0  0  0  0  0  0
   -0.5717   -1.2606    3.4238 H   0  0  0  0  0  0  0  0  0  0  0  0
   -0.3076   -3.2111    1.2363 H   0  0  0  0  0  0  0  0  0  0  0  0
   -2.5584   -1.1089    1.4061 H   0  0  0  0  0  0  0  0  0  0  0  0
   -2.1682   -2.0790   -0.0197 H   0  0  0  0  0  0  0  0  0  0  0  0
   -2.7965   -2.8601    1.4459 H   0  0  0  0  0  0  0  0  0  0  0  0
    0.7724   -1.3745   -0.1593 N   0  0  0  0  0  0  0  0  0  0  0  0
    0.5614   -2.5964   -0.9244 C   0  0  2  0  0  0  0  0  0  0  0  0
    1.6157   -3.5728   -0.4972 C   0  0  0  0  0  0  0  0  0  0  0  0
    1.8279   -4.5693   -1.1782 O   0  0  0  0  0  0  0  0  0  0  0  0
    0.7345   -2.1771   -2.3796 C   0  0  0  0  0  0  0  0  0  0  0  0
    0.3244   -0.8671   -1.7112 C   0  0  0  0  0  0  0  0  0  0  0  0
    1.5408   -0.3981   -0.9273 C   0  0  0  0  0  0  0  0  0  0  0  0
   -0.4227   -3.0263   -0.7144 H   0  0  0  0  0  0  0  0  0  0  0  0
    0.0120   -2.7078   -3.0110 H   0  0  0  0  0  0  0  0  0  0  0  0
    1.7400   -2.3597   -2.7711 H   0  0  0  0  0  0  0  0  0  0  0  0
    0.0755   -0.1144   -2.4681 H   0  0  0  0  0  0  0  0  0  0  0  0
   -0.5410   -0.9920   -1.0542 H   0  0  0  0  0  0  0  0  0  0  0  0
    2.4811   -0.6014   -1.4471 H   0  0  0  0  0  0  0  0  0  0  0  0
    1.4806    0.6724   -0.7030 H   0  0  0  0  0  0  0  0  0  0  0  0
    2.1874   -2.9688    0.8252 N   0  0  0  0  0  0  0  0  0  0  0  0
    3.3189   -3.5720    1.4922 C   0  0  2  0  0  0  0  0  0  0  0  0
    4.5393   -3.3987    0.5977 C   0  0  0  0  0  0  0  0  0  0  0  0
    4.4612   -3.2125   -0.6149 O   0  0  0  0  0  0  0  0  0  0  0  0
    3.0670   -5.0421    1.7891 C   0  0  0  0  0  0  0  0  0  0  0  0
    1.6873   -2.2233    1.3002 H   0  0  0  0  0  0  0  0  0  0  0  0
    3.4679   -3.0183    2.4256 H   0  0  0  0  0  0  0  0  0  0  0  0
    2.9154   -5.6131    0.8658 H   0  0  0  0  0  0  0  0  0  0  0  0
    3.9134   -5.4904    2.3197 H   0  0  0  0  0  0  0  0  0  0  0  0
    2.1718   -5.1668    2.4079 H   0  0  0  0  0  0  0  0  0  0  0  0
    5.7268   -3.5193    1.3058 N   0  0  0  0  0  0  0  0  0  0  0  0
    7.0232   -3.4069    0.6791 C   0  0  0  0  0  0  0  0  0  0  0  0
    5.6970   -3.6545    2.3121 H   0  0  0  0  0  0  0  0  0  0  0  0
    7.3755   -4.4058    0.3825 H   0  0  0  0  0  0  0  0  0  0  0  0
    6.9453   -2.7662   -0.2117 H   0  0  0  0  0  0  0  0  0  0  0  0
    7.7362   -2.9625    1.3891 H   0  0  0  0  0  0  0  0  0  0  0  0
 18 19  1  0  0  0  0
 19 31  1  0  0  0  0
 19 20  2  0  0  0  0
  8  9  1  0  0  0  0
  9 17  1  0  0  0  0
  9 10  2  0  0  0  0
  1  3  1  0  0  0  0
  1  7  1  0  0  0  0
  1  2  2  0  0  0  0
 32 33  1  0  0  0  0
 33 41  1  0  0  0  0
 33 34  2  0  0  0  0
 21 22  1  0  0  0  0
 22 23  1  0  0  0  0
 18 21  1  0  0  0  0
 17 23  1  0  0  0  0
 17 18  1  0  0  0  0
  8 11  1  0  0  0  0
 32 35  1  0  0  0  0
 41 42  1  0  0  0  0
  7  8  1  0  0  0  0
 31 32  1  0  0  0  0
 22 27  1  0  0  0  0
 22 28  1  0  0  0  0
 21 25  1  0  0  0  0
 21 26  1  0  0  0  0
 23 29  1  0  0  0  0
 23 30  1  0  0  0  0
 18 24  1  0  0  0  0
  3  4  1  0  0  0  0
  3  5  1  0  0  0  0
  3  6  1  0  0  0  0
 11 14  1  0  0  0  0
 11 15  1  0  0  0  0
 11 16  1  0  0  0  0
 35 38  1  0  0  0  0
 35 39  1  0  0  0  0
 35 40  1  0  0  0  0
 42 44  1  0  0  0  0
 42 45  1  0  0  0  0
 42 46  1  0  0  0  0
  8 13  1  0  0  0  0
 32 37  1  0  0  0  0
 31 36  1  0  0  0  0
 41 43  1  0  0  0  0
  7 12  1  0  0  0  0
M  END
$$$$

  -OEChem-05262214473D

 46 46  0     1  0  0  0  0  0999 V2000
   -0.6012   -3.2995    3.8205 C   0  0  0  0  0  0  0  0  0  0  0  0
   -0.6574   -4.4683    3.4568 O   0  0  0  0  0  0  0  0  0  0  0  0
   -0.4935   -2.9859    5.2760 C   0  0  0  0  0  0  0  0  0  0  0  0
   -1.4789   -2.8689    5.7550 H   0  0  0  0  0  0  0  0  0  0  0  0
    0.0123   -3.7847    5.8419 H   0  0  0  0  0  0  0  0  0  0  0  0
    0.0585   -2.0642    5.5199 H   0  0  0  0  0  0  0  0  0  0  0  0
   -0.6261   -2.1849    2.9917 N   0  0  0  0  0  0  0  0  0  0  0  0
   -0.7237   -2.2601    1.5650 C   0  0  2  0  0  0  0  0  0  0  0  0
    0.1695   -1.1513    1.0687 C   0  0  0  0  0  0  0  0  0  0  0  0
    0.3193   -0.1267    1.7365 O   0  0  0  0  0  0  0  0  0  0  0  0
   -2.1397   -2.0663    1.0750 C   0  0  0  0  0  0  0  0  0  0  0  0
   -0.5717   -1.2606    3.4238 H   0  0  0  0  0  0  0  0  0  0  0  0
   -0.3076   -3.2111    1.2363 H   0  0  0  0  0  0  0  0  0  0  0  0
   -2.5584   -1.1089    1.4061 H   0  0  0  0  0  0  0  0  0  0  0  0
   -2.1682   -2.0790   -0.0197 H   0  0  0  0  0  0  0  0  0  0  0  0
   -2.7965   -2.8601    1.4459 H   0  0  0  0  0  0  0  0  0  0  0  0
    0.7724   -1.3745   -0.1593 N   0  0  0  0  0  0  0  0  0  0  0  0
    0.5614   -2.5964   -0.9244 C   0  0  2  0  0  0  0  0  0  0  0  0
    1.6157   -3.5728   -0.4972 C   0  0  0  0  0  0  0  0  0  0  0  0
    2.0234   -4.4091   -1.2948 O   0  0  0  0  0  0  0  0  0  0  0  0
    0.7345   -2.1771   -2.3796 C   0  0  0  0  0  0  0  0  0  0  0  0
    0.3244   -0.8671   -1.7112 C   0  0  0  0  0  0  0  0  0  0  0  0
    1.5408   -0.3981   -0.9273 C   0  0  0  0  0  0  0  0  0  0  0  0
   -0.4227   -3.0263   -0.7144 H   0  0  0  0  0  0  0  0  0  0  0  0
    0.0120   -2.7078   -3.0110 H   0  0  0  0  0  0  0  0  0  0  0  0
    1.7400   -2.3597   -2.7711 H   0  0  0  0  0  0  0  0  0  0  0  0
    0.0755   -0.1144   -2.4681 H   0  0  0  0  0  0  0  0  0  0  0  0
   -0.5410   -0.9920   -1.0542 H   0  0  0  0  0  0  0  0  0  0  0  0
    2.4811   -0.6014   -1.4471 H   0  0  0  0  0  0  0  0  0  0  0  0
    1.4806    0.6724   -0.7030 H   0  0  0  0  0  0  0  0  0  0  0  0
    1.9097   -3.1965    0.9902 N   0  0  0  0  0  0  0  0  0  0  0  0
    2.9678   -3.8477    1.7288 C   0  0  2  0  0  0  0  0  0  0  0  0
    4.2963   -3.4383    1.1068 C   0  0  0  0  0  0  0  0  0  0  0  0
    4.3991   -3.0320   -0.0488 O   0  0  0  0  0  0  0  0  0  0  0  0
    2.8035   -5.3595    1.7139 C   0  0  0  0  0  0  0  0  0  0  0  0
    1.2748   -2.5842    1.4936 H   0  0  0  0  0  0  0  0  0  0  0  0
    2.9137   -3.4719    2.7564 H   0  0  0  0  0  0  0  0  0  0  0  0
    2.8548   -5.7542    0.6927 H   0  0  0  0  0  0  0  0  0  0  0  0
    3.5896   -5.8497    2.2977 H   0  0  0  0  0  0  0  0  0  0  0  0
    1.8348   -5.6504    2.1344 H   0  0  0  0  0  0  0  0  0  0  0  0
    5.3596   -3.6210    1.9799 N   0  0  0  0  0  0  0  0  0  0  0  0
    6.7249   -3.3173    1.6199 C   0  0  0  0  0  0  0  0  0  0  0  0
    5.1796   -3.9447    2.9257 H   0  0  0  0  0  0  0  0  0  0  0  0
    7.2085   -4.2203    1.2189 H   0  0  0  0  0  0  0  0  0  0  0  0
    6.7352   -2.5260    0.8559 H   0  0  0  0  0  0  0  0  0  0  0  0
    7.2712   -2.9740    2.5109 H   0  0  0  0  0  0  0  0  0  0  0  0
 18 19  1  0  0  0  0
 19 31  1  0  0  0  0
 19 20  2  0  0  0  0
  8  9  1  0  0  0  0
  9 17  1  0  0  0  0
  9 10  2  0  0  0  0
  1  3  1  0  0  0  0
  1  7  1  0  0  0  0
  1  2  2  0  0  0  0
 32 33  1  0  0  0  0
 33 41  1  0  0  0  0
 33 34  2  0  0  0  0
 21 22  1  0  0  0  0
 22 23  1  0  0  0  0
 18 21  1  0  0  0  0
 17 23  1  0  0  0  0
 17 18  1  0  0  0  0
  8 11  1  0  0  0  0
 32 35  1  0  0  0  0
 41 42  1  0  0  0  0
  7  8  1  0  0  0  0
 31 32  1  0  0  0  0
 22 27  1  0  0  0  0
 22 28  1  0  0  0  0
 21 25  1  0  0  0  0
 21 26  1  0  0  0  0
 23 29  1  0  0  0  0
 23 30  1  0  0  0  0
 18 24  1  0  0  0  0
  3  4  1  0  0  0  0
  3  5  1  0  0  0  0
  3  6  1  0  0  0  0
 11 14  1  0  0  0  0
 11 15  1  0  0  0  0
 11 16  1  0  0  0  0
 35 38  1  0  0  0  0
 35 39  1  0  0  0  0
 35 40  1  0  0  0  0
 42 44  1  0  0  0  0
 42 45  1  0  0  0  0
 42 46  1  0  0  0  0
  8 13  1  0  0  0  0
 32 37  1  0  0  0  0
 31 36  1  0  0  0  0
 41 43  1  0  0  0  0
  7 12  1  0  0  0  0
M  END
$$$$

  -OEChem-05262214473D

 46 46  0     1  0  0  0  0  0999 V2000
   -0.6012   -3.2995    3.8205 C   0  0  0  0  0  0  0  0  0  0  0  0
   -0.6574   -4.4683    3.4568 O   0  0  0  0  0  0  0  0  0  0  0  0
   -0.4935   -2.9859    5.2760 C   0  0  0  0  0  0  0  0  0  0  0  0
   -1.4789   -2.8689    5.7550 H   0  0  0  0  0  0  0  0  0  0  0  0
    0.0123   -3.7847    5.8419 H   0  0  0  0  0  0  0  0  0  0  0  0
    0.0585   -2.0642    5.5199 H   0  0  0  0  0  0  0  0  0  0  0  0
   -0.6261   -2.1849    2.9917 N   0  0  0  0  0  0  0  0  0  0  0  0
   -0.7237   -2.2601    1.5650 C   0  0  2  0  0  0  0  0  0  0  0  0
    0.1695   -1.1513    1.0687 C   0  0  0  0  0  0  0  0  0  0  0  0
    0.3193   -0.1267    1.7365 O   0  0  0  0  0  0  0  0  0  0  0  0
   -2.1397   -2.0663    1.0750 C   0  0  0  0  0  0  0  0  0  0  0  0
   -0.5717   -1.2606    3.4238 H   0  0  0  0  0  0  0  0  0  0  0  0
   -0.3076   -3.2111    1.2363 H   0  0  0  0  0  0  0  0  0  0  0  0
   -2.5584   -1.1089    1.4061 H   0  0  0  0  0  0  0  0  0  0  0  0
   -2.1682   -2.0790   -0.0197 H   0  0  0  0  0  0  0  0  0  0  0  0
   -2.7965   -2.8601    1.4459 H   0  0  0  0  0  0  0  0  0  0  0  0
    0.7724   -1.3745   -0.1593 N   0  0  0  0  0  0  0  0  0  0  0  0
    0.5614   -2.5964   -0.9244 C   0  0  2  0  0  0  0  0  0  0  0  0
    1.6157   -3.5728   -0.4972 C   0  0  0  0  0  0  0  0  0  0  0  0
    2.2201   -4.2188   -1.3452 O   0  0  0  0  0  0  0  0  0  0  0  0
    0.7345   -2.1771   -2.3796 C   0  0  0  0  0  0  0  0  0  0  0  0
    0.3244   -0.8671   -1.7112 C   0  0  0  0  0  0  0  0  0  0  0  0
    1.5408   -0.3981   -0.9273 C   0  0  0  0  0  0  0  0  0  0  0  0
   -0.4227   -3.0263   -0.7144 H   0  0  0  0  0  0  0  0  0  0  0  0
    0.0120   -2.7078   -3.0110 H   0  0  0  0  0  0  0  0  0  0  0  0
    1.7400   -2.3597   -2.7711 H   0  0  0  0  0  0  0  0  0  0  0  0
    0.0755   -0.1144   -2.4681 H   0  0  0  0  0  0  0  0  0  0  0  0
   -0.5410   -0.9920   -1.0542 H   0  0  0  0  0  0  0  0  0  0  0  0
    2.4811   -0.6014   -1.4471 H   0  0  0  0  0  0  0  0  0  0  0  0
    1.4806    0.6724   -0.7030 H   0  0  0  0  0  0  0  0  0  0  0  0
    1.6304   -3.4669    1.0614 N   0  0  0  0  0  0  0  0  0  0  0  0
    2.6090   -4.1829    1.8480 C   0  0  2  0  0  0  0  0  0  0  0  0
    3.9787   -3.5872    1.5504 C   0  0  0  0  0  0  0  0  0  0  0  0
    4.2303   -2.9653    0.5204 O   0  0  0  0  0  0  0  0  0  0  0  0
    2.5850   -5.6718    1.5392 C   0  0  0  0  0  0  0  0  0  0  0  0
    0.8703   -2.9983    1.5452 H   0  0  0  0  0  0  0  0  0  0  0  0
    2.3561   -4.0113    2.8999 H   0  0  0  0  0  0  0  0  0  0  0  0
    2.8360   -5.8635    0.4895 H   0  0  0  0  0  0  0  0  0  0  0  0
    3.3070   -6.2167    2.1564 H   0  0  0  0  0  0  0  0  0  0  0  0
    1.5910   -6.0925    1.7254 H   0  0  0  0  0  0  0  0  0  0  0  0
    4.8988   -3.8689    2.5506 N   0  0  0  0  0  0  0  0  0  0  0  0
    6.2717   -3.4240    2.4947 C   0  0  0  0  0  0  0  0  0  0  0  0
    4.5978   -4.3749    3.3783 H   0  0  0  0  0  0  0  0  0  0  0  0
    6.8924   -4.2057    2.0324 H   0  0  0  0  0  0  0  0  0  0  0  0
    6.3347   -2.5037    1.8955 H   0  0  0  0  0  0  0  0  0  0  0  0
    6.6337   -3.2235    3.5139 H   0  0  0  0  0  0  0  0  0  0  0  0
 18 19  1  0  0  0  0
 19 31  1  0  0  0  0
 19 20  2  0  0  0  0
  8  9  1  0  0  0  0
  9 17  1  0  0  0  0
  9 10  2  0  0  0  0
  1  3  1  0  0  0  0
  1  7  1  0  0  0  0
  1  2  2  0  0  0  0
 32 33  1  0  0  0  0
 33 41  1  0  0  0  0
 33 34  2  0  0  0  0
 21 22  1  0  0  0  0
 22 23  1  0  0  0  0
 18 21  1  0  0  0  0
 17 23  1  0  0  0  0
 17 18  1  0  0  0  0
  8 11  1  0  0  0  0
 32 35  1  0  0  0  0
 41 42  1  0  0  0  0
  7  8  1  0  0  0  0
 31 32  1  0  0  0  0
 22 27  1  0  0  0  0
 22 28  1  0  0  0  0
 21 25  1  0  0  0  0
 21 26  1  0  0  0  0
 23 29  1  0  0  0  0
 23 30  1  0  0  0  0
 18 24  1  0  0  0  0
  3  4  1  0  0  0  0
  3  5  1  0  0  0  0
  3  6  1  0  0  0  0
 11 14  1  0  0  0  0
 11 15  1  0  0  0  0
 11 16  1  0  0  0  0
 35 38  1  0  0  0  0
 35 39  1  0  0  0  0
 35 40  1  0  0  0  0
 42 44  1  0  0  0  0
 42 45  1  0  0  0  0
 42 46  1  0  0  0  0
  8 13  1  0  0  0  0
 32 37  1  0  0  0  0
 31 36  1  0  0  0  0
 41 43  1  0  0  0  0
  7 12  1  0  0  0  0
M  END
$$$$

  -OEChem-05262214473D

 46 46  0     1  0  0  0  0  0999 V2000
   -0.6012   -3.2995    3.8205 C   0  0  0  0  0  0  0  0  0  0  0  0
   -0.6574   -4.4683    3.4568 O   0  0  0  0  0  0  0  0  0  0  0  0
   -0.4935   -2.9859    5.2760 C   0  0  0  0  0  0  0  0  0  0  0  0
   -1.4789   -2.8689    5.7550 H   0  0  0  0  0  0  0  0  0  0  0  0
    0.0123   -3.7847    5.8419 H   0  0  0  0  0  0  0  0  0  0  0  0
    0.0585   -2.0642    5.5199 H   0  0  0  0  0  0  0  0  0  0  0  0
   -0.6261   -2.1849    2.9917 N   0  0  0  0  0  0  0  0  0  0  0  0
   -0.7237   -2.2601    1.5650 C   0  0  2  0  0  0  0  0  0  0  0  0
    0.1695   -1.1513    1.0687 C   0  0  0  0  0  0  0  0  0  0  0  0
    0.3193   -0.1267    1.7365 O   0  0  0  0  0  0  0  0  0  0  0  0
   -2.1397   -2.0663    1.0750 C   0  0  0  0  0  0  0  0  0  0  0  0
   -0.5717   -1.2606    3.4238 H   0  0  0  0  0  0  0  0  0  0  0  0
   -0.3076   -3.2111    1.2363 H   0  0  0  0  0  0  0  0  0  0  0  0
   -2.5584   -1.1089    1.4061 H   0  0  0  0  0  0  0  0  0  0  0  0
   -2.1682   -2.0790   -0.0197 H   0  0  0  0  0  0  0  0  0  0  0  0
   -2.7965   -2.8601    1.4459 H   0  0  0  0  0  0  0  0  0  0  0  0
    0.7724   -1.3745   -0.1593 N   0  0  0  0  0  0  0  0  0  0  0  0
    0.5614   -2.5964   -0.9244 C   0  0  2  0  0  0  0  0  0  0  0  0
    1.6157   -3.5728   -0.4972 C   0  0  0  0  0  0  0  0  0  0  0  0
    2.4046   -4.0113   -1.3261 O   0  0  0  0  0  0  0  0  0  0  0  0
    0.7345   -2.1771   -2.3796 C   0  0  0  0  0  0  0  0  0  0  0  0
    0.3244   -0.8671   -1.7112 C   0  0  0  0  0  0  0  0  0  0  0  0
    1.5408   -0.3981   -0.9273 C   0  0  0  0  0  0  0  0  0  0  0  0
   -0.4227   -3.0263   -0.7144 H   0  0  0  0  0  0  0  0  0  0  0  0
    0.0120   -2.7078   -3.0110 H   0  0  0  0  0  0  0  0  0  0  0  0
    1.7400   -2.3597   -2.7711 H   0  0  0  0  0  0  0  0  0  0  0  0
    0.0755   -0.1144   -2.4681 H   0  0  0  0  0  0  0  0  0  0  0  0
   -0.5410   -0.9920   -1.0542 H   0  0  0  0  0  0  0  0  0  0  0  0
    2.4811   -0.6014   -1.4471 H   0  0  0  0  0  0  0  0  0  0  0  0
    1.4806    0.6724   -0.7030 H   0  0  0  0  0  0  0  0  0  0  0  0
    1.3686   -3.7617    1.0338 N   0  0  0  0  0  0  0  0  0  0  0  0
    2.2671   -4.5549    1.8416 C   0  0  2  0  0  0  0  0  0  0  0  0
    3.6081   -3.8352    1.8982 C   0  0  0  0  0  0  0  0  0  0  0  0
    3.9664   -3.0168    1.0539 O   0  0  0  0  0  0  0  0  0  0  0  0
    2.4265   -5.9578    1.2766 C   0  0  0  0  0  0  0  0  0  0  0  0
    0.5015   -3.4376    1.4514 H   0  0  0  0  0  0  0  0  0  0  0  0
    1.8331   -4.5994    2.8464 H   0  0  0  0  0  0  0  0  0  0  0  0
    2.8600   -5.9335    0.2702 H   0  0  0  0  0  0  0  0  0  0  0  0
    3.0849   -6.5663    1.9054 H   0  0  0  0  0  0  0  0  0  0  0  0
    1.4571   -6.4632    1.2088 H   0  0  0  0  0  0  0  0  0  0  0  0
    4.3757   -4.2463    2.9790 N   0  0  0  0  0  0  0  0  0  0  0  0
    5.6943   -3.7198    3.2439 C   0  0  0  0  0  0  0  0  0  0  0  0
    3.9913   -4.9157    3.6391 H   0  0  0  0  0  0  0  0  0  0  0  0
    6.4490   -4.3629    2.7676 H   0  0  0  0  0  0  0  0  0  0  0  0
    5.7709   -2.7010    2.8361 H   0  0  0  0  0  0  0  0  0  0  0  0
    5.8673   -3.6941    4.3299 H   0  0  0  0  0  0  0  0  0  0  0  0
 18 19  1  0  0  0  0
 19 31  1  0  0  0  0
 19 20  2  0  0  0  0
  8  9  1  0  0  0  0
  9 17  1  0  0  0  0
  9 10  2  0  0  0  0
  1  3  1  0  0  0  0
  1  7  1  0  0  0  0
  1  2  2  0  0  0  0
 32 33  1  0  0  0  0
 33 41  1  0  0  0  0
 33 34  2  0  0  0  0
 21 22  1  0  0  0  0
 22 23  1  0  0  0  0
 18 21  1  0  0  0  0
 17 23  1  0  0  0  0
 17 18  1  0  0  0  0
  8 11  1  0  0  0  0
 32 35  1  0  0  0  0
 41 42  1  0  0  0  0
  7  8  1  0  0  0  0
 31 32  1  0  0  0  0
 22 27  1  0  0  0  0
 22 28  1  0  0  0  0
 21 25  1  0  0  0  0
 21 26  1  0  0  0  0
 23 29  1  0  0  0  0
 23 30  1  0  0  0  0
 18 24  1  0  0  0  0
  3  4  1  0  0  0  0
  3  5  1  0  0  0  0
  3  6  1  0  0  0  0
 11 14  1  0  0  0  0
 11 15  1  0  0  0  0
 11 16  1  0  0  0  0
 35 38  1  0  0  0  0
 35 39  1  0  0  0  0
 35 40  1  0  0  0  0
 42 44  1  0  0  0  0
 42 45  1  0  0  0  0
 42 46  1  0  0  0  0
  8 13  1  0  0  0  0
 32 37  1  0  0  0  0
 31 36  1  0  0  0  0
 41 43  1  0  0  0  0
  7 12  1  0  0  0  0
M  END
$$$$

  -OEChem-05262214473D

 46 46  0     1  0  0  0  0  0999 V2000
   -0.6012   -3.2995    3.8205 C   0  0  0  0  0  0  0  0  0  0  0  0
   -0.6574   -4.4683    3.4568 O   0  0  0  0  0  0  0  0  0  0  0  0
   -0.4935   -2.9859    5.2760 C   0  0  0  0  0  0  0  0  0  0  0  0
   -1.4789   -2.8689    5.7550 H   0  0  0  0  0  0  0  0  0  0  0  0
    0.0123   -3.7847    5.8419 H   0  0  0  0  0  0  0  0  0  0  0  0
    0.0585   -2.0642    5.5199 H   0  0  0  0  0  0  0  0  0  0  0  0
   -0.6261   -2.1849    2.9917 N   0  0  0  0  0  0  0  0  0  0  0  0
   -0.7237   -2.2601    1.5650 C   0  0  2  0  0  0  0  0  0  0  0  0
    0.1695   -1.1513    1.0687 C   0  0  0  0  0  0  0  0  0  0  0  0
    0.3193   -0.1267    1.7365 O   0  0  0  0  0  0  0  0  0  0  0  0
   -2.1397   -2.0663    1.0750 C   0  0  0  0  0  0  0  0  0  0  0  0
   -0.5717   -1.2606    3.4238 H   0  0  0  0  0  0  0  0  0  0  0  0
   -0.3076   -3.2111    1.2363 H   0  0  0  0  0  0  0  0  0  0  0  0
   -2.5584   -1.1089    1.4061 H   0  0  0  0  0  0  0  0  0  0  0  0
   -2.1682   -2.0790   -0.0197 H   0  0  0  0  0  0  0  0  0  0  0  0
   -2.7965   -2.8601    1.4459 H   0  0  0  0  0  0  0  0  0  0  0  0
    0.7724   -1.3745   -0.1593 N   0  0  0  0  0  0  0  0  0  0  0  0
    0.5614   -2.5964   -0.9244 C   0  0  2  0  0  0  0  0  0  0  0  0
    1.6157   -3.5728   -0.4972 C   0  0  0  0  0  0  0  0  0  0  0  0
    2.5642   -3.8007   -1.2389 O   0  0  0  0  0  0  0  0  0  0  0  0
    0.7345   -2.1771   -2.3796 C   0  0  0  0  0  0  0  0  0  0  0  0
    0.3244   -0.8671   -1.7112 C   0  0  0  0  0  0  0  0  0  0  0  0
    1.5408   -0.3981   -0.9273 C   0  0  0  0  0  0  0  0  0  0  0  0
   -0.4227   -3.0263   -0.7144 H   0  0  0  0  0  0  0  0  0  0  0  0
    0.0120   -2.7078   -3.0110 H   0  0  0  0  0  0  0  0  0  0  0  0
    1.7400   -2.3597   -2.7711 H   0  0  0  0  0  0  0  0  0  0  0  0
    0.0755   -0.1144   -2.4681 H   0  0  0  0  0  0  0  0  0  0  0  0
   -0.5410   -0.9920   -1.0542 H   0  0  0  0  0  0  0  0  0  0  0  0
    2.4811   -0.6014   -1.4471 H   0  0  0  0  0  0  0  0  0  0  0  0
    1.4806    0.6724   -0.7030 H   0  0  0  0  0  0  0  0  0  0  0  0
    1.1421   -4.0607    0.9093 N   0  0  0  0  0  0  0  0  0  0  0  0
    1.9653   -4.9383    1.7101 C   0  0  2  0  0  0  0  0  0  0  0  0
    3.2098   -4.1654    2.1266 C   0  0  0  0  0  0  0  0  0  0  0  0
    3.6253   -3.1832    1.5153 O   0  0  0  0  0  0  0  0  0  0  0  0
    2.3388   -6.1980    0.9443 C   0  0  0  0  0  0  0  0  0  0  0  0
    0.1934   -3.8720    1.2188 H   0  0  0  0  0  0  0  0  0  0  0  0
    1.3802   -5.1964    2.5995 H   0  0  0  0  0  0  0  0  0  0  0  0
    2.9254   -5.9593    0.0497 H   0  0  0  0  0  0  0  0  0  0  0  0
    2.9384   -6.8747    1.5619 H   0  0  0  0  0  0  0  0  0  0  0  0
    1.4421   -6.7370    0.6197 H   0  0  0  0  0  0  0  0  0  0  0  0
    3.8261   -4.7273    3.2359 N   0  0  0  0  0  0  0  0  0  0  0  0
    5.0321   -4.1844    3.8163 C   0  0  0  0  0  0  0  0  0  0  0  0
    3.4013   -5.5303    3.6903 H   0  0  0  0  0  0  0  0  0  0  0  0
    5.9083   -4.6813    3.3743 H   0  0  0  0  0  0  0  0  0  0  0  0
    5.0823   -3.1044    3.6138 H   0  0  0  0  0  0  0  0  0  0  0  0
    5.0242   -4.3537    4.9032 H   0  0  0  0  0  0  0  0  0  0  0  0
 18 19  1  0  0  0  0
 19 31  1  0  0  0  0
 19 20  2  0  0  0  0
  8  9  1  0  0  0  0
  9 17  1  0  0  0  0
  9 10  2  0  0  0  0
  1  3  1  0  0  0  0
  1  7  1  0  0  0  0
  1  2  2  0  0  0  0
 32 33  1  0  0  0  0
 33 41  1  0  0  0  0
 33 34  2  0  0  0  0
 21 22  1  0  0  0  0
 22 23  1  0  0  0  0
 18 21  1  0  0  0  0
 17 23  1  0  0  0  0
 17 18  1  0  0  0  0
  8 11  1  0  0  0  0
 32 35  1  0  0  0  0
 41 42  1  0  0  0  0
  7  8  1  0  0  0  0
 31 32  1  0  0  0  0
 22 27  1  0  0  0  0
 22 28  1  0  0  0  0
 21 25  1  0  0  0  0
 21 26  1  0  0  0  0
 23 29  1  0  0  0  0
 23 30  1  0  0  0  0
 18 24  1  0  0  0  0
  3  4  1  0  0  0  0
  3  5  1  0  0  0  0
  3  6  1  0  0  0  0
 11 14  1  0  0  0  0
 11 15  1  0  0  0  0
 11 16  1  0  0  0  0
 35 38  1  0  0  0  0
 35 39  1  0  0  0  0
 35 40  1  0  0  0  0
 42 44  1  0  0  0  0
 42 45  1  0  0  0  0
 42 46  1  0  0  0  0
  8 13  1  0  0  0  0
 32 37  1  0  0  0  0
 31 36  1  0  0  0  0
 41 43  1  0  0  0  0
  7 12  1  0  0  0  0
M  END
$$$$

  -OEChem-05262214473D

 46 46  0     1  0  0  0  0  0999 V2000
   -0.6012   -3.2995    3.8205 C   0  0  0  0  0  0  0  0  0  0  0  0
   -0.6574   -4.4683    3.4568 O   0  0  0  0  0  0  0  0  0  0  0  0
   -0.4935   -2.9859    5.2760 C   0  0  0  0  0  0  0  0  0  0  0  0
   -1.4789   -2.8689    5.7550 H   0  0  0  0  0  0  0  0  0  0  0  0
    0.0123   -3.7847    5.8419 H   0  0  0  0  0  0  0  0  0  0  0  0
    0.0585   -2.0642    5.5199 H   0  0  0  0  0  0  0  0  0  0  0  0
   -0.6261   -2.1849    2.9917 N   0  0  0  0  0  0  0  0  0  0  0  0
   -0.7237   -2.2601    1.5650 C   0  0  2  0  0  0  0  0  0  0  0  0
    0.1695   -1.1513    1.0687 C   0  0  0  0  0  0  0  0  0  0  0  0
    0.3193   -0.1267    1.7365 O   0  0  0  0  0  0  0  0  0  0  0  0
   -2.1397   -2.0663    1.0750 C   0  0  0  0  0  0  0  0  0  0  0  0
   -0.5717   -1.2606    3.4238 H   0  0  0  0  0  0  0  0  0  0  0  0
   -0.3076   -3.2111    1.2363 H   0  0  0  0  0  0  0  0  0  0  0  0
   -2.5584   -1.1089    1.4061 H   0  0  0  0  0  0  0  0  0  0  0  0
   -2.1682   -2.0790   -0.0197 H   0  0  0  0  0  0  0  0  0  0  0  0
   -2.7965   -2.8601    1.4459 H   0  0  0  0  0  0  0  0  0  0  0  0
    0.7724   -1.3745   -0.1593 N   0  0  0  0  0  0  0  0  0  0  0  0
    0.5614   -2.5964   -0.9244 C   0  0  2  0  0  0  0  0  0  0  0  0
    1.6157   -3.5728   -0.4972 C   0  0  0  0  0  0  0  0  0  0  0  0
    2.6882   -3.6014   -1.0893 O   0  0  0  0  0  0  0  0  0  0  0  0
    0.7345   -2.1771   -2.3796 C   0  0  0  0  0  0  0  0  0  0  0  0
    0.3244   -0.8671   -1.7112 C   0  0  0  0  0  0  0  0  0  0  0  0
    1.5408   -0.3981   -0.9273 C   0  0  0  0  0  0  0  0  0  0  0  0
   -0.4227   -3.0263   -0.7144 H   0  0  0  0  0  0  0  0  0  0  0  0
    0.0120   -2.7078   -3.0110 H   0  0  0  0  0  0  0  0  0  0  0  0
    1.7400   -2.3597   -2.7711 H   0  0  0  0  0  0  0  0  0  0  0  0
    0.0755   -0.1144   -2.4681 H   0  0  0  0  0  0  0  0  0  0  0  0
   -0.5410   -0.9920   -1.0542 H   0  0  0  0  0  0  0  0  0  0  0  0
    2.4811   -0.6014   -1.4471 H   0  0  0  0  0  0  0  0  0  0  0  0
    1.4806    0.6724   -0.7030 H   0  0  0  0  0  0  0  0  0  0  0  0
    0.9664   -4.3436    0.6965 N   0  0  0  0  0  0  0  0  0  0  0  0
    1.7243   -5.3069    1.4624 C   0  0  2  0  0  0  0  0  0  0  0  0
    2.8109   -4.5553    2.2200 C   0  0  0  0  0  0  0  0  0  0  0  0
    3.2304   -3.4531    1.8733 O   0  0  0  0  0  0  0  0  0  0  0  0
    2.3277   -6.3759    0.5647 C   0  0  0  0  0  0  0  0  0  0  0  0
   -0.0329   -4.2721    0.8630 H   0  0  0  0  0  0  0  0  0  0  0  0
    1.0285   -5.7615    2.1760 H   0  0  0  0  0  0  0  0  0  0  0  0
    3.0276   -5.9394   -0.1570 H   0  0  0  0  0  0  0  0  0  0  0  0
    2.8776   -7.1208    1.1494 H   0  0  0  0  0  0  0  0  0  0  0  0
    1.5472   -6.8954   -0.0016 H   0  0  0  0  0  0  0  0  0  0  0  0
    3.2874   -5.2793    3.3039 N   0  0  0  0  0  0  0  0  0  0  0  0
    4.3302   -4.7862    4.1731 C   0  0  0  0  0  0  0  0  0  0  0  0
    2.8681   -6.1768    3.5285 H   0  0  0  0  0  0  0  0  0  0  0  0
    5.3072   -5.1392    3.8113 H   0  0  0  0  0  0  0  0  0  0  0  0
    4.3158   -3.6863    4.1754 H   0  0  0  0  0  0  0  0  0  0  0  0
    4.1618   -5.1573    5.1948 H   0  0  0  0  0  0  0  0  0  0  0  0
 18 19  1  0  0  0  0
 19 31  1  0  0  0  0
 19 20  2  0  0  0  0
  8  9  1  0  0  0  0
  9 17  1  0  0  0  0
  9 10  2  0  0  0  0
  1  3  1  0  0  0  0
  1  7  1  0  0  0  0
  1  2  2  0  0  0  0
 32 33  1  0  0  0  0
 33 41  1  0  0  0  0
 33 34  2  0  0  0  0
 21 22  1  0  0  0  0
 22 23  1  0  0  0  0
 18 21  1  0  0  0  0
 17 23  1  0  0  0  0
 17 18  1  0  0  0  0
  8 11  1  0  0  0  0
 32 35  1  0  0  0  0
 41 42  1  0  0  0  0
  7  8  1  0  0  0  0
 31 32  1  0  0  0  0
 22 27  1  0  0  0  0
 22 28  1  0  0  0  0
 21 25  1  0  0  0  0
 21 26  1  0  0  0  0
 23 29  1  0  0  0  0
 23 30  1  0  0  0  0
 18 24  1  0  0  0  0
  3  4  1  0  0  0  0
  3  5  1  0  0  0  0
  3  6  1  0  0  0  0
 11 14  1  0  0  0  0
 11 15  1  0  0  0  0
 11 16  1  0  0  0  0
 35 38  1  0  0  0  0
 35 39  1  0  0  0  0
 35 40  1  0  0  0  0
 42 44  1  0  0  0  0
 42 45  1  0  0  0  0
 42 46  1  0  0  0  0
  8 13  1  0  0  0  0
 32 37  1  0  0  0  0
 31 36  1  0  0  0  0
 41 43  1  0  0  0  0
  7 12  1  0  0  0  0
M  END
$$$$

  -OEChem-05262214473D

 46 46  0     1  0  0  0  0  0999 V2000
   -0.6012   -3.2995    3.8205 C   0  0  0  0  0  0  0  0  0  0  0  0
   -0.6574   -4.4683    3.4568 O   0  0  0  0  0  0  0  0  0  0  0  0
   -0.4935   -2.9859    5.2760 C   0  0  0  0  0  0  0  0  0  0  0  0
   -1.4789   -2.8689    5.7550 H   0  0  0  0  0  0  0  0  0  0  0  0
    0.0123   -3.7847    5.8419 H   0  0  0  0  0  0  0  0  0  0  0  0
    0.0585   -2.0642    5.5199 H   0  0  0  0  0  0  0  0  0  0  0  0
   -0.6261   -2.1849    2.9917 N   0  0  0  0  0  0  0  0  0  0  0  0
   -0.7237   -2.2601    1.5650 C   0  0  2  0  0  0  0  0  0  0  0  0
    0.1695   -1.1513    1.0687 C   0  0  0  0  0  0  0  0  0  0  0  0
    0.3193   -0.1267    1.7365 O   0  0  0  0  0  0  0  0  0  0  0  0
   -2.1397   -2.0663    1.0750 C   0  0  0  0  0  0  0  0  0  0  0  0
   -0.5717   -1.2606    3.4238 H   0  0  0  0  0  0  0  0  0  0  0  0
   -0.3076   -3.2111    1.2363 H   0  0  0  0  0  0  0  0  0  0  0  0
   -2.5584   -1.1089    1.4061 H   0  0  0  0  0  0  0  0  0  0  0  0
   -2.1682   -2.0790   -0.0197 H   0  0  0  0  0  0  0  0  0  0  0  0
   -2.7965   -2.8601    1.4459 H   0  0  0  0  0  0  0  0  0  0  0  0
    0.7724   -1.3745   -0.1593 N   0  0  0  0  0  0  0  0  0  0  0  0
    0.5614   -2.5964   -0.9244 C   0  0  2  0  0  0  0  0  0  0  0  0
    1.6157   -3.5728   -0.4972 C   0  0  0  0  0  0  0  0  0  0  0  0
    2.7681   -3.4270   -0.8876 O   0  0  0  0  0  0  0  0  0  0  0  0
    0.7345   -2.1771   -2.3796 C   0  0  0  0  0  0  0  0  0  0  0  0
    0.3244   -0.8671   -1.7112 C   0  0  0  0  0  0  0  0  0  0  0  0
    1.5408   -0.3981   -0.9273 C   0  0  0  0  0  0  0  0  0  0  0  0
   -0.4227   -3.0263   -0.7144 H   0  0  0  0  0  0  0  0  0  0  0  0
    0.0120   -2.7078   -3.0110 H   0  0  0  0  0  0  0  0  0  0  0  0
    1.7400   -2.3597   -2.7711 H   0  0  0  0  0  0  0  0  0  0  0  0
    0.0755   -0.1144   -2.4681 H   0  0  0  0  0  0  0  0  0  0  0  0
   -0.5410   -0.9920   -1.0542 H   0  0  0  0  0  0  0  0  0  0  0  0
    2.4811   -0.6014   -1.4471 H   0  0  0  0  0  0  0  0  0  0  0  0
    1.4806    0.6724   -0.7030 H   0  0  0  0  0  0  0  0  0  0  0  0
    0.8533   -4.5910    0.4098 N   0  0  0  0  0  0  0  0  0  0  0  0
    1.5604   -5.6356    1.1154 C   0  0  2  0  0  0  0  0  0  0  0  0
    2.4386   -4.9783    2.1719 C   0  0  0  0  0  0  0  0  0  0  0  0
    2.8084   -3.8080    2.1033 O   0  0  0  0  0  0  0  0  0  0  0  0
    2.3941   -6.4796    0.1639 C   0  0  0  0  0  0  0  0  0  0  0  0
   -0.1621   -4.6104    0.4084 H   0  0  0  0  0  0  0  0  0  0  0  0
    0.8018   -6.2562    1.6047 H   0  0  0  0  0  0  0  0  0  0  0  0
    3.1598   -5.8749   -0.3358 H   0  0  0  0  0  0  0  0  0  0  0  0
    2.9066   -7.2880    0.6958 H   0  0  0  0  0  0  0  0  0  0  0  0
    1.7651   -6.9275   -0.6129 H   0  0  0  0  0  0  0  0  0  0  0  0
    2.7962   -5.8646    3.1783 N   0  0  0  0  0  0  0  0  0  0  0  0
    3.6365   -5.4842    4.2898 C   0  0  0  0  0  0  0  0  0  0  0  0
    2.4281   -6.8112    3.1646 H   0  0  0  0  0  0  0  0  0  0  0  0
    4.6867   -5.7053    4.0487 H   0  0  0  0  0  0  0  0  0  0  0  0
    3.5236   -4.4072    4.4828 H   0  0  0  0  0  0  0  0  0  0  0  0
    3.3388   -6.0503    5.1848 H   0  0  0  0  0  0  0  0  0  0  0  0
 18 19  1  0  0  0  0
 19 31  1  0  0  0  0
 19 20  2  0  0  0  0
  8  9  1  0  0  0  0
  9 17  1  0  0  0  0
  9 10  2  0  0  0  0
  1  3  1  0  0  0  0
  1  7  1  0  0  0  0
  1  2  2  0  0  0  0
 32 33  1  0  0  0  0
 33 41  1  0  0  0  0
 33 34  2  0  0  0  0
 21 22  1  0  0  0  0
 22 23  1  0  0  0  0
 18 21  1  0  0  0  0
 17 23  1  0  0  0  0
 17 18  1  0  0  0  0
  8 11  1  0  0  0  0
 32 35  1  0  0  0  0
 41 42  1  0  0  0  0
  7  8  1  0  0  0  0
 31 32  1  0  0  0  0
 22 27  1  0  0  0  0
 22 28  1  0  0  0  0
 21 25  1  0  0  0  0
 21 26  1  0  0  0  0
 23 29  1  0  0  0  0
 23 30  1  0  0  0  0
 18 24  1  0  0  0  0
  3  4  1  0  0  0  0
  3  5  1  0  0  0  0
  3  6  1  0  0  0  0
 11 14  1  0  0  0  0
 11 15  1  0  0  0  0
 11 16  1  0  0  0  0
 35 38  1  0  0  0  0
 35 39  1  0  0  0  0
 35 40  1  0  0  0  0
 42 44  1  0  0  0  0
 42 45  1  0  0  0  0
 42 46  1  0  0  0  0
  8 13  1  0  0  0  0
 32 37  1  0  0  0  0
 31 36  1  0  0  0  0
 41 43  1  0  0  0  0
  7 12  1  0  0  0  0
M  END
$$$$

  -OEChem-05262214473D

 46 46  0     1  0  0  0  0  0999 V2000
   -0.6012   -3.2995    3.8205 C   0  0  0  0  0  0  0  0  0  0  0  0
   -0.6574   -4.4683    3.4568 O   0  0  0  0  0  0  0  0  0  0  0  0
   -0.4935   -2.9859    5.2760 C   0  0  0  0  0  0  0  0  0  0  0  0
   -1.4789   -2.8689    5.7550 H   0  0  0  0  0  0  0  0  0  0  0  0
    0.0123   -3.7847    5.8419 H   0  0  0  0  0  0  0  0  0  0  0  0
    0.0585   -2.0642    5.5199 H   0  0  0  0  0  0  0  0  0  0  0  0
   -0.6261   -2.1849    2.9917 N   0  0  0  0  0  0  0  0  0  0  0  0
   -0.7237   -2.2601    1.5650 C   0  0  2  0  0  0  0  0  0  0  0  0
    0.1695   -1.1513    1.0687 C   0  0  0  0  0  0  0  0  0  0  0  0
    0.3193   -0.1267    1.7365 O   0  0  0  0  0  0  0  0  0  0  0  0
   -2.1397   -2.0663    1.0750 C   0  0  0  0  0  0  0  0  0  0  0  0
   -0.5717   -1.2606    3.4238 H   0  0  0  0  0  0  0  0  0  0  0  0
   -0.3076   -3.2111    1.2363 H   0  0  0  0  0  0  0  0  0  0  0  0
   -2.5584   -1.1089    1.4061 H   0  0  0  0  0  0  0  0  0  0  0  0
   -2.1682   -2.0790   -0.0197 H   0  0  0  0  0  0  0  0  0  0  0  0
   -2.7965   -2.8601    1.4459 H   0  0  0  0  0  0  0  0  0  0  0  0
    0.7724   -1.3745   -0.1593 N   0  0  0  0  0  0  0  0  0  0  0  0
    0.5614   -2.5964   -0.9244 C   0  0  2  0  0  0  0  0  0  0  0  0
    1.6157   -3.5728   -0.4972 C   0  0  0  0  0  0  0  0  0  0  0  0
    2.7983   -3.2893   -0.6477 O   0  0  0  0  0  0  0  0  0  0  0  0
    0.7345   -2.1771   -2.3796 C   0  0  0  0  0  0  0  0  0  0  0  0
    0.3244   -0.8671   -1.7112 C   0  0  0  0  0  0  0  0  0  0  0  0
    1.5408   -0.3981   -0.9273 C   0  0  0  0  0  0  0  0  0  0  0  0
   -0.4227   -3.0263   -0.7144 H   0  0  0  0  0  0  0  0  0  0  0  0
    0.0120   -2.7078   -3.0110 H   0  0  0  0  0  0  0  0  0  0  0  0
    1.7400   -2.3597   -2.7711 H   0  0  0  0  0  0  0  0  0  0  0  0
    0.0755   -0.1144   -2.4681 H   0  0  0  0  0  0  0  0  0  0  0  0
   -0.5410   -0.9920   -1.0542 H   0  0  0  0  0  0  0  0  0  0  0  0
    2.4811   -0.6014   -1.4471 H   0  0  0  0  0  0  0  0  0  0  0  0
    1.4806    0.6724   -0.7030 H   0  0  0  0  0  0  0  0  0  0  0  0
    0.8107   -4.7862    0.0688 N   0  0  0  0  0  0  0  0  0  0  0  0
    1.4848   -5.9021    0.6928 C   0  0  2  0  0  0  0  0  0  0  0  0
    2.1183   -5.4056    1.9857 C   0  0  0  0  0  0  0  0  0  0  0  0
    2.3883   -4.2239    2.1898 O   0  0  0  0  0  0  0  0  0  0  0  0
    2.5335   -6.5018   -0.2310 C   0  0  0  0  0  0  0  0  0  0  0  0
   -0.1852   -4.8639   -0.1141 H   0  0  0  0  0  0  0  0  0  0  0  0
    0.7156   -6.6468    0.9247 H   0  0  0  0  0  0  0  0  0  0  0  0
    3.3128   -5.7704   -0.4745 H   0  0  0  0  0  0  0  0  0  0  0  0
    3.0234   -7.3647    0.2321 H   0  0  0  0  0  0  0  0  0  0  0  0
    2.0810   -6.8312   -1.1725 H   0  0  0  0  0  0  0  0  0  0  0  0
    2.3862   -6.4432    2.8677 N   0  0  0  0  0  0  0  0  0  0  0  0
    2.9982   -6.2308    4.1585 C   0  0  0  0  0  0  0  0  0  0  0  0
    2.1112   -7.3901    2.6235 H   0  0  0  0  0  0  0  0  0  0  0  0
    4.0891   -6.3412    4.0703 H   0  0  0  0  0  0  0  0  0  0  0  0
    2.7598   -5.2179    4.5150 H   0  0  0  0  0  0  0  0  0  0  0  0
    2.6115   -6.9717    4.8738 H   0  0  0  0  0  0  0  0  0  0  0  0
 18 19  1  0  0  0  0
 19 31  1  0  0  0  0
 19 20  2  0  0  0  0
  8  9  1  0  0  0  0
  9 17  1  0  0  0  0
  9 10  2  0  0  0  0
  1  3  1  0  0  0  0
  1  7  1  0  0  0  0
  1  2  2  0  0  0  0
 32 33  1  0  0  0  0
 33 41  1  0  0  0  0
 33 34  2  0  0  0  0
 21 22  1  0  0  0  0
 22 23  1  0  0  0  0
 18 21  1  0  0  0  0
 17 23  1  0  0  0  0
 17 18  1  0  0  0  0
  8 11  1  0  0  0  0
 32 35  1  0  0  0  0
 41 42  1  0  0  0  0
  7  8  1  0  0  0  0
 31 32  1  0  0  0  0
 22 27  1  0  0  0  0
 22 28  1  0  0  0  0
 21 25  1  0  0  0  0
 21 26  1  0  0  0  0
 23 29  1  0  0  0  0
 23 30  1  0  0  0  0
 18 24  1  0  0  0  0
  3  4  1  0  0  0  0
  3  5  1  0  0  0  0
  3  6  1  0  0  0  0
 11 14  1  0  0  0  0
 11 15  1  0  0  0  0
 11 16  1  0  0  0  0
 35 38  1  0  0  0  0
 35 39  1  0  0  0  0
 35 40  1  0  0  0  0
 42 44  1  0  0  0  0
 42 45  1  0  0  0  0
 42 46  1  0  0  0  0
  8 13  1  0  0  0  0
 32 37  1  0  0  0  0
 31 36  1  0  0  0  0
 41 43  1  0  0  0  0
  7 12  1  0  0  0  0
M  END
$$$$

  -OEChem-05262214473D

 46 46  0     1  0  0  0  0  0999 V2000
   -0.6012   -3.2995    3.8205 C   0  0  0  0  0  0  0  0  0  0  0  0
   -0.6574   -4.4683    3.4568 O   0  0  0  0  0  0  0  0  0  0  0  0
   -0.4935   -2.9859    5.2760 C   0  0  0  0  0  0  0  0  0  0  0  0
   -1.4789   -2.8689    5.7550 H   0  0  0  0  0  0  0  0  0  0  0  0
    0.0123   -3.7847    5.8419 H   0  0  0  0  0  0  0  0  0  0  0  0
    0.0585   -2.0642    5.5199 H   0  0  0  0  0  0  0  0  0  0  0  0
   -0.6261   -2.1849    2.9917 N   0  0  0  0  0  0  0  0  0  0  0  0
   -0.7237   -2.2601    1.5650 C   0  0  2  0  0  0  0  0  0  0  0  0
    0.1695   -1.1513    1.0687 C   0  0  0  0  0  0  0  0  0  0  0  0
    0.3193   -0.1267    1.7365 O   0  0  0  0  0  0  0  0  0  0  0  0
   -2.1397   -2.0663    1.0750 C   0  0  0  0  0  0  0  0  0  0  0  0
   -0.5717   -1.2606    3.4238 H   0  0  0  0  0  0  0  0  0  0  0  0
   -0.3076   -3.2111    1.2363 H   0  0  0  0  0  0  0  0  0  0  0  0
   -2.5584   -1.1089    1.4061 H   0  0  0  0  0  0  0  0  0  0  0  0
   -2.1682   -2.0790   -0.0197 H   0  0  0  0  0  0  0  0  0  0  0  0
   -2.7965   -2.8601    1.4459 H   0  0  0  0  0  0  0  0  0  0  0  0
    0.7724   -1.3745   -0.1593 N   0  0  0  0  0  0  0  0  0  0  0  0
    0.5614   -2.5964   -0.9244 C   0  0  2  0  0  0  0  0  0  0  0  0
    1.6157   -3.5728   -0.4972 C   0  0  0  0  0  0  0  0  0  0  0  0
    2.7770   -3.1978   -0.3857 O   0  0  0  0  0  0  0  0  0  0  0  0
    0.7345   -2.1771   -2.3796 C   0  0  0  0  0  0  0  0  0  0  0  0
    0.3244   -0.8671   -1.7112 C   0  0  0  0  0  0  0  0  0  0  0  0
    1.5408   -0.3981   -0.9273 C   0  0  0  0  0  0  0  0  0  0  0  0
   -0.4227   -3.0263   -0.7144 H   0  0  0  0  0  0  0  0  0  0  0  0
    0.0120   -2.7078   -3.0110 H   0  0  0  0  0  0  0  0  0  0  0  0
    1.7400   -2.3597   -2.7711 H   0  0  0  0  0  0  0  0  0  0  0  0
    0.0755   -0.1144   -2.4681 H   0  0  0  0  0  0  0  0  0  0  0  0
   -0.5410   -0.9920   -1.0542 H   0  0  0  0  0  0  0  0  0  0  0  0
    2.4811   -0.6014   -1.4471 H   0  0  0  0  0  0  0  0  0  0  0  0
    1.4806    0.6724   -0.7030 H   0  0  0  0  0  0  0  0  0  0  0  0
    0.8415   -4.9158   -0.3033 N   0  0  0  0  0  0  0  0  0  0  0  0
    1.5027   -6.0882    0.2233 C   0  0  2  0  0  0  0  0  0  0  0  0
    1.8718   -5.8081    1.6741 C   0  0  0  0  0  0  0  0  0  0  0  0
    1.9986   -4.6723    2.1268 O   0  0  0  0  0  0  0  0  0  0  0  0
    2.7364   -6.4411   -0.5929 C   0  0  0  0  0  0  0  0  0  0  0  0
   -0.1008   -5.0155   -0.6688 H   0  0  0  0  0  0  0  0  0  0  0  0
    0.7758   -6.9066    0.1822 H   0  0  0  0  0  0  0  0  0  0  0  0
    3.4762   -5.6329   -0.5637 H   0  0  0  0  0  0  0  0  0  0  0  0
    3.2200   -7.3459   -0.2100 H   0  0  0  0  0  0  0  0  0  0  0  0
    2.4733   -6.6131   -1.6422 H   0  0  0  0  0  0  0  0  0  0  0  0
    2.0851   -6.9759    2.3931 N   0  0  0  0  0  0  0  0  0  0  0  0
    2.4588   -6.9752    3.7882 C   0  0  0  0  0  0  0  0  0  0  0  0
    1.9390   -7.8742    1.9421 H   0  0  0  0  0  0  0  0  0  0  0  0
    3.5551   -7.0033    3.8748 H   0  0  0  0  0  0  0  0  0  0  0  0
    2.0764   -6.0631    4.2697 H   0  0  0  0  0  0  0  0  0  0  0  0
    2.0293   -7.8587    4.2832 H   0  0  0  0  0  0  0  0  0  0  0  0
 18 19  1  0  0  0  0
 19 31  1  0  0  0  0
 19 20  2  0  0  0  0
  8  9  1  0  0  0  0
  9 17  1  0  0  0  0
  9 10  2  0  0  0  0
  1  3  1  0  0  0  0
  1  7  1  0  0  0  0
  1  2  2  0  0  0  0
 32 33  1  0  0  0  0
 33 41  1  0  0  0  0
 33 34  2  0  0  0  0
 21 22  1  0  0  0  0
 22 23  1  0  0  0  0
 18 21  1  0  0  0  0
 17 23  1  0  0  0  0
 17 18  1  0  0  0  0
  8 11  1  0  0  0  0
 32 35  1  0  0  0  0
 41 42  1  0  0  0  0
  7  8  1  0  0  0  0
 31 32  1  0  0  0  0
 22 27  1  0  0  0  0
 22 28  1  0  0  0  0
 21 25  1  0  0  0  0
 21 26  1  0  0  0  0
 23 29  1  0  0  0  0
 23 30  1  0  0  0  0
 18 24  1  0  0  0  0
  3  4  1  0  0  0  0
  3  5  1  0  0  0  0
  3  6  1  0  0  0  0
 11 14  1  0  0  0  0
 11 15  1  0  0  0  0
 11 16  1  0  0  0  0
 35 38  1  0  0  0  0
 35 39  1  0  0  0  0
 35 40  1  0  0  0  0
 42 44  1  0  0  0  0
 42 45  1  0  0  0  0
 42 46  1  0  0  0  0
  8 13  1  0  0  0  0
 32 37  1  0  0  0  0
 31 36  1  0  0  0  0
 41 43  1  0  0  0  0
  7 12  1  0  0  0  0
M  END
$$$$

  -OEChem-05262214473D

 46 46  0     1  0  0  0  0  0999 V2000
   -0.6012   -3.2995    3.8205 C   0  0  0  0  0  0  0  0  0  0  0  0
   -0.6574   -4.4683    3.4568 O   0  0  0  0  0  0  0  0  0  0  0  0
   -0.4935   -2.9859    5.2760 C   0  0  0  0  0  0  0  0  0  0  0  0
   -1.4789   -2.8689    5.7550 H   0  0  0  0  0  0  0  0  0  0  0  0
    0.0123   -3.7847    5.8419 H   0  0  0  0  0  0  0  0  0  0  0  0
    0.0585   -2.0642    5.5199 H   0  0  0  0  0  0  0  0  0  0  0  0
   -0.6261   -2.1849    2.9917 N   0  0  0  0  0  0  0  0  0  0  0  0
   -0.7237   -2.2601    1.5650 C   0  0  2  0  0  0  0  0  0  0  0  0
    0.1695   -1.1513    1.0687 C   0  0  0  0  0  0  0  0  0  0  0  0
    0.3193   -0.1267    1.7365 O   0  0  0  0  0  0  0  0  0  0  0  0
   -2.1397   -2.0663    1.0750 C   0  0  0  0  0  0  0  0  0  0  0  0
   -0.5717   -1.2606    3.4238 H   0  0  0  0  0  0  0  0  0  0  0  0
   -0.3076   -3.2111    1.2363 H   0  0  0  0  0  0  0  0  0  0  0  0
   -2.5584   -1.1089    1.4061 H   0  0  0  0  0  0  0  0  0  0  0  0
   -2.1682   -2.0790   -0.0197 H   0  0  0  0  0  0  0  0  0  0  0  0
   -2.7965   -2.8601    1.4459 H   0  0  0  0  0  0  0  0  0  0  0  0
    0.7724   -1.3745   -0.1593 N   0  0  0  0  0  0  0  0  0  0  0  0
    0.5614   -2.5964   -0.9244 C   0  0  2  0  0  0  0  0  0  0  0  0
    1.6157   -3.5728   -0.4972 C   0  0  0  0  0  0  0  0  0  0  0  0
    2.7054   -3.1586   -0.1196 O   0  0  0  0  0  0  0  0  0  0  0  0
    0.7345   -2.1771   -2.3796 C   0  0  0  0  0  0  0  0  0  0  0  0
    0.3244   -0.8671   -1.7112 C   0  0  0  0  0  0  0  0  0  0  0  0
    1.5408   -0.3981   -0.9273 C   0  0  0  0  0  0  0  0  0  0  0  0
   -0.4227   -3.0263   -0.7144 H   0  0  0  0  0  0  0  0  0  0  0  0
    0.0120   -2.7078   -3.0110 H   0  0  0  0  0  0  0  0  0  0  0  0
    1.7400   -2.3597   -2.7711 H   0  0  0  0  0  0  0  0  0  0  0  0
    0.0755   -0.1144   -2.4681 H   0  0  0  0  0  0  0  0  0  0  0  0
   -0.5410   -0.9920   -1.0542 H   0  0  0  0  0  0  0  0  0  0  0  0
    2.4811   -0.6014   -1.4471 H   0  0  0  0  0  0  0  0  0  0  0  0
    1.4806    0.6724   -0.7030 H   0  0  0  0  0  0  0  0  0  0  0  0
    0.9434   -4.9710   -0.6811 N   0  0  0  0  0  0  0  0  0  0  0  0
    1.6129   -6.1811   -0.2610 C   0  0  2  0  0  0  0  0  0  0  0  0
    1.7159   -6.1583    1.2583 C   0  0  0  0  0  0  0  0  0  0  0  0
    1.6658   -5.1227    1.9186 O   0  0  0  0  0  0  0  0  0  0  0  0
    2.9888   -6.3017   -0.8973 C   0  0  0  0  0  0  0  0  0  0  0  0
    0.0854   -5.0546   -1.2180 H   0  0  0  0  0  0  0  0  0  0  0  0
    0.9782   -7.0180   -0.5721 H   0  0  0  0  0  0  0  0  0  0  0  0
    3.6390   -5.4718   -0.5972 H   0  0  0  0  0  0  0  0  0  0  0  0
    3.4830   -7.2327   -0.6005 H   0  0  0  0  0  0  0  0  0  0  0  0
    2.9154   -6.2879   -1.9901 H   0  0  0  0  0  0  0  0  0  0  0  0
    1.9136   -7.4262    1.7871 N   0  0  0  0  0  0  0  0  0  0  0  0
    2.0552   -7.6666    3.2042 C   0  0  0  0  0  0  0  0  0  0  0  0
    1.9232   -8.2304    1.1667 H   0  0  0  0  0  0  0  0  0  0  0  0
    3.1210   -7.6467    3.4753 H   0  0  0  0  0  0  0  0  0  0  0  0
    1.5200   -6.8853    3.7637 H   0  0  0  0  0  0  0  0  0  0  0  0
    1.6319   -8.6509    3.4530 H   0  0  0  0  0  0  0  0  0  0  0  0
 18 19  1  0  0  0  0
 19 31  1  0  0  0  0
 19 20  2  0  0  0  0
  8  9  1  0  0  0  0
  9 17  1  0  0  0  0
  9 10  2  0  0  0  0
  1  3  1  0  0  0  0
  1  7  1  0  0  0  0
  1  2  2  0  0  0  0
 32 33  1  0  0  0  0
 33 41  1  0  0  0  0
 33 34  2  0  0  0  0
 21 22  1  0  0  0  0
 22 23  1  0  0  0  0
 18 21  1  0  0  0  0
 17 23  1  0  0  0  0
 17 18  1  0  0  0  0
  8 11  1  0  0  0  0
 32 35  1  0  0  0  0
 41 42  1  0  0  0  0
  7  8  1  0  0  0  0
 31 32  1  0  0  0  0
 22 27  1  0  0  0  0
 22 28  1  0  0  0  0
 21 25  1  0  0  0  0
 21 26  1  0  0  0  0
 23 29  1  0  0  0  0
 23 30  1  0  0  0  0
 18 24  1  0  0  0  0
  3  4  1  0  0  0  0
  3  5  1  0  0  0  0
  3  6  1  0  0  0  0
 11 14  1  0  0  0  0
 11 15  1  0  0  0  0
 11 16  1  0  0  0  0
 35 38  1  0  0  0  0
 35 39  1  0  0  0  0
 35 40  1  0  0  0  0
 42 44  1  0  0  0  0
 42 45  1  0  0  0  0
 42 46  1  0  0  0  0
  8 13  1  0  0  0  0
 32 37  1  0  0  0  0
 31 36  1  0  0  0  0
 41 43  1  0  0  0  0
  7 12  1  0  0  0  0
M  END
$$$$

  -OEChem-05262214473D

 46 46  0     1  0  0  0  0  0999 V2000
   -0.6012   -3.2995    3.8205 C   0  0  0  0  0  0  0  0  0  0  0  0
   -0.6574   -4.4683    3.4568 O   0  0  0  0  0  0  0  0  0  0  0  0
   -0.4935   -2.9859    5.2760 C   0  0  0  0  0  0  0  0  0  0  0  0
   -1.4789   -2.8689    5.7550 H   0  0  0  0  0  0  0  0  0  0  0  0
    0.0123   -3.7847    5.8419 H   0  0  0  0  0  0  0  0  0  0  0  0
    0.0585   -2.0642    5.5199 H   0  0  0  0  0  0  0  0  0  0  0  0
   -0.6261   -2.1849    2.9917 N   0  0  0  0  0  0  0  0  0  0  0  0
   -0.7237   -2.2601    1.5650 C   0  0  2  0  0  0  0  0  0  0  0  0
    0.1695   -1.1513    1.0687 C   0  0  0  0  0  0  0  0  0  0  0  0
    0.3193   -0.1267    1.7365 O   0  0  0  0  0  0  0  0  0  0  0  0
   -2.1397   -2.0663    1.0750 C   0  0  0  0  0  0  0  0  0  0  0  0
   -0.5717   -1.2606    3.4238 H   0  0  0  0  0  0  0  0  0  0  0  0
   -0.3076   -3.2111    1.2363 H   0  0  0  0  0  0  0  0  0  0  0  0
   -2.5584   -1.1089    1.4061 H   0  0  0  0  0  0  0  0  0  0  0  0
   -2.1682   -2.0790   -0.0197 H   0  0  0  0  0  0  0  0  0  0  0  0
   -2.7965   -2.8601    1.4459 H   0  0  0  0  0  0  0  0  0  0  0  0
    0.7724   -1.3745   -0.1593 N   0  0  0  0  0  0  0  0  0  0  0  0
    0.5614   -2.5964   -0.9244 C   0  0  2  0  0  0  0  0  0  0  0  0
    1.6157   -3.5728   -0.4972 C   0  0  0  0  0  0  0  0  0  0  0  0
    2.5886   -3.1745    0.1325 O   0  0  0  0  0  0  0  0  0  0  0  0
    0.7345   -2.1771   -2.3796 C   0  0  0  0  0  0  0  0  0  0  0  0
    0.3244   -0.8671   -1.7112 C   0  0  0  0  0  0  0  0  0  0  0  0
    1.5408   -0.3981   -0.9273 C   0  0  0  0  0  0  0  0  0  0  0  0
   -0.4227   -3.0263   -0.7144 H   0  0  0  0  0  0  0  0  0  0  0  0
    0.0120   -2.7078   -3.0110 H   0  0  0  0  0  0  0  0  0  0  0  0
    1.7400   -2.3597   -2.7711 H   0  0  0  0  0  0  0  0  0  0  0  0
    0.0755   -0.1144   -2.4681 H   0  0  0  0  0  0  0  0  0  0  0  0
   -0.5410   -0.9920   -1.0542 H   0  0  0  0  0  0  0  0  0  0  0  0
    2.4811   -0.6014   -1.4471 H   0  0  0  0  0  0  0  0  0  0  0  0
    1.4806    0.6724   -0.7030 H   0  0  0  0  0  0  0  0  0  0  0  0
    1.1097   -4.9480   -1.0389 N   0  0  0  0  0  0  0  0  0  0  0  0
    1.8078   -6.1746   -0.7271 C   0  0  2  0  0  0  0  0  0  0  0  0
    1.6612   -6.4324    0.7667 C   0  0  0  0  0  0  0  0  0  0  0  0
    1.4126   -5.5444    1.5795 O   0  0  0  0  0  0  0  0  0  0  0  0
    3.2737   -6.0929   -1.1234 C   0  0  0  0  0  0  0  0  0  0  0  0
    0.3607   -4.9788   -1.7242 H   0  0  0  0  0  0  0  0  0  0  0  0
    1.3091   -6.9734   -1.2869 H   0  0  0  0  0  0  0  0  0  0  0  0
    3.7900   -5.2981   -0.5728 H   0  0  0  0  0  0  0  0  0  0  0  0
    3.7946   -7.0328   -0.9128 H   0  0  0  0  0  0  0  0  0  0  0  0
    3.3771   -5.8779   -2.1924 H   0  0  0  0  0  0  0  0  0  0  0  0
    1.8833   -7.7635    1.0908 N   0  0  0  0  0  0  0  0  0  0  0  0
    1.8147   -8.2579    2.4461 C   0  0  0  0  0  0  0  0  0  0  0  0
    2.0649   -8.4345    0.3502 H   0  0  0  0  0  0  0  0  0  0  0  0
    2.8166   -8.2275    2.8992 H   0  0  0  0  0  0  0  0  0  0  0  0
    1.1284   -7.6284    3.0316 H   0  0  0  0  0  0  0  0  0  0  0  0
    1.4465   -9.2944    2.4400 H   0  0  0  0  0  0  0  0  0  0  0  0
 18 19  1  0  0  0  0
 19 31  1  0  0  0  0
 19 20  2  0  0  0  0
  8  9  1  0  0  0  0
  9 17  1  0  0  0  0
  9 10  2  0  0  0  0
  1  3  1  0  0  0  0
  1  7  1  0  0  0  0
  1  2  2  0  0  0  0
 32 33  1  0  0  0  0
 33 41  1  0  0  0  0
 33 34  2  0  0  0  0
 21 22  1  0  0  0  0
 22 23  1  0  0  0  0
 18 21  1  0  0  0  0
 17 23  1  0  0  0  0
 17 18  1  0  0  0  0
  8 11  1  0  0  0  0
 32 35  1  0  0  0  0
 41 42  1  0  0  0  0
  7  8  1  0  0  0  0
 31 32  1  0  0  0  0
 22 27  1  0  0  0  0
 22 28  1  0  0  0  0
 21 25  1  0  0  0  0
 21 26  1  0  0  0  0
 23 29  1  0  0  0  0
 23 30  1  0  0  0  0
 18 24  1  0  0  0  0
  3  4  1  0  0  0  0
  3  5  1  0  0  0  0
  3  6  1  0  0  0  0
 11 14  1  0  0  0  0
 11 15  1  0  0  0  0
 11 16  1  0  0  0  0
 35 38  1  0  0  0  0
 35 39  1  0  0  0  0
 35 40  1  0  0  0  0
 42 44  1  0  0  0  0
 42 45  1  0  0  0  0
 42 46  1  0  0  0  0
  8 13  1  0  0  0  0
 32 37  1  0  0  0  0
 31 36  1  0  0  0  0
 41 43  1  0  0  0  0
  7 12  1  0  0  0  0
M  END
$$$$

  -OEChem-05262214473D

 46 46  0     1  0  0  0  0  0999 V2000
   -0.6012   -3.2995    3.8205 C   0  0  0  0  0  0  0  0  0  0  0  0
   -0.6574   -4.4683    3.4568 O   0  0  0  0  0  0  0  0  0  0  0  0
   -0.4935   -2.9859    5.2760 C   0  0  0  0  0  0  0  0  0  0  0  0
   -1.4789   -2.8689    5.7550 H   0  0  0  0  0  0  0  0  0  0  0  0
    0.0123   -3.7847    5.8419 H   0  0  0  0  0  0  0  0  0  0  0  0
    0.0585   -2.0642    5.5199 H   0  0  0  0  0  0  0  0  0  0  0  0
   -0.6261   -2.1849    2.9917 N   0  0  0  0  0  0  0  0  0  0  0  0
   -0.7237   -2.2601    1.5650 C   0  0  2  0  0  0  0  0  0  0  0  0
    0.1695   -1.1513    1.0687 C   0  0  0  0  0  0  0  0  0  0  0  0
    0.3193   -0.1267    1.7365 O   0  0  0  0  0  0  0  0  0  0  0  0
   -2.1397   -2.0663    1.0750 C   0  0  0  0  0  0  0  0  0  0  0  0
   -0.5717   -1.2606    3.4238 H   0  0  0  0  0  0  0  0  0  0  0  0
   -0.3076   -3.2111    1.2363 H   0  0  0  0  0  0  0  0  0  0  0  0
   -2.5584   -1.1089    1.4061 H   0  0  0  0  0  0  0  0  0  0  0  0
   -2.1682   -2.0790   -0.0197 H   0  0  0  0  0  0  0  0  0  0  0  0
   -2.7965   -2.8601    1.4459 H   0  0  0  0  0  0  0  0  0  0  0  0
    0.7724   -1.3745   -0.1593 N   0  0  0  0  0  0  0  0  0  0  0  0
    0.5614   -2.5964   -0.9244 C   0  0  2  0  0  0  0  0  0  0  0  0
    1.3522   -3.6795   -0.2542 C   0  0  0  0  0  0  0  0  0  0  0  0
    2.0071   -3.4175    0.7478 O   0  0  0  0  0  0  0  0  0  0  0  0
    1.0996   -2.2806   -2.3150 C   0  0  0  0  0  0  0  0  0  0  0  0
    0.9306   -0.7638   -2.2719 C   0  0  0  0  0  0  0  0  0  0  0  0
    1.5408   -0.3981   -0.9273 C   0  0  0  0  0  0  0  0  0  0  0  0
   -0.4951   -2.8812   -0.9260 H   0  0  0  0  0  0  0  0  0  0  0  0
    0.4622   -2.7438   -3.0776 H   0  0  0  0  0  0  0  0  0  0  0  0
    2.1299   -2.6144   -2.4719 H   0  0  0  0  0  0  0  0  0  0  0  0
    1.4901   -0.2943   -3.0893 H   0  0  0  0  0  0  0  0  0  0  0  0
   -0.1174   -0.4625   -2.3564 H   0  0  0  0  0  0  0  0  0  0  0  0
    2.6264   -0.5275   -0.9080 H   0  0  0  0  0  0  0  0  0  0  0  0
    1.2988    0.6331   -0.6483 H   0  0  0  0  0  0  0  0  0  0  0  0
    1.1285   -4.9428   -1.0528 N   0  0  0  0  0  0  0  0  0  0  0  0
    1.8320   -6.1669   -0.7433 C   0  0  2  0  0  0  0  0  0  0  0  0
    1.6695   -6.4389    0.7464 C   0  0  0  0  0  0  0  0  0  0  0  0
    1.4047   -5.5599    1.5638 O   0  0  0  0  0  0  0  0  0  0  0  0
    3.3019   -6.0710   -1.1212 C   0  0  0  0  0  0  0  0  0  0  0  0
    0.3881   -4.9731   -1.7472 H   0  0  0  0  0  0  0  0  0  0  0  0
    1.3460   -6.9644   -1.3159 H   0  0  0  0  0  0  0  0  0  0  0  0
    3.8056   -5.2772   -0.5576 H   0  0  0  0  0  0  0  0  0  0  0  0
    3.8272   -7.0089   -0.9126 H   0  0  0  0  0  0  0  0  0  0  0  0
    3.4164   -5.8458   -2.1870 H   0  0  0  0  0  0  0  0  0  0  0  0
    1.8977   -7.7712    1.0615 N   0  0  0  0  0  0  0  0  0  0  0  0
    1.8166   -8.2779    2.4116 C   0  0  0  0  0  0  0  0  0  0  0  0
    2.0931   -8.4343    0.3173 H   0  0  0  0  0  0  0  0  0  0  0  0
    2.8127   -8.2441    2.8769 H   0  0  0  0  0  0  0  0  0  0  0  0
    1.1187   -7.6586    2.9942 H   0  0  0  0  0  0  0  0  0  0  0  0
    1.4562   -9.3170    2.3920 H   0  0  0  0  0  0  0  0  0  0  0  0
 18 19  1  0  0  0  0
 19 31  1  0  0  0  0
 19 20  2  0  0  0  0
  8  9  1  0  0  0  0
  9 17  1  0  0  0  0
  9 10  2  0  0  0  0
  1  3  1  0  0  0  0
  1  7  1  0  0  0  0
  1  2  2  0  0  0  0
 32 33  1  0  0  0  0
 33 41  1  0  0  0  0
 33 34  2  0  0  0  0
 21 22  1  0  0  0  0
 22 23  1  0  0  0  0
 18 21  1  0  0  0  0
 17 23  1  0  0  0  0
 17 18  1  0  0  0  0
  8 11  1  0  0  0  0
 32 35  1  0  0  0  0
 41 42  1  0  0  0  0
  7  8  1  0  0  0  0
 31 32  1  0  0  0  0
 22 27  1  0  0  0  0
 22 28  1  0  0  0  0
 21 25  1  0  0  0  0
 21 26  1  0  0  0  0
 23 29  1  0  0  0  0
 23 30  1  0  0  0  0
 18 24  1  0  0  0  0
  3  4  1  0  0  0  0
  3  5  1  0  0  0  0
  3  6  1  0  0  0  0
 11 14  1  0  0  0  0
 11 15  1  0  0  0  0
 11 16  1  0  0  0  0
 35 38  1  0  0  0  0
 35 39  1  0  0  0  0
 35 40  1  0  0  0  0
 42 44  1  0  0  0  0
 42 45  1  0  0  0  0
 42 46  1  0  0  0  0
  8 13  1  0  0  0  0
 32 37  1  0  0  0  0
 31 36  1  0  0  0  0
 41 43  1  0  0  0  0
  7 12  1  0  0  0  0
M  END
$$$$

  -OEChem-05262214473D

 46 46  0     1  0  0  0  0  0999 V2000
   -0.6012   -3.2995    3.8205 C   0  0  0  0  0  0  0  0  0  0  0  0
   -0.6574   -4.4683    3.4568 O   0  0  0  0  0  0  0  0  0  0  0  0
   -0.4935   -2.9859    5.2760 C   0  0  0  0  0  0  0  0  0  0  0  0
   -1.4789   -2.8689    5.7550 H   0  0  0  0  0  0  0  0  0  0  0  0
    0.0123   -3.7847    5.8419 H   0  0  0  0  0  0  0  0  0  0  0  0
    0.0585   -2.0642    5.5199 H   0  0  0  0  0  0  0  0  0  0  0  0
   -0.6261   -2.1849    2.9917 N   0  0  0  0  0  0  0  0  0  0  0  0
   -0.7237   -2.2601    1.5650 C   0  0  2  0  0  0  0  0  0  0  0  0
    0.1695   -1.1513    1.0687 C   0  0  0  0  0  0  0  0  0  0  0  0
    0.3193   -0.1267    1.7365 O   0  0  0  0  0  0  0  0  0  0  0  0
   -2.1397   -2.0663    1.0750 C   0  0  0  0  0  0  0  0  0  0  0  0
   -0.5717   -1.2606    3.4238 H   0  0  0  0  0  0  0  0  0  0  0  0
   -0.3076   -3.2111    1.2363 H   0  0  0  0  0  0  0  0  0  0  0  0
   -2.5584   -1.1089    1.4061 H   0  0  0  0  0  0  0  0  0  0  0  0
   -2.1682   -2.0790   -0.0197 H   0  0  0  0  0  0  0  0  0  0  0  0
   -2.7965   -2.8601    1.4459 H   0  0  0  0  0  0  0  0  0  0  0  0
    0.7724   -1.3745   -0.1593 N   0  0  0  0  0  0  0  0  0  0  0  0
    0.5614   -2.5964   -0.9244 C   0  0  2  0  0  0  0  0  0  0  0  0
    1.3522   -3.6795   -0.2542 C   0  0  0  0  0  0  0  0  0  0  0  0
    1.7780   -3.5024    0.8811 O   0  0  0  0  0  0  0  0  0  0  0  0
    1.0996   -2.2806   -2.3150 C   0  0  0  0  0  0  0  0  0  0  0  0
    0.9306   -0.7638   -2.2719 C   0  0  0  0  0  0  0  0  0  0  0  0
    1.5408   -0.3981   -0.9273 C   0  0  0  0  0  0  0  0  0  0  0  0
   -0.4951   -2.8812   -0.9260 H   0  0  0  0  0  0  0  0  0  0  0  0
    0.4622   -2.7438   -3.0776 H   0  0  0  0  0  0  0  0  0  0  0  0
    2.1299   -2.6144   -2.4719 H   0  0  0  0  0  0  0  0  0  0  0  0
    1.4901   -0.2943   -3.0893 H   0  0  0  0  0  0  0  0  0  0  0  0
   -0.1174   -0.4625   -2.3564 H   0  0  0  0  0  0  0  0  0  0  0  0
    2.6264   -0.5275   -0.9080 H   0  0  0  0  0  0  0  0  0  0  0  0
    1.2988    0.6331   -0.6483 H   0  0  0  0  0  0  0  0  0  0  0  0
    1.4395   -4.8274   -1.2332 N   0  0  0  0  0  0  0  0  0  0  0  0
    2.2278   -6.0049   -0.9486 C   0  0  2  0  0  0  0  0  0  0  0  0
    1.8378   -6.5090    0.4346 C   0  0  0  0  0  0  0  0  0  0  0  0
    1.3200   -5.7921    1.2884 O   0  0  0  0  0  0  0  0  0  0  0  0
    3.7169   -5.7039   -1.0175 C   0  0  0  0  0  0  0  0  0  0  0  0
    0.8454   -4.8308   -2.0569 H   0  0  0  0  0  0  0  0  0  0  0  0
    1.9588   -6.7549   -1.7005 H   0  0  0  0  0  0  0  0  0  0  0  0
    4.0052   -4.9545   -0.2714 H   0  0  0  0  0  0  0  0  0  0  0  0
    4.3126   -6.6033   -0.8299 H   0  0  0  0  0  0  0  0  0  0  0  0
    3.9903   -5.3134   -2.0037 H   0  0  0  0  0  0  0  0  0  0  0  0
    2.1753   -7.8426    0.6184 N   0  0  0  0  0  0  0  0  0  0  0  0
    1.9198   -8.5486    1.8523 C   0  0  0  0  0  0  0  0  0  0  0  0
    2.5845   -8.3650   -0.1506 H   0  0  0  0  0  0  0  0  0  0  0  0
    2.8039   -8.4817    2.5034 H   0  0  0  0  0  0  0  0  0  0  0  0
    1.0551   -8.0970    2.3606 H   0  0  0  0  0  0  0  0  0  0  0  0
    1.7055   -9.6049    1.6325 H   0  0  0  0  0  0  0  0  0  0  0  0
 18 19  1  0  0  0  0
 19 31  1  0  0  0  0
 19 20  2  0  0  0  0
  8  9  1  0  0  0  0
  9 17  1  0  0  0  0
  9 10  2  0  0  0  0
  1  3  1  0  0  0  0
  1  7  1  0  0  0  0
  1  2  2  0  0  0  0
 32 33  1  0  0  0  0
 33 41  1  0  0  0  0
 33 34  2  0  0  0  0
 21 22  1  0  0  0  0
 22 23  1  0  0  0  0
 18 21  1  0  0  0  0
 17 23  1  0  0  0  0
 17 18  1  0  0  0  0
  8 11  1  0  0  0  0
 32 35  1  0  0  0  0
 41 42  1  0  0  0  0
  7  8  1  0  0  0  0
 31 32  1  0  0  0  0
 22 27  1  0  0  0  0
 22 28  1  0  0  0  0
 21 25  1  0  0  0  0
 21 26  1  0  0  0  0
 23 29  1  0  0  0  0
 23 30  1  0  0  0  0
 18 24  1  0  0  0  0
  3  4  1  0  0  0  0
  3  5  1  0  0  0  0
  3  6  1  0  0  0  0
 11 14  1  0  0  0  0
 11 15  1  0  0  0  0
 11 16  1  0  0  0  0
 35 38  1  0  0  0  0
 35 39  1  0  0  0  0
 35 40  1  0  0  0  0
 42 44  1  0  0  0  0
 42 45  1  0  0  0  0
 42 46  1  0  0  0  0
  8 13  1  0  0  0  0
 32 37  1  0  0  0  0
 31 36  1  0  0  0  0
 41 43  1  0  0  0  0
  7 12  1  0  0  0  0
M  END
$$$$

  -OEChem-05262214473D

 46 46  0     1  0  0  0  0  0999 V2000
   -0.6012   -3.2995    3.8205 C   0  0  0  0  0  0  0  0  0  0  0  0
   -0.6574   -4.4683    3.4568 O   0  0  0  0  0  0  0  0  0  0  0  0
   -0.4935   -2.9859    5.2760 C   0  0  0  0  0  0  0  0  0  0  0  0
   -1.4789   -2.8689    5.7550 H   0  0  0  0  0  0  0  0  0  0  0  0
    0.0123   -3.7847    5.8419 H   0  0  0  0  0  0  0  0  0  0  0  0
    0.0585   -2.0642    5.5199 H   0  0  0  0  0  0  0  0  0  0  0  0
   -0.6261   -2.1849    2.9917 N   0  0  0  0  0  0  0  0  0  0  0  0
   -0.7237   -2.2601    1.5650 C   0  0  2  0  0  0  0  0  0  0  0  0
    0.1695   -1.1513    1.0687 C   0  0  0  0  0  0  0  0  0  0  0  0
    0.3193   -0.1267    1.7365 O   0  0  0  0  0  0  0  0  0  0  0  0
   -2.1397   -2.0663    1.0750 C   0  0  0  0  0  0  0  0  0  0  0  0
   -0.5717   -1.2606    3.4238 H   0  0  0  0  0  0  0  0  0  0  0  0
   -0.3076   -3.2111    1.2363 H   0  0  0  0  0  0  0  0  0  0  0  0
   -2.5584   -1.1089    1.4061 H   0  0  0  0  0  0  0  0  0  0  0  0
   -2.1682   -2.0790   -0.0197 H   0  0  0  0  0  0  0  0  0  0  0  0
   -2.7965   -2.8601    1.4459 H   0  0  0  0  0  0  0  0  0  0  0  0
    0.7724   -1.3745   -0.1593 N   0  0  0  0  0  0  0  0  0  0  0  0
    0.5614   -2.5964   -0.9244 C   0  0  2  0  0  0  0  0  0  0  0  0
    1.3522   -3.6795   -0.2542 C   0  0  0  0  0  0  0  0  0  0  0  0
    1.5415   -3.6290    0.9554 O   0  0  0  0  0  0  0  0  0  0  0  0
    1.0996   -2.2806   -2.3150 C   0  0  0  0  0  0  0  0  0  0  0  0
    0.9306   -0.7638   -2.2719 C   0  0  0  0  0  0  0  0  0  0  0  0
    1.5408   -0.3981   -0.9273 C   0  0  0  0  0  0  0  0  0  0  0  0
   -0.4951   -2.8812   -0.9260 H   0  0  0  0  0  0  0  0  0  0  0  0
    0.4622   -2.7438   -3.0776 H   0  0  0  0  0  0  0  0  0  0  0  0
    2.1299   -2.6144   -2.4719 H   0  0  0  0  0  0  0  0  0  0  0  0
    1.4901   -0.2943   -3.0893 H   0  0  0  0  0  0  0  0  0  0  0  0
   -0.1174   -0.4625   -2.3564 H   0  0  0  0  0  0  0  0  0  0  0  0
    2.6264   -0.5275   -0.9080 H   0  0  0  0  0  0  0  0  0  0  0  0
    1.2988    0.6331   -0.6483 H   0  0  0  0  0  0  0  0  0  0  0  0
    1.7602   -4.6553   -1.3336 N   0  0  0  0  0  0  0  0  0  0  0  0
    2.6298   -5.7747   -1.0508 C   0  0  2  0  0  0  0  0  0  0  0  0
    2.0667   -6.5147    0.1554 C   0  0  0  0  0  0  0  0  0  0  0  0
    1.3166   -5.9886    0.9749 O   0  0  0  0  0  0  0  0  0  0  0  0
    4.0558   -5.3154   -0.7897 C   0  0  0  0  0  0  0  0  0  0  0  0
    1.3286   -4.5981   -2.2511 H   0  0  0  0  0  0  0  0  0  0  0  0
    2.5985   -6.4291   -1.9288 H   0  0  0  0  0  0  0  0  0  0  0  0
    4.1071   -4.6587    0.0864 H   0  0  0  0  0  0  0  0  0  0  0  0
    4.7190   -6.1667   -0.6039 H   0  0  0  0  0  0  0  0  0  0  0  0
    4.4487   -4.7577   -1.6466 H   0  0  0  0  0  0  0  0  0  0  0  0
    2.5346   -7.8190    0.2326 N   0  0  0  0  0  0  0  0  0  0  0  0
    2.1555   -8.7217    1.2943 C   0  0  0  0  0  0  0  0  0  0  0  0
    3.1386   -8.1774   -0.5013 H   0  0  0  0  0  0  0  0  0  0  0  0
    2.8927   -8.6612    2.1085 H   0  0  0  0  0  0  0  0  0  0  0  0
    1.1630   -8.4413    1.6769 H   0  0  0  0  0  0  0  0  0  0  0  0
    2.1217   -9.7504    0.9062 H   0  0  0  0  0  0  0  0  0  0  0  0
 18 19  1  0  0  0  0
 19 31  1  0  0  0  0
 19 20  2  0  0  0  0
  8  9  1  0  0  0  0
  9 17  1  0  0  0  0
  9 10  2  0  0  0  0
  1  3  1  0  0  0  0
  1  7  1  0  0  0  0
  1  2  2  0  0  0  0
 32 33  1  0  0  0  0
 33 41  1  0  0  0  0
 33 34  2  0  0  0  0
 21 22  1  0  0  0  0
 22 23  1  0  0  0  0
 18 21  1  0  0  0  0
 17 23  1  0  0  0  0
 17 18  1  0  0  0  0
  8 11  1  0  0  0  0
 32 35  1  0  0  0  0
 41 42  1  0  0  0  0
  7  8  1  0  0  0  0
 31 32  1  0  0  0  0
 22 27  1  0  0  0  0
 22 28  1  0  0  0  0
 21 25  1  0  0  0  0
 21 26  1  0  0  0  0
 23 29  1  0  0  0  0
 23 30  1  0  0  0  0
 18 24  1  0  0  0  0
  3  4  1  0  0  0  0
  3  5  1  0  0  0  0
  3  6  1  0  0  0  0
 11 14  1  0  0  0  0
 11 15  1  0  0  0  0
 11 16  1  0  0  0  0
 35 38  1  0  0  0  0
 35 39  1  0  0  0  0
 35 40  1  0  0  0  0
 42 44  1  0  0  0  0
 42 45  1  0  0  0  0
 42 46  1  0  0  0  0
  8 13  1  0  0  0  0
 32 37  1  0  0  0  0
 31 36  1  0  0  0  0
 41 43  1  0  0  0  0
  7 12  1  0  0  0  0
M  END
$$$$

  -OEChem-05262214473D

 46 46  0     1  0  0  0  0  0999 V2000
   -0.6012   -3.2995    3.8205 C   0  0  0  0  0  0  0  0  0  0  0  0
   -0.6574   -4.4683    3.4568 O   0  0  0  0  0  0  0  0  0  0  0  0
   -0.4935   -2.9859    5.2760 C   0  0  0  0  0  0  0  0  0  0  0  0
   -1.4789   -2.8689    5.7550 H   0  0  0  0  0  0  0  0  0  0  0  0
    0.0123   -3.7847    5.8419 H   0  0  0  0  0  0  0  0  0  0  0  0
    0.0585   -2.0642    5.5199 H   0  0  0  0  0  0  0  0  0  0  0  0
   -0.6261   -2.1849    2.9917 N   0  0  0  0  0  0  0  0  0  0  0  0
   -0.7237   -2.2601    1.5650 C   0  0  2  0  0  0  0  0  0  0  0  0
    0.1695   -1.1513    1.0687 C   0  0  0  0  0  0  0  0  0  0  0  0
    0.3193   -0.1267    1.7365 O   0  0  0  0  0  0  0  0  0  0  0  0
   -2.1397   -2.0663    1.0750 C   0  0  0  0  0  0  0  0  0  0  0  0
   -0.5717   -1.2606    3.4238 H   0  0  0  0  0  0  0  0  0  0  0  0
   -0.3076   -3.2111    1.2363 H   0  0  0  0  0  0  0  0  0  0  0  0
   -2.5584   -1.1089    1.4061 H   0  0  0  0  0  0  0  0  0  0  0  0
   -2.1682   -2.0790   -0.0197 H   0  0  0  0  0  0  0  0  0  0  0  0
   -2.7965   -2.8601    1.4459 H   0  0  0  0  0  0  0  0  0  0  0  0
    0.7724   -1.3745   -0.1593 N   0  0  0  0  0  0  0  0  0  0  0  0
    0.5614   -2.5964   -0.9244 C   0  0  2  0  0  0  0  0  0  0  0  0
    1.3522   -3.6795   -0.2542 C   0  0  0  0  0  0  0  0  0  0  0  0
    1.3139   -3.7889    0.9657 O   0  0  0  0  0  0  0  0  0  0  0  0
    1.0996   -2.2806   -2.3150 C   0  0  0  0  0  0  0  0  0  0  0  0
    0.9306   -0.7638   -2.2719 C   0  0  0  0  0  0  0  0  0  0  0  0
    1.5408   -0.3981   -0.9273 C   0  0  0  0  0  0  0  0  0  0  0  0
   -0.4951   -2.8812   -0.9260 H   0  0  0  0  0  0  0  0  0  0  0  0
    0.4622   -2.7438   -3.0776 H   0  0  0  0  0  0  0  0  0  0  0  0
    2.1299   -2.6144   -2.4719 H   0  0  0  0  0  0  0  0  0  0  0  0
    1.4901   -0.2943   -3.0893 H   0  0  0  0  0  0  0  0  0  0  0  0
   -0.1174   -0.4625   -2.3564 H   0  0  0  0  0  0  0  0  0  0  0  0
    2.6264   -0.5275   -0.9080 H   0  0  0  0  0  0  0  0  0  0  0  0
    1.2988    0.6331   -0.6483 H   0  0  0  0  0  0  0  0  0  0  0  0
    2.0689   -4.4383   -1.3470 N   0  0  0  0  0  0  0  0  0  0  0  0
    3.0105   -5.4918   -1.0430 C   0  0  2  0  0  0  0  0  0  0  0  0
    2.3406   -6.4555   -0.0724 C   0  0  0  0  0  0  0  0  0  0  0  0
    1.3947   -6.1359    0.6446 O   0  0  0  0  0  0  0  0  0  0  0  0
    4.2956   -4.9321   -0.4532 C   0  0  0  0  0  0  0  0  0  0  0  0
    1.8047   -4.2910   -2.3165 H   0  0  0  0  0  0  0  0  0  0  0  0
    3.2213   -6.0093   -1.9852 H   0  0  0  0  0  0  0  0  0  0  0  0
    4.1044   -4.4100    0.4914 H   0  0  0  0  0  0  0  0  0  0  0  0
    5.0188   -5.7288   -0.2499 H   0  0  0  0  0  0  0  0  0  0  0  0
    4.7605   -4.2167   -1.1401 H   0  0  0  0  0  0  0  0  0  0  0  0
    2.9511   -7.7019   -0.0697 N   0  0  0  0  0  0  0  0  0  0  0  0
    2.5075   -8.7855    0.7759 C   0  0  0  0  0  0  0  0  0  0  0  0
    3.7176   -7.8842   -0.7107 H   0  0  0  0  0  0  0  0  0  0  0  0
    3.0730   -8.7704    1.7192 H   0  0  0  0  0  0  0  0  0  0  0  0
    1.4348   -8.6681    0.9896 H   0  0  0  0  0  0  0  0  0  0  0  0
    2.6763   -9.7437    0.2626 H   0  0  0  0  0  0  0  0  0  0  0  0
 18 19  1  0  0  0  0
 19 31  1  0  0  0  0
 19 20  2  0  0  0  0
  8  9  1  0  0  0  0
  9 17  1  0  0  0  0
  9 10  2  0  0  0  0
  1  3  1  0  0  0  0
  1  7  1  0  0  0  0
  1  2  2  0  0  0  0
 32 33  1  0  0  0  0
 33 41  1  0  0  0  0
 33 34  2  0  0  0  0
 21 22  1  0  0  0  0
 22 23  1  0  0  0  0
 18 21  1  0  0  0  0
 17 23  1  0  0  0  0
 17 18  1  0  0  0  0
  8 11  1  0  0  0  0
 32 35  1  0  0  0  0
 41 42  1  0  0  0  0
  7  8  1  0  0  0  0
 31 32  1  0  0  0  0
 22 27  1  0  0  0  0
 22 28  1  0  0  0  0
 21 25  1  0  0  0  0
 21 26  1  0  0  0  0
 23 29  1  0  0  0  0
 23 30  1  0  0  0  0
 18 24  1  0  0  0  0
  3  4  1  0  0  0  0
  3  5  1  0  0  0  0
  3  6  1  0  0  0  0
 11 14  1  0  0  0  0
 11 15  1  0  0  0  0
 11 16  1  0  0  0  0
 35 38  1  0  0  0  0
 35 39  1  0  0  0  0
 35 40  1  0  0  0  0
 42 44  1  0  0  0  0
 42 45  1  0  0  0  0
 42 46  1  0  0  0  0
  8 13  1  0  0  0  0
 32 37  1  0  0  0  0
 31 36  1  0  0  0  0
 41 43  1  0  0  0  0
  7 12  1  0  0  0  0
M  END
$$$$

  -OEChem-05262214473D

 46 46  0     1  0  0  0  0  0999 V2000
   -0.6012   -3.2995    3.8205 C   0  0  0  0  0  0  0  0  0  0  0  0
   -0.6574   -4.4683    3.4568 O   0  0  0  0  0  0  0  0  0  0  0  0
   -0.4935   -2.9859    5.2760 C   0  0  0  0  0  0  0  0  0  0  0  0
   -1.4789   -2.8689    5.7550 H   0  0  0  0  0  0  0  0  0  0  0  0
    0.0123   -3.7847    5.8419 H   0  0  0  0  0  0  0  0  0  0  0  0
    0.0585   -2.0642    5.5199 H   0  0  0  0  0  0  0  0  0  0  0  0
   -0.6261   -2.1849    2.9917 N   0  0  0  0  0  0  0  0  0  0  0  0
   -0.7237   -2.2601    1.5650 C   0  0  2  0  0  0  0  0  0  0  0  0
    0.1695   -1.1513    1.0687 C   0  0  0  0  0  0  0  0  0  0  0  0
    0.3193   -0.1267    1.7365 O   0  0  0  0  0  0  0  0  0  0  0  0
   -2.1397   -2.0663    1.0750 C   0  0  0  0  0  0  0  0  0  0  0  0
   -0.5717   -1.2606    3.4238 H   0  0  0  0  0  0  0  0  0  0  0  0
   -0.3076   -3.2111    1.2363 H   0  0  0  0  0  0  0  0  0  0  0  0
   -2.5584   -1.1089    1.4061 H   0  0  0  0  0  0  0  0  0  0  0  0
   -2.1682   -2.0790   -0.0197 H   0  0  0  0  0  0  0  0  0  0  0  0
   -2.7965   -2.8601    1.4459 H   0  0  0  0  0  0  0  0  0  0  0  0
    0.7724   -1.3745   -0.1593 N   0  0  0  0  0  0  0  0  0  0  0  0
    0.5614   -2.5964   -0.9244 C   0  0  2  0  0  0  0  0  0  0  0  0
    1.3522   -3.6795   -0.2542 C   0  0  0  0  0  0  0  0  0  0  0  0
    1.1106   -3.9710    0.9113 O   0  0  0  0  0  0  0  0  0  0  0  0
    1.0996   -2.2806   -2.3150 C   0  0  0  0  0  0  0  0  0  0  0  0
    0.9306   -0.7638   -2.2719 C   0  0  0  0  0  0  0  0  0  0  0  0
    1.5408   -0.3981   -0.9273 C   0  0  0  0  0  0  0  0  0  0  0  0
   -0.4951   -2.8812   -0.9260 H   0  0  0  0  0  0  0  0  0  0  0  0
    0.4622   -2.7438   -3.0776 H   0  0  0  0  0  0  0  0  0  0  0  0
    2.1299   -2.6144   -2.4719 H   0  0  0  0  0  0  0  0  0  0  0  0
    1.4901   -0.2943   -3.0893 H   0  0  0  0  0  0  0  0  0  0  0  0
   -0.1174   -0.4625   -2.3564 H   0  0  0  0  0  0  0  0  0  0  0  0
    2.6264   -0.5275   -0.9080 H   0  0  0  0  0  0  0  0  0  0  0  0
    1.2988    0.6331   -0.6483 H   0  0  0  0  0  0  0  0  0  0  0  0
    2.3445   -4.1911   -1.2727 N   0  0  0  0  0  0  0  0  0  0  0  0
    3.3441   -5.1756   -0.9255 C   0  0  2  0  0  0  0  0  0  0  0  0
    2.6410   -6.3356   -0.2330 C   0  0  0  0  0  0  0  0  0  0  0  0
    1.5489   -6.2242    0.3201 O   0  0  0  0  0  0  0  0  0  0  0  0
    4.4201   -4.5800   -0.0310 C   0  0  0  0  0  0  0  0  0  0  0  0
    2.2413   -3.9303   -2.2488 H   0  0  0  0  0  0  0  0  0  0  0  0
    3.7849   -5.5239   -1.8659 H   0  0  0  0  0  0  0  0  0  0  0  0
    3.9973   -4.2254    0.9161 H   0  0  0  0  0  0  0  0  0  0  0  0
    5.1916   -5.3194    0.2078 H   0  0  0  0  0  0  0  0  0  0  0  0
    4.9043   -3.7271   -0.5187 H   0  0  0  0  0  0  0  0  0  0  0  0
    3.3964   -7.4994   -0.2678 N   0  0  0  0  0  0  0  0  0  0  0  0
    2.9518   -8.7356    0.3321 C   0  0  0  0  0  0  0  0  0  0  0  0
    4.2822   -7.5054   -0.7648 H   0  0  0  0  0  0  0  0  0  0  0  0
    3.3327   -8.8019    1.3620 H   0  0  0  0  0  0  0  0  0  0  0  0
    1.8522   -8.7618    0.3456 H   0  0  0  0  0  0  0  0  0  0  0  0
    3.3316   -9.5851   -0.2545 H   0  0  0  0  0  0  0  0  0  0  0  0
 18 19  1  0  0  0  0
 19 31  1  0  0  0  0
 19 20  2  0  0  0  0
  8  9  1  0  0  0  0
  9 17  1  0  0  0  0
  9 10  2  0  0  0  0
  1  3  1  0  0  0  0
  1  7  1  0  0  0  0
  1  2  2  0  0  0  0
 32 33  1  0  0  0  0
 33 41  1  0  0  0  0
 33 34  2  0  0  0  0
 21 22  1  0  0  0  0
 22 23  1  0  0  0  0
 18 21  1  0  0  0  0
 17 23  1  0  0  0  0
 17 18  1  0  0  0  0
  8 11  1  0  0  0  0
 32 35  1  0  0  0  0
 41 42  1  0  0  0  0
  7  8  1  0  0  0  0
 31 32  1  0  0  0  0
 22 27  1  0  0  0  0
 22 28  1  0  0  0  0
 21 25  1  0  0  0  0
 21 26  1  0  0  0  0
 23 29  1  0  0  0  0
 23 30  1  0  0  0  0
 18 24  1  0  0  0  0
  3  4  1  0  0  0  0
  3  5  1  0  0  0  0
  3  6  1  0  0  0  0
 11 14  1  0  0  0  0
 11 15  1  0  0  0  0
 11 16  1  0  0  0  0
 35 38  1  0  0  0  0
 35 39  1  0  0  0  0
 35 40  1  0  0  0  0
 42 44  1  0  0  0  0
 42 45  1  0  0  0  0
 42 46  1  0  0  0  0
  8 13  1  0  0  0  0
 32 37  1  0  0  0  0
 31 36  1  0  0  0  0
 41 43  1  0  0  0  0
  7 12  1  0  0  0  0
M  END
$$$$

  -OEChem-05262214473D

 46 46  0     1  0  0  0  0  0999 V2000
   -0.6012   -3.2995    3.8205 C   0  0  0  0  0  0  0  0  0  0  0  0
   -0.6574   -4.4683    3.4568 O   0  0  0  0  0  0  0  0  0  0  0  0
   -0.4935   -2.9859    5.2760 C   0  0  0  0  0  0  0  0  0  0  0  0
   -1.4789   -2.8689    5.7550 H   0  0  0  0  0  0  0  0  0  0  0  0
    0.0123   -3.7847    5.8419 H   0  0  0  0  0  0  0  0  0  0  0  0
    0.0585   -2.0642    5.5199 H   0  0  0  0  0  0  0  0  0  0  0  0
   -0.6261   -2.1849    2.9917 N   0  0  0  0  0  0  0  0  0  0  0  0
   -0.7237   -2.2601    1.5650 C   0  0  2  0  0  0  0  0  0  0  0  0
    0.1695   -1.1513    1.0687 C   0  0  0  0  0  0  0  0  0  0  0  0
    0.3193   -0.1267    1.7365 O   0  0  0  0  0  0  0  0  0  0  0  0
   -2.1397   -2.0663    1.0750 C   0  0  0  0  0  0  0  0  0  0  0  0
   -0.5717   -1.2606    3.4238 H   0  0  0  0  0  0  0  0  0  0  0  0
   -0.3076   -3.2111    1.2363 H   0  0  0  0  0  0  0  0  0  0  0  0
   -2.5584   -1.1089    1.4061 H   0  0  0  0  0  0  0  0  0  0  0  0
   -2.1682   -2.0790   -0.0197 H   0  0  0  0  0  0  0  0  0  0  0  0
   -2.7965   -2.8601    1.4459 H   0  0  0  0  0  0  0  0  0  0  0  0
    0.7724   -1.3745   -0.1593 N   0  0  0  0  0  0  0  0  0  0  0  0
    0.5614   -2.5964   -0.9244 C   0  0  2  0  0  0  0  0  0  0  0  0
    1.3522   -3.6795   -0.2542 C   0  0  0  0  0  0  0  0  0  0  0  0
    0.9455   -4.1630    0.7958 O   0  0  0  0  0  0  0  0  0  0  0  0
    1.0996   -2.2806   -2.3150 C   0  0  0  0  0  0  0  0  0  0  0  0
    0.9306   -0.7638   -2.2719 C   0  0  0  0  0  0  0  0  0  0  0  0
    1.5408   -0.3981   -0.9273 C   0  0  0  0  0  0  0  0  0  0  0  0
   -0.4951   -2.8812   -0.9260 H   0  0  0  0  0  0  0  0  0  0  0  0
    0.4622   -2.7438   -3.0776 H   0  0  0  0  0  0  0  0  0  0  0  0
    2.1299   -2.6144   -2.4719 H   0  0  0  0  0  0  0  0  0  0  0  0
    1.4901   -0.2943   -3.0893 H   0  0  0  0  0  0  0  0  0  0  0  0
   -0.1174   -0.4625   -2.3564 H   0  0  0  0  0  0  0  0  0  0  0  0
    2.6264   -0.5275   -0.9080 H   0  0  0  0  0  0  0  0  0  0  0  0
    1.2988    0.6331   -0.6483 H   0  0  0  0  0  0  0  0  0  0  0  0
    2.5682   -3.9305   -1.1157 N   0  0  0  0  0  0  0  0  0  0  0  0
    3.6077   -4.8476   -0.7066 C   0  0  2  0  0  0  0  0  0  0  0  0
    2.9473   -6.1631   -0.3156 C   0  0  0  0  0  0  0  0  0  0  0  0
    1.7687   -6.2472    0.0233 O   0  0  0  0  0  0  0  0  0  0  0  0
    4.4205   -4.2832    0.4482 C   0  0  0  0  0  0  0  0  0  0  0  0
    2.6086   -3.5406   -2.0525 H   0  0  0  0  0  0  0  0  0  0  0  0
    4.2508   -5.0063   -1.5791 H   0  0  0  0  0  0  0  0  0  0  0  0
    3.7930   -4.1175    1.3315 H   0  0  0  0  0  0  0  0  0  0  0  0
    5.2255   -4.9665    0.7381 H   0  0  0  0  0  0  0  0  0  0  0  0
    4.8704   -3.3225    0.1752 H   0  0  0  0  0  0  0  0  0  0  0  0
    3.8401   -7.2252   -0.3483 N   0  0  0  0  0  0  0  0  0  0  0  0
    3.4581   -8.5755   -0.0066 C   0  0  0  0  0  0  0  0  0  0  0  0
    4.7939   -7.0668   -0.6597 H   0  0  0  0  0  0  0  0  0  0  0  0
    3.6539   -8.7534    1.0611 H   0  0  0  0  0  0  0  0  0  0  0  0
    2.3865   -8.7162   -0.2112 H   0  0  0  0  0  0  0  0  0  0  0  0
    4.0429   -9.2856   -0.6097 H   0  0  0  0  0  0  0  0  0  0  0  0
 18 19  1  0  0  0  0
 19 31  1  0  0  0  0
 19 20  2  0  0  0  0
  8  9  1  0  0  0  0
  9 17  1  0  0  0  0
  9 10  2  0  0  0  0
  1  3  1  0  0  0  0
  1  7  1  0  0  0  0
  1  2  2  0  0  0  0
 32 33  1  0  0  0  0
 33 41  1  0  0  0  0
 33 34  2  0  0  0  0
 21 22  1  0  0  0  0
 22 23  1  0  0  0  0
 18 21  1  0  0  0  0
 17 23  1  0  0  0  0
 17 18  1  0  0  0  0
  8 11  1  0  0  0  0
 32 35  1  0  0  0  0
 41 42  1  0  0  0  0
  7  8  1  0  0  0  0
 31 32  1  0  0  0  0
 22 27  1  0  0  0  0
 22 28  1  0  0  0  0
 21 25  1  0  0  0  0
 21 26  1  0  0  0  0
 23 29  1  0  0  0  0
 23 30  1  0  0  0  0
 18 24  1  0  0  0  0
  3  4  1  0  0  0  0
  3  5  1  0  0  0  0
  3  6  1  0  0  0  0
 11 14  1  0  0  0  0
 11 15  1  0  0  0  0
 11 16  1  0  0  0  0
 35 38  1  0  0  0  0
 35 39  1  0  0  0  0
 35 40  1  0  0  0  0
 42 44  1  0  0  0  0
 42 45  1  0  0  0  0
 42 46  1  0  0  0  0
  8 13  1  0  0  0  0
 32 37  1  0  0  0  0
 31 36  1  0  0  0  0
 41 43  1  0  0  0  0
  7 12  1  0  0  0  0
M  END
$$$$

  -OEChem-05262214473D

 46 46  0     1  0  0  0  0  0999 V2000
   -0.6012   -3.2995    3.8205 C   0  0  0  0  0  0  0  0  0  0  0  0
   -0.6574   -4.4683    3.4568 O   0  0  0  0  0  0  0  0  0  0  0  0
   -0.4935   -2.9859    5.2760 C   0  0  0  0  0  0  0  0  0  0  0  0
   -1.4789   -2.8689    5.7550 H   0  0  0  0  0  0  0  0  0  0  0  0
    0.0123   -3.7847    5.8419 H   0  0  0  0  0  0  0  0  0  0  0  0
    0.0585   -2.0642    5.5199 H   0  0  0  0  0  0  0  0  0  0  0  0
   -0.6261   -2.1849    2.9917 N   0  0  0  0  0  0  0  0  0  0  0  0
   -0.7237   -2.2601    1.5650 C   0  0  2  0  0  0  0  0  0  0  0  0
    0.1695   -1.1513    1.0687 C   0  0  0  0  0  0  0  0  0  0  0  0
    0.3193   -0.1267    1.7365 O   0  0  0  0  0  0  0  0  0  0  0  0
   -2.1397   -2.0663    1.0750 C   0  0  0  0  0  0  0  0  0  0  0  0
   -0.5717   -1.2606    3.4238 H   0  0  0  0  0  0  0  0  0  0  0  0
   -0.3076   -3.2111    1.2363 H   0  0  0  0  0  0  0  0  0  0  0  0
   -2.5584   -1.1089    1.4061 H   0  0  0  0  0  0  0  0  0  0  0  0
   -2.1682   -2.0790   -0.0197 H   0  0  0  0  0  0  0  0  0  0  0  0
   -2.7965   -2.8601    1.4459 H   0  0  0  0  0  0  0  0  0  0  0  0
    0.7724   -1.3745   -0.1593 N   0  0  0  0  0  0  0  0  0  0  0  0
    0.5614   -2.5964   -0.9244 C   0  0  2  0  0  0  0  0  0  0  0  0
    1.3522   -3.6795   -0.2542 C   0  0  0  0  0  0  0  0  0  0  0  0
    0.8299   -4.3518    0.6272 O   0  0  0  0  0  0  0  0  0  0  0  0
    1.0996   -2.2806   -2.3150 C   0  0  0  0  0  0  0  0  0  0  0  0
    0.9306   -0.7638   -2.2719 C   0  0  0  0  0  0  0  0  0  0  0  0
    1.5408   -0.3981   -0.9273 C   0  0  0  0  0  0  0  0  0  0  0  0
   -0.4951   -2.8812   -0.9260 H   0  0  0  0  0  0  0  0  0  0  0  0
    0.4622   -2.7438   -3.0776 H   0  0  0  0  0  0  0  0  0  0  0  0
    2.1299   -2.6144   -2.4719 H   0  0  0  0  0  0  0  0  0  0  0  0
    1.4901   -0.2943   -3.0893 H   0  0  0  0  0  0  0  0  0  0  0  0
   -0.1174   -0.4625   -2.3564 H   0  0  0  0  0  0  0  0  0  0  0  0
    2.6264   -0.5275   -0.9080 H   0  0  0  0  0  0  0  0  0  0  0  0
    1.2988    0.6331   -0.6483 H   0  0  0  0  0  0  0  0  0  0  0  0
    2.7247   -3.6745   -0.8865 N   0  0  0  0  0  0  0  0  0  0  0  0
    3.7835   -4.5302   -0.4010 C   0  0  2  0  0  0  0  0  0  0  0  0
    3.2387   -5.9497   -0.3146 C   0  0  0  0  0  0  0  0  0  0  0  0
    2.0392   -6.2036   -0.2253 O   0  0  0  0  0  0  0  0  0  0  0  0
    4.2971   -4.0618    0.9516 C   0  0  0  0  0  0  0  0  0  0  0  0
    2.8817   -3.1485   -1.7410 H   0  0  0  0  0  0  0  0  0  0  0  0
    4.5873   -4.4915   -1.1442 H   0  0  0  0  0  0  0  0  0  0  0  0
    3.5056   -4.0936    1.7093 H   0  0  0  0  0  0  0  0  0  0  0  0
    5.1183   -4.6941    1.3048 H   0  0  0  0  0  0  0  0  0  0  0  0
    4.6611   -3.0303    0.8944 H   0  0  0  0  0  0  0  0  0  0  0  0
    4.2520   -6.8980   -0.3056 N   0  0  0  0  0  0  0  0  0  0  0  0
    3.9920   -8.3160   -0.2172 C   0  0  0  0  0  0  0  0  0  0  0  0
    5.2177   -6.5983   -0.4027 H   0  0  0  0  0  0  0  0  0  0  0  0
    4.0148   -8.6284    0.8372 H   0  0  0  0  0  0  0  0  0  0  0  0
    3.0015   -8.5343   -0.6429 H   0  0  0  0  0  0  0  0  0  0  0  0
    4.7618   -8.8654   -0.7790 H   0  0  0  0  0  0  0  0  0  0  0  0
 18 19  1  0  0  0  0
 19 31  1  0  0  0  0
 19 20  2  0  0  0  0
  8  9  1  0  0  0  0
  9 17  1  0  0  0  0
  9 10  2  0  0  0  0
  1  3  1  0  0  0  0
  1  7  1  0  0  0  0
  1  2  2  0  0  0  0
 32 33  1  0  0  0  0
 33 41  1  0  0  0  0
 33 34  2  0  0  0  0
 21 22  1  0  0  0  0
 22 23  1  0  0  0  0
 18 21  1  0  0  0  0
 17 23  1  0  0  0  0
 17 18  1  0  0  0  0
  8 11  1  0  0  0  0
 32 35  1  0  0  0  0
 41 42  1  0  0  0  0
  7  8  1  0  0  0  0
 31 32  1  0  0  0  0
 22 27  1  0  0  0  0
 22 28  1  0  0  0  0
 21 25  1  0  0  0  0
 21 26  1  0  0  0  0
 23 29  1  0  0  0  0
 23 30  1  0  0  0  0
 18 24  1  0  0  0  0
  3  4  1  0  0  0  0
  3  5  1  0  0  0  0
  3  6  1  0  0  0  0
 11 14  1  0  0  0  0
 11 15  1  0  0  0  0
 11 16  1  0  0  0  0
 35 38  1  0  0  0  0
 35 39  1  0  0  0  0
 35 40  1  0  0  0  0
 42 44  1  0  0  0  0
 42 45  1  0  0  0  0
 42 46  1  0  0  0  0
  8 13  1  0  0  0  0
 32 37  1  0  0  0  0
 31 36  1  0  0  0  0
 41 43  1  0  0  0  0
  7 12  1  0  0  0  0
M  END
$$$$

  -OEChem-05262214473D

 46 46  0     1  0  0  0  0  0999 V2000
   -0.6012   -3.2995    3.8205 C   0  0  0  0  0  0  0  0  0  0  0  0
   -0.6574   -4.4683    3.4568 O   0  0  0  0  0  0  0  0  0  0  0  0
   -0.4935   -2.9859    5.2760 C   0  0  0  0  0  0  0  0  0  0  0  0
   -1.4789   -2.8689    5.7550 H   0  0  0  0  0  0  0  0  0  0  0  0
    0.0123   -3.7847    5.8419 H   0  0  0  0  0  0  0  0  0  0  0  0
    0.0585   -2.0642    5.5199 H   0  0  0  0  0  0  0  0  0  0  0  0
   -0.6261   -2.1849    2.9917 N   0  0  0  0  0  0  0  0  0  0  0  0
   -0.7237   -2.2601    1.5650 C   0  0  2  0  0  0  0  0  0  0  0  0
    0.1695   -1.1513    1.0687 C   0  0  0  0  0  0  0  0  0  0  0  0
    0.3193   -0.1267    1.7365 O   0  0  0  0  0  0  0  0  0  0  0  0
   -2.1397   -2.0663    1.0750 C   0  0  0  0  0  0  0  0  0  0  0  0
   -0.5717   -1.2606    3.4238 H   0  0  0  0  0  0  0  0  0  0  0  0
   -0.3076   -3.2111    1.2363 H   0  0  0  0  0  0  0  0  0  0  0  0
   -2.5584   -1.1089    1.4061 H   0  0  0  0  0  0  0  0  0  0  0  0
   -2.1682   -2.0790   -0.0197 H   0  0  0  0  0  0  0  0  0  0  0  0
   -2.7965   -2.8601    1.4459 H   0  0  0  0  0  0  0  0  0  0  0  0
    0.7724   -1.3745   -0.1593 N   0  0  0  0  0  0  0  0  0  0  0  0
    0.5614   -2.5964   -0.9244 C   0  0  2  0  0  0  0  0  0  0  0  0
    1.3522   -3.6795   -0.2542 C   0  0  0  0  0  0  0  0  0  0  0  0
    0.7715   -4.5245    0.4169 O   0  0  0  0  0  0  0  0  0  0  0  0
    1.0996   -2.2806   -2.3150 C   0  0  0  0  0  0  0  0  0  0  0  0
    0.9306   -0.7638   -2.2719 C   0  0  0  0  0  0  0  0  0  0  0  0
    1.5408   -0.3981   -0.9273 C   0  0  0  0  0  0  0  0  0  0  0  0
   -0.4951   -2.8812   -0.9260 H   0  0  0  0  0  0  0  0  0  0  0  0
    0.4622   -2.7438   -3.0776 H   0  0  0  0  0  0  0  0  0  0  0  0
    2.1299   -2.6144   -2.4719 H   0  0  0  0  0  0  0  0  0  0  0  0
    1.4901   -0.2943   -3.0893 H   0  0  0  0  0  0  0  0  0  0  0  0
   -0.1174   -0.4625   -2.3564 H   0  0  0  0  0  0  0  0  0  0  0  0
    2.6264   -0.5275   -0.9080 H   0  0  0  0  0  0  0  0  0  0  0  0
    1.2988    0.6331   -0.6483 H   0  0  0  0  0  0  0  0  0  0  0  0
    2.8035   -3.4403   -0.6010 N   0  0  0  0  0  0  0  0  0  0  0  0
    3.8595   -4.2449   -0.0296 C   0  0  2  0  0  0  0  0  0  0  0  0
    3.4952   -5.7101   -0.2301 C   0  0  0  0  0  0  0  0  0  0  0  0
    2.3420   -6.0962   -0.4089 O   0  0  0  0  0  0  0  0  0  0  0  0
    4.0581   -3.9310    1.4451 C   0  0  0  0  0  0  0  0  0  0  0  0
    3.0418   -2.7807   -1.3356 H   0  0  0  0  0  0  0  0  0  0  0  0
    4.7715   -4.0146   -0.5910 H   0  0  0  0  0  0  0  0  0  0  0  0
    3.1546   -4.1554    2.0237 H   0  0  0  0  0  0  0  0  0  0  0  0
    4.8773   -4.5208    1.8694 H   0  0  0  0  0  0  0  0  0  0  0  0
    4.2907   -2.8705    1.5899 H   0  0  0  0  0  0  0  0  0  0  0  0
    4.6040   -6.5402   -0.1427 N   0  0  0  0  0  0  0  0  0  0  0  0
    4.5171   -7.9748   -0.2854 C   0  0  0  0  0  0  0  0  0  0  0  0
    5.5248   -6.1319   -0.0112 H   0  0  0  0  0  0  0  0  0  0  0  0
    4.3909   -8.4354    0.7055 H   0  0  0  0  0  0  0  0  0  0  0  0
    3.6552   -8.2284   -0.9200 H   0  0  0  0  0  0  0  0  0  0  0  0
    5.4391   -8.3533   -0.7507 H   0  0  0  0  0  0  0  0  0  0  0  0
 18 19  1  0  0  0  0
 19 31  1  0  0  0  0
 19 20  2  0  0  0  0
  8  9  1  0  0  0  0
  9 17  1  0  0  0  0
  9 10  2  0  0  0  0
  1  3  1  0  0  0  0
  1  7  1  0  0  0  0
  1  2  2  0  0  0  0
 32 33  1  0  0  0  0
 33 41  1  0  0  0  0
 33 34  2  0  0  0  0
 21 22  1  0  0  0  0
 22 23  1  0  0  0  0
 18 21  1  0  0  0  0
 17 23  1  0  0  0  0
 17 18  1  0  0  0  0
  8 11  1  0  0  0  0
 32 35  1  0  0  0  0
 41 42  1  0  0  0  0
  7  8  1  0  0  0  0
 31 32  1  0  0  0  0
 22 27  1  0  0  0  0
 22 28  1  0  0  0  0
 21 25  1  0  0  0  0
 21 26  1  0  0  0  0
 23 29  1  0  0  0  0
 23 30  1  0  0  0  0
 18 24  1  0  0  0  0
  3  4  1  0  0  0  0
  3  5  1  0  0  0  0
  3  6  1  0  0  0  0
 11 14  1  0  0  0  0
 11 15  1  0  0  0  0
 11 16  1  0  0  0  0
 35 38  1  0  0  0  0
 35 39  1  0  0  0  0
 35 40  1  0  0  0  0
 42 44  1  0  0  0  0
 42 45  1  0  0  0  0
 42 46  1  0  0  0  0
  8 13  1  0  0  0  0
 32 37  1  0  0  0  0
 31 36  1  0  0  0  0
 41 43  1  0  0  0  0
  7 12  1  0  0  0  0
M  END
$$$$

  -OEChem-05262214473D

 46 46  0     1  0  0  0  0  0999 V2000
   -0.6012   -3.2995    3.8205 C   0  0  0  0  0  0  0  0  0  0  0  0
   -0.6574   -4.4683    3.4568 O   0  0  0  0  0  0  0  0  0  0  0  0
   -0.4935   -2.9859    5.2760 C   0  0  0  0  0  0  0  0  0  0  0  0
   -1.4789   -2.8689    5.7550 H   0  0  0  0  0  0  0  0  0  0  0  0
    0.0123   -3.7847    5.8419 H   0  0  0  0  0  0  0  0  0  0  0  0
    0.0585   -2.0642    5.5199 H   0  0  0  0  0  0  0  0  0  0  0  0
   -0.6261   -2.1849    2.9917 N   0  0  0  0  0  0  0  0  0  0  0  0
   -0.7237   -2.2601    1.5650 C   0  0  2  0  0  0  0  0  0  0  0  0
    0.1695   -1.1513    1.0687 C   0  0  0  0  0  0  0  0  0  0  0  0
    0.3193   -0.1267    1.7365 O   0  0  0  0  0  0  0  0  0  0  0  0
   -2.1397   -2.0663    1.0750 C   0  0  0  0  0  0  0  0  0  0  0  0
   -0.5717   -1.2606    3.4238 H   0  0  0  0  0  0  0  0  0  0  0  0
   -0.3076   -3.2111    1.2363 H   0  0  0  0  0  0  0  0  0  0  0  0
   -2.5584   -1.1089    1.4061 H   0  0  0  0  0  0  0  0  0  0  0  0
   -2.1682   -2.0790   -0.0197 H   0  0  0  0  0  0  0  0  0  0  0  0
   -2.7965   -2.8601    1.4459 H   0  0  0  0  0  0  0  0  0  0  0  0
    0.7724   -1.3745   -0.1593 N   0  0  0  0  0  0  0  0  0  0  0  0
    0.5614   -2.5964   -0.9244 C   0  0  2  0  0  0  0  0  0  0  0  0
    1.3522   -3.6795   -0.2542 C   0  0  0  0  0  0  0  0  0  0  0  0
    0.7744   -4.6694    0.1793 O   0  0  0  0  0  0  0  0  0  0  0  0
    1.0996   -2.2806   -2.3150 C   0  0  0  0  0  0  0  0  0  0  0  0
    0.9306   -0.7638   -2.2719 C   0  0  0  0  0  0  0  0  0  0  0  0
    1.5408   -0.3981   -0.9273 C   0  0  0  0  0  0  0  0  0  0  0  0
   -0.4951   -2.8812   -0.9260 H   0  0  0  0  0  0  0  0  0  0  0  0
    0.4622   -2.7438   -3.0776 H   0  0  0  0  0  0  0  0  0  0  0  0
    2.1299   -2.6144   -2.4719 H   0  0  0  0  0  0  0  0  0  0  0  0
    1.4901   -0.2943   -3.0893 H   0  0  0  0  0  0  0  0  0  0  0  0
   -0.1174   -0.4625   -2.3564 H   0  0  0  0  0  0  0  0  0  0  0  0
    2.6264   -0.5275   -0.9080 H   0  0  0  0  0  0  0  0  0  0  0  0
    1.2988    0.6331   -0.6483 H   0  0  0  0  0  0  0  0  0  0  0  0
    2.7991   -3.2440   -0.2785 N   0  0  0  0  0  0  0  0  0  0  0  0
    3.8304   -4.0113    0.3822 C   0  0  2  0  0  0  0  0  0  0  0  0
    3.6995   -5.4604   -0.0677 C   0  0  0  0  0  0  0  0  0  0  0  0
    2.6563   -5.9323   -0.5151 O   0  0  0  0  0  0  0  0  0  0  0  0
    3.7198   -3.8997    1.8948 C   0  0  0  0  0  0  0  0  0  0  0  0
    3.0781   -2.4623   -0.8638 H   0  0  0  0  0  0  0  0  0  0  0  0
    4.7908   -3.6083    0.0429 H   0  0  0  0  0  0  0  0  0  0  0  0
    2.7639   -4.2986    2.2534 H   0  0  0  0  0  0  0  0  0  0  0  0
    4.5188   -4.4583    2.3934 H   0  0  0  0  0  0  0  0  0  0  0  0
    3.7843   -2.8539    2.2142 H   0  0  0  0  0  0  0  0  0  0  0  0
    4.8722   -6.1760    0.1294 N   0  0  0  0  0  0  0  0  0  0  0  0
    4.9976   -7.5751   -0.2065 C   0  0  0  0  0  0  0  0  0  0  0  0
    5.6942   -5.6992    0.4881 H   0  0  0  0  0  0  0  0  0  0  0  0
    4.7564   -8.1874    0.6750 H   0  0  0  0  0  0  0  0  0  0  0  0
    4.3031   -7.8196   -1.0237 H   0  0  0  0  0  0  0  0  0  0  0  0
    6.0289   -7.7842   -0.5269 H   0  0  0  0  0  0  0  0  0  0  0  0
 18 19  1  0  0  0  0
 19 31  1  0  0  0  0
 19 20  2  0  0  0  0
  8  9  1  0  0  0  0
  9 17  1  0  0  0  0
  9 10  2  0  0  0  0
  1  3  1  0  0  0  0
  1  7  1  0  0  0  0
  1  2  2  0  0  0  0
 32 33  1  0  0  0  0
 33 41  1  0  0  0  0
 33 34  2  0  0  0  0
 21 22  1  0  0  0  0
 22 23  1  0  0  0  0
 18 21  1  0  0  0  0
 17 23  1  0  0  0  0
 17 18  1  0  0  0  0
  8 11  1  0  0  0  0
 32 35  1  0  0  0  0
 41 42  1  0  0  0  0
  7  8  1  0  0  0  0
 31 32  1  0  0  0  0
 22 27  1  0  0  0  0
 22 28  1  0  0  0  0
 21 25  1  0  0  0  0
 21 26  1  0  0  0  0
 23 29  1  0  0  0  0
 23 30  1  0  0  0  0
 18 24  1  0  0  0  0
  3  4  1  0  0  0  0
  3  5  1  0  0  0  0
  3  6  1  0  0  0  0
 11 14  1  0  0  0  0
 11 15  1  0  0  0  0
 11 16  1  0  0  0  0
 35 38  1  0  0  0  0
 35 39  1  0  0  0  0
 35 40  1  0  0  0  0
 42 44  1  0  0  0  0
 42 45  1  0  0  0  0
 42 46  1  0  0  0  0
  8 13  1  0  0  0  0
 32 37  1  0  0  0  0
 31 36  1  0  0  0  0
 41 43  1  0  0  0  0
  7 12  1  0  0  0  0
M  END
$$$$

  -OEChem-05262214473D

 46 46  0     1  0  0  0  0  0999 V2000
   -0.6012   -3.2995    3.8205 C   0  0  0  0  0  0  0  0  0  0  0  0
   -0.6574   -4.4683    3.4568 O   0  0  0  0  0  0  0  0  0  0  0  0
   -0.4935   -2.9859    5.2760 C   0  0  0  0  0  0  0  0  0  0  0  0
   -1.4789   -2.8689    5.7550 H   0  0  0  0  0  0  0  0  0  0  0  0
    0.0123   -3.7847    5.8419 H   0  0  0  0  0  0  0  0  0  0  0  0
    0.0585   -2.0642    5.5199 H   0  0  0  0  0  0  0  0  0  0  0  0
   -0.6261   -2.1849    2.9917 N   0  0  0  0  0  0  0  0  0  0  0  0
   -0.7237   -2.2601    1.5650 C   0  0  2  0  0  0  0  0  0  0  0  0
    0.1695   -1.1513    1.0687 C   0  0  0  0  0  0  0  0  0  0  0  0
    0.3193   -0.1267    1.7365 O   0  0  0  0  0  0  0  0  0  0  0  0
   -2.1397   -2.0663    1.0750 C   0  0  0  0  0  0  0  0  0  0  0  0
   -0.5717   -1.2606    3.4238 H   0  0  0  0  0  0  0  0  0  0  0  0
   -0.3076   -3.2111    1.2363 H   0  0  0  0  0  0  0  0  0  0  0  0
   -2.5584   -1.1089    1.4061 H   0  0  0  0  0  0  0  0  0  0  0  0
   -2.1682   -2.0790   -0.0197 H   0  0  0  0  0  0  0  0  0  0  0  0
   -2.7965   -2.8601    1.4459 H   0  0  0  0  0  0  0  0  0  0  0  0
    0.7724   -1.3745   -0.1593 N   0  0  0  0  0  0  0  0  0  0  0  0
    0.5614   -2.5964   -0.9244 C   0  0  2  0  0  0  0  0  0  0  0  0
    1.3522   -3.6795   -0.2542 C   0  0  0  0  0  0  0  0  0  0  0  0
    0.8384   -4.7766   -0.0695 O   0  0  0  0  0  0  0  0  0  0  0  0
    1.0996   -2.2806   -2.3150 C   0  0  0  0  0  0  0  0  0  0  0  0
    0.9306   -0.7638   -2.2719 C   0  0  0  0  0  0  0  0  0  0  0  0
    1.5408   -0.3981   -0.9273 C   0  0  0  0  0  0  0  0  0  0  0  0
   -0.4951   -2.8812   -0.9260 H   0  0  0  0  0  0  0  0  0  0  0  0
    0.4622   -2.7438   -3.0776 H   0  0  0  0  0  0  0  0  0  0  0  0
    2.1299   -2.6144   -2.4719 H   0  0  0  0  0  0  0  0  0  0  0  0
    1.4901   -0.2943   -3.0893 H   0  0  0  0  0  0  0  0  0  0  0  0
   -0.1174   -0.4625   -2.3564 H   0  0  0  0  0  0  0  0  0  0  0  0
    2.6264   -0.5275   -0.9080 H   0  0  0  0  0  0  0  0  0  0  0  0
    1.2988    0.6331   -0.6483 H   0  0  0  0  0  0  0  0  0  0  0  0
    2.7118   -3.0989    0.0590 N   0  0  0  0  0  0  0  0  0  0  0  0
    3.6982   -3.8453    0.8065 C   0  0  2  0  0  0  0  0  0  0  0  0
    3.8376   -5.2178    0.1614 C   0  0  0  0  0  0  0  0  0  0  0  0
    2.9608   -5.7232   -0.5364 O   0  0  0  0  0  0  0  0  0  0  0  0
    3.3053   -3.9700    2.2703 C   0  0  0  0  0  0  0  0  0  0  0  0
    2.9881   -2.2149   -0.3578 H   0  0  0  0  0  0  0  0  0  0  0  0
    4.6439   -3.3001    0.7144 H   0  0  0  0  0  0  0  0  0  0  0  0
    2.3601   -4.5135    2.3826 H   0  0  0  0  0  0  0  0  0  0  0  0
    4.0674   -4.5110    2.8410 H   0  0  0  0  0  0  0  0  0  0  0  0
    3.1765   -2.9818    2.7248 H   0  0  0  0  0  0  0  0  0  0  0  0
    5.0383   -5.8304    0.4920 N   0  0  0  0  0  0  0  0  0  0  0  0
    5.4007   -7.1443    0.0141 C   0  0  0  0  0  0  0  0  0  0  0  0
    5.7145   -5.3298    1.0611 H   0  0  0  0  0  0  0  0  0  0  0  0
    5.0865   -7.9014    0.7477 H   0  0  0  0  0  0  0  0  0  0  0  0
    4.9010   -7.3355   -0.9470 H   0  0  0  0  0  0  0  0  0  0  0  0
    6.4909   -7.1967   -0.1226 H   0  0  0  0  0  0  0  0  0  0  0  0
 18 19  1  0  0  0  0
 19 31  1  0  0  0  0
 19 20  2  0  0  0  0
  8  9  1  0  0  0  0
  9 17  1  0  0  0  0
  9 10  2  0  0  0  0
  1  3  1  0  0  0  0
  1  7  1  0  0  0  0
  1  2  2  0  0  0  0
 32 33  1  0  0  0  0
 33 41  1  0  0  0  0
 33 34  2  0  0  0  0
 21 22  1  0  0  0  0
 22 23  1  0  0  0  0
 18 21  1  0  0  0  0
 17 23  1  0  0  0  0
 17 18  1  0  0  0  0
  8 11  1  0  0  0  0
 32 35  1  0  0  0  0
 41 42  1  0  0  0  0
  7  8  1  0  0  0  0
 31 32  1  0  0  0  0
 22 27  1  0  0  0  0
 22 28  1  0  0  0  0
 21 25  1  0  0  0  0
 21 26  1  0  0  0  0
 23 29  1  0  0  0  0
 23 30  1  0  0  0  0
 18 24  1  0  0  0  0
  3  4  1  0  0  0  0
  3  5  1  0  0  0  0
  3  6  1  0  0  0  0
 11 14  1  0  0  0  0
 11 15  1  0  0  0  0
 11 16  1  0  0  0  0
 35 38  1  0  0  0  0
 35 39  1  0  0  0  0
 35 40  1  0  0  0  0
 42 44  1  0  0  0  0
 42 45  1  0  0  0  0
 42 46  1  0  0  0  0
  8 13  1  0  0  0  0
 32 37  1  0  0  0  0
 31 36  1  0  0  0  0
 41 43  1  0  0  0  0
  7 12  1  0  0  0  0
M  END
$$$$

  -OEChem-05262214473D

 46 46  0     1  0  0  0  0  0999 V2000
   -0.6012   -3.2995    3.8205 C   0  0  0  0  0  0  0  0  0  0  0  0
   -0.6574   -4.4683    3.4568 O   0  0  0  0  0  0  0  0  0  0  0  0
   -0.4935   -2.9859    5.2760 C   0  0  0  0  0  0  0  0  0  0  0  0
   -1.4789   -2.8689    5.7550 H   0  0  0  0  0  0  0  0  0  0  0  0
    0.0123   -3.7847    5.8419 H   0  0  0  0  0  0  0  0  0  0  0  0
    0.0585   -2.0642    5.5199 H   0  0  0  0  0  0  0  0  0  0  0  0
   -0.6261   -2.1849    2.9917 N   0  0  0  0  0  0  0  0  0  0  0  0
   -0.7237   -2.2601    1.5650 C   0  0  2  0  0  0  0  0  0  0  0  0
    0.1695   -1.1513    1.0687 C   0  0  0  0  0  0  0  0  0  0  0  0
    0.3193   -0.1267    1.7365 O   0  0  0  0  0  0  0  0  0  0  0  0
   -2.1397   -2.0663    1.0750 C   0  0  0  0  0  0  0  0  0  0  0  0
   -0.5717   -1.2606    3.4238 H   0  0  0  0  0  0  0  0  0  0  0  0
   -0.3076   -3.2111    1.2363 H   0  0  0  0  0  0  0  0  0  0  0  0
   -2.5584   -1.1089    1.4061 H   0  0  0  0  0  0  0  0  0  0  0  0
   -2.1682   -2.0790   -0.0197 H   0  0  0  0  0  0  0  0  0  0  0  0
   -2.7965   -2.8601    1.4459 H   0  0  0  0  0  0  0  0  0  0  0  0
    0.7724   -1.3745   -0.1593 N   0  0  0  0  0  0  0  0  0  0  0  0
    0.5614   -2.5964   -0.9244 C   0  0  2  0  0  0  0  0  0  0  0  0
    1.3522   -3.6795   -0.2542 C   0  0  0  0  0  0  0  0  0  0  0  0
    0.9592   -4.8387   -0.3124 O   0  0  0  0  0  0  0  0  0  0  0  0
    1.0996   -2.2806   -2.3150 C   0  0  0  0  0  0  0  0  0  0  0  0
    0.9306   -0.7638   -2.2719 C   0  0  0  0  0  0  0  0  0  0  0  0
    1.5408   -0.3981   -0.9273 C   0  0  0  0  0  0  0  0  0  0  0  0
   -0.4951   -2.8812   -0.9260 H   0  0  0  0  0  0  0  0  0  0  0  0
    0.4622   -2.7438   -3.0776 H   0  0  0  0  0  0  0  0  0  0  0  0
    2.1299   -2.6144   -2.4719 H   0  0  0  0  0  0  0  0  0  0  0  0
    1.4901   -0.2943   -3.0893 H   0  0  0  0  0  0  0  0  0  0  0  0
   -0.1174   -0.4625   -2.3564 H   0  0  0  0  0  0  0  0  0  0  0  0
    2.6264   -0.5275   -0.9080 H   0  0  0  0  0  0  0  0  0  0  0  0
    1.2988    0.6331   -0.6483 H   0  0  0  0  0  0  0  0  0  0  0  0
    2.5476   -3.0149    0.3885 N   0  0  0  0  0  0  0  0  0  0  0  0
    3.4721   -3.7581    1.2143 C   0  0  2  0  0  0  0  0  0  0  0  0
    3.9000   -4.9988    0.4417 C   0  0  0  0  0  0  0  0  0  0  0  0
    3.2347   -5.4830   -0.4715 O   0  0  0  0  0  0  0  0  0  0  0  0
    2.8429   -4.1371    2.5459 C   0  0  0  0  0  0  0  0  0  0  0  0
    2.7779   -2.0555    0.1479 H   0  0  0  0  0  0  0  0  0  0  0  0
    4.3408   -3.1111    1.3775 H   0  0  0  0  0  0  0  0  0  0  0  0
    1.9708   -4.7854    2.4026 H   0  0  0  0  0  0  0  0  0  0  0  0
    3.5537   -4.6752    3.1817 H   0  0  0  0  0  0  0  0  0  0  0  0
    2.5088   -3.2452    3.0870 H   0  0  0  0  0  0  0  0  0  0  0  0
    5.0909   -5.5269    0.9205 N   0  0  0  0  0  0  0  0  0  0  0  0
    5.6990   -6.7116    0.3614 C   0  0  0  0  0  0  0  0  0  0  0  0
    5.5842   -5.0490    1.6688 H   0  0  0  0  0  0  0  0  0  0  0  0
    5.3586   -7.5969    0.9187 H   0  0  0  0  0  0  0  0  0  0  0  0
    5.4081   -6.8092   -0.6949 H   0  0  0  0  0  0  0  0  0  0  0  0
    6.7936   -6.6311    0.4344 H   0  0  0  0  0  0  0  0  0  0  0  0
 18 19  1  0  0  0  0
 19 31  1  0  0  0  0
 19 20  2  0  0  0  0
  8  9  1  0  0  0  0
  9 17  1  0  0  0  0
  9 10  2  0  0  0  0
  1  3  1  0  0  0  0
  1  7  1  0  0  0  0
  1  2  2  0  0  0  0
 32 33  1  0  0  0  0
 33 41  1  0  0  0  0
 33 34  2  0  0  0  0
 21 22  1  0  0  0  0
 22 23  1  0  0  0  0
 18 21  1  0  0  0  0
 17 23  1  0  0  0  0
 17 18  1  0  0  0  0
  8 11  1  0  0  0  0
 32 35  1  0  0  0  0
 41 42  1  0  0  0  0
  7  8  1  0  0  0  0
 31 32  1  0  0  0  0
 22 27  1  0  0  0  0
 22 28  1  0  0  0  0
 21 25  1  0  0  0  0
 21 26  1  0  0  0  0
 23 29  1  0  0  0  0
 23 30  1  0  0  0  0
 18 24  1  0  0  0  0
  3  4  1  0  0  0  0
  3  5  1  0  0  0  0
  3  6  1  0  0  0  0
 11 14  1  0  0  0  0
 11 15  1  0  0  0  0
 11 16  1  0  0  0  0
 35 38  1  0  0  0  0
 35 39  1  0  0  0  0
 35 40  1  0  0  0  0
 42 44  1  0  0  0  0
 42 45  1  0  0  0  0
 42 46  1  0  0  0  0
  8 13  1  0  0  0  0
 32 37  1  0  0  0  0
 31 36  1  0  0  0  0
 41 43  1  0  0  0  0
  7 12  1  0  0  0  0
M  END
$$$$

  -OEChem-05262214473D

 46 46  0     1  0  0  0  0  0999 V2000
   -0.6012   -3.2995    3.8205 C   0  0  0  0  0  0  0  0  0  0  0  0
   -0.6574   -4.4683    3.4568 O   0  0  0  0  0  0  0  0  0  0  0  0
   -0.4935   -2.9859    5.2760 C   0  0  0  0  0  0  0  0  0  0  0  0
   -1.4789   -2.8689    5.7550 H   0  0  0  0  0  0  0  0  0  0  0  0
    0.0123   -3.7847    5.8419 H   0  0  0  0  0  0  0  0  0  0  0  0
    0.0585   -2.0642    5.5199 H   0  0  0  0  0  0  0  0  0  0  0  0
   -0.6261   -2.1849    2.9917 N   0  0  0  0  0  0  0  0  0  0  0  0
   -0.7237   -2.2601    1.5650 C   0  0  2  0  0  0  0  0  0  0  0  0
    0.1695   -1.1513    1.0687 C   0  0  0  0  0  0  0  0  0  0  0  0
    0.3193   -0.1267    1.7365 O   0  0  0  0  0  0  0  0  0  0  0  0
   -2.1397   -2.0663    1.0750 C   0  0  0  0  0  0  0  0  0  0  0  0
   -0.5717   -1.2606    3.4238 H   0  0  0  0  0  0  0  0  0  0  0  0
   -0.3076   -3.2111    1.2363 H   0  0  0  0  0  0  0  0  0  0  0  0
   -2.5584   -1.1089    1.4061 H   0  0  0  0  0  0  0  0  0  0  0  0
   -2.1682   -2.0790   -0.0197 H   0  0  0  0  0  0  0  0  0  0  0  0
   -2.7965   -2.8601    1.4459 H   0  0  0  0  0  0  0  0  0  0  0  0
    0.7724   -1.3745   -0.1593 N   0  0  0  0  0  0  0  0  0  0  0  0
    0.5614   -2.5964   -0.9244 C   0  0  2  0  0  0  0  0  0  0  0  0
    1.3522   -3.6795   -0.2542 C   0  0  0  0  0  0  0  0  0  0  0  0
    1.1284   -4.8516   -0.5330 O   0  0  0  0  0  0  0  0  0  0  0  0
    1.0996   -2.2806   -2.3150 C   0  0  0  0  0  0  0  0  0  0  0  0
    0.9306   -0.7638   -2.2719 C   0  0  0  0  0  0  0  0  0  0  0  0
    1.5408   -0.3981   -0.9273 C   0  0  0  0  0  0  0  0  0  0  0  0
   -0.4951   -2.8812   -0.9260 H   0  0  0  0  0  0  0  0  0  0  0  0
    0.4622   -2.7438   -3.0776 H   0  0  0  0  0  0  0  0  0  0  0  0
    2.1299   -2.6144   -2.4719 H   0  0  0  0  0  0  0  0  0  0  0  0
    1.4901   -0.2943   -3.0893 H   0  0  0  0  0  0  0  0  0  0  0  0
   -0.1174   -0.4625   -2.3564 H   0  0  0  0  0  0  0  0  0  0  0  0
    2.6264   -0.5275   -0.9080 H   0  0  0  0  0  0  0  0  0  0  0  0
    1.2988    0.6331   -0.6483 H   0  0  0  0  0  0  0  0  0  0  0  0
    2.3177   -2.9978    0.6875 N   0  0  0  0  0  0  0  0  0  0  0  0
    3.1673   -3.7557    1.5778 C   0  0  2  0  0  0  0  0  0  0  0  0
    3.8826   -4.8183    0.7540 C   0  0  0  0  0  0  0  0  0  0  0  0
    3.4594   -5.2282   -0.3249 O   0  0  0  0  0  0  0  0  0  0  0  0
    2.3641   -4.3896    2.7029 C   0  0  0  0  0  0  0  0  0  0  0  0
    2.4619   -1.9948    0.6188 H   0  0  0  0  0  0  0  0  0  0  0  0
    3.9022   -3.0541    1.9872 H   0  0  0  0  0  0  0  0  0  0  0  0
    1.6224   -5.0958    2.3120 H   0  0  0  0  0  0  0  0  0  0  0  0
    3.0129   -4.9398    3.3924 H   0  0  0  0  0  0  0  0  0  0  0  0
    1.8266   -3.6265    3.2759 H   0  0  0  0  0  0  0  0  0  0  0  0
    5.0264   -5.2861    1.3857 N   0  0  0  0  0  0  0  0  0  0  0  0
    5.8721   -6.3066    0.8117 C   0  0  0  0  0  0  0  0  0  0  0  0
    5.3123   -4.8757    2.2698 H   0  0  0  0  0  0  0  0  0  0  0  0
    5.5543   -7.2946    1.1763 H   0  0  0  0  0  0  0  0  0  0  0  0
    5.7900   -6.2767   -0.2848 H   0  0  0  0  0  0  0  0  0  0  0  0
    6.9163   -6.1257    1.1063 H   0  0  0  0  0  0  0  0  0  0  0  0
 18 19  1  0  0  0  0
 19 31  1  0  0  0  0
 19 20  2  0  0  0  0
  8  9  1  0  0  0  0
  9 17  1  0  0  0  0
  9 10  2  0  0  0  0
  1  3  1  0  0  0  0
  1  7  1  0  0  0  0
  1  2  2  0  0  0  0
 32 33  1  0  0  0  0
 33 41  1  0  0  0  0
 33 34  2  0  0  0  0
 21 22  1  0  0  0  0
 22 23  1  0  0  0  0
 18 21  1  0  0  0  0
 17 23  1  0  0  0  0
 17 18  1  0  0  0  0
  8 11  1  0  0  0  0
 32 35  1  0  0  0  0
 41 42  1  0  0  0  0
  7  8  1  0  0  0  0
 31 32  1  0  0  0  0
 22 27  1  0  0  0  0
 22 28  1  0  0  0  0
 21 25  1  0  0  0  0
 21 26  1  0  0  0  0
 23 29  1  0  0  0  0
 23 30  1  0  0  0  0
 18 24  1  0  0  0  0
  3  4  1  0  0  0  0
  3  5  1  0  0  0  0
  3  6  1  0  0  0  0
 11 14  1  0  0  0  0
 11 15  1  0  0  0  0
 11 16  1  0  0  0  0
 35 38  1  0  0  0  0
 35 39  1  0  0  0  0
 35 40  1  0  0  0  0
 42 44  1  0  0  0  0
 42 45  1  0  0  0  0
 42 46  1  0  0  0  0
  8 13  1  0  0  0  0
 32 37  1  0  0  0  0
 31 36  1  0  0  0  0
 41 43  1  0  0  0  0
  7 12  1  0  0  0  0
M  END
$$$$

  -OEChem-05262214473D

 46 46  0     1  0  0  0  0  0999 V2000
   -0.6012   -3.2995    3.8205 C   0  0  0  0  0  0  0  0  0  0  0  0
   -0.6574   -4.4683    3.4568 O   0  0  0  0  0  0  0  0  0  0  0  0
   -0.4935   -2.9859    5.2760 C   0  0  0  0  0  0  0  0  0  0  0  0
   -1.4789   -2.8689    5.7550 H   0  0  0  0  0  0  0  0  0  0  0  0
    0.0123   -3.7847    5.8419 H   0  0  0  0  0  0  0  0  0  0  0  0
    0.0585   -2.0642    5.5199 H   0  0  0  0  0  0  0  0  0  0  0  0
   -0.6261   -2.1849    2.9917 N   0  0  0  0  0  0  0  0  0  0  0  0
   -0.7237   -2.2601    1.5650 C   0  0  2  0  0  0  0  0  0  0  0  0
    0.1695   -1.1513    1.0687 C   0  0  0  0  0  0  0  0  0  0  0  0
    0.3193   -0.1267    1.7365 O   0  0  0  0  0  0  0  0  0  0  0  0
   -2.1397   -2.0663    1.0750 C   0  0  0  0  0  0  0  0  0  0  0  0
   -0.5717   -1.2606    3.4238 H   0  0  0  0  0  0  0  0  0  0  0  0
   -0.3076   -3.2111    1.2363 H   0  0  0  0  0  0  0  0  0  0  0  0
   -2.5584   -1.1089    1.4061 H   0  0  0  0  0  0  0  0  0  0  0  0
   -2.1682   -2.0790   -0.0197 H   0  0  0  0  0  0  0  0  0  0  0  0
   -2.7965   -2.8601    1.4459 H   0  0  0  0  0  0  0  0  0  0  0  0
    0.7724   -1.3745   -0.1593 N   0  0  0  0  0  0  0  0  0  0  0  0
    0.5614   -2.5964   -0.9244 C   0  0  2  0  0  0  0  0  0  0  0  0
    1.3522   -3.6795   -0.2542 C   0  0  0  0  0  0  0  0  0  0  0  0
    1.3347   -4.8144   -0.7161 O   0  0  0  0  0  0  0  0  0  0  0  0
    1.0996   -2.2806   -2.3150 C   0  0  0  0  0  0  0  0  0  0  0  0
    0.9306   -0.7638   -2.2719 C   0  0  0  0  0  0  0  0  0  0  0  0
    1.5408   -0.3981   -0.9273 C   0  0  0  0  0  0  0  0  0  0  0  0
   -0.4951   -2.8812   -0.9260 H   0  0  0  0  0  0  0  0  0  0  0  0
    0.4622   -2.7438   -3.0776 H   0  0  0  0  0  0  0  0  0  0  0  0
    2.1299   -2.6144   -2.4719 H   0  0  0  0  0  0  0  0  0  0  0  0
    1.4901   -0.2943   -3.0893 H   0  0  0  0  0  0  0  0  0  0  0  0
   -0.1174   -0.4625   -2.3564 H   0  0  0  0  0  0  0  0  0  0  0  0
    2.6264   -0.5275   -0.9080 H   0  0  0  0  0  0  0  0  0  0  0  0
    1.2988    0.6331   -0.6483 H   0  0  0  0  0  0  0  0  0  0  0  0
    2.0377   -3.0486    0.9357 N   0  0  0  0  0  0  0  0  0  0  0  0
    2.8046   -3.8383    1.8722 C   0  0  2  0  0  0  0  0  0  0  0  0
    3.7865   -4.6886    1.0770 C   0  0  0  0  0  0  0  0  0  0  0  0
    3.6195   -4.9761   -0.1064 O   0  0  0  0  0  0  0  0  0  0  0  0
    1.9014   -4.7104    2.7304 C   0  0  0  0  0  0  0  0  0  0  0  0
    2.0616   -2.0371    1.0229 H   0  0  0  0  0  0  0  0  0  0  0  0
    3.3579   -3.1331    2.5019 H   0  0  0  0  0  0  0  0  0  0  0  0
    1.3388   -5.4235    2.1169 H   0  0  0  0  0  0  0  0  0  0  0  0
    2.4817   -5.2866    3.4586 H   0  0  0  0  0  0  0  0  0  0  0  0
    1.1764   -4.0994    3.2789 H   0  0  0  0  0  0  0  0  0  0  0  0
    4.8493   -5.1245    1.8558 N   0  0  0  0  0  0  0  0  0  0  0  0
    5.9082   -5.9568    1.3344 C   0  0  0  0  0  0  0  0  0  0  0  0
    4.9171   -4.8218    2.8231 H   0  0  0  0  0  0  0  0  0  0  0  0
    5.6602   -7.0151    1.5030 H   0  0  0  0  0  0  0  0  0  0  0  0
    6.0205   -5.7740    0.2555 H   0  0  0  0  0  0  0  0  0  0  0  0
    6.8508   -5.7151    1.8473 H   0  0  0  0  0  0  0  0  0  0  0  0
 18 19  1  0  0  0  0
 19 31  1  0  0  0  0
 19 20  2  0  0  0  0
  8  9  1  0  0  0  0
  9 17  1  0  0  0  0
  9 10  2  0  0  0  0
  1  3  1  0  0  0  0
  1  7  1  0  0  0  0
  1  2  2  0  0  0  0
 32 33  1  0  0  0  0
 33 41  1  0  0  0  0
 33 34  2  0  0  0  0
 21 22  1  0  0  0  0
 22 23  1  0  0  0  0
 18 21  1  0  0  0  0
 17 23  1  0  0  0  0
 17 18  1  0  0  0  0
  8 11  1  0  0  0  0
 32 35  1  0  0  0  0
 41 42  1  0  0  0  0
  7  8  1  0  0  0  0
 31 32  1  0  0  0  0
 22 27  1  0  0  0  0
 22 28  1  0  0  0  0
 21 25  1  0  0  0  0
 21 26  1  0  0  0  0
 23 29  1  0  0  0  0
 23 30  1  0  0  0  0
 18 24  1  0  0  0  0
  3  4  1  0  0  0  0
  3  5  1  0  0  0  0
  3  6  1  0  0  0  0
 11 14  1  0  0  0  0
 11 15  1  0  0  0  0
 11 16  1  0  0  0  0
 35 38  1  0  0  0  0
 35 39  1  0  0  0  0
 35 40  1  0  0  0  0
 42 44  1  0  0  0  0
 42 45  1  0  0  0  0
 42 46  1  0  0  0  0
  8 13  1  0  0  0  0
 32 37  1  0  0  0  0
 31 36  1  0  0  0  0
 41 43  1  0  0  0  0
  7 12  1  0  0  0  0
M  END
$$$$

  -OEChem-05262214473D

 46 46  0     1  0  0  0  0  0999 V2000
   -0.6012   -3.2995    3.8205 C   0  0  0  0  0  0  0  0  0  0  0  0
   -0.6574   -4.4683    3.4568 O   0  0  0  0  0  0  0  0  0  0  0  0
   -0.4935   -2.9859    5.2760 C   0  0  0  0  0  0  0  0  0  0  0  0
   -1.4789   -2.8689    5.7550 H   0  0  0  0  0  0  0  0  0  0  0  0
    0.0123   -3.7847    5.8419 H   0  0  0  0  0  0  0  0  0  0  0  0
    0.0585   -2.0642    5.5199 H   0  0  0  0  0  0  0  0  0  0  0  0
   -0.6261   -2.1849    2.9917 N   0  0  0  0  0  0  0  0  0  0  0  0
   -0.7237   -2.2601    1.5650 C   0  0  2  0  0  0  0  0  0  0  0  0
    0.1695   -1.1513    1.0687 C   0  0  0  0  0  0  0  0  0  0  0  0
    0.3193   -0.1267    1.7365 O   0  0  0  0  0  0  0  0  0  0  0  0
   -2.1397   -2.0663    1.0750 C   0  0  0  0  0  0  0  0  0  0  0  0
   -0.5717   -1.2606    3.4238 H   0  0  0  0  0  0  0  0  0  0  0  0
   -0.3076   -3.2111    1.2363 H   0  0  0  0  0  0  0  0  0  0  0  0
   -2.5584   -1.1089    1.4061 H   0  0  0  0  0  0  0  0  0  0  0  0
   -2.1682   -2.0790   -0.0197 H   0  0  0  0  0  0  0  0  0  0  0  0
   -2.7965   -2.8601    1.4459 H   0  0  0  0  0  0  0  0  0  0  0  0
    0.7724   -1.3745   -0.1593 N   0  0  0  0  0  0  0  0  0  0  0  0
    0.5614   -2.5964   -0.9244 C   0  0  2  0  0  0  0  0  0  0  0  0
    1.3522   -3.6795   -0.2542 C   0  0  0  0  0  0  0  0  0  0  0  0
    1.5638   -4.7295   -0.8494 O   0  0  0  0  0  0  0  0  0  0  0  0
    1.0996   -2.2806   -2.3150 C   0  0  0  0  0  0  0  0  0  0  0  0
    0.9306   -0.7638   -2.2719 C   0  0  0  0  0  0  0  0  0  0  0  0
    1.5408   -0.3981   -0.9273 C   0  0  0  0  0  0  0  0  0  0  0  0
   -0.4951   -2.8812   -0.9260 H   0  0  0  0  0  0  0  0  0  0  0  0
    0.4622   -2.7438   -3.0776 H   0  0  0  0  0  0  0  0  0  0  0  0
    2.1299   -2.6144   -2.4719 H   0  0  0  0  0  0  0  0  0  0  0  0
    1.4901   -0.2943   -3.0893 H   0  0  0  0  0  0  0  0  0  0  0  0
   -0.1174   -0.4625   -2.3564 H   0  0  0  0  0  0  0  0  0  0  0  0
    2.6264   -0.5275   -0.9080 H   0  0  0  0  0  0  0  0  0  0  0  0
    1.2988    0.6331   -0.6483 H   0  0  0  0  0  0  0  0  0  0  0  0
    1.7267   -3.1641    1.1161 N   0  0  0  0  0  0  0  0  0  0  0  0
    2.4088   -4.0003    2.0776 C   0  0  2  0  0  0  0  0  0  0  0  0
    3.6183   -4.6185    1.3888 C   0  0  0  0  0  0  0  0  0  0  0  0
    3.7041   -4.7440    0.1690 O   0  0  0  0  0  0  0  0  0  0  0  0
    1.4865   -5.0775    2.6268 C   0  0  0  0  0  0  0  0  0  0  0  0
    1.6043   -2.1794    1.3326 H   0  0  0  0  0  0  0  0  0  0  0  0
    2.7451   -3.3426    2.8865 H   0  0  0  0  0  0  0  0  0  0  0  0
    1.1393   -5.7463    1.8308 H   0  0  0  0  0  0  0  0  0  0  0  0
    1.9963   -5.6922    3.3759 H   0  0  0  0  0  0  0  0  0  0  0  0
    0.6025   -4.6319    3.0955 H   0  0  0  0  0  0  0  0  0  0  0  0
    4.5717   -5.0530    2.2989 N   0  0  0  0  0  0  0  0  0  0  0  0
    5.8049   -5.6861    1.8937 C   0  0  0  0  0  0  0  0  0  0  0  0
    4.4258   -4.8911    3.2910 H   0  0  0  0  0  0  0  0  0  0  0  0
    5.6690   -6.7776    1.8765 H   0  0  0  0  0  0  0  0  0  0  0  0
    6.0840   -5.3356    0.8891 H   0  0  0  0  0  0  0  0  0  0  0  0
    6.6015   -5.4272    2.6068 H   0  0  0  0  0  0  0  0  0  0  0  0
 18 19  1  0  0  0  0
 19 31  1  0  0  0  0
 19 20  2  0  0  0  0
  8  9  1  0  0  0  0
  9 17  1  0  0  0  0
  9 10  2  0  0  0  0
  1  3  1  0  0  0  0
  1  7  1  0  0  0  0
  1  2  2  0  0  0  0
 32 33  1  0  0  0  0
 33 41  1  0  0  0  0
 33 34  2  0  0  0  0
 21 22  1  0  0  0  0
 22 23  1  0  0  0  0
 18 21  1  0  0  0  0
 17 23  1  0  0  0  0
 17 18  1  0  0  0  0
  8 11  1  0  0  0  0
 32 35  1  0  0  0  0
 41 42  1  0  0  0  0
  7  8  1  0  0  0  0
 31 32  1  0  0  0  0
 22 27  1  0  0  0  0
 22 28  1  0  0  0  0
 21 25  1  0  0  0  0
 21 26  1  0  0  0  0
 23 29  1  0  0  0  0
 23 30  1  0  0  0  0
 18 24  1  0  0  0  0
  3  4  1  0  0  0  0
  3  5  1  0  0  0  0
  3  6  1  0  0  0  0
 11 14  1  0  0  0  0
 11 15  1  0  0  0  0
 11 16  1  0  0  0  0
 35 38  1  0  0  0  0
 35 39  1  0  0  0  0
 35 40  1  0  0  0  0
 42 44  1  0  0  0  0
 42 45  1  0  0  0  0
 42 46  1  0  0  0  0
  8 13  1  0  0  0  0
 32 37  1  0  0  0  0
 31 36  1  0  0  0  0
 41 43  1  0  0  0  0
  7 12  1  0  0  0  0
M  END
$$$$

  -OEChem-05262214473D

 46 46  0     1  0  0  0  0  0999 V2000
   -0.6012   -3.2995    3.8205 C   0  0  0  0  0  0  0  0  0  0  0  0
   -0.6574   -4.4683    3.4568 O   0  0  0  0  0  0  0  0  0  0  0  0
   -0.4935   -2.9859    5.2760 C   0  0  0  0  0  0  0  0  0  0  0  0
   -1.4789   -2.8689    5.7550 H   0  0  0  0  0  0  0  0  0  0  0  0
    0.0123   -3.7847    5.8419 H   0  0  0  0  0  0  0  0  0  0  0  0
    0.0585   -2.0642    5.5199 H   0  0  0  0  0  0  0  0  0  0  0  0
   -0.6261   -2.1849    2.9917 N   0  0  0  0  0  0  0  0  0  0  0  0
   -0.7237   -2.2601    1.5650 C   0  0  2  0  0  0  0  0  0  0  0  0
    0.1695   -1.1513    1.0687 C   0  0  0  0  0  0  0  0  0  0  0  0
    0.3193   -0.1267    1.7365 O   0  0  0  0  0  0  0  0  0  0  0  0
   -2.1397   -2.0663    1.0750 C   0  0  0  0  0  0  0  0  0  0  0  0
   -0.5717   -1.2606    3.4238 H   0  0  0  0  0  0  0  0  0  0  0  0
   -0.3076   -3.2111    1.2363 H   0  0  0  0  0  0  0  0  0  0  0  0
   -2.5584   -1.1089    1.4061 H   0  0  0  0  0  0  0  0  0  0  0  0
   -2.1682   -2.0790   -0.0197 H   0  0  0  0  0  0  0  0  0  0  0  0
   -2.7965   -2.8601    1.4459 H   0  0  0  0  0  0  0  0  0  0  0  0
    0.7724   -1.3745   -0.1593 N   0  0  0  0  0  0  0  0  0  0  0  0
    0.5614   -2.5964   -0.9244 C   0  0  2  0  0  0  0  0  0  0  0  0
    1.3522   -3.6795   -0.2542 C   0  0  0  0  0  0  0  0  0  0  0  0
    1.8002   -4.6029   -0.9237 O   0  0  0  0  0  0  0  0  0  0  0  0
    1.0996   -2.2806   -2.3150 C   0  0  0  0  0  0  0  0  0  0  0  0
    0.9306   -0.7638   -2.2719 C   0  0  0  0  0  0  0  0  0  0  0  0
    1.5408   -0.3981   -0.9273 C   0  0  0  0  0  0  0  0  0  0  0  0
   -0.4951   -2.8812   -0.9260 H   0  0  0  0  0  0  0  0  0  0  0  0
    0.4622   -2.7438   -3.0776 H   0  0  0  0  0  0  0  0  0  0  0  0
    2.1299   -2.6144   -2.4719 H   0  0  0  0  0  0  0  0  0  0  0  0
    1.4901   -0.2943   -3.0893 H   0  0  0  0  0  0  0  0  0  0  0  0
   -0.1174   -0.4625   -2.3564 H   0  0  0  0  0  0  0  0  0  0  0  0
    2.6264   -0.5275   -0.9080 H   0  0  0  0  0  0  0  0  0  0  0  0
    1.2988    0.6331   -0.6483 H   0  0  0  0  0  0  0  0  0  0  0  0
    1.4060   -3.3361    1.2165 N   0  0  0  0  0  0  0  0  0  0  0  0
    2.0068   -4.2306    2.1798 C   0  0  2  0  0  0  0  0  0  0  0  0
    3.3894   -4.6129    1.6680 C   0  0  0  0  0  0  0  0  0  0  0  0
    3.7075   -4.5475    0.4825 O   0  0  0  0  0  0  0  0  0  0  0  0
    1.1475   -5.4660    2.3989 C   0  0  0  0  0  0  0  0  0  0  0  0
    1.1211   -2.4121    1.5268 H   0  0  0  0  0  0  0  0  0  0  0  0
    2.1054   -3.6684    3.1148 H   0  0  0  0  0  0  0  0  0  0  0  0
    1.0374   -6.0421    1.4729 H   0  0  0  0  0  0  0  0  0  0  0  0
    1.5898   -6.1288    3.1499 H   0  0  0  0  0  0  0  0  0  0  0  0
    0.1441   -5.1875    2.7385 H   0  0  0  0  0  0  0  0  0  0  0  0
    4.2124   -5.0766    2.6848 N   0  0  0  0  0  0  0  0  0  0  0  0
    5.5693   -5.5130    2.4516 C   0  0  0  0  0  0  0  0  0  0  0  0
    3.8717   -5.0787    3.6417 H   0  0  0  0  0  0  0  0  0  0  0  0
    5.5802   -6.5981    2.2713 H   0  0  0  0  0  0  0  0  0  0  0  0
    5.9762   -4.9913    1.5728 H   0  0  0  0  0  0  0  0  0  0  0  0
    6.1853   -5.2816    3.3331 H   0  0  0  0  0  0  0  0  0  0  0  0
 18 19  1  0  0  0  0
 19 31  1  0  0  0  0
 19 20  2  0  0  0  0
  8  9  1  0  0  0  0
  9 17  1  0  0  0  0
  9 10  2  0  0  0  0
  1  3  1  0  0  0  0
  1  7  1  0  0  0  0
  1  2  2  0  0  0  0
 32 33  1  0  0  0  0
 33 41  1  0  0  0  0
 33 34  2  0  0  0  0
 21 22  1  0  0  0  0
 22 23  1  0  0  0  0
 18 21  1  0  0  0  0
 17 23  1  0  0  0  0
 17 18  1  0  0  0  0
  8 11  1  0  0  0  0
 32 35  1  0  0  0  0
 41 42  1  0  0  0  0
  7  8  1  0  0  0  0
 31 32  1  0  0  0  0
 22 27  1  0  0  0  0
 22 28  1  0  0  0  0
 21 25  1  0  0  0  0
 21 26  1  0  0  0  0
 23 29  1  0  0  0  0
 23 30  1  0  0  0  0
 18 24  1  0  0  0  0
  3  4  1  0  0  0  0
  3  5  1  0  0  0  0
  3  6  1  0  0  0  0
 11 14  1  0  0  0  0
 11 15  1  0  0  0  0
 11 16  1  0  0  0  0
 35 38  1  0  0  0  0
 35 39  1  0  0  0  0
 35 40  1  0  0  0  0
 42 44  1  0  0  0  0
 42 45  1  0  0  0  0
 42 46  1  0  0  0  0
  8 13  1  0  0  0  0
 32 37  1  0  0  0  0
 31 36  1  0  0  0  0
 41 43  1  0  0  0  0
  7 12  1  0  0  0  0
M  END
$$$$

  -OEChem-05262214473D

 46 46  0     1  0  0  0  0  0999 V2000
   -0.6012   -3.2995    3.8205 C   0  0  0  0  0  0  0  0  0  0  0  0
   -0.6574   -4.4683    3.4568 O   0  0  0  0  0  0  0  0  0  0  0  0
   -0.4935   -2.9859    5.2760 C   0  0  0  0  0  0  0  0  0  0  0  0
   -1.4789   -2.8689    5.7550 H   0  0  0  0  0  0  0  0  0  0  0  0
    0.0123   -3.7847    5.8419 H   0  0  0  0  0  0  0  0  0  0  0  0
    0.0585   -2.0642    5.5199 H   0  0  0  0  0  0  0  0  0  0  0  0
   -0.6261   -2.1849    2.9917 N   0  0  0  0  0  0  0  0  0  0  0  0
   -0.7237   -2.2601    1.5650 C   0  0  2  0  0  0  0  0  0  0  0  0
    0.1695   -1.1513    1.0687 C   0  0  0  0  0  0  0  0  0  0  0  0
    0.3193   -0.1267    1.7365 O   0  0  0  0  0  0  0  0  0  0  0  0
   -2.1397   -2.0663    1.0750 C   0  0  0  0  0  0  0  0  0  0  0  0
   -0.5717   -1.2606    3.4238 H   0  0  0  0  0  0  0  0  0  0  0  0
   -0.3076   -3.2111    1.2363 H   0  0  0  0  0  0  0  0  0  0  0  0
   -2.5584   -1.1089    1.4061 H   0  0  0  0  0  0  0  0  0  0  0  0
   -2.1682   -2.0790   -0.0197 H   0  0  0  0  0  0  0  0  0  0  0  0
   -2.7965   -2.8601    1.4459 H   0  0  0  0  0  0  0  0  0  0  0  0
    0.7724   -1.3745   -0.1593 N   0  0  0  0  0  0  0  0  0  0  0  0
    0.5614   -2.5964   -0.9244 C   0  0  2  0  0  0  0  0  0  0  0  0
    1.3522   -3.6795   -0.2542 C   0  0  0  0  0  0  0  0  0  0  0  0
    2.0278   -4.4431   -0.9340 O   0  0  0  0  0  0  0  0  0  0  0  0
    1.0996   -2.2806   -2.3150 C   0  0  0  0  0  0  0  0  0  0  0  0
    0.9306   -0.7638   -2.2719 C   0  0  0  0  0  0  0  0  0  0  0  0
    1.5408   -0.3981   -0.9273 C   0  0  0  0  0  0  0  0  0  0  0  0
   -0.4951   -2.8812   -0.9260 H   0  0  0  0  0  0  0  0  0  0  0  0
    0.4622   -2.7438   -3.0776 H   0  0  0  0  0  0  0  0  0  0  0  0
    2.1299   -2.6144   -2.4719 H   0  0  0  0  0  0  0  0  0  0  0  0
    1.4901   -0.2943   -3.0893 H   0  0  0  0  0  0  0  0  0  0  0  0
   -0.1174   -0.4625   -2.3564 H   0  0  0  0  0  0  0  0  0  0  0  0
    2.6264   -0.5275   -0.9080 H   0  0  0  0  0  0  0  0  0  0  0  0
    1.2988    0.6331   -0.6483 H   0  0  0  0  0  0  0  0  0  0  0  0
    1.0973   -3.5532    1.2300 N   0  0  0  0  0  0  0  0  0  0  0  0
    1.6261   -4.5134    2.1719 C   0  0  2  0  0  0  0  0  0  0  0  0
    3.1154   -4.6720    1.8957 C   0  0  0  0  0  0  0  0  0  0  0  0
    3.6295   -4.4001    0.8128 O   0  0  0  0  0  0  0  0  0  0  0  0
    0.9077   -5.8493    2.0624 C   0  0  0  0  0  0  0  0  0  0  0  0
    0.6450   -2.7192    1.5923 H   0  0  0  0  0  0  0  0  0  0  0  0
    1.4826   -4.0882    3.1712 H   0  0  0  0  0  0  0  0  0  0  0  0
    1.0401   -6.2908    1.0679 H   0  0  0  0  0  0  0  0  0  0  0  0
    1.2900   -6.5668    2.7960 H   0  0  0  0  0  0  0  0  0  0  0  0
   -0.1677   -5.7286    2.2320 H   0  0  0  0  0  0  0  0  0  0  0  0
    3.7959   -5.1937    2.9871 N   0  0  0  0  0  0  0  0  0  0  0  0
    5.2173   -5.4492    2.9701 C   0  0  0  0  0  0  0  0  0  0  0  0
    3.2926   -5.3719    3.8512 H   0  0  0  0  0  0  0  0  0  0  0  0
    5.3999   -6.4889    2.6607 H   0  0  0  0  0  0  0  0  0  0  0  0
    5.7043   -4.7646    2.2601 H   0  0  0  0  0  0  0  0  0  0  0  0
    5.6307   -5.2884    3.9767 H   0  0  0  0  0  0  0  0  0  0  0  0
 18 19  1  0  0  0  0
 19 31  1  0  0  0  0
 19 20  2  0  0  0  0
  8  9  1  0  0  0  0
  9 17  1  0  0  0  0
  9 10  2  0  0  0  0
  1  3  1  0  0  0  0
  1  7  1  0  0  0  0
  1  2  2  0  0  0  0
 32 33  1  0  0  0  0
 33 41  1  0  0  0  0
 33 34  2  0  0  0  0
 21 22  1  0  0  0  0
 22 23  1  0  0  0  0
 18 21  1  0  0  0  0
 17 23  1  0  0  0  0
 17 18  1  0  0  0  0
  8 11  1  0  0  0  0
 32 35  1  0  0  0  0
 41 42  1  0  0  0  0
  7  8  1  0  0  0  0
 31 32  1  0  0  0  0
 22 27  1  0  0  0  0
 22 28  1  0  0  0  0
 21 25  1  0  0  0  0
 21 26  1  0  0  0  0
 23 29  1  0  0  0  0
 23 30  1  0  0  0  0
 18 24  1  0  0  0  0
  3  4  1  0  0  0  0
  3  5  1  0  0  0  0
  3  6  1  0  0  0  0
 11 14  1  0  0  0  0
 11 15  1  0  0  0  0
 11 16  1  0  0  0  0
 35 38  1  0  0  0  0
 35 39  1  0  0  0  0
 35 40  1  0  0  0  0
 42 44  1  0  0  0  0
 42 45  1  0  0  0  0
 42 46  1  0  0  0  0
  8 13  1  0  0  0  0
 32 37  1  0  0  0  0
 31 36  1  0  0  0  0
 41 43  1  0  0  0  0
  7 12  1  0  0  0  0
M  END
$$$$

  -OEChem-05262214473D

 46 46  0     1  0  0  0  0  0999 V2000
   -0.6012   -3.2995    3.8205 C   0  0  0  0  0  0  0  0  0  0  0  0
   -0.6574   -4.4683    3.4568 O   0  0  0  0  0  0  0  0  0  0  0  0
   -0.4935   -2.9859    5.2760 C   0  0  0  0  0  0  0  0  0  0  0  0
   -1.4789   -2.8689    5.7550 H   0  0  0  0  0  0  0  0  0  0  0  0
    0.0123   -3.7847    5.8419 H   0  0  0  0  0  0  0  0  0  0  0  0
    0.0585   -2.0642    5.5199 H   0  0  0  0  0  0  0  0  0  0  0  0
   -0.6261   -2.1849    2.9917 N   0  0  0  0  0  0  0  0  0  0  0  0
   -0.7237   -2.2601    1.5650 C   0  0  2  0  0  0  0  0  0  0  0  0
    0.1695   -1.1513    1.0687 C   0  0  0  0  0  0  0  0  0  0  0  0
    0.3193   -0.1267    1.7365 O   0  0  0  0  0  0  0  0  0  0  0  0
   -2.1397   -2.0663    1.0750 C   0  0  0  0  0  0  0  0  0  0  0  0
   -0.5717   -1.2606    3.4238 H   0  0  0  0  0  0  0  0  0  0  0  0
   -0.3076   -3.2111    1.2363 H   0  0  0  0  0  0  0  0  0  0  0  0
   -2.5584   -1.1089    1.4061 H   0  0  0  0  0  0  0  0  0  0  0  0
   -2.1682   -2.0790   -0.0197 H   0  0  0  0  0  0  0  0  0  0  0  0
   -2.7965   -2.8601    1.4459 H   0  0  0  0  0  0  0  0  0  0  0  0
    0.7724   -1.3745   -0.1593 N   0  0  0  0  0  0  0  0  0  0  0  0
    0.5614   -2.5964   -0.9244 C   0  0  2  0  0  0  0  0  0  0  0  0
    1.3522   -3.6795   -0.2542 C   0  0  0  0  0  0  0  0  0  0  0  0
    2.2311   -4.2609   -0.8796 O   0  0  0  0  0  0  0  0  0  0  0  0
    1.0996   -2.2806   -2.3150 C   0  0  0  0  0  0  0  0  0  0  0  0
    0.9306   -0.7638   -2.2719 C   0  0  0  0  0  0  0  0  0  0  0  0
    1.5408   -0.3981   -0.9273 C   0  0  0  0  0  0  0  0  0  0  0  0
   -0.4951   -2.8812   -0.9260 H   0  0  0  0  0  0  0  0  0  0  0  0
    0.4622   -2.7438   -3.0776 H   0  0  0  0  0  0  0  0  0  0  0  0
    2.1299   -2.6144   -2.4719 H   0  0  0  0  0  0  0  0  0  0  0  0
    1.4901   -0.2943   -3.0893 H   0  0  0  0  0  0  0  0  0  0  0  0
   -0.1174   -0.4625   -2.3564 H   0  0  0  0  0  0  0  0  0  0  0  0
    2.6264   -0.5275   -0.9080 H   0  0  0  0  0  0  0  0  0  0  0  0
    1.2988    0.6331   -0.6483 H   0  0  0  0  0  0  0  0  0  0  0  0
    0.8217   -3.8004    1.1556 N   0  0  0  0  0  0  0  0  0  0  0  0
    1.2925   -4.8297    2.0545 C   0  0  2  0  0  0  0  0  0  0  0  0
    2.8150   -4.7920    2.0564 C   0  0  0  0  0  0  0  0  0  0  0  0
    3.4753   -4.3119    1.1373 O   0  0  0  0  0  0  0  0  0  0  0  0
    0.7833   -6.2014    1.6402 C   0  0  0  0  0  0  0  0  0  0  0  0
    0.2084   -3.0799    1.5246 H   0  0  0  0  0  0  0  0  0  0  0  0
    0.9190   -4.5735    3.0520 H   0  0  0  0  0  0  0  0  0  0  0  0
    1.1472   -6.4754    0.6432 H   0  0  0  0  0  0  0  0  0  0  0  0
    1.1173   -6.9761    2.3383 H   0  0  0  0  0  0  0  0  0  0  0  0
   -0.3115   -6.2181    1.6106 H   0  0  0  0  0  0  0  0  0  0  0  0
    3.3506   -5.3962    3.1852 N   0  0  0  0  0  0  0  0  0  0  0  0
    4.7730   -5.4990    3.4138 C   0  0  0  0  0  0  0  0  0  0  0  0
    2.7280   -5.7507    3.9052 H   0  0  0  0  0  0  0  0  0  0  0  0
    5.1402   -6.4574    3.0179 H   0  0  0  0  0  0  0  0  0  0  0  0
    5.2870   -4.6708    2.9040 H   0  0  0  0  0  0  0  0  0  0  0  0
    4.9754   -5.4469    4.4938 H   0  0  0  0  0  0  0  0  0  0  0  0
 18 19  1  0  0  0  0
 19 31  1  0  0  0  0
 19 20  2  0  0  0  0
  8  9  1  0  0  0  0
  9 17  1  0  0  0  0
  9 10  2  0  0  0  0
  1  3  1  0  0  0  0
  1  7  1  0  0  0  0
  1  2  2  0  0  0  0
 32 33  1  0  0  0  0
 33 41  1  0  0  0  0
 33 34  2  0  0  0  0
 21 22  1  0  0  0  0
 22 23  1  0  0  0  0
 18 21  1  0  0  0  0
 17 23  1  0  0  0  0
 17 18  1  0  0  0  0
  8 11  1  0  0  0  0
 32 35  1  0  0  0  0
 41 42  1  0  0  0  0
  7  8  1  0  0  0  0
 31 32  1  0  0  0  0
 22 27  1  0  0  0  0
 22 28  1  0  0  0  0
 21 25  1  0  0  0  0
 21 26  1  0  0  0  0
 23 29  1  0  0  0  0
 23 30  1  0  0  0  0
 18 24  1  0  0  0  0
  3  4  1  0  0  0  0
  3  5  1  0  0  0  0
  3  6  1  0  0  0  0
 11 14  1  0  0  0  0
 11 15  1  0  0  0  0
 11 16  1  0  0  0  0
 35 38  1  0  0  0  0
 35 39  1  0  0  0  0
 35 40  1  0  0  0  0
 42 44  1  0  0  0  0
 42 45  1  0  0  0  0
 42 46  1  0  0  0  0
  8 13  1  0  0  0  0
 32 37  1  0  0  0  0
 31 36  1  0  0  0  0
 41 43  1  0  0  0  0
  7 12  1  0  0  0  0
M  END
$$$$

  -OEChem-05262214473D

 46 46  0     1  0  0  0  0  0999 V2000
   -0.6012   -3.2995    3.8205 C   0  0  0  0  0  0  0  0  0  0  0  0
   -0.6574   -4.4683    3.4568 O   0  0  0  0  0  0  0  0  0  0  0  0
   -0.4935   -2.9859    5.2760 C   0  0  0  0  0  0  0  0  0  0  0  0
   -1.4789   -2.8689    5.7550 H   0  0  0  0  0  0  0  0  0  0  0  0
    0.0123   -3.7847    5.8419 H   0  0  0  0  0  0  0  0  0  0  0  0
    0.0585   -2.0642    5.5199 H   0  0  0  0  0  0  0  0  0  0  0  0
   -0.6261   -2.1849    2.9917 N   0  0  0  0  0  0  0  0  0  0  0  0
   -0.7237   -2.2601    1.5650 C   0  0  2  0  0  0  0  0  0  0  0  0
    0.1695   -1.1513    1.0687 C   0  0  0  0  0  0  0  0  0  0  0  0
    0.3193   -0.1267    1.7365 O   0  0  0  0  0  0  0  0  0  0  0  0
   -2.1397   -2.0663    1.0750 C   0  0  0  0  0  0  0  0  0  0  0  0
   -0.5717   -1.2606    3.4238 H   0  0  0  0  0  0  0  0  0  0  0  0
   -0.3076   -3.2111    1.2363 H   0  0  0  0  0  0  0  0  0  0  0  0
   -2.5584   -1.1089    1.4061 H   0  0  0  0  0  0  0  0  0  0  0  0
   -2.1682   -2.0790   -0.0197 H   0  0  0  0  0  0  0  0  0  0  0  0
   -2.7965   -2.8601    1.4459 H   0  0  0  0  0  0  0  0  0  0  0  0
    0.7724   -1.3745   -0.1593 N   0  0  0  0  0  0  0  0  0  0  0  0
    0.5614   -2.5964   -0.9244 C   0  0  2  0  0  0  0  0  0  0  0  0
    1.3522   -3.6795   -0.2542 C   0  0  0  0  0  0  0  0  0  0  0  0
    2.3962   -4.0689   -0.7641 O   0  0  0  0  0  0  0  0  0  0  0  0
    1.0996   -2.2806   -2.3150 C   0  0  0  0  0  0  0  0  0  0  0  0
    0.9306   -0.7638   -2.2719 C   0  0  0  0  0  0  0  0  0  0  0  0
    1.5408   -0.3981   -0.9273 C   0  0  0  0  0  0  0  0  0  0  0  0
   -0.4951   -2.8812   -0.9260 H   0  0  0  0  0  0  0  0  0  0  0  0
    0.4622   -2.7438   -3.0776 H   0  0  0  0  0  0  0  0  0  0  0  0
    2.1299   -2.6144   -2.4719 H   0  0  0  0  0  0  0  0  0  0  0  0
    1.4901   -0.2943   -3.0893 H   0  0  0  0  0  0  0  0  0  0  0  0
   -0.1174   -0.4625   -2.3564 H   0  0  0  0  0  0  0  0  0  0  0  0
    2.6264   -0.5275   -0.9080 H   0  0  0  0  0  0  0  0  0  0  0  0
    1.2988    0.6331   -0.6483 H   0  0  0  0  0  0  0  0  0  0  0  0
    0.5980   -4.0609    0.9986 N   0  0  0  0  0  0  0  0  0  0  0  0
    1.0289   -5.1577    1.8355 C   0  0  2  0  0  0  0  0  0  0  0  0
    2.5087   -4.9645    2.1390 C   0  0  0  0  0  0  0  0  0  0  0  0
    3.2554   -4.2888    1.4340 O   0  0  0  0  0  0  0  0  0  0  0  0
    0.7828   -6.4983    1.1610 C   0  0  0  0  0  0  0  0  0  0  0  0
   -0.1590   -3.4696    1.3283 H   0  0  0  0  0  0  0  0  0  0  0  0
    0.4531   -5.0912    2.7651 H   0  0  0  0  0  0  0  0  0  0  0  0
    1.3514   -6.5833    0.2278 H   0  0  0  0  0  0  0  0  0  0  0  0
    1.0833   -7.3290    1.8080 H   0  0  0  0  0  0  0  0  0  0  0  0
   -0.2777   -6.6227    0.9166 H   0  0  0  0  0  0  0  0  0  0  0  0
    2.9069   -5.6704    3.2656 N   0  0  0  0  0  0  0  0  0  0  0  0
    4.2667   -5.6592    3.7525 C   0  0  0  0  0  0  0  0  0  0  0  0
    2.2164   -6.1893    3.8002 H   0  0  0  0  0  0  0  0  0  0  0  0
    4.8190   -6.5058    3.3187 H   0  0  0  0  0  0  0  0  0  0  0  0
    4.7526   -4.7165    3.4609 H   0  0  0  0  0  0  0  0  0  0  0  0
    4.2641   -5.7465    4.8490 H   0  0  0  0  0  0  0  0  0  0  0  0
 18 19  1  0  0  0  0
 19 31  1  0  0  0  0
 19 20  2  0  0  0  0
  8  9  1  0  0  0  0
  9 17  1  0  0  0  0
  9 10  2  0  0  0  0
  1  3  1  0  0  0  0
  1  7  1  0  0  0  0
  1  2  2  0  0  0  0
 32 33  1  0  0  0  0
 33 41  1  0  0  0  0
 33 34  2  0  0  0  0
 21 22  1  0  0  0  0
 22 23  1  0  0  0  0
 18 21  1  0  0  0  0
 17 23  1  0  0  0  0
 17 18  1  0  0  0  0
  8 11  1  0  0  0  0
 32 35  1  0  0  0  0
 41 42  1  0  0  0  0
  7  8  1  0  0  0  0
 31 32  1  0  0  0  0
 22 27  1  0  0  0  0
 22 28  1  0  0  0  0
 21 25  1  0  0  0  0
 21 26  1  0  0  0  0
 23 29  1  0  0  0  0
 23 30  1  0  0  0  0
 18 24  1  0  0  0  0
  3  4  1  0  0  0  0
  3  5  1  0  0  0  0
  3  6  1  0  0  0  0
 11 14  1  0  0  0  0
 11 15  1  0  0  0  0
 11 16  1  0  0  0  0
 35 38  1  0  0  0  0
 35 39  1  0  0  0  0
 35 40  1  0  0  0  0
 42 44  1  0  0  0  0
 42 45  1  0  0  0  0
 42 46  1  0  0  0  0
  8 13  1  0  0  0  0
 32 37  1  0  0  0  0
 31 36  1  0  0  0  0
 41 43  1  0  0  0  0
  7 12  1  0  0  0  0
M  END
$$$$

  -OEChem-05262214473D

 46 46  0     1  0  0  0  0  0999 V2000
   -0.6012   -3.2995    3.8205 C   0  0  0  0  0  0  0  0  0  0  0  0
   -0.6574   -4.4683    3.4568 O   0  0  0  0  0  0  0  0  0  0  0  0
   -0.4935   -2.9859    5.2760 C   0  0  0  0  0  0  0  0  0  0  0  0
   -1.4789   -2.8689    5.7550 H   0  0  0  0  0  0  0  0  0  0  0  0
    0.0123   -3.7847    5.8419 H   0  0  0  0  0  0  0  0  0  0  0  0
    0.0585   -2.0642    5.5199 H   0  0  0  0  0  0  0  0  0  0  0  0
   -0.6261   -2.1849    2.9917 N   0  0  0  0  0  0  0  0  0  0  0  0
   -0.7237   -2.2601    1.5650 C   0  0  2  0  0  0  0  0  0  0  0  0
    0.1695   -1.1513    1.0687 C   0  0  0  0  0  0  0  0  0  0  0  0
    0.3193   -0.1267    1.7365 O   0  0  0  0  0  0  0  0  0  0  0  0
   -2.1397   -2.0663    1.0750 C   0  0  0  0  0  0  0  0  0  0  0  0
   -0.5717   -1.2606    3.4238 H   0  0  0  0  0  0  0  0  0  0  0  0
   -0.3076   -3.2111    1.2363 H   0  0  0  0  0  0  0  0  0  0  0  0
   -2.5584   -1.1089    1.4061 H   0  0  0  0  0  0  0  0  0  0  0  0
   -2.1682   -2.0790   -0.0197 H   0  0  0  0  0  0  0  0  0  0  0  0
   -2.7965   -2.8601    1.4459 H   0  0  0  0  0  0  0  0  0  0  0  0
    0.7724   -1.3745   -0.1593 N   0  0  0  0  0  0  0  0  0  0  0  0
    0.5614   -2.5964   -0.9244 C   0  0  2  0  0  0  0  0  0  0  0  0
    1.3522   -3.6795   -0.2542 C   0  0  0  0  0  0  0  0  0  0  0  0
    2.5119   -3.8801   -0.5955 O   0  0  0  0  0  0  0  0  0  0  0  0
    1.0996   -2.2806   -2.3150 C   0  0  0  0  0  0  0  0  0  0  0  0
    0.9306   -0.7638   -2.2719 C   0  0  0  0  0  0  0  0  0  0  0  0
    1.5408   -0.3981   -0.9273 C   0  0  0  0  0  0  0  0  0  0  0  0
   -0.4951   -2.8812   -0.9260 H   0  0  0  0  0  0  0  0  0  0  0  0
    0.4622   -2.7438   -3.0776 H   0  0  0  0  0  0  0  0  0  0  0  0
    2.1299   -2.6144   -2.4719 H   0  0  0  0  0  0  0  0  0  0  0  0
    1.4901   -0.2943   -3.0893 H   0  0  0  0  0  0  0  0  0  0  0  0
   -0.1174   -0.4625   -2.3564 H   0  0  0  0  0  0  0  0  0  0  0  0
    2.6264   -0.5275   -0.9080 H   0  0  0  0  0  0  0  0  0  0  0  0
    1.2988    0.6331   -0.6483 H   0  0  0  0  0  0  0  0  0  0  0  0
    0.4415   -4.3170    0.7695 N   0  0  0  0  0  0  0  0  0  0  0  0
    0.8531   -5.4751    1.5300 C   0  0  2  0  0  0  0  0  0  0  0  0
    2.2174   -5.1778    2.1380 C   0  0  0  0  0  0  0  0  0  0  0  0
    2.9849   -4.3325    1.6827 O   0  0  0  0  0  0  0  0  0  0  0  0
    0.9063   -6.7196    0.6576 C   0  0  0  0  0  0  0  0  0  0  0  0
   -0.4320   -3.8617    1.0168 H   0  0  0  0  0  0  0  0  0  0  0  0
    0.1166   -5.6060    2.3303 H   0  0  0  0  0  0  0  0  0  0  0  0
    1.6388   -6.6072   -0.1500 H   0  0  0  0  0  0  0  0  0  0  0  0
    1.1905   -7.6014    1.2412 H   0  0  0  0  0  0  0  0  0  0  0  0
   -0.0683   -6.9149    0.1974 H   0  0  0  0  0  0  0  0  0  0  0  0
    2.4950   -5.9976    3.2230 N   0  0  0  0  0  0  0  0  0  0  0  0
    3.7327   -5.9187    3.9631 C   0  0  0  0  0  0  0  0  0  0  0  0
    1.7926   -6.6578    3.5431 H   0  0  0  0  0  0  0  0  0  0  0  0
    4.4581   -6.6308    3.5426 H   0  0  0  0  0  0  0  0  0  0  0  0
    4.1376   -4.8984    3.8925 H   0  0  0  0  0  0  0  0  0  0  0  0
    3.5452   -6.1666    5.0183 H   0  0  0  0  0  0  0  0  0  0  0  0
 18 19  1  0  0  0  0
 19 31  1  0  0  0  0
 19 20  2  0  0  0  0
  8  9  1  0  0  0  0
  9 17  1  0  0  0  0
  9 10  2  0  0  0  0
  1  3  1  0  0  0  0
  1  7  1  0  0  0  0
  1  2  2  0  0  0  0
 32 33  1  0  0  0  0
 33 41  1  0  0  0  0
 33 34  2  0  0  0  0
 21 22  1  0  0  0  0
 22 23  1  0  0  0  0
 18 21  1  0  0  0  0
 17 23  1  0  0  0  0
 17 18  1  0  0  0  0
  8 11  1  0  0  0  0
 32 35  1  0  0  0  0
 41 42  1  0  0  0  0
  7  8  1  0  0  0  0
 31 32  1  0  0  0  0
 22 27  1  0  0  0  0
 22 28  1  0  0  0  0
 21 25  1  0  0  0  0
 21 26  1  0  0  0  0
 23 29  1  0  0  0  0
 23 30  1  0  0  0  0
 18 24  1  0  0  0  0
  3  4  1  0  0  0  0
  3  5  1  0  0  0  0
  3  6  1  0  0  0  0
 11 14  1  0  0  0  0
 11 15  1  0  0  0  0
 11 16  1  0  0  0  0
 35 38  1  0  0  0  0
 35 39  1  0  0  0  0
 35 40  1  0  0  0  0
 42 44  1  0  0  0  0
 42 45  1  0  0  0  0
 42 46  1  0  0  0  0
  8 13  1  0  0  0  0
 32 37  1  0  0  0  0
 31 36  1  0  0  0  0
 41 43  1  0  0  0  0
  7 12  1  0  0  0  0
M  END
$$$$

  -OEChem-05262214473D

 46 46  0     1  0  0  0  0  0999 V2000
   -0.6012   -3.2995    3.8205 C   0  0  0  0  0  0  0  0  0  0  0  0
   -0.6574   -4.4683    3.4568 O   0  0  0  0  0  0  0  0  0  0  0  0
   -0.4935   -2.9859    5.2760 C   0  0  0  0  0  0  0  0  0  0  0  0
   -1.4789   -2.8689    5.7550 H   0  0  0  0  0  0  0  0  0  0  0  0
    0.0123   -3.7847    5.8419 H   0  0  0  0  0  0  0  0  0  0  0  0
    0.0585   -2.0642    5.5199 H   0  0  0  0  0  0  0  0  0  0  0  0
   -0.6261   -2.1849    2.9917 N   0  0  0  0  0  0  0  0  0  0  0  0
   -0.7237   -2.2601    1.5650 C   0  0  2  0  0  0  0  0  0  0  0  0
    0.1695   -1.1513    1.0687 C   0  0  0  0  0  0  0  0  0  0  0  0
    0.3193   -0.1267    1.7365 O   0  0  0  0  0  0  0  0  0  0  0  0
   -2.1397   -2.0663    1.0750 C   0  0  0  0  0  0  0  0  0  0  0  0
   -0.5717   -1.2606    3.4238 H   0  0  0  0  0  0  0  0  0  0  0  0
   -0.3076   -3.2111    1.2363 H   0  0  0  0  0  0  0  0  0  0  0  0
   -2.5584   -1.1089    1.4061 H   0  0  0  0  0  0  0  0  0  0  0  0
   -2.1682   -2.0790   -0.0197 H   0  0  0  0  0  0  0  0  0  0  0  0
   -2.7965   -2.8601    1.4459 H   0  0  0  0  0  0  0  0  0  0  0  0
    0.7724   -1.3745   -0.1593 N   0  0  0  0  0  0  0  0  0  0  0  0
    0.5614   -2.5964   -0.9244 C   0  0  2  0  0  0  0  0  0  0  0  0
    1.3522   -3.6795   -0.2542 C   0  0  0  0  0  0  0  0  0  0  0  0
    2.5703   -3.7074   -0.3852 O   0  0  0  0  0  0  0  0  0  0  0  0
    1.0996   -2.2806   -2.3150 C   0  0  0  0  0  0  0  0  0  0  0  0
    0.9306   -0.7638   -2.2719 C   0  0  0  0  0  0  0  0  0  0  0  0
    1.5408   -0.3981   -0.9273 C   0  0  0  0  0  0  0  0  0  0  0  0
   -0.4951   -2.8812   -0.9260 H   0  0  0  0  0  0  0  0  0  0  0  0
    0.4622   -2.7438   -3.0776 H   0  0  0  0  0  0  0  0  0  0  0  0
    2.1299   -2.6144   -2.4719 H   0  0  0  0  0  0  0  0  0  0  0  0
    1.4901   -0.2943   -3.0893 H   0  0  0  0  0  0  0  0  0  0  0  0
   -0.1174   -0.4625   -2.3564 H   0  0  0  0  0  0  0  0  0  0  0  0
    2.6264   -0.5275   -0.9080 H   0  0  0  0  0  0  0  0  0  0  0  0
    1.2988    0.6331   -0.6483 H   0  0  0  0  0  0  0  0  0  0  0  0
    0.3627   -4.5512    0.4839 N   0  0  0  0  0  0  0  0  0  0  0  0
    0.7771   -5.7603    1.1586 C   0  0  2  0  0  0  0  0  0  0  0  0
    1.9608   -5.4175    2.0535 C   0  0  0  0  0  0  0  0  0  0  0  0
    2.6822   -4.4399    1.8663 O   0  0  0  0  0  0  0  0  0  0  0  0
    1.1453   -6.8504    0.1642 C   0  0  0  0  0  0  0  0  0  0  0  0
   -0.5921   -4.2294    0.6113 H   0  0  0  0  0  0  0  0  0  0  0  0
   -0.0676   -6.0828    1.7770 H   0  0  0  0  0  0  0  0  0  0  0  0
    1.9899   -6.5454   -0.4644 H   0  0  0  0  0  0  0  0  0  0  0  0
    1.4316   -7.7748    0.6766 H   0  0  0  0  0  0  0  0  0  0  0  0
    0.3021   -7.0748   -0.4981 H   0  0  0  0  0  0  0  0  0  0  0  0
    2.1430   -6.3554    3.0600 N   0  0  0  0  0  0  0  0  0  0  0  0
    3.2077   -6.2599    4.0313 C   0  0  0  0  0  0  0  0  0  0  0  0
    1.4855   -7.1242    3.1516 H   0  0  0  0  0  0  0  0  0  0  0  0
    4.0820   -6.8239    3.6743 H   0  0  0  0  0  0  0  0  0  0  0  0
    3.4839   -5.2042    4.1697 H   0  0  0  0  0  0  0  0  0  0  0  0
    2.8678   -6.6787    4.9900 H   0  0  0  0  0  0  0  0  0  0  0  0
 18 19  1  0  0  0  0
 19 31  1  0  0  0  0
 19 20  2  0  0  0  0
  8  9  1  0  0  0  0
  9 17  1  0  0  0  0
  9 10  2  0  0  0  0
  1  3  1  0  0  0  0
  1  7  1  0  0  0  0
  1  2  2  0  0  0  0
 32 33  1  0  0  0  0
 33 41  1  0  0  0  0
 33 34  2  0  0  0  0
 21 22  1  0  0  0  0
 22 23  1  0  0  0  0
 18 21  1  0  0  0  0
 17 23  1  0  0  0  0
 17 18  1  0  0  0  0
  8 11  1  0  0  0  0
 32 35  1  0  0  0  0
 41 42  1  0  0  0  0
  7  8  1  0  0  0  0
 31 32  1  0  0  0  0
 22 27  1  0  0  0  0
 22 28  1  0  0  0  0
 21 25  1  0  0  0  0
 21 26  1  0  0  0  0
 23 29  1  0  0  0  0
 23 30  1  0  0  0  0
 18 24  1  0  0  0  0
  3  4  1  0  0  0  0
  3  5  1  0  0  0  0
  3  6  1  0  0  0  0
 11 14  1  0  0  0  0
 11 15  1  0  0  0  0
 11 16  1  0  0  0  0
 35 38  1  0  0  0  0
 35 39  1  0  0  0  0
 35 40  1  0  0  0  0
 42 44  1  0  0  0  0
 42 45  1  0  0  0  0
 42 46  1  0  0  0  0
  8 13  1  0  0  0  0
 32 37  1  0  0  0  0
 31 36  1  0  0  0  0
 41 43  1  0  0  0  0
  7 12  1  0  0  0  0
M  END
$$$$

  -OEChem-05262214473D

 46 46  0     1  0  0  0  0  0999 V2000
   -0.6012   -3.2995    3.8205 C   0  0  0  0  0  0  0  0  0  0  0  0
   -0.6574   -4.4683    3.4568 O   0  0  0  0  0  0  0  0  0  0  0  0
   -0.4935   -2.9859    5.2760 C   0  0  0  0  0  0  0  0  0  0  0  0
   -1.4789   -2.8689    5.7550 H   0  0  0  0  0  0  0  0  0  0  0  0
    0.0123   -3.7847    5.8419 H   0  0  0  0  0  0  0  0  0  0  0  0
    0.0585   -2.0642    5.5199 H   0  0  0  0  0  0  0  0  0  0  0  0
   -0.6261   -2.1849    2.9917 N   0  0  0  0  0  0  0  0  0  0  0  0
   -0.7237   -2.2601    1.5650 C   0  0  2  0  0  0  0  0  0  0  0  0
    0.1695   -1.1513    1.0687 C   0  0  0  0  0  0  0  0  0  0  0  0
    0.3193   -0.1267    1.7365 O   0  0  0  0  0  0  0  0  0  0  0  0
   -2.1397   -2.0663    1.0750 C   0  0  0  0  0  0  0  0  0  0  0  0
   -0.5717   -1.2606    3.4238 H   0  0  0  0  0  0  0  0  0  0  0  0
   -0.3076   -3.2111    1.2363 H   0  0  0  0  0  0  0  0  0  0  0  0
   -2.5584   -1.1089    1.4061 H   0  0  0  0  0  0  0  0  0  0  0  0
   -2.1682   -2.0790   -0.0197 H   0  0  0  0  0  0  0  0  0  0  0  0
   -2.7965   -2.8601    1.4459 H   0  0  0  0  0  0  0  0  0  0  0  0
    0.7724   -1.3745   -0.1593 N   0  0  0  0  0  0  0  0  0  0  0  0
    0.5614   -2.5964   -0.9244 C   0  0  2  0  0  0  0  0  0  0  0  0
    1.3522   -3.6795   -0.2542 C   0  0  0  0  0  0  0  0  0  0  0  0
    2.5673   -3.5625   -0.1476 O   0  0  0  0  0  0  0  0  0  0  0  0
    1.0996   -2.2806   -2.3150 C   0  0  0  0  0  0  0  0  0  0  0  0
    0.9306   -0.7638   -2.2719 C   0  0  0  0  0  0  0  0  0  0  0  0
    1.5408   -0.3981   -0.9273 C   0  0  0  0  0  0  0  0  0  0  0  0
   -0.4951   -2.8812   -0.9260 H   0  0  0  0  0  0  0  0  0  0  0  0
    0.4622   -2.7438   -3.0776 H   0  0  0  0  0  0  0  0  0  0  0  0
    2.1299   -2.6144   -2.4719 H   0  0  0  0  0  0  0  0  0  0  0  0
    1.4901   -0.2943   -3.0893 H   0  0  0  0  0  0  0  0  0  0  0  0
   -0.1174   -0.4625   -2.3564 H   0  0  0  0  0  0  0  0  0  0  0  0
    2.6264   -0.5275   -0.9080 H   0  0  0  0  0  0  0  0  0  0  0  0
    1.2988    0.6331   -0.6483 H   0  0  0  0  0  0  0  0  0  0  0  0
    0.3671   -4.7475    0.1614 N   0  0  0  0  0  0  0  0  0  0  0  0
    0.8062   -5.9939    0.7467 C   0  0  2  0  0  0  0  0  0  0  0  0
    1.7566   -5.6671    1.8911 C   0  0  0  0  0  0  0  0  0  0  0  0
    2.3679   -4.6037    1.9724 O   0  0  0  0  0  0  0  0  0  0  0  0
    1.4835   -6.8817   -0.2856 C   0  0  0  0  0  0  0  0  0  0  0  0
   -0.6284   -4.5479    0.1395 H   0  0  0  0  0  0  0  0  0  0  0  0
   -0.0869   -6.4892    1.1431 H   0  0  0  0  0  0  0  0  0  0  0  0
    2.3806   -6.4022   -0.6941 H   0  0  0  0  0  0  0  0  0  0  0  0
    1.7900   -7.8372    0.1527 H   0  0  0  0  0  0  0  0  0  0  0  0
    0.8085   -7.0913   -1.1224 H   0  0  0  0  0  0  0  0  0  0  0  0
    1.8748   -6.7196    2.7880 N   0  0  0  0  0  0  0  0  0  0  0  0
    2.7272   -6.6596    3.9524 C   0  0  0  0  0  0  0  0  0  0  0  0
    1.3160   -7.5569    2.6524 H   0  0  0  0  0  0  0  0  0  0  0  0
    3.7165   -7.0719    3.7049 H   0  0  0  0  0  0  0  0  0  0  0  0
    2.8361   -5.6131    4.2734 H   0  0  0  0  0  0  0  0  0  0  0  0
    2.2781   -7.2479    4.7662 H   0  0  0  0  0  0  0  0  0  0  0  0
 18 19  1  0  0  0  0
 19 31  1  0  0  0  0
 19 20  2  0  0  0  0
  8  9  1  0  0  0  0
  9 17  1  0  0  0  0
  9 10  2  0  0  0  0
  1  3  1  0  0  0  0
  1  7  1  0  0  0  0
  1  2  2  0  0  0  0
 32 33  1  0  0  0  0
 33 41  1  0  0  0  0
 33 34  2  0  0  0  0
 21 22  1  0  0  0  0
 22 23  1  0  0  0  0
 18 21  1  0  0  0  0
 17 23  1  0  0  0  0
 17 18  1  0  0  0  0
  8 11  1  0  0  0  0
 32 35  1  0  0  0  0
 41 42  1  0  0  0  0
  7  8  1  0  0  0  0
 31 32  1  0  0  0  0
 22 27  1  0  0  0  0
 22 28  1  0  0  0  0
 21 25  1  0  0  0  0
 21 26  1  0  0  0  0
 23 29  1  0  0  0  0
 23 30  1  0  0  0  0
 18 24  1  0  0  0  0
  3  4  1  0  0  0  0
  3  5  1  0  0  0  0
  3  6  1  0  0  0  0
 11 14  1  0  0  0  0
 11 15  1  0  0  0  0
 11 16  1  0  0  0  0
 35 38  1  0  0  0  0
 35 39  1  0  0  0  0
 35 40  1  0  0  0  0
 42 44  1  0  0  0  0
 42 45  1  0  0  0  0
 42 46  1  0  0  0  0
  8 13  1  0  0  0  0
 32 37  1  0  0  0  0
 31 36  1  0  0  0  0
 41 43  1  0  0  0  0
  7 12  1  0  0  0  0
M  END
$$$$

  -OEChem-05262214473D

 46 46  0     1  0  0  0  0  0999 V2000
   -0.6012   -3.2995    3.8205 C   0  0  0  0  0  0  0  0  0  0  0  0
   -0.6574   -4.4683    3.4568 O   0  0  0  0  0  0  0  0  0  0  0  0
   -0.4935   -2.9859    5.2760 C   0  0  0  0  0  0  0  0  0  0  0  0
   -1.4789   -2.8689    5.7550 H   0  0  0  0  0  0  0  0  0  0  0  0
    0.0123   -3.7847    5.8419 H   0  0  0  0  0  0  0  0  0  0  0  0
    0.0585   -2.0642    5.5199 H   0  0  0  0  0  0  0  0  0  0  0  0
   -0.6261   -2.1849    2.9917 N   0  0  0  0  0  0  0  0  0  0  0  0
   -0.7237   -2.2601    1.5650 C   0  0  2  0  0  0  0  0  0  0  0  0
    0.1695   -1.1513    1.0687 C   0  0  0  0  0  0  0  0  0  0  0  0
    0.3193   -0.1267    1.7365 O   0  0  0  0  0  0  0  0  0  0  0  0
   -2.1397   -2.0663    1.0750 C   0  0  0  0  0  0  0  0  0  0  0  0
   -0.5717   -1.2606    3.4238 H   0  0  0  0  0  0  0  0  0  0  0  0
   -0.3076   -3.2111    1.2363 H   0  0  0  0  0  0  0  0  0  0  0  0
   -2.5584   -1.1089    1.4061 H   0  0  0  0  0  0  0  0  0  0  0  0
   -2.1682   -2.0790   -0.0197 H   0  0  0  0  0  0  0  0  0  0  0  0
   -2.7965   -2.8601    1.4459 H   0  0  0  0  0  0  0  0  0  0  0  0
    0.7724   -1.3745   -0.1593 N   0  0  0  0  0  0  0  0  0  0  0  0
    0.5614   -2.5964   -0.9244 C   0  0  2  0  0  0  0  0  0  0  0  0
    1.3522   -3.6795   -0.2542 C   0  0  0  0  0  0  0  0  0  0  0  0
    2.5033   -3.4553    0.1012 O   0  0  0  0  0  0  0  0  0  0  0  0
    1.0996   -2.2806   -2.3150 C   0  0  0  0  0  0  0  0  0  0  0  0
    0.9306   -0.7638   -2.2719 C   0  0  0  0  0  0  0  0  0  0  0  0
    1.5408   -0.3981   -0.9273 C   0  0  0  0  0  0  0  0  0  0  0  0
   -0.4951   -2.8812   -0.9260 H   0  0  0  0  0  0  0  0  0  0  0  0
    0.4622   -2.7438   -3.0776 H   0  0  0  0  0  0  0  0  0  0  0  0
    2.1299   -2.6144   -2.4719 H   0  0  0  0  0  0  0  0  0  0  0  0
    1.4901   -0.2943   -3.0893 H   0  0  0  0  0  0  0  0  0  0  0  0
   -0.1174   -0.4625   -2.3564 H   0  0  0  0  0  0  0  0  0  0  0  0
    2.6264   -0.5275   -0.9080 H   0  0  0  0  0  0  0  0  0  0  0  0
    1.2988    0.6331   -0.6483 H   0  0  0  0  0  0  0  0  0  0  0  0
    0.4544   -4.8926   -0.1761 N   0  0  0  0  0  0  0  0  0  0  0  0
    0.9383   -6.1600    0.3225 C   0  0  2  0  0  0  0  0  0  0  0  0
    1.6185   -5.9097    1.6619 C   0  0  0  0  0  0  0  0  0  0  0  0
    2.0634   -4.8129    1.9938 O   0  0  0  0  0  0  0  0  0  0  0  0
    1.8980   -6.8114   -0.6611 C   0  0  0  0  0  0  0  0  0  0  0  0
   -0.5384   -4.7952   -0.3665 H   0  0  0  0  0  0  0  0  0  0  0  0
    0.0600   -6.7974    0.4716 H   0  0  0  0  0  0  0  0  0  0  0  0
    2.7844   -6.1873   -0.8233 H   0  0  0  0  0  0  0  0  0  0  0  0
    2.2415   -7.7846   -0.2949 H   0  0  0  0  0  0  0  0  0  0  0  0
    1.4162   -6.9635   -1.6330 H   0  0  0  0  0  0  0  0  0  0  0  0
    1.7088   -7.0652    2.4254 N   0  0  0  0  0  0  0  0  0  0  0  0
    2.3241   -7.0904    3.7318 C   0  0  0  0  0  0  0  0  0  0  0  0
    1.2957   -7.9263    2.0793 H   0  0  0  0  0  0  0  0  0  0  0  0
    3.3864   -7.3579    3.6322 H   0  0  0  0  0  0  0  0  0  0  0  0
    2.2382   -6.0971    4.1966 H   0  0  0  0  0  0  0  0  0  0  0  0
    1.8161   -7.8353    4.3619 H   0  0  0  0  0  0  0  0  0  0  0  0
 18 19  1  0  0  0  0
 19 31  1  0  0  0  0
 19 20  2  0  0  0  0
  8  9  1  0  0  0  0
  9 17  1  0  0  0  0
  9 10  2  0  0  0  0
  1  3  1  0  0  0  0
  1  7  1  0  0  0  0
  1  2  2  0  0  0  0
 32 33  1  0  0  0  0
 33 41  1  0  0  0  0
 33 34  2  0  0  0  0
 21 22  1  0  0  0  0
 22 23  1  0  0  0  0
 18 21  1  0  0  0  0
 17 23  1  0  0  0  0
 17 18  1  0  0  0  0
  8 11  1  0  0  0  0
 32 35  1  0  0  0  0
 41 42  1  0  0  0  0
  7  8  1  0  0  0  0
 31 32  1  0  0  0  0
 22 27  1  0  0  0  0
 22 28  1  0  0  0  0
 21 25  1  0  0  0  0
 21 26  1  0  0  0  0
 23 29  1  0  0  0  0
 23 30  1  0  0  0  0
 18 24  1  0  0  0  0
  3  4  1  0  0  0  0
  3  5  1  0  0  0  0
  3  6  1  0  0  0  0
 11 14  1  0  0  0  0
 11 15  1  0  0  0  0
 11 16  1  0  0  0  0
 35 38  1  0  0  0  0
 35 39  1  0  0  0  0
 35 40  1  0  0  0  0
 42 44  1  0  0  0  0
 42 45  1  0  0  0  0
 42 46  1  0  0  0  0
  8 13  1  0  0  0  0
 32 37  1  0  0  0  0
 31 36  1  0  0  0  0
 41 43  1  0  0  0  0
  7 12  1  0  0  0  0
M  END
$$$$

  -OEChem-05262214473D

 46 46  0     1  0  0  0  0  0999 V2000
   -0.6012   -3.2995    3.8205 C   0  0  0  0  0  0  0  0  0  0  0  0
   -0.6574   -4.4683    3.4568 O   0  0  0  0  0  0  0  0  0  0  0  0
   -0.4935   -2.9859    5.2760 C   0  0  0  0  0  0  0  0  0  0  0  0
   -1.4789   -2.8689    5.7550 H   0  0  0  0  0  0  0  0  0  0  0  0
    0.0123   -3.7847    5.8419 H   0  0  0  0  0  0  0  0  0  0  0  0
    0.0585   -2.0642    5.5199 H   0  0  0  0  0  0  0  0  0  0  0  0
   -0.6261   -2.1849    2.9917 N   0  0  0  0  0  0  0  0  0  0  0  0
   -0.7237   -2.2601    1.5650 C   0  0  2  0  0  0  0  0  0  0  0  0
    0.1695   -1.1513    1.0687 C   0  0  0  0  0  0  0  0  0  0  0  0
    0.3193   -0.1267    1.7365 O   0  0  0  0  0  0  0  0  0  0  0  0
   -2.1397   -2.0663    1.0750 C   0  0  0  0  0  0  0  0  0  0  0  0
   -0.5717   -1.2606    3.4238 H   0  0  0  0  0  0  0  0  0  0  0  0
   -0.3076   -3.2111    1.2363 H   0  0  0  0  0  0  0  0  0  0  0  0
   -2.5584   -1.1089    1.4061 H   0  0  0  0  0  0  0  0  0  0  0  0
   -2.1682   -2.0790   -0.0197 H   0  0  0  0  0  0  0  0  0  0  0  0
   -2.7965   -2.8601    1.4459 H   0  0  0  0  0  0  0  0  0  0  0  0
    0.7724   -1.3745   -0.1593 N   0  0  0  0  0  0  0  0  0  0  0  0
    0.5614   -2.5964   -0.9244 C   0  0  2  0  0  0  0  0  0  0  0  0
    1.3522   -3.6795   -0.2542 C   0  0  0  0  0  0  0  0  0  0  0  0
    2.3826   -3.3932    0.3441 O   0  0  0  0  0  0  0  0  0  0  0  0
    1.0996   -2.2806   -2.3150 C   0  0  0  0  0  0  0  0  0  0  0  0
    0.9306   -0.7638   -2.2719 C   0  0  0  0  0  0  0  0  0  0  0  0
    1.5408   -0.3981   -0.9273 C   0  0  0  0  0  0  0  0  0  0  0  0
   -0.4951   -2.8812   -0.9260 H   0  0  0  0  0  0  0  0  0  0  0  0
    0.4622   -2.7438   -3.0776 H   0  0  0  0  0  0  0  0  0  0  0  0
    2.1299   -2.6144   -2.4719 H   0  0  0  0  0  0  0  0  0  0  0  0
    1.4901   -0.2943   -3.0893 H   0  0  0  0  0  0  0  0  0  0  0  0
   -0.1174   -0.4625   -2.3564 H   0  0  0  0  0  0  0  0  0  0  0  0
    2.6264   -0.5275   -0.9080 H   0  0  0  0  0  0  0  0  0  0  0  0
    1.2988    0.6331   -0.6483 H   0  0  0  0  0  0  0  0  0  0  0  0
    0.6186   -4.9766   -0.5056 N   0  0  0  0  0  0  0  0  0  0  0  0
    1.1645   -6.2471   -0.0853 C   0  0  2  0  0  0  0  0  0  0  0  0
    1.5560   -6.1287    1.3817 C   0  0  0  0  0  0  0  0  0  0  0  0
    1.7895   -5.0530    1.9289 O   0  0  0  0  0  0  0  0  0  0  0  0
    2.3604   -6.6443   -0.9367 C   0  0  0  0  0  0  0  0  0  0  0  0
   -0.3282   -4.9547   -0.8722 H   0  0  0  0  0  0  0  0  0  0  0  0
    0.3631   -6.9864   -0.1915 H   0  0  0  0  0  0  0  0  0  0  0  0
    3.1737   -5.9154   -0.8433 H   0  0  0  0  0  0  0  0  0  0  0  0
    2.7551   -7.6203   -0.6357 H   0  0  0  0  0  0  0  0  0  0  0  0
    2.0840   -6.7000   -1.9952 H   0  0  0  0  0  0  0  0  0  0  0  0
    1.6562   -7.3688    1.9969 N   0  0  0  0  0  0  0  0  0  0  0  0
    2.0258   -7.5231    3.3845 C   0  0  0  0  0  0  0  0  0  0  0  0
    1.4260   -8.2071    1.4716 H   0  0  0  0  0  0  0  0  0  0  0  0
    3.1143   -7.6624    3.4612 H   0  0  0  0  0  0  0  0  0  0  0  0
    1.7311   -6.6234    3.9446 H   0  0  0  0  0  0  0  0  0  0  0  0
    1.5134   -8.4010    3.8049 H   0  0  0  0  0  0  0  0  0  0  0  0
 18 19  1  0  0  0  0
 19 31  1  0  0  0  0
 19 20  2  0  0  0  0
  8  9  1  0  0  0  0
  9 17  1  0  0  0  0
  9 10  2  0  0  0  0
  1  3  1  0  0  0  0
  1  7  1  0  0  0  0
  1  2  2  0  0  0  0
 32 33  1  0  0  0  0
 33 41  1  0  0  0  0
 33 34  2  0  0  0  0
 21 22  1  0  0  0  0
 22 23  1  0  0  0  0
 18 21  1  0  0  0  0
 17 23  1  0  0  0  0
 17 18  1  0  0  0  0
  8 11  1  0  0  0  0
 32 35  1  0  0  0  0
 41 42  1  0  0  0  0
  7  8  1  0  0  0  0
 31 32  1  0  0  0  0
 22 27  1  0  0  0  0
 22 28  1  0  0  0  0
 21 25  1  0  0  0  0
 21 26  1  0  0  0  0
 23 29  1  0  0  0  0
 23 30  1  0  0  0  0
 18 24  1  0  0  0  0
  3  4  1  0  0  0  0
  3  5  1  0  0  0  0
  3  6  1  0  0  0  0
 11 14  1  0  0  0  0
 11 15  1  0  0  0  0
 11 16  1  0  0  0  0
 35 38  1  0  0  0  0
 35 39  1  0  0  0  0
 35 40  1  0  0  0  0
 42 44  1  0  0  0  0
 42 45  1  0  0  0  0
 42 46  1  0  0  0  0
  8 13  1  0  0  0  0
 32 37  1  0  0  0  0
 31 36  1  0  0  0  0
 41 43  1  0  0  0  0
  7 12  1  0  0  0  0
M  END
$$$$

  -OEChem-05262214473D

 46 46  0     1  0  0  0  0  0999 V2000
   -0.6012   -3.2995    3.8205 C   0  0  0  0  0  0  0  0  0  0  0  0
   -0.6574   -4.4683    3.4568 O   0  0  0  0  0  0  0  0  0  0  0  0
   -0.4935   -2.9859    5.2760 C   0  0  0  0  0  0  0  0  0  0  0  0
   -1.4789   -2.8689    5.7550 H   0  0  0  0  0  0  0  0  0  0  0  0
    0.0123   -3.7847    5.8419 H   0  0  0  0  0  0  0  0  0  0  0  0
    0.0585   -2.0642    5.5199 H   0  0  0  0  0  0  0  0  0  0  0  0
   -0.6261   -2.1849    2.9917 N   0  0  0  0  0  0  0  0  0  0  0  0
   -0.7237   -2.2601    1.5650 C   0  0  2  0  0  0  0  0  0  0  0  0
    0.1695   -1.1513    1.0687 C   0  0  0  0  0  0  0  0  0  0  0  0
    0.3193   -0.1267    1.7365 O   0  0  0  0  0  0  0  0  0  0  0  0
   -2.1397   -2.0663    1.0750 C   0  0  0  0  0  0  0  0  0  0  0  0
   -0.5717   -1.2606    3.4238 H   0  0  0  0  0  0  0  0  0  0  0  0
   -0.3076   -3.2111    1.2363 H   0  0  0  0  0  0  0  0  0  0  0  0
   -2.5584   -1.1089    1.4061 H   0  0  0  0  0  0  0  0  0  0  0  0
   -2.1682   -2.0790   -0.0197 H   0  0  0  0  0  0  0  0  0  0  0  0
   -2.7965   -2.8601    1.4459 H   0  0  0  0  0  0  0  0  0  0  0  0
    0.7724   -1.3745   -0.1593 N   0  0  0  0  0  0  0  0  0  0  0  0
    0.5614   -2.5964   -0.9244 C   0  0  2  0  0  0  0  0  0  0  0  0
    1.3522   -3.6795   -0.2542 C   0  0  0  0  0  0  0  0  0  0  0  0
    2.2133   -3.3803    0.5647 O   0  0  0  0  0  0  0  0  0  0  0  0
    1.0996   -2.2806   -2.3150 C   0  0  0  0  0  0  0  0  0  0  0  0
    0.9306   -0.7638   -2.2719 C   0  0  0  0  0  0  0  0  0  0  0  0
    1.5408   -0.3981   -0.9273 C   0  0  0  0  0  0  0  0  0  0  0  0
   -0.4951   -2.8812   -0.9260 H   0  0  0  0  0  0  0  0  0  0  0  0
    0.4622   -2.7438   -3.0776 H   0  0  0  0  0  0  0  0  0  0  0  0
    2.1299   -2.6144   -2.4719 H   0  0  0  0  0  0  0  0  0  0  0  0
    1.4901   -0.2943   -3.0893 H   0  0  0  0  0  0  0  0  0  0  0  0
   -0.1174   -0.4625   -2.3564 H   0  0  0  0  0  0  0  0  0  0  0  0
    2.6264   -0.5275   -0.9080 H   0  0  0  0  0  0  0  0  0  0  0  0
    1.2988    0.6331   -0.6483 H   0  0  0  0  0  0  0  0  0  0  0  0
    0.8485   -4.9937   -0.8046 N   0  0  0  0  0  0  0  0  0  0  0  0
    1.4693   -6.2495   -0.4488 C   0  0  2  0  0  0  0  0  0  0  0  0
    1.5735   -6.3092    1.0694 C   0  0  0  0  0  0  0  0  0  0  0  0
    1.5648   -5.3078    1.7823 O   0  0  0  0  0  0  0  0  0  0  0  0
    2.8393   -6.3918   -1.0936 C   0  0  0  0  0  0  0  0  0  0  0  0
   -0.0122   -5.0153   -1.3431 H   0  0  0  0  0  0  0  0  0  0  0  0
    0.8017   -7.0433   -0.8012 H   0  0  0  0  0  0  0  0  0  0  0  0
    3.5220   -5.6050   -0.7526 H   0  0  0  0  0  0  0  0  0  0  0  0
    3.2960   -7.3558   -0.8463 H   0  0  0  0  0  0  0  0  0  0  0  0
    2.7662   -6.3188   -2.1841 H   0  0  0  0  0  0  0  0  0  0  0  0
    1.7206   -7.6095    1.5317 N   0  0  0  0  0  0  0  0  0  0  0  0
    1.8527   -7.9281    2.9342 C   0  0  0  0  0  0  0  0  0  0  0  0
    1.6980   -8.3804    0.8707 H   0  0  0  0  0  0  0  0  0  0  0  0
    2.9186   -7.9647    3.2036 H   0  0  0  0  0  0  0  0  0  0  0  0
    1.3492   -7.1560    3.5345 H   0  0  0  0  0  0  0  0  0  0  0  0
    1.3907   -8.9063    3.1330 H   0  0  0  0  0  0  0  0  0  0  0  0
 18 19  1  0  0  0  0
 19 31  1  0  0  0  0
 19 20  2  0  0  0  0
  8  9  1  0  0  0  0
  9 17  1  0  0  0  0
  9 10  2  0  0  0  0
  1  3  1  0  0  0  0
  1  7  1  0  0  0  0
  1  2  2  0  0  0  0
 32 33  1  0  0  0  0
 33 41  1  0  0  0  0
 33 34  2  0  0  0  0
 21 22  1  0  0  0  0
 22 23  1  0  0  0  0
 18 21  1  0  0  0  0
 17 23  1  0  0  0  0
 17 18  1  0  0  0  0
  8 11  1  0  0  0  0
 32 35  1  0  0  0  0
 41 42  1  0  0  0  0
  7  8  1  0  0  0  0
 31 32  1  0  0  0  0
 22 27  1  0  0  0  0
 22 28  1  0  0  0  0
 21 25  1  0  0  0  0
 21 26  1  0  0  0  0
 23 29  1  0  0  0  0
 23 30  1  0  0  0  0
 18 24  1  0  0  0  0
  3  4  1  0  0  0  0
  3  5  1  0  0  0  0
  3  6  1  0  0  0  0
 11 14  1  0  0  0  0
 11 15  1  0  0  0  0
 11 16  1  0  0  0  0
 35 38  1  0  0  0  0
 35 39  1  0  0  0  0
 35 40  1  0  0  0  0
 42 44  1  0  0  0  0
 42 45  1  0  0  0  0
 42 46  1  0  0  0  0
  8 13  1  0  0  0  0
 32 37  1  0  0  0  0
 31 36  1  0  0  0  0
 41 43  1  0  0  0  0
  7 12  1  0  0  0  0
M  END
$$$$

  -OEChem-05262214473D

 46 46  0     1  0  0  0  0  0999 V2000
   -0.6012   -3.2995    3.8205 C   0  0  0  0  0  0  0  0  0  0  0  0
   -0.6574   -4.4683    3.4568 O   0  0  0  0  0  0  0  0  0  0  0  0
   -0.4935   -2.9859    5.2760 C   0  0  0  0  0  0  0  0  0  0  0  0
   -1.4789   -2.8689    5.7550 H   0  0  0  0  0  0  0  0  0  0  0  0
    0.0123   -3.7847    5.8419 H   0  0  0  0  0  0  0  0  0  0  0  0
    0.0585   -2.0642    5.5199 H   0  0  0  0  0  0  0  0  0  0  0  0
   -0.6261   -2.1849    2.9917 N   0  0  0  0  0  0  0  0  0  0  0  0
   -0.7237   -2.2601    1.5650 C   0  0  2  0  0  0  0  0  0  0  0  0
    0.1695   -1.1513    1.0687 C   0  0  0  0  0  0  0  0  0  0  0  0
    0.3193   -0.1267    1.7365 O   0  0  0  0  0  0  0  0  0  0  0  0
   -2.1397   -2.0663    1.0750 C   0  0  0  0  0  0  0  0  0  0  0  0
   -0.5717   -1.2606    3.4238 H   0  0  0  0  0  0  0  0  0  0  0  0
   -0.3076   -3.2111    1.2363 H   0  0  0  0  0  0  0  0  0  0  0  0
   -2.5584   -1.1089    1.4061 H   0  0  0  0  0  0  0  0  0  0  0  0
   -2.1682   -2.0790   -0.0197 H   0  0  0  0  0  0  0  0  0  0  0  0
   -2.7965   -2.8601    1.4459 H   0  0  0  0  0  0  0  0  0  0  0  0
    0.7724   -1.3745   -0.1593 N   0  0  0  0  0  0  0  0  0  0  0  0
    0.5614   -2.5964   -0.9244 C   0  0  2  0  0  0  0  0  0  0  0  0
    1.0304   -3.7375   -0.0727 C   0  0  0  0  0  0  0  0  0  0  0  0
    1.4853   -3.5119    1.0426 O   0  0  0  0  0  0  0  0  0  0  0  0
    1.4241   -2.4277   -2.1696 C   0  0  0  0  0  0  0  0  0  0  0  0
    1.5724   -0.9196   -2.3560 C   0  0  0  0  0  0  0  0  0  0  0  0
    1.5408   -0.3981   -0.9273 C   0  0  0  0  0  0  0  0  0  0  0  0
   -0.4994   -2.7392   -1.1516 H   0  0  0  0  0  0  0  0  0  0  0  0
    0.9067   -2.8423   -3.0430 H   0  0  0  0  0  0  0  0  0  0  0  0
    2.4070   -2.9021   -2.0888 H   0  0  0  0  0  0  0  0  0  0  0  0
    2.5335   -0.6864   -2.8287 H   0  0  0  0  0  0  0  0  0  0  0  0
    0.7747   -0.4997   -2.9754 H   0  0  0  0  0  0  0  0  0  0  0  0
    2.5402   -0.2801   -0.4996 H   0  0  0  0  0  0  0  0  0  0  0  0
    1.0101    0.5581   -0.8649 H   0  0  0  0  0  0  0  0  0  0  0  0
    0.8386   -4.9947   -0.8004 N   0  0  0  0  0  0  0  0  0  0  0  0
    1.4559   -6.2524   -0.4453 C   0  0  2  0  0  0  0  0  0  0  0  0
    1.5688   -6.3088    1.0725 C   0  0  0  0  0  0  0  0  0  0  0  0
    1.5689   -5.3056    1.7829 O   0  0  0  0  0  0  0  0  0  0  0  0
    2.8213   -6.4023   -1.0979 C   0  0  0  0  0  0  0  0  0  0  0  0
   -0.0255   -5.0138   -1.3337 H   0  0  0  0  0  0  0  0  0  0  0  0
    0.7827   -7.0441   -0.7917 H   0  0  0  0  0  0  0  0  0  0  0  0
    3.5096   -5.6178   -0.7629 H   0  0  0  0  0  0  0  0  0  0  0  0
    3.2752   -7.3677   -0.8509 H   0  0  0  0  0  0  0  0  0  0  0  0
    2.7421   -6.3317   -2.1881 H   0  0  0  0  0  0  0  0  0  0  0  0
    1.7130   -7.6087    1.5371 N   0  0  0  0  0  0  0  0  0  0  0  0
    1.8520   -7.9244    2.9396 C   0  0  0  0  0  0  0  0  0  0  0  0
    1.6830   -8.3810    0.8781 H   0  0  0  0  0  0  0  0  0  0  0  0
    2.9193   -7.9650    3.2027 H   0  0  0  0  0  0  0  0  0  0  0  0
    1.3555   -7.1486    3.5409 H   0  0  0  0  0  0  0  0  0  0  0  0
    1.3868   -8.9001    3.1435 H   0  0  0  0  0  0  0  0  0  0  0  0
 18 19  1  0  0  0  0
 19 31  1  0  0  0  0
 19 20  2  0  0  0  0
  8  9  1  0  0  0  0
  9 17  1  0  0  0  0
  9 10  2  0  0  0  0
  1  3  1  0  0  0  0
  1  7  1  0  0  0  0
  1  2  2  0  0  0  0
 32 33  1  0  0  0  0
 33 41  1  0  0  0  0
 33 34  2  0  0  0  0
 21 22  1  0  0  0  0
 22 23  1  0  0  0  0
 18 21  1  0  0  0  0
 17 23  1  0  0  0  0
 17 18  1  0  0  0  0
  8 11  1  0  0  0  0
 32 35  1  0  0  0  0
 41 42  1  0  0  0  0
  7  8  1  0  0  0  0
 31 32  1  0  0  0  0
 22 27  1  0  0  0  0
 22 28  1  0  0  0  0
 21 25  1  0  0  0  0
 21 26  1  0  0  0  0
 23 29  1  0  0  0  0
 23 30  1  0  0  0  0
 18 24  1  0  0  0  0
  3  4  1  0  0  0  0
  3  5  1  0  0  0  0
  3  6  1  0  0  0  0
 11 14  1  0  0  0  0
 11 15  1  0  0  0  0
 11 16  1  0  0  0  0
 35 38  1  0  0  0  0
 35 39  1  0  0  0  0
 35 40  1  0  0  0  0
 42 44  1  0  0  0  0
 42 45  1  0  0  0  0
 42 46  1  0  0  0  0
  8 13  1  0  0  0  0
 32 37  1  0  0  0  0
 31 36  1  0  0  0  0
 41 43  1  0  0  0  0
  7 12  1  0  0  0  0
M  END
$$$$

  -OEChem-05262214473D

 46 46  0     1  0  0  0  0  0999 V2000
   -0.6012   -3.2995    3.8205 C   0  0  0  0  0  0  0  0  0  0  0  0
   -0.6574   -4.4683    3.4568 O   0  0  0  0  0  0  0  0  0  0  0  0
   -0.4935   -2.9859    5.2760 C   0  0  0  0  0  0  0  0  0  0  0  0
   -1.4789   -2.8689    5.7550 H   0  0  0  0  0  0  0  0  0  0  0  0
    0.0123   -3.7847    5.8419 H   0  0  0  0  0  0  0  0  0  0  0  0
    0.0585   -2.0642    5.5199 H   0  0  0  0  0  0  0  0  0  0  0  0
   -0.6261   -2.1849    2.9917 N   0  0  0  0  0  0  0  0  0  0  0  0
   -0.7237   -2.2601    1.5650 C   0  0  2  0  0  0  0  0  0  0  0  0
    0.1695   -1.1513    1.0687 C   0  0  0  0  0  0  0  0  0  0  0  0
    0.3193   -0.1267    1.7365 O   0  0  0  0  0  0  0  0  0  0  0  0
   -2.1397   -2.0663    1.0750 C   0  0  0  0  0  0  0  0  0  0  0  0
   -0.5717   -1.2606    3.4238 H   0  0  0  0  0  0  0  0  0  0  0  0
   -0.3076   -3.2111    1.2363 H   0  0  0  0  0  0  0  0  0  0  0  0
   -2.5584   -1.1089    1.4061 H   0  0  0  0  0  0  0  0  0  0  0  0
   -2.1682   -2.0790   -0.0197 H   0  0  0  0  0  0  0  0  0  0  0  0
   -2.7965   -2.8601    1.4459 H   0  0  0  0  0  0  0  0  0  0  0  0
    0.7724   -1.3745   -0.1593 N   0  0  0  0  0  0  0  0  0  0  0  0
    0.5614   -2.5964   -0.9244 C   0  0  2  0  0  0  0  0  0  0  0  0
    1.0304   -3.7375   -0.0727 C   0  0  0  0  0  0  0  0  0  0  0  0
    1.2233   -3.5587    1.1241 O   0  0  0  0  0  0  0  0  0  0  0  0
    1.4241   -2.4277   -2.1696 C   0  0  0  0  0  0  0  0  0  0  0  0
    1.5724   -0.9196   -2.3560 C   0  0  0  0  0  0  0  0  0  0  0  0
    1.5408   -0.3981   -0.9273 C   0  0  0  0  0  0  0  0  0  0  0  0
   -0.4994   -2.7392   -1.1516 H   0  0  0  0  0  0  0  0  0  0  0  0
    0.9067   -2.8423   -3.0430 H   0  0  0  0  0  0  0  0  0  0  0  0
    2.4070   -2.9021   -2.0888 H   0  0  0  0  0  0  0  0  0  0  0  0
    2.5335   -0.6864   -2.8287 H   0  0  0  0  0  0  0  0  0  0  0  0
    0.7747   -0.4997   -2.9754 H   0  0  0  0  0  0  0  0  0  0  0  0
    2.5402   -0.2801   -0.4996 H   0  0  0  0  0  0  0  0  0  0  0  0
    1.0101    0.5581   -0.8649 H   0  0  0  0  0  0  0  0  0  0  0  0
    1.1785   -4.9336   -0.9058 N   0  0  0  0  0  0  0  0  0  0  0  0
    1.9041   -6.1215   -0.5168 C   0  0  2  0  0  0  0  0  0  0  0  0
    1.7325   -6.3068    0.9851 C   0  0  0  0  0  0  0  0  0  0  0  0
    1.4413   -5.3860    1.7456 O   0  0  0  0  0  0  0  0  0  0  0  0
    3.3754   -6.0172   -0.8871 C   0  0  0  0  0  0  0  0  0  0  0  0
    0.4458   -5.0215   -1.6036 H   0  0  0  0  0  0  0  0  0  0  0  0
    1.4406   -6.9623   -1.0444 H   0  0  0  0  0  0  0  0  0  0  0  0
    3.8569   -5.1804   -0.3681 H   0  0  0  0  0  0  0  0  0  0  0  0
    3.9180   -6.9294   -0.6176 H   0  0  0  0  0  0  0  0  0  0  0  0
    3.4959   -5.8542   -1.9635 H   0  0  0  0  0  0  0  0  0  0  0  0
    1.9852   -7.6124    1.3821 N   0  0  0  0  0  0  0  0  0  0  0  0
    1.9011   -8.0385    2.7596 C   0  0  0  0  0  0  0  0  0  0  0  0
    2.2018   -8.3148    0.6811 H   0  0  0  0  0  0  0  0  0  0  0  0
    2.8917   -7.9555    3.2307 H   0  0  0  0  0  0  0  0  0  0  0  0
    1.1847   -7.4004    3.2976 H   0  0  0  0  0  0  0  0  0  0  0  0
    1.5627   -9.0844    2.7997 H   0  0  0  0  0  0  0  0  0  0  0  0
 18 19  1  0  0  0  0
 19 31  1  0  0  0  0
 19 20  2  0  0  0  0
  8  9  1  0  0  0  0
  9 17  1  0  0  0  0
  9 10  2  0  0  0  0
  1  3  1  0  0  0  0
  1  7  1  0  0  0  0
  1  2  2  0  0  0  0
 32 33  1  0  0  0  0
 33 41  1  0  0  0  0
 33 34  2  0  0  0  0
 21 22  1  0  0  0  0
 22 23  1  0  0  0  0
 18 21  1  0  0  0  0
 17 23  1  0  0  0  0
 17 18  1  0  0  0  0
  8 11  1  0  0  0  0
 32 35  1  0  0  0  0
 41 42  1  0  0  0  0
  7  8  1  0  0  0  0
 31 32  1  0  0  0  0
 22 27  1  0  0  0  0
 22 28  1  0  0  0  0
 21 25  1  0  0  0  0
 21 26  1  0  0  0  0
 23 29  1  0  0  0  0
 23 30  1  0  0  0  0
 18 24  1  0  0  0  0
  3  4  1  0  0  0  0
  3  5  1  0  0  0  0
  3  6  1  0  0  0  0
 11 14  1  0  0  0  0
 11 15  1  0  0  0  0
 11 16  1  0  0  0  0
 35 38  1  0  0  0  0
 35 39  1  0  0  0  0
 35 40  1  0  0  0  0
 42 44  1  0  0  0  0
 42 45  1  0  0  0  0
 42 46  1  0  0  0  0
  8 13  1  0  0  0  0
 32 37  1  0  0  0  0
 31 36  1  0  0  0  0
 41 43  1  0  0  0  0
  7 12  1  0  0  0  0
M  END
$$$$

  -OEChem-05262214473D

 46 46  0     1  0  0  0  0  0999 V2000
   -0.6012   -3.2995    3.8205 C   0  0  0  0  0  0  0  0  0  0  0  0
   -0.6574   -4.4683    3.4568 O   0  0  0  0  0  0  0  0  0  0  0  0
   -0.4935   -2.9859    5.2760 C   0  0  0  0  0  0  0  0  0  0  0  0
   -1.4789   -2.8689    5.7550 H   0  0  0  0  0  0  0  0  0  0  0  0
    0.0123   -3.7847    5.8419 H   0  0  0  0  0  0  0  0  0  0  0  0
    0.0585   -2.0642    5.5199 H   0  0  0  0  0  0  0  0  0  0  0  0
   -0.6261   -2.1849    2.9917 N   0  0  0  0  0  0  0  0  0  0  0  0
   -0.7237   -2.2601    1.5650 C   0  0  2  0  0  0  0  0  0  0  0  0
    0.1695   -1.1513    1.0687 C   0  0  0  0  0  0  0  0  0  0  0  0
    0.3193   -0.1267    1.7365 O   0  0  0  0  0  0  0  0  0  0  0  0
   -2.1397   -2.0663    1.0750 C   0  0  0  0  0  0  0  0  0  0  0  0
   -0.5717   -1.2606    3.4238 H   0  0  0  0  0  0  0  0  0  0  0  0
   -0.3076   -3.2111    1.2363 H   0  0  0  0  0  0  0  0  0  0  0  0
   -2.5584   -1.1089    1.4061 H   0  0  0  0  0  0  0  0  0  0  0  0
   -2.1682   -2.0790   -0.0197 H   0  0  0  0  0  0  0  0  0  0  0  0
   -2.7965   -2.8601    1.4459 H   0  0  0  0  0  0  0  0  0  0  0  0
    0.7724   -1.3745   -0.1593 N   0  0  0  0  0  0  0  0  0  0  0  0
    0.5614   -2.5964   -0.9244 C   0  0  2  0  0  0  0  0  0  0  0  0
    1.0304   -3.7375   -0.0727 C   0  0  0  0  0  0  0  0  0  0  0  0
    0.9611   -3.6491    1.1475 O   0  0  0  0  0  0  0  0  0  0  0  0
    1.4241   -2.4277   -2.1696 C   0  0  0  0  0  0  0  0  0  0  0  0
    1.5724   -0.9196   -2.3560 C   0  0  0  0  0  0  0  0  0  0  0  0
    1.5408   -0.3981   -0.9273 C   0  0  0  0  0  0  0  0  0  0  0  0
   -0.4994   -2.7392   -1.1516 H   0  0  0  0  0  0  0  0  0  0  0  0
    0.9067   -2.8423   -3.0430 H   0  0  0  0  0  0  0  0  0  0  0  0
    2.4070   -2.9021   -2.0888 H   0  0  0  0  0  0  0  0  0  0  0  0
    2.5335   -0.6864   -2.8287 H   0  0  0  0  0  0  0  0  0  0  0  0
    0.7747   -0.4997   -2.9754 H   0  0  0  0  0  0  0  0  0  0  0  0
    2.5402   -0.2801   -0.4996 H   0  0  0  0  0  0  0  0  0  0  0  0
    1.0101    0.5581   -0.8649 H   0  0  0  0  0  0  0  0  0  0  0  0
    1.5186   -4.8162   -0.9358 N   0  0  0  0  0  0  0  0  0  0  0  0
    2.3319   -5.9235   -0.4871 C   0  0  2  0  0  0  0  0  0  0  0  0
    1.9076   -6.2737    0.9330 C   0  0  0  0  0  0  0  0  0  0  0  0
    1.3372   -5.4793    1.6778 O   0  0  0  0  0  0  0  0  0  0  0  0
    3.8125   -5.5808   -0.5431 C   0  0  0  0  0  0  0  0  0  0  0  0
    0.9552   -4.9378   -1.7720 H   0  0  0  0  0  0  0  0  0  0  0  0
    2.1138   -6.7661   -1.1523 H   0  0  0  0  0  0  0  0  0  0  0  0
    4.0502   -4.7388    0.1171 H   0  0  0  0  0  0  0  0  0  0  0  0
    4.4285   -6.4303   -0.2301 H   0  0  0  0  0  0  0  0  0  0  0  0
    4.1095   -5.3004   -1.5594 H   0  0  0  0  0  0  0  0  0  0  0  0
    2.2792   -7.5635    1.2857 N   0  0  0  0  0  0  0  0  0  0  0  0
    2.0008   -8.1270    2.5861 C   0  0  0  0  0  0  0  0  0  0  0  0
    2.7320   -8.1587    0.5983 H   0  0  0  0  0  0  0  0  0  0  0  0
    2.8581   -7.9527    3.2530 H   0  0  0  0  0  0  0  0  0  0  0  0
    1.1047   -7.6490    3.0085 H   0  0  0  0  0  0  0  0  0  0  0  0
    1.8274   -9.2087    2.4873 H   0  0  0  0  0  0  0  0  0  0  0  0
 18 19  1  0  0  0  0
 19 31  1  0  0  0  0
 19 20  2  0  0  0  0
  8  9  1  0  0  0  0
  9 17  1  0  0  0  0
  9 10  2  0  0  0  0
  1  3  1  0  0  0  0
  1  7  1  0  0  0  0
  1  2  2  0  0  0  0
 32 33  1  0  0  0  0
 33 41  1  0  0  0  0
 33 34  2  0  0  0  0
 21 22  1  0  0  0  0
 22 23  1  0  0  0  0
 18 21  1  0  0  0  0
 17 23  1  0  0  0  0
 17 18  1  0  0  0  0
  8 11  1  0  0  0  0
 32 35  1  0  0  0  0
 41 42  1  0  0  0  0
  7  8  1  0  0  0  0
 31 32  1  0  0  0  0
 22 27  1  0  0  0  0
 22 28  1  0  0  0  0
 21 25  1  0  0  0  0
 21 26  1  0  0  0  0
 23 29  1  0  0  0  0
 23 30  1  0  0  0  0
 18 24  1  0  0  0  0
  3  4  1  0  0  0  0
  3  5  1  0  0  0  0
  3  6  1  0  0  0  0
 11 14  1  0  0  0  0
 11 15  1  0  0  0  0
 11 16  1  0  0  0  0
 35 38  1  0  0  0  0
 35 39  1  0  0  0  0
 35 40  1  0  0  0  0
 42 44  1  0  0  0  0
 42 45  1  0  0  0  0
 42 46  1  0  0  0  0
  8 13  1  0  0  0  0
 32 37  1  0  0  0  0
 31 36  1  0  0  0  0
 41 43  1  0  0  0  0
  7 12  1  0  0  0  0
M  END
$$$$

  -OEChem-05262214473D

 46 46  0     1  0  0  0  0  0999 V2000
   -0.6012   -3.2995    3.8205 C   0  0  0  0  0  0  0  0  0  0  0  0
   -0.6574   -4.4683    3.4568 O   0  0  0  0  0  0  0  0  0  0  0  0
   -0.4935   -2.9859    5.2760 C   0  0  0  0  0  0  0  0  0  0  0  0
   -1.4789   -2.8689    5.7550 H   0  0  0  0  0  0  0  0  0  0  0  0
    0.0123   -3.7847    5.8419 H   0  0  0  0  0  0  0  0  0  0  0  0
    0.0585   -2.0642    5.5199 H   0  0  0  0  0  0  0  0  0  0  0  0
   -0.6261   -2.1849    2.9917 N   0  0  0  0  0  0  0  0  0  0  0  0
   -0.7237   -2.2601    1.5650 C   0  0  2  0  0  0  0  0  0  0  0  0
    0.1695   -1.1513    1.0687 C   0  0  0  0  0  0  0  0  0  0  0  0
    0.3193   -0.1267    1.7365 O   0  0  0  0  0  0  0  0  0  0  0  0
   -2.1397   -2.0663    1.0750 C   0  0  0  0  0  0  0  0  0  0  0  0
   -0.5717   -1.2606    3.4238 H   0  0  0  0  0  0  0  0  0  0  0  0
   -0.3076   -3.2111    1.2363 H   0  0  0  0  0  0  0  0  0  0  0  0
   -2.5584   -1.1089    1.4061 H   0  0  0  0  0  0  0  0  0  0  0  0
   -2.1682   -2.0790   -0.0197 H   0  0  0  0  0  0  0  0  0  0  0  0
   -2.7965   -2.8601    1.4459 H   0  0  0  0  0  0  0  0  0  0  0  0
    0.7724   -1.3745   -0.1593 N   0  0  0  0  0  0  0  0  0  0  0  0
    0.5614   -2.5964   -0.9244 C   0  0  2  0  0  0  0  0  0  0  0  0
    1.0304   -3.7375   -0.0727 C   0  0  0  0  0  0  0  0  0  0  0  0
    0.7165   -3.7767    1.1112 O   0  0  0  0  0  0  0  0  0  0  0  0
    1.4241   -2.4277   -2.1696 C   0  0  0  0  0  0  0  0  0  0  0  0
    1.5724   -0.9196   -2.3560 C   0  0  0  0  0  0  0  0  0  0  0  0
    1.5408   -0.3981   -0.9273 C   0  0  0  0  0  0  0  0  0  0  0  0
   -0.4994   -2.7392   -1.1516 H   0  0  0  0  0  0  0  0  0  0  0  0
    0.9067   -2.8423   -3.0430 H   0  0  0  0  0  0  0  0  0  0  0  0
    2.4070   -2.9021   -2.0888 H   0  0  0  0  0  0  0  0  0  0  0  0
    2.5335   -0.6864   -2.8287 H   0  0  0  0  0  0  0  0  0  0  0  0
    0.7747   -0.4997   -2.9754 H   0  0  0  0  0  0  0  0  0  0  0  0
    2.5402   -0.2801   -0.4996 H   0  0  0  0  0  0  0  0  0  0  0  0
    1.0101    0.5581   -0.8649 H   0  0  0  0  0  0  0  0  0  0  0  0
    1.8357   -4.6503   -0.8882 N   0  0  0  0  0  0  0  0  0  0  0  0
    2.7102   -5.6717   -0.3580 C   0  0  2  0  0  0  0  0  0  0  0  0
    2.0820   -6.2117    0.9199 C   0  0  0  0  0  0  0  0  0  0  0  0
    1.2637   -5.5793    1.5843 O   0  0  0  0  0  0  0  0  0  0  0  0
    4.1028   -5.1229   -0.0894 C   0  0  0  0  0  0  0  0  0  0  0  0
    1.4682   -4.7684   -1.8275 H   0  0  0  0  0  0  0  0  0  0  0  0
    2.7565   -6.4688   -1.1080 H   0  0  0  0  0  0  0  0  0  0  0  0
    4.0765   -4.3231    0.6596 H   0  0  0  0  0  0  0  0  0  0  0  0
    4.7719   -5.9046    0.2852 H   0  0  0  0  0  0  0  0  0  0  0  0
    4.5412   -4.7080   -1.0034 H   0  0  0  0  0  0  0  0  0  0  0  0
    2.5750   -7.4652    1.2545 N   0  0  0  0  0  0  0  0  0  0  0  0
    2.1443   -8.1838    2.4310 C   0  0  0  0  0  0  0  0  0  0  0  0
    3.2374   -7.9232    0.6355 H   0  0  0  0  0  0  0  0  0  0  0  0
    2.8208   -7.9567    3.2681 H   0  0  0  0  0  0  0  0  0  0  0  0
    1.1209   -7.8775    2.6934 H   0  0  0  0  0  0  0  0  0  0  0  0
    2.1629   -9.2646    2.2276 H   0  0  0  0  0  0  0  0  0  0  0  0
 18 19  1  0  0  0  0
 19 31  1  0  0  0  0
 19 20  2  0  0  0  0
  8  9  1  0  0  0  0
  9 17  1  0  0  0  0
  9 10  2  0  0  0  0
  1  3  1  0  0  0  0
  1  7  1  0  0  0  0
  1  2  2  0  0  0  0
 32 33  1  0  0  0  0
 33 41  1  0  0  0  0
 33 34  2  0  0  0  0
 21 22  1  0  0  0  0
 22 23  1  0  0  0  0
 18 21  1  0  0  0  0
 17 23  1  0  0  0  0
 17 18  1  0  0  0  0
  8 11  1  0  0  0  0
 32 35  1  0  0  0  0
 41 42  1  0  0  0  0
  7  8  1  0  0  0  0
 31 32  1  0  0  0  0
 22 27  1  0  0  0  0
 22 28  1  0  0  0  0
 21 25  1  0  0  0  0
 21 26  1  0  0  0  0
 23 29  1  0  0  0  0
 23 30  1  0  0  0  0
 18 24  1  0  0  0  0
  3  4  1  0  0  0  0
  3  5  1  0  0  0  0
  3  6  1  0  0  0  0
 11 14  1  0  0  0  0
 11 15  1  0  0  0  0
 11 16  1  0  0  0  0
 35 38  1  0  0  0  0
 35 39  1  0  0  0  0
 35 40  1  0  0  0  0
 42 44  1  0  0  0  0
 42 45  1  0  0  0  0
 42 46  1  0  0  0  0
  8 13  1  0  0  0  0
 32 37  1  0  0  0  0
 31 36  1  0  0  0  0
 41 43  1  0  0  0  0
  7 12  1  0  0  0  0
M  END
$$$$

  -OEChem-05262214473D

 46 46  0     1  0  0  0  0  0999 V2000
   -0.6012   -3.2995    3.8205 C   0  0  0  0  0  0  0  0  0  0  0  0
   -0.6574   -4.4683    3.4568 O   0  0  0  0  0  0  0  0  0  0  0  0
   -0.4935   -2.9859    5.2760 C   0  0  0  0  0  0  0  0  0  0  0  0
   -1.4789   -2.8689    5.7550 H   0  0  0  0  0  0  0  0  0  0  0  0
    0.0123   -3.7847    5.8419 H   0  0  0  0  0  0  0  0  0  0  0  0
    0.0585   -2.0642    5.5199 H   0  0  0  0  0  0  0  0  0  0  0  0
   -0.6261   -2.1849    2.9917 N   0  0  0  0  0  0  0  0  0  0  0  0
   -0.7237   -2.2601    1.5650 C   0  0  2  0  0  0  0  0  0  0  0  0
    0.1695   -1.1513    1.0687 C   0  0  0  0  0  0  0  0  0  0  0  0
    0.3193   -0.1267    1.7365 O   0  0  0  0  0  0  0  0  0  0  0  0
   -2.1397   -2.0663    1.0750 C   0  0  0  0  0  0  0  0  0  0  0  0
   -0.5717   -1.2606    3.4238 H   0  0  0  0  0  0  0  0  0  0  0  0
   -0.3076   -3.2111    1.2363 H   0  0  0  0  0  0  0  0  0  0  0  0
   -2.5584   -1.1089    1.4061 H   0  0  0  0  0  0  0  0  0  0  0  0
   -2.1682   -2.0790   -0.0197 H   0  0  0  0  0  0  0  0  0  0  0  0
   -2.7965   -2.8601    1.4459 H   0  0  0  0  0  0  0  0  0  0  0  0
    0.7724   -1.3745   -0.1593 N   0  0  0  0  0  0  0  0  0  0  0  0
    0.5614   -2.5964   -0.9244 C   0  0  2  0  0  0  0  0  0  0  0  0
    1.0304   -3.7375   -0.0727 C   0  0  0  0  0  0  0  0  0  0  0  0
    0.5062   -3.9331    1.0175 O   0  0  0  0  0  0  0  0  0  0  0  0
    1.4241   -2.4277   -2.1696 C   0  0  0  0  0  0  0  0  0  0  0  0
    1.5724   -0.9196   -2.3560 C   0  0  0  0  0  0  0  0  0  0  0  0
    1.5408   -0.3981   -0.9273 C   0  0  0  0  0  0  0  0  0  0  0  0
   -0.4994   -2.7392   -1.1516 H   0  0  0  0  0  0  0  0  0  0  0  0
    0.9067   -2.8423   -3.0430 H   0  0  0  0  0  0  0  0  0  0  0  0
    2.4070   -2.9021   -2.0888 H   0  0  0  0  0  0  0  0  0  0  0  0
    2.5335   -0.6864   -2.8287 H   0  0  0  0  0  0  0  0  0  0  0  0
    0.7747   -0.4997   -2.9754 H   0  0  0  0  0  0  0  0  0  0  0  0
    2.5402   -0.2801   -0.4996 H   0  0  0  0  0  0  0  0  0  0  0  0
    1.0101    0.5581   -0.8649 H   0  0  0  0  0  0  0  0  0  0  0  0
    2.1083   -4.4473   -0.7663 N   0  0  0  0  0  0  0  0  0  0  0  0
    3.0131   -5.3833   -0.1385 C   0  0  2  0  0  0  0  0  0  0  0  0
    2.2440   -6.1252    0.9467 C   0  0  0  0  0  0  0  0  0  0  0  0
    1.2259   -5.6791    1.4715 O   0  0  0  0  0  0  0  0  0  0  0  0
    4.2265   -4.6747    0.4431 C   0  0  0  0  0  0  0  0  0  0  0  0
    1.9498   -4.5248   -1.7664 H   0  0  0  0  0  0  0  0  0  0  0  0
    3.3249   -6.0908   -0.9145 H   0  0  0  0  0  0  0  0  0  0  0  0
    3.9339   -3.9616    1.2225 H   0  0  0  0  0  0  0  0  0  0  0  0
    4.9247   -5.3881    0.8932 H   0  0  0  0  0  0  0  0  0  0  0  0
    4.7616   -4.1173   -0.3333 H   0  0  0  0  0  0  0  0  0  0  0  0
    2.8524   -7.3242    1.2906 N   0  0  0  0  0  0  0  0  0  0  0  0
    2.3218   -8.2049    2.3049 C   0  0  0  0  0  0  0  0  0  0  0  0
    3.6838   -7.6244    0.7901 H   0  0  0  0  0  0  0  0  0  0  0  0
    2.7824   -7.9673    3.2751 H   0  0  0  0  0  0  0  0  0  0  0  0
    1.2322   -8.0704    2.3737 H   0  0  0  0  0  0  0  0  0  0  0  0
    2.5463   -9.2483    2.0384 H   0  0  0  0  0  0  0  0  0  0  0  0
 18 19  1  0  0  0  0
 19 31  1  0  0  0  0
 19 20  2  0  0  0  0
  8  9  1  0  0  0  0
  9 17  1  0  0  0  0
  9 10  2  0  0  0  0
  1  3  1  0  0  0  0
  1  7  1  0  0  0  0
  1  2  2  0  0  0  0
 32 33  1  0  0  0  0
 33 41  1  0  0  0  0
 33 34  2  0  0  0  0
 21 22  1  0  0  0  0
 22 23  1  0  0  0  0
 18 21  1  0  0  0  0
 17 23  1  0  0  0  0
 17 18  1  0  0  0  0
  8 11  1  0  0  0  0
 32 35  1  0  0  0  0
 41 42  1  0  0  0  0
  7  8  1  0  0  0  0
 31 32  1  0  0  0  0
 22 27  1  0  0  0  0
 22 28  1  0  0  0  0
 21 25  1  0  0  0  0
 21 26  1  0  0  0  0
 23 29  1  0  0  0  0
 23 30  1  0  0  0  0
 18 24  1  0  0  0  0
  3  4  1  0  0  0  0
  3  5  1  0  0  0  0
  3  6  1  0  0  0  0
 11 14  1  0  0  0  0
 11 15  1  0  0  0  0
 11 16  1  0  0  0  0
 35 38  1  0  0  0  0
 35 39  1  0  0  0  0
 35 40  1  0  0  0  0
 42 44  1  0  0  0  0
 42 45  1  0  0  0  0
 42 46  1  0  0  0  0
  8 13  1  0  0  0  0
 32 37  1  0  0  0  0
 31 36  1  0  0  0  0
 41 43  1  0  0  0  0
  7 12  1  0  0  0  0
M  END
$$$$

  -OEChem-05262214473D

 46 46  0     1  0  0  0  0  0999 V2000
   -0.6012   -3.2995    3.8205 C   0  0  0  0  0  0  0  0  0  0  0  0
   -0.6574   -4.4683    3.4568 O   0  0  0  0  0  0  0  0  0  0  0  0
   -0.4935   -2.9859    5.2760 C   0  0  0  0  0  0  0  0  0  0  0  0
   -1.4789   -2.8689    5.7550 H   0  0  0  0  0  0  0  0  0  0  0  0
    0.0123   -3.7847    5.8419 H   0  0  0  0  0  0  0  0  0  0  0  0
    0.0585   -2.0642    5.5199 H   0  0  0  0  0  0  0  0  0  0  0  0
   -0.6261   -2.1849    2.9917 N   0  0  0  0  0  0  0  0  0  0  0  0
   -0.7237   -2.2601    1.5650 C   0  0  2  0  0  0  0  0  0  0  0  0
    0.1695   -1.1513    1.0687 C   0  0  0  0  0  0  0  0  0  0  0  0
    0.3193   -0.1267    1.7365 O   0  0  0  0  0  0  0  0  0  0  0  0
   -2.1397   -2.0663    1.0750 C   0  0  0  0  0  0  0  0  0  0  0  0
   -0.5717   -1.2606    3.4238 H   0  0  0  0  0  0  0  0  0  0  0  0
   -0.3076   -3.2111    1.2363 H   0  0  0  0  0  0  0  0  0  0  0  0
   -2.5584   -1.1089    1.4061 H   0  0  0  0  0  0  0  0  0  0  0  0
   -2.1682   -2.0790   -0.0197 H   0  0  0  0  0  0  0  0  0  0  0  0
   -2.7965   -2.8601    1.4459 H   0  0  0  0  0  0  0  0  0  0  0  0
    0.7724   -1.3745   -0.1593 N   0  0  0  0  0  0  0  0  0  0  0  0
    0.5614   -2.5964   -0.9244 C   0  0  2  0  0  0  0  0  0  0  0  0
    1.0304   -3.7375   -0.0727 C   0  0  0  0  0  0  0  0  0  0  0  0
    0.3444   -4.1075    0.8729 O   0  0  0  0  0  0  0  0  0  0  0  0
    1.4241   -2.4277   -2.1696 C   0  0  0  0  0  0  0  0  0  0  0  0
    1.5724   -0.9196   -2.3560 C   0  0  0  0  0  0  0  0  0  0  0  0
    1.5408   -0.3981   -0.9273 C   0  0  0  0  0  0  0  0  0  0  0  0
   -0.4994   -2.7392   -1.1516 H   0  0  0  0  0  0  0  0  0  0  0  0
    0.9067   -2.8423   -3.0430 H   0  0  0  0  0  0  0  0  0  0  0  0
    2.4070   -2.9021   -2.0888 H   0  0  0  0  0  0  0  0  0  0  0  0
    2.5335   -0.6864   -2.8287 H   0  0  0  0  0  0  0  0  0  0  0  0
    0.7747   -0.4997   -2.9754 H   0  0  0  0  0  0  0  0  0  0  0  0
    2.5402   -0.2801   -0.4996 H   0  0  0  0  0  0  0  0  0  0  0  0
    1.0101    0.5581   -0.8649 H   0  0  0  0  0  0  0  0  0  0  0  0
    2.3177   -4.2210   -0.5784 N   0  0  0  0  0  0  0  0  0  0  0  0
    3.2201   -5.0780    0.1566 C   0  0  2  0  0  0  0  0  0  0  0  0
    2.3825   -6.0200    1.0114 C   0  0  0  0  0  0  0  0  0  0  0  0
    1.2262   -5.7719    1.3469 O   0  0  0  0  0  0  0  0  0  0  0  0
    4.1751   -4.2666    1.0181 C   0  0  0  0  0  0  0  0  0  0  0  0
    2.3671   -4.2237   -1.5928 H   0  0  0  0  0  0  0  0  0  0  0  0
    3.7802   -5.6578   -0.5851 H   0  0  0  0  0  0  0  0  0  0  0  0
    3.6321   -3.6790    1.7673 H   0  0  0  0  0  0  0  0  0  0  0  0
    4.8767   -4.9159    1.5523 H   0  0  0  0  0  0  0  0  0  0  0  0
    4.7556   -3.5686    0.4052 H   0  0  0  0  0  0  0  0  0  0  0  0
    3.0925   -7.1502    1.3915 N   0  0  0  0  0  0  0  0  0  0  0  0
    2.5212   -8.1891    2.2163 C   0  0  0  0  0  0  0  0  0  0  0  0
    4.0405   -7.2826    1.0515 H   0  0  0  0  0  0  0  0  0  0  0  0
    2.7455   -7.9837    3.2735 H   0  0  0  0  0  0  0  0  0  0  0  0
    1.4311   -8.2144    2.0712 H   0  0  0  0  0  0  0  0  0  0  0  0
    2.9516   -9.1608    1.9324 H   0  0  0  0  0  0  0  0  0  0  0  0
 18 19  1  0  0  0  0
 19 31  1  0  0  0  0
 19 20  2  0  0  0  0
  8  9  1  0  0  0  0
  9 17  1  0  0  0  0
  9 10  2  0  0  0  0
  1  3  1  0  0  0  0
  1  7  1  0  0  0  0
  1  2  2  0  0  0  0
 32 33  1  0  0  0  0
 33 41  1  0  0  0  0
 33 34  2  0  0  0  0
 21 22  1  0  0  0  0
 22 23  1  0  0  0  0
 18 21  1  0  0  0  0
 17 23  1  0  0  0  0
 17 18  1  0  0  0  0
  8 11  1  0  0  0  0
 32 35  1  0  0  0  0
 41 42  1  0  0  0  0
  7  8  1  0  0  0  0
 31 32  1  0  0  0  0
 22 27  1  0  0  0  0
 22 28  1  0  0  0  0
 21 25  1  0  0  0  0
 21 26  1  0  0  0  0
 23 29  1  0  0  0  0
 23 30  1  0  0  0  0
 18 24  1  0  0  0  0
  3  4  1  0  0  0  0
  3  5  1  0  0  0  0
  3  6  1  0  0  0  0
 11 14  1  0  0  0  0
 11 15  1  0  0  0  0
 11 16  1  0  0  0  0
 35 38  1  0  0  0  0
 35 39  1  0  0  0  0
 35 40  1  0  0  0  0
 42 44  1  0  0  0  0
 42 45  1  0  0  0  0
 42 46  1  0  0  0  0
  8 13  1  0  0  0  0
 32 37  1  0  0  0  0
 31 36  1  0  0  0  0
 41 43  1  0  0  0  0
  7 12  1  0  0  0  0
M  END
$$$$

  -OEChem-05262214473D

 46 46  0     1  0  0  0  0  0999 V2000
   -0.6012   -3.2995    3.8205 C   0  0  0  0  0  0  0  0  0  0  0  0
   -0.6574   -4.4683    3.4568 O   0  0  0  0  0  0  0  0  0  0  0  0
   -0.4935   -2.9859    5.2760 C   0  0  0  0  0  0  0  0  0  0  0  0
   -1.4789   -2.8689    5.7550 H   0  0  0  0  0  0  0  0  0  0  0  0
    0.0123   -3.7847    5.8419 H   0  0  0  0  0  0  0  0  0  0  0  0
    0.0585   -2.0642    5.5199 H   0  0  0  0  0  0  0  0  0  0  0  0
   -0.6261   -2.1849    2.9917 N   0  0  0  0  0  0  0  0  0  0  0  0
   -0.7237   -2.2601    1.5650 C   0  0  2  0  0  0  0  0  0  0  0  0
    0.1695   -1.1513    1.0687 C   0  0  0  0  0  0  0  0  0  0  0  0
    0.3193   -0.1267    1.7365 O   0  0  0  0  0  0  0  0  0  0  0  0
   -2.1397   -2.0663    1.0750 C   0  0  0  0  0  0  0  0  0  0  0  0
   -0.5717   -1.2606    3.4238 H   0  0  0  0  0  0  0  0  0  0  0  0
   -0.3076   -3.2111    1.2363 H   0  0  0  0  0  0  0  0  0  0  0  0
   -2.5584   -1.1089    1.4061 H   0  0  0  0  0  0  0  0  0  0  0  0
   -2.1682   -2.0790   -0.0197 H   0  0  0  0  0  0  0  0  0  0  0  0
   -2.7965   -2.8601    1.4459 H   0  0  0  0  0  0  0  0  0  0  0  0
    0.7724   -1.3745   -0.1593 N   0  0  0  0  0  0  0  0  0  0  0  0
    0.5614   -2.5964   -0.9244 C   0  0  2  0  0  0  0  0  0  0  0  0
    1.0304   -3.7375   -0.0727 C   0  0  0  0  0  0  0  0  0  0  0  0
    0.2423   -4.2880    0.6873 O   0  0  0  0  0  0  0  0  0  0  0  0
    1.4241   -2.4277   -2.1696 C   0  0  0  0  0  0  0  0  0  0  0  0
    1.5724   -0.9196   -2.3560 C   0  0  0  0  0  0  0  0  0  0  0  0
    1.5408   -0.3981   -0.9273 C   0  0  0  0  0  0  0  0  0  0  0  0
   -0.4994   -2.7392   -1.1516 H   0  0  0  0  0  0  0  0  0  0  0  0
    0.9067   -2.8423   -3.0430 H   0  0  0  0  0  0  0  0  0  0  0  0
    2.4070   -2.9021   -2.0888 H   0  0  0  0  0  0  0  0  0  0  0  0
    2.5335   -0.6864   -2.8287 H   0  0  0  0  0  0  0  0  0  0  0  0
    0.7747   -0.4997   -2.9754 H   0  0  0  0  0  0  0  0  0  0  0  0
    2.5402   -0.2801   -0.4996 H   0  0  0  0  0  0  0  0  0  0  0  0
    1.0101    0.5581   -0.8649 H   0  0  0  0  0  0  0  0  0  0  0  0
    2.4497   -3.9869   -0.3374 N   0  0  0  0  0  0  0  0  0  0  0  0
    3.3169   -4.7766    0.5072 C   0  0  2  0  0  0  0  0  0  0  0  0
    2.4880   -5.9032    1.1098 C   0  0  0  0  0  0  0  0  0  0  0  0
    1.2647   -5.8514    1.2192 O   0  0  0  0  0  0  0  0  0  0  0  0
    3.9522   -3.9266    1.5965 C   0  0  0  0  0  0  0  0  0  0  0  0
    2.6917   -3.8856   -1.3185 H   0  0  0  0  0  0  0  0  0  0  0  0
    4.0915   -5.1992   -0.1421 H   0  0  0  0  0  0  0  0  0  0  0  0
    3.1916   -3.4946    2.2571 H   0  0  0  0  0  0  0  0  0  0  0  0
    4.6309   -4.5202    2.2178 H   0  0  0  0  0  0  0  0  0  0  0  0
    4.5236   -3.0993    1.1618 H   0  0  0  0  0  0  0  0  0  0  0  0
    3.2790   -6.9550    1.5504 N   0  0  0  0  0  0  0  0  0  0  0  0
    2.7289   -8.1373    2.1714 C   0  0  0  0  0  0  0  0  0  0  0  0
    4.2833   -6.9213    1.4019 H   0  0  0  0  0  0  0  0  0  0  0  0
    2.7126   -8.0048    3.2632 H   0  0  0  0  0  0  0  0  0  0  0  0
    1.7040   -8.2998    1.8065 H   0  0  0  0  0  0  0  0  0  0  0  0
    3.3510   -9.0081    1.9170 H   0  0  0  0  0  0  0  0  0  0  0  0
 18 19  1  0  0  0  0
 19 31  1  0  0  0  0
 19 20  2  0  0  0  0
  8  9  1  0  0  0  0
  9 17  1  0  0  0  0
  9 10  2  0  0  0  0
  1  3  1  0  0  0  0
  1  7  1  0  0  0  0
  1  2  2  0  0  0  0
 32 33  1  0  0  0  0
 33 41  1  0  0  0  0
 33 34  2  0  0  0  0
 21 22  1  0  0  0  0
 22 23  1  0  0  0  0
 18 21  1  0  0  0  0
 17 23  1  0  0  0  0
 17 18  1  0  0  0  0
  8 11  1  0  0  0  0
 32 35  1  0  0  0  0
 41 42  1  0  0  0  0
  7  8  1  0  0  0  0
 31 32  1  0  0  0  0
 22 27  1  0  0  0  0
 22 28  1  0  0  0  0
 21 25  1  0  0  0  0
 21 26  1  0  0  0  0
 23 29  1  0  0  0  0
 23 30  1  0  0  0  0
 18 24  1  0  0  0  0
  3  4  1  0  0  0  0
  3  5  1  0  0  0  0
  3  6  1  0  0  0  0
 11 14  1  0  0  0  0
 11 15  1  0  0  0  0
 11 16  1  0  0  0  0
 35 38  1  0  0  0  0
 35 39  1  0  0  0  0
 35 40  1  0  0  0  0
 42 44  1  0  0  0  0
 42 45  1  0  0  0  0
 42 46  1  0  0  0  0
  8 13  1  0  0  0  0
 32 37  1  0  0  0  0
 31 36  1  0  0  0  0
 41 43  1  0  0  0  0
  7 12  1  0  0  0  0
M  END
$$$$

  -OEChem-05262214473D

 46 46  0     1  0  0  0  0  0999 V2000
   -0.6012   -3.2995    3.8205 C   0  0  0  0  0  0  0  0  0  0  0  0
   -0.6574   -4.4683    3.4568 O   0  0  0  0  0  0  0  0  0  0  0  0
   -0.4935   -2.9859    5.2760 C   0  0  0  0  0  0  0  0  0  0  0  0
   -1.4789   -2.8689    5.7550 H   0  0  0  0  0  0  0  0  0  0  0  0
    0.0123   -3.7847    5.8419 H   0  0  0  0  0  0  0  0  0  0  0  0
    0.0585   -2.0642    5.5199 H   0  0  0  0  0  0  0  0  0  0  0  0
   -0.6261   -2.1849    2.9917 N   0  0  0  0  0  0  0  0  0  0  0  0
   -0.7237   -2.2601    1.5650 C   0  0  2  0  0  0  0  0  0  0  0  0
    0.1695   -1.1513    1.0687 C   0  0  0  0  0  0  0  0  0  0  0  0
    0.3193   -0.1267    1.7365 O   0  0  0  0  0  0  0  0  0  0  0  0
   -2.1397   -2.0663    1.0750 C   0  0  0  0  0  0  0  0  0  0  0  0
   -0.5717   -1.2606    3.4238 H   0  0  0  0  0  0  0  0  0  0  0  0
   -0.3076   -3.2111    1.2363 H   0  0  0  0  0  0  0  0  0  0  0  0
   -2.5584   -1.1089    1.4061 H   0  0  0  0  0  0  0  0  0  0  0  0
   -2.1682   -2.0790   -0.0197 H   0  0  0  0  0  0  0  0  0  0  0  0
   -2.7965   -2.8601    1.4459 H   0  0  0  0  0  0  0  0  0  0  0  0
    0.7724   -1.3745   -0.1593 N   0  0  0  0  0  0  0  0  0  0  0  0
    0.5614   -2.5964   -0.9244 C   0  0  2  0  0  0  0  0  0  0  0  0
    1.0304   -3.7375   -0.0727 C   0  0  0  0  0  0  0  0  0  0  0  0
    0.2068   -4.4623    0.4733 O   0  0  0  0  0  0  0  0  0  0  0  0
    1.4241   -2.4277   -2.1696 C   0  0  0  0  0  0  0  0  0  0  0  0
    1.5724   -0.9196   -2.3560 C   0  0  0  0  0  0  0  0  0  0  0  0
    1.5408   -0.3981   -0.9273 C   0  0  0  0  0  0  0  0  0  0  0  0
   -0.4994   -2.7392   -1.1516 H   0  0  0  0  0  0  0  0  0  0  0  0
    0.9067   -2.8423   -3.0430 H   0  0  0  0  0  0  0  0  0  0  0  0
    2.4070   -2.9021   -2.0888 H   0  0  0  0  0  0  0  0  0  0  0  0
    2.5335   -0.6864   -2.8287 H   0  0  0  0  0  0  0  0  0  0  0  0
    0.7747   -0.4997   -2.9754 H   0  0  0  0  0  0  0  0  0  0  0  0
    2.5402   -0.2801   -0.4996 H   0  0  0  0  0  0  0  0  0  0  0  0
    1.0101    0.5581   -0.8649 H   0  0  0  0  0  0  0  0  0  0  0  0
    2.4953   -3.7608   -0.0596 N   0  0  0  0  0  0  0  0  0  0  0  0
    3.2971   -4.4995    0.8893 C   0  0  2  0  0  0  0  0  0  0  0  0
    2.5534   -5.7828    1.2350 C   0  0  0  0  0  0  0  0  0  0  0  0
    1.3388   -5.9122    1.0969 O   0  0  0  0  0  0  0  0  0  0  0  0
    3.5730   -3.6777    2.1388 C   0  0  0  0  0  0  0  0  0  0  0  0
    2.9015   -3.5334   -0.9622 H   0  0  0  0  0  0  0  0  0  0  0  0
    4.2374   -4.7464    0.3843 H   0  0  0  0  0  0  0  0  0  0  0  0
    2.6426   -3.4208    2.6583 H   0  0  0  0  0  0  0  0  0  0  0  0
    4.2043   -4.2281    2.8442 H   0  0  0  0  0  0  0  0  0  0  0  0
    4.0814   -2.7413    1.8850 H   0  0  0  0  0  0  0  0  0  0  0  0
    3.3991   -6.7519    1.7564 N   0  0  0  0  0  0  0  0  0  0  0  0
    2.9308   -8.0531    2.1730 C   0  0  0  0  0  0  0  0  0  0  0  0
    4.3956   -6.5649    1.8175 H   0  0  0  0  0  0  0  0  0  0  0  0
    2.6860   -8.0293    3.2452 H   0  0  0  0  0  0  0  0  0  0  0  0
    2.0322   -8.3207    1.5977 H   0  0  0  0  0  0  0  0  0  0  0  0
    3.7174   -8.8006    1.9932 H   0  0  0  0  0  0  0  0  0  0  0  0
 18 19  1  0  0  0  0
 19 31  1  0  0  0  0
 19 20  2  0  0  0  0
  8  9  1  0  0  0  0
  9 17  1  0  0  0  0
  9 10  2  0  0  0  0
  1  3  1  0  0  0  0
  1  7  1  0  0  0  0
  1  2  2  0  0  0  0
 32 33  1  0  0  0  0
 33 41  1  0  0  0  0
 33 34  2  0  0  0  0
 21 22  1  0  0  0  0
 22 23  1  0  0  0  0
 18 21  1  0  0  0  0
 17 23  1  0  0  0  0
 17 18  1  0  0  0  0
  8 11  1  0  0  0  0
 32 35  1  0  0  0  0
 41 42  1  0  0  0  0
  7  8  1  0  0  0  0
 31 32  1  0  0  0  0
 22 27  1  0  0  0  0
 22 28  1  0  0  0  0
 21 25  1  0  0  0  0
 21 26  1  0  0  0  0
 23 29  1  0  0  0  0
 23 30  1  0  0  0  0
 18 24  1  0  0  0  0
  3  4  1  0  0  0  0
  3  5  1  0  0  0  0
  3  6  1  0  0  0  0
 11 14  1  0  0  0  0
 11 15  1  0  0  0  0
 11 16  1  0  0  0  0
 35 38  1  0  0  0  0
 35 39  1  0  0  0  0
 35 40  1  0  0  0  0
 42 44  1  0  0  0  0
 42 45  1  0  0  0  0
 42 46  1  0  0  0  0
  8 13  1  0  0  0  0
 32 37  1  0  0  0  0
 31 36  1  0  0  0  0
 41 43  1  0  0  0  0
  7 12  1  0  0  0  0
M  END
$$$$

  -OEChem-05262214473D

 46 46  0     1  0  0  0  0  0999 V2000
   -0.6012   -3.2995    3.8205 C   0  0  0  0  0  0  0  0  0  0  0  0
   -0.6574   -4.4683    3.4568 O   0  0  0  0  0  0  0  0  0  0  0  0
   -0.4935   -2.9859    5.2760 C   0  0  0  0  0  0  0  0  0  0  0  0
   -1.4789   -2.8689    5.7550 H   0  0  0  0  0  0  0  0  0  0  0  0
    0.0123   -3.7847    5.8419 H   0  0  0  0  0  0  0  0  0  0  0  0
    0.0585   -2.0642    5.5199 H   0  0  0  0  0  0  0  0  0  0  0  0
   -0.6261   -2.1849    2.9917 N   0  0  0  0  0  0  0  0  0  0  0  0
   -0.7237   -2.2601    1.5650 C   0  0  2  0  0  0  0  0  0  0  0  0
    0.1695   -1.1513    1.0687 C   0  0  0  0  0  0  0  0  0  0  0  0
    0.3193   -0.1267    1.7365 O   0  0  0  0  0  0  0  0  0  0  0  0
   -2.1397   -2.0663    1.0750 C   0  0  0  0  0  0  0  0  0  0  0  0
   -0.5717   -1.2606    3.4238 H   0  0  0  0  0  0  0  0  0  0  0  0
   -0.3076   -3.2111    1.2363 H   0  0  0  0  0  0  0  0  0  0  0  0
   -2.5584   -1.1089    1.4061 H   0  0  0  0  0  0  0  0  0  0  0  0
   -2.1682   -2.0790   -0.0197 H   0  0  0  0  0  0  0  0  0  0  0  0
   -2.7965   -2.8601    1.4459 H   0  0  0  0  0  0  0  0  0  0  0  0
    0.7724   -1.3745   -0.1593 N   0  0  0  0  0  0  0  0  0  0  0  0
    0.5614   -2.5964   -0.9244 C   0  0  2  0  0  0  0  0  0  0  0  0
    1.0304   -3.7375   -0.0727 C   0  0  0  0  0  0  0  0  0  0  0  0
    0.2403   -4.6186    0.2454 O   0  0  0  0  0  0  0  0  0  0  0  0
    1.4241   -2.4277   -2.1696 C   0  0  0  0  0  0  0  0  0  0  0  0
    1.5724   -0.9196   -2.3560 C   0  0  0  0  0  0  0  0  0  0  0  0
    1.5408   -0.3981   -0.9273 C   0  0  0  0  0  0  0  0  0  0  0  0
   -0.4994   -2.7392   -1.1516 H   0  0  0  0  0  0  0  0  0  0  0  0
    0.9067   -2.8423   -3.0430 H   0  0  0  0  0  0  0  0  0  0  0  0
    2.4070   -2.9021   -2.0888 H   0  0  0  0  0  0  0  0  0  0  0  0
    2.5335   -0.6864   -2.8287 H   0  0  0  0  0  0  0  0  0  0  0  0
    0.7747   -0.4997   -2.9754 H   0  0  0  0  0  0  0  0  0  0  0  0
    2.5402   -0.2801   -0.4996 H   0  0  0  0  0  0  0  0  0  0  0  0
    1.0101    0.5581   -0.8649 H   0  0  0  0  0  0  0  0  0  0  0  0
    2.4514   -3.5582    0.2360 N   0  0  0  0  0  0  0  0  0  0  0  0
    3.1620   -4.2658    1.2769 C   0  0  2  0  0  0  0  0  0  0  0  0
    2.5742   -5.6671    1.3786 C   0  0  0  0  0  0  0  0  0  0  0  0
    1.4434   -5.9501    0.9885 O   0  0  0  0  0  0  0  0  0  0  0  0
    3.0633   -3.5371    2.6080 C   0  0  0  0  0  0  0  0  0  0  0  0
    2.9821   -3.1913   -0.5482 H   0  0  0  0  0  0  0  0  0  0  0  0
    4.2080   -4.3302    0.9581 H   0  0  0  0  0  0  0  0  0  0  0  0
    2.0225   -3.4628    2.9436 H   0  0  0  0  0  0  0  0  0  0  0  0
    3.6258   -4.0593    3.3889 H   0  0  0  0  0  0  0  0  0  0  0  0
    3.4593   -2.5191    2.5253 H   0  0  0  0  0  0  0  0  0  0  0  0
    3.4447   -6.5547    1.9956 N   0  0  0  0  0  0  0  0  0  0  0  0
    3.1131   -7.9422    2.2212 C   0  0  0  0  0  0  0  0  0  0  0  0
    4.3699   -6.2378    2.2700 H   0  0  0  0  0  0  0  0  0  0  0  0
    2.6674   -8.0553    3.2205 H   0  0  0  0  0  0  0  0  0  0  0  0
    2.3935   -8.2757    1.4590 H   0  0  0  0  0  0  0  0  0  0  0  0
    4.0259   -8.5525    2.1558 H   0  0  0  0  0  0  0  0  0  0  0  0
 18 19  1  0  0  0  0
 19 31  1  0  0  0  0
 19 20  2  0  0  0  0
  8  9  1  0  0  0  0
  9 17  1  0  0  0  0
  9 10  2  0  0  0  0
  1  3  1  0  0  0  0
  1  7  1  0  0  0  0
  1  2  2  0  0  0  0
 32 33  1  0  0  0  0
 33 41  1  0  0  0  0
 33 34  2  0  0  0  0
 21 22  1  0  0  0  0
 22 23  1  0  0  0  0
 18 21  1  0  0  0  0
 17 23  1  0  0  0  0
 17 18  1  0  0  0  0
  8 11  1  0  0  0  0
 32 35  1  0  0  0  0
 41 42  1  0  0  0  0
  7  8  1  0  0  0  0
 31 32  1  0  0  0  0
 22 27  1  0  0  0  0
 22 28  1  0  0  0  0
 21 25  1  0  0  0  0
 21 26  1  0  0  0  0
 23 29  1  0  0  0  0
 23 30  1  0  0  0  0
 18 24  1  0  0  0  0
  3  4  1  0  0  0  0
  3  5  1  0  0  0  0
  3  6  1  0  0  0  0
 11 14  1  0  0  0  0
 11 15  1  0  0  0  0
 11 16  1  0  0  0  0
 35 38  1  0  0  0  0
 35 39  1  0  0  0  0
 35 40  1  0  0  0  0
 42 44  1  0  0  0  0
 42 45  1  0  0  0  0
 42 46  1  0  0  0  0
  8 13  1  0  0  0  0
 32 37  1  0  0  0  0
 31 36  1  0  0  0  0
 41 43  1  0  0  0  0
  7 12  1  0  0  0  0
M  END
$$$$

  -OEChem-05262214473D

 46 46  0     1  0  0  0  0  0999 V2000
   -0.6012   -3.2995    3.8205 C   0  0  0  0  0  0  0  0  0  0  0  0
   -0.6574   -4.4683    3.4568 O   0  0  0  0  0  0  0  0  0  0  0  0
   -0.4935   -2.9859    5.2760 C   0  0  0  0  0  0  0  0  0  0  0  0
   -1.4789   -2.8689    5.7550 H   0  0  0  0  0  0  0  0  0  0  0  0
    0.0123   -3.7847    5.8419 H   0  0  0  0  0  0  0  0  0  0  0  0
    0.0585   -2.0642    5.5199 H   0  0  0  0  0  0  0  0  0  0  0  0
   -0.6261   -2.1849    2.9917 N   0  0  0  0  0  0  0  0  0  0  0  0
   -0.7237   -2.2601    1.5650 C   0  0  2  0  0  0  0  0  0  0  0  0
    0.1695   -1.1513    1.0687 C   0  0  0  0  0  0  0  0  0  0  0  0
    0.3193   -0.1267    1.7365 O   0  0  0  0  0  0  0  0  0  0  0  0
   -2.1397   -2.0663    1.0750 C   0  0  0  0  0  0  0  0  0  0  0  0
   -0.5717   -1.2606    3.4238 H   0  0  0  0  0  0  0  0  0  0  0  0
   -0.3076   -3.2111    1.2363 H   0  0  0  0  0  0  0  0  0  0  0  0
   -2.5584   -1.1089    1.4061 H   0  0  0  0  0  0  0  0  0  0  0  0
   -2.1682   -2.0790   -0.0197 H   0  0  0  0  0  0  0  0  0  0  0  0
   -2.7965   -2.8601    1.4459 H   0  0  0  0  0  0  0  0  0  0  0  0
    0.7724   -1.3745   -0.1593 N   0  0  0  0  0  0  0  0  0  0  0  0
    0.5614   -2.5964   -0.9244 C   0  0  2  0  0  0  0  0  0  0  0  0
    1.0304   -3.7375   -0.0727 C   0  0  0  0  0  0  0  0  0  0  0  0
    0.3406   -4.7462    0.0193 O   0  0  0  0  0  0  0  0  0  0  0  0
    1.4241   -2.4277   -2.1696 C   0  0  0  0  0  0  0  0  0  0  0  0
    1.5724   -0.9196   -2.3560 C   0  0  0  0  0  0  0  0  0  0  0  0
    1.5408   -0.3981   -0.9273 C   0  0  0  0  0  0  0  0  0  0  0  0
   -0.4994   -2.7392   -1.1516 H   0  0  0  0  0  0  0  0  0  0  0  0
    0.9067   -2.8423   -3.0430 H   0  0  0  0  0  0  0  0  0  0  0  0
    2.4070   -2.9021   -2.0888 H   0  0  0  0  0  0  0  0  0  0  0  0
    2.5335   -0.6864   -2.8287 H   0  0  0  0  0  0  0  0  0  0  0  0
    0.7747   -0.4997   -2.9754 H   0  0  0  0  0  0  0  0  0  0  0  0
    2.5402   -0.2801   -0.4996 H   0  0  0  0  0  0  0  0  0  0  0  0
    1.0101    0.5581   -0.8649 H   0  0  0  0  0  0  0  0  0  0  0  0
    2.3209   -3.3930    0.5293 N   0  0  0  0  0  0  0  0  0  0  0  0
    2.9207   -4.0913    1.6436 C   0  0  2  0  0  0  0  0  0  0  0  0
    2.5490   -5.5639    1.5308 C   0  0  0  0  0  0  0  0  0  0  0  0
    1.5713   -5.9626    0.9013 O   0  0  0  0  0  0  0  0  0  0  0  0
    2.4578   -3.5141    2.9722 C   0  0  0  0  0  0  0  0  0  0  0  0
    2.9282   -2.8825   -0.1047 H   0  0  0  0  0  0  0  0  0  0  0  0
    4.0055   -3.9789    1.5404 H   0  0  0  0  0  0  0  0  0  0  0  0
    1.3734   -3.6176    3.0936 H   0  0  0  0  0  0  0  0  0  0  0  0
    2.9350   -4.0255    3.8148 H   0  0  0  0  0  0  0  0  0  0  0  0
    2.6995   -2.4478    3.0393 H   0  0  0  0  0  0  0  0  0  0  0  0
    3.4126   -6.3769    2.2515 N   0  0  0  0  0  0  0  0  0  0  0  0
    3.2634   -7.8121    2.3127 C   0  0  0  0  0  0  0  0  0  0  0  0
    4.2078   -5.9623    2.7284 H   0  0  0  0  0  0  0  0  0  0  0  0
    2.6581   -8.0812    3.1909 H   0  0  0  0  0  0  0  0  0  0  0  0
    2.7632   -8.1679    1.3998 H   0  0  0  0  0  0  0  0  0  0  0  0
    4.2553   -8.2807    2.3937 H   0  0  0  0  0  0  0  0  0  0  0  0
 18 19  1  0  0  0  0
 19 31  1  0  0  0  0
 19 20  2  0  0  0  0
  8  9  1  0  0  0  0
  9 17  1  0  0  0  0
  9 10  2  0  0  0  0
  1  3  1  0  0  0  0
  1  7  1  0  0  0  0
  1  2  2  0  0  0  0
 32 33  1  0  0  0  0
 33 41  1  0  0  0  0
 33 34  2  0  0  0  0
 21 22  1  0  0  0  0
 22 23  1  0  0  0  0
 18 21  1  0  0  0  0
 17 23  1  0  0  0  0
 17 18  1  0  0  0  0
  8 11  1  0  0  0  0
 32 35  1  0  0  0  0
 41 42  1  0  0  0  0
  7  8  1  0  0  0  0
 31 32  1  0  0  0  0
 22 27  1  0  0  0  0
 22 28  1  0  0  0  0
 21 25  1  0  0  0  0
 21 26  1  0  0  0  0
 23 29  1  0  0  0  0
 23 30  1  0  0  0  0
 18 24  1  0  0  0  0
  3  4  1  0  0  0  0
  3  5  1  0  0  0  0
  3  6  1  0  0  0  0
 11 14  1  0  0  0  0
 11 15  1  0  0  0  0
 11 16  1  0  0  0  0
 35 38  1  0  0  0  0
 35 39  1  0  0  0  0
 35 40  1  0  0  0  0
 42 44  1  0  0  0  0
 42 45  1  0  0  0  0
 42 46  1  0  0  0  0
  8 13  1  0  0  0  0
 32 37  1  0  0  0  0
 31 36  1  0  0  0  0
 41 43  1  0  0  0  0
  7 12  1  0  0  0  0
M  END
$$$$

  -OEChem-05262214473D

 46 46  0     1  0  0  0  0  0999 V2000
   -0.6012   -3.2995    3.8205 C   0  0  0  0  0  0  0  0  0  0  0  0
   -0.6574   -4.4683    3.4568 O   0  0  0  0  0  0  0  0  0  0  0  0
   -0.4935   -2.9859    5.2760 C   0  0  0  0  0  0  0  0  0  0  0  0
   -1.4789   -2.8689    5.7550 H   0  0  0  0  0  0  0  0  0  0  0  0
    0.0123   -3.7847    5.8419 H   0  0  0  0  0  0  0  0  0  0  0  0
    0.0585   -2.0642    5.5199 H   0  0  0  0  0  0  0  0  0  0  0  0
   -0.6261   -2.1849    2.9917 N   0  0  0  0  0  0  0  0  0  0  0  0
   -0.7237   -2.2601    1.5650 C   0  0  2  0  0  0  0  0  0  0  0  0
    0.1695   -1.1513    1.0687 C   0  0  0  0  0  0  0  0  0  0  0  0
    0.3193   -0.1267    1.7365 O   0  0  0  0  0  0  0  0  0  0  0  0
   -2.1397   -2.0663    1.0750 C   0  0  0  0  0  0  0  0  0  0  0  0
   -0.5717   -1.2606    3.4238 H   0  0  0  0  0  0  0  0  0  0  0  0
   -0.3076   -3.2111    1.2363 H   0  0  0  0  0  0  0  0  0  0  0  0
   -2.5584   -1.1089    1.4061 H   0  0  0  0  0  0  0  0  0  0  0  0
   -2.1682   -2.0790   -0.0197 H   0  0  0  0  0  0  0  0  0  0  0  0
   -2.7965   -2.8601    1.4459 H   0  0  0  0  0  0  0  0  0  0  0  0
    0.7724   -1.3745   -0.1593 N   0  0  0  0  0  0  0  0  0  0  0  0
    0.5614   -2.5964   -0.9244 C   0  0  2  0  0  0  0  0  0  0  0  0
    1.0304   -3.7375   -0.0727 C   0  0  0  0  0  0  0  0  0  0  0  0
    0.5007   -4.8363   -0.1897 O   0  0  0  0  0  0  0  0  0  0  0  0
    1.4241   -2.4277   -2.1696 C   0  0  0  0  0  0  0  0  0  0  0  0
    1.5724   -0.9196   -2.3560 C   0  0  0  0  0  0  0  0  0  0  0  0
    1.5408   -0.3981   -0.9273 C   0  0  0  0  0  0  0  0  0  0  0  0
   -0.4994   -2.7392   -1.1516 H   0  0  0  0  0  0  0  0  0  0  0  0
    0.9067   -2.8423   -3.0430 H   0  0  0  0  0  0  0  0  0  0  0  0
    2.4070   -2.9021   -2.0888 H   0  0  0  0  0  0  0  0  0  0  0  0
    2.5335   -0.6864   -2.8287 H   0  0  0  0  0  0  0  0  0  0  0  0
    0.7747   -0.4997   -2.9754 H   0  0  0  0  0  0  0  0  0  0  0  0
    2.5402   -0.2801   -0.4996 H   0  0  0  0  0  0  0  0  0  0  0  0
    1.0101    0.5581   -0.8649 H   0  0  0  0  0  0  0  0  0  0  0  0
    2.1128   -3.2763    0.8003 N   0  0  0  0  0  0  0  0  0  0  0  0
    2.5897   -3.9879    1.9644 C   0  0  2  0  0  0  0  0  0  0  0  0
    2.4794   -5.4803    1.6812 C   0  0  0  0  0  0  0  0  0  0  0  0
    1.7139   -5.9488    0.8412 O   0  0  0  0  0  0  0  0  0  0  0  0
    1.7978   -3.6104    3.2066 C   0  0  0  0  0  0  0  0  0  0  0  0
    2.7433   -2.6281    0.3380 H   0  0  0  0  0  0  0  0  0  0  0  0
    3.6434   -3.7166    2.0913 H   0  0  0  0  0  0  0  0  0  0  0  0
    0.7396   -3.8747    3.0982 H   0  0  0  0  0  0  0  0  0  0  0  0
    2.1788   -4.1288    4.0927 H   0  0  0  0  0  0  0  0  0  0  0  0
    1.8538   -2.5323    3.3918 H   0  0  0  0  0  0  0  0  0  0  0  0
    3.3051   -6.2306    2.5067 N   0  0  0  0  0  0  0  0  0  0  0  0
    3.3714   -7.6719    2.4412 C   0  0  0  0  0  0  0  0  0  0  0  0
    3.9204   -5.7571    3.1616 H   0  0  0  0  0  0  0  0  0  0  0  0
    2.6588   -8.1052    3.1584 H   0  0  0  0  0  0  0  0  0  0  0  0
    3.1161   -8.0046    1.4243 H   0  0  0  0  0  0  0  0  0  0  0  0
    4.3900   -8.0036    2.6907 H   0  0  0  0  0  0  0  0  0  0  0  0
 18 19  1  0  0  0  0
 19 31  1  0  0  0  0
 19 20  2  0  0  0  0
  8  9  1  0  0  0  0
  9 17  1  0  0  0  0
  9 10  2  0  0  0  0
  1  3  1  0  0  0  0
  1  7  1  0  0  0  0
  1  2  2  0  0  0  0
 32 33  1  0  0  0  0
 33 41  1  0  0  0  0
 33 34  2  0  0  0  0
 21 22  1  0  0  0  0
 22 23  1  0  0  0  0
 18 21  1  0  0  0  0
 17 23  1  0  0  0  0
 17 18  1  0  0  0  0
  8 11  1  0  0  0  0
 32 35  1  0  0  0  0
 41 42  1  0  0  0  0
  7  8  1  0  0  0  0
 31 32  1  0  0  0  0
 22 27  1  0  0  0  0
 22 28  1  0  0  0  0
 21 25  1  0  0  0  0
 21 26  1  0  0  0  0
 23 29  1  0  0  0  0
 23 30  1  0  0  0  0
 18 24  1  0  0  0  0
  3  4  1  0  0  0  0
  3  5  1  0  0  0  0
  3  6  1  0  0  0  0
 11 14  1  0  0  0  0
 11 15  1  0  0  0  0
 11 16  1  0  0  0  0
 35 38  1  0  0  0  0
 35 39  1  0  0  0  0
 35 40  1  0  0  0  0
 42 44  1  0  0  0  0
 42 45  1  0  0  0  0
 42 46  1  0  0  0  0
  8 13  1  0  0  0  0
 32 37  1  0  0  0  0
 31 36  1  0  0  0  0
 41 43  1  0  0  0  0
  7 12  1  0  0  0  0
M  END
$$$$

  -OEChem-05262214473D

 46 46  0     1  0  0  0  0  0999 V2000
   -0.6012   -3.2995    3.8205 C   0  0  0  0  0  0  0  0  0  0  0  0
   -0.6574   -4.4683    3.4568 O   0  0  0  0  0  0  0  0  0  0  0  0
   -0.4935   -2.9859    5.2760 C   0  0  0  0  0  0  0  0  0  0  0  0
   -1.4789   -2.8689    5.7550 H   0  0  0  0  0  0  0  0  0  0  0  0
    0.0123   -3.7847    5.8419 H   0  0  0  0  0  0  0  0  0  0  0  0
    0.0585   -2.0642    5.5199 H   0  0  0  0  0  0  0  0  0  0  0  0
   -0.6261   -2.1849    2.9917 N   0  0  0  0  0  0  0  0  0  0  0  0
   -0.7237   -2.2601    1.5650 C   0  0  2  0  0  0  0  0  0  0  0  0
    0.1695   -1.1513    1.0687 C   0  0  0  0  0  0  0  0  0  0  0  0
    0.3193   -0.1267    1.7365 O   0  0  0  0  0  0  0  0  0  0  0  0
   -2.1397   -2.0663    1.0750 C   0  0  0  0  0  0  0  0  0  0  0  0
   -0.5717   -1.2606    3.4238 H   0  0  0  0  0  0  0  0  0  0  0  0
   -0.3076   -3.2111    1.2363 H   0  0  0  0  0  0  0  0  0  0  0  0
   -2.5584   -1.1089    1.4061 H   0  0  0  0  0  0  0  0  0  0  0  0
   -2.1682   -2.0790   -0.0197 H   0  0  0  0  0  0  0  0  0  0  0  0
   -2.7965   -2.8601    1.4459 H   0  0  0  0  0  0  0  0  0  0  0  0
    0.7724   -1.3745   -0.1593 N   0  0  0  0  0  0  0  0  0  0  0  0
    0.5614   -2.5964   -0.9244 C   0  0  2  0  0  0  0  0  0  0  0  0
    1.0304   -3.7375   -0.0727 C   0  0  0  0  0  0  0  0  0  0  0  0
    0.7098   -4.8830   -0.3674 O   0  0  0  0  0  0  0  0  0  0  0  0
    1.4241   -2.4277   -2.1696 C   0  0  0  0  0  0  0  0  0  0  0  0
    1.5724   -0.9196   -2.3560 C   0  0  0  0  0  0  0  0  0  0  0  0
    1.5408   -0.3981   -0.9273 C   0  0  0  0  0  0  0  0  0  0  0  0
   -0.4994   -2.7392   -1.1516 H   0  0  0  0  0  0  0  0  0  0  0  0
    0.9067   -2.8423   -3.0430 H   0  0  0  0  0  0  0  0  0  0  0  0
    2.4070   -2.9021   -2.0888 H   0  0  0  0  0  0  0  0  0  0  0  0
    2.5335   -0.6864   -2.8287 H   0  0  0  0  0  0  0  0  0  0  0  0
    0.7747   -0.4997   -2.9754 H   0  0  0  0  0  0  0  0  0  0  0  0
    2.5402   -0.2801   -0.4996 H   0  0  0  0  0  0  0  0  0  0  0  0
    1.0101    0.5581   -0.8649 H   0  0  0  0  0  0  0  0  0  0  0  0
    1.8413   -3.2161    1.0305 N   0  0  0  0  0  0  0  0  0  0  0  0
    2.1917   -3.9627    2.2175 C   0  0  2  0  0  0  0  0  0  0  0  0
    2.3704   -5.4219    1.8195 C   0  0  0  0  0  0  0  0  0  0  0  0
    1.8614   -5.9097    0.8125 O   0  0  0  0  0  0  0  0  0  0  0  0
    1.1283   -3.8195    3.2952 C   0  0  0  0  0  0  0  0  0  0  0  0
    2.4401   -2.4453    0.7499 H   0  0  0  0  0  0  0  0  0  0  0  0
    3.1467   -3.5610    2.5733 H   0  0  0  0  0  0  0  0  0  0  0  0
    0.1643   -4.2166    2.9568 H   0  0  0  0  0  0  0  0  0  0  0  0
    1.4088   -4.3624    4.2039 H   0  0  0  0  0  0  0  0  0  0  0  0
    0.9800   -2.7668    3.5589 H   0  0  0  0  0  0  0  0  0  0  0  0
    3.1294   -6.1257    2.7440 N   0  0  0  0  0  0  0  0  0  0  0  0
    3.4298   -7.5309    2.5979 C   0  0  0  0  0  0  0  0  0  0  0  0
    3.5273   -5.6363    3.5401 H   0  0  0  0  0  0  0  0  0  0  0  0
    2.6694   -8.1257    3.1251 H   0  0  0  0  0  0  0  0  0  0  0  0
    3.4282   -7.7970    1.5306 H   0  0  0  0  0  0  0  0  0  0  0  0
    4.4210   -7.7403    3.0265 H   0  0  0  0  0  0  0  0  0  0  0  0
 18 19  1  0  0  0  0
 19 31  1  0  0  0  0
 19 20  2  0  0  0  0
  8  9  1  0  0  0  0
  9 17  1  0  0  0  0
  9 10  2  0  0  0  0
  1  3  1  0  0  0  0
  1  7  1  0  0  0  0
  1  2  2  0  0  0  0
 32 33  1  0  0  0  0
 33 41  1  0  0  0  0
 33 34  2  0  0  0  0
 21 22  1  0  0  0  0
 22 23  1  0  0  0  0
 18 21  1  0  0  0  0
 17 23  1  0  0  0  0
 17 18  1  0  0  0  0
  8 11  1  0  0  0  0
 32 35  1  0  0  0  0
 41 42  1  0  0  0  0
  7  8  1  0  0  0  0
 31 32  1  0  0  0  0
 22 27  1  0  0  0  0
 22 28  1  0  0  0  0
 21 25  1  0  0  0  0
 21 26  1  0  0  0  0
 23 29  1  0  0  0  0
 23 30  1  0  0  0  0
 18 24  1  0  0  0  0
  3  4  1  0  0  0  0
  3  5  1  0  0  0  0
  3  6  1  0  0  0  0
 11 14  1  0  0  0  0
 11 15  1  0  0  0  0
 11 16  1  0  0  0  0
 35 38  1  0  0  0  0
 35 39  1  0  0  0  0
 35 40  1  0  0  0  0
 42 44  1  0  0  0  0
 42 45  1  0  0  0  0
 42 46  1  0  0  0  0
  8 13  1  0  0  0  0
 32 37  1  0  0  0  0
 31 36  1  0  0  0  0
 41 43  1  0  0  0  0
  7 12  1  0  0  0  0
M  END
$$$$

  -OEChem-05262214473D

 46 46  0     1  0  0  0  0  0999 V2000
   -0.6012   -3.2995    3.8205 C   0  0  0  0  0  0  0  0  0  0  0  0
   -0.6574   -4.4683    3.4568 O   0  0  0  0  0  0  0  0  0  0  0  0
   -0.4935   -2.9859    5.2760 C   0  0  0  0  0  0  0  0  0  0  0  0
   -1.4789   -2.8689    5.7550 H   0  0  0  0  0  0  0  0  0  0  0  0
    0.0123   -3.7847    5.8419 H   0  0  0  0  0  0  0  0  0  0  0  0
    0.0585   -2.0642    5.5199 H   0  0  0  0  0  0  0  0  0  0  0  0
   -0.6261   -2.1849    2.9917 N   0  0  0  0  0  0  0  0  0  0  0  0
   -0.7237   -2.2601    1.5650 C   0  0  2  0  0  0  0  0  0  0  0  0
    0.1695   -1.1513    1.0687 C   0  0  0  0  0  0  0  0  0  0  0  0
    0.3193   -0.1267    1.7365 O   0  0  0  0  0  0  0  0  0  0  0  0
   -2.1397   -2.0663    1.0750 C   0  0  0  0  0  0  0  0  0  0  0  0
   -0.5717   -1.2606    3.4238 H   0  0  0  0  0  0  0  0  0  0  0  0
   -0.3076   -3.2111    1.2363 H   0  0  0  0  0  0  0  0  0  0  0  0
   -2.5584   -1.1089    1.4061 H   0  0  0  0  0  0  0  0  0  0  0  0
   -2.1682   -2.0790   -0.0197 H   0  0  0  0  0  0  0  0  0  0  0  0
   -2.7965   -2.8601    1.4459 H   0  0  0  0  0  0  0  0  0  0  0  0
    0.7724   -1.3745   -0.1593 N   0  0  0  0  0  0  0  0  0  0  0  0
    0.5614   -2.5964   -0.9244 C   0  0  2  0  0  0  0  0  0  0  0  0
    1.0304   -3.7375   -0.0727 C   0  0  0  0  0  0  0  0  0  0  0  0
    0.9536   -4.8829   -0.5016 O   0  0  0  0  0  0  0  0  0  0  0  0
    1.4241   -2.4277   -2.1696 C   0  0  0  0  0  0  0  0  0  0  0  0
    1.5724   -0.9196   -2.3560 C   0  0  0  0  0  0  0  0  0  0  0  0
    1.5408   -0.3981   -0.9273 C   0  0  0  0  0  0  0  0  0  0  0  0
   -0.4994   -2.7392   -1.1516 H   0  0  0  0  0  0  0  0  0  0  0  0
    0.9067   -2.8423   -3.0430 H   0  0  0  0  0  0  0  0  0  0  0  0
    2.4070   -2.9021   -2.0888 H   0  0  0  0  0  0  0  0  0  0  0  0
    2.5335   -0.6864   -2.8287 H   0  0  0  0  0  0  0  0  0  0  0  0
    0.7747   -0.4997   -2.9754 H   0  0  0  0  0  0  0  0  0  0  0  0
    2.5402   -0.2801   -0.4996 H   0  0  0  0  0  0  0  0  0  0  0  0
    1.0101    0.5581   -0.8649 H   0  0  0  0  0  0  0  0  0  0  0  0
    1.5248   -3.2165    1.2043 N   0  0  0  0  0  0  0  0  0  0  0  0
    1.7536   -4.0173    2.3855 C   0  0  2  0  0  0  0  0  0  0  0  0
    2.2292   -5.3927    1.9364 C   0  0  0  0  0  0  0  0  0  0  0  0
    2.0039   -5.8478    0.8169 O   0  0  0  0  0  0  0  0  0  0  0  0
    0.4949   -4.1271    3.2319 C   0  0  0  0  0  0  0  0  0  0  0  0
    2.0392   -2.3467    1.1028 H   0  0  0  0  0  0  0  0  0  0  0  0
    2.5489   -3.5228    2.9537 H   0  0  0  0  0  0  0  0  0  0  0  0
   -0.3132   -4.6200    2.6793 H   0  0  0  0  0  0  0  0  0  0  0  0
    0.6775   -4.7102    4.1406 H   0  0  0  0  0  0  0  0  0  0  0  0
    0.1375   -3.1353    3.5292 H   0  0  0  0  0  0  0  0  0  0  0  0
    2.8975   -6.0695    2.9470 N   0  0  0  0  0  0  0  0  0  0  0  0
    3.4346   -7.3988    2.7722 C   0  0  0  0  0  0  0  0  0  0  0  0
    3.0553   -5.6080    3.8380 H   0  0  0  0  0  0  0  0  0  0  0  0
    2.6892   -8.1412    3.0935 H   0  0  0  0  0  0  0  0  0  0  0  0
    3.6781   -7.5592    1.7116 H   0  0  0  0  0  0  0  0  0  0  0  0
    4.3460   -7.5085    3.3783 H   0  0  0  0  0  0  0  0  0  0  0  0
 18 19  1  0  0  0  0
 19 31  1  0  0  0  0
 19 20  2  0  0  0  0
  8  9  1  0  0  0  0
  9 17  1  0  0  0  0
  9 10  2  0  0  0  0
  1  3  1  0  0  0  0
  1  7  1  0  0  0  0
  1  2  2  0  0  0  0
 32 33  1  0  0  0  0
 33 41  1  0  0  0  0
 33 34  2  0  0  0  0
 21 22  1  0  0  0  0
 22 23  1  0  0  0  0
 18 21  1  0  0  0  0
 17 23  1  0  0  0  0
 17 18  1  0  0  0  0
  8 11  1  0  0  0  0
 32 35  1  0  0  0  0
 41 42  1  0  0  0  0
  7  8  1  0  0  0  0
 31 32  1  0  0  0  0
 22 27  1  0  0  0  0
 22 28  1  0  0  0  0
 21 25  1  0  0  0  0
 21 26  1  0  0  0  0
 23 29  1  0  0  0  0
 23 30  1  0  0  0  0
 18 24  1  0  0  0  0
  3  4  1  0  0  0  0
  3  5  1  0  0  0  0
  3  6  1  0  0  0  0
 11 14  1  0  0  0  0
 11 15  1  0  0  0  0
 11 16  1  0  0  0  0
 35 38  1  0  0  0  0
 35 39  1  0  0  0  0
 35 40  1  0  0  0  0
 42 44  1  0  0  0  0
 42 45  1  0  0  0  0
 42 46  1  0  0  0  0
  8 13  1  0  0  0  0
 32 37  1  0  0  0  0
 31 36  1  0  0  0  0
 41 43  1  0  0  0  0
  7 12  1  0  0  0  0
M  END
$$$$

  -OEChem-05262214473D

 46 46  0     1  0  0  0  0  0999 V2000
   -0.6012   -3.2995    3.8205 C   0  0  0  0  0  0  0  0  0  0  0  0
   -0.6574   -4.4683    3.4568 O   0  0  0  0  0  0  0  0  0  0  0  0
   -0.4935   -2.9859    5.2760 C   0  0  0  0  0  0  0  0  0  0  0  0
   -1.4789   -2.8689    5.7550 H   0  0  0  0  0  0  0  0  0  0  0  0
    0.0123   -3.7847    5.8419 H   0  0  0  0  0  0  0  0  0  0  0  0
    0.0585   -2.0642    5.5199 H   0  0  0  0  0  0  0  0  0  0  0  0
   -0.6261   -2.1849    2.9917 N   0  0  0  0  0  0  0  0  0  0  0  0
   -0.7237   -2.2601    1.5650 C   0  0  2  0  0  0  0  0  0  0  0  0
    0.1695   -1.1513    1.0687 C   0  0  0  0  0  0  0  0  0  0  0  0
    0.3193   -0.1267    1.7365 O   0  0  0  0  0  0  0  0  0  0  0  0
   -2.1397   -2.0663    1.0750 C   0  0  0  0  0  0  0  0  0  0  0  0
   -0.5717   -1.2606    3.4238 H   0  0  0  0  0  0  0  0  0  0  0  0
   -0.3076   -3.2111    1.2363 H   0  0  0  0  0  0  0  0  0  0  0  0
   -2.5584   -1.1089    1.4061 H   0  0  0  0  0  0  0  0  0  0  0  0
   -2.1682   -2.0790   -0.0197 H   0  0  0  0  0  0  0  0  0  0  0  0
   -2.7965   -2.8601    1.4459 H   0  0  0  0  0  0  0  0  0  0  0  0
    0.7724   -1.3745   -0.1593 N   0  0  0  0  0  0  0  0  0  0  0  0
    0.5614   -2.5964   -0.9244 C   0  0  2  0  0  0  0  0  0  0  0  0
    1.0304   -3.7375   -0.0727 C   0  0  0  0  0  0  0  0  0  0  0  0
    1.2156   -4.8361   -0.5831 O   0  0  0  0  0  0  0  0  0  0  0  0
    1.4241   -2.4277   -2.1696 C   0  0  0  0  0  0  0  0  0  0  0  0
    1.5724   -0.9196   -2.3560 C   0  0  0  0  0  0  0  0  0  0  0  0
    1.5408   -0.3981   -0.9273 C   0  0  0  0  0  0  0  0  0  0  0  0
   -0.4994   -2.7392   -1.1516 H   0  0  0  0  0  0  0  0  0  0  0  0
    0.9067   -2.8423   -3.0430 H   0  0  0  0  0  0  0  0  0  0  0  0
    2.4070   -2.9021   -2.0888 H   0  0  0  0  0  0  0  0  0  0  0  0
    2.5335   -0.6864   -2.8287 H   0  0  0  0  0  0  0  0  0  0  0  0
    0.7747   -0.4997   -2.9754 H   0  0  0  0  0  0  0  0  0  0  0  0
    2.5402   -0.2801   -0.4996 H   0  0  0  0  0  0  0  0  0  0  0  0
    1.0101    0.5581   -0.8649 H   0  0  0  0  0  0  0  0  0  0  0  0
    1.1849   -3.2775    1.3097 N   0  0  0  0  0  0  0  0  0  0  0  0
    1.3054   -4.1481    2.4571 C   0  0  2  0  0  0  0  0  0  0  0  0
    2.0655   -5.3947    2.0238 C   0  0  0  0  0  0  0  0  0  0  0  0
    2.1315   -5.7675    0.8543 O   0  0  0  0  0  0  0  0  0  0  0  0
   -0.0592   -4.5122    3.0211 C   0  0  0  0  0  0  0  0  0  0  0  0
    1.5680   -2.3390    1.3726 H   0  0  0  0  0  0  0  0  0  0  0  0
    1.8911   -3.6046    3.2064 H   0  0  0  0  0  0  0  0  0  0  0  0
   -0.6605   -5.0574    2.2845 H   0  0  0  0  0  0  0  0  0  0  0  0
    0.0347   -5.1485    3.9073 H   0  0  0  0  0  0  0  0  0  0  0  0
   -0.6163   -3.6127    3.3046 H   0  0  0  0  0  0  0  0  0  0  0  0
    2.6253   -6.0657    3.1020 N   0  0  0  0  0  0  0  0  0  0  0  0
    3.3855   -7.2846    2.9522 C   0  0  0  0  0  0  0  0  0  0  0  0
    2.5365   -5.6742    4.0350 H   0  0  0  0  0  0  0  0  0  0  0  0
    2.7168   -8.1507    3.0655 H   0  0  0  0  0  0  0  0  0  0  0  0
    3.8489   -7.3074    1.9549 H   0  0  0  0  0  0  0  0  0  0  0  0
    4.1701   -7.3242    3.7222 H   0  0  0  0  0  0  0  0  0  0  0  0
 18 19  1  0  0  0  0
 19 31  1  0  0  0  0
 19 20  2  0  0  0  0
  8  9  1  0  0  0  0
  9 17  1  0  0  0  0
  9 10  2  0  0  0  0
  1  3  1  0  0  0  0
  1  7  1  0  0  0  0
  1  2  2  0  0  0  0
 32 33  1  0  0  0  0
 33 41  1  0  0  0  0
 33 34  2  0  0  0  0
 21 22  1  0  0  0  0
 22 23  1  0  0  0  0
 18 21  1  0  0  0  0
 17 23  1  0  0  0  0
 17 18  1  0  0  0  0
  8 11  1  0  0  0  0
 32 35  1  0  0  0  0
 41 42  1  0  0  0  0
  7  8  1  0  0  0  0
 31 32  1  0  0  0  0
 22 27  1  0  0  0  0
 22 28  1  0  0  0  0
 21 25  1  0  0  0  0
 21 26  1  0  0  0  0
 23 29  1  0  0  0  0
 23 30  1  0  0  0  0
 18 24  1  0  0  0  0
  3  4  1  0  0  0  0
  3  5  1  0  0  0  0
  3  6  1  0  0  0  0
 11 14  1  0  0  0  0
 11 15  1  0  0  0  0
 11 16  1  0  0  0  0
 35 38  1  0  0  0  0
 35 39  1  0  0  0  0
 35 40  1  0  0  0  0
 42 44  1  0  0  0  0
 42 45  1  0  0  0  0
 42 46  1  0  0  0  0
  8 13  1  0  0  0  0
 32 37  1  0  0  0  0
 31 36  1  0  0  0  0
 41 43  1  0  0  0  0
  7 12  1  0  0  0  0
M  END
$$$$

  -OEChem-05262214473D

 46 46  0     1  0  0  0  0  0999 V2000
   -0.6012   -3.2995    3.8205 C   0  0  0  0  0  0  0  0  0  0  0  0
   -0.6574   -4.4683    3.4568 O   0  0  0  0  0  0  0  0  0  0  0  0
   -0.4935   -2.9859    5.2760 C   0  0  0  0  0  0  0  0  0  0  0  0
   -1.4789   -2.8689    5.7550 H   0  0  0  0  0  0  0  0  0  0  0  0
    0.0123   -3.7847    5.8419 H   0  0  0  0  0  0  0  0  0  0  0  0
    0.0585   -2.0642    5.5199 H   0  0  0  0  0  0  0  0  0  0  0  0
   -0.6261   -2.1849    2.9917 N   0  0  0  0  0  0  0  0  0  0  0  0
   -0.7237   -2.2601    1.5650 C   0  0  2  0  0  0  0  0  0  0  0  0
    0.1695   -1.1513    1.0687 C   0  0  0  0  0  0  0  0  0  0  0  0
    0.3193   -0.1267    1.7365 O   0  0  0  0  0  0  0  0  0  0  0  0
   -2.1397   -2.0663    1.0750 C   0  0  0  0  0  0  0  0  0  0  0  0
   -0.5717   -1.2606    3.4238 H   0  0  0  0  0  0  0  0  0  0  0  0
   -0.3076   -3.2111    1.2363 H   0  0  0  0  0  0  0  0  0  0  0  0
   -2.5584   -1.1089    1.4061 H   0  0  0  0  0  0  0  0  0  0  0  0
   -2.1682   -2.0790   -0.0197 H   0  0  0  0  0  0  0  0  0  0  0  0
   -2.7965   -2.8601    1.4459 H   0  0  0  0  0  0  0  0  0  0  0  0
    0.7724   -1.3745   -0.1593 N   0  0  0  0  0  0  0  0  0  0  0  0
    0.5614   -2.5964   -0.9244 C   0  0  2  0  0  0  0  0  0  0  0  0
    1.0304   -3.7375   -0.0727 C   0  0  0  0  0  0  0  0  0  0  0  0
    1.4778   -4.7458   -0.6065 O   0  0  0  0  0  0  0  0  0  0  0  0
    1.4241   -2.4277   -2.1696 C   0  0  0  0  0  0  0  0  0  0  0  0
    1.5724   -0.9196   -2.3560 C   0  0  0  0  0  0  0  0  0  0  0  0
    1.5408   -0.3981   -0.9273 C   0  0  0  0  0  0  0  0  0  0  0  0
   -0.4994   -2.7392   -1.1516 H   0  0  0  0  0  0  0  0  0  0  0  0
    0.9067   -2.8423   -3.0430 H   0  0  0  0  0  0  0  0  0  0  0  0
    2.4070   -2.9021   -2.0888 H   0  0  0  0  0  0  0  0  0  0  0  0
    2.5335   -0.6864   -2.8287 H   0  0  0  0  0  0  0  0  0  0  0  0
    0.7747   -0.4997   -2.9754 H   0  0  0  0  0  0  0  0  0  0  0  0
    2.5402   -0.2801   -0.4996 H   0  0  0  0  0  0  0  0  0  0  0  0
    1.0101    0.5581   -0.8649 H   0  0  0  0  0  0  0  0  0  0  0  0
    0.8448   -3.3949    1.3397 N   0  0  0  0  0  0  0  0  0  0  0  0
    0.8775   -4.3462    2.4273 C   0  0  2  0  0  0  0  0  0  0  0  0
    1.8904   -5.4278    2.0758 C   0  0  0  0  0  0  0  0  0  0  0  0
    2.2356   -5.6741    0.9220 O   0  0  0  0  0  0  0  0  0  0  0  0
   -0.4963   -4.9486    2.6772 C   0  0  0  0  0  0  0  0  0  0  0  0
    1.0585   -2.4227    1.5410 H   0  0  0  0  0  0  0  0  0  0  0  0
    1.2178   -3.8008    3.3143 H   0  0  0  0  0  0  0  0  0  0  0  0
   -0.8539   -5.4990    1.7993 H   0  0  0  0  0  0  0  0  0  0  0  0
   -0.4758   -5.6475    3.5198 H   0  0  0  0  0  0  0  0  0  0  0  0
   -1.2300   -4.1665    2.9006 H   0  0  0  0  0  0  0  0  0  0  0  0
    2.3313   -6.1147    3.1983 N   0  0  0  0  0  0  0  0  0  0  0  0
    3.2858   -7.1962    3.1257 C   0  0  0  0  0  0  0  0  0  0  0  0
    2.0063   -5.8303    4.1177 H   0  0  0  0  0  0  0  0  0  0  0  0
    2.7504   -8.1535    3.0432 H   0  0  0  0  0  0  0  0  0  0  0  0
    3.9290   -7.0587    2.2440 H   0  0  0  0  0  0  0  0  0  0  0  0
    3.9054   -7.1998    4.0346 H   0  0  0  0  0  0  0  0  0  0  0  0
 18 19  1  0  0  0  0
 19 31  1  0  0  0  0
 19 20  2  0  0  0  0
  8  9  1  0  0  0  0
  9 17  1  0  0  0  0
  9 10  2  0  0  0  0
  1  3  1  0  0  0  0
  1  7  1  0  0  0  0
  1  2  2  0  0  0  0
 32 33  1  0  0  0  0
 33 41  1  0  0  0  0
 33 34  2  0  0  0  0
 21 22  1  0  0  0  0
 22 23  1  0  0  0  0
 18 21  1  0  0  0  0
 17 23  1  0  0  0  0
 17 18  1  0  0  0  0
  8 11  1  0  0  0  0
 32 35  1  0  0  0  0
 41 42  1  0  0  0  0
  7  8  1  0  0  0  0
 31 32  1  0  0  0  0
 22 27  1  0  0  0  0
 22 28  1  0  0  0  0
 21 25  1  0  0  0  0
 21 26  1  0  0  0  0
 23 29  1  0  0  0  0
 23 30  1  0  0  0  0
 18 24  1  0  0  0  0
  3  4  1  0  0  0  0
  3  5  1  0  0  0  0
  3  6  1  0  0  0  0
 11 14  1  0  0  0  0
 11 15  1  0  0  0  0
 11 16  1  0  0  0  0
 35 38  1  0  0  0  0
 35 39  1  0  0  0  0
 35 40  1  0  0  0  0
 42 44  1  0  0  0  0
 42 45  1  0  0  0  0
 42 46  1  0  0  0  0
  8 13  1  0  0  0  0
 32 37  1  0  0  0  0
 31 36  1  0  0  0  0
 41 43  1  0  0  0  0
  7 12  1  0  0  0  0
M  END
$$$$

  -OEChem-05262214473D

 46 46  0     1  0  0  0  0  0999 V2000
   -0.6012   -3.2995    3.8205 C   0  0  0  0  0  0  0  0  0  0  0  0
   -0.6574   -4.4683    3.4568 O   0  0  0  0  0  0  0  0  0  0  0  0
   -0.4935   -2.9859    5.2760 C   0  0  0  0  0  0  0  0  0  0  0  0
   -1.4789   -2.8689    5.7550 H   0  0  0  0  0  0  0  0  0  0  0  0
    0.0123   -3.7847    5.8419 H   0  0  0  0  0  0  0  0  0  0  0  0
    0.0585   -2.0642    5.5199 H   0  0  0  0  0  0  0  0  0  0  0  0
   -0.6261   -2.1849    2.9917 N   0  0  0  0  0  0  0  0  0  0  0  0
   -0.7237   -2.2601    1.5650 C   0  0  2  0  0  0  0  0  0  0  0  0
    0.1695   -1.1513    1.0687 C   0  0  0  0  0  0  0  0  0  0  0  0
    0.3193   -0.1267    1.7365 O   0  0  0  0  0  0  0  0  0  0  0  0
   -2.1397   -2.0663    1.0750 C   0  0  0  0  0  0  0  0  0  0  0  0
   -0.5717   -1.2606    3.4238 H   0  0  0  0  0  0  0  0  0  0  0  0
   -0.3076   -3.2111    1.2363 H   0  0  0  0  0  0  0  0  0  0  0  0
   -2.5584   -1.1089    1.4061 H   0  0  0  0  0  0  0  0  0  0  0  0
   -2.1682   -2.0790   -0.0197 H   0  0  0  0  0  0  0  0  0  0  0  0
   -2.7965   -2.8601    1.4459 H   0  0  0  0  0  0  0  0  0  0  0  0
    0.7724   -1.3745   -0.1593 N   0  0  0  0  0  0  0  0  0  0  0  0
    0.5614   -2.5964   -0.9244 C   0  0  2  0  0  0  0  0  0  0  0  0
    1.0304   -3.7375   -0.0727 C   0  0  0  0  0  0  0  0  0  0  0  0
    1.7224   -4.6181   -0.5702 O   0  0  0  0  0  0  0  0  0  0  0  0
    1.4241   -2.4277   -2.1696 C   0  0  0  0  0  0  0  0  0  0  0  0
    1.5724   -0.9196   -2.3560 C   0  0  0  0  0  0  0  0  0  0  0  0
    1.5408   -0.3981   -0.9273 C   0  0  0  0  0  0  0  0  0  0  0  0
   -0.4994   -2.7392   -1.1516 H   0  0  0  0  0  0  0  0  0  0  0  0
    0.9067   -2.8423   -3.0430 H   0  0  0  0  0  0  0  0  0  0  0  0
    2.4070   -2.9021   -2.0888 H   0  0  0  0  0  0  0  0  0  0  0  0
    2.5335   -0.6864   -2.8287 H   0  0  0  0  0  0  0  0  0  0  0  0
    0.7747   -0.4997   -2.9754 H   0  0  0  0  0  0  0  0  0  0  0  0
    2.5402   -0.2801   -0.4996 H   0  0  0  0  0  0  0  0  0  0  0  0
    1.0101    0.5581   -0.8649 H   0  0  0  0  0  0  0  0  0  0  0  0
    0.5276   -3.5608    1.2921 N   0  0  0  0  0  0  0  0  0  0  0  0
    0.4993   -4.5980    2.2983 C   0  0  2  0  0  0  0  0  0  0  0  0
    1.7160   -5.4898    2.0889 C   0  0  0  0  0  0  0  0  0  0  0  0
    2.3090   -5.5742    1.0155 O   0  0  0  0  0  0  0  0  0  0  0  0
   -0.7866   -5.4065    2.2235 C   0  0  0  0  0  0  0  0  0  0  0  0
    0.5455   -2.5921    1.5966 H   0  0  0  0  0  0  0  0  0  0  0  0
    0.5751   -4.0980    3.2700 H   0  0  0  0  0  0  0  0  0  0  0  0
   -0.8801   -5.9147    1.2568 H   0  0  0  0  0  0  0  0  0  0  0  0
   -0.8192   -6.1732    3.0045 H   0  0  0  0  0  0  0  0  0  0  0  0
   -1.6617   -4.7590    2.3445 H   0  0  0  0  0  0  0  0  0  0  0  0
    2.0355   -6.2130    3.2295 N   0  0  0  0  0  0  0  0  0  0  0  0
    3.1423   -7.1394    3.2808 C   0  0  0  0  0  0  0  0  0  0  0  0
    1.5008   -6.0658    4.0806 H   0  0  0  0  0  0  0  0  0  0  0  0
    2.7876   -8.1495    3.0280 H   0  0  0  0  0  0  0  0  0  0  0  0
    3.9128   -6.8302    2.5591 H   0  0  0  0  0  0  0  0  0  0  0  0
    3.5699   -7.1439    4.2942 H   0  0  0  0  0  0  0  0  0  0  0  0
 18 19  1  0  0  0  0
 19 31  1  0  0  0  0
 19 20  2  0  0  0  0
  8  9  1  0  0  0  0
  9 17  1  0  0  0  0
  9 10  2  0  0  0  0
  1  3  1  0  0  0  0
  1  7  1  0  0  0  0
  1  2  2  0  0  0  0
 32 33  1  0  0  0  0
 33 41  1  0  0  0  0
 33 34  2  0  0  0  0
 21 22  1  0  0  0  0
 22 23  1  0  0  0  0
 18 21  1  0  0  0  0
 17 23  1  0  0  0  0
 17 18  1  0  0  0  0
  8 11  1  0  0  0  0
 32 35  1  0  0  0  0
 41 42  1  0  0  0  0
  7  8  1  0  0  0  0
 31 32  1  0  0  0  0
 22 27  1  0  0  0  0
 22 28  1  0  0  0  0
 21 25  1  0  0  0  0
 21 26  1  0  0  0  0
 23 29  1  0  0  0  0
 23 30  1  0  0  0  0
 18 24  1  0  0  0  0
  3  4  1  0  0  0  0
  3  5  1  0  0  0  0
  3  6  1  0  0  0  0
 11 14  1  0  0  0  0
 11 15  1  0  0  0  0
 11 16  1  0  0  0  0
 35 38  1  0  0  0  0
 35 39  1  0  0  0  0
 35 40  1  0  0  0  0
 42 44  1  0  0  0  0
 42 45  1  0  0  0  0
 42 46  1  0  0  0  0
  8 13  1  0  0  0  0
 32 37  1  0  0  0  0
 31 36  1  0  0  0  0
 41 43  1  0  0  0  0
  7 12  1  0  0  0  0
M  END
$$$$

  -OEChem-05262214473D

 46 46  0     1  0  0  0  0  0999 V2000
   -0.6012   -3.2995    3.8205 C   0  0  0  0  0  0  0  0  0  0  0  0
   -0.6574   -4.4683    3.4568 O   0  0  0  0  0  0  0  0  0  0  0  0
   -0.4935   -2.9859    5.2760 C   0  0  0  0  0  0  0  0  0  0  0  0
   -1.4789   -2.8689    5.7550 H   0  0  0  0  0  0  0  0  0  0  0  0
    0.0123   -3.7847    5.8419 H   0  0  0  0  0  0  0  0  0  0  0  0
    0.0585   -2.0642    5.5199 H   0  0  0  0  0  0  0  0  0  0  0  0
   -0.6261   -2.1849    2.9917 N   0  0  0  0  0  0  0  0  0  0  0  0
   -0.7237   -2.2601    1.5650 C   0  0  2  0  0  0  0  0  0  0  0  0
    0.1695   -1.1513    1.0687 C   0  0  0  0  0  0  0  0  0  0  0  0
    0.3193   -0.1267    1.7365 O   0  0  0  0  0  0  0  0  0  0  0  0
   -2.1397   -2.0663    1.0750 C   0  0  0  0  0  0  0  0  0  0  0  0
   -0.5717   -1.2606    3.4238 H   0  0  0  0  0  0  0  0  0  0  0  0
   -0.3076   -3.2111    1.2363 H   0  0  0  0  0  0  0  0  0  0  0  0
   -2.5584   -1.1089    1.4061 H   0  0  0  0  0  0  0  0  0  0  0  0
   -2.1682   -2.0790   -0.0197 H   0  0  0  0  0  0  0  0  0  0  0  0
   -2.7965   -2.8601    1.4459 H   0  0  0  0  0  0  0  0  0  0  0  0
    0.7724   -1.3745   -0.1593 N   0  0  0  0  0  0  0  0  0  0  0  0
    0.5614   -2.5964   -0.9244 C   0  0  2  0  0  0  0  0  0  0  0  0
    1.0304   -3.7375   -0.0727 C   0  0  0  0  0  0  0  0  0  0  0  0
    1.9327   -4.4618   -0.4765 O   0  0  0  0  0  0  0  0  0  0  0  0
    1.4241   -2.4277   -2.1696 C   0  0  0  0  0  0  0  0  0  0  0  0
    1.5724   -0.9196   -2.3560 C   0  0  0  0  0  0  0  0  0  0  0  0
    1.5408   -0.3981   -0.9273 C   0  0  0  0  0  0  0  0  0  0  0  0
   -0.4994   -2.7392   -1.1516 H   0  0  0  0  0  0  0  0  0  0  0  0
    0.9067   -2.8423   -3.0430 H   0  0  0  0  0  0  0  0  0  0  0  0
    2.4070   -2.9021   -2.0888 H   0  0  0  0  0  0  0  0  0  0  0  0
    2.5335   -0.6864   -2.8287 H   0  0  0  0  0  0  0  0  0  0  0  0
    0.7747   -0.4997   -2.9754 H   0  0  0  0  0  0  0  0  0  0  0  0
    2.5402   -0.2801   -0.4996 H   0  0  0  0  0  0  0  0  0  0  0  0
    1.0101    0.5581   -0.8649 H   0  0  0  0  0  0  0  0  0  0  0  0
    0.2551   -3.7638    1.1702 N   0  0  0  0  0  0  0  0  0  0  0  0
    0.1964   -4.8864    2.0787 C   0  0  2  0  0  0  0  0  0  0  0  0
    1.5540   -5.5763    2.0622 C   0  0  0  0  0  0  0  0  0  0  0  0
    2.3469   -5.4744    1.1283 O   0  0  0  0  0  0  0  0  0  0  0  0
   -0.9103   -5.8547    1.6910 C   0  0  0  0  0  0  0  0  0  0  0  0
    0.0639   -2.8357    1.5355 H   0  0  0  0  0  0  0  0  0  0  0  0
    0.0067   -4.4760    3.0766 H   0  0  0  0  0  0  0  0  0  0  0  0
   -0.7375   -6.2762    0.6939 H   0  0  0  0  0  0  0  0  0  0  0  0
   -0.9720   -6.6898    2.3966 H   0  0  0  0  0  0  0  0  0  0  0  0
   -1.8821   -5.3496    1.6744 H   0  0  0  0  0  0  0  0  0  0  0  0
    1.7581   -6.3539    3.1935 N   0  0  0  0  0  0  0  0  0  0  0  0
    2.9648   -7.1182    3.4069 C   0  0  0  0  0  0  0  0  0  0  0  0
    1.0545   -6.3646    3.9260 H   0  0  0  0  0  0  0  0  0  0  0  0
    2.8260   -8.1390    3.0211 H   0  0  0  0  0  0  0  0  0  0  0  0
    3.8014   -6.6374    2.8788 H   0  0  0  0  0  0  0  0  0  0  0  0
    3.1865   -7.1603    4.4835 H   0  0  0  0  0  0  0  0  0  0  0  0
 18 19  1  0  0  0  0
 19 31  1  0  0  0  0
 19 20  2  0  0  0  0
  8  9  1  0  0  0  0
  9 17  1  0  0  0  0
  9 10  2  0  0  0  0
  1  3  1  0  0  0  0
  1  7  1  0  0  0  0
  1  2  2  0  0  0  0
 32 33  1  0  0  0  0
 33 41  1  0  0  0  0
 33 34  2  0  0  0  0
 21 22  1  0  0  0  0
 22 23  1  0  0  0  0
 18 21  1  0  0  0  0
 17 23  1  0  0  0  0
 17 18  1  0  0  0  0
  8 11  1  0  0  0  0
 32 35  1  0  0  0  0
 41 42  1  0  0  0  0
  7  8  1  0  0  0  0
 31 32  1  0  0  0  0
 22 27  1  0  0  0  0
 22 28  1  0  0  0  0
 21 25  1  0  0  0  0
 21 26  1  0  0  0  0
 23 29  1  0  0  0  0
 23 30  1  0  0  0  0
 18 24  1  0  0  0  0
  3  4  1  0  0  0  0
  3  5  1  0  0  0  0
  3  6  1  0  0  0  0
 11 14  1  0  0  0  0
 11 15  1  0  0  0  0
 11 16  1  0  0  0  0
 35 38  1  0  0  0  0
 35 39  1  0  0  0  0
 35 40  1  0  0  0  0
 42 44  1  0  0  0  0
 42 45  1  0  0  0  0
 42 46  1  0  0  0  0
  8 13  1  0  0  0  0
 32 37  1  0  0  0  0
 31 36  1  0  0  0  0
 41 43  1  0  0  0  0
  7 12  1  0  0  0  0
M  END
$$$$

  -OEChem-05262214473D

 46 46  0     1  0  0  0  0  0999 V2000
   -0.6012   -3.2995    3.8205 C   0  0  0  0  0  0  0  0  0  0  0  0
   -0.6574   -4.4683    3.4568 O   0  0  0  0  0  0  0  0  0  0  0  0
   -0.4935   -2.9859    5.2760 C   0  0  0  0  0  0  0  0  0  0  0  0
   -1.4789   -2.8689    5.7550 H   0  0  0  0  0  0  0  0  0  0  0  0
    0.0123   -3.7847    5.8419 H   0  0  0  0  0  0  0  0  0  0  0  0
    0.0585   -2.0642    5.5199 H   0  0  0  0  0  0  0  0  0  0  0  0
   -0.6261   -2.1849    2.9917 N   0  0  0  0  0  0  0  0  0  0  0  0
   -0.7237   -2.2601    1.5650 C   0  0  2  0  0  0  0  0  0  0  0  0
    0.1695   -1.1513    1.0687 C   0  0  0  0  0  0  0  0  0  0  0  0
    0.3193   -0.1267    1.7365 O   0  0  0  0  0  0  0  0  0  0  0  0
   -2.1397   -2.0663    1.0750 C   0  0  0  0  0  0  0  0  0  0  0  0
   -0.5717   -1.2606    3.4238 H   0  0  0  0  0  0  0  0  0  0  0  0
   -0.3076   -3.2111    1.2363 H   0  0  0  0  0  0  0  0  0  0  0  0
   -2.5584   -1.1089    1.4061 H   0  0  0  0  0  0  0  0  0  0  0  0
   -2.1682   -2.0790   -0.0197 H   0  0  0  0  0  0  0  0  0  0  0  0
   -2.7965   -2.8601    1.4459 H   0  0  0  0  0  0  0  0  0  0  0  0
    0.7724   -1.3745   -0.1593 N   0  0  0  0  0  0  0  0  0  0  0  0
    0.5614   -2.5964   -0.9244 C   0  0  2  0  0  0  0  0  0  0  0  0
    1.0304   -3.7375   -0.0727 C   0  0  0  0  0  0  0  0  0  0  0  0
    2.0944   -4.2874   -0.3319 O   0  0  0  0  0  0  0  0  0  0  0  0
    1.4241   -2.4277   -2.1696 C   0  0  0  0  0  0  0  0  0  0  0  0
    1.5724   -0.9196   -2.3560 C   0  0  0  0  0  0  0  0  0  0  0  0
    1.5408   -0.3981   -0.9273 C   0  0  0  0  0  0  0  0  0  0  0  0
   -0.4994   -2.7392   -1.1516 H   0  0  0  0  0  0  0  0  0  0  0  0
    0.9067   -2.8423   -3.0430 H   0  0  0  0  0  0  0  0  0  0  0  0
    2.4070   -2.9021   -2.0888 H   0  0  0  0  0  0  0  0  0  0  0  0
    2.5335   -0.6864   -2.8287 H   0  0  0  0  0  0  0  0  0  0  0  0
    0.7747   -0.4997   -2.9754 H   0  0  0  0  0  0  0  0  0  0  0  0
    2.5402   -0.2801   -0.4996 H   0  0  0  0  0  0  0  0  0  0  0  0
    1.0101    0.5581   -0.8649 H   0  0  0  0  0  0  0  0  0  0  0  0
    0.0457   -3.9901    0.9823 N   0  0  0  0  0  0  0  0  0  0  0  0
   -0.0106   -5.1917    1.7836 C   0  0  2  0  0  0  0  0  0  0  0  0
    1.4155   -5.6815    1.9974 C   0  0  0  0  0  0  0  0  0  0  0  0
    2.3465   -5.3816    1.2529 O   0  0  0  0  0  0  0  0  0  0  0  0
   -0.8589   -6.2628    1.1159 C   0  0  0  0  0  0  0  0  0  0  0  0
   -0.3534   -3.1368    1.3618 H   0  0  0  0  0  0  0  0  0  0  0  0
   -0.4486   -4.9091    2.7471 H   0  0  0  0  0  0  0  0  0  0  0  0
   -0.4357   -6.5588    0.1491 H   0  0  0  0  0  0  0  0  0  0  0  0
   -0.9239   -7.1620    1.7374 H   0  0  0  0  0  0  0  0  0  0  0  0
   -1.8760   -5.8984    0.9359 H   0  0  0  0  0  0  0  0  0  0  0  0
    1.5179   -6.5279    3.0925 N   0  0  0  0  0  0  0  0  0  0  0  0
    2.7654   -7.1341    3.4954 C   0  0  0  0  0  0  0  0  0  0  0  0
    0.6978   -6.7064    3.6646 H   0  0  0  0  0  0  0  0  0  0  0  0
    2.8629   -8.1225    3.0227 H   0  0  0  0  0  0  0  0  0  0  0  0
    3.6026   -6.4934    3.1813 H   0  0  0  0  0  0  0  0  0  0  0  0
    2.7812   -7.2478    4.5894 H   0  0  0  0  0  0  0  0  0  0  0  0
 18 19  1  0  0  0  0
 19 31  1  0  0  0  0
 19 20  2  0  0  0  0
  8  9  1  0  0  0  0
  9 17  1  0  0  0  0
  9 10  2  0  0  0  0
  1  3  1  0  0  0  0
  1  7  1  0  0  0  0
  1  2  2  0  0  0  0
 32 33  1  0  0  0  0
 33 41  1  0  0  0  0
 33 34  2  0  0  0  0
 21 22  1  0  0  0  0
 22 23  1  0  0  0  0
 18 21  1  0  0  0  0
 17 23  1  0  0  0  0
 17 18  1  0  0  0  0
  8 11  1  0  0  0  0
 32 35  1  0  0  0  0
 41 42  1  0  0  0  0
  7  8  1  0  0  0  0
 31 32  1  0  0  0  0
 22 27  1  0  0  0  0
 22 28  1  0  0  0  0
 21 25  1  0  0  0  0
 21 26  1  0  0  0  0
 23 29  1  0  0  0  0
 23 30  1  0  0  0  0
 18 24  1  0  0  0  0
  3  4  1  0  0  0  0
  3  5  1  0  0  0  0
  3  6  1  0  0  0  0
 11 14  1  0  0  0  0
 11 15  1  0  0  0  0
 11 16  1  0  0  0  0
 35 38  1  0  0  0  0
 35 39  1  0  0  0  0
 35 40  1  0  0  0  0
 42 44  1  0  0  0  0
 42 45  1  0  0  0  0
 42 46  1  0  0  0  0
  8 13  1  0  0  0  0
 32 37  1  0  0  0  0
 31 36  1  0  0  0  0
 41 43  1  0  0  0  0
  7 12  1  0  0  0  0
M  END
$$$$

  -OEChem-05262214473D

 46 46  0     1  0  0  0  0  0999 V2000
   -0.6012   -3.2995    3.8205 C   0  0  0  0  0  0  0  0  0  0  0  0
   -0.6574   -4.4683    3.4568 O   0  0  0  0  0  0  0  0  0  0  0  0
   -0.4935   -2.9859    5.2760 C   0  0  0  0  0  0  0  0  0  0  0  0
   -1.4789   -2.8689    5.7550 H   0  0  0  0  0  0  0  0  0  0  0  0
    0.0123   -3.7847    5.8419 H   0  0  0  0  0  0  0  0  0  0  0  0
    0.0585   -2.0642    5.5199 H   0  0  0  0  0  0  0  0  0  0  0  0
   -0.6261   -2.1849    2.9917 N   0  0  0  0  0  0  0  0  0  0  0  0
   -0.7237   -2.2601    1.5650 C   0  0  2  0  0  0  0  0  0  0  0  0
    0.1695   -1.1513    1.0687 C   0  0  0  0  0  0  0  0  0  0  0  0
    0.3193   -0.1267    1.7365 O   0  0  0  0  0  0  0  0  0  0  0  0
   -2.1397   -2.0663    1.0750 C   0  0  0  0  0  0  0  0  0  0  0  0
   -0.5717   -1.2606    3.4238 H   0  0  0  0  0  0  0  0  0  0  0  0
   -0.3076   -3.2111    1.2363 H   0  0  0  0  0  0  0  0  0  0  0  0
   -2.5584   -1.1089    1.4061 H   0  0  0  0  0  0  0  0  0  0  0  0
   -2.1682   -2.0790   -0.0197 H   0  0  0  0  0  0  0  0  0  0  0  0
   -2.7965   -2.8601    1.4459 H   0  0  0  0  0  0  0  0  0  0  0  0
    0.7724   -1.3745   -0.1593 N   0  0  0  0  0  0  0  0  0  0  0  0
    0.5614   -2.5964   -0.9244 C   0  0  2  0  0  0  0  0  0  0  0  0
    1.0304   -3.7375   -0.0727 C   0  0  0  0  0  0  0  0  0  0  0  0
    2.1965   -4.1069   -0.1463 O   0  0  0  0  0  0  0  0  0  0  0  0
    1.4241   -2.4277   -2.1696 C   0  0  0  0  0  0  0  0  0  0  0  0
    1.5724   -0.9196   -2.3560 C   0  0  0  0  0  0  0  0  0  0  0  0
    1.5408   -0.3981   -0.9273 C   0  0  0  0  0  0  0  0  0  0  0  0
   -0.4994   -2.7392   -1.1516 H   0  0  0  0  0  0  0  0  0  0  0  0
    0.9067   -2.8423   -3.0430 H   0  0  0  0  0  0  0  0  0  0  0  0
    2.4070   -2.9021   -2.0888 H   0  0  0  0  0  0  0  0  0  0  0  0
    2.5335   -0.6864   -2.8287 H   0  0  0  0  0  0  0  0  0  0  0  0
    0.7747   -0.4997   -2.9754 H   0  0  0  0  0  0  0  0  0  0  0  0
    2.5402   -0.2801   -0.4996 H   0  0  0  0  0  0  0  0  0  0  0  0
    1.0101    0.5581   -0.8649 H   0  0  0  0  0  0  0  0  0  0  0  0
   -0.0864   -4.2243    0.7413 N   0  0  0  0  0  0  0  0  0  0  0  0
   -0.1075   -5.4931    1.4331 C   0  0  2  0  0  0  0  0  0  0  0  0
    1.3100   -5.7983    1.8991 C   0  0  0  0  0  0  0  0  0  0  0  0
    2.3080   -5.3020    1.3807 O   0  0  0  0  0  0  0  0  0  0  0  0
   -0.6360   -6.6028    0.5376 C   0  0  0  0  0  0  0  0  0  0  0  0
   -0.6780   -3.4749    1.0875 H   0  0  0  0  0  0  0  0  0  0  0  0
   -0.7598   -5.3676    2.3041 H   0  0  0  0  0  0  0  0  0  0  0  0
    0.0047   -6.7432   -0.3406 H   0  0  0  0  0  0  0  0  0  0  0  0
   -0.6782   -7.5577    1.0719 H   0  0  0  0  0  0  0  0  0  0  0  0
   -1.6441   -6.3677    0.1793 H   0  0  0  0  0  0  0  0  0  0  0  0
    1.3315   -6.7232    2.9336 N   0  0  0  0  0  0  0  0  0  0  0  0
    2.5577   -7.1859    3.5404 C   0  0  0  0  0  0  0  0  0  0  0  0
    0.4550   -7.0677    3.3141 H   0  0  0  0  0  0  0  0  0  0  0  0
    2.8959   -8.1014    3.0329 H   0  0  0  0  0  0  0  0  0  0  0  0
    3.3297   -6.4080    3.4460 H   0  0  0  0  0  0  0  0  0  0  0  0
    2.3817   -7.4005    4.6048 H   0  0  0  0  0  0  0  0  0  0  0  0
 18 19  1  0  0  0  0
 19 31  1  0  0  0  0
 19 20  2  0  0  0  0
  8  9  1  0  0  0  0
  9 17  1  0  0  0  0
  9 10  2  0  0  0  0
  1  3  1  0  0  0  0
  1  7  1  0  0  0  0
  1  2  2  0  0  0  0
 32 33  1  0  0  0  0
 33 41  1  0  0  0  0
 33 34  2  0  0  0  0
 21 22  1  0  0  0  0
 22 23  1  0  0  0  0
 18 21  1  0  0  0  0
 17 23  1  0  0  0  0
 17 18  1  0  0  0  0
  8 11  1  0  0  0  0
 32 35  1  0  0  0  0
 41 42  1  0  0  0  0
  7  8  1  0  0  0  0
 31 32  1  0  0  0  0
 22 27  1  0  0  0  0
 22 28  1  0  0  0  0
 21 25  1  0  0  0  0
 21 26  1  0  0  0  0
 23 29  1  0  0  0  0
 23 30  1  0  0  0  0
 18 24  1  0  0  0  0
  3  4  1  0  0  0  0
  3  5  1  0  0  0  0
  3  6  1  0  0  0  0
 11 14  1  0  0  0  0
 11 15  1  0  0  0  0
 11 16  1  0  0  0  0
 35 38  1  0  0  0  0
 35 39  1  0  0  0  0
 35 40  1  0  0  0  0
 42 44  1  0  0  0  0
 42 45  1  0  0  0  0
 42 46  1  0  0  0  0
  8 13  1  0  0  0  0
 32 37  1  0  0  0  0
 31 36  1  0  0  0  0
 41 43  1  0  0  0  0
  7 12  1  0  0  0  0
M  END
$$$$

  -OEChem-05262214473D

 46 46  0     1  0  0  0  0  0999 V2000
   -0.6012   -3.2995    3.8205 C   0  0  0  0  0  0  0  0  0  0  0  0
   -0.6574   -4.4683    3.4568 O   0  0  0  0  0  0  0  0  0  0  0  0
   -0.4935   -2.9859    5.2760 C   0  0  0  0  0  0  0  0  0  0  0  0
   -1.4789   -2.8689    5.7550 H   0  0  0  0  0  0  0  0  0  0  0  0
    0.0123   -3.7847    5.8419 H   0  0  0  0  0  0  0  0  0  0  0  0
    0.0585   -2.0642    5.5199 H   0  0  0  0  0  0  0  0  0  0  0  0
   -0.6261   -2.1849    2.9917 N   0  0  0  0  0  0  0  0  0  0  0  0
   -0.7237   -2.2601    1.5650 C   0  0  2  0  0  0  0  0  0  0  0  0
    0.1695   -1.1513    1.0687 C   0  0  0  0  0  0  0  0  0  0  0  0
    0.3193   -0.1267    1.7365 O   0  0  0  0  0  0  0  0  0  0  0  0
   -2.1397   -2.0663    1.0750 C   0  0  0  0  0  0  0  0  0  0  0  0
   -0.5717   -1.2606    3.4238 H   0  0  0  0  0  0  0  0  0  0  0  0
   -0.3076   -3.2111    1.2363 H   0  0  0  0  0  0  0  0  0  0  0  0
   -2.5584   -1.1089    1.4061 H   0  0  0  0  0  0  0  0  0  0  0  0
   -2.1682   -2.0790   -0.0197 H   0  0  0  0  0  0  0  0  0  0  0  0
   -2.7965   -2.8601    1.4459 H   0  0  0  0  0  0  0  0  0  0  0  0
    0.7724   -1.3745   -0.1593 N   0  0  0  0  0  0  0  0  0  0  0  0
    0.5614   -2.5964   -0.9244 C   0  0  2  0  0  0  0  0  0  0  0  0
    1.0304   -3.7375   -0.0727 C   0  0  0  0  0  0  0  0  0  0  0  0
    2.2320   -3.9326    0.0677 O   0  0  0  0  0  0  0  0  0  0  0  0
    1.4241   -2.4277   -2.1696 C   0  0  0  0  0  0  0  0  0  0  0  0
    1.5724   -0.9196   -2.3560 C   0  0  0  0  0  0  0  0  0  0  0  0
    1.5408   -0.3981   -0.9273 C   0  0  0  0  0  0  0  0  0  0  0  0
   -0.4994   -2.7392   -1.1516 H   0  0  0  0  0  0  0  0  0  0  0  0
    0.9067   -2.8423   -3.0430 H   0  0  0  0  0  0  0  0  0  0  0  0
    2.4070   -2.9021   -2.0888 H   0  0  0  0  0  0  0  0  0  0  0  0
    2.5335   -0.6864   -2.8287 H   0  0  0  0  0  0  0  0  0  0  0  0
    0.7747   -0.4997   -2.9754 H   0  0  0  0  0  0  0  0  0  0  0  0
    2.5402   -0.2801   -0.4996 H   0  0  0  0  0  0  0  0  0  0  0  0
    1.0101    0.5581   -0.8649 H   0  0  0  0  0  0  0  0  0  0  0  0
   -0.1319   -4.4503    0.4635 N   0  0  0  0  0  0  0  0  0  0  0  0
   -0.0876   -5.7701    1.0510 C   0  0  2  0  0  0  0  0  0  0  0  0
    1.2446   -5.9187    1.7738 C   0  0  0  0  0  0  0  0  0  0  0  0
    2.2339   -5.2412    1.5029 O   0  0  0  0  0  0  0  0  0  0  0  0
   -0.2568   -6.8517   -0.0047 C   0  0  0  0  0  0  0  0  0  0  0  0
   -0.8878   -3.8271    0.7312 H   0  0  0  0  0  0  0  0  0  0  0  0
   -0.9057   -5.8205    1.7777 H   0  0  0  0  0  0  0  0  0  0  0  0
    0.5537   -6.8170   -0.7418 H   0  0  0  0  0  0  0  0  0  0  0  0
   -0.2516   -7.8498    0.4455 H   0  0  0  0  0  0  0  0  0  0  0  0
   -1.2019   -6.7256   -0.5438 H   0  0  0  0  0  0  0  0  0  0  0  0
    1.2113   -6.9263    2.7276 N   0  0  0  0  0  0  0  0  0  0  0  0
    2.3558   -7.2701    3.5387 C   0  0  0  0  0  0  0  0  0  0  0  0
    0.3426   -7.4241    2.8985 H   0  0  0  0  0  0  0  0  0  0  0  0
    2.9225   -8.0769    3.0510 H   0  0  0  0  0  0  0  0  0  0  0  0
    3.0014   -6.3871    3.6548 H   0  0  0  0  0  0  0  0  0  0  0  0
    2.0153   -7.6080    4.5286 H   0  0  0  0  0  0  0  0  0  0  0  0
 18 19  1  0  0  0  0
 19 31  1  0  0  0  0
 19 20  2  0  0  0  0
  8  9  1  0  0  0  0
  9 17  1  0  0  0  0
  9 10  2  0  0  0  0
  1  3  1  0  0  0  0
  1  7  1  0  0  0  0
  1  2  2  0  0  0  0
 32 33  1  0  0  0  0
 33 41  1  0  0  0  0
 33 34  2  0  0  0  0
 21 22  1  0  0  0  0
 22 23  1  0  0  0  0
 18 21  1  0  0  0  0
 17 23  1  0  0  0  0
 17 18  1  0  0  0  0
  8 11  1  0  0  0  0
 32 35  1  0  0  0  0
 41 42  1  0  0  0  0
  7  8  1  0  0  0  0
 31 32  1  0  0  0  0
 22 27  1  0  0  0  0
 22 28  1  0  0  0  0
 21 25  1  0  0  0  0
 21 26  1  0  0  0  0
 23 29  1  0  0  0  0
 23 30  1  0  0  0  0
 18 24  1  0  0  0  0
  3  4  1  0  0  0  0
  3  5  1  0  0  0  0
  3  6  1  0  0  0  0
 11 14  1  0  0  0  0
 11 15  1  0  0  0  0
 11 16  1  0  0  0  0
 35 38  1  0  0  0  0
 35 39  1  0  0  0  0
 35 40  1  0  0  0  0
 42 44  1  0  0  0  0
 42 45  1  0  0  0  0
 42 46  1  0  0  0  0
  8 13  1  0  0  0  0
 32 37  1  0  0  0  0
 31 36  1  0  0  0  0
 41 43  1  0  0  0  0
  7 12  1  0  0  0  0
M  END
$$$$

  -OEChem-05262214473D

 46 46  0     1  0  0  0  0  0999 V2000
   -0.6012   -3.2995    3.8205 C   0  0  0  0  0  0  0  0  0  0  0  0
   -0.6574   -4.4683    3.4568 O   0  0  0  0  0  0  0  0  0  0  0  0
   -0.4935   -2.9859    5.2760 C   0  0  0  0  0  0  0  0  0  0  0  0
   -1.4789   -2.8689    5.7550 H   0  0  0  0  0  0  0  0  0  0  0  0
    0.0123   -3.7847    5.8419 H   0  0  0  0  0  0  0  0  0  0  0  0
    0.0585   -2.0642    5.5199 H   0  0  0  0  0  0  0  0  0  0  0  0
   -0.6261   -2.1849    2.9917 N   0  0  0  0  0  0  0  0  0  0  0  0
   -0.7237   -2.2601    1.5650 C   0  0  2  0  0  0  0  0  0  0  0  0
    0.1695   -1.1513    1.0687 C   0  0  0  0  0  0  0  0  0  0  0  0
    0.3193   -0.1267    1.7365 O   0  0  0  0  0  0  0  0  0  0  0  0
   -2.1397   -2.0663    1.0750 C   0  0  0  0  0  0  0  0  0  0  0  0
   -0.5717   -1.2606    3.4238 H   0  0  0  0  0  0  0  0  0  0  0  0
   -0.3076   -3.2111    1.2363 H   0  0  0  0  0  0  0  0  0  0  0  0
   -2.5584   -1.1089    1.4061 H   0  0  0  0  0  0  0  0  0  0  0  0
   -2.1682   -2.0790   -0.0197 H   0  0  0  0  0  0  0  0  0  0  0  0
   -2.7965   -2.8601    1.4459 H   0  0  0  0  0  0  0  0  0  0  0  0
    0.7724   -1.3745   -0.1593 N   0  0  0  0  0  0  0  0  0  0  0  0
    0.5614   -2.5964   -0.9244 C   0  0  2  0  0  0  0  0  0  0  0  0
    1.0304   -3.7375   -0.0727 C   0  0  0  0  0  0  0  0  0  0  0  0
    2.1985   -3.7763    0.2956 O   0  0  0  0  0  0  0  0  0  0  0  0
    1.4241   -2.4277   -2.1696 C   0  0  0  0  0  0  0  0  0  0  0  0
    1.5724   -0.9196   -2.3560 C   0  0  0  0  0  0  0  0  0  0  0  0
    1.5408   -0.3981   -0.9273 C   0  0  0  0  0  0  0  0  0  0  0  0
   -0.4994   -2.7392   -1.1516 H   0  0  0  0  0  0  0  0  0  0  0  0
    0.9067   -2.8423   -3.0430 H   0  0  0  0  0  0  0  0  0  0  0  0
    2.4070   -2.9021   -2.0888 H   0  0  0  0  0  0  0  0  0  0  0  0
    2.5335   -0.6864   -2.8287 H   0  0  0  0  0  0  0  0  0  0  0  0
    0.7747   -0.4997   -2.9754 H   0  0  0  0  0  0  0  0  0  0  0  0
    2.5402   -0.2801   -0.4996 H   0  0  0  0  0  0  0  0  0  0  0  0
    1.0101    0.5581   -0.8649 H   0  0  0  0  0  0  0  0  0  0  0  0
   -0.0880   -4.6529    0.1679 N   0  0  0  0  0  0  0  0  0  0  0  0
    0.0475   -6.0039    0.6633 C   0  0  2  0  0  0  0  0  0  0  0  0
    1.2238   -6.0344    1.6302 C   0  0  0  0  0  0  0  0  0  0  0  0
    2.1294   -5.2033    1.6113 O   0  0  0  0  0  0  0  0  0  0  0  0
    0.2529   -6.9924   -0.4739 C   0  0  0  0  0  0  0  0  0  0  0  0
   -0.9684   -4.1692    0.3173 H   0  0  0  0  0  0  0  0  0  0  0  0
   -0.8764   -6.2367    1.2039 H   0  0  0  0  0  0  0  0  0  0  0  0
    1.1739   -6.7750   -1.0272 H   0  0  0  0  0  0  0  0  0  0  0  0
    0.3269   -8.0186   -0.0992 H   0  0  0  0  0  0  0  0  0  0  0  0
   -0.5797   -6.9478   -1.1842 H   0  0  0  0  0  0  0  0  0  0  0  0
    1.1658   -7.1235    2.4885 N   0  0  0  0  0  0  0  0  0  0  0  0
    2.1735   -7.3810    3.4905 C   0  0  0  0  0  0  0  0  0  0  0  0
    0.3683   -7.7512    2.4461 H   0  0  0  0  0  0  0  0  0  0  0  0
    2.9411   -8.0509    3.0757 H   0  0  0  0  0  0  0  0  0  0  0  0
    2.6401   -6.4321    3.7935 H   0  0  0  0  0  0  0  0  0  0  0  0
    1.7069   -7.8561    4.3661 H   0  0  0  0  0  0  0  0  0  0  0  0
 18 19  1  0  0  0  0
 19 31  1  0  0  0  0
 19 20  2  0  0  0  0
  8  9  1  0  0  0  0
  9 17  1  0  0  0  0
  9 10  2  0  0  0  0
  1  3  1  0  0  0  0
  1  7  1  0  0  0  0
  1  2  2  0  0  0  0
 32 33  1  0  0  0  0
 33 41  1  0  0  0  0
 33 34  2  0  0  0  0
 21 22  1  0  0  0  0
 22 23  1  0  0  0  0
 18 21  1  0  0  0  0
 17 23  1  0  0  0  0
 17 18  1  0  0  0  0
  8 11  1  0  0  0  0
 32 35  1  0  0  0  0
 41 42  1  0  0  0  0
  7  8  1  0  0  0  0
 31 32  1  0  0  0  0
 22 27  1  0  0  0  0
 22 28  1  0  0  0  0
 21 25  1  0  0  0  0
 21 26  1  0  0  0  0
 23 29  1  0  0  0  0
 23 30  1  0  0  0  0
 18 24  1  0  0  0  0
  3  4  1  0  0  0  0
  3  5  1  0  0  0  0
  3  6  1  0  0  0  0
 11 14  1  0  0  0  0
 11 15  1  0  0  0  0
 11 16  1  0  0  0  0
 35 38  1  0  0  0  0
 35 39  1  0  0  0  0
 35 40  1  0  0  0  0
 42 44  1  0  0  0  0
 42 45  1  0  0  0  0
 42 46  1  0  0  0  0
  8 13  1  0  0  0  0
 32 37  1  0  0  0  0
 31 36  1  0  0  0  0
 41 43  1  0  0  0  0
  7 12  1  0  0  0  0
M  END
$$$$

  -OEChem-05262214473D

 46 46  0     1  0  0  0  0  0999 V2000
   -0.6012   -3.2995    3.8205 C   0  0  0  0  0  0  0  0  0  0  0  0
   -0.6574   -4.4683    3.4568 O   0  0  0  0  0  0  0  0  0  0  0  0
   -0.4935   -2.9859    5.2760 C   0  0  0  0  0  0  0  0  0  0  0  0
   -1.4789   -2.8689    5.7550 H   0  0  0  0  0  0  0  0  0  0  0  0
    0.0123   -3.7847    5.8419 H   0  0  0  0  0  0  0  0  0  0  0  0
    0.0585   -2.0642    5.5199 H   0  0  0  0  0  0  0  0  0  0  0  0
   -0.6261   -2.1849    2.9917 N   0  0  0  0  0  0  0  0  0  0  0  0
   -0.7237   -2.2601    1.5650 C   0  0  2  0  0  0  0  0  0  0  0  0
    0.1695   -1.1513    1.0687 C   0  0  0  0  0  0  0  0  0  0  0  0
    0.3193   -0.1267    1.7365 O   0  0  0  0  0  0  0  0  0  0  0  0
   -2.1397   -2.0663    1.0750 C   0  0  0  0  0  0  0  0  0  0  0  0
   -0.5717   -1.2606    3.4238 H   0  0  0  0  0  0  0  0  0  0  0  0
   -0.3076   -3.2111    1.2363 H   0  0  0  0  0  0  0  0  0  0  0  0
   -2.5584   -1.1089    1.4061 H   0  0  0  0  0  0  0  0  0  0  0  0
   -2.1682   -2.0790   -0.0197 H   0  0  0  0  0  0  0  0  0  0  0  0
   -2.7965   -2.8601    1.4459 H   0  0  0  0  0  0  0  0  0  0  0  0
    0.7724   -1.3745   -0.1593 N   0  0  0  0  0  0  0  0  0  0  0  0
    0.5614   -2.5964   -0.9244 C   0  0  2  0  0  0  0  0  0  0  0  0
    1.0304   -3.7375   -0.0727 C   0  0  0  0  0  0  0  0  0  0  0  0
    2.0983   -3.6487    0.5217 O   0  0  0  0  0  0  0  0  0  0  0  0
    1.4241   -2.4277   -2.1696 C   0  0  0  0  0  0  0  0  0  0  0  0
    1.5724   -0.9196   -2.3560 C   0  0  0  0  0  0  0  0  0  0  0  0
    1.5408   -0.3981   -0.9273 C   0  0  0  0  0  0  0  0  0  0  0  0
   -0.4994   -2.7392   -1.1516 H   0  0  0  0  0  0  0  0  0  0  0  0
    0.9067   -2.8423   -3.0430 H   0  0  0  0  0  0  0  0  0  0  0  0
    2.4070   -2.9021   -2.0888 H   0  0  0  0  0  0  0  0  0  0  0  0
    2.5335   -0.6864   -2.8287 H   0  0  0  0  0  0  0  0  0  0  0  0
    0.7747   -0.4997   -2.9754 H   0  0  0  0  0  0  0  0  0  0  0  0
    2.5402   -0.2801   -0.4996 H   0  0  0  0  0  0  0  0  0  0  0  0
    1.0101    0.5581   -0.8649 H   0  0  0  0  0  0  0  0  0  0  0  0
    0.0424   -4.8182   -0.1254 N   0  0  0  0  0  0  0  0  0  0  0  0
    0.2888   -6.1784    0.2966 C   0  0  2  0  0  0  0  0  0  0  0  0
    1.2490   -6.1376    1.4780 C   0  0  0  0  0  0  0  0  0  0  0  0
    2.0014   -5.1908    1.6985 O   0  0  0  0  0  0  0  0  0  0  0  0
    0.8584   -7.0153   -0.8382 C   0  0  0  0  0  0  0  0  0  0  0  0
   -0.9145   -4.4780   -0.1262 H   0  0  0  0  0  0  0  0  0  0  0  0
   -0.6738   -6.5879    0.6217 H   0  0  0  0  0  0  0  0  0  0  0  0
    1.8230   -6.6202   -1.1772 H   0  0  0  0  0  0  0  0  0  0  0  0
    1.0177   -8.0524   -0.5250 H   0  0  0  0  0  0  0  0  0  0  0  0
    0.1800   -7.0191   -1.6982 H   0  0  0  0  0  0  0  0  0  0  0  0
    1.1979   -7.3013    2.2326 N   0  0  0  0  0  0  0  0  0  0  0  0
    2.0233   -7.5110    3.3991 C   0  0  0  0  0  0  0  0  0  0  0  0
    0.5304   -8.0267    1.9876 H   0  0  0  0  0  0  0  0  0  0  0  0
    2.9504   -8.0250    3.1053 H   0  0  0  0  0  0  0  0  0  0  0  0
    2.2705   -6.5399    3.8526 H   0  0  0  0  0  0  0  0  0  0  0  0
    1.4775   -8.1279    4.1282 H   0  0  0  0  0  0  0  0  0  0  0  0
 18 19  1  0  0  0  0
 19 31  1  0  0  0  0
 19 20  2  0  0  0  0
  8  9  1  0  0  0  0
  9 17  1  0  0  0  0
  9 10  2  0  0  0  0
  1  3  1  0  0  0  0
  1  7  1  0  0  0  0
  1  2  2  0  0  0  0
 32 33  1  0  0  0  0
 33 41  1  0  0  0  0
 33 34  2  0  0  0  0
 21 22  1  0  0  0  0
 22 23  1  0  0  0  0
 18 21  1  0  0  0  0
 17 23  1  0  0  0  0
 17 18  1  0  0  0  0
  8 11  1  0  0  0  0
 32 35  1  0  0  0  0
 41 42  1  0  0  0  0
  7  8  1  0  0  0  0
 31 32  1  0  0  0  0
 22 27  1  0  0  0  0
 22 28  1  0  0  0  0
 21 25  1  0  0  0  0
 21 26  1  0  0  0  0
 23 29  1  0  0  0  0
 23 30  1  0  0  0  0
 18 24  1  0  0  0  0
  3  4  1  0  0  0  0
  3  5  1  0  0  0  0
  3  6  1  0  0  0  0
 11 14  1  0  0  0  0
 11 15  1  0  0  0  0
 11 16  1  0  0  0  0
 35 38  1  0  0  0  0
 35 39  1  0  0  0  0
 35 40  1  0  0  0  0
 42 44  1  0  0  0  0
 42 45  1  0  0  0  0
 42 46  1  0  0  0  0
  8 13  1  0  0  0  0
 32 37  1  0  0  0  0
 31 36  1  0  0  0  0
 41 43  1  0  0  0  0
  7 12  1  0  0  0  0
M  END
$$$$

  -OEChem-05262214473D

 46 46  0     1  0  0  0  0  0999 V2000
   -0.6012   -3.2995    3.8205 C   0  0  0  0  0  0  0  0  0  0  0  0
   -0.6574   -4.4683    3.4568 O   0  0  0  0  0  0  0  0  0  0  0  0
   -0.4935   -2.9859    5.2760 C   0  0  0  0  0  0  0  0  0  0  0  0
   -1.4789   -2.8689    5.7550 H   0  0  0  0  0  0  0  0  0  0  0  0
    0.0123   -3.7847    5.8419 H   0  0  0  0  0  0  0  0  0  0  0  0
    0.0585   -2.0642    5.5199 H   0  0  0  0  0  0  0  0  0  0  0  0
   -0.6261   -2.1849    2.9917 N   0  0  0  0  0  0  0  0  0  0  0  0
   -0.7237   -2.2601    1.5650 C   0  0  2  0  0  0  0  0  0  0  0  0
    0.1695   -1.1513    1.0687 C   0  0  0  0  0  0  0  0  0  0  0  0
    0.3193   -0.1267    1.7365 O   0  0  0  0  0  0  0  0  0  0  0  0
   -2.1397   -2.0663    1.0750 C   0  0  0  0  0  0  0  0  0  0  0  0
   -0.5717   -1.2606    3.4238 H   0  0  0  0  0  0  0  0  0  0  0  0
   -0.3076   -3.2111    1.2363 H   0  0  0  0  0  0  0  0  0  0  0  0
   -2.5584   -1.1089    1.4061 H   0  0  0  0  0  0  0  0  0  0  0  0
   -2.1682   -2.0790   -0.0197 H   0  0  0  0  0  0  0  0  0  0  0  0
   -2.7965   -2.8601    1.4459 H   0  0  0  0  0  0  0  0  0  0  0  0
    0.7724   -1.3745   -0.1593 N   0  0  0  0  0  0  0  0  0  0  0  0
    0.5614   -2.5964   -0.9244 C   0  0  2  0  0  0  0  0  0  0  0  0
    1.0304   -3.7375   -0.0727 C   0  0  0  0  0  0  0  0  0  0  0  0
    1.9382   -3.5585    0.7307 O   0  0  0  0  0  0  0  0  0  0  0  0
    1.4241   -2.4277   -2.1696 C   0  0  0  0  0  0  0  0  0  0  0  0
    1.5724   -0.9196   -2.3560 C   0  0  0  0  0  0  0  0  0  0  0  0
    1.5408   -0.3981   -0.9273 C   0  0  0  0  0  0  0  0  0  0  0  0
   -0.4994   -2.7392   -1.1516 H   0  0  0  0  0  0  0  0  0  0  0  0
    0.9067   -2.8423   -3.0430 H   0  0  0  0  0  0  0  0  0  0  0  0
    2.4070   -2.9021   -2.0888 H   0  0  0  0  0  0  0  0  0  0  0  0
    2.5335   -0.6864   -2.8287 H   0  0  0  0  0  0  0  0  0  0  0  0
    0.7747   -0.4997   -2.9754 H   0  0  0  0  0  0  0  0  0  0  0  0
    2.5402   -0.2801   -0.4996 H   0  0  0  0  0  0  0  0  0  0  0  0
    1.0101    0.5581   -0.8649 H   0  0  0  0  0  0  0  0  0  0  0  0
    0.2505   -4.9349   -0.3964 N   0  0  0  0  0  0  0  0  0  0  0  0
    0.6197   -6.2818   -0.0242 C   0  0  2  0  0  0  0  0  0  0  0  0
    1.3186   -6.2212    1.3277 C   0  0  0  0  0  0  0  0  0  0  0  0
    1.8588   -5.2046    1.7586 O   0  0  0  0  0  0  0  0  0  0  0  0
    1.5184   -6.9190   -1.0726 C   0  0  0  0  0  0  0  0  0  0  0  0
   -0.7296   -4.7325   -0.5690 H   0  0  0  0  0  0  0  0  0  0  0  0
   -0.3118   -6.8503    0.0707 H   0  0  0  0  0  0  0  0  0  0  0  0
    2.4568   -6.3631   -1.1817 H   0  0  0  0  0  0  0  0  0  0  0  0
    1.7739   -7.9490   -0.8030 H   0  0  0  0  0  0  0  0  0  0  0  0
    1.0257   -6.9346   -2.0507 H   0  0  0  0  0  0  0  0  0  0  0  0
    1.3054   -7.4476    1.9773 N   0  0  0  0  0  0  0  0  0  0  0  0
    1.9152   -7.6513    3.2706 C   0  0  0  0  0  0  0  0  0  0  0  0
    0.8178   -8.2319    1.5544 H   0  0  0  0  0  0  0  0  0  0  0  0
    2.9497   -8.0010    3.1378 H   0  0  0  0  0  0  0  0  0  0  0  0
    1.9176   -6.7031    3.8282 H   0  0  0  0  0  0  0  0  0  0  0  0
    1.3427   -8.4050    3.8312 H   0  0  0  0  0  0  0  0  0  0  0  0
 18 19  1  0  0  0  0
 19 31  1  0  0  0  0
 19 20  2  0  0  0  0
  8  9  1  0  0  0  0
  9 17  1  0  0  0  0
  9 10  2  0  0  0  0
  1  3  1  0  0  0  0
  1  7  1  0  0  0  0
  1  2  2  0  0  0  0
 32 33  1  0  0  0  0
 33 41  1  0  0  0  0
 33 34  2  0  0  0  0
 21 22  1  0  0  0  0
 22 23  1  0  0  0  0
 18 21  1  0  0  0  0
 17 23  1  0  0  0  0
 17 18  1  0  0  0  0
  8 11  1  0  0  0  0
 32 35  1  0  0  0  0
 41 42  1  0  0  0  0
  7  8  1  0  0  0  0
 31 32  1  0  0  0  0
 22 27  1  0  0  0  0
 22 28  1  0  0  0  0
 21 25  1  0  0  0  0
 21 26  1  0  0  0  0
 23 29  1  0  0  0  0
 23 30  1  0  0  0  0
 18 24  1  0  0  0  0
  3  4  1  0  0  0  0
  3  5  1  0  0  0  0
  3  6  1  0  0  0  0
 11 14  1  0  0  0  0
 11 15  1  0  0  0  0
 11 16  1  0  0  0  0
 35 38  1  0  0  0  0
 35 39  1  0  0  0  0
 35 40  1  0  0  0  0
 42 44  1  0  0  0  0
 42 45  1  0  0  0  0
 42 46  1  0  0  0  0
  8 13  1  0  0  0  0
 32 37  1  0  0  0  0
 31 36  1  0  0  0  0
 41 43  1  0  0  0  0
  7 12  1  0  0  0  0
M  END
$$$$

  -OEChem-05262214473D

 46 46  0     1  0  0  0  0  0999 V2000
   -0.6012   -3.2995    3.8205 C   0  0  0  0  0  0  0  0  0  0  0  0
   -0.6574   -4.4683    3.4568 O   0  0  0  0  0  0  0  0  0  0  0  0
   -0.4935   -2.9859    5.2760 C   0  0  0  0  0  0  0  0  0  0  0  0
   -1.4789   -2.8689    5.7550 H   0  0  0  0  0  0  0  0  0  0  0  0
    0.0123   -3.7847    5.8419 H   0  0  0  0  0  0  0  0  0  0  0  0
    0.0585   -2.0642    5.5199 H   0  0  0  0  0  0  0  0  0  0  0  0
   -0.6261   -2.1849    2.9917 N   0  0  0  0  0  0  0  0  0  0  0  0
   -0.7237   -2.2601    1.5650 C   0  0  2  0  0  0  0  0  0  0  0  0
    0.1695   -1.1513    1.0687 C   0  0  0  0  0  0  0  0  0  0  0  0
    0.3193   -0.1267    1.7365 O   0  0  0  0  0  0  0  0  0  0  0  0
   -2.1397   -2.0663    1.0750 C   0  0  0  0  0  0  0  0  0  0  0  0
   -0.5717   -1.2606    3.4238 H   0  0  0  0  0  0  0  0  0  0  0  0
   -0.3076   -3.2111    1.2363 H   0  0  0  0  0  0  0  0  0  0  0  0
   -2.5584   -1.1089    1.4061 H   0  0  0  0  0  0  0  0  0  0  0  0
   -2.1682   -2.0790   -0.0197 H   0  0  0  0  0  0  0  0  0  0  0  0
   -2.7965   -2.8601    1.4459 H   0  0  0  0  0  0  0  0  0  0  0  0
    0.7724   -1.3745   -0.1593 N   0  0  0  0  0  0  0  0  0  0  0  0
    0.5614   -2.5964   -0.9244 C   0  0  2  0  0  0  0  0  0  0  0  0
    1.0304   -3.7375   -0.0727 C   0  0  0  0  0  0  0  0  0  0  0  0
    1.7291   -3.5119    0.9084 O   0  0  0  0  0  0  0  0  0  0  0  0
    1.4241   -2.4277   -2.1696 C   0  0  0  0  0  0  0  0  0  0  0  0
    1.5724   -0.9196   -2.3560 C   0  0  0  0  0  0  0  0  0  0  0  0
    1.5408   -0.3981   -0.9273 C   0  0  0  0  0  0  0  0  0  0  0  0
   -0.4994   -2.7392   -1.1516 H   0  0  0  0  0  0  0  0  0  0  0  0
    0.9067   -2.8423   -3.0430 H   0  0  0  0  0  0  0  0  0  0  0  0
    2.4070   -2.9021   -2.0888 H   0  0  0  0  0  0  0  0  0  0  0  0
    2.5335   -0.6864   -2.8287 H   0  0  0  0  0  0  0  0  0  0  0  0
    0.7747   -0.4997   -2.9754 H   0  0  0  0  0  0  0  0  0  0  0  0
    2.5402   -0.2801   -0.4996 H   0  0  0  0  0  0  0  0  0  0  0  0
    1.0101    0.5581   -0.8649 H   0  0  0  0  0  0  0  0  0  0  0  0
    0.5221   -4.9951   -0.6266 N   0  0  0  0  0  0  0  0  0  0  0  0
    1.0178   -6.3070   -0.2772 C   0  0  2  0  0  0  0  0  0  0  0  0
    1.4276   -6.2796    1.1893 C   0  0  0  0  0  0  0  0  0  0  0  0
    1.7113   -5.2438    1.7874 O   0  0  0  0  0  0  0  0  0  0  0  0
    2.1879   -6.7099   -1.1611 C   0  0  0  0  0  0  0  0  0  0  0  0
   -0.4264   -4.9152   -0.9808 H   0  0  0  0  0  0  0  0  0  0  0  0
    0.1850   -7.0059   -0.4113 H   0  0  0  0  0  0  0  0  0  0  0  0
    3.0320   -6.0212   -1.0404 H   0  0  0  0  0  0  0  0  0  0  0  0
    2.5439   -7.7155   -0.9141 H   0  0  0  0  0  0  0  0  0  0  0  0
    1.8995   -6.7002   -2.2178 H   0  0  0  0  0  0  0  0  0  0  0  0
    1.4811   -7.5524    1.7401 N   0  0  0  0  0  0  0  0  0  0  0  0
    1.8568   -7.7923    3.1139 C   0  0  0  0  0  0  0  0  0  0  0  0
    1.2109   -8.3527    1.1760 H   0  0  0  0  0  0  0  0  0  0  0  0
    2.9391   -7.9805    3.1711 H   0  0  0  0  0  0  0  0  0  0  0  0
    1.6055   -6.9107    3.7219 H   0  0  0  0  0  0  0  0  0  0  0  0
    1.3118   -8.6683    3.4953 H   0  0  0  0  0  0  0  0  0  0  0  0
 18 19  1  0  0  0  0
 19 31  1  0  0  0  0
 19 20  2  0  0  0  0
  8  9  1  0  0  0  0
  9 17  1  0  0  0  0
  9 10  2  0  0  0  0
  1  3  1  0  0  0  0
  1  7  1  0  0  0  0
  1  2  2  0  0  0  0
 32 33  1  0  0  0  0
 33 41  1  0  0  0  0
 33 34  2  0  0  0  0
 21 22  1  0  0  0  0
 22 23  1  0  0  0  0
 18 21  1  0  0  0  0
 17 23  1  0  0  0  0
 17 18  1  0  0  0  0
  8 11  1  0  0  0  0
 32 35  1  0  0  0  0
 41 42  1  0  0  0  0
  7  8  1  0  0  0  0
 31 32  1  0  0  0  0
 22 27  1  0  0  0  0
 22 28  1  0  0  0  0
 21 25  1  0  0  0  0
 21 26  1  0  0  0  0
 23 29  1  0  0  0  0
 23 30  1  0  0  0  0
 18 24  1  0  0  0  0
  3  4  1  0  0  0  0
  3  5  1  0  0  0  0
  3  6  1  0  0  0  0
 11 14  1  0  0  0  0
 11 15  1  0  0  0  0
 11 16  1  0  0  0  0
 35 38  1  0  0  0  0
 35 39  1  0  0  0  0
 35 40  1  0  0  0  0
 42 44  1  0  0  0  0
 42 45  1  0  0  0  0
 42 46  1  0  0  0  0
  8 13  1  0  0  0  0
 32 37  1  0  0  0  0
 31 36  1  0  0  0  0
 41 43  1  0  0  0  0
  7 12  1  0  0  0  0
M  END
$$$$

  -OEChem-05262214473D

 46 46  0     1  0  0  0  0  0999 V2000
   -0.6012   -3.2995    3.8205 C   0  0  0  0  0  0  0  0  0  0  0  0
   -0.6574   -4.4683    3.4568 O   0  0  0  0  0  0  0  0  0  0  0  0
   -0.4935   -2.9859    5.2760 C   0  0  0  0  0  0  0  0  0  0  0  0
   -1.4789   -2.8689    5.7550 H   0  0  0  0  0  0  0  0  0  0  0  0
    0.0123   -3.7847    5.8419 H   0  0  0  0  0  0  0  0  0  0  0  0
    0.0585   -2.0642    5.5199 H   0  0  0  0  0  0  0  0  0  0  0  0
   -0.6261   -2.1849    2.9917 N   0  0  0  0  0  0  0  0  0  0  0  0
   -0.7237   -2.2601    1.5650 C   0  0  2  0  0  0  0  0  0  0  0  0
    0.1695   -1.1513    1.0687 C   0  0  0  0  0  0  0  0  0  0  0  0
    0.3193   -0.1267    1.7365 O   0  0  0  0  0  0  0  0  0  0  0  0
   -2.1397   -2.0663    1.0750 C   0  0  0  0  0  0  0  0  0  0  0  0
   -0.5717   -1.2606    3.4238 H   0  0  0  0  0  0  0  0  0  0  0  0
   -0.3076   -3.2111    1.2363 H   0  0  0  0  0  0  0  0  0  0  0  0
   -2.5584   -1.1089    1.4061 H   0  0  0  0  0  0  0  0  0  0  0  0
   -2.1682   -2.0790   -0.0197 H   0  0  0  0  0  0  0  0  0  0  0  0
   -2.7965   -2.8601    1.4459 H   0  0  0  0  0  0  0  0  0  0  0  0
    0.7724   -1.3745   -0.1593 N   0  0  0  0  0  0  0  0  0  0  0  0
    0.5614   -2.5964   -0.9244 C   0  0  2  0  0  0  0  0  0  0  0  0
    0.6723   -3.7431    0.0349 C   0  0  0  0  0  0  0  0  0  0  0  0
    0.9044   -3.5212    1.2175 O   0  0  0  0  0  0  0  0  0  0  0  0
    1.6860   -2.6084   -1.9532 C   0  0  0  0  0  0  0  0  0  0  0  0
    2.0814   -1.1452   -2.1372 C   0  0  0  0  0  0  0  0  0  0  0  0
    1.5408   -0.3981   -0.9273 C   0  0  0  0  0  0  0  0  0  0  0  0
   -0.4352   -2.6100   -1.3758 H   0  0  0  0  0  0  0  0  0  0  0  0
    1.3151   -2.9965   -2.9093 H   0  0  0  0  0  0  0  0  0  0  0  0
    2.5523   -3.2033   -1.6478 H   0  0  0  0  0  0  0  0  0  0  0  0
    3.1727   -1.0445   -2.1557 H   0  0  0  0  0  0  0  0  0  0  0  0
    1.6822   -0.7230   -3.0638 H   0  0  0  0  0  0  0  0  0  0  0  0
    2.3334    0.0318   -0.3088 H   0  0  0  0  0  0  0  0  0  0  0  0
    0.8504    0.3975   -1.2275 H   0  0  0  0  0  0  0  0  0  0  0  0
    0.4801   -4.9931   -0.6194 N   0  0  0  0  0  0  0  0  0  0  0  0
    0.9572   -6.3142   -0.2789 C   0  0  2  0  0  0  0  0  0  0  0  0
    1.4035   -6.2922    1.1771 C   0  0  0  0  0  0  0  0  0  0  0  0
    1.7231   -5.2612    1.7652 O   0  0  0  0  0  0  0  0  0  0  0  0
    2.0966   -6.7431   -1.1902 C   0  0  0  0  0  0  0  0  0  0  0  0
   -0.4750   -4.8944   -0.9504 H   0  0  0  0  0  0  0  0  0  0  0  0
    0.1071   -6.9961   -0.3906 H   0  0  0  0  0  0  0  0  0  0  0  0
    2.9574   -6.0717   -1.0921 H   0  0  0  0  0  0  0  0  0  0  0  0
    2.4378   -7.7553   -0.9494 H   0  0  0  0  0  0  0  0  0  0  0  0
    1.7825   -6.7296   -2.2395 H   0  0  0  0  0  0  0  0  0  0  0  0
    1.4443   -7.5647    1.7297 N   0  0  0  0  0  0  0  0  0  0  0  0
    1.8488   -7.8093    3.0945 C   0  0  0  0  0  0  0  0  0  0  0  0
    1.1439   -8.3604    1.1745 H   0  0  0  0  0  0  0  0  0  0  0  0
    2.9281   -8.0197    3.1255 H   0  0  0  0  0  0  0  0  0  0  0  0
    1.6307   -6.9215    3.7062 H   0  0  0  0  0  0  0  0  0  0  0  0
    1.2954   -8.6731    3.4915 H   0  0  0  0  0  0  0  0  0  0  0  0
 18 19  1  0  0  0  0
 19 31  1  0  0  0  0
 19 20  2  0  0  0  0
  8  9  1  0  0  0  0
  9 17  1  0  0  0  0
  9 10  2  0  0  0  0
  1  3  1  0  0  0  0
  1  7  1  0  0  0  0
  1  2  2  0  0  0  0
 32 33  1  0  0  0  0
 33 41  1  0  0  0  0
 33 34  2  0  0  0  0
 21 22  1  0  0  0  0
 22 23  1  0  0  0  0
 18 21  1  0  0  0  0
 17 23  1  0  0  0  0
 17 18  1  0  0  0  0
  8 11  1  0  0  0  0
 32 35  1  0  0  0  0
 41 42  1  0  0  0  0
  7  8  1  0  0  0  0
 31 32  1  0  0  0  0
 22 27  1  0  0  0  0
 22 28  1  0  0  0  0
 21 25  1  0  0  0  0
 21 26  1  0  0  0  0
 23 29  1  0  0  0  0
 23 30  1  0  0  0  0
 18 24  1  0  0  0  0
  3  4  1  0  0  0  0
  3  5  1  0  0  0  0
  3  6  1  0  0  0  0
 11 14  1  0  0  0  0
 11 15  1  0  0  0  0
 11 16  1  0  0  0  0
 35 38  1  0  0  0  0
 35 39  1  0  0  0  0
 35 40  1  0  0  0  0
 42 44  1  0  0  0  0
 42 45  1  0  0  0  0
 42 46  1  0  0  0  0
  8 13  1  0  0  0  0
 32 37  1  0  0  0  0
 31 36  1  0  0  0  0
 41 43  1  0  0  0  0
  7 12  1  0  0  0  0
M  END
$$$$

  -OEChem-05262214473D

 46 46  0     1  0  0  0  0  0999 V2000
   -0.6012   -3.2995    3.8205 C   0  0  0  0  0  0  0  0  0  0  0  0
   -0.6574   -4.4683    3.4568 O   0  0  0  0  0  0  0  0  0  0  0  0
   -0.4935   -2.9859    5.2760 C   0  0  0  0  0  0  0  0  0  0  0  0
   -1.4789   -2.8689    5.7550 H   0  0  0  0  0  0  0  0  0  0  0  0
    0.0123   -3.7847    5.8419 H   0  0  0  0  0  0  0  0  0  0  0  0
    0.0585   -2.0642    5.5199 H   0  0  0  0  0  0  0  0  0  0  0  0
   -0.6261   -2.1849    2.9917 N   0  0  0  0  0  0  0  0  0  0  0  0
   -0.7237   -2.2601    1.5650 C   0  0  2  0  0  0  0  0  0  0  0  0
    0.1695   -1.1513    1.0687 C   0  0  0  0  0  0  0  0  0  0  0  0
    0.3193   -0.1267    1.7365 O   0  0  0  0  0  0  0  0  0  0  0  0
   -2.1397   -2.0663    1.0750 C   0  0  0  0  0  0  0  0  0  0  0  0
   -0.5717   -1.2606    3.4238 H   0  0  0  0  0  0  0  0  0  0  0  0
   -0.3076   -3.2111    1.2363 H   0  0  0  0  0  0  0  0  0  0  0  0
   -2.5584   -1.1089    1.4061 H   0  0  0  0  0  0  0  0  0  0  0  0
   -2.1682   -2.0790   -0.0197 H   0  0  0  0  0  0  0  0  0  0  0  0
   -2.7965   -2.8601    1.4459 H   0  0  0  0  0  0  0  0  0  0  0  0
    0.7724   -1.3745   -0.1593 N   0  0  0  0  0  0  0  0  0  0  0  0
    0.5614   -2.5964   -0.9244 C   0  0  2  0  0  0  0  0  0  0  0  0
    0.6723   -3.7431    0.0349 C   0  0  0  0  0  0  0  0  0  0  0  0
    0.6271   -3.5287    1.2406 O   0  0  0  0  0  0  0  0  0  0  0  0
    1.6860   -2.6084   -1.9532 C   0  0  0  0  0  0  0  0  0  0  0  0
    2.0814   -1.1452   -2.1372 C   0  0  0  0  0  0  0  0  0  0  0  0
    1.5408   -0.3981   -0.9273 C   0  0  0  0  0  0  0  0  0  0  0  0
   -0.4352   -2.6100   -1.3758 H   0  0  0  0  0  0  0  0  0  0  0  0
    1.3151   -2.9965   -2.9093 H   0  0  0  0  0  0  0  0  0  0  0  0
    2.5523   -3.2033   -1.6478 H   0  0  0  0  0  0  0  0  0  0  0  0
    3.1727   -1.0445   -2.1557 H   0  0  0  0  0  0  0  0  0  0  0  0
    1.6822   -0.7230   -3.0638 H   0  0  0  0  0  0  0  0  0  0  0  0
    2.3334    0.0318   -0.3088 H   0  0  0  0  0  0  0  0  0  0  0  0
    0.8504    0.3975   -1.2275 H   0  0  0  0  0  0  0  0  0  0  0  0
    0.8245   -4.9835   -0.6477 N   0  0  0  0  0  0  0  0  0  0  0  0
    1.4399   -6.2200   -0.2221 C   0  0  2  0  0  0  0  0  0  0  0  0
    1.5816   -6.1774    1.2937 C   0  0  0  0  0  0  0  0  0  0  0  0
    1.6021   -5.1297    1.9363 O   0  0  0  0  0  0  0  0  0  0  0  0
    2.7915   -6.4236   -0.8888 C   0  0  0  0  0  0  0  0  0  0  0  0
   -0.0497   -5.0307   -1.1624 H   0  0  0  0  0  0  0  0  0  0  0  0
    0.7548   -7.0273   -0.5029 H   0  0  0  0  0  0  0  0  0  0  0  0
    3.4914   -5.6243   -0.6192 H   0  0  0  0  0  0  0  0  0  0  0  0
    3.2435   -7.3743   -0.5872 H   0  0  0  0  0  0  0  0  0  0  0  0
    2.6919   -6.4242   -1.9796 H   0  0  0  0  0  0  0  0  0  0  0  0
    1.7257   -7.4450    1.8402 N   0  0  0  0  0  0  0  0  0  0  0  0
    1.8895   -7.6689    3.2576 C   0  0  0  0  0  0  0  0  0  0  0  0
    1.6778   -8.2588    1.2343 H   0  0  0  0  0  0  0  0  0  0  0  0
    2.9613   -7.7008    3.5029 H   0  0  0  0  0  0  0  0  0  0  0  0
    1.4099   -6.8512    3.8157 H   0  0  0  0  0  0  0  0  0  0  0  0
    1.4216   -8.6252    3.5341 H   0  0  0  0  0  0  0  0  0  0  0  0
 18 19  1  0  0  0  0
 19 31  1  0  0  0  0
 19 20  2  0  0  0  0
  8  9  1  0  0  0  0
  9 17  1  0  0  0  0
  9 10  2  0  0  0  0
  1  3  1  0  0  0  0
  1  7  1  0  0  0  0
  1  2  2  0  0  0  0
 32 33  1  0  0  0  0
 33 41  1  0  0  0  0
 33 34  2  0  0  0  0
 21 22  1  0  0  0  0
 22 23  1  0  0  0  0
 18 21  1  0  0  0  0
 17 23  1  0  0  0  0
 17 18  1  0  0  0  0
  8 11  1  0  0  0  0
 32 35  1  0  0  0  0
 41 42  1  0  0  0  0
  7  8  1  0  0  0  0
 31 32  1  0  0  0  0
 22 27  1  0  0  0  0
 22 28  1  0  0  0  0
 21 25  1  0  0  0  0
 21 26  1  0  0  0  0
 23 29  1  0  0  0  0
 23 30  1  0  0  0  0
 18 24  1  0  0  0  0
  3  4  1  0  0  0  0
  3  5  1  0  0  0  0
  3  6  1  0  0  0  0
 11 14  1  0  0  0  0
 11 15  1  0  0  0  0
 11 16  1  0  0  0  0
 35 38  1  0  0  0  0
 35 39  1  0  0  0  0
 35 40  1  0  0  0  0
 42 44  1  0  0  0  0
 42 45  1  0  0  0  0
 42 46  1  0  0  0  0
  8 13  1  0  0  0  0
 32 37  1  0  0  0  0
 31 36  1  0  0  0  0
 41 43  1  0  0  0  0
  7 12  1  0  0  0  0
M  END
$$$$

  -OEChem-05262214473D

 46 46  0     1  0  0  0  0  0999 V2000
   -0.6012   -3.2995    3.8205 C   0  0  0  0  0  0  0  0  0  0  0  0
   -0.6574   -4.4683    3.4568 O   0  0  0  0  0  0  0  0  0  0  0  0
   -0.4935   -2.9859    5.2760 C   0  0  0  0  0  0  0  0  0  0  0  0
   -1.4789   -2.8689    5.7550 H   0  0  0  0  0  0  0  0  0  0  0  0
    0.0123   -3.7847    5.8419 H   0  0  0  0  0  0  0  0  0  0  0  0
    0.0585   -2.0642    5.5199 H   0  0  0  0  0  0  0  0  0  0  0  0
   -0.6261   -2.1849    2.9917 N   0  0  0  0  0  0  0  0  0  0  0  0
   -0.7237   -2.2601    1.5650 C   0  0  2  0  0  0  0  0  0  0  0  0
    0.1695   -1.1513    1.0687 C   0  0  0  0  0  0  0  0  0  0  0  0
    0.3193   -0.1267    1.7365 O   0  0  0  0  0  0  0  0  0  0  0  0
   -2.1397   -2.0663    1.0750 C   0  0  0  0  0  0  0  0  0  0  0  0
   -0.5717   -1.2606    3.4238 H   0  0  0  0  0  0  0  0  0  0  0  0
   -0.3076   -3.2111    1.2363 H   0  0  0  0  0  0  0  0  0  0  0  0
   -2.5584   -1.1089    1.4061 H   0  0  0  0  0  0  0  0  0  0  0  0
   -2.1682   -2.0790   -0.0197 H   0  0  0  0  0  0  0  0  0  0  0  0
   -2.7965   -2.8601    1.4459 H   0  0  0  0  0  0  0  0  0  0  0  0
    0.7724   -1.3745   -0.1593 N   0  0  0  0  0  0  0  0  0  0  0  0
    0.5614   -2.5964   -0.9244 C   0  0  2  0  0  0  0  0  0  0  0  0
    0.6723   -3.7431    0.0349 C   0  0  0  0  0  0  0  0  0  0  0  0
    0.3560   -3.5823    1.2079 O   0  0  0  0  0  0  0  0  0  0  0  0
    1.6860   -2.6084   -1.9532 C   0  0  0  0  0  0  0  0  0  0  0  0
    2.0814   -1.1452   -2.1372 C   0  0  0  0  0  0  0  0  0  0  0  0
    1.5408   -0.3981   -0.9273 C   0  0  0  0  0  0  0  0  0  0  0  0
   -0.4352   -2.6100   -1.3758 H   0  0  0  0  0  0  0  0  0  0  0  0
    1.3151   -2.9965   -2.9093 H   0  0  0  0  0  0  0  0  0  0  0  0
    2.5523   -3.2033   -1.6478 H   0  0  0  0  0  0  0  0  0  0  0  0
    3.1727   -1.0445   -2.1557 H   0  0  0  0  0  0  0  0  0  0  0  0
    1.6822   -0.7230   -3.0638 H   0  0  0  0  0  0  0  0  0  0  0  0
    2.3334    0.0318   -0.3088 H   0  0  0  0  0  0  0  0  0  0  0  0
    0.8504    0.3975   -1.2275 H   0  0  0  0  0  0  0  0  0  0  0  0
    1.1612   -4.9166   -0.6067 N   0  0  0  0  0  0  0  0  0  0  0  0
    1.8794   -6.0501   -0.0698 C   0  0  2  0  0  0  0  0  0  0  0  0
    1.7114   -6.0393    1.4438 C   0  0  0  0  0  0  0  0  0  0  0  0
    1.4295   -5.0260    2.0802 O   0  0  0  0  0  0  0  0  0  0  0  0
    3.3502   -6.0057   -0.4539 C   0  0  0  0  0  0  0  0  0  0  0  0
    0.4256   -5.0877   -1.2856 H   0  0  0  0  0  0  0  0  0  0  0  0
    1.4079   -6.9481   -0.4837 H   0  0  0  0  0  0  0  0  0  0  0  0
    3.8395   -5.1128   -0.0480 H   0  0  0  0  0  0  0  0  0  0  0  0
    3.8869   -6.8798   -0.0705 H   0  0  0  0  0  0  0  0  0  0  0  0
    3.4682   -5.9835   -1.5426 H   0  0  0  0  0  0  0  0  0  0  0  0
    1.9557   -7.2849    2.0050 N   0  0  0  0  0  0  0  0  0  0  0  0
    1.8732   -7.5296    3.4260 C   0  0  0  0  0  0  0  0  0  0  0  0
    2.1648   -8.0733    1.3997 H   0  0  0  0  0  0  0  0  0  0  0  0
    2.8659   -7.3944    3.8802 H   0  0  0  0  0  0  0  0  0  0  0  0
    1.1633   -6.8220    3.8791 H   0  0  0  0  0  0  0  0  0  0  0  0
    1.5271   -8.5589    3.6012 H   0  0  0  0  0  0  0  0  0  0  0  0
 18 19  1  0  0  0  0
 19 31  1  0  0  0  0
 19 20  2  0  0  0  0
  8  9  1  0  0  0  0
  9 17  1  0  0  0  0
  9 10  2  0  0  0  0
  1  3  1  0  0  0  0
  1  7  1  0  0  0  0
  1  2  2  0  0  0  0
 32 33  1  0  0  0  0
 33 41  1  0  0  0  0
 33 34  2  0  0  0  0
 21 22  1  0  0  0  0
 22 23  1  0  0  0  0
 18 21  1  0  0  0  0
 17 23  1  0  0  0  0
 17 18  1  0  0  0  0
  8 11  1  0  0  0  0
 32 35  1  0  0  0  0
 41 42  1  0  0  0  0
  7  8  1  0  0  0  0
 31 32  1  0  0  0  0
 22 27  1  0  0  0  0
 22 28  1  0  0  0  0
 21 25  1  0  0  0  0
 21 26  1  0  0  0  0
 23 29  1  0  0  0  0
 23 30  1  0  0  0  0
 18 24  1  0  0  0  0
  3  4  1  0  0  0  0
  3  5  1  0  0  0  0
  3  6  1  0  0  0  0
 11 14  1  0  0  0  0
 11 15  1  0  0  0  0
 11 16  1  0  0  0  0
 35 38  1  0  0  0  0
 35 39  1  0  0  0  0
 35 40  1  0  0  0  0
 42 44  1  0  0  0  0
 42 45  1  0  0  0  0
 42 46  1  0  0  0  0
  8 13  1  0  0  0  0
 32 37  1  0  0  0  0
 31 36  1  0  0  0  0
 41 43  1  0  0  0  0
  7 12  1  0  0  0  0
M  END
$$$$

  -OEChem-05262214473D

 46 46  0     1  0  0  0  0  0999 V2000
   -0.6012   -3.2995    3.8205 C   0  0  0  0  0  0  0  0  0  0  0  0
   -0.6574   -4.4683    3.4568 O   0  0  0  0  0  0  0  0  0  0  0  0
   -0.4935   -2.9859    5.2760 C   0  0  0  0  0  0  0  0  0  0  0  0
   -1.4789   -2.8689    5.7550 H   0  0  0  0  0  0  0  0  0  0  0  0
    0.0123   -3.7847    5.8419 H   0  0  0  0  0  0  0  0  0  0  0  0
    0.0585   -2.0642    5.5199 H   0  0  0  0  0  0  0  0  0  0  0  0
   -0.6261   -2.1849    2.9917 N   0  0  0  0  0  0  0  0  0  0  0  0
   -0.7237   -2.2601    1.5650 C   0  0  2  0  0  0  0  0  0  0  0  0
    0.1695   -1.1513    1.0687 C   0  0  0  0  0  0  0  0  0  0  0  0
    0.3193   -0.1267    1.7365 O   0  0  0  0  0  0  0  0  0  0  0  0
   -2.1397   -2.0663    1.0750 C   0  0  0  0  0  0  0  0  0  0  0  0
   -0.5717   -1.2606    3.4238 H   0  0  0  0  0  0  0  0  0  0  0  0
   -0.3076   -3.2111    1.2363 H   0  0  0  0  0  0  0  0  0  0  0  0
   -2.5584   -1.1089    1.4061 H   0  0  0  0  0  0  0  0  0  0  0  0
   -2.1682   -2.0790   -0.0197 H   0  0  0  0  0  0  0  0  0  0  0  0
   -2.7965   -2.8601    1.4459 H   0  0  0  0  0  0  0  0  0  0  0  0
    0.7724   -1.3745   -0.1593 N   0  0  0  0  0  0  0  0  0  0  0  0
    0.5614   -2.5964   -0.9244 C   0  0  2  0  0  0  0  0  0  0  0  0
    0.6723   -3.7431    0.0349 C   0  0  0  0  0  0  0  0  0  0  0  0
    0.1095   -3.6784    1.1215 O   0  0  0  0  0  0  0  0  0  0  0  0
    1.6860   -2.6084   -1.9532 C   0  0  0  0  0  0  0  0  0  0  0  0
    2.0814   -1.1452   -2.1372 C   0  0  0  0  0  0  0  0  0  0  0  0
    1.5408   -0.3981   -0.9273 C   0  0  0  0  0  0  0  0  0  0  0  0
   -0.4352   -2.6100   -1.3758 H   0  0  0  0  0  0  0  0  0  0  0  0
    1.3151   -2.9965   -2.9093 H   0  0  0  0  0  0  0  0  0  0  0  0
    2.5523   -3.2033   -1.6478 H   0  0  0  0  0  0  0  0  0  0  0  0
    3.1727   -1.0445   -2.1557 H   0  0  0  0  0  0  0  0  0  0  0  0
    1.6822   -0.7230   -3.0638 H   0  0  0  0  0  0  0  0  0  0  0  0
    2.3334    0.0318   -0.3088 H   0  0  0  0  0  0  0  0  0  0  0  0
    0.8504    0.3975   -1.2275 H   0  0  0  0  0  0  0  0  0  0  0  0
    1.4672   -4.7969   -0.4991 N   0  0  0  0  0  0  0  0  0  0  0  0
    2.2456   -5.8162    0.1675 C   0  0  2  0  0  0  0  0  0  0  0  0
    1.7843   -5.8872    1.6172 C   0  0  0  0  0  0  0  0  0  0  0  0
    1.2172   -4.9572    2.1870 O   0  0  0  0  0  0  0  0  0  0  0  0
    3.7345   -5.5179    0.0848 C   0  0  0  0  0  0  0  0  0  0  0  0
    0.9185   -5.0618   -1.3116 H   0  0  0  0  0  0  0  0  0  0  0  0
    2.0218   -6.7638   -0.3344 H   0  0  0  0  0  0  0  0  0  0  0  0
    3.9780   -4.5720    0.5824 H   0  0  0  0  0  0  0  0  0  0  0  0
    4.3242   -6.3055    0.5654 H   0  0  0  0  0  0  0  0  0  0  0  0
    4.0586   -5.4377   -0.9584 H   0  0  0  0  0  0  0  0  0  0  0  0
    2.1188   -7.0953    2.2127 N   0  0  0  0  0  0  0  0  0  0  0  0
    1.8011   -7.4010    3.5881 C   0  0  0  0  0  0  0  0  0  0  0  0
    2.5718   -7.8167    1.6593 H   0  0  0  0  0  0  0  0  0  0  0  0
    2.6483   -7.1215    4.2316 H   0  0  0  0  0  0  0  0  0  0  0  0
    0.9077   -6.8358    3.8922 H   0  0  0  0  0  0  0  0  0  0  0  0
    1.6048   -8.4787    3.6881 H   0  0  0  0  0  0  0  0  0  0  0  0
 18 19  1  0  0  0  0
 19 31  1  0  0  0  0
 19 20  2  0  0  0  0
  8  9  1  0  0  0  0
  9 17  1  0  0  0  0
  9 10  2  0  0  0  0
  1  3  1  0  0  0  0
  1  7  1  0  0  0  0
  1  2  2  0  0  0  0
 32 33  1  0  0  0  0
 33 41  1  0  0  0  0
 33 34  2  0  0  0  0
 21 22  1  0  0  0  0
 22 23  1  0  0  0  0
 18 21  1  0  0  0  0
 17 23  1  0  0  0  0
 17 18  1  0  0  0  0
  8 11  1  0  0  0  0
 32 35  1  0  0  0  0
 41 42  1  0  0  0  0
  7  8  1  0  0  0  0
 31 32  1  0  0  0  0
 22 27  1  0  0  0  0
 22 28  1  0  0  0  0
 21 25  1  0  0  0  0
 21 26  1  0  0  0  0
 23 29  1  0  0  0  0
 23 30  1  0  0  0  0
 18 24  1  0  0  0  0
  3  4  1  0  0  0  0
  3  5  1  0  0  0  0
  3  6  1  0  0  0  0
 11 14  1  0  0  0  0
 11 15  1  0  0  0  0
 11 16  1  0  0  0  0
 35 38  1  0  0  0  0
 35 39  1  0  0  0  0
 35 40  1  0  0  0  0
 42 44  1  0  0  0  0
 42 45  1  0  0  0  0
 42 46  1  0  0  0  0
  8 13  1  0  0  0  0
 32 37  1  0  0  0  0
 31 36  1  0  0  0  0
 41 43  1  0  0  0  0
  7 12  1  0  0  0  0
M  END
$$$$

  -OEChem-05262214473D

 46 46  0     1  0  0  0  0  0999 V2000
   -0.6012   -3.2995    3.8205 C   0  0  0  0  0  0  0  0  0  0  0  0
   -0.6574   -4.4683    3.4568 O   0  0  0  0  0  0  0  0  0  0  0  0
   -0.4935   -2.9859    5.2760 C   0  0  0  0  0  0  0  0  0  0  0  0
   -1.4789   -2.8689    5.7550 H   0  0  0  0  0  0  0  0  0  0  0  0
    0.0123   -3.7847    5.8419 H   0  0  0  0  0  0  0  0  0  0  0  0
    0.0585   -2.0642    5.5199 H   0  0  0  0  0  0  0  0  0  0  0  0
   -0.6261   -2.1849    2.9917 N   0  0  0  0  0  0  0  0  0  0  0  0
   -0.7237   -2.2601    1.5650 C   0  0  2  0  0  0  0  0  0  0  0  0
    0.1695   -1.1513    1.0687 C   0  0  0  0  0  0  0  0  0  0  0  0
    0.3193   -0.1267    1.7365 O   0  0  0  0  0  0  0  0  0  0  0  0
   -2.1397   -2.0663    1.0750 C   0  0  0  0  0  0  0  0  0  0  0  0
   -0.5717   -1.2606    3.4238 H   0  0  0  0  0  0  0  0  0  0  0  0
   -0.3076   -3.2111    1.2363 H   0  0  0  0  0  0  0  0  0  0  0  0
   -2.5584   -1.1089    1.4061 H   0  0  0  0  0  0  0  0  0  0  0  0
   -2.1682   -2.0790   -0.0197 H   0  0  0  0  0  0  0  0  0  0  0  0
   -2.7965   -2.8601    1.4459 H   0  0  0  0  0  0  0  0  0  0  0  0
    0.7724   -1.3745   -0.1593 N   0  0  0  0  0  0  0  0  0  0  0  0
    0.5614   -2.5964   -0.9244 C   0  0  2  0  0  0  0  0  0  0  0  0
    0.6723   -3.7431    0.0349 C   0  0  0  0  0  0  0  0  0  0  0  0
   -0.0957   -3.8104    0.9875 O   0  0  0  0  0  0  0  0  0  0  0  0
    1.6860   -2.6084   -1.9532 C   0  0  0  0  0  0  0  0  0  0  0  0
    2.0814   -1.1452   -2.1372 C   0  0  0  0  0  0  0  0  0  0  0  0
    1.5408   -0.3981   -0.9273 C   0  0  0  0  0  0  0  0  0  0  0  0
   -0.4352   -2.6100   -1.3758 H   0  0  0  0  0  0  0  0  0  0  0  0
    1.3151   -2.9965   -2.9093 H   0  0  0  0  0  0  0  0  0  0  0  0
    2.5523   -3.2033   -1.6478 H   0  0  0  0  0  0  0  0  0  0  0  0
    3.1727   -1.0445   -2.1557 H   0  0  0  0  0  0  0  0  0  0  0  0
    1.6822   -0.7230   -3.0638 H   0  0  0  0  0  0  0  0  0  0  0  0
    2.3334    0.0318   -0.3088 H   0  0  0  0  0  0  0  0  0  0  0  0
    0.8504    0.3975   -1.2275 H   0  0  0  0  0  0  0  0  0  0  0  0
    1.7217   -4.6328   -0.3323 N   0  0  0  0  0  0  0  0  0  0  0  0
    2.5136   -5.5341    0.4737 C   0  0  2  0  0  0  0  0  0  0  0  0
    1.7952   -5.7316    1.8020 C   0  0  0  0  0  0  0  0  0  0  0  0
    0.9796   -4.9280    2.2495 O   0  0  0  0  0  0  0  0  0  0  0  0
    3.9183   -4.9933    0.6906 C   0  0  0  0  0  0  0  0  0  0  0  0
    1.3955   -4.9546   -1.2386 H   0  0  0  0  0  0  0  0  0  0  0  0
    2.5547   -6.4870   -0.0652 H   0  0  0  0  0  0  0  0  0  0  0  0
    3.8973   -4.0388    1.2291 H   0  0  0  0  0  0  0  0  0  0  0  0
    4.5256   -5.6905    1.2772 H   0  0  0  0  0  0  0  0  0  0  0  0
    4.4228   -4.8238   -0.2668 H   0  0  0  0  0  0  0  0  0  0  0  0
    2.2039   -6.8892    2.4493 N   0  0  0  0  0  0  0  0  0  0  0  0
    1.6780   -7.2918    3.7328 C   0  0  0  0  0  0  0  0  0  0  0  0
    2.8710   -7.5064    1.9957 H   0  0  0  0  0  0  0  0  0  0  0  0
    2.3233   -6.9006    4.5331 H   0  0  0  0  0  0  0  0  0  0  0  0
    0.6605   -6.8918    3.8539 H   0  0  0  0  0  0  0  0  0  0  0  0
    1.6493   -8.3900    3.7890 H   0  0  0  0  0  0  0  0  0  0  0  0
 18 19  1  0  0  0  0
 19 31  1  0  0  0  0
 19 20  2  0  0  0  0
  8  9  1  0  0  0  0
  9 17  1  0  0  0  0
  9 10  2  0  0  0  0
  1  3  1  0  0  0  0
  1  7  1  0  0  0  0
  1  2  2  0  0  0  0
 32 33  1  0  0  0  0
 33 41  1  0  0  0  0
 33 34  2  0  0  0  0
 21 22  1  0  0  0  0
 22 23  1  0  0  0  0
 18 21  1  0  0  0  0
 17 23  1  0  0  0  0
 17 18  1  0  0  0  0
  8 11  1  0  0  0  0
 32 35  1  0  0  0  0
 41 42  1  0  0  0  0
  7  8  1  0  0  0  0
 31 32  1  0  0  0  0
 22 27  1  0  0  0  0
 22 28  1  0  0  0  0
 21 25  1  0  0  0  0
 21 26  1  0  0  0  0
 23 29  1  0  0  0  0
 23 30  1  0  0  0  0
 18 24  1  0  0  0  0
  3  4  1  0  0  0  0
  3  5  1  0  0  0  0
  3  6  1  0  0  0  0
 11 14  1  0  0  0  0
 11 15  1  0  0  0  0
 11 16  1  0  0  0  0
 35 38  1  0  0  0  0
 35 39  1  0  0  0  0
 35 40  1  0  0  0  0
 42 44  1  0  0  0  0
 42 45  1  0  0  0  0
 42 46  1  0  0  0  0
  8 13  1  0  0  0  0
 32 37  1  0  0  0  0
 31 36  1  0  0  0  0
 41 43  1  0  0  0  0
  7 12  1  0  0  0  0
M  END
$$$$

  -OEChem-05262214473D

 46 46  0     1  0  0  0  0  0999 V2000
   -0.6012   -3.2995    3.8205 C   0  0  0  0  0  0  0  0  0  0  0  0
   -0.6574   -4.4683    3.4568 O   0  0  0  0  0  0  0  0  0  0  0  0
   -0.4935   -2.9859    5.2760 C   0  0  0  0  0  0  0  0  0  0  0  0
   -1.4789   -2.8689    5.7550 H   0  0  0  0  0  0  0  0  0  0  0  0
    0.0123   -3.7847    5.8419 H   0  0  0  0  0  0  0  0  0  0  0  0
    0.0585   -2.0642    5.5199 H   0  0  0  0  0  0  0  0  0  0  0  0
   -0.6261   -2.1849    2.9917 N   0  0  0  0  0  0  0  0  0  0  0  0
   -0.7237   -2.2601    1.5650 C   0  0  2  0  0  0  0  0  0  0  0  0
    0.1695   -1.1513    1.0687 C   0  0  0  0  0  0  0  0  0  0  0  0
    0.3193   -0.1267    1.7365 O   0  0  0  0  0  0  0  0  0  0  0  0
   -2.1397   -2.0663    1.0750 C   0  0  0  0  0  0  0  0  0  0  0  0
   -0.5717   -1.2606    3.4238 H   0  0  0  0  0  0  0  0  0  0  0  0
   -0.3076   -3.2111    1.2363 H   0  0  0  0  0  0  0  0  0  0  0  0
   -2.5584   -1.1089    1.4061 H   0  0  0  0  0  0  0  0  0  0  0  0
   -2.1682   -2.0790   -0.0197 H   0  0  0  0  0  0  0  0  0  0  0  0
   -2.7965   -2.8601    1.4459 H   0  0  0  0  0  0  0  0  0  0  0  0
    0.7724   -1.3745   -0.1593 N   0  0  0  0  0  0  0  0  0  0  0  0
    0.5614   -2.5964   -0.9244 C   0  0  2  0  0  0  0  0  0  0  0  0
    0.6723   -3.7431    0.0349 C   0  0  0  0  0  0  0  0  0  0  0  0
   -0.2454   -3.9693    0.8149 O   0  0  0  0  0  0  0  0  0  0  0  0
    1.6860   -2.6084   -1.9532 C   0  0  0  0  0  0  0  0  0  0  0  0
    2.0814   -1.1452   -2.1372 C   0  0  0  0  0  0  0  0  0  0  0  0
    1.5408   -0.3981   -0.9273 C   0  0  0  0  0  0  0  0  0  0  0  0
   -0.4352   -2.6100   -1.3758 H   0  0  0  0  0  0  0  0  0  0  0  0
    1.3151   -2.9965   -2.9093 H   0  0  0  0  0  0  0  0  0  0  0  0
    2.5523   -3.2033   -1.6478 H   0  0  0  0  0  0  0  0  0  0  0  0
    3.1727   -1.0445   -2.1557 H   0  0  0  0  0  0  0  0  0  0  0  0
    1.6822   -0.7230   -3.0638 H   0  0  0  0  0  0  0  0  0  0  0  0
    2.3334    0.0318   -0.3088 H   0  0  0  0  0  0  0  0  0  0  0  0
    0.8504    0.3975   -1.2275 H   0  0  0  0  0  0  0  0  0  0  0  0
    1.9073   -4.4353   -0.1177 N   0  0  0  0  0  0  0  0  0  0  0  0
    2.6651   -5.2231    0.8279 C   0  0  2  0  0  0  0  0  0  0  0  0
    1.7433   -5.5830    1.9856 C   0  0  0  0  0  0  0  0  0  0  0  0
    0.7329   -4.9403    2.2633 O   0  0  0  0  0  0  0  0  0  0  0  0
    3.8890   -4.4678    1.3221 C   0  0  0  0  0  0  0  0  0  0  0  0
    1.8240   -4.7735   -1.0717 H   0  0  0  0  0  0  0  0  0  0  0  0
    2.9703   -6.1365    0.3058 H   0  0  0  0  0  0  0  0  0  0  0  0
    3.6031   -3.5495    1.8479 H   0  0  0  0  0  0  0  0  0  0  0  0
    4.4774   -5.0767    2.0165 H   0  0  0  0  0  0  0  0  0  0  0  0
    4.5360   -4.1838    0.4851 H   0  0  0  0  0  0  0  0  0  0  0  0
    2.2050   -6.6805    2.6986 N   0  0  0  0  0  0  0  0  0  0  0  0
    1.5124   -7.2095    3.8503 C   0  0  0  0  0  0  0  0  0  0  0  0
    3.0420   -7.1636    2.3857 H   0  0  0  0  0  0  0  0  0  0  0  0
    1.9132   -6.7469    4.7643 H   0  0  0  0  0  0  0  0  0  0  0  0
    0.4386   -6.9860    3.7669 H   0  0  0  0  0  0  0  0  0  0  0  0
    1.6576   -8.2989    3.8969 H   0  0  0  0  0  0  0  0  0  0  0  0
 18 19  1  0  0  0  0
 19 31  1  0  0  0  0
 19 20  2  0  0  0  0
  8  9  1  0  0  0  0
  9 17  1  0  0  0  0
  9 10  2  0  0  0  0
  1  3  1  0  0  0  0
  1  7  1  0  0  0  0
  1  2  2  0  0  0  0
 32 33  1  0  0  0  0
 33 41  1  0  0  0  0
 33 34  2  0  0  0  0
 21 22  1  0  0  0  0
 22 23  1  0  0  0  0
 18 21  1  0  0  0  0
 17 23  1  0  0  0  0
 17 18  1  0  0  0  0
  8 11  1  0  0  0  0
 32 35  1  0  0  0  0
 41 42  1  0  0  0  0
  7  8  1  0  0  0  0
 31 32  1  0  0  0  0
 22 27  1  0  0  0  0
 22 28  1  0  0  0  0
 21 25  1  0  0  0  0
 21 26  1  0  0  0  0
 23 29  1  0  0  0  0
 23 30  1  0  0  0  0
 18 24  1  0  0  0  0
  3  4  1  0  0  0  0
  3  5  1  0  0  0  0
  3  6  1  0  0  0  0
 11 14  1  0  0  0  0
 11 15  1  0  0  0  0
 11 16  1  0  0  0  0
 35 38  1  0  0  0  0
 35 39  1  0  0  0  0
 35 40  1  0  0  0  0
 42 44  1  0  0  0  0
 42 45  1  0  0  0  0
 42 46  1  0  0  0  0
  8 13  1  0  0  0  0
 32 37  1  0  0  0  0
 31 36  1  0  0  0  0
 41 43  1  0  0  0  0
  7 12  1  0  0  0  0
M  END
$$$$

  -OEChem-05262214473D

 46 46  0     1  0  0  0  0  0999 V2000
   -0.6012   -3.2995    3.8205 C   0  0  0  0  0  0  0  0  0  0  0  0
   -0.6574   -4.4683    3.4568 O   0  0  0  0  0  0  0  0  0  0  0  0
   -0.4935   -2.9859    5.2760 C   0  0  0  0  0  0  0  0  0  0  0  0
   -1.4789   -2.8689    5.7550 H   0  0  0  0  0  0  0  0  0  0  0  0
    0.0123   -3.7847    5.8419 H   0  0  0  0  0  0  0  0  0  0  0  0
    0.0585   -2.0642    5.5199 H   0  0  0  0  0  0  0  0  0  0  0  0
   -0.6261   -2.1849    2.9917 N   0  0  0  0  0  0  0  0  0  0  0  0
   -0.7237   -2.2601    1.5650 C   0  0  2  0  0  0  0  0  0  0  0  0
    0.1695   -1.1513    1.0687 C   0  0  0  0  0  0  0  0  0  0  0  0
    0.3193   -0.1267    1.7365 O   0  0  0  0  0  0  0  0  0  0  0  0
   -2.1397   -2.0663    1.0750 C   0  0  0  0  0  0  0  0  0  0  0  0
   -0.5717   -1.2606    3.4238 H   0  0  0  0  0  0  0  0  0  0  0  0
   -0.3076   -3.2111    1.2363 H   0  0  0  0  0  0  0  0  0  0  0  0
   -2.5584   -1.1089    1.4061 H   0  0  0  0  0  0  0  0  0  0  0  0
   -2.1682   -2.0790   -0.0197 H   0  0  0  0  0  0  0  0  0  0  0  0
   -2.7965   -2.8601    1.4459 H   0  0  0  0  0  0  0  0  0  0  0  0
    0.7724   -1.3745   -0.1593 N   0  0  0  0  0  0  0  0  0  0  0  0
    0.5614   -2.5964   -0.9244 C   0  0  2  0  0  0  0  0  0  0  0  0
    0.6723   -3.7431    0.0349 C   0  0  0  0  0  0  0  0  0  0  0  0
   -0.3295   -4.1442    0.6155 O   0  0  0  0  0  0  0  0  0  0  0  0
    1.6860   -2.6084   -1.9532 C   0  0  0  0  0  0  0  0  0  0  0  0
    2.0814   -1.1452   -2.1372 C   0  0  0  0  0  0  0  0  0  0  0  0
    1.5408   -0.3981   -0.9273 C   0  0  0  0  0  0  0  0  0  0  0  0
   -0.4352   -2.6100   -1.3758 H   0  0  0  0  0  0  0  0  0  0  0  0
    1.3151   -2.9965   -2.9093 H   0  0  0  0  0  0  0  0  0  0  0  0
    2.5523   -3.2033   -1.6478 H   0  0  0  0  0  0  0  0  0  0  0  0
    3.1727   -1.0445   -2.1557 H   0  0  0  0  0  0  0  0  0  0  0  0
    1.6822   -0.7230   -3.0638 H   0  0  0  0  0  0  0  0  0  0  0  0
    2.3334    0.0318   -0.3088 H   0  0  0  0  0  0  0  0  0  0  0  0
    0.8504    0.3975   -1.2275 H   0  0  0  0  0  0  0  0  0  0  0  0
    2.0114   -4.2179    0.1302 N   0  0  0  0  0  0  0  0  0  0  0  0
    2.6898   -4.9044    1.2060 C   0  0  2  0  0  0  0  0  0  0  0  0
    1.6323   -5.4515    2.1555 C   0  0  0  0  0  0  0  0  0  0  0  0
    0.4939   -4.9933    2.2276 O   0  0  0  0  0  0  0  0  0  0  0  0
    3.6487   -3.9772    1.9364 C   0  0  0  0  0  0  0  0  0  0  0  0
    2.1749   -4.5307   -0.8221 H   0  0  0  0  0  0  0  0  0  0  0  0
    3.2402   -5.7362    0.7530 H   0  0  0  0  0  0  0  0  0  0  0  0
    3.1154   -3.1375    2.3969 H   0  0  0  0  0  0  0  0  0  0  0  0
    4.1828   -4.5060    2.7327 H   0  0  0  0  0  0  0  0  0  0  0  0
    4.3905   -3.5613    1.2461 H   0  0  0  0  0  0  0  0  0  0  0  0
    2.1222   -6.4835    2.9436 N   0  0  0  0  0  0  0  0  0  0  0  0
    1.3156   -7.1597    3.9326 C   0  0  0  0  0  0  0  0  0  0  0  0
    3.0732   -6.8115    2.8029 H   0  0  0  0  0  0  0  0  0  0  0  0
    1.4458   -6.6708    4.9093 H   0  0  0  0  0  0  0  0  0  0  0  0
    0.2571   -7.1121    3.6371 H   0  0  0  0  0  0  0  0  0  0  0  0
    1.6293   -8.2116    4.0046 H   0  0  0  0  0  0  0  0  0  0  0  0
 18 19  1  0  0  0  0
 19 31  1  0  0  0  0
 19 20  2  0  0  0  0
  8  9  1  0  0  0  0
  9 17  1  0  0  0  0
  9 10  2  0  0  0  0
  1  3  1  0  0  0  0
  1  7  1  0  0  0  0
  1  2  2  0  0  0  0
 32 33  1  0  0  0  0
 33 41  1  0  0  0  0
 33 34  2  0  0  0  0
 21 22  1  0  0  0  0
 22 23  1  0  0  0  0
 18 21  1  0  0  0  0
 17 23  1  0  0  0  0
 17 18  1  0  0  0  0
  8 11  1  0  0  0  0
 32 35  1  0  0  0  0
 41 42  1  0  0  0  0
  7  8  1  0  0  0  0
 31 32  1  0  0  0  0
 22 27  1  0  0  0  0
 22 28  1  0  0  0  0
 21 25  1  0  0  0  0
 21 26  1  0  0  0  0
 23 29  1  0  0  0  0
 23 30  1  0  0  0  0
 18 24  1  0  0  0  0
  3  4  1  0  0  0  0
  3  5  1  0  0  0  0
  3  6  1  0  0  0  0
 11 14  1  0  0  0  0
 11 15  1  0  0  0  0
 11 16  1  0  0  0  0
 35 38  1  0  0  0  0
 35 39  1  0  0  0  0
 35 40  1  0  0  0  0
 42 44  1  0  0  0  0
 42 45  1  0  0  0  0
 42 46  1  0  0  0  0
  8 13  1  0  0  0  0
 32 37  1  0  0  0  0
 31 36  1  0  0  0  0
 41 43  1  0  0  0  0
  7 12  1  0  0  0  0
M  END
$$$$

  -OEChem-05262214473D

 46 46  0     1  0  0  0  0  0999 V2000
   -0.6012   -3.2995    3.8205 C   0  0  0  0  0  0  0  0  0  0  0  0
   -0.6574   -4.4683    3.4568 O   0  0  0  0  0  0  0  0  0  0  0  0
   -0.4935   -2.9859    5.2760 C   0  0  0  0  0  0  0  0  0  0  0  0
   -1.4789   -2.8689    5.7550 H   0  0  0  0  0  0  0  0  0  0  0  0
    0.0123   -3.7847    5.8419 H   0  0  0  0  0  0  0  0  0  0  0  0
    0.0585   -2.0642    5.5199 H   0  0  0  0  0  0  0  0  0  0  0  0
   -0.6261   -2.1849    2.9917 N   0  0  0  0  0  0  0  0  0  0  0  0
   -0.7237   -2.2601    1.5650 C   0  0  2  0  0  0  0  0  0  0  0  0
    0.1695   -1.1513    1.0687 C   0  0  0  0  0  0  0  0  0  0  0  0
    0.3193   -0.1267    1.7365 O   0  0  0  0  0  0  0  0  0  0  0  0
   -2.1397   -2.0663    1.0750 C   0  0  0  0  0  0  0  0  0  0  0  0
   -0.5717   -1.2606    3.4238 H   0  0  0  0  0  0  0  0  0  0  0  0
   -0.3076   -3.2111    1.2363 H   0  0  0  0  0  0  0  0  0  0  0  0
   -2.5584   -1.1089    1.4061 H   0  0  0  0  0  0  0  0  0  0  0  0
   -2.1682   -2.0790   -0.0197 H   0  0  0  0  0  0  0  0  0  0  0  0
   -2.7965   -2.8601    1.4459 H   0  0  0  0  0  0  0  0  0  0  0  0
    0.7724   -1.3745   -0.1593 N   0  0  0  0  0  0  0  0  0  0  0  0
    0.5614   -2.5964   -0.9244 C   0  0  2  0  0  0  0  0  0  0  0  0
    0.6723   -3.7431    0.0349 C   0  0  0  0  0  0  0  0  0  0  0  0
   -0.3424   -4.3234    0.4029 O   0  0  0  0  0  0  0  0  0  0  0  0
    1.6860   -2.6084   -1.9532 C   0  0  0  0  0  0  0  0  0  0  0  0
    2.0814   -1.1452   -2.1372 C   0  0  0  0  0  0  0  0  0  0  0  0
    1.5408   -0.3981   -0.9273 C   0  0  0  0  0  0  0  0  0  0  0  0
   -0.4352   -2.6100   -1.3758 H   0  0  0  0  0  0  0  0  0  0  0  0
    1.3151   -2.9965   -2.9093 H   0  0  0  0  0  0  0  0  0  0  0  0
    2.5523   -3.2033   -1.6478 H   0  0  0  0  0  0  0  0  0  0  0  0
    3.1727   -1.0445   -2.1557 H   0  0  0  0  0  0  0  0  0  0  0  0
    1.6822   -0.7230   -3.0638 H   0  0  0  0  0  0  0  0  0  0  0  0
    2.3334    0.0318   -0.3088 H   0  0  0  0  0  0  0  0  0  0  0  0
    0.8504    0.3975   -1.2275 H   0  0  0  0  0  0  0  0  0  0  0  0
    2.0269   -3.9954    0.3943 N   0  0  0  0  0  0  0  0  0  0  0  0
    2.5861   -4.5997    1.5822 C   0  0  2  0  0  0  0  0  0  0  0  0
    1.4696   -5.3462    2.3002 C   0  0  0  0  0  0  0  0  0  0  0  0
    0.2789   -5.0834    2.1448 O   0  0  0  0  0  0  0  0  0  0  0  0
    3.2137   -3.5548    2.4916 C   0  0  0  0  0  0  0  0  0  0  0  0
    2.4243   -4.2429   -0.5069 H   0  0  0  0  0  0  0  0  0  0  0  0
    3.3461   -5.3134    1.2461 H   0  0  0  0  0  0  0  0  0  0  0  0
    2.4674   -2.8308    2.8384 H   0  0  0  0  0  0  0  0  0  0  0  0
    3.6620   -4.0173    3.3772 H   0  0  0  0  0  0  0  0  0  0  0  0
    3.9962   -2.9986    1.9643 H   0  0  0  0  0  0  0  0  0  0  0  0
    1.9611   -6.3117    3.1677 N   0  0  0  0  0  0  0  0  0  0  0  0
    1.1009   -7.1458    3.9741 C   0  0  0  0  0  0  0  0  0  0  0  0
    2.9624   -6.4743    3.2187 H   0  0  0  0  0  0  0  0  0  0  0  0
    0.9530   -6.6774    4.9584 H   0  0  0  0  0  0  0  0  0  0  0  0
    0.1283   -7.2615    3.4734 H   0  0  0  0  0  0  0  0  0  0  0  0
    1.5660   -8.1340    4.1046 H   0  0  0  0  0  0  0  0  0  0  0  0
 18 19  1  0  0  0  0
 19 31  1  0  0  0  0
 19 20  2  0  0  0  0
  8  9  1  0  0  0  0
  9 17  1  0  0  0  0
  9 10  2  0  0  0  0
  1  3  1  0  0  0  0
  1  7  1  0  0  0  0
  1  2  2  0  0  0  0
 32 33  1  0  0  0  0
 33 41  1  0  0  0  0
 33 34  2  0  0  0  0
 21 22  1  0  0  0  0
 22 23  1  0  0  0  0
 18 21  1  0  0  0  0
 17 23  1  0  0  0  0
 17 18  1  0  0  0  0
  8 11  1  0  0  0  0
 32 35  1  0  0  0  0
 41 42  1  0  0  0  0
  7  8  1  0  0  0  0
 31 32  1  0  0  0  0
 22 27  1  0  0  0  0
 22 28  1  0  0  0  0
 21 25  1  0  0  0  0
 21 26  1  0  0  0  0
 23 29  1  0  0  0  0
 23 30  1  0  0  0  0
 18 24  1  0  0  0  0
  3  4  1  0  0  0  0
  3  5  1  0  0  0  0
  3  6  1  0  0  0  0
 11 14  1  0  0  0  0
 11 15  1  0  0  0  0
 11 16  1  0  0  0  0
 35 38  1  0  0  0  0
 35 39  1  0  0  0  0
 35 40  1  0  0  0  0
 42 44  1  0  0  0  0
 42 45  1  0  0  0  0
 42 46  1  0  0  0  0
  8 13  1  0  0  0  0
 32 37  1  0  0  0  0
 31 36  1  0  0  0  0
 41 43  1  0  0  0  0
  7 12  1  0  0  0  0
M  END
$$$$

  -OEChem-05262214473D

 46 46  0     1  0  0  0  0  0999 V2000
   -0.6012   -3.2995    3.8205 C   0  0  0  0  0  0  0  0  0  0  0  0
   -0.6574   -4.4683    3.4568 O   0  0  0  0  0  0  0  0  0  0  0  0
   -0.4935   -2.9859    5.2760 C   0  0  0  0  0  0  0  0  0  0  0  0
   -1.4789   -2.8689    5.7550 H   0  0  0  0  0  0  0  0  0  0  0  0
    0.0123   -3.7847    5.8419 H   0  0  0  0  0  0  0  0  0  0  0  0
    0.0585   -2.0642    5.5199 H   0  0  0  0  0  0  0  0  0  0  0  0
   -0.6261   -2.1849    2.9917 N   0  0  0  0  0  0  0  0  0  0  0  0
   -0.7237   -2.2601    1.5650 C   0  0  2  0  0  0  0  0  0  0  0  0
    0.1695   -1.1513    1.0687 C   0  0  0  0  0  0  0  0  0  0  0  0
    0.3193   -0.1267    1.7365 O   0  0  0  0  0  0  0  0  0  0  0  0
   -2.1397   -2.0663    1.0750 C   0  0  0  0  0  0  0  0  0  0  0  0
   -0.5717   -1.2606    3.4238 H   0  0  0  0  0  0  0  0  0  0  0  0
   -0.3076   -3.2111    1.2363 H   0  0  0  0  0  0  0  0  0  0  0  0
   -2.5584   -1.1089    1.4061 H   0  0  0  0  0  0  0  0  0  0  0  0
   -2.1682   -2.0790   -0.0197 H   0  0  0  0  0  0  0  0  0  0  0  0
   -2.7965   -2.8601    1.4459 H   0  0  0  0  0  0  0  0  0  0  0  0
    0.7724   -1.3745   -0.1593 N   0  0  0  0  0  0  0  0  0  0  0  0
    0.5614   -2.5964   -0.9244 C   0  0  2  0  0  0  0  0  0  0  0  0
    0.6723   -3.7431    0.0349 C   0  0  0  0  0  0  0  0  0  0  0  0
   -0.2830   -4.4944    0.1915 O   0  0  0  0  0  0  0  0  0  0  0  0
    1.6860   -2.6084   -1.9532 C   0  0  0  0  0  0  0  0  0  0  0  0
    2.0814   -1.1452   -2.1372 C   0  0  0  0  0  0  0  0  0  0  0  0
    1.5408   -0.3981   -0.9273 C   0  0  0  0  0  0  0  0  0  0  0  0
   -0.4352   -2.6100   -1.3758 H   0  0  0  0  0  0  0  0  0  0  0  0
    1.3151   -2.9965   -2.9093 H   0  0  0  0  0  0  0  0  0  0  0  0
    2.5523   -3.2033   -1.6478 H   0  0  0  0  0  0  0  0  0  0  0  0
    3.1727   -1.0445   -2.1557 H   0  0  0  0  0  0  0  0  0  0  0  0
    1.6822   -0.7230   -3.0638 H   0  0  0  0  0  0  0  0  0  0  0  0
    2.3334    0.0318   -0.3088 H   0  0  0  0  0  0  0  0  0  0  0  0
    0.8504    0.3975   -1.2275 H   0  0  0  0  0  0  0  0  0  0  0  0
    1.9527   -3.7829    0.6568 N   0  0  0  0  0  0  0  0  0  0  0  0
    2.3609   -4.3298    1.9309 C   0  0  2  0  0  0  0  0  0  0  0  0
    1.2664   -5.2742    2.4098 C   0  0  0  0  0  0  0  0  0  0  0  0
    0.1025   -5.2044    2.0205 O   0  0  0  0  0  0  0  0  0  0  0  0
    2.6136   -3.2295    2.9499 C   0  0  0  0  0  0  0  0  0  0  0  0
    2.5550   -3.9297   -0.1476 H   0  0  0  0  0  0  0  0  0  0  0  0
    3.2808   -4.8969    1.7515 H   0  0  0  0  0  0  0  0  0  0  0  0
    1.7032   -2.6503    3.1425 H   0  0  0  0  0  0  0  0  0  0  0  0
    2.9503   -3.6438    3.9059 H   0  0  0  0  0  0  0  0  0  0  0  0
    3.3800   -2.5342    2.5907 H   0  0  0  0  0  0  0  0  0  0  0  0
    1.7326   -6.1767    3.3555 N   0  0  0  0  0  0  0  0  0  0  0  0
    0.8830   -7.1687    3.9720 C   0  0  0  0  0  0  0  0  0  0  0  0
    2.7173   -6.1749    3.6050 H   0  0  0  0  0  0  0  0  0  0  0  0
    0.4684   -6.7664    4.9081 H   0  0  0  0  0  0  0  0  0  0  0  0
    0.0611   -7.4241    3.2869 H   0  0  0  0  0  0  0  0  0  0  0  0
    1.4723   -8.0714    4.1902 H   0  0  0  0  0  0  0  0  0  0  0  0
 18 19  1  0  0  0  0
 19 31  1  0  0  0  0
 19 20  2  0  0  0  0
  8  9  1  0  0  0  0
  9 17  1  0  0  0  0
  9 10  2  0  0  0  0
  1  3  1  0  0  0  0
  1  7  1  0  0  0  0
  1  2  2  0  0  0  0
 32 33  1  0  0  0  0
 33 41  1  0  0  0  0
 33 34  2  0  0  0  0
 21 22  1  0  0  0  0
 22 23  1  0  0  0  0
 18 21  1  0  0  0  0
 17 23  1  0  0  0  0
 17 18  1  0  0  0  0
  8 11  1  0  0  0  0
 32 35  1  0  0  0  0
 41 42  1  0  0  0  0
  7  8  1  0  0  0  0
 31 32  1  0  0  0  0
 22 27  1  0  0  0  0
 22 28  1  0  0  0  0
 21 25  1  0  0  0  0
 21 26  1  0  0  0  0
 23 29  1  0  0  0  0
 23 30  1  0  0  0  0
 18 24  1  0  0  0  0
  3  4  1  0  0  0  0
  3  5  1  0  0  0  0
  3  6  1  0  0  0  0
 11 14  1  0  0  0  0
 11 15  1  0  0  0  0
 11 16  1  0  0  0  0
 35 38  1  0  0  0  0
 35 39  1  0  0  0  0
 35 40  1  0  0  0  0
 42 44  1  0  0  0  0
 42 45  1  0  0  0  0
 42 46  1  0  0  0  0
  8 13  1  0  0  0  0
 32 37  1  0  0  0  0
 31 36  1  0  0  0  0
 41 43  1  0  0  0  0
  7 12  1  0  0  0  0
M  END
$$$$

  -OEChem-05262214473D

 46 46  0     1  0  0  0  0  0999 V2000
   -0.6012   -3.2995    3.8205 C   0  0  0  0  0  0  0  0  0  0  0  0
   -0.6574   -4.4683    3.4568 O   0  0  0  0  0  0  0  0  0  0  0  0
   -0.4935   -2.9859    5.2760 C   0  0  0  0  0  0  0  0  0  0  0  0
   -1.4789   -2.8689    5.7550 H   0  0  0  0  0  0  0  0  0  0  0  0
    0.0123   -3.7847    5.8419 H   0  0  0  0  0  0  0  0  0  0  0  0
    0.0585   -2.0642    5.5199 H   0  0  0  0  0  0  0  0  0  0  0  0
   -0.6261   -2.1849    2.9917 N   0  0  0  0  0  0  0  0  0  0  0  0
   -0.7237   -2.2601    1.5650 C   0  0  2  0  0  0  0  0  0  0  0  0
    0.1695   -1.1513    1.0687 C   0  0  0  0  0  0  0  0  0  0  0  0
    0.3193   -0.1267    1.7365 O   0  0  0  0  0  0  0  0  0  0  0  0
   -2.1397   -2.0663    1.0750 C   0  0  0  0  0  0  0  0  0  0  0  0
   -0.5717   -1.2606    3.4238 H   0  0  0  0  0  0  0  0  0  0  0  0
   -0.3076   -3.2111    1.2363 H   0  0  0  0  0  0  0  0  0  0  0  0
   -2.5584   -1.1089    1.4061 H   0  0  0  0  0  0  0  0  0  0  0  0
   -2.1682   -2.0790   -0.0197 H   0  0  0  0  0  0  0  0  0  0  0  0
   -2.7965   -2.8601    1.4459 H   0  0  0  0  0  0  0  0  0  0  0  0
    0.7724   -1.3745   -0.1593 N   0  0  0  0  0  0  0  0  0  0  0  0
    0.5614   -2.5964   -0.9244 C   0  0  2  0  0  0  0  0  0  0  0  0
    0.6723   -3.7431    0.0349 C   0  0  0  0  0  0  0  0  0  0  0  0
   -0.1555   -4.6458   -0.0042 O   0  0  0  0  0  0  0  0  0  0  0  0
    1.6860   -2.6084   -1.9532 C   0  0  0  0  0  0  0  0  0  0  0  0
    2.0814   -1.1452   -2.1372 C   0  0  0  0  0  0  0  0  0  0  0  0
    1.5408   -0.3981   -0.9273 C   0  0  0  0  0  0  0  0  0  0  0  0
   -0.4352   -2.6100   -1.3758 H   0  0  0  0  0  0  0  0  0  0  0  0
    1.3151   -2.9965   -2.9093 H   0  0  0  0  0  0  0  0  0  0  0  0
    2.5523   -3.2033   -1.6478 H   0  0  0  0  0  0  0  0  0  0  0  0
    3.1727   -1.0445   -2.1557 H   0  0  0  0  0  0  0  0  0  0  0  0
    1.6822   -0.7230   -3.0638 H   0  0  0  0  0  0  0  0  0  0  0  0
    2.3334    0.0318   -0.3088 H   0  0  0  0  0  0  0  0  0  0  0  0
    0.8504    0.3975   -1.2275 H   0  0  0  0  0  0  0  0  0  0  0  0
    1.7939   -3.5951    0.8997 N   0  0  0  0  0  0  0  0  0  0  0  0
    2.0297   -4.1130    2.2283 C   0  0  2  0  0  0  0  0  0  0  0  0
    1.0365   -5.2404    2.4768 C   0  0  0  0  0  0  0  0  0  0  0  0
   -0.0232   -5.3482    1.8632 O   0  0  0  0  0  0  0  0  0  0  0  0
    1.8894   -3.0234    3.2799 C   0  0  0  0  0  0  0  0  0  0  0  0
    2.5583   -3.6123    0.2314 H   0  0  0  0  0  0  0  0  0  0  0  0
    3.0487   -4.5151    2.2347 H   0  0  0  0  0  0  0  0  0  0  0  0
    0.8750   -2.6084    3.2885 H   0  0  0  0  0  0  0  0  0  0  0  0
    2.0964   -3.4110    4.2829 H   0  0  0  0  0  0  0  0  0  0  0  0
    2.5839   -2.1996    3.0827 H   0  0  0  0  0  0  0  0  0  0  0  0
    1.4524   -6.0877    3.4943 N   0  0  0  0  0  0  0  0  0  0  0  0
    0.6767   -7.2268    3.9263 C   0  0  0  0  0  0  0  0  0  0  0  0
    2.3544   -5.9337    3.9353 H   0  0  0  0  0  0  0  0  0  0  0  0
    0.0250   -6.9317    4.7618 H   0  0  0  0  0  0  0  0  0  0  0  0
    0.0600   -7.5886    3.0904 H   0  0  0  0  0  0  0  0  0  0  0  0
    1.3545   -8.0282    4.2556 H   0  0  0  0  0  0  0  0  0  0  0  0
 18 19  1  0  0  0  0
 19 31  1  0  0  0  0
 19 20  2  0  0  0  0
  8  9  1  0  0  0  0
  9 17  1  0  0  0  0
  9 10  2  0  0  0  0
  1  3  1  0  0  0  0
  1  7  1  0  0  0  0
  1  2  2  0  0  0  0
 32 33  1  0  0  0  0
 33 41  1  0  0  0  0
 33 34  2  0  0  0  0
 21 22  1  0  0  0  0
 22 23  1  0  0  0  0
 18 21  1  0  0  0  0
 17 23  1  0  0  0  0
 17 18  1  0  0  0  0
  8 11  1  0  0  0  0
 32 35  1  0  0  0  0
 41 42  1  0  0  0  0
  7  8  1  0  0  0  0
 31 32  1  0  0  0  0
 22 27  1  0  0  0  0
 22 28  1  0  0  0  0
 21 25  1  0  0  0  0
 21 26  1  0  0  0  0
 23 29  1  0  0  0  0
 23 30  1  0  0  0  0
 18 24  1  0  0  0  0
  3  4  1  0  0  0  0
  3  5  1  0  0  0  0
  3  6  1  0  0  0  0
 11 14  1  0  0  0  0
 11 15  1  0  0  0  0
 11 16  1  0  0  0  0
 35 38  1  0  0  0  0
 35 39  1  0  0  0  0
 35 40  1  0  0  0  0
 42 44  1  0  0  0  0
 42 45  1  0  0  0  0
 42 46  1  0  0  0  0
  8 13  1  0  0  0  0
 32 37  1  0  0  0  0
 31 36  1  0  0  0  0
 41 43  1  0  0  0  0
  7 12  1  0  0  0  0
M  END
$$$$

  -OEChem-05262214473D

 46 46  0     1  0  0  0  0  0999 V2000
   -0.6012   -3.2995    3.8205 C   0  0  0  0  0  0  0  0  0  0  0  0
   -0.6574   -4.4683    3.4568 O   0  0  0  0  0  0  0  0  0  0  0  0
   -0.4935   -2.9859    5.2760 C   0  0  0  0  0  0  0  0  0  0  0  0
   -1.4789   -2.8689    5.7550 H   0  0  0  0  0  0  0  0  0  0  0  0
    0.0123   -3.7847    5.8419 H   0  0  0  0  0  0  0  0  0  0  0  0
    0.0585   -2.0642    5.5199 H   0  0  0  0  0  0  0  0  0  0  0  0
   -0.6261   -2.1849    2.9917 N   0  0  0  0  0  0  0  0  0  0  0  0
   -0.7237   -2.2601    1.5650 C   0  0  2  0  0  0  0  0  0  0  0  0
    0.1695   -1.1513    1.0687 C   0  0  0  0  0  0  0  0  0  0  0  0
    0.3193   -0.1267    1.7365 O   0  0  0  0  0  0  0  0  0  0  0  0
   -2.1397   -2.0663    1.0750 C   0  0  0  0  0  0  0  0  0  0  0  0
   -0.5717   -1.2606    3.4238 H   0  0  0  0  0  0  0  0  0  0  0  0
   -0.3076   -3.2111    1.2363 H   0  0  0  0  0  0  0  0  0  0  0  0
   -2.5584   -1.1089    1.4061 H   0  0  0  0  0  0  0  0  0  0  0  0
   -2.1682   -2.0790   -0.0197 H   0  0  0  0  0  0  0  0  0  0  0  0
   -2.7965   -2.8601    1.4459 H   0  0  0  0  0  0  0  0  0  0  0  0
    0.7724   -1.3745   -0.1593 N   0  0  0  0  0  0  0  0  0  0  0  0
    0.5614   -2.5964   -0.9244 C   0  0  2  0  0  0  0  0  0  0  0  0
    0.6723   -3.7431    0.0349 C   0  0  0  0  0  0  0  0  0  0  0  0
    0.0315   -4.7671   -0.1708 O   0  0  0  0  0  0  0  0  0  0  0  0
    1.6860   -2.6084   -1.9532 C   0  0  0  0  0  0  0  0  0  0  0  0
    2.0814   -1.1452   -2.1372 C   0  0  0  0  0  0  0  0  0  0  0  0
    1.5408   -0.3981   -0.9273 C   0  0  0  0  0  0  0  0  0  0  0  0
   -0.4352   -2.6100   -1.3758 H   0  0  0  0  0  0  0  0  0  0  0  0
    1.3151   -2.9965   -2.9093 H   0  0  0  0  0  0  0  0  0  0  0  0
    2.5523   -3.2033   -1.6478 H   0  0  0  0  0  0  0  0  0  0  0  0
    3.1727   -1.0445   -2.1557 H   0  0  0  0  0  0  0  0  0  0  0  0
    1.6822   -0.7230   -3.0638 H   0  0  0  0  0  0  0  0  0  0  0  0
    2.3334    0.0318   -0.3088 H   0  0  0  0  0  0  0  0  0  0  0  0
    0.8504    0.3975   -1.2275 H   0  0  0  0  0  0  0  0  0  0  0  0
    1.5613   -3.4446    1.1066 N   0  0  0  0  0  0  0  0  0  0  0  0
    1.6150   -3.9642    2.4542 C   0  0  2  0  0  0  0  0  0  0  0  0
    0.7955   -5.2472    2.4966 C   0  0  0  0  0  0  0  0  0  0  0  0
   -0.0897   -5.5049    1.6836 O   0  0  0  0  0  0  0  0  0  0  0  0
    1.0904   -2.9506    3.4593 C   0  0  0  0  0  0  0  0  0  0  0  0
    2.4339   -3.3125    0.6042 H   0  0  0  0  0  0  0  0  0  0  0  0
    2.6656   -4.1941    2.6628 H   0  0  0  0  0  0  0  0  0  0  0  0
    0.0391   -2.7078    3.2663 H   0  0  0  0  0  0  0  0  0  0  0  0
    1.1584   -3.3348    4.4825 H   0  0  0  0  0  0  0  0  0  0  0  0
    1.6621   -2.0178    3.4067 H   0  0  0  0  0  0  0  0  0  0  0  0
    1.1396   -6.0508    3.5746 N   0  0  0  0  0  0  0  0  0  0  0  0
    0.4962   -7.3163    3.8403 C   0  0  0  0  0  0  0  0  0  0  0  0
    1.8986   -5.7672    4.1871 H   0  0  0  0  0  0  0  0  0  0  0  0
   -0.3470   -7.1619    4.5296 H   0  0  0  0  0  0  0  0  0  0  0  0
    0.1251   -7.7439    2.8972 H   0  0  0  0  0  0  0  0  0  0  0  0
    1.2206   -8.0072    4.2962 H   0  0  0  0  0  0  0  0  0  0  0  0
 18 19  1  0  0  0  0
 19 31  1  0  0  0  0
 19 20  2  0  0  0  0
  8  9  1  0  0  0  0
  9 17  1  0  0  0  0
  9 10  2  0  0  0  0
  1  3  1  0  0  0  0
  1  7  1  0  0  0  0
  1  2  2  0  0  0  0
 32 33  1  0  0  0  0
 33 41  1  0  0  0  0
 33 34  2  0  0  0  0
 21 22  1  0  0  0  0
 22 23  1  0  0  0  0
 18 21  1  0  0  0  0
 17 23  1  0  0  0  0
 17 18  1  0  0  0  0
  8 11  1  0  0  0  0
 32 35  1  0  0  0  0
 41 42  1  0  0  0  0
  7  8  1  0  0  0  0
 31 32  1  0  0  0  0
 22 27  1  0  0  0  0
 22 28  1  0  0  0  0
 21 25  1  0  0  0  0
 21 26  1  0  0  0  0
 23 29  1  0  0  0  0
 23 30  1  0  0  0  0
 18 24  1  0  0  0  0
  3  4  1  0  0  0  0
  3  5  1  0  0  0  0
  3  6  1  0  0  0  0
 11 14  1  0  0  0  0
 11 15  1  0  0  0  0
 11 16  1  0  0  0  0
 35 38  1  0  0  0  0
 35 39  1  0  0  0  0
 35 40  1  0  0  0  0
 42 44  1  0  0  0  0
 42 45  1  0  0  0  0
 42 46  1  0  0  0  0
  8 13  1  0  0  0  0
 32 37  1  0  0  0  0
 31 36  1  0  0  0  0
 41 43  1  0  0  0  0
  7 12  1  0  0  0  0
M  END
$$$$

  -OEChem-05262214473D

 46 46  0     1  0  0  0  0  0999 V2000
   -0.6012   -3.2995    3.8205 C   0  0  0  0  0  0  0  0  0  0  0  0
   -0.6574   -4.4683    3.4568 O   0  0  0  0  0  0  0  0  0  0  0  0
   -0.4935   -2.9859    5.2760 C   0  0  0  0  0  0  0  0  0  0  0  0
   -1.4789   -2.8689    5.7550 H   0  0  0  0  0  0  0  0  0  0  0  0
    0.0123   -3.7847    5.8419 H   0  0  0  0  0  0  0  0  0  0  0  0
    0.0585   -2.0642    5.5199 H   0  0  0  0  0  0  0  0  0  0  0  0
   -0.6261   -2.1849    2.9917 N   0  0  0  0  0  0  0  0  0  0  0  0
   -0.7237   -2.2601    1.5650 C   0  0  2  0  0  0  0  0  0  0  0  0
    0.1695   -1.1513    1.0687 C   0  0  0  0  0  0  0  0  0  0  0  0
    0.3193   -0.1267    1.7365 O   0  0  0  0  0  0  0  0  0  0  0  0
   -2.1397   -2.0663    1.0750 C   0  0  0  0  0  0  0  0  0  0  0  0
   -0.5717   -1.2606    3.4238 H   0  0  0  0  0  0  0  0  0  0  0  0
   -0.3076   -3.2111    1.2363 H   0  0  0  0  0  0  0  0  0  0  0  0
   -2.5584   -1.1089    1.4061 H   0  0  0  0  0  0  0  0  0  0  0  0
   -2.1682   -2.0790   -0.0197 H   0  0  0  0  0  0  0  0  0  0  0  0
   -2.7965   -2.8601    1.4459 H   0  0  0  0  0  0  0  0  0  0  0  0
    0.7724   -1.3745   -0.1593 N   0  0  0  0  0  0  0  0  0  0  0  0
    0.5614   -2.5964   -0.9244 C   0  0  2  0  0  0  0  0  0  0  0  0
    0.6723   -3.7431    0.0349 C   0  0  0  0  0  0  0  0  0  0  0  0
    0.2652   -4.8502   -0.2971 O   0  0  0  0  0  0  0  0  0  0  0  0
    1.6860   -2.6084   -1.9532 C   0  0  0  0  0  0  0  0  0  0  0  0
    2.0814   -1.1452   -2.1372 C   0  0  0  0  0  0  0  0  0  0  0  0
    1.5408   -0.3981   -0.9273 C   0  0  0  0  0  0  0  0  0  0  0  0
   -0.4352   -2.6100   -1.3758 H   0  0  0  0  0  0  0  0  0  0  0  0
    1.3151   -2.9965   -2.9093 H   0  0  0  0  0  0  0  0  0  0  0  0
    2.5523   -3.2033   -1.6478 H   0  0  0  0  0  0  0  0  0  0  0  0
    3.1727   -1.0445   -2.1557 H   0  0  0  0  0  0  0  0  0  0  0  0
    1.6822   -0.7230   -3.0638 H   0  0  0  0  0  0  0  0  0  0  0  0
    2.3334    0.0318   -0.3088 H   0  0  0  0  0  0  0  0  0  0  0  0
    0.8504    0.3975   -1.2275 H   0  0  0  0  0  0  0  0  0  0  0  0
    1.2707   -3.3417    1.2631 N   0  0  0  0  0  0  0  0  0  0  0  0
    1.1451   -3.8934    2.5931 C   0  0  2  0  0  0  0  0  0  0  0  0
    0.5600   -5.2939    2.4679 C   0  0  0  0  0  0  0  0  0  0  0  0
   -0.0924   -5.6638    1.4940 O   0  0  0  0  0  0  0  0  0  0  0  0
    0.2711   -3.0161    3.4758 C   0  0  0  0  0  0  0  0  0  0  0  0
    2.1903   -3.0506    0.9454 H   0  0  0  0  0  0  0  0  0  0  0  0
    2.1576   -3.9556    3.0066 H   0  0  0  0  0  0  0  0  0  0  0  0
   -0.7473   -2.9419    3.0774 H   0  0  0  0  0  0  0  0  0  0  0  0
    0.2002   -3.4204    4.4910 H   0  0  0  0  0  0  0  0  0  0  0  0
    0.6774   -2.0009    3.5406 H   0  0  0  0  0  0  0  0  0  0  0  0
    0.8154   -6.0685    3.5909 N   0  0  0  0  0  0  0  0  0  0  0  0
    0.3536   -7.4309    3.7197 C   0  0  0  0  0  0  0  0  0  0  0  0
    1.3809   -5.6866    4.3433 H   0  0  0  0  0  0  0  0  0  0  0  0
   -0.6222   -7.4415    4.2273 H   0  0  0  0  0  0  0  0  0  0  0  0
    0.2519   -7.8795    2.7205 H   0  0  0  0  0  0  0  0  0  0  0  0
    1.0797   -8.0098    4.3093 H   0  0  0  0  0  0  0  0  0  0  0  0
 18 19  1  0  0  0  0
 19 31  1  0  0  0  0
 19 20  2  0  0  0  0
  8  9  1  0  0  0  0
  9 17  1  0  0  0  0
  9 10  2  0  0  0  0
  1  3  1  0  0  0  0
  1  7  1  0  0  0  0
  1  2  2  0  0  0  0
 32 33  1  0  0  0  0
 33 41  1  0  0  0  0
 33 34  2  0  0  0  0
 21 22  1  0  0  0  0
 22 23  1  0  0  0  0
 18 21  1  0  0  0  0
 17 23  1  0  0  0  0
 17 18  1  0  0  0  0
  8 11  1  0  0  0  0
 32 35  1  0  0  0  0
 41 42  1  0  0  0  0
  7  8  1  0  0  0  0
 31 32  1  0  0  0  0
 22 27  1  0  0  0  0
 22 28  1  0  0  0  0
 21 25  1  0  0  0  0
 21 26  1  0  0  0  0
 23 29  1  0  0  0  0
 23 30  1  0  0  0  0
 18 24  1  0  0  0  0
  3  4  1  0  0  0  0
  3  5  1  0  0  0  0
  3  6  1  0  0  0  0
 11 14  1  0  0  0  0
 11 15  1  0  0  0  0
 11 16  1  0  0  0  0
 35 38  1  0  0  0  0
 35 39  1  0  0  0  0
 35 40  1  0  0  0  0
 42 44  1  0  0  0  0
 42 45  1  0  0  0  0
 42 46  1  0  0  0  0
  8 13  1  0  0  0  0
 32 37  1  0  0  0  0
 31 36  1  0  0  0  0
 41 43  1  0  0  0  0
  7 12  1  0  0  0  0
M  END
$$$$

  -OEChem-05262214473D

 46 46  0     1  0  0  0  0  0999 V2000
   -0.6012   -3.2995    3.8205 C   0  0  0  0  0  0  0  0  0  0  0  0
   -0.6574   -4.4683    3.4568 O   0  0  0  0  0  0  0  0  0  0  0  0
   -0.4935   -2.9859    5.2760 C   0  0  0  0  0  0  0  0  0  0  0  0
   -1.4789   -2.8689    5.7550 H   0  0  0  0  0  0  0  0  0  0  0  0
    0.0123   -3.7847    5.8419 H   0  0  0  0  0  0  0  0  0  0  0  0
    0.0585   -2.0642    5.5199 H   0  0  0  0  0  0  0  0  0  0  0  0
   -0.6261   -2.1849    2.9917 N   0  0  0  0  0  0  0  0  0  0  0  0
   -0.7237   -2.2601    1.5650 C   0  0  2  0  0  0  0  0  0  0  0  0
    0.1695   -1.1513    1.0687 C   0  0  0  0  0  0  0  0  0  0  0  0
    0.3193   -0.1267    1.7365 O   0  0  0  0  0  0  0  0  0  0  0  0
   -2.1397   -2.0663    1.0750 C   0  0  0  0  0  0  0  0  0  0  0  0
   -0.5717   -1.2606    3.4238 H   0  0  0  0  0  0  0  0  0  0  0  0
   -0.3076   -3.2111    1.2363 H   0  0  0  0  0  0  0  0  0  0  0  0
   -2.5584   -1.1089    1.4061 H   0  0  0  0  0  0  0  0  0  0  0  0
   -2.1682   -2.0790   -0.0197 H   0  0  0  0  0  0  0  0  0  0  0  0
   -2.7965   -2.8601    1.4459 H   0  0  0  0  0  0  0  0  0  0  0  0
    0.7724   -1.3745   -0.1593 N   0  0  0  0  0  0  0  0  0  0  0  0
    0.5614   -2.5964   -0.9244 C   0  0  2  0  0  0  0  0  0  0  0  0
    0.6723   -3.7431    0.0349 C   0  0  0  0  0  0  0  0  0  0  0  0
    0.5297   -4.8893   -0.3745 O   0  0  0  0  0  0  0  0  0  0  0  0
    1.6860   -2.6084   -1.9532 C   0  0  0  0  0  0  0  0  0  0  0  0
    2.0814   -1.1452   -2.1372 C   0  0  0  0  0  0  0  0  0  0  0  0
    1.5408   -0.3981   -0.9273 C   0  0  0  0  0  0  0  0  0  0  0  0
   -0.4352   -2.6100   -1.3758 H   0  0  0  0  0  0  0  0  0  0  0  0
    1.3151   -2.9965   -2.9093 H   0  0  0  0  0  0  0  0  0  0  0  0
    2.5523   -3.2033   -1.6478 H   0  0  0  0  0  0  0  0  0  0  0  0
    3.1727   -1.0445   -2.1557 H   0  0  0  0  0  0  0  0  0  0  0  0
    1.6822   -0.7230   -3.0638 H   0  0  0  0  0  0  0  0  0  0  0  0
    2.3334    0.0318   -0.3088 H   0  0  0  0  0  0  0  0  0  0  0  0
    0.8504    0.3975   -1.2275 H   0  0  0  0  0  0  0  0  0  0  0  0
    0.9420   -3.2934    1.3588 N   0  0  0  0  0  0  0  0  0  0  0  0
    0.6519   -3.9056    2.6356 C   0  0  2  0  0  0  0  0  0  0  0  0
    0.3459   -5.3776    2.3927 C   0  0  0  0  0  0  0  0  0  0  0  0
   -0.0312   -5.8141    1.3072 O   0  0  0  0  0  0  0  0  0  0  0  0
   -0.5127   -3.2153    3.3283 C   0  0  0  0  0  0  0  0  0  0  0  0
    1.8441   -2.8445    1.2317 H   0  0  0  0  0  0  0  0  0  0  0  0
    1.5593   -3.8159    3.2428 H   0  0  0  0  0  0  0  0  0  0  0  0
   -1.4309   -3.2946    2.7349 H   0  0  0  0  0  0  0  0  0  0  0  0
   -0.7128   -3.6619    4.3079 H   0  0  0  0  0  0  0  0  0  0  0  0
   -0.3030   -2.1504    3.4754 H   0  0  0  0  0  0  0  0  0  0  0  0
    0.5019   -6.1396    3.5421 N   0  0  0  0  0  0  0  0  0  0  0  0
    0.2588   -7.5630    3.5728 C   0  0  0  0  0  0  0  0  0  0  0  0
    0.8365   -5.6975    4.3932 H   0  0  0  0  0  0  0  0  0  0  0  0
   -0.7819   -7.7513    3.8754 H   0  0  0  0  0  0  0  0  0  0  0  0
    0.4319   -7.9860    2.5723 H   0  0  0  0  0  0  0  0  0  0  0  0
    0.9415   -8.0359    4.2941 H   0  0  0  0  0  0  0  0  0  0  0  0
 18 19  1  0  0  0  0
 19 31  1  0  0  0  0
 19 20  2  0  0  0  0
  8  9  1  0  0  0  0
  9 17  1  0  0  0  0
  9 10  2  0  0  0  0
  1  3  1  0  0  0  0
  1  7  1  0  0  0  0
  1  2  2  0  0  0  0
 32 33  1  0  0  0  0
 33 41  1  0  0  0  0
 33 34  2  0  0  0  0
 21 22  1  0  0  0  0
 22 23  1  0  0  0  0
 18 21  1  0  0  0  0
 17 23  1  0  0  0  0
 17 18  1  0  0  0  0
  8 11  1  0  0  0  0
 32 35  1  0  0  0  0
 41 42  1  0  0  0  0
  7  8  1  0  0  0  0
 31 32  1  0  0  0  0
 22 27  1  0  0  0  0
 22 28  1  0  0  0  0
 21 25  1  0  0  0  0
 21 26  1  0  0  0  0
 23 29  1  0  0  0  0
 23 30  1  0  0  0  0
 18 24  1  0  0  0  0
  3  4  1  0  0  0  0
  3  5  1  0  0  0  0
  3  6  1  0  0  0  0
 11 14  1  0  0  0  0
 11 15  1  0  0  0  0
 11 16  1  0  0  0  0
 35 38  1  0  0  0  0
 35 39  1  0  0  0  0
 35 40  1  0  0  0  0
 42 44  1  0  0  0  0
 42 45  1  0  0  0  0
 42 46  1  0  0  0  0
  8 13  1  0  0  0  0
 32 37  1  0  0  0  0
 31 36  1  0  0  0  0
 41 43  1  0  0  0  0
  7 12  1  0  0  0  0
M  END
$$$$

  -OEChem-05262214473D

 46 46  0     1  0  0  0  0  0999 V2000
   -0.6012   -3.2995    3.8205 C   0  0  0  0  0  0  0  0  0  0  0  0
   -0.6574   -4.4683    3.4568 O   0  0  0  0  0  0  0  0  0  0  0  0
   -0.4935   -2.9859    5.2760 C   0  0  0  0  0  0  0  0  0  0  0  0
   -1.4789   -2.8689    5.7550 H   0  0  0  0  0  0  0  0  0  0  0  0
    0.0123   -3.7847    5.8419 H   0  0  0  0  0  0  0  0  0  0  0  0
    0.0585   -2.0642    5.5199 H   0  0  0  0  0  0  0  0  0  0  0  0
   -0.6261   -2.1849    2.9917 N   0  0  0  0  0  0  0  0  0  0  0  0
   -0.7237   -2.2601    1.5650 C   0  0  2  0  0  0  0  0  0  0  0  0
    0.1695   -1.1513    1.0687 C   0  0  0  0  0  0  0  0  0  0  0  0
    0.3193   -0.1267    1.7365 O   0  0  0  0  0  0  0  0  0  0  0  0
   -2.1397   -2.0663    1.0750 C   0  0  0  0  0  0  0  0  0  0  0  0
   -0.5717   -1.2606    3.4238 H   0  0  0  0  0  0  0  0  0  0  0  0
   -0.3076   -3.2111    1.2363 H   0  0  0  0  0  0  0  0  0  0  0  0
   -2.5584   -1.1089    1.4061 H   0  0  0  0  0  0  0  0  0  0  0  0
   -2.1682   -2.0790   -0.0197 H   0  0  0  0  0  0  0  0  0  0  0  0
   -2.7965   -2.8601    1.4459 H   0  0  0  0  0  0  0  0  0  0  0  0
    0.7724   -1.3745   -0.1593 N   0  0  0  0  0  0  0  0  0  0  0  0
    0.5614   -2.5964   -0.9244 C   0  0  2  0  0  0  0  0  0  0  0  0
    0.6723   -3.7431    0.0349 C   0  0  0  0  0  0  0  0  0  0  0  0
    0.8069   -4.8818   -0.3975 O   0  0  0  0  0  0  0  0  0  0  0  0
    1.6860   -2.6084   -1.9532 C   0  0  0  0  0  0  0  0  0  0  0  0
    2.0814   -1.1452   -2.1372 C   0  0  0  0  0  0  0  0  0  0  0  0
    1.5408   -0.3981   -0.9273 C   0  0  0  0  0  0  0  0  0  0  0  0
   -0.4352   -2.6100   -1.3758 H   0  0  0  0  0  0  0  0  0  0  0  0
    1.3151   -2.9965   -2.9093 H   0  0  0  0  0  0  0  0  0  0  0  0
    2.5523   -3.2033   -1.6478 H   0  0  0  0  0  0  0  0  0  0  0  0
    3.1727   -1.0445   -2.1557 H   0  0  0  0  0  0  0  0  0  0  0  0
    1.6822   -0.7230   -3.0638 H   0  0  0  0  0  0  0  0  0  0  0  0
    2.3334    0.0318   -0.3088 H   0  0  0  0  0  0  0  0  0  0  0  0
    0.8504    0.3975   -1.2275 H   0  0  0  0  0  0  0  0  0  0  0  0
    0.5976   -3.3031    1.3871 N   0  0  0  0  0  0  0  0  0  0  0  0
    0.1692   -3.9998    2.5788 C   0  0  2  0  0  0  0  0  0  0  0  0
    0.1678   -5.4924    2.2761 C   0  0  0  0  0  0  0  0  0  0  0  0
    0.0898   -5.9455    1.1361 O   0  0  0  0  0  0  0  0  0  0  0  0
   -1.2077   -3.5348    3.0268 C   0  0  0  0  0  0  0  0  0  0  0  0
    1.4188   -2.7083    1.4437 H   0  0  0  0  0  0  0  0  0  0  0  0
    0.9116   -3.7846    3.3551 H   0  0  0  0  0  0  0  0  0  0  0  0
   -1.9649   -3.7420    2.2619 H   0  0  0  0  0  0  0  0  0  0  0  0
   -1.5185   -4.0429    3.9457 H   0  0  0  0  0  0  0  0  0  0  0  0
   -1.2124   -2.4558    3.2155 H   0  0  0  0  0  0  0  0  0  0  0  0
    0.2205   -6.2593    3.4316 N   0  0  0  0  0  0  0  0  0  0  0  0
    0.2181   -7.7034    3.4096 C   0  0  0  0  0  0  0  0  0  0  0  0
    0.3027   -5.7991    4.3334 H   0  0  0  0  0  0  0  0  0  0  0  0
   -0.8151   -8.0703    3.4980 H   0  0  0  0  0  0  0  0  0  0  0  0
    0.6527   -8.0563    2.4628 H   0  0  0  0  0  0  0  0  0  0  0  0
    0.8153   -8.0838    4.2515 H   0  0  0  0  0  0  0  0  0  0  0  0
 18 19  1  0  0  0  0
 19 31  1  0  0  0  0
 19 20  2  0  0  0  0
  8  9  1  0  0  0  0
  9 17  1  0  0  0  0
  9 10  2  0  0  0  0
  1  3  1  0  0  0  0
  1  7  1  0  0  0  0
  1  2  2  0  0  0  0
 32 33  1  0  0  0  0
 33 41  1  0  0  0  0
 33 34  2  0  0  0  0
 21 22  1  0  0  0  0
 22 23  1  0  0  0  0
 18 21  1  0  0  0  0
 17 23  1  0  0  0  0
 17 18  1  0  0  0  0
  8 11  1  0  0  0  0
 32 35  1  0  0  0  0
 41 42  1  0  0  0  0
  7  8  1  0  0  0  0
 31 32  1  0  0  0  0
 22 27  1  0  0  0  0
 22 28  1  0  0  0  0
 21 25  1  0  0  0  0
 21 26  1  0  0  0  0
 23 29  1  0  0  0  0
 23 30  1  0  0  0  0
 18 24  1  0  0  0  0
  3  4  1  0  0  0  0
  3  5  1  0  0  0  0
  3  6  1  0  0  0  0
 11 14  1  0  0  0  0
 11 15  1  0  0  0  0
 11 16  1  0  0  0  0
 35 38  1  0  0  0  0
 35 39  1  0  0  0  0
 35 40  1  0  0  0  0
 42 44  1  0  0  0  0
 42 45  1  0  0  0  0
 42 46  1  0  0  0  0
  8 13  1  0  0  0  0
 32 37  1  0  0  0  0
 31 36  1  0  0  0  0
 41 43  1  0  0  0  0
  7 12  1  0  0  0  0
M  END
$$$$

  -OEChem-05262214473D

 46 46  0     1  0  0  0  0  0999 V2000
   -0.6012   -3.2995    3.8205 C   0  0  0  0  0  0  0  0  0  0  0  0
   -0.6574   -4.4683    3.4568 O   0  0  0  0  0  0  0  0  0  0  0  0
   -0.4935   -2.9859    5.2760 C   0  0  0  0  0  0  0  0  0  0  0  0
   -1.4789   -2.8689    5.7550 H   0  0  0  0  0  0  0  0  0  0  0  0
    0.0123   -3.7847    5.8419 H   0  0  0  0  0  0  0  0  0  0  0  0
    0.0585   -2.0642    5.5199 H   0  0  0  0  0  0  0  0  0  0  0  0
   -0.6261   -2.1849    2.9917 N   0  0  0  0  0  0  0  0  0  0  0  0
   -0.7237   -2.2601    1.5650 C   0  0  2  0  0  0  0  0  0  0  0  0
    0.1695   -1.1513    1.0687 C   0  0  0  0  0  0  0  0  0  0  0  0
    0.3193   -0.1267    1.7365 O   0  0  0  0  0  0  0  0  0  0  0  0
   -2.1397   -2.0663    1.0750 C   0  0  0  0  0  0  0  0  0  0  0  0
   -0.5717   -1.2606    3.4238 H   0  0  0  0  0  0  0  0  0  0  0  0
   -0.3076   -3.2111    1.2363 H   0  0  0  0  0  0  0  0  0  0  0  0
   -2.5584   -1.1089    1.4061 H   0  0  0  0  0  0  0  0  0  0  0  0
   -2.1682   -2.0790   -0.0197 H   0  0  0  0  0  0  0  0  0  0  0  0
   -2.7965   -2.8601    1.4459 H   0  0  0  0  0  0  0  0  0  0  0  0
    0.7724   -1.3745   -0.1593 N   0  0  0  0  0  0  0  0  0  0  0  0
    0.5614   -2.5964   -0.9244 C   0  0  2  0  0  0  0  0  0  0  0  0
    0.6723   -3.7431    0.0349 C   0  0  0  0  0  0  0  0  0  0  0  0
    1.0781   -4.8281   -0.3648 O   0  0  0  0  0  0  0  0  0  0  0  0
    1.6860   -2.6084   -1.9532 C   0  0  0  0  0  0  0  0  0  0  0  0
    2.0814   -1.1452   -2.1372 C   0  0  0  0  0  0  0  0  0  0  0  0
    1.5408   -0.3981   -0.9273 C   0  0  0  0  0  0  0  0  0  0  0  0
   -0.4352   -2.6100   -1.3758 H   0  0  0  0  0  0  0  0  0  0  0  0
    1.3151   -2.9965   -2.9093 H   0  0  0  0  0  0  0  0  0  0  0  0
    2.5523   -3.2033   -1.6478 H   0  0  0  0  0  0  0  0  0  0  0  0
    3.1727   -1.0445   -2.1557 H   0  0  0  0  0  0  0  0  0  0  0  0
    1.6822   -0.7230   -3.0638 H   0  0  0  0  0  0  0  0  0  0  0  0
    2.3334    0.0318   -0.3088 H   0  0  0  0  0  0  0  0  0  0  0  0
    0.8504    0.3975   -1.2275 H   0  0  0  0  0  0  0  0  0  0  0  0
    0.2608   -3.3700    1.3461 N   0  0  0  0  0  0  0  0  0  0  0  0
   -0.2703   -4.1697    2.4266 C   0  0  2  0  0  0  0  0  0  0  0  0
    0.0380   -5.6305    2.1260 C   0  0  0  0  0  0  0  0  0  0  0  0
    0.2623   -6.0492    0.9922 O   0  0  0  0  0  0  0  0  0  0  0  0
   -1.7664   -3.9527    2.5919 C   0  0  0  0  0  0  0  0  0  0  0  0
    0.9435   -2.6512    1.5669 H   0  0  0  0  0  0  0  0  0  0  0  0
    0.2585   -3.8638    3.3359 H   0  0  0  0  0  0  0  0  0  0  0  0
   -2.3130   -4.2535    1.6907 H   0  0  0  0  0  0  0  0  0  0  0  0
   -2.1619   -4.5374    3.4290 H   0  0  0  0  0  0  0  0  0  0  0  0
   -1.9887   -2.8965    2.7785 H   0  0  0  0  0  0  0  0  0  0  0  0
   -0.0095   -6.4194    3.2669 N   0  0  0  0  0  0  0  0  0  0  0  0
    0.2344   -7.8427    3.2413 C   0  0  0  0  0  0  0  0  0  0  0  0
   -0.1843   -5.9846    4.1681 H   0  0  0  0  0  0  0  0  0  0  0  0
   -0.7197   -8.3766    3.1207 H   0  0  0  0  0  0  0  0  0  0  0  0
    0.8993   -8.0855    2.3993 H   0  0  0  0  0  0  0  0  0  0  0  0
    0.7098   -8.1501    4.1844 H   0  0  0  0  0  0  0  0  0  0  0  0
 18 19  1  0  0  0  0
 19 31  1  0  0  0  0
 19 20  2  0  0  0  0
  8  9  1  0  0  0  0
  9 17  1  0  0  0  0
  9 10  2  0  0  0  0
  1  3  1  0  0  0  0
  1  7  1  0  0  0  0
  1  2  2  0  0  0  0
 32 33  1  0  0  0  0
 33 41  1  0  0  0  0
 33 34  2  0  0  0  0
 21 22  1  0  0  0  0
 22 23  1  0  0  0  0
 18 21  1  0  0  0  0
 17 23  1  0  0  0  0
 17 18  1  0  0  0  0
  8 11  1  0  0  0  0
 32 35  1  0  0  0  0
 41 42  1  0  0  0  0
  7  8  1  0  0  0  0
 31 32  1  0  0  0  0
 22 27  1  0  0  0  0
 22 28  1  0  0  0  0
 21 25  1  0  0  0  0
 21 26  1  0  0  0  0
 23 29  1  0  0  0  0
 23 30  1  0  0  0  0
 18 24  1  0  0  0  0
  3  4  1  0  0  0  0
  3  5  1  0  0  0  0
  3  6  1  0  0  0  0
 11 14  1  0  0  0  0
 11 15  1  0  0  0  0
 11 16  1  0  0  0  0
 35 38  1  0  0  0  0
 35 39  1  0  0  0  0
 35 40  1  0  0  0  0
 42 44  1  0  0  0  0
 42 45  1  0  0  0  0
 42 46  1  0  0  0  0
  8 13  1  0  0  0  0
 32 37  1  0  0  0  0
 31 36  1  0  0  0  0
 41 43  1  0  0  0  0
  7 12  1  0  0  0  0
M  END
$$$$

  -OEChem-05262214473D

 46 46  0     1  0  0  0  0  0999 V2000
   -0.6012   -3.2995    3.8205 C   0  0  0  0  0  0  0  0  0  0  0  0
   -0.6574   -4.4683    3.4568 O   0  0  0  0  0  0  0  0  0  0  0  0
   -0.4935   -2.9859    5.2760 C   0  0  0  0  0  0  0  0  0  0  0  0
   -1.4789   -2.8689    5.7550 H   0  0  0  0  0  0  0  0  0  0  0  0
    0.0123   -3.7847    5.8419 H   0  0  0  0  0  0  0  0  0  0  0  0
    0.0585   -2.0642    5.5199 H   0  0  0  0  0  0  0  0  0  0  0  0
   -0.6261   -2.1849    2.9917 N   0  0  0  0  0  0  0  0  0  0  0  0
   -0.7237   -2.2601    1.5650 C   0  0  2  0  0  0  0  0  0  0  0  0
    0.1695   -1.1513    1.0687 C   0  0  0  0  0  0  0  0  0  0  0  0
    0.3193   -0.1267    1.7365 O   0  0  0  0  0  0  0  0  0  0  0  0
   -2.1397   -2.0663    1.0750 C   0  0  0  0  0  0  0  0  0  0  0  0
   -0.5717   -1.2606    3.4238 H   0  0  0  0  0  0  0  0  0  0  0  0
   -0.3076   -3.2111    1.2363 H   0  0  0  0  0  0  0  0  0  0  0  0
   -2.5584   -1.1089    1.4061 H   0  0  0  0  0  0  0  0  0  0  0  0
   -2.1682   -2.0790   -0.0197 H   0  0  0  0  0  0  0  0  0  0  0  0
   -2.7965   -2.8601    1.4459 H   0  0  0  0  0  0  0  0  0  0  0  0
    0.7724   -1.3745   -0.1593 N   0  0  0  0  0  0  0  0  0  0  0  0
    0.5614   -2.5964   -0.9244 C   0  0  2  0  0  0  0  0  0  0  0  0
    0.6723   -3.7431    0.0349 C   0  0  0  0  0  0  0  0  0  0  0  0
    1.3246   -4.7321   -0.2784 O   0  0  0  0  0  0  0  0  0  0  0  0
    1.6860   -2.6084   -1.9532 C   0  0  0  0  0  0  0  0  0  0  0  0
    2.0814   -1.1452   -2.1372 C   0  0  0  0  0  0  0  0  0  0  0  0
    1.5408   -0.3981   -0.9273 C   0  0  0  0  0  0  0  0  0  0  0  0
   -0.4352   -2.6100   -1.3758 H   0  0  0  0  0  0  0  0  0  0  0  0
    1.3151   -2.9965   -2.9093 H   0  0  0  0  0  0  0  0  0  0  0  0
    2.5523   -3.2033   -1.6478 H   0  0  0  0  0  0  0  0  0  0  0  0
    3.1727   -1.0445   -2.1557 H   0  0  0  0  0  0  0  0  0  0  0  0
    1.6822   -0.7230   -3.0638 H   0  0  0  0  0  0  0  0  0  0  0  0
    2.3334    0.0318   -0.3088 H   0  0  0  0  0  0  0  0  0  0  0  0
    0.8504    0.3975   -1.2275 H   0  0  0  0  0  0  0  0  0  0  0  0
   -0.0452   -3.4896    1.2385 N   0  0  0  0  0  0  0  0  0  0  0  0
   -0.6365   -4.4036    2.1893 C   0  0  2  0  0  0  0  0  0  0  0  0
   -0.0349   -5.7826    1.9526 C   0  0  0  0  0  0  0  0  0  0  0  0
    0.4746   -6.1180    0.8854 O   0  0  0  0  0  0  0  0  0  0  0  0
   -2.1507   -4.4405    2.0533 C   0  0  0  0  0  0  0  0  0  0  0  0
    0.4506   -2.6772    1.5929 H   0  0  0  0  0  0  0  0  0  0  0  0
   -0.3554   -4.0482    3.1866 H   0  0  0  0  0  0  0  0  0  0  0  0
   -2.4514   -4.7942    1.0603 H   0  0  0  0  0  0  0  0  0  0  0  0
   -2.5993   -5.1117    2.7931 H   0  0  0  0  0  0  0  0  0  0  0  0
   -2.5791   -3.4423    2.1943 H   0  0  0  0  0  0  0  0  0  0  0  0
   -0.1726   -6.6089    3.0591 N   0  0  0  0  0  0  0  0  0  0  0  0
    0.3066   -7.9713    3.0792 C   0  0  0  0  0  0  0  0  0  0  0  0
   -0.5913   -6.2412    3.9084 H   0  0  0  0  0  0  0  0  0  0  0  0
   -0.5021   -8.6496    2.7693 H   0  0  0  0  0  0  0  0  0  0  0  0
    1.1549   -8.0717    2.3863 H   0  0  0  0  0  0  0  0  0  0  0  0
    0.6322   -8.2303    4.0975 H   0  0  0  0  0  0  0  0  0  0  0  0
 18 19  1  0  0  0  0
 19 31  1  0  0  0  0
 19 20  2  0  0  0  0
  8  9  1  0  0  0  0
  9 17  1  0  0  0  0
  9 10  2  0  0  0  0
  1  3  1  0  0  0  0
  1  7  1  0  0  0  0
  1  2  2  0  0  0  0
 32 33  1  0  0  0  0
 33 41  1  0  0  0  0
 33 34  2  0  0  0  0
 21 22  1  0  0  0  0
 22 23  1  0  0  0  0
 18 21  1  0  0  0  0
 17 23  1  0  0  0  0
 17 18  1  0  0  0  0
  8 11  1  0  0  0  0
 32 35  1  0  0  0  0
 41 42  1  0  0  0  0
  7  8  1  0  0  0  0
 31 32  1  0  0  0  0
 22 27  1  0  0  0  0
 22 28  1  0  0  0  0
 21 25  1  0  0  0  0
 21 26  1  0  0  0  0
 23 29  1  0  0  0  0
 23 30  1  0  0  0  0
 18 24  1  0  0  0  0
  3  4  1  0  0  0  0
  3  5  1  0  0  0  0
  3  6  1  0  0  0  0
 11 14  1  0  0  0  0
 11 15  1  0  0  0  0
 11 16  1  0  0  0  0
 35 38  1  0  0  0  0
 35 39  1  0  0  0  0
 35 40  1  0  0  0  0
 42 44  1  0  0  0  0
 42 45  1  0  0  0  0
 42 46  1  0  0  0  0
  8 13  1  0  0  0  0
 32 37  1  0  0  0  0
 31 36  1  0  0  0  0
 41 43  1  0  0  0  0
  7 12  1  0  0  0  0
M  END
$$$$

  -OEChem-05262214473D

 46 46  0     1  0  0  0  0  0999 V2000
   -0.6012   -3.2995    3.8205 C   0  0  0  0  0  0  0  0  0  0  0  0
   -0.6574   -4.4683    3.4568 O   0  0  0  0  0  0  0  0  0  0  0  0
   -0.4935   -2.9859    5.2760 C   0  0  0  0  0  0  0  0  0  0  0  0
   -1.4789   -2.8689    5.7550 H   0  0  0  0  0  0  0  0  0  0  0  0
    0.0123   -3.7847    5.8419 H   0  0  0  0  0  0  0  0  0  0  0  0
    0.0585   -2.0642    5.5199 H   0  0  0  0  0  0  0  0  0  0  0  0
   -0.6261   -2.1849    2.9917 N   0  0  0  0  0  0  0  0  0  0  0  0
   -0.7237   -2.2601    1.5650 C   0  0  2  0  0  0  0  0  0  0  0  0
    0.1695   -1.1513    1.0687 C   0  0  0  0  0  0  0  0  0  0  0  0
    0.3193   -0.1267    1.7365 O   0  0  0  0  0  0  0  0  0  0  0  0
   -2.1397   -2.0663    1.0750 C   0  0  0  0  0  0  0  0  0  0  0  0
   -0.5717   -1.2606    3.4238 H   0  0  0  0  0  0  0  0  0  0  0  0
   -0.3076   -3.2111    1.2363 H   0  0  0  0  0  0  0  0  0  0  0  0
   -2.5584   -1.1089    1.4061 H   0  0  0  0  0  0  0  0  0  0  0  0
   -2.1682   -2.0790   -0.0197 H   0  0  0  0  0  0  0  0  0  0  0  0
   -2.7965   -2.8601    1.4459 H   0  0  0  0  0  0  0  0  0  0  0  0
    0.7724   -1.3745   -0.1593 N   0  0  0  0  0  0  0  0  0  0  0  0
    0.5614   -2.5964   -0.9244 C   0  0  2  0  0  0  0  0  0  0  0  0
    0.6723   -3.7431    0.0349 C   0  0  0  0  0  0  0  0  0  0  0  0
    1.5297   -4.6001   -0.1444 O   0  0  0  0  0  0  0  0  0  0  0  0
    1.6860   -2.6084   -1.9532 C   0  0  0  0  0  0  0  0  0  0  0  0
    2.0814   -1.1452   -2.1372 C   0  0  0  0  0  0  0  0  0  0  0  0
    1.5408   -0.3981   -0.9273 C   0  0  0  0  0  0  0  0  0  0  0  0
   -0.4352   -2.6100   -1.3758 H   0  0  0  0  0  0  0  0  0  0  0  0
    1.3151   -2.9965   -2.9093 H   0  0  0  0  0  0  0  0  0  0  0  0
    2.5523   -3.2033   -1.6478 H   0  0  0  0  0  0  0  0  0  0  0  0
    3.1727   -1.0445   -2.1557 H   0  0  0  0  0  0  0  0  0  0  0  0
    1.6822   -0.7230   -3.0638 H   0  0  0  0  0  0  0  0  0  0  0  0
    2.3334    0.0318   -0.3088 H   0  0  0  0  0  0  0  0  0  0  0  0
    0.8504    0.3975   -1.2275 H   0  0  0  0  0  0  0  0  0  0  0  0
   -0.2997   -3.6537    1.0717 N   0  0  0  0  0  0  0  0  0  0  0  0
   -0.9045   -4.6857    1.8831 C   0  0  2  0  0  0  0  0  0  0  0  0
   -0.0458   -5.9382    1.7678 C   0  0  0  0  0  0  0  0  0  0  0  0
    0.7122   -6.1472    0.8230 O   0  0  0  0  0  0  0  0  0  0  0  0
   -2.3345   -4.9651    1.4475 C   0  0  0  0  0  0  0  0  0  0  0  0
   -0.0264   -2.7844    1.5200 H   0  0  0  0  0  0  0  0  0  0  0  0
   -0.8883   -4.3250    2.9173 H   0  0  0  0  0  0  0  0  0  0  0  0
   -2.3708   -5.3274    0.4137 H   0  0  0  0  0  0  0  0  0  0  0  0
   -2.8007   -5.7267    2.0812 H   0  0  0  0  0  0  0  0  0  0  0  0
   -2.9433   -4.0562    1.5027 H   0  0  0  0  0  0  0  0  0  0  0  0
   -0.2576   -6.8151    2.8225 N   0  0  0  0  0  0  0  0  0  0  0  0
    0.4296   -8.0805    2.9345 C   0  0  0  0  0  0  0  0  0  0  0  0
   -0.8905   -6.5515    3.5720 H   0  0  0  0  0  0  0  0  0  0  0  0
   -0.1771   -8.8704    2.4678 H   0  0  0  0  0  0  0  0  0  0  0  0
    1.4021   -8.0157    2.4246 H   0  0  0  0  0  0  0  0  0  0  0  0
    0.5876   -8.3190    3.9966 H   0  0  0  0  0  0  0  0  0  0  0  0
 18 19  1  0  0  0  0
 19 31  1  0  0  0  0
 19 20  2  0  0  0  0
  8  9  1  0  0  0  0
  9 17  1  0  0  0  0
  9 10  2  0  0  0  0
  1  3  1  0  0  0  0
  1  7  1  0  0  0  0
  1  2  2  0  0  0  0
 32 33  1  0  0  0  0
 33 41  1  0  0  0  0
 33 34  2  0  0  0  0
 21 22  1  0  0  0  0
 22 23  1  0  0  0  0
 18 21  1  0  0  0  0
 17 23  1  0  0  0  0
 17 18  1  0  0  0  0
  8 11  1  0  0  0  0
 32 35  1  0  0  0  0
 41 42  1  0  0  0  0
  7  8  1  0  0  0  0
 31 32  1  0  0  0  0
 22 27  1  0  0  0  0
 22 28  1  0  0  0  0
 21 25  1  0  0  0  0
 21 26  1  0  0  0  0
 23 29  1  0  0  0  0
 23 30  1  0  0  0  0
 18 24  1  0  0  0  0
  3  4  1  0  0  0  0
  3  5  1  0  0  0  0
  3  6  1  0  0  0  0
 11 14  1  0  0  0  0
 11 15  1  0  0  0  0
 11 16  1  0  0  0  0
 35 38  1  0  0  0  0
 35 39  1  0  0  0  0
 35 40  1  0  0  0  0
 42 44  1  0  0  0  0
 42 45  1  0  0  0  0
 42 46  1  0  0  0  0
  8 13  1  0  0  0  0
 32 37  1  0  0  0  0
 31 36  1  0  0  0  0
 41 43  1  0  0  0  0
  7 12  1  0  0  0  0
M  END
$$$$

  -OEChem-05262214473D

 46 46  0     1  0  0  0  0  0999 V2000
   -0.6012   -3.2995    3.8205 C   0  0  0  0  0  0  0  0  0  0  0  0
   -0.6574   -4.4683    3.4568 O   0  0  0  0  0  0  0  0  0  0  0  0
   -0.4935   -2.9859    5.2760 C   0  0  0  0  0  0  0  0  0  0  0  0
   -1.4789   -2.8689    5.7550 H   0  0  0  0  0  0  0  0  0  0  0  0
    0.0123   -3.7847    5.8419 H   0  0  0  0  0  0  0  0  0  0  0  0
    0.0585   -2.0642    5.5199 H   0  0  0  0  0  0  0  0  0  0  0  0
   -0.6261   -2.1849    2.9917 N   0  0  0  0  0  0  0  0  0  0  0  0
   -0.7237   -2.2601    1.5650 C   0  0  2  0  0  0  0  0  0  0  0  0
    0.1695   -1.1513    1.0687 C   0  0  0  0  0  0  0  0  0  0  0  0
    0.3193   -0.1267    1.7365 O   0  0  0  0  0  0  0  0  0  0  0  0
   -2.1397   -2.0663    1.0750 C   0  0  0  0  0  0  0  0  0  0  0  0
   -0.5717   -1.2606    3.4238 H   0  0  0  0  0  0  0  0  0  0  0  0
   -0.3076   -3.2111    1.2363 H   0  0  0  0  0  0  0  0  0  0  0  0
   -2.5584   -1.1089    1.4061 H   0  0  0  0  0  0  0  0  0  0  0  0
   -2.1682   -2.0790   -0.0197 H   0  0  0  0  0  0  0  0  0  0  0  0
   -2.7965   -2.8601    1.4459 H   0  0  0  0  0  0  0  0  0  0  0  0
    0.7724   -1.3745   -0.1593 N   0  0  0  0  0  0  0  0  0  0  0  0
    0.5614   -2.5964   -0.9244 C   0  0  2  0  0  0  0  0  0  0  0  0
    0.6723   -3.7431    0.0349 C   0  0  0  0  0  0  0  0  0  0  0  0
    1.6794   -4.4412    0.0282 O   0  0  0  0  0  0  0  0  0  0  0  0
    1.6860   -2.6084   -1.9532 C   0  0  0  0  0  0  0  0  0  0  0  0
    2.0814   -1.1452   -2.1372 C   0  0  0  0  0  0  0  0  0  0  0  0
    1.5408   -0.3981   -0.9273 C   0  0  0  0  0  0  0  0  0  0  0  0
   -0.4352   -2.6100   -1.3758 H   0  0  0  0  0  0  0  0  0  0  0  0
    1.3151   -2.9965   -2.9093 H   0  0  0  0  0  0  0  0  0  0  0  0
    2.5523   -3.2033   -1.6478 H   0  0  0  0  0  0  0  0  0  0  0  0
    3.1727   -1.0445   -2.1557 H   0  0  0  0  0  0  0  0  0  0  0  0
    1.6822   -0.7230   -3.0638 H   0  0  0  0  0  0  0  0  0  0  0  0
    2.3334    0.0318   -0.3088 H   0  0  0  0  0  0  0  0  0  0  0  0
    0.8504    0.3975   -1.2275 H   0  0  0  0  0  0  0  0  0  0  0  0
   -0.4853   -3.8513    0.8571 N   0  0  0  0  0  0  0  0  0  0  0  0
   -1.0560   -4.9967    1.5289 C   0  0  2  0  0  0  0  0  0  0  0  0
    0.0061   -6.0868    1.5842 C   0  0  0  0  0  0  0  0  0  0  0  0
    0.9590   -6.1350    0.8091 O   0  0  0  0  0  0  0  0  0  0  0  0
   -2.3052   -5.4906    0.8160 C   0  0  0  0  0  0  0  0  0  0  0  0
   -0.4550   -2.9655    1.3530 H   0  0  0  0  0  0  0  0  0  0  0  0
   -1.3039   -4.6755    2.5464 H   0  0  0  0  0  0  0  0  0  0  0  0
   -2.0766   -5.8167   -0.2052 H   0  0  0  0  0  0  0  0  0  0  0  0
   -2.7524   -6.3404    1.3420 H   0  0  0  0  0  0  0  0  0  0  0  0
   -3.0565   -4.6962    0.7508 H   0  0  0  0  0  0  0  0  0  0  0  0
   -0.2588   -7.0238    2.5732 N   0  0  0  0  0  0  0  0  0  0  0  0
    0.5952   -8.1628    2.8170 C   0  0  0  0  0  0  0  0  0  0  0  0
   -1.0615   -6.8944    3.1820 H   0  0  0  0  0  0  0  0  0  0  0  0
    0.2330   -9.0241    2.2366 H   0  0  0  0  0  0  0  0  0  0  0  0
    1.6240   -7.9215    2.5116 H   0  0  0  0  0  0  0  0  0  0  0  0
    0.5793   -8.4101    3.8887 H   0  0  0  0  0  0  0  0  0  0  0  0
 18 19  1  0  0  0  0
 19 31  1  0  0  0  0
 19 20  2  0  0  0  0
  8  9  1  0  0  0  0
  9 17  1  0  0  0  0
  9 10  2  0  0  0  0
  1  3  1  0  0  0  0
  1  7  1  0  0  0  0
  1  2  2  0  0  0  0
 32 33  1  0  0  0  0
 33 41  1  0  0  0  0
 33 34  2  0  0  0  0
 21 22  1  0  0  0  0
 22 23  1  0  0  0  0
 18 21  1  0  0  0  0
 17 23  1  0  0  0  0
 17 18  1  0  0  0  0
  8 11  1  0  0  0  0
 32 35  1  0  0  0  0
 41 42  1  0  0  0  0
  7  8  1  0  0  0  0
 31 32  1  0  0  0  0
 22 27  1  0  0  0  0
 22 28  1  0  0  0  0
 21 25  1  0  0  0  0
 21 26  1  0  0  0  0
 23 29  1  0  0  0  0
 23 30  1  0  0  0  0
 18 24  1  0  0  0  0
  3  4  1  0  0  0  0
  3  5  1  0  0  0  0
  3  6  1  0  0  0  0
 11 14  1  0  0  0  0
 11 15  1  0  0  0  0
 11 16  1  0  0  0  0
 35 38  1  0  0  0  0
 35 39  1  0  0  0  0
 35 40  1  0  0  0  0
 42 44  1  0  0  0  0
 42 45  1  0  0  0  0
 42 46  1  0  0  0  0
  8 13  1  0  0  0  0
 32 37  1  0  0  0  0
 31 36  1  0  0  0  0
 41 43  1  0  0  0  0
  7 12  1  0  0  0  0
M  END
$$$$

  -OEChem-05262214473D

 46 46  0     1  0  0  0  0  0999 V2000
   -0.6012   -3.2995    3.8205 C   0  0  0  0  0  0  0  0  0  0  0  0
   -0.6574   -4.4683    3.4568 O   0  0  0  0  0  0  0  0  0  0  0  0
   -0.4935   -2.9859    5.2760 C   0  0  0  0  0  0  0  0  0  0  0  0
   -1.4789   -2.8689    5.7550 H   0  0  0  0  0  0  0  0  0  0  0  0
    0.0123   -3.7847    5.8419 H   0  0  0  0  0  0  0  0  0  0  0  0
    0.0585   -2.0642    5.5199 H   0  0  0  0  0  0  0  0  0  0  0  0
   -0.6261   -2.1849    2.9917 N   0  0  0  0  0  0  0  0  0  0  0  0
   -0.7237   -2.2601    1.5650 C   0  0  2  0  0  0  0  0  0  0  0  0
    0.1695   -1.1513    1.0687 C   0  0  0  0  0  0  0  0  0  0  0  0
    0.3193   -0.1267    1.7365 O   0  0  0  0  0  0  0  0  0  0  0  0
   -2.1397   -2.0663    1.0750 C   0  0  0  0  0  0  0  0  0  0  0  0
   -0.5717   -1.2606    3.4238 H   0  0  0  0  0  0  0  0  0  0  0  0
   -0.3076   -3.2111    1.2363 H   0  0  0  0  0  0  0  0  0  0  0  0
   -2.5584   -1.1089    1.4061 H   0  0  0  0  0  0  0  0  0  0  0  0
   -2.1682   -2.0790   -0.0197 H   0  0  0  0  0  0  0  0  0  0  0  0
   -2.7965   -2.8601    1.4459 H   0  0  0  0  0  0  0  0  0  0  0  0
    0.7724   -1.3745   -0.1593 N   0  0  0  0  0  0  0  0  0  0  0  0
    0.5614   -2.5964   -0.9244 C   0  0  2  0  0  0  0  0  0  0  0  0
    0.6723   -3.7431    0.0349 C   0  0  0  0  0  0  0  0  0  0  0  0
    1.7636   -4.2662    0.2276 O   0  0  0  0  0  0  0  0  0  0  0  0
    1.6860   -2.6084   -1.9532 C   0  0  0  0  0  0  0  0  0  0  0  0
    2.0814   -1.1452   -2.1372 C   0  0  0  0  0  0  0  0  0  0  0  0
    1.5408   -0.3981   -0.9273 C   0  0  0  0  0  0  0  0  0  0  0  0
   -0.4352   -2.6100   -1.3758 H   0  0  0  0  0  0  0  0  0  0  0  0
    1.3151   -2.9965   -2.9093 H   0  0  0  0  0  0  0  0  0  0  0  0
    2.5523   -3.2033   -1.6478 H   0  0  0  0  0  0  0  0  0  0  0  0
    3.1727   -1.0445   -2.1557 H   0  0  0  0  0  0  0  0  0  0  0  0
    1.6822   -0.7230   -3.0638 H   0  0  0  0  0  0  0  0  0  0  0  0
    2.3334    0.0318   -0.3088 H   0  0  0  0  0  0  0  0  0  0  0  0
    0.8504    0.3975   -1.2275 H   0  0  0  0  0  0  0  0  0  0  0  0
   -0.5894   -4.0687    0.6093 N   0  0  0  0  0  0  0  0  0  0  0  0
   -1.0807   -5.3154    1.1508 C   0  0  2  0  0  0  0  0  0  0  0  0
    0.1171   -6.2183    1.4143 C   0  0  0  0  0  0  0  0  0  0  0  0
    1.1980   -6.0820    0.8448 O   0  0  0  0  0  0  0  0  0  0  0  0
   -2.0649   -5.9812    0.2017 C   0  0  0  0  0  0  0  0  0  0  0  0
   -0.8058   -3.2083    1.1034 H   0  0  0  0  0  0  0  0  0  0  0  0
   -1.5738   -5.0758    2.0992 H   0  0  0  0  0  0  0  0  0  0  0  0
   -1.5889   -6.2288   -0.7542 H   0  0  0  0  0  0  0  0  0  0  0  0
   -2.4579   -6.9112    0.6258 H   0  0  0  0  0  0  0  0  0  0  0  0
   -2.9110   -5.3187   -0.0102 H   0  0  0  0  0  0  0  0  0  0  0  0
   -0.1760   -7.2207    2.3282 N   0  0  0  0  0  0  0  0  0  0  0  0
    0.7920   -8.2126    2.7347 C   0  0  0  0  0  0  0  0  0  0  0  0
   -1.0927   -7.2464    2.7648 H   0  0  0  0  0  0  0  0  0  0  0  0
    0.7004   -9.1002    2.0915 H   0  0  0  0  0  0  0  0  0  0  0  0
    1.8056   -7.7954    2.6414 H   0  0  0  0  0  0  0  0  0  0  0  0
    0.6077   -8.4974    3.7810 H   0  0  0  0  0  0  0  0  0  0  0  0
 18 19  1  0  0  0  0
 19 31  1  0  0  0  0
 19 20  2  0  0  0  0
  8  9  1  0  0  0  0
  9 17  1  0  0  0  0
  9 10  2  0  0  0  0
  1  3  1  0  0  0  0
  1  7  1  0  0  0  0
  1  2  2  0  0  0  0
 32 33  1  0  0  0  0
 33 41  1  0  0  0  0
 33 34  2  0  0  0  0
 21 22  1  0  0  0  0
 22 23  1  0  0  0  0
 18 21  1  0  0  0  0
 17 23  1  0  0  0  0
 17 18  1  0  0  0  0
  8 11  1  0  0  0  0
 32 35  1  0  0  0  0
 41 42  1  0  0  0  0
  7  8  1  0  0  0  0
 31 32  1  0  0  0  0
 22 27  1  0  0  0  0
 22 28  1  0  0  0  0
 21 25  1  0  0  0  0
 21 26  1  0  0  0  0
 23 29  1  0  0  0  0
 23 30  1  0  0  0  0
 18 24  1  0  0  0  0
  3  4  1  0  0  0  0
  3  5  1  0  0  0  0
  3  6  1  0  0  0  0
 11 14  1  0  0  0  0
 11 15  1  0  0  0  0
 11 16  1  0  0  0  0
 35 38  1  0  0  0  0
 35 39  1  0  0  0  0
 35 40  1  0  0  0  0
 42 44  1  0  0  0  0
 42 45  1  0  0  0  0
 42 46  1  0  0  0  0
  8 13  1  0  0  0  0
 32 37  1  0  0  0  0
 31 36  1  0  0  0  0
 41 43  1  0  0  0  0
  7 12  1  0  0  0  0
M  END
$$$$

  -OEChem-05262214473D

 46 46  0     1  0  0  0  0  0999 V2000
   -0.6012   -3.2995    3.8205 C   0  0  0  0  0  0  0  0  0  0  0  0
   -0.6574   -4.4683    3.4568 O   0  0  0  0  0  0  0  0  0  0  0  0
   -0.4935   -2.9859    5.2760 C   0  0  0  0  0  0  0  0  0  0  0  0
   -1.4789   -2.8689    5.7550 H   0  0  0  0  0  0  0  0  0  0  0  0
    0.0123   -3.7847    5.8419 H   0  0  0  0  0  0  0  0  0  0  0  0
    0.0585   -2.0642    5.5199 H   0  0  0  0  0  0  0  0  0  0  0  0
   -0.6261   -2.1849    2.9917 N   0  0  0  0  0  0  0  0  0  0  0  0
   -0.7237   -2.2601    1.5650 C   0  0  2  0  0  0  0  0  0  0  0  0
    0.1695   -1.1513    1.0687 C   0  0  0  0  0  0  0  0  0  0  0  0
    0.3193   -0.1267    1.7365 O   0  0  0  0  0  0  0  0  0  0  0  0
   -2.1397   -2.0663    1.0750 C   0  0  0  0  0  0  0  0  0  0  0  0
   -0.5717   -1.2606    3.4238 H   0  0  0  0  0  0  0  0  0  0  0  0
   -0.3076   -3.2111    1.2363 H   0  0  0  0  0  0  0  0  0  0  0  0
   -2.5584   -1.1089    1.4061 H   0  0  0  0  0  0  0  0  0  0  0  0
   -2.1682   -2.0790   -0.0197 H   0  0  0  0  0  0  0  0  0  0  0  0
   -2.7965   -2.8601    1.4459 H   0  0  0  0  0  0  0  0  0  0  0  0
    0.7724   -1.3745   -0.1593 N   0  0  0  0  0  0  0  0  0  0  0  0
    0.5614   -2.5964   -0.9244 C   0  0  2  0  0  0  0  0  0  0  0  0
    0.6723   -3.7431    0.0349 C   0  0  0  0  0  0  0  0  0  0  0  0
    1.7764   -4.0871    0.4402 O   0  0  0  0  0  0  0  0  0  0  0  0
    1.6860   -2.6084   -1.9532 C   0  0  0  0  0  0  0  0  0  0  0  0
    2.0814   -1.1452   -2.1372 C   0  0  0  0  0  0  0  0  0  0  0  0
    1.5408   -0.3981   -0.9273 C   0  0  0  0  0  0  0  0  0  0  0  0
   -0.4352   -2.6100   -1.3758 H   0  0  0  0  0  0  0  0  0  0  0  0
    1.3151   -2.9965   -2.9093 H   0  0  0  0  0  0  0  0  0  0  0  0
    2.5523   -3.2033   -1.6478 H   0  0  0  0  0  0  0  0  0  0  0  0
    3.1727   -1.0445   -2.1557 H   0  0  0  0  0  0  0  0  0  0  0  0
    1.6822   -0.7230   -3.0638 H   0  0  0  0  0  0  0  0  0  0  0  0
    2.3334    0.0318   -0.3088 H   0  0  0  0  0  0  0  0  0  0  0  0
    0.8504    0.3975   -1.2275 H   0  0  0  0  0  0  0  0  0  0  0  0
   -0.6048   -4.2912    0.3451 N   0  0  0  0  0  0  0  0  0  0  0  0
   -0.9770   -5.6201    0.7745 C   0  0  2  0  0  0  0  0  0  0  0  0
    0.2798   -6.3236    1.2696 C   0  0  0  0  0  0  0  0  0  0  0  0
    1.4130   -5.9919    0.9277 O   0  0  0  0  0  0  0  0  0  0  0  0
   -1.6299   -6.4036   -0.3535 C   0  0  0  0  0  0  0  0  0  0  0  0
   -1.0552   -3.4961    0.7882 H   0  0  0  0  0  0  0  0  0  0  0  0
   -1.6797   -5.4986    1.6060 H   0  0  0  0  0  0  0  0  0  0  0  0
   -0.9408   -6.5355   -1.1957 H   0  0  0  0  0  0  0  0  0  0  0  0
   -1.9370   -7.3999   -0.0187 H   0  0  0  0  0  0  0  0  0  0  0  0
   -2.5168   -5.8814   -0.7284 H   0  0  0  0  0  0  0  0  0  0  0  0
   -0.0149   -7.3926    2.1042 N   0  0  0  0  0  0  0  0  0  0  0  0
    1.0067   -8.2265    2.6932 C   0  0  0  0  0  0  0  0  0  0  0  0
   -0.9820   -7.5836    2.3490 H   0  0  0  0  0  0  0  0  0  0  0  0
    1.1932   -9.0936    2.0425 H   0  0  0  0  0  0  0  0  0  0  0  0
    1.9343   -7.6460    2.8050 H   0  0  0  0  0  0  0  0  0  0  0  0
    0.6709   -8.5750    3.6810 H   0  0  0  0  0  0  0  0  0  0  0  0
 18 19  1  0  0  0  0
 19 31  1  0  0  0  0
 19 20  2  0  0  0  0
  8  9  1  0  0  0  0
  9 17  1  0  0  0  0
  9 10  2  0  0  0  0
  1  3  1  0  0  0  0
  1  7  1  0  0  0  0
  1  2  2  0  0  0  0
 32 33  1  0  0  0  0
 33 41  1  0  0  0  0
 33 34  2  0  0  0  0
 21 22  1  0  0  0  0
 22 23  1  0  0  0  0
 18 21  1  0  0  0  0
 17 23  1  0  0  0  0
 17 18  1  0  0  0  0
  8 11  1  0  0  0  0
 32 35  1  0  0  0  0
 41 42  1  0  0  0  0
  7  8  1  0  0  0  0
 31 32  1  0  0  0  0
 22 27  1  0  0  0  0
 22 28  1  0  0  0  0
 21 25  1  0  0  0  0
 21 26  1  0  0  0  0
 23 29  1  0  0  0  0
 23 30  1  0  0  0  0
 18 24  1  0  0  0  0
  3  4  1  0  0  0  0
  3  5  1  0  0  0  0
  3  6  1  0  0  0  0
 11 14  1  0  0  0  0
 11 15  1  0  0  0  0
 11 16  1  0  0  0  0
 35 38  1  0  0  0  0
 35 39  1  0  0  0  0
 35 40  1  0  0  0  0
 42 44  1  0  0  0  0
 42 45  1  0  0  0  0
 42 46  1  0  0  0  0
  8 13  1  0  0  0  0
 32 37  1  0  0  0  0
 31 36  1  0  0  0  0
 41 43  1  0  0  0  0
  7 12  1  0  0  0  0
M  END
$$$$

  -OEChem-05262214473D

 46 46  0     1  0  0  0  0  0999 V2000
   -0.6012   -3.2995    3.8205 C   0  0  0  0  0  0  0  0  0  0  0  0
   -0.6574   -4.4683    3.4568 O   0  0  0  0  0  0  0  0  0  0  0  0
   -0.4935   -2.9859    5.2760 C   0  0  0  0  0  0  0  0  0  0  0  0
   -1.4789   -2.8689    5.7550 H   0  0  0  0  0  0  0  0  0  0  0  0
    0.0123   -3.7847    5.8419 H   0  0  0  0  0  0  0  0  0  0  0  0
    0.0585   -2.0642    5.5199 H   0  0  0  0  0  0  0  0  0  0  0  0
   -0.6261   -2.1849    2.9917 N   0  0  0  0  0  0  0  0  0  0  0  0
   -0.7237   -2.2601    1.5650 C   0  0  2  0  0  0  0  0  0  0  0  0
    0.1695   -1.1513    1.0687 C   0  0  0  0  0  0  0  0  0  0  0  0
    0.3193   -0.1267    1.7365 O   0  0  0  0  0  0  0  0  0  0  0  0
   -2.1397   -2.0663    1.0750 C   0  0  0  0  0  0  0  0  0  0  0  0
   -0.5717   -1.2606    3.4238 H   0  0  0  0  0  0  0  0  0  0  0  0
   -0.3076   -3.2111    1.2363 H   0  0  0  0  0  0  0  0  0  0  0  0
   -2.5584   -1.1089    1.4061 H   0  0  0  0  0  0  0  0  0  0  0  0
   -2.1682   -2.0790   -0.0197 H   0  0  0  0  0  0  0  0  0  0  0  0
   -2.7965   -2.8601    1.4459 H   0  0  0  0  0  0  0  0  0  0  0  0
    0.7724   -1.3745   -0.1593 N   0  0  0  0  0  0  0  0  0  0  0  0
    0.5614   -2.5964   -0.9244 C   0  0  2  0  0  0  0  0  0  0  0  0
    0.6723   -3.7431    0.0349 C   0  0  0  0  0  0  0  0  0  0  0  0
    1.7171   -3.9160    0.6516 O   0  0  0  0  0  0  0  0  0  0  0  0
    1.6860   -2.6084   -1.9532 C   0  0  0  0  0  0  0  0  0  0  0  0
    2.0814   -1.1452   -2.1372 C   0  0  0  0  0  0  0  0  0  0  0  0
    1.5408   -0.3981   -0.9273 C   0  0  0  0  0  0  0  0  0  0  0  0
   -0.4352   -2.6100   -1.3758 H   0  0  0  0  0  0  0  0  0  0  0  0
    1.3151   -2.9965   -2.9093 H   0  0  0  0  0  0  0  0  0  0  0  0
    2.5523   -3.2033   -1.6478 H   0  0  0  0  0  0  0  0  0  0  0  0
    3.1727   -1.0445   -2.1557 H   0  0  0  0  0  0  0  0  0  0  0  0
    1.6822   -0.7230   -3.0638 H   0  0  0  0  0  0  0  0  0  0  0  0
    2.3334    0.0318   -0.3088 H   0  0  0  0  0  0  0  0  0  0  0  0
    0.8504    0.3975   -1.2275 H   0  0  0  0  0  0  0  0  0  0  0  0
   -0.5306   -4.5036    0.0826 N   0  0  0  0  0  0  0  0  0  0  0  0
   -0.7518   -5.8900    0.4258 C   0  0  2  0  0  0  0  0  0  0  0  0
    0.4830   -6.3956    1.1600 C   0  0  0  0  0  0  0  0  0  0  0  0
    1.5894   -5.8708    1.0520 O   0  0  0  0  0  0  0  0  0  0  0  0
   -1.0298   -6.7289   -0.8118 C   0  0  0  0  0  0  0  0  0  0  0  0
   -1.1859   -3.8093    0.4289 H   0  0  0  0  0  0  0  0  0  0  0  0
   -1.6144   -5.9150    1.1007 H   0  0  0  0  0  0  0  0  0  0  0  0
   -0.1767   -6.7160   -1.4998 H   0  0  0  0  0  0  0  0  0  0  0  0
   -1.2254   -7.7734   -0.5474 H   0  0  0  0  0  0  0  0  0  0  0  0
   -1.9006   -6.3458   -1.3548 H   0  0  0  0  0  0  0  0  0  0  0  0
    0.2136   -7.5276    1.9163 N   0  0  0  0  0  0  0  0  0  0  0  0
    1.2246   -8.2036    2.6953 C   0  0  0  0  0  0  0  0  0  0  0  0
   -0.7368   -7.8830    1.9627 H   0  0  0  0  0  0  0  0  0  0  0  0
    1.6778   -9.0046    2.0928 H   0  0  0  0  0  0  0  0  0  0  0  0
    2.0015   -7.4835    2.9915 H   0  0  0  0  0  0  0  0  0  0  0  0
    0.7646   -8.6376    3.5954 H   0  0  0  0  0  0  0  0  0  0  0  0
 18 19  1  0  0  0  0
 19 31  1  0  0  0  0
 19 20  2  0  0  0  0
  8  9  1  0  0  0  0
  9 17  1  0  0  0  0
  9 10  2  0  0  0  0
  1  3  1  0  0  0  0
  1  7  1  0  0  0  0
  1  2  2  0  0  0  0
 32 33  1  0  0  0  0
 33 41  1  0  0  0  0
 33 34  2  0  0  0  0
 21 22  1  0  0  0  0
 22 23  1  0  0  0  0
 18 21  1  0  0  0  0
 17 23  1  0  0  0  0
 17 18  1  0  0  0  0
  8 11  1  0  0  0  0
 32 35  1  0  0  0  0
 41 42  1  0  0  0  0
  7  8  1  0  0  0  0
 31 32  1  0  0  0  0
 22 27  1  0  0  0  0
 22 28  1  0  0  0  0
 21 25  1  0  0  0  0
 21 26  1  0  0  0  0
 23 29  1  0  0  0  0
 23 30  1  0  0  0  0
 18 24  1  0  0  0  0
  3  4  1  0  0  0  0
  3  5  1  0  0  0  0
  3  6  1  0  0  0  0
 11 14  1  0  0  0  0
 11 15  1  0  0  0  0
 11 16  1  0  0  0  0
 35 38  1  0  0  0  0
 35 39  1  0  0  0  0
 35 40  1  0  0  0  0
 42 44  1  0  0  0  0
 42 45  1  0  0  0  0
 42 46  1  0  0  0  0
  8 13  1  0  0  0  0
 32 37  1  0  0  0  0
 31 36  1  0  0  0  0
 41 43  1  0  0  0  0
  7 12  1  0  0  0  0
M  END
$$$$

  -OEChem-05262214473D

 46 46  0     1  0  0  0  0  0999 V2000
   -0.6012   -3.2995    3.8205 C   0  0  0  0  0  0  0  0  0  0  0  0
   -0.6574   -4.4683    3.4568 O   0  0  0  0  0  0  0  0  0  0  0  0
   -0.4935   -2.9859    5.2760 C   0  0  0  0  0  0  0  0  0  0  0  0
   -1.4789   -2.8689    5.7550 H   0  0  0  0  0  0  0  0  0  0  0  0
    0.0123   -3.7847    5.8419 H   0  0  0  0  0  0  0  0  0  0  0  0
    0.0585   -2.0642    5.5199 H   0  0  0  0  0  0  0  0  0  0  0  0
   -0.6261   -2.1849    2.9917 N   0  0  0  0  0  0  0  0  0  0  0  0
   -0.7237   -2.2601    1.5650 C   0  0  2  0  0  0  0  0  0  0  0  0
    0.1695   -1.1513    1.0687 C   0  0  0  0  0  0  0  0  0  0  0  0
    0.3193   -0.1267    1.7365 O   0  0  0  0  0  0  0  0  0  0  0  0
   -2.1397   -2.0663    1.0750 C   0  0  0  0  0  0  0  0  0  0  0  0
   -0.5717   -1.2606    3.4238 H   0  0  0  0  0  0  0  0  0  0  0  0
   -0.3076   -3.2111    1.2363 H   0  0  0  0  0  0  0  0  0  0  0  0
   -2.5584   -1.1089    1.4061 H   0  0  0  0  0  0  0  0  0  0  0  0
   -2.1682   -2.0790   -0.0197 H   0  0  0  0  0  0  0  0  0  0  0  0
   -2.7965   -2.8601    1.4459 H   0  0  0  0  0  0  0  0  0  0  0  0
    0.7724   -1.3745   -0.1593 N   0  0  0  0  0  0  0  0  0  0  0  0
    0.5614   -2.5964   -0.9244 C   0  0  2  0  0  0  0  0  0  0  0  0
    0.6723   -3.7431    0.0349 C   0  0  0  0  0  0  0  0  0  0  0  0
    1.5896   -3.7647    0.8473 O   0  0  0  0  0  0  0  0  0  0  0  0
    1.6860   -2.6084   -1.9532 C   0  0  0  0  0  0  0  0  0  0  0  0
    2.0814   -1.1452   -2.1372 C   0  0  0  0  0  0  0  0  0  0  0  0
    1.5408   -0.3981   -0.9273 C   0  0  0  0  0  0  0  0  0  0  0  0
   -0.4352   -2.6100   -1.3758 H   0  0  0  0  0  0  0  0  0  0  0  0
    1.3151   -2.9965   -2.9093 H   0  0  0  0  0  0  0  0  0  0  0  0
    2.5523   -3.2033   -1.6478 H   0  0  0  0  0  0  0  0  0  0  0  0
    3.1727   -1.0445   -2.1557 H   0  0  0  0  0  0  0  0  0  0  0  0
    1.6822   -0.7230   -3.0638 H   0  0  0  0  0  0  0  0  0  0  0  0
    2.3334    0.0318   -0.3088 H   0  0  0  0  0  0  0  0  0  0  0  0
    0.8504    0.3975   -1.2275 H   0  0  0  0  0  0  0  0  0  0  0  0
   -0.3718   -4.6915   -0.1603 N   0  0  0  0  0  0  0  0  0  0  0  0
   -0.4206   -6.1068    0.1284 C   0  0  2  0  0  0  0  0  0  0  0  0
    0.7129   -6.4294    1.0930 C   0  0  0  0  0  0  0  0  0  0  0  0
    1.7151   -5.7271    1.2093 O   0  0  0  0  0  0  0  0  0  0  0  0
   -0.3056   -6.9350   -1.1418 C   0  0  0  0  0  0  0  0  0  0  0  0
   -1.1892   -4.1267    0.0499 H   0  0  0  0  0  0  0  0  0  0  0  0
   -1.3823   -6.2968    0.6175 H   0  0  0  0  0  0  0  0  0  0  0  0
    0.6516   -6.7579   -1.6457 H   0  0  0  0  0  0  0  0  0  0  0  0
   -0.3714   -8.0062   -0.9244 H   0  0  0  0  0  0  0  0  0  0  0  0
   -1.1044   -6.6804   -1.8468 H   0  0  0  0  0  0  0  0  0  0  0  0
    0.4938   -7.6166    1.7776 N   0  0  0  0  0  0  0  0  0  0  0  0
    1.4309   -8.1455    2.7410 C   0  0  0  0  0  0  0  0  0  0  0  0
   -0.3740   -8.1242    1.6324 H   0  0  0  0  0  0  0  0  0  0  0  0
    2.1212   -8.8394    2.2390 H   0  0  0  0  0  0  0  0  0  0  0  0
    2.0027   -7.3189    3.1881 H   0  0  0  0  0  0  0  0  0  0  0  0
    0.8824   -8.6809    3.5300 H   0  0  0  0  0  0  0  0  0  0  0  0
 18 19  1  0  0  0  0
 19 31  1  0  0  0  0
 19 20  2  0  0  0  0
  8  9  1  0  0  0  0
  9 17  1  0  0  0  0
  9 10  2  0  0  0  0
  1  3  1  0  0  0  0
  1  7  1  0  0  0  0
  1  2  2  0  0  0  0
 32 33  1  0  0  0  0
 33 41  1  0  0  0  0
 33 34  2  0  0  0  0
 21 22  1  0  0  0  0
 22 23  1  0  0  0  0
 18 21  1  0  0  0  0
 17 23  1  0  0  0  0
 17 18  1  0  0  0  0
  8 11  1  0  0  0  0
 32 35  1  0  0  0  0
 41 42  1  0  0  0  0
  7  8  1  0  0  0  0
 31 32  1  0  0  0  0
 22 27  1  0  0  0  0
 22 28  1  0  0  0  0
 21 25  1  0  0  0  0
 21 26  1  0  0  0  0
 23 29  1  0  0  0  0
 23 30  1  0  0  0  0
 18 24  1  0  0  0  0
  3  4  1  0  0  0  0
  3  5  1  0  0  0  0
  3  6  1  0  0  0  0
 11 14  1  0  0  0  0
 11 15  1  0  0  0  0
 11 16  1  0  0  0  0
 35 38  1  0  0  0  0
 35 39  1  0  0  0  0
 35 40  1  0  0  0  0
 42 44  1  0  0  0  0
 42 45  1  0  0  0  0
 42 46  1  0  0  0  0
  8 13  1  0  0  0  0
 32 37  1  0  0  0  0
 31 36  1  0  0  0  0
 41 43  1  0  0  0  0
  7 12  1  0  0  0  0
M  END
$$$$

  -OEChem-05262214473D

 46 46  0     1  0  0  0  0  0999 V2000
   -0.6012   -3.2995    3.8205 C   0  0  0  0  0  0  0  0  0  0  0  0
   -0.6574   -4.4683    3.4568 O   0  0  0  0  0  0  0  0  0  0  0  0
   -0.4935   -2.9859    5.2760 C   0  0  0  0  0  0  0  0  0  0  0  0
   -1.4789   -2.8689    5.7550 H   0  0  0  0  0  0  0  0  0  0  0  0
    0.0123   -3.7847    5.8419 H   0  0  0  0  0  0  0  0  0  0  0  0
    0.0585   -2.0642    5.5199 H   0  0  0  0  0  0  0  0  0  0  0  0
   -0.6261   -2.1849    2.9917 N   0  0  0  0  0  0  0  0  0  0  0  0
   -0.7237   -2.2601    1.5650 C   0  0  2  0  0  0  0  0  0  0  0  0
    0.1695   -1.1513    1.0687 C   0  0  0  0  0  0  0  0  0  0  0  0
    0.3193   -0.1267    1.7365 O   0  0  0  0  0  0  0  0  0  0  0  0
   -2.1397   -2.0663    1.0750 C   0  0  0  0  0  0  0  0  0  0  0  0
   -0.5717   -1.2606    3.4238 H   0  0  0  0  0  0  0  0  0  0  0  0
   -0.3076   -3.2111    1.2363 H   0  0  0  0  0  0  0  0  0  0  0  0
   -2.5584   -1.1089    1.4061 H   0  0  0  0  0  0  0  0  0  0  0  0
   -2.1682   -2.0790   -0.0197 H   0  0  0  0  0  0  0  0  0  0  0  0
   -2.7965   -2.8601    1.4459 H   0  0  0  0  0  0  0  0  0  0  0  0
    0.7724   -1.3745   -0.1593 N   0  0  0  0  0  0  0  0  0  0  0  0
    0.5614   -2.5964   -0.9244 C   0  0  2  0  0  0  0  0  0  0  0  0
    0.6723   -3.7431    0.0349 C   0  0  0  0  0  0  0  0  0  0  0  0
    1.4026   -3.6433    1.0139 O   0  0  0  0  0  0  0  0  0  0  0  0
    1.6860   -2.6084   -1.9532 C   0  0  0  0  0  0  0  0  0  0  0  0
    2.0814   -1.1452   -2.1372 C   0  0  0  0  0  0  0  0  0  0  0  0
    1.5408   -0.3981   -0.9273 C   0  0  0  0  0  0  0  0  0  0  0  0
   -0.4352   -2.6100   -1.3758 H   0  0  0  0  0  0  0  0  0  0  0  0
    1.3151   -2.9965   -2.9093 H   0  0  0  0  0  0  0  0  0  0  0  0
    2.5523   -3.2033   -1.6478 H   0  0  0  0  0  0  0  0  0  0  0  0
    3.1727   -1.0445   -2.1557 H   0  0  0  0  0  0  0  0  0  0  0  0
    1.6822   -0.7230   -3.0638 H   0  0  0  0  0  0  0  0  0  0  0  0
    2.3334    0.0318   -0.3088 H   0  0  0  0  0  0  0  0  0  0  0  0
    0.8504    0.3975   -1.2275 H   0  0  0  0  0  0  0  0  0  0  0  0
   -0.1392   -4.8420   -0.3671 N   0  0  0  0  0  0  0  0  0  0  0  0
   -0.0059   -6.2556   -0.0974 C   0  0  2  0  0  0  0  0  0  0  0  0
    0.9539   -6.4226    1.0732 C   0  0  0  0  0  0  0  0  0  0  0  0
    1.7816   -5.5704    1.3888 O   0  0  0  0  0  0  0  0  0  0  0  0
    0.4934   -7.0078   -1.3212 C   0  0  0  0  0  0  0  0  0  0  0  0
   -1.0648   -4.4265   -0.3228 H   0  0  0  0  0  0  0  0  0  0  0  0
   -0.9992   -6.6179    0.1893 H   0  0  0  0  0  0  0  0  0  0  0  0
    1.4874   -6.6585   -1.6235 H   0  0  0  0  0  0  0  0  0  0  0  0
    0.5666   -8.0824   -1.1240 H   0  0  0  0  0  0  0  0  0  0  0  0
   -0.1826   -6.8623   -2.1708 H   0  0  0  0  0  0  0  0  0  0  0  0
    0.8067   -7.6535    1.6973 N   0  0  0  0  0  0  0  0  0  0  0  0
    1.6114   -8.0560    2.8270 C   0  0  0  0  0  0  0  0  0  0  0  0
    0.0818   -8.2908    1.3806 H   0  0  0  0  0  0  0  0  0  0  0  0
    2.4932   -8.6091    2.4713 H   0  0  0  0  0  0  0  0  0  0  0  0
    1.9376   -7.1636    3.3813 H   0  0  0  0  0  0  0  0  0  0  0  0
    1.0163   -8.7019    3.4894 H   0  0  0  0  0  0  0  0  0  0  0  0
 18 19  1  0  0  0  0
 19 31  1  0  0  0  0
 19 20  2  0  0  0  0
  8  9  1  0  0  0  0
  9 17  1  0  0  0  0
  9 10  2  0  0  0  0
  1  3  1  0  0  0  0
  1  7  1  0  0  0  0
  1  2  2  0  0  0  0
 32 33  1  0  0  0  0
 33 41  1  0  0  0  0
 33 34  2  0  0  0  0
 21 22  1  0  0  0  0
 22 23  1  0  0  0  0
 18 21  1  0  0  0  0
 17 23  1  0  0  0  0
 17 18  1  0  0  0  0
  8 11  1  0  0  0  0
 32 35  1  0  0  0  0
 41 42  1  0  0  0  0
  7  8  1  0  0  0  0
 31 32  1  0  0  0  0
 22 27  1  0  0  0  0
 22 28  1  0  0  0  0
 21 25  1  0  0  0  0
 21 26  1  0  0  0  0
 23 29  1  0  0  0  0
 23 30  1  0  0  0  0
 18 24  1  0  0  0  0
  3  4  1  0  0  0  0
  3  5  1  0  0  0  0
  3  6  1  0  0  0  0
 11 14  1  0  0  0  0
 11 15  1  0  0  0  0
 11 16  1  0  0  0  0
 35 38  1  0  0  0  0
 35 39  1  0  0  0  0
 35 40  1  0  0  0  0
 42 44  1  0  0  0  0
 42 45  1  0  0  0  0
 42 46  1  0  0  0  0
  8 13  1  0  0  0  0
 32 37  1  0  0  0  0
 31 36  1  0  0  0  0
 41 43  1  0  0  0  0
  7 12  1  0  0  0  0
M  END
$$$$

  -OEChem-05262214473D

 46 46  0     1  0  0  0  0  0999 V2000
   -0.6012   -3.2995    3.8205 C   0  0  0  0  0  0  0  0  0  0  0  0
   -0.6574   -4.4683    3.4568 O   0  0  0  0  0  0  0  0  0  0  0  0
   -0.4935   -2.9859    5.2760 C   0  0  0  0  0  0  0  0  0  0  0  0
   -1.4789   -2.8689    5.7550 H   0  0  0  0  0  0  0  0  0  0  0  0
    0.0123   -3.7847    5.8419 H   0  0  0  0  0  0  0  0  0  0  0  0
    0.0585   -2.0642    5.5199 H   0  0  0  0  0  0  0  0  0  0  0  0
   -0.6261   -2.1849    2.9917 N   0  0  0  0  0  0  0  0  0  0  0  0
   -0.7237   -2.2601    1.5650 C   0  0  2  0  0  0  0  0  0  0  0  0
    0.1695   -1.1513    1.0687 C   0  0  0  0  0  0  0  0  0  0  0  0
    0.3193   -0.1267    1.7365 O   0  0  0  0  0  0  0  0  0  0  0  0
   -2.1397   -2.0663    1.0750 C   0  0  0  0  0  0  0  0  0  0  0  0
   -0.5717   -1.2606    3.4238 H   0  0  0  0  0  0  0  0  0  0  0  0
   -0.3076   -3.2111    1.2363 H   0  0  0  0  0  0  0  0  0  0  0  0
   -2.5584   -1.1089    1.4061 H   0  0  0  0  0  0  0  0  0  0  0  0
   -2.1682   -2.0790   -0.0197 H   0  0  0  0  0  0  0  0  0  0  0  0
   -2.7965   -2.8601    1.4459 H   0  0  0  0  0  0  0  0  0  0  0  0
    0.7724   -1.3745   -0.1593 N   0  0  0  0  0  0  0  0  0  0  0  0
    0.5614   -2.5964   -0.9244 C   0  0  2  0  0  0  0  0  0  0  0  0
    0.6723   -3.7431    0.0349 C   0  0  0  0  0  0  0  0  0  0  0  0
    1.1689   -3.5603    1.1402 O   0  0  0  0  0  0  0  0  0  0  0  0
    1.6860   -2.6084   -1.9532 C   0  0  0  0  0  0  0  0  0  0  0  0
    2.0814   -1.1452   -2.1372 C   0  0  0  0  0  0  0  0  0  0  0  0
    1.5408   -0.3981   -0.9273 C   0  0  0  0  0  0  0  0  0  0  0  0
   -0.4352   -2.6100   -1.3758 H   0  0  0  0  0  0  0  0  0  0  0  0
    1.3151   -2.9965   -2.9093 H   0  0  0  0  0  0  0  0  0  0  0  0
    2.5523   -3.2033   -1.6478 H   0  0  0  0  0  0  0  0  0  0  0  0
    3.1727   -1.0445   -2.1557 H   0  0  0  0  0  0  0  0  0  0  0  0
    1.6822   -0.7230   -3.0638 H   0  0  0  0  0  0  0  0  0  0  0  0
    2.3334    0.0318   -0.3088 H   0  0  0  0  0  0  0  0  0  0  0  0
    0.8504    0.3975   -1.2275 H   0  0  0  0  0  0  0  0  0  0  0  0
    0.1514   -4.9449   -0.5237 N   0  0  0  0  0  0  0  0  0  0  0  0
    0.4640   -6.3264   -0.2363 C   0  0  2  0  0  0  0  0  0  0  0  0
    1.1894   -6.3759    1.1019 C   0  0  0  0  0  0  0  0  0  0  0  0
    1.7843   -5.4115    1.5785 O   0  0  0  0  0  0  0  0  0  0  0  0
    1.3127   -6.9423   -1.3378 C   0  0  0  0  0  0  0  0  0  0  0  0
   -0.8212   -4.6884   -0.6640 H   0  0  0  0  0  0  0  0  0  0  0  0
   -0.4912   -6.8564   -0.1545 H   0  0  0  0  0  0  0  0  0  0  0  0
    2.2739   -6.4244   -1.4347 H   0  0  0  0  0  0  0  0  0  0  0  0
    1.5247   -7.9968   -1.1325 H   0  0  0  0  0  0  0  0  0  0  0  0
    0.8021   -6.8791   -2.3047 H   0  0  0  0  0  0  0  0  0  0  0  0
    1.1309   -7.6358    1.6810 N   0  0  0  0  0  0  0  0  0  0  0  0
    1.7540   -7.9414    2.9476 C   0  0  0  0  0  0  0  0  0  0  0  0
    0.5996   -8.3714    1.2245 H   0  0  0  0  0  0  0  0  0  0  0  0
    2.7684   -8.3295    2.7736 H   0  0  0  0  0  0  0  0  0  0  0  0
    1.8107   -7.0280    3.5580 H   0  0  0  0  0  0  0  0  0  0  0  0
    1.1572   -8.6992    3.4763 H   0  0  0  0  0  0  0  0  0  0  0  0
 18 19  1  0  0  0  0
 19 31  1  0  0  0  0
 19 20  2  0  0  0  0
  8  9  1  0  0  0  0
  9 17  1  0  0  0  0
  9 10  2  0  0  0  0
  1  3  1  0  0  0  0
  1  7  1  0  0  0  0
  1  2  2  0  0  0  0
 32 33  1  0  0  0  0
 33 41  1  0  0  0  0
 33 34  2  0  0  0  0
 21 22  1  0  0  0  0
 22 23  1  0  0  0  0
 18 21  1  0  0  0  0
 17 23  1  0  0  0  0
 17 18  1  0  0  0  0
  8 11  1  0  0  0  0
 32 35  1  0  0  0  0
 41 42  1  0  0  0  0
  7  8  1  0  0  0  0
 31 32  1  0  0  0  0
 22 27  1  0  0  0  0
 22 28  1  0  0  0  0
 21 25  1  0  0  0  0
 21 26  1  0  0  0  0
 23 29  1  0  0  0  0
 23 30  1  0  0  0  0
 18 24  1  0  0  0  0
  3  4  1  0  0  0  0
  3  5  1  0  0  0  0
  3  6  1  0  0  0  0
 11 14  1  0  0  0  0
 11 15  1  0  0  0  0
 11 16  1  0  0  0  0
 35 38  1  0  0  0  0
 35 39  1  0  0  0  0
 35 40  1  0  0  0  0
 42 44  1  0  0  0  0
 42 45  1  0  0  0  0
 42 46  1  0  0  0  0
  8 13  1  0  0  0  0
 32 37  1  0  0  0  0
 31 36  1  0  0  0  0
 41 43  1  0  0  0  0
  7 12  1  0  0  0  0
M  END
$$$$

  -OEChem-05262214473D

 46 46  0     1  0  0  0  0  0999 V2000
   -0.6012   -3.2995    3.8205 C   0  0  0  0  0  0  0  0  0  0  0  0
   -0.6574   -4.4683    3.4568 O   0  0  0  0  0  0  0  0  0  0  0  0
   -0.4935   -2.9859    5.2760 C   0  0  0  0  0  0  0  0  0  0  0  0
   -1.4789   -2.8689    5.7550 H   0  0  0  0  0  0  0  0  0  0  0  0
    0.0123   -3.7847    5.8419 H   0  0  0  0  0  0  0  0  0  0  0  0
    0.0585   -2.0642    5.5199 H   0  0  0  0  0  0  0  0  0  0  0  0
   -0.6261   -2.1849    2.9917 N   0  0  0  0  0  0  0  0  0  0  0  0
   -0.7237   -2.2601    1.5650 C   0  0  2  0  0  0  0  0  0  0  0  0
    0.1695   -1.1513    1.0687 C   0  0  0  0  0  0  0  0  0  0  0  0
    0.3193   -0.1267    1.7365 O   0  0  0  0  0  0  0  0  0  0  0  0
   -2.1397   -2.0663    1.0750 C   0  0  0  0  0  0  0  0  0  0  0  0
   -0.5717   -1.2606    3.4238 H   0  0  0  0  0  0  0  0  0  0  0  0
   -0.3076   -3.2111    1.2363 H   0  0  0  0  0  0  0  0  0  0  0  0
   -2.5584   -1.1089    1.4061 H   0  0  0  0  0  0  0  0  0  0  0  0
   -2.1682   -2.0790   -0.0197 H   0  0  0  0  0  0  0  0  0  0  0  0
   -2.7965   -2.8601    1.4459 H   0  0  0  0  0  0  0  0  0  0  0  0
    0.7724   -1.3745   -0.1593 N   0  0  0  0  0  0  0  0  0  0  0  0
    0.5614   -2.5964   -0.9244 C   0  0  2  0  0  0  0  0  0  0  0  0
    0.3023   -3.6958    0.0614 C   0  0  0  0  0  0  0  0  0  0  0  0
    0.3041   -3.4446    1.2608 O   0  0  0  0  0  0  0  0  0  0  0  0
    1.8675   -2.8105   -1.6805 C   0  0  0  0  0  0  0  0  0  0  0  0
    2.3820   -1.3741   -1.7361 C   0  0  0  0  0  0  0  0  0  0  0  0
    1.5408   -0.3981   -0.9273 C   0  0  0  0  0  0  0  0  0  0  0  0
   -0.3071   -2.5022   -1.5833 H   0  0  0  0  0  0  0  0  0  0  0  0
    1.6596   -3.1959   -2.6858 H   0  0  0  0  0  0  0  0  0  0  0  0
    2.5561   -3.4974   -1.1790 H   0  0  0  0  0  0  0  0  0  0  0  0
    3.3887   -1.3127   -1.3070 H   0  0  0  0  0  0  0  0  0  0  0  0
    2.4211   -0.9888   -2.7590 H   0  0  0  0  0  0  0  0  0  0  0  0
    2.1479    0.2776   -0.3187 H   0  0  0  0  0  0  0  0  0  0  0  0
    0.8868    0.1950   -1.5757 H   0  0  0  0  0  0  0  0  0  0  0  0
    0.0811   -4.9323   -0.5281 N   0  0  0  0  0  0  0  0  0  0  0  0
    0.3537   -6.3273   -0.2663 C   0  0  2  0  0  0  0  0  0  0  0  0
    1.1311   -6.4174    1.0402 C   0  0  0  0  0  0  0  0  0  0  0  0
    1.7805   -5.4806    1.5003 O   0  0  0  0  0  0  0  0  0  0  0  0
    1.1330   -6.9624   -1.4074 C   0  0  0  0  0  0  0  0  0  0  0  0
   -0.8862   -4.6387   -0.6257 H   0  0  0  0  0  0  0  0  0  0  0  0
   -0.6163   -6.8226   -0.1497 H   0  0  0  0  0  0  0  0  0  0  0  0
    2.1080   -6.4792   -1.5395 H   0  0  0  0  0  0  0  0  0  0  0  0
    1.3139   -8.0261   -1.2206 H   0  0  0  0  0  0  0  0  0  0  0  0
    0.5858   -6.8703   -2.3518 H   0  0  0  0  0  0  0  0  0  0  0  0
    1.0496   -7.6804    1.6099 N   0  0  0  0  0  0  0  0  0  0  0  0
    1.7124   -8.0219    2.8469 C   0  0  0  0  0  0  0  0  0  0  0  0
    0.4730   -8.3911    1.1692 H   0  0  0  0  0  0  0  0  0  0  0  0
    2.7037   -8.4453    2.6275 H   0  0  0  0  0  0  0  0  0  0  0  0
    1.8281   -7.1177    3.4625 H   0  0  0  0  0  0  0  0  0  0  0  0
    1.1101   -8.7628    3.3930 H   0  0  0  0  0  0  0  0  0  0  0  0
 18 19  1  0  0  0  0
 19 31  1  0  0  0  0
 19 20  2  0  0  0  0
  8  9  1  0  0  0  0
  9 17  1  0  0  0  0
  9 10  2  0  0  0  0
  1  3  1  0  0  0  0
  1  7  1  0  0  0  0
  1  2  2  0  0  0  0
 32 33  1  0  0  0  0
 33 41  1  0  0  0  0
 33 34  2  0  0  0  0
 21 22  1  0  0  0  0
 22 23  1  0  0  0  0
 18 21  1  0  0  0  0
 17 23  1  0  0  0  0
 17 18  1  0  0  0  0
  8 11  1  0  0  0  0
 32 35  1  0  0  0  0
 41 42  1  0  0  0  0
  7  8  1  0  0  0  0
 31 32  1  0  0  0  0
 22 27  1  0  0  0  0
 22 28  1  0  0  0  0
 21 25  1  0  0  0  0
 21 26  1  0  0  0  0
 23 29  1  0  0  0  0
 23 30  1  0  0  0  0
 18 24  1  0  0  0  0
  3  4  1  0  0  0  0
  3  5  1  0  0  0  0
  3  6  1  0  0  0  0
 11 14  1  0  0  0  0
 11 15  1  0  0  0  0
 11 16  1  0  0  0  0
 35 38  1  0  0  0  0
 35 39  1  0  0  0  0
 35 40  1  0  0  0  0
 42 44  1  0  0  0  0
 42 45  1  0  0  0  0
 42 46  1  0  0  0  0
  8 13  1  0  0  0  0
 32 37  1  0  0  0  0
 31 36  1  0  0  0  0
 41 43  1  0  0  0  0
  7 12  1  0  0  0  0
M  END
$$$$

  -OEChem-05262214473D

 46 46  0     1  0  0  0  0  0999 V2000
   -0.6012   -3.2995    3.8205 C   0  0  0  0  0  0  0  0  0  0  0  0
   -0.6574   -4.4683    3.4568 O   0  0  0  0  0  0  0  0  0  0  0  0
   -0.4935   -2.9859    5.2760 C   0  0  0  0  0  0  0  0  0  0  0  0
   -1.4789   -2.8689    5.7550 H   0  0  0  0  0  0  0  0  0  0  0  0
    0.0123   -3.7847    5.8419 H   0  0  0  0  0  0  0  0  0  0  0  0
    0.0585   -2.0642    5.5199 H   0  0  0  0  0  0  0  0  0  0  0  0
   -0.6261   -2.1849    2.9917 N   0  0  0  0  0  0  0  0  0  0  0  0
   -0.7237   -2.2601    1.5650 C   0  0  2  0  0  0  0  0  0  0  0  0
    0.1695   -1.1513    1.0687 C   0  0  0  0  0  0  0  0  0  0  0  0
    0.3193   -0.1267    1.7365 O   0  0  0  0  0  0  0  0  0  0  0  0
   -2.1397   -2.0663    1.0750 C   0  0  0  0  0  0  0  0  0  0  0  0
   -0.5717   -1.2606    3.4238 H   0  0  0  0  0  0  0  0  0  0  0  0
   -0.3076   -3.2111    1.2363 H   0  0  0  0  0  0  0  0  0  0  0  0
   -2.5584   -1.1089    1.4061 H   0  0  0  0  0  0  0  0  0  0  0  0
   -2.1682   -2.0790   -0.0197 H   0  0  0  0  0  0  0  0  0  0  0  0
   -2.7965   -2.8601    1.4459 H   0  0  0  0  0  0  0  0  0  0  0  0
    0.7724   -1.3745   -0.1593 N   0  0  0  0  0  0  0  0  0  0  0  0
    0.5614   -2.5964   -0.9244 C   0  0  2  0  0  0  0  0  0  0  0  0
    0.3023   -3.6958    0.0614 C   0  0  0  0  0  0  0  0  0  0  0  0
    0.0301   -3.4143    1.2226 O   0  0  0  0  0  0  0  0  0  0  0  0
    1.8675   -2.8105   -1.6805 C   0  0  0  0  0  0  0  0  0  0  0  0
    2.3820   -1.3741   -1.7361 C   0  0  0  0  0  0  0  0  0  0  0  0
    1.5408   -0.3981   -0.9273 C   0  0  0  0  0  0  0  0  0  0  0  0
   -0.3071   -2.5022   -1.5833 H   0  0  0  0  0  0  0  0  0  0  0  0
    1.6596   -3.1959   -2.6858 H   0  0  0  0  0  0  0  0  0  0  0  0
    2.5561   -3.4974   -1.1790 H   0  0  0  0  0  0  0  0  0  0  0  0
    3.3887   -1.3127   -1.3070 H   0  0  0  0  0  0  0  0  0  0  0  0
    2.4211   -0.9888   -2.7590 H   0  0  0  0  0  0  0  0  0  0  0  0
    2.1479    0.2776   -0.3187 H   0  0  0  0  0  0  0  0  0  0  0  0
    0.8868    0.1950   -1.5757 H   0  0  0  0  0  0  0  0  0  0  0  0
    0.4077   -4.9681   -0.4822 N   0  0  0  0  0  0  0  0  0  0  0  0
    0.8520   -6.2861   -0.0895 C   0  0  2  0  0  0  0  0  0  0  0  0
    1.3656   -6.2022    1.3418 C   0  0  0  0  0  0  0  0  0  0  0  0
    1.7490   -5.1538    1.8565 O   0  0  0  0  0  0  0  0  0  0  0  0
    1.9319   -6.8076   -1.0248 C   0  0  0  0  0  0  0  0  0  0  0  0
   -0.5574   -4.8507   -0.7757 H   0  0  0  0  0  0  0  0  0  0  0  0
   -0.0264   -6.9397   -0.1252 H   0  0  0  0  0  0  0  0  0  0  0  0
    2.8200   -6.1656   -1.0026 H   0  0  0  0  0  0  0  0  0  0  0  0
    2.2470   -7.8176   -0.7429 H   0  0  0  0  0  0  0  0  0  0  0  0
    1.5704   -6.8391   -2.0583 H   0  0  0  0  0  0  0  0  0  0  0  0
    1.3859   -7.4434    1.9626 N   0  0  0  0  0  0  0  0  0  0  0  0
    1.8439   -7.6289    3.3197 C   0  0  0  0  0  0  0  0  0  0  0  0
    1.0316   -8.2560    1.4667 H   0  0  0  0  0  0  0  0  0  0  0  0
    2.9151   -7.8788    3.3148 H   0  0  0  0  0  0  0  0  0  0  0  0
    1.6865   -6.7013    3.8897 H   0  0  0  0  0  0  0  0  0  0  0  0
    1.2786   -8.4478    3.7886 H   0  0  0  0  0  0  0  0  0  0  0  0
 18 19  1  0  0  0  0
 19 31  1  0  0  0  0
 19 20  2  0  0  0  0
  8  9  1  0  0  0  0
  9 17  1  0  0  0  0
  9 10  2  0  0  0  0
  1  3  1  0  0  0  0
  1  7  1  0  0  0  0
  1  2  2  0  0  0  0
 32 33  1  0  0  0  0
 33 41  1  0  0  0  0
 33 34  2  0  0  0  0
 21 22  1  0  0  0  0
 22 23  1  0  0  0  0
 18 21  1  0  0  0  0
 17 23  1  0  0  0  0
 17 18  1  0  0  0  0
  8 11  1  0  0  0  0
 32 35  1  0  0  0  0
 41 42  1  0  0  0  0
  7  8  1  0  0  0  0
 31 32  1  0  0  0  0
 22 27  1  0  0  0  0
 22 28  1  0  0  0  0
 21 25  1  0  0  0  0
 21 26  1  0  0  0  0
 23 29  1  0  0  0  0
 23 30  1  0  0  0  0
 18 24  1  0  0  0  0
  3  4  1  0  0  0  0
  3  5  1  0  0  0  0
  3  6  1  0  0  0  0
 11 14  1  0  0  0  0
 11 15  1  0  0  0  0
 11 16  1  0  0  0  0
 35 38  1  0  0  0  0
 35 39  1  0  0  0  0
 35 40  1  0  0  0  0
 42 44  1  0  0  0  0
 42 45  1  0  0  0  0
 42 46  1  0  0  0  0
  8 13  1  0  0  0  0
 32 37  1  0  0  0  0
 31 36  1  0  0  0  0
 41 43  1  0  0  0  0
  7 12  1  0  0  0  0
M  END
$$$$

  -OEChem-05262214473D

 46 46  0     1  0  0  0  0  0999 V2000
   -0.6012   -3.2995    3.8205 C   0  0  0  0  0  0  0  0  0  0  0  0
   -0.6574   -4.4683    3.4568 O   0  0  0  0  0  0  0  0  0  0  0  0
   -0.4935   -2.9859    5.2760 C   0  0  0  0  0  0  0  0  0  0  0  0
   -1.4789   -2.8689    5.7550 H   0  0  0  0  0  0  0  0  0  0  0  0
    0.0123   -3.7847    5.8419 H   0  0  0  0  0  0  0  0  0  0  0  0
    0.0585   -2.0642    5.5199 H   0  0  0  0  0  0  0  0  0  0  0  0
   -0.6261   -2.1849    2.9917 N   0  0  0  0  0  0  0  0  0  0  0  0
   -0.7237   -2.2601    1.5650 C   0  0  2  0  0  0  0  0  0  0  0  0
    0.1695   -1.1513    1.0687 C   0  0  0  0  0  0  0  0  0  0  0  0
    0.3193   -0.1267    1.7365 O   0  0  0  0  0  0  0  0  0  0  0  0
   -2.1397   -2.0663    1.0750 C   0  0  0  0  0  0  0  0  0  0  0  0
   -0.5717   -1.2606    3.4238 H   0  0  0  0  0  0  0  0  0  0  0  0
   -0.3076   -3.2111    1.2363 H   0  0  0  0  0  0  0  0  0  0  0  0
   -2.5584   -1.1089    1.4061 H   0  0  0  0  0  0  0  0  0  0  0  0
   -2.1682   -2.0790   -0.0197 H   0  0  0  0  0  0  0  0  0  0  0  0
   -2.7965   -2.8601    1.4459 H   0  0  0  0  0  0  0  0  0  0  0  0
    0.7724   -1.3745   -0.1593 N   0  0  0  0  0  0  0  0  0  0  0  0
    0.5614   -2.5964   -0.9244 C   0  0  2  0  0  0  0  0  0  0  0  0
    0.3023   -3.6958    0.0614 C   0  0  0  0  0  0  0  0  0  0  0  0
   -0.2325   -3.4334    1.1323 O   0  0  0  0  0  0  0  0  0  0  0  0
    1.8675   -2.8105   -1.6805 C   0  0  0  0  0  0  0  0  0  0  0  0
    2.3820   -1.3741   -1.7361 C   0  0  0  0  0  0  0  0  0  0  0  0
    1.5408   -0.3981   -0.9273 C   0  0  0  0  0  0  0  0  0  0  0  0
   -0.3071   -2.5022   -1.5833 H   0  0  0  0  0  0  0  0  0  0  0  0
    1.6596   -3.1959   -2.6858 H   0  0  0  0  0  0  0  0  0  0  0  0
    2.5561   -3.4974   -1.1790 H   0  0  0  0  0  0  0  0  0  0  0  0
    3.3887   -1.3127   -1.3070 H   0  0  0  0  0  0  0  0  0  0  0  0
    2.4211   -0.9888   -2.7590 H   0  0  0  0  0  0  0  0  0  0  0  0
    2.1479    0.2776   -0.3187 H   0  0  0  0  0  0  0  0  0  0  0  0
    0.8868    0.1950   -1.5757 H   0  0  0  0  0  0  0  0  0  0  0  0
    0.7206   -4.9450   -0.3743 N   0  0  0  0  0  0  0  0  0  0  0  0
    1.2927   -6.1537    0.1740 C   0  0  2  0  0  0  0  0  0  0  0  0
    1.4982   -5.9410    1.6680 C   0  0  0  0  0  0  0  0  0  0  0  0
    1.5954   -4.8276    2.1800 O   0  0  0  0  0  0  0  0  0  0  0  0
    2.6045   -6.5049   -0.5105 C   0  0  0  0  0  0  0  0  0  0  0  0
   -0.1753   -5.0062   -0.8488 H   0  0  0  0  0  0  0  0  0  0  0  0
    0.5586   -6.9512    0.0157 H   0  0  0  0  0  0  0  0  0  0  0  0
    3.3525   -5.7174   -0.3628 H   0  0  0  0  0  0  0  0  0  0  0  0
    3.0222   -7.4361   -0.1137 H   0  0  0  0  0  0  0  0  0  0  0  0
    2.4603   -6.6283   -1.5893 H   0  0  0  0  0  0  0  0  0  0  0  0
    1.6035   -7.1414    2.3565 N   0  0  0  0  0  0  0  0  0  0  0  0
    1.8143   -7.2057    3.7839 C   0  0  0  0  0  0  0  0  0  0  0  0
    1.4918   -8.0171    1.8540 H   0  0  0  0  0  0  0  0  0  0  0  0
    2.8925   -7.2649    3.9935 H   0  0  0  0  0  0  0  0  0  0  0  0
    1.3979   -6.3041    4.2568 H   0  0  0  0  0  0  0  0  0  0  0  0
    1.3127   -8.0971    4.1887 H   0  0  0  0  0  0  0  0  0  0  0  0
 18 19  1  0  0  0  0
 19 31  1  0  0  0  0
 19 20  2  0  0  0  0
  8  9  1  0  0  0  0
  9 17  1  0  0  0  0
  9 10  2  0  0  0  0
  1  3  1  0  0  0  0
  1  7  1  0  0  0  0
  1  2  2  0  0  0  0
 32 33  1  0  0  0  0
 33 41  1  0  0  0  0
 33 34  2  0  0  0  0
 21 22  1  0  0  0  0
 22 23  1  0  0  0  0
 18 21  1  0  0  0  0
 17 23  1  0  0  0  0
 17 18  1  0  0  0  0
  8 11  1  0  0  0  0
 32 35  1  0  0  0  0
 41 42  1  0  0  0  0
  7  8  1  0  0  0  0
 31 32  1  0  0  0  0
 22 27  1  0  0  0  0
 22 28  1  0  0  0  0
 21 25  1  0  0  0  0
 21 26  1  0  0  0  0
 23 29  1  0  0  0  0
 23 30  1  0  0  0  0
 18 24  1  0  0  0  0
  3  4  1  0  0  0  0
  3  5  1  0  0  0  0
  3  6  1  0  0  0  0
 11 14  1  0  0  0  0
 11 15  1  0  0  0  0
 11 16  1  0  0  0  0
 35 38  1  0  0  0  0
 35 39  1  0  0  0  0
 35 40  1  0  0  0  0
 42 44  1  0  0  0  0
 42 45  1  0  0  0  0
 42 46  1  0  0  0  0
  8 13  1  0  0  0  0
 32 37  1  0  0  0  0
 31 36  1  0  0  0  0
 41 43  1  0  0  0  0
  7 12  1  0  0  0  0
M  END
$$$$

  -OEChem-05262214473D

 46 46  0     1  0  0  0  0  0999 V2000
   -0.6012   -3.2995    3.8205 C   0  0  0  0  0  0  0  0  0  0  0  0
   -0.6574   -4.4683    3.4568 O   0  0  0  0  0  0  0  0  0  0  0  0
   -0.4935   -2.9859    5.2760 C   0  0  0  0  0  0  0  0  0  0  0  0
   -1.4789   -2.8689    5.7550 H   0  0  0  0  0  0  0  0  0  0  0  0
    0.0123   -3.7847    5.8419 H   0  0  0  0  0  0  0  0  0  0  0  0
    0.0585   -2.0642    5.5199 H   0  0  0  0  0  0  0  0  0  0  0  0
   -0.6261   -2.1849    2.9917 N   0  0  0  0  0  0  0  0  0  0  0  0
   -0.7237   -2.2601    1.5650 C   0  0  2  0  0  0  0  0  0  0  0  0
    0.1695   -1.1513    1.0687 C   0  0  0  0  0  0  0  0  0  0  0  0
    0.3193   -0.1267    1.7365 O   0  0  0  0  0  0  0  0  0  0  0  0
   -2.1397   -2.0663    1.0750 C   0  0  0  0  0  0  0  0  0  0  0  0
   -0.5717   -1.2606    3.4238 H   0  0  0  0  0  0  0  0  0  0  0  0
   -0.3076   -3.2111    1.2363 H   0  0  0  0  0  0  0  0  0  0  0  0
   -2.5584   -1.1089    1.4061 H   0  0  0  0  0  0  0  0  0  0  0  0
   -2.1682   -2.0790   -0.0197 H   0  0  0  0  0  0  0  0  0  0  0  0
   -2.7965   -2.8601    1.4459 H   0  0  0  0  0  0  0  0  0  0  0  0
    0.7724   -1.3745   -0.1593 N   0  0  0  0  0  0  0  0  0  0  0  0
    0.5614   -2.5964   -0.9244 C   0  0  2  0  0  0  0  0  0  0  0  0
    0.3023   -3.6958    0.0614 C   0  0  0  0  0  0  0  0  0  0  0  0
   -0.4657   -3.5005    0.9961 O   0  0  0  0  0  0  0  0  0  0  0  0
    1.8675   -2.8105   -1.6805 C   0  0  0  0  0  0  0  0  0  0  0  0
    2.3820   -1.3741   -1.7361 C   0  0  0  0  0  0  0  0  0  0  0  0
    1.5408   -0.3981   -0.9273 C   0  0  0  0  0  0  0  0  0  0  0  0
   -0.3071   -2.5022   -1.5833 H   0  0  0  0  0  0  0  0  0  0  0  0
    1.6596   -3.1959   -2.6858 H   0  0  0  0  0  0  0  0  0  0  0  0
    2.5561   -3.4974   -1.1790 H   0  0  0  0  0  0  0  0  0  0  0  0
    3.3887   -1.3127   -1.3070 H   0  0  0  0  0  0  0  0  0  0  0  0
    2.4211   -0.9888   -2.7590 H   0  0  0  0  0  0  0  0  0  0  0  0
    2.1479    0.2776   -0.3187 H   0  0  0  0  0  0  0  0  0  0  0  0
    0.8868    0.1950   -1.5757 H   0  0  0  0  0  0  0  0  0  0  0  0
    0.9983   -4.8647   -0.2117 N   0  0  0  0  0  0  0  0  0  0  0  0
    1.6459   -5.9390    0.5063 C   0  0  2  0  0  0  0  0  0  0  0  0
    1.5200   -5.6515    1.9966 C   0  0  0  0  0  0  0  0  0  0  0  0
    1.3301   -4.5242    2.4486 O   0  0  0  0  0  0  0  0  0  0  0  0
    3.1051   -6.0751    0.1004 C   0  0  0  0  0  0  0  0  0  0  0  0
    0.2341   -5.0947   -0.8398 H   0  0  0  0  0  0  0  0  0  0  0  0
    1.0990   -6.8565    0.2633 H   0  0  0  0  0  0  0  0  0  0  0  0
    3.6692   -5.1653    0.3361 H   0  0  0  0  0  0  0  0  0  0  0  0
    3.5866   -6.9075    0.6242 H   0  0  0  0  0  0  0  0  0  0  0  0
    3.1951   -6.2522   -0.9768 H   0  0  0  0  0  0  0  0  0  0  0  0
    1.6876   -6.7952    2.7648 N   0  0  0  0  0  0  0  0  0  0  0  0
    1.6256   -6.7812    4.2077 C   0  0  0  0  0  0  0  0  0  0  0  0
    1.8220   -7.6907    2.3048 H   0  0  0  0  0  0  0  0  0  0  0  0
    2.6374   -6.6454    4.6173 H   0  0  0  0  0  0  0  0  0  0  0  0
    0.9818   -5.9531    4.5389 H   0  0  0  0  0  0  0  0  0  0  0  0
    1.2100   -7.7346    4.5659 H   0  0  0  0  0  0  0  0  0  0  0  0
 18 19  1  0  0  0  0
 19 31  1  0  0  0  0
 19 20  2  0  0  0  0
  8  9  1  0  0  0  0
  9 17  1  0  0  0  0
  9 10  2  0  0  0  0
  1  3  1  0  0  0  0
  1  7  1  0  0  0  0
  1  2  2  0  0  0  0
 32 33  1  0  0  0  0
 33 41  1  0  0  0  0
 33 34  2  0  0  0  0
 21 22  1  0  0  0  0
 22 23  1  0  0  0  0
 18 21  1  0  0  0  0
 17 23  1  0  0  0  0
 17 18  1  0  0  0  0
  8 11  1  0  0  0  0
 32 35  1  0  0  0  0
 41 42  1  0  0  0  0
  7  8  1  0  0  0  0
 31 32  1  0  0  0  0
 22 27  1  0  0  0  0
 22 28  1  0  0  0  0
 21 25  1  0  0  0  0
 21 26  1  0  0  0  0
 23 29  1  0  0  0  0
 23 30  1  0  0  0  0
 18 24  1  0  0  0  0
  3  4  1  0  0  0  0
  3  5  1  0  0  0  0
  3  6  1  0  0  0  0
 11 14  1  0  0  0  0
 11 15  1  0  0  0  0
 11 16  1  0  0  0  0
 35 38  1  0  0  0  0
 35 39  1  0  0  0  0
 35 40  1  0  0  0  0
 42 44  1  0  0  0  0
 42 45  1  0  0  0  0
 42 46  1  0  0  0  0
  8 13  1  0  0  0  0
 32 37  1  0  0  0  0
 31 36  1  0  0  0  0
 41 43  1  0  0  0  0
  7 12  1  0  0  0  0
M  END
$$$$

  -OEChem-05262214473D

 46 46  0     1  0  0  0  0  0999 V2000
   -0.6012   -3.2995    3.8205 C   0  0  0  0  0  0  0  0  0  0  0  0
   -0.6574   -4.4683    3.4568 O   0  0  0  0  0  0  0  0  0  0  0  0
   -0.4935   -2.9859    5.2760 C   0  0  0  0  0  0  0  0  0  0  0  0
   -1.4789   -2.8689    5.7550 H   0  0  0  0  0  0  0  0  0  0  0  0
    0.0123   -3.7847    5.8419 H   0  0  0  0  0  0  0  0  0  0  0  0
    0.0585   -2.0642    5.5199 H   0  0  0  0  0  0  0  0  0  0  0  0
   -0.6261   -2.1849    2.9917 N   0  0  0  0  0  0  0  0  0  0  0  0
   -0.7237   -2.2601    1.5650 C   0  0  2  0  0  0  0  0  0  0  0  0
    0.1695   -1.1513    1.0687 C   0  0  0  0  0  0  0  0  0  0  0  0
    0.3193   -0.1267    1.7365 O   0  0  0  0  0  0  0  0  0  0  0  0
   -2.1397   -2.0663    1.0750 C   0  0  0  0  0  0  0  0  0  0  0  0
   -0.5717   -1.2606    3.4238 H   0  0  0  0  0  0  0  0  0  0  0  0
   -0.3076   -3.2111    1.2363 H   0  0  0  0  0  0  0  0  0  0  0  0
   -2.5584   -1.1089    1.4061 H   0  0  0  0  0  0  0  0  0  0  0  0
   -2.1682   -2.0790   -0.0197 H   0  0  0  0  0  0  0  0  0  0  0  0
   -2.7965   -2.8601    1.4459 H   0  0  0  0  0  0  0  0  0  0  0  0
    0.7724   -1.3745   -0.1593 N   0  0  0  0  0  0  0  0  0  0  0  0
    0.5614   -2.5964   -0.9244 C   0  0  2  0  0  0  0  0  0  0  0  0
    0.3023   -3.6958    0.0614 C   0  0  0  0  0  0  0  0  0  0  0  0
   -0.6538   -3.6112    0.8233 O   0  0  0  0  0  0  0  0  0  0  0  0
    1.8675   -2.8105   -1.6805 C   0  0  0  0  0  0  0  0  0  0  0  0
    2.3820   -1.3741   -1.7361 C   0  0  0  0  0  0  0  0  0  0  0  0
    1.5408   -0.3981   -0.9273 C   0  0  0  0  0  0  0  0  0  0  0  0
   -0.3071   -2.5022   -1.5833 H   0  0  0  0  0  0  0  0  0  0  0  0
    1.6596   -3.1959   -2.6858 H   0  0  0  0  0  0  0  0  0  0  0  0
    2.5561   -3.4974   -1.1790 H   0  0  0  0  0  0  0  0  0  0  0  0
    3.3887   -1.3127   -1.3070 H   0  0  0  0  0  0  0  0  0  0  0  0
    2.4211   -0.9888   -2.7590 H   0  0  0  0  0  0  0  0  0  0  0  0
    2.1479    0.2776   -0.3187 H   0  0  0  0  0  0  0  0  0  0  0  0
    0.8868    0.1950   -1.5757 H   0  0  0  0  0  0  0  0  0  0  0  0
    1.2221   -4.7325   -0.0055 N   0  0  0  0  0  0  0  0  0  0  0  0
    1.8874   -5.6566    0.8847 C   0  0  2  0  0  0  0  0  0  0  0  0
    1.4293   -5.3534    2.3052 C   0  0  0  0  0  0  0  0  0  0  0  0
    0.9712   -4.2642    2.6442 O   0  0  0  0  0  0  0  0  0  0  0  0
    3.3996   -5.5474    0.7663 C   0  0  0  0  0  0  0  0  0  0  0  0
    0.6430   -5.1101   -0.7495 H   0  0  0  0  0  0  0  0  0  0  0  0
    1.5578   -6.6620    0.6009 H   0  0  0  0  0  0  0  0  0  0  0  0
    3.7484   -4.5469    1.0467 H   0  0  0  0  0  0  0  0  0  0  0  0
    3.9018   -6.2679    1.4203 H   0  0  0  0  0  0  0  0  0  0  0  0
    3.7246   -5.7365   -0.2625 H   0  0  0  0  0  0  0  0  0  0  0  0
    1.6323   -6.4281    3.1596 N   0  0  0  0  0  0  0  0  0  0  0  0
    1.2906   -6.3844    4.5622 C   0  0  0  0  0  0  0  0  0  0  0  0
    2.0000   -7.2991    2.7883 H   0  0  0  0  0  0  0  0  0  0  0  0
    2.1671   -6.0626    5.1438 H   0  0  0  0  0  0  0  0  0  0  0  0
    0.4666   -5.6723    4.7167 H   0  0  0  0  0  0  0  0  0  0  0  0
    0.9776   -7.3852    4.8945 H   0  0  0  0  0  0  0  0  0  0  0  0
 18 19  1  0  0  0  0
 19 31  1  0  0  0  0
 19 20  2  0  0  0  0
  8  9  1  0  0  0  0
  9 17  1  0  0  0  0
  9 10  2  0  0  0  0
  1  3  1  0  0  0  0
  1  7  1  0  0  0  0
  1  2  2  0  0  0  0
 32 33  1  0  0  0  0
 33 41  1  0  0  0  0
 33 34  2  0  0  0  0
 21 22  1  0  0  0  0
 22 23  1  0  0  0  0
 18 21  1  0  0  0  0
 17 23  1  0  0  0  0
 17 18  1  0  0  0  0
  8 11  1  0  0  0  0
 32 35  1  0  0  0  0
 41 42  1  0  0  0  0
  7  8  1  0  0  0  0
 31 32  1  0  0  0  0
 22 27  1  0  0  0  0
 22 28  1  0  0  0  0
 21 25  1  0  0  0  0
 21 26  1  0  0  0  0
 23 29  1  0  0  0  0
 23 30  1  0  0  0  0
 18 24  1  0  0  0  0
  3  4  1  0  0  0  0
  3  5  1  0  0  0  0
  3  6  1  0  0  0  0
 11 14  1  0  0  0  0
 11 15  1  0  0  0  0
 11 16  1  0  0  0  0
 35 38  1  0  0  0  0
 35 39  1  0  0  0  0
 35 40  1  0  0  0  0
 42 44  1  0  0  0  0
 42 45  1  0  0  0  0
 42 46  1  0  0  0  0
  8 13  1  0  0  0  0
 32 37  1  0  0  0  0
 31 36  1  0  0  0  0
 41 43  1  0  0  0  0
  7 12  1  0  0  0  0
M  END
$$$$

  -OEChem-05262214473D

 46 46  0     1  0  0  0  0  0999 V2000
   -0.6012   -3.2995    3.8205 C   0  0  0  0  0  0  0  0  0  0  0  0
   -0.6574   -4.4683    3.4568 O   0  0  0  0  0  0  0  0  0  0  0  0
   -0.4935   -2.9859    5.2760 C   0  0  0  0  0  0  0  0  0  0  0  0
   -1.4789   -2.8689    5.7550 H   0  0  0  0  0  0  0  0  0  0  0  0
    0.0123   -3.7847    5.8419 H   0  0  0  0  0  0  0  0  0  0  0  0
    0.0585   -2.0642    5.5199 H   0  0  0  0  0  0  0  0  0  0  0  0
   -0.6261   -2.1849    2.9917 N   0  0  0  0  0  0  0  0  0  0  0  0
   -0.7237   -2.2601    1.5650 C   0  0  2  0  0  0  0  0  0  0  0  0
    0.1695   -1.1513    1.0687 C   0  0  0  0  0  0  0  0  0  0  0  0
    0.3193   -0.1267    1.7365 O   0  0  0  0  0  0  0  0  0  0  0  0
   -2.1397   -2.0663    1.0750 C   0  0  0  0  0  0  0  0  0  0  0  0
   -0.5717   -1.2606    3.4238 H   0  0  0  0  0  0  0  0  0  0  0  0
   -0.3076   -3.2111    1.2363 H   0  0  0  0  0  0  0  0  0  0  0  0
   -2.5584   -1.1089    1.4061 H   0  0  0  0  0  0  0  0  0  0  0  0
   -2.1682   -2.0790   -0.0197 H   0  0  0  0  0  0  0  0  0  0  0  0
   -2.7965   -2.8601    1.4459 H   0  0  0  0  0  0  0  0  0  0  0  0
    0.7724   -1.3745   -0.1593 N   0  0  0  0  0  0  0  0  0  0  0  0
    0.5614   -2.5964   -0.9244 C   0  0  2  0  0  0  0  0  0  0  0  0
    0.3023   -3.6958    0.0614 C   0  0  0  0  0  0  0  0  0  0  0  0
   -0.7837   -3.7578    0.6256 O   0  0  0  0  0  0  0  0  0  0  0  0
    1.8675   -2.8105   -1.6805 C   0  0  0  0  0  0  0  0  0  0  0  0
    2.3820   -1.3741   -1.7361 C   0  0  0  0  0  0  0  0  0  0  0  0
    1.5408   -0.3981   -0.9273 C   0  0  0  0  0  0  0  0  0  0  0  0
   -0.3071   -2.5022   -1.5833 H   0  0  0  0  0  0  0  0  0  0  0  0
    1.6596   -3.1959   -2.6858 H   0  0  0  0  0  0  0  0  0  0  0  0
    2.5561   -3.4974   -1.1790 H   0  0  0  0  0  0  0  0  0  0  0  0
    3.3887   -1.3127   -1.3070 H   0  0  0  0  0  0  0  0  0  0  0  0
    2.4211   -0.9888   -2.7590 H   0  0  0  0  0  0  0  0  0  0  0  0
    2.1479    0.2776   -0.3187 H   0  0  0  0  0  0  0  0  0  0  0  0
    0.8868    0.1950   -1.5757 H   0  0  0  0  0  0  0  0  0  0  0  0
    1.3766   -4.5576    0.2302 N   0  0  0  0  0  0  0  0  0  0  0  0
    2.0007   -5.3258    1.2834 C   0  0  2  0  0  0  0  0  0  0  0  0
    1.2324   -5.0671    2.5727 C   0  0  0  0  0  0  0  0  0  0  0  0
    0.5432   -4.0655    2.7534 O   0  0  0  0  0  0  0  0  0  0  0  0
    3.4678   -4.9578    1.4418 C   0  0  0  0  0  0  0  0  0  0  0  0
    1.0233   -5.0513   -0.5840 H   0  0  0  0  0  0  0  0  0  0  0  0
    1.9039   -6.3809    1.0053 H   0  0  0  0  0  0  0  0  0  0  0  0
    3.5848   -3.9042    1.7204 H   0  0  0  0  0  0  0  0  0  0  0  0
    3.9463   -5.5608    2.2206 H   0  0  0  0  0  0  0  0  0  0  0  0
    4.0127   -5.1164    0.5049 H   0  0  0  0  0  0  0  0  0  0  0  0
    1.4415   -6.0653    3.5140 N   0  0  0  0  0  0  0  0  0  0  0  0
    0.8322   -6.0422    4.8233 C   0  0  0  0  0  0  0  0  0  0  0  0
    2.0134   -6.8690    3.2715 H   0  0  0  0  0  0  0  0  0  0  0  0
    1.5137   -5.5560    5.5369 H   0  0  0  0  0  0  0  0  0  0  0  0
   -0.1126   -5.4807    4.7781 H   0  0  0  0  0  0  0  0  0  0  0  0
    0.6312   -7.0724    5.1522 H   0  0  0  0  0  0  0  0  0  0  0  0
 18 19  1  0  0  0  0
 19 31  1  0  0  0  0
 19 20  2  0  0  0  0
  8  9  1  0  0  0  0
  9 17  1  0  0  0  0
  9 10  2  0  0  0  0
  1  3  1  0  0  0  0
  1  7  1  0  0  0  0
  1  2  2  0  0  0  0
 32 33  1  0  0  0  0
 33 41  1  0  0  0  0
 33 34  2  0  0  0  0
 21 22  1  0  0  0  0
 22 23  1  0  0  0  0
 18 21  1  0  0  0  0
 17 23  1  0  0  0  0
 17 18  1  0  0  0  0
  8 11  1  0  0  0  0
 32 35  1  0  0  0  0
 41 42  1  0  0  0  0
  7  8  1  0  0  0  0
 31 32  1  0  0  0  0
 22 27  1  0  0  0  0
 22 28  1  0  0  0  0
 21 25  1  0  0  0  0
 21 26  1  0  0  0  0
 23 29  1  0  0  0  0
 23 30  1  0  0  0  0
 18 24  1  0  0  0  0
  3  4  1  0  0  0  0
  3  5  1  0  0  0  0
  3  6  1  0  0  0  0
 11 14  1  0  0  0  0
 11 15  1  0  0  0  0
 11 16  1  0  0  0  0
 35 38  1  0  0  0  0
 35 39  1  0  0  0  0
 35 40  1  0  0  0  0
 42 44  1  0  0  0  0
 42 45  1  0  0  0  0
 42 46  1  0  0  0  0
  8 13  1  0  0  0  0
 32 37  1  0  0  0  0
 31 36  1  0  0  0  0
 41 43  1  0  0  0  0
  7 12  1  0  0  0  0
M  END
$$$$

  -OEChem-05262214473D

 46 46  0     1  0  0  0  0  0999 V2000
   -0.6012   -3.2995    3.8205 C   0  0  0  0  0  0  0  0  0  0  0  0
   -0.6574   -4.4683    3.4568 O   0  0  0  0  0  0  0  0  0  0  0  0
   -0.4935   -2.9859    5.2760 C   0  0  0  0  0  0  0  0  0  0  0  0
   -1.4789   -2.8689    5.7550 H   0  0  0  0  0  0  0  0  0  0  0  0
    0.0123   -3.7847    5.8419 H   0  0  0  0  0  0  0  0  0  0  0  0
    0.0585   -2.0642    5.5199 H   0  0  0  0  0  0  0  0  0  0  0  0
   -0.6261   -2.1849    2.9917 N   0  0  0  0  0  0  0  0  0  0  0  0
   -0.7237   -2.2601    1.5650 C   0  0  2  0  0  0  0  0  0  0  0  0
    0.1695   -1.1513    1.0687 C   0  0  0  0  0  0  0  0  0  0  0  0
    0.3193   -0.1267    1.7365 O   0  0  0  0  0  0  0  0  0  0  0  0
   -2.1397   -2.0663    1.0750 C   0  0  0  0  0  0  0  0  0  0  0  0
   -0.5717   -1.2606    3.4238 H   0  0  0  0  0  0  0  0  0  0  0  0
   -0.3076   -3.2111    1.2363 H   0  0  0  0  0  0  0  0  0  0  0  0
   -2.5584   -1.1089    1.4061 H   0  0  0  0  0  0  0  0  0  0  0  0
   -2.1682   -2.0790   -0.0197 H   0  0  0  0  0  0  0  0  0  0  0  0
   -2.7965   -2.8601    1.4459 H   0  0  0  0  0  0  0  0  0  0  0  0
    0.7724   -1.3745   -0.1593 N   0  0  0  0  0  0  0  0  0  0  0  0
    0.5614   -2.5964   -0.9244 C   0  0  2  0  0  0  0  0  0  0  0  0
    0.3023   -3.6958    0.0614 C   0  0  0  0  0  0  0  0  0  0  0  0
   -0.8468   -3.9304    0.4166 O   0  0  0  0  0  0  0  0  0  0  0  0
    1.8675   -2.8105   -1.6805 C   0  0  0  0  0  0  0  0  0  0  0  0
    2.3820   -1.3741   -1.7361 C   0  0  0  0  0  0  0  0  0  0  0  0
    1.5408   -0.3981   -0.9273 C   0  0  0  0  0  0  0  0  0  0  0  0
   -0.3071   -2.5022   -1.5833 H   0  0  0  0  0  0  0  0  0  0  0  0
    1.6596   -3.1959   -2.6858 H   0  0  0  0  0  0  0  0  0  0  0  0
    2.5561   -3.4974   -1.1790 H   0  0  0  0  0  0  0  0  0  0  0  0
    3.3887   -1.3127   -1.3070 H   0  0  0  0  0  0  0  0  0  0  0  0
    2.4211   -0.9888   -2.7590 H   0  0  0  0  0  0  0  0  0  0  0  0
    2.1479    0.2776   -0.3187 H   0  0  0  0  0  0  0  0  0  0  0  0
    0.8868    0.1950   -1.5757 H   0  0  0  0  0  0  0  0  0  0  0  0
    1.4514   -4.3518    0.4794 N   0  0  0  0  0  0  0  0  0  0  0  0
    1.9783   -4.9692    1.6753 C   0  0  2  0  0  0  0  0  0  0  0  0
    0.9428   -4.8122    2.7809 C   0  0  0  0  0  0  0  0  0  0  0  0
    0.0752   -3.9414    2.7687 O   0  0  0  0  0  0  0  0  0  0  0  0
    3.3052   -4.3465    2.0808 C   0  0  0  0  0  0  0  0  0  0  0  0
    1.3493   -4.9224   -0.3545 H   0  0  0  0  0  0  0  0  0  0  0  0
    2.1135   -6.0324    1.4490 H   0  0  0  0  0  0  0  0  0  0  0  0
    3.1896   -3.2812    2.3114 H   0  0  0  0  0  0  0  0  0  0  0  0
    3.7170   -4.8344    2.9704 H   0  0  0  0  0  0  0  0  0  0  0  0
    4.0398   -4.4340    1.2730 H   0  0  0  0  0  0  0  0  0  0  0  0
    1.1282   -5.7315    3.8040 N   0  0  0  0  0  0  0  0  0  0  0  0
    0.2817   -5.7780    4.9733 C   0  0  0  0  0  0  0  0  0  0  0  0
    1.8615   -6.4295    3.7217 H   0  0  0  0  0  0  0  0  0  0  0  0
    0.7218   -5.1604    5.7700 H   0  0  0  0  0  0  0  0  0  0  0  0
   -0.7163   -5.3916    4.7189 H   0  0  0  0  0  0  0  0  0  0  0  0
    0.1944   -6.8178    5.3214 H   0  0  0  0  0  0  0  0  0  0  0  0
 18 19  1  0  0  0  0
 19 31  1  0  0  0  0
 19 20  2  0  0  0  0
  8  9  1  0  0  0  0
  9 17  1  0  0  0  0
  9 10  2  0  0  0  0
  1  3  1  0  0  0  0
  1  7  1  0  0  0  0
  1  2  2  0  0  0  0
 32 33  1  0  0  0  0
 33 41  1  0  0  0  0
 33 34  2  0  0  0  0
 21 22  1  0  0  0  0
 22 23  1  0  0  0  0
 18 21  1  0  0  0  0
 17 23  1  0  0  0  0
 17 18  1  0  0  0  0
  8 11  1  0  0  0  0
 32 35  1  0  0  0  0
 41 42  1  0  0  0  0
  7  8  1  0  0  0  0
 31 32  1  0  0  0  0
 22 27  1  0  0  0  0
 22 28  1  0  0  0  0
 21 25  1  0  0  0  0
 21 26  1  0  0  0  0
 23 29  1  0  0  0  0
 23 30  1  0  0  0  0
 18 24  1  0  0  0  0
  3  4  1  0  0  0  0
  3  5  1  0  0  0  0
  3  6  1  0  0  0  0
 11 14  1  0  0  0  0
 11 15  1  0  0  0  0
 11 16  1  0  0  0  0
 35 38  1  0  0  0  0
 35 39  1  0  0  0  0
 35 40  1  0  0  0  0
 42 44  1  0  0  0  0
 42 45  1  0  0  0  0
 42 46  1  0  0  0  0
  8 13  1  0  0  0  0
 32 37  1  0  0  0  0
 31 36  1  0  0  0  0
 41 43  1  0  0  0  0
  7 12  1  0  0  0  0
M  END
$$$$

  -OEChem-05262214473D

 46 46  0     1  0  0  0  0  0999 V2000
   -0.6012   -3.2995    3.8205 C   0  0  0  0  0  0  0  0  0  0  0  0
   -0.6574   -4.4683    3.4568 O   0  0  0  0  0  0  0  0  0  0  0  0
   -0.4935   -2.9859    5.2760 C   0  0  0  0  0  0  0  0  0  0  0  0
   -1.4789   -2.8689    5.7550 H   0  0  0  0  0  0  0  0  0  0  0  0
    0.0123   -3.7847    5.8419 H   0  0  0  0  0  0  0  0  0  0  0  0
    0.0585   -2.0642    5.5199 H   0  0  0  0  0  0  0  0  0  0  0  0
   -0.6261   -2.1849    2.9917 N   0  0  0  0  0  0  0  0  0  0  0  0
   -0.7237   -2.2601    1.5650 C   0  0  2  0  0  0  0  0  0  0  0  0
    0.1695   -1.1513    1.0687 C   0  0  0  0  0  0  0  0  0  0  0  0
    0.3193   -0.1267    1.7365 O   0  0  0  0  0  0  0  0  0  0  0  0
   -2.1397   -2.0663    1.0750 C   0  0  0  0  0  0  0  0  0  0  0  0
   -0.5717   -1.2606    3.4238 H   0  0  0  0  0  0  0  0  0  0  0  0
   -0.3076   -3.2111    1.2363 H   0  0  0  0  0  0  0  0  0  0  0  0
   -2.5584   -1.1089    1.4061 H   0  0  0  0  0  0  0  0  0  0  0  0
   -2.1682   -2.0790   -0.0197 H   0  0  0  0  0  0  0  0  0  0  0  0
   -2.7965   -2.8601    1.4459 H   0  0  0  0  0  0  0  0  0  0  0  0
    0.7724   -1.3745   -0.1593 N   0  0  0  0  0  0  0  0  0  0  0  0
    0.5614   -2.5964   -0.9244 C   0  0  2  0  0  0  0  0  0  0  0  0
    0.3023   -3.6958    0.0614 C   0  0  0  0  0  0  0  0  0  0  0  0
   -0.8387   -4.1172    0.2104 O   0  0  0  0  0  0  0  0  0  0  0  0
    1.8675   -2.8105   -1.6805 C   0  0  0  0  0  0  0  0  0  0  0  0
    2.3820   -1.3741   -1.7361 C   0  0  0  0  0  0  0  0  0  0  0  0
    1.5408   -0.3981   -0.9273 C   0  0  0  0  0  0  0  0  0  0  0  0
   -0.3071   -2.5022   -1.5833 H   0  0  0  0  0  0  0  0  0  0  0  0
    1.6596   -3.1959   -2.6858 H   0  0  0  0  0  0  0  0  0  0  0  0
    2.5561   -3.4974   -1.1790 H   0  0  0  0  0  0  0  0  0  0  0  0
    3.3887   -1.3127   -1.3070 H   0  0  0  0  0  0  0  0  0  0  0  0
    2.4211   -0.9888   -2.7590 H   0  0  0  0  0  0  0  0  0  0  0  0
    2.1479    0.2776   -0.3187 H   0  0  0  0  0  0  0  0  0  0  0  0
    0.8868    0.1950   -1.5757 H   0  0  0  0  0  0  0  0  0  0  0  0
    1.4413   -4.1291    0.7250 N   0  0  0  0  0  0  0  0  0  0  0  0
    1.8216   -4.6110    2.0335 C   0  0  2  0  0  0  0  0  0  0  0  0
    0.5801   -4.6059    2.9157 C   0  0  0  0  0  0  0  0  0  0  0  0
   -0.4009   -3.9006    2.6891 O   0  0  0  0  0  0  0  0  0  0  0  0
    2.9227   -3.7551    2.6398 C   0  0  0  0  0  0  0  0  0  0  0  0
    1.5987   -4.7321   -0.0768 H   0  0  0  0  0  0  0  0  0  0  0  0
    2.1725   -5.6403    1.9018 H   0  0  0  0  0  0  0  0  0  0  0  0
    2.5897   -2.7202    2.7793 H   0  0  0  0  0  0  0  0  0  0  0  0
    3.2296   -4.1383    3.6186 H   0  0  0  0  0  0  0  0  0  0  0  0
    3.8040   -3.7358    1.9896 H   0  0  0  0  0  0  0  0  0  0  0  0
    0.7138   -5.4494    4.0097 N   0  0  0  0  0  0  0  0  0  0  0  0
   -0.3235   -5.6098    5.0018 C   0  0  0  0  0  0  0  0  0  0  0  0
    1.5545   -6.0108    4.1079 H   0  0  0  0  0  0  0  0  0  0  0  0
   -0.1547   -4.9026    5.8272 H   0  0  0  0  0  0  0  0  0  0  0  0
   -1.3033   -5.4108    4.5431 H   0  0  0  0  0  0  0  0  0  0  0  0
   -0.3028   -6.6386    5.3906 H   0  0  0  0  0  0  0  0  0  0  0  0
 18 19  1  0  0  0  0
 19 31  1  0  0  0  0
 19 20  2  0  0  0  0
  8  9  1  0  0  0  0
  9 17  1  0  0  0  0
  9 10  2  0  0  0  0
  1  3  1  0  0  0  0
  1  7  1  0  0  0  0
  1  2  2  0  0  0  0
 32 33  1  0  0  0  0
 33 41  1  0  0  0  0
 33 34  2  0  0  0  0
 21 22  1  0  0  0  0
 22 23  1  0  0  0  0
 18 21  1  0  0  0  0
 17 23  1  0  0  0  0
 17 18  1  0  0  0  0
  8 11  1  0  0  0  0
 32 35  1  0  0  0  0
 41 42  1  0  0  0  0
  7  8  1  0  0  0  0
 31 32  1  0  0  0  0
 22 27  1  0  0  0  0
 22 28  1  0  0  0  0
 21 25  1  0  0  0  0
 21 26  1  0  0  0  0
 23 29  1  0  0  0  0
 23 30  1  0  0  0  0
 18 24  1  0  0  0  0
  3  4  1  0  0  0  0
  3  5  1  0  0  0  0
  3  6  1  0  0  0  0
 11 14  1  0  0  0  0
 11 15  1  0  0  0  0
 11 16  1  0  0  0  0
 35 38  1  0  0  0  0
 35 39  1  0  0  0  0
 35 40  1  0  0  0  0
 42 44  1  0  0  0  0
 42 45  1  0  0  0  0
 42 46  1  0  0  0  0
  8 13  1  0  0  0  0
 32 37  1  0  0  0  0
 31 36  1  0  0  0  0
 41 43  1  0  0  0  0
  7 12  1  0  0  0  0
M  END
$$$$

  -OEChem-05262214473D

 46 46  0     1  0  0  0  0  0999 V2000
   -0.6012   -3.2995    3.8205 C   0  0  0  0  0  0  0  0  0  0  0  0
   -0.6574   -4.4683    3.4568 O   0  0  0  0  0  0  0  0  0  0  0  0
   -0.4935   -2.9859    5.2760 C   0  0  0  0  0  0  0  0  0  0  0  0
   -1.4789   -2.8689    5.7550 H   0  0  0  0  0  0  0  0  0  0  0  0
    0.0123   -3.7847    5.8419 H   0  0  0  0  0  0  0  0  0  0  0  0
    0.0585   -2.0642    5.5199 H   0  0  0  0  0  0  0  0  0  0  0  0
   -0.6261   -2.1849    2.9917 N   0  0  0  0  0  0  0  0  0  0  0  0
   -0.7237   -2.2601    1.5650 C   0  0  2  0  0  0  0  0  0  0  0  0
    0.1695   -1.1513    1.0687 C   0  0  0  0  0  0  0  0  0  0  0  0
    0.3193   -0.1267    1.7365 O   0  0  0  0  0  0  0  0  0  0  0  0
   -2.1397   -2.0663    1.0750 C   0  0  0  0  0  0  0  0  0  0  0  0
   -0.5717   -1.2606    3.4238 H   0  0  0  0  0  0  0  0  0  0  0  0
   -0.3076   -3.2111    1.2363 H   0  0  0  0  0  0  0  0  0  0  0  0
   -2.5584   -1.1089    1.4061 H   0  0  0  0  0  0  0  0  0  0  0  0
   -2.1682   -2.0790   -0.0197 H   0  0  0  0  0  0  0  0  0  0  0  0
   -2.7965   -2.8601    1.4459 H   0  0  0  0  0  0  0  0  0  0  0  0
    0.7724   -1.3745   -0.1593 N   0  0  0  0  0  0  0  0  0  0  0  0
    0.5614   -2.5964   -0.9244 C   0  0  2  0  0  0  0  0  0  0  0  0
    0.3023   -3.6958    0.0614 C   0  0  0  0  0  0  0  0  0  0  0  0
   -0.7600   -4.3054    0.0212 O   0  0  0  0  0  0  0  0  0  0  0  0
    1.8675   -2.8105   -1.6805 C   0  0  0  0  0  0  0  0  0  0  0  0
    2.3820   -1.3741   -1.7361 C   0  0  0  0  0  0  0  0  0  0  0  0
    1.5408   -0.3981   -0.9273 C   0  0  0  0  0  0  0  0  0  0  0  0
   -0.3071   -2.5022   -1.5833 H   0  0  0  0  0  0  0  0  0  0  0  0
    1.6596   -3.1959   -2.6858 H   0  0  0  0  0  0  0  0  0  0  0  0
    2.5561   -3.4974   -1.1790 H   0  0  0  0  0  0  0  0  0  0  0  0
    3.3887   -1.3127   -1.3070 H   0  0  0  0  0  0  0  0  0  0  0  0
    2.4211   -0.9888   -2.7590 H   0  0  0  0  0  0  0  0  0  0  0  0
    2.1479    0.2776   -0.3187 H   0  0  0  0  0  0  0  0  0  0  0  0
    0.8868    0.1950   -1.5757 H   0  0  0  0  0  0  0  0  0  0  0  0
    1.3470   -3.9047    0.9505 N   0  0  0  0  0  0  0  0  0  0  0  0
    1.5412   -4.2756    2.3338 C   0  0  2  0  0  0  0  0  0  0  0  0
    0.1691   -4.4623    2.9678 C   0  0  0  0  0  0  0  0  0  0  0  0
   -0.8526   -3.9457    2.5201 O   0  0  0  0  0  0  0  0  0  0  0  0
    2.3466   -3.2239    3.0808 C   0  0  0  0  0  0  0  0  0  0  0  0
    1.7545   -4.4935    0.2303 H   0  0  0  0  0  0  0  0  0  0  0  0
    2.0768   -5.2312    2.3328 H   0  0  0  0  0  0  0  0  0  0  0  0
    1.8258   -2.2595    3.0924 H   0  0  0  0  0  0  0  0  0  0  0  0
    2.5173   -3.5198    4.1212 H   0  0  0  0  0  0  0  0  0  0  0  0
    3.3215   -3.0696    2.6058 H   0  0  0  0  0  0  0  0  0  0  0  0
    0.2264   -5.2382    4.1170 N   0  0  0  0  0  0  0  0  0  0  0  0
   -0.9421   -5.5491    4.9069 C   0  0  0  0  0  0  0  0  0  0  0  0
    1.1134   -5.6413    4.4041 H   0  0  0  0  0  0  0  0  0  0  0  0
   -1.0561   -4.8002    5.7045 H   0  0  0  0  0  0  0  0  0  0  0  0
   -1.8337   -5.5372    4.2628 H   0  0  0  0  0  0  0  0  0  0  0  0
   -0.8268   -6.5471    5.3550 H   0  0  0  0  0  0  0  0  0  0  0  0
 18 19  1  0  0  0  0
 19 31  1  0  0  0  0
 19 20  2  0  0  0  0
  8  9  1  0  0  0  0
  9 17  1  0  0  0  0
  9 10  2  0  0  0  0
  1  3  1  0  0  0  0
  1  7  1  0  0  0  0
  1  2  2  0  0  0  0
 32 33  1  0  0  0  0
 33 41  1  0  0  0  0
 33 34  2  0  0  0  0
 21 22  1  0  0  0  0
 22 23  1  0  0  0  0
 18 21  1  0  0  0  0
 17 23  1  0  0  0  0
 17 18  1  0  0  0  0
  8 11  1  0  0  0  0
 32 35  1  0  0  0  0
 41 42  1  0  0  0  0
  7  8  1  0  0  0  0
 31 32  1  0  0  0  0
 22 27  1  0  0  0  0
 22 28  1  0  0  0  0
 21 25  1  0  0  0  0
 21 26  1  0  0  0  0
 23 29  1  0  0  0  0
 23 30  1  0  0  0  0
 18 24  1  0  0  0  0
  3  4  1  0  0  0  0
  3  5  1  0  0  0  0
  3  6  1  0  0  0  0
 11 14  1  0  0  0  0
 11 15  1  0  0  0  0
 11 16  1  0  0  0  0
 35 38  1  0  0  0  0
 35 39  1  0  0  0  0
 35 40  1  0  0  0  0
 42 44  1  0  0  0  0
 42 45  1  0  0  0  0
 42 46  1  0  0  0  0
  8 13  1  0  0  0  0
 32 37  1  0  0  0  0
 31 36  1  0  0  0  0
 41 43  1  0  0  0  0
  7 12  1  0  0  0  0
M  END
$$$$

  -OEChem-05262214473D

 46 46  0     1  0  0  0  0  0999 V2000
   -0.6012   -3.2995    3.8205 C   0  0  0  0  0  0  0  0  0  0  0  0
   -0.6574   -4.4683    3.4568 O   0  0  0  0  0  0  0  0  0  0  0  0
   -0.4935   -2.9859    5.2760 C   0  0  0  0  0  0  0  0  0  0  0  0
   -1.4789   -2.8689    5.7550 H   0  0  0  0  0  0  0  0  0  0  0  0
    0.0123   -3.7847    5.8419 H   0  0  0  0  0  0  0  0  0  0  0  0
    0.0585   -2.0642    5.5199 H   0  0  0  0  0  0  0  0  0  0  0  0
   -0.6261   -2.1849    2.9917 N   0  0  0  0  0  0  0  0  0  0  0  0
   -0.7237   -2.2601    1.5650 C   0  0  2  0  0  0  0  0  0  0  0  0
    0.1695   -1.1513    1.0687 C   0  0  0  0  0  0  0  0  0  0  0  0
    0.3193   -0.1267    1.7365 O   0  0  0  0  0  0  0  0  0  0  0  0
   -2.1397   -2.0663    1.0750 C   0  0  0  0  0  0  0  0  0  0  0  0
   -0.5717   -1.2606    3.4238 H   0  0  0  0  0  0  0  0  0  0  0  0
   -0.3076   -3.2111    1.2363 H   0  0  0  0  0  0  0  0  0  0  0  0
   -2.5584   -1.1089    1.4061 H   0  0  0  0  0  0  0  0  0  0  0  0
   -2.1682   -2.0790   -0.0197 H   0  0  0  0  0  0  0  0  0  0  0  0
   -2.7965   -2.8601    1.4459 H   0  0  0  0  0  0  0  0  0  0  0  0
    0.7724   -1.3745   -0.1593 N   0  0  0  0  0  0  0  0  0  0  0  0
    0.5614   -2.5964   -0.9244 C   0  0  2  0  0  0  0  0  0  0  0  0
    0.3023   -3.6958    0.0614 C   0  0  0  0  0  0  0  0  0  0  0  0
   -0.6159   -4.4823   -0.1383 O   0  0  0  0  0  0  0  0  0  0  0  0
    1.8675   -2.8105   -1.6805 C   0  0  0  0  0  0  0  0  0  0  0  0
    2.3820   -1.3741   -1.7361 C   0  0  0  0  0  0  0  0  0  0  0  0
    1.5408   -0.3981   -0.9273 C   0  0  0  0  0  0  0  0  0  0  0  0
   -0.3071   -2.5022   -1.5833 H   0  0  0  0  0  0  0  0  0  0  0  0
    1.6596   -3.1959   -2.6858 H   0  0  0  0  0  0  0  0  0  0  0  0
    2.5561   -3.4974   -1.1790 H   0  0  0  0  0  0  0  0  0  0  0  0
    3.3887   -1.3127   -1.3070 H   0  0  0  0  0  0  0  0  0  0  0  0
    2.4211   -0.9888   -2.7590 H   0  0  0  0  0  0  0  0  0  0  0  0
    2.1479    0.2776   -0.3187 H   0  0  0  0  0  0  0  0  0  0  0  0
    0.8868    0.1950   -1.5757 H   0  0  0  0  0  0  0  0  0  0  0  0
    1.1749   -3.6940    1.1403 N   0  0  0  0  0  0  0  0  0  0  0  0
    1.1563   -3.9860    2.5557 C   0  0  2  0  0  0  0  0  0  0  0  0
   -0.2622   -4.3912    2.9337 C   0  0  0  0  0  0  0  0  0  0  0  0
   -1.2491   -4.0737    2.2731 O   0  0  0  0  0  0  0  0  0  0  0  0
    1.6160   -2.7892    3.3736 C   0  0  0  0  0  0  0  0  0  0  0  0
    1.8061   -4.2227    0.5458 H   0  0  0  0  0  0  0  0  0  0  0  0
    1.8329   -4.8331    2.7127 H   0  0  0  0  0  0  0  0  0  0  0  0
    0.9502   -1.9305    3.2292 H   0  0  0  0  0  0  0  0  0  0  0  0
    1.6286   -3.0212    4.4437 H   0  0  0  0  0  0  0  0  0  0  0  0
    2.6250   -2.4806    3.0797 H   0  0  0  0  0  0  0  0  0  0  0  0
   -0.3007   -5.1124    4.1188 N   0  0  0  0  0  0  0  0  0  0  0  0
   -1.5320   -5.6000    4.6952 C   0  0  0  0  0  0  0  0  0  0  0  0
    0.5683   -5.3462    4.5899 H   0  0  0  0  0  0  0  0  0  0  0  0
   -1.9209   -4.8601    5.4103 H   0  0  0  0  0  0  0  0  0  0  0  0
   -2.2714   -5.7620    3.8970 H   0  0  0  0  0  0  0  0  0  0  0  0
   -1.3417   -6.5494    5.2170 H   0  0  0  0  0  0  0  0  0  0  0  0
 18 19  1  0  0  0  0
 19 31  1  0  0  0  0
 19 20  2  0  0  0  0
  8  9  1  0  0  0  0
  9 17  1  0  0  0  0
  9 10  2  0  0  0  0
  1  3  1  0  0  0  0
  1  7  1  0  0  0  0
  1  2  2  0  0  0  0
 32 33  1  0  0  0  0
 33 41  1  0  0  0  0
 33 34  2  0  0  0  0
 21 22  1  0  0  0  0
 22 23  1  0  0  0  0
 18 21  1  0  0  0  0
 17 23  1  0  0  0  0
 17 18  1  0  0  0  0
  8 11  1  0  0  0  0
 32 35  1  0  0  0  0
 41 42  1  0  0  0  0
  7  8  1  0  0  0  0
 31 32  1  0  0  0  0
 22 27  1  0  0  0  0
 22 28  1  0  0  0  0
 21 25  1  0  0  0  0
 21 26  1  0  0  0  0
 23 29  1  0  0  0  0
 23 30  1  0  0  0  0
 18 24  1  0  0  0  0
  3  4  1  0  0  0  0
  3  5  1  0  0  0  0
  3  6  1  0  0  0  0
 11 14  1  0  0  0  0
 11 15  1  0  0  0  0
 11 16  1  0  0  0  0
 35 38  1  0  0  0  0
 35 39  1  0  0  0  0
 35 40  1  0  0  0  0
 42 44  1  0  0  0  0
 42 45  1  0  0  0  0
 42 46  1  0  0  0  0
  8 13  1  0  0  0  0
 32 37  1  0  0  0  0
 31 36  1  0  0  0  0
 41 43  1  0  0  0  0
  7 12  1  0  0  0  0
M  END
$$$$

  -OEChem-05262214473D

 46 46  0     1  0  0  0  0  0999 V2000
   -0.6012   -3.2995    3.8205 C   0  0  0  0  0  0  0  0  0  0  0  0
   -0.6574   -4.4683    3.4568 O   0  0  0  0  0  0  0  0  0  0  0  0
   -0.4935   -2.9859    5.2760 C   0  0  0  0  0  0  0  0  0  0  0  0
   -1.4789   -2.8689    5.7550 H   0  0  0  0  0  0  0  0  0  0  0  0
    0.0123   -3.7847    5.8419 H   0  0  0  0  0  0  0  0  0  0  0  0
    0.0585   -2.0642    5.5199 H   0  0  0  0  0  0  0  0  0  0  0  0
   -0.6261   -2.1849    2.9917 N   0  0  0  0  0  0  0  0  0  0  0  0
   -0.7237   -2.2601    1.5650 C   0  0  2  0  0  0  0  0  0  0  0  0
    0.1695   -1.1513    1.0687 C   0  0  0  0  0  0  0  0  0  0  0  0
    0.3193   -0.1267    1.7365 O   0  0  0  0  0  0  0  0  0  0  0  0
   -2.1397   -2.0663    1.0750 C   0  0  0  0  0  0  0  0  0  0  0  0
   -0.5717   -1.2606    3.4238 H   0  0  0  0  0  0  0  0  0  0  0  0
   -0.3076   -3.2111    1.2363 H   0  0  0  0  0  0  0  0  0  0  0  0
   -2.5584   -1.1089    1.4061 H   0  0  0  0  0  0  0  0  0  0  0  0
   -2.1682   -2.0790   -0.0197 H   0  0  0  0  0  0  0  0  0  0  0  0
   -2.7965   -2.8601    1.4459 H   0  0  0  0  0  0  0  0  0  0  0  0
    0.7724   -1.3745   -0.1593 N   0  0  0  0  0  0  0  0  0  0  0  0
    0.5614   -2.5964   -0.9244 C   0  0  2  0  0  0  0  0  0  0  0  0
    0.3023   -3.6958    0.0614 C   0  0  0  0  0  0  0  0  0  0  0  0
   -0.4164   -4.6358   -0.2570 O   0  0  0  0  0  0  0  0  0  0  0  0
    1.8675   -2.8105   -1.6805 C   0  0  0  0  0  0  0  0  0  0  0  0
    2.3820   -1.3741   -1.7361 C   0  0  0  0  0  0  0  0  0  0  0  0
    1.5408   -0.3981   -0.9273 C   0  0  0  0  0  0  0  0  0  0  0  0
   -0.3071   -2.5022   -1.5833 H   0  0  0  0  0  0  0  0  0  0  0  0
    1.6596   -3.1959   -2.6858 H   0  0  0  0  0  0  0  0  0  0  0  0
    2.5561   -3.4974   -1.1790 H   0  0  0  0  0  0  0  0  0  0  0  0
    3.3887   -1.3127   -1.3070 H   0  0  0  0  0  0  0  0  0  0  0  0
    2.4211   -0.9888   -2.7590 H   0  0  0  0  0  0  0  0  0  0  0  0
    2.1479    0.2776   -0.3187 H   0  0  0  0  0  0  0  0  0  0  0  0
    0.8868    0.1950   -1.5757 H   0  0  0  0  0  0  0  0  0  0  0  0
    0.9368   -3.5112    1.2815 N   0  0  0  0  0  0  0  0  0  0  0  0
    0.6932   -3.7618    2.6840 C   0  0  2  0  0  0  0  0  0  0  0  0
   -0.6845   -4.3975    2.8157 C   0  0  0  0  0  0  0  0  0  0  0  0
   -1.5635   -4.2759    1.9650 O   0  0  0  0  0  0  0  0  0  0  0  0
    0.7807   -2.4805    3.4984 C   0  0  0  0  0  0  0  0  0  0  0  0
    1.7500   -3.9383    0.8483 H   0  0  0  0  0  0  0  0  0  0  0  0
    1.4575   -4.4731    3.0156 H   0  0  0  0  0  0  0  0  0  0  0  0
    0.0225   -1.7556    3.1804 H   0  0  0  0  0  0  0  0  0  0  0  0
    0.6242   -2.6764    4.5643 H   0  0  0  0  0  0  0  0  0  0  0  0
    1.7621   -2.0090    3.3788 H   0  0  0  0  0  0  0  0  0  0  0  0
   -0.8316   -5.0805    4.0149 N   0  0  0  0  0  0  0  0  0  0  0  0
   -2.0530   -5.7589    4.3810 C   0  0  0  0  0  0  0  0  0  0  0  0
   -0.0438   -5.1457    4.6527 H   0  0  0  0  0  0  0  0  0  0  0  0
   -2.6902   -5.0784    4.9647 H   0  0  0  0  0  0  0  0  0  0  0  0
   -2.5864   -6.0701    3.4707 H   0  0  0  0  0  0  0  0  0  0  0  0
   -1.8126   -6.6455    4.9862 H   0  0  0  0  0  0  0  0  0  0  0  0
 18 19  1  0  0  0  0
 19 31  1  0  0  0  0
 19 20  2  0  0  0  0
  8  9  1  0  0  0  0
  9 17  1  0  0  0  0
  9 10  2  0  0  0  0
  1  3  1  0  0  0  0
  1  7  1  0  0  0  0
  1  2  2  0  0  0  0
 32 33  1  0  0  0  0
 33 41  1  0  0  0  0
 33 34  2  0  0  0  0
 21 22  1  0  0  0  0
 22 23  1  0  0  0  0
 18 21  1  0  0  0  0
 17 23  1  0  0  0  0
 17 18  1  0  0  0  0
  8 11  1  0  0  0  0
 32 35  1  0  0  0  0
 41 42  1  0  0  0  0
  7  8  1  0  0  0  0
 31 32  1  0  0  0  0
 22 27  1  0  0  0  0
 22 28  1  0  0  0  0
 21 25  1  0  0  0  0
 21 26  1  0  0  0  0
 23 29  1  0  0  0  0
 23 30  1  0  0  0  0
 18 24  1  0  0  0  0
  3  4  1  0  0  0  0
  3  5  1  0  0  0  0
  3  6  1  0  0  0  0
 11 14  1  0  0  0  0
 11 15  1  0  0  0  0
 11 16  1  0  0  0  0
 35 38  1  0  0  0  0
 35 39  1  0  0  0  0
 35 40  1  0  0  0  0
 42 44  1  0  0  0  0
 42 45  1  0  0  0  0
 42 46  1  0  0  0  0
  8 13  1  0  0  0  0
 32 37  1  0  0  0  0
 31 36  1  0  0  0  0
 41 43  1  0  0  0  0
  7 12  1  0  0  0  0
M  END
$$$$

  -OEChem-05262214473D

 46 46  0     1  0  0  0  0  0999 V2000
   -0.6012   -3.2995    3.8205 C   0  0  0  0  0  0  0  0  0  0  0  0
   -0.6574   -4.4683    3.4568 O   0  0  0  0  0  0  0  0  0  0  0  0
   -0.4935   -2.9859    5.2760 C   0  0  0  0  0  0  0  0  0  0  0  0
   -1.4789   -2.8689    5.7550 H   0  0  0  0  0  0  0  0  0  0  0  0
    0.0123   -3.7847    5.8419 H   0  0  0  0  0  0  0  0  0  0  0  0
    0.0585   -2.0642    5.5199 H   0  0  0  0  0  0  0  0  0  0  0  0
   -0.6261   -2.1849    2.9917 N   0  0  0  0  0  0  0  0  0  0  0  0
   -0.7237   -2.2601    1.5650 C   0  0  2  0  0  0  0  0  0  0  0  0
    0.1695   -1.1513    1.0687 C   0  0  0  0  0  0  0  0  0  0  0  0
    0.3193   -0.1267    1.7365 O   0  0  0  0  0  0  0  0  0  0  0  0
   -2.1397   -2.0663    1.0750 C   0  0  0  0  0  0  0  0  0  0  0  0
   -0.5717   -1.2606    3.4238 H   0  0  0  0  0  0  0  0  0  0  0  0
   -0.3076   -3.2111    1.2363 H   0  0  0  0  0  0  0  0  0  0  0  0
   -2.5584   -1.1089    1.4061 H   0  0  0  0  0  0  0  0  0  0  0  0
   -2.1682   -2.0790   -0.0197 H   0  0  0  0  0  0  0  0  0  0  0  0
   -2.7965   -2.8601    1.4459 H   0  0  0  0  0  0  0  0  0  0  0  0
    0.7724   -1.3745   -0.1593 N   0  0  0  0  0  0  0  0  0  0  0  0
    0.5614   -2.5964   -0.9244 C   0  0  2  0  0  0  0  0  0  0  0  0
    0.3023   -3.6958    0.0614 C   0  0  0  0  0  0  0  0  0  0  0  0
   -0.1751   -4.7555   -0.3270 O   0  0  0  0  0  0  0  0  0  0  0  0
    1.8675   -2.8105   -1.6805 C   0  0  0  0  0  0  0  0  0  0  0  0
    2.3820   -1.3741   -1.7361 C   0  0  0  0  0  0  0  0  0  0  0  0
    1.5408   -0.3981   -0.9273 C   0  0  0  0  0  0  0  0  0  0  0  0
   -0.3071   -2.5022   -1.5833 H   0  0  0  0  0  0  0  0  0  0  0  0
    1.6596   -3.1959   -2.6858 H   0  0  0  0  0  0  0  0  0  0  0  0
    2.5561   -3.4974   -1.1790 H   0  0  0  0  0  0  0  0  0  0  0  0
    3.3887   -1.3127   -1.3070 H   0  0  0  0  0  0  0  0  0  0  0  0
    2.4211   -0.9888   -2.7590 H   0  0  0  0  0  0  0  0  0  0  0  0
    2.1479    0.2776   -0.3187 H   0  0  0  0  0  0  0  0  0  0  0  0
    0.8868    0.1950   -1.5757 H   0  0  0  0  0  0  0  0  0  0  0  0
    0.6489   -3.3689    1.3646 N   0  0  0  0  0  0  0  0  0  0  0  0
    0.1833   -3.6183    2.7100 C   0  0  2  0  0  0  0  0  0  0  0  0
   -1.0689   -4.4807    2.6219 C   0  0  0  0  0  0  0  0  0  0  0  0
   -1.7742   -4.5385    1.6168 O   0  0  0  0  0  0  0  0  0  0  0  0
   -0.1023   -2.3189    3.4465 C   0  0  0  0  0  0  0  0  0  0  0  0
    1.5900   -3.6596    1.1170 H   0  0  0  0  0  0  0  0  0  0  0  0
    0.9761   -4.1757    3.2208 H   0  0  0  0  0  0  0  0  0  0  0  0
   -0.8941   -1.7467    2.9494 H   0  0  0  0  0  0  0  0  0  0  0  0
   -0.4276   -2.5088    4.4747 H   0  0  0  0  0  0  0  0  0  0  0  0
    0.7916   -1.6869    3.4829 H   0  0  0  0  0  0  0  0  0  0  0  0
   -1.3301   -5.1447    3.8123 N   0  0  0  0  0  0  0  0  0  0  0  0
   -2.4694   -6.0152    3.9857 C   0  0  0  0  0  0  0  0  0  0  0  0
   -0.6810   -5.0533    4.5882 H   0  0  0  0  0  0  0  0  0  0  0  0
   -3.3116   -5.4401    4.3981 H   0  0  0  0  0  0  0  0  0  0  0  0
   -2.7574   -6.4403    3.0129 H   0  0  0  0  0  0  0  0  0  0  0  0
   -2.2072   -6.8287    4.6781 H   0  0  0  0  0  0  0  0  0  0  0  0
 18 19  1  0  0  0  0
 19 31  1  0  0  0  0
 19 20  2  0  0  0  0
  8  9  1  0  0  0  0
  9 17  1  0  0  0  0
  9 10  2  0  0  0  0
  1  3  1  0  0  0  0
  1  7  1  0  0  0  0
  1  2  2  0  0  0  0
 32 33  1  0  0  0  0
 33 41  1  0  0  0  0
 33 34  2  0  0  0  0
 21 22  1  0  0  0  0
 22 23  1  0  0  0  0
 18 21  1  0  0  0  0
 17 23  1  0  0  0  0
 17 18  1  0  0  0  0
  8 11  1  0  0  0  0
 32 35  1  0  0  0  0
 41 42  1  0  0  0  0
  7  8  1  0  0  0  0
 31 32  1  0  0  0  0
 22 27  1  0  0  0  0
 22 28  1  0  0  0  0
 21 25  1  0  0  0  0
 21 26  1  0  0  0  0
 23 29  1  0  0  0  0
 23 30  1  0  0  0  0
 18 24  1  0  0  0  0
  3  4  1  0  0  0  0
  3  5  1  0  0  0  0
  3  6  1  0  0  0  0
 11 14  1  0  0  0  0
 11 15  1  0  0  0  0
 11 16  1  0  0  0  0
 35 38  1  0  0  0  0
 35 39  1  0  0  0  0
 35 40  1  0  0  0  0
 42 44  1  0  0  0  0
 42 45  1  0  0  0  0
 42 46  1  0  0  0  0
  8 13  1  0  0  0  0
 32 37  1  0  0  0  0
 31 36  1  0  0  0  0
 41 43  1  0  0  0  0
  7 12  1  0  0  0  0
M  END
$$$$

  -OEChem-05262214473D

 46 46  0     1  0  0  0  0  0999 V2000
   -0.6012   -3.2995    3.8205 C   0  0  0  0  0  0  0  0  0  0  0  0
   -0.6574   -4.4683    3.4568 O   0  0  0  0  0  0  0  0  0  0  0  0
   -0.4935   -2.9859    5.2760 C   0  0  0  0  0  0  0  0  0  0  0  0
   -1.4789   -2.8689    5.7550 H   0  0  0  0  0  0  0  0  0  0  0  0
    0.0123   -3.7847    5.8419 H   0  0  0  0  0  0  0  0  0  0  0  0
    0.0585   -2.0642    5.5199 H   0  0  0  0  0  0  0  0  0  0  0  0
   -0.6261   -2.1849    2.9917 N   0  0  0  0  0  0  0  0  0  0  0  0
   -0.7237   -2.2601    1.5650 C   0  0  2  0  0  0  0  0  0  0  0  0
    0.1695   -1.1513    1.0687 C   0  0  0  0  0  0  0  0  0  0  0  0
    0.3193   -0.1267    1.7365 O   0  0  0  0  0  0  0  0  0  0  0  0
   -2.1397   -2.0663    1.0750 C   0  0  0  0  0  0  0  0  0  0  0  0
   -0.5717   -1.2606    3.4238 H   0  0  0  0  0  0  0  0  0  0  0  0
   -0.3076   -3.2111    1.2363 H   0  0  0  0  0  0  0  0  0  0  0  0
   -2.5584   -1.1089    1.4061 H   0  0  0  0  0  0  0  0  0  0  0  0
   -2.1682   -2.0790   -0.0197 H   0  0  0  0  0  0  0  0  0  0  0  0
   -2.7965   -2.8601    1.4459 H   0  0  0  0  0  0  0  0  0  0  0  0
    0.7724   -1.3745   -0.1593 N   0  0  0  0  0  0  0  0  0  0  0  0
    0.5614   -2.5964   -0.9244 C   0  0  2  0  0  0  0  0  0  0  0  0
    0.3023   -3.6958    0.0614 C   0  0  0  0  0  0  0  0  0  0  0  0
    0.0917   -4.8331   -0.3434 O   0  0  0  0  0  0  0  0  0  0  0  0
    1.8675   -2.8105   -1.6805 C   0  0  0  0  0  0  0  0  0  0  0  0
    2.3820   -1.3741   -1.7361 C   0  0  0  0  0  0  0  0  0  0  0  0
    1.5408   -0.3981   -0.9273 C   0  0  0  0  0  0  0  0  0  0  0  0
   -0.3071   -2.5022   -1.5833 H   0  0  0  0  0  0  0  0  0  0  0  0
    1.6596   -3.1959   -2.6858 H   0  0  0  0  0  0  0  0  0  0  0  0
    2.5561   -3.4974   -1.1790 H   0  0  0  0  0  0  0  0  0  0  0  0
    3.3887   -1.3127   -1.3070 H   0  0  0  0  0  0  0  0  0  0  0  0
    2.4211   -0.9888   -2.7590 H   0  0  0  0  0  0  0  0  0  0  0  0
    2.1479    0.2776   -0.3187 H   0  0  0  0  0  0  0  0  0  0  0  0
    0.8868    0.1950   -1.5757 H   0  0  0  0  0  0  0  0  0  0  0  0
    0.3309   -3.2766    1.3839 N   0  0  0  0  0  0  0  0  0  0  0  0
   -0.3386   -3.5654    2.6319 C   0  0  2  0  0  0  0  0  0  0  0  0
   -1.3893   -4.6352    2.3654 C   0  0  0  0  0  0  0  0  0  0  0  0
   -1.8670   -4.8436    1.2521 O   0  0  0  0  0  0  0  0  0  0  0  0
   -0.9729   -2.3154    3.2216 C   0  0  0  0  0  0  0  0  0  0  0  0
    1.3370   -3.4055    1.3338 H   0  0  0  0  0  0  0  0  0  0  0  0
    0.4215   -3.9611    3.3143 H   0  0  0  0  0  0  0  0  0  0  0  0
   -1.7372   -1.9044    2.5519 H   0  0  0  0  0  0  0  0  0  0  0  0
   -1.4551   -2.5300    4.1810 H   0  0  0  0  0  0  0  0  0  0  0  0
   -0.2204   -1.5364    3.3848 H   0  0  0  0  0  0  0  0  0  0  0  0
   -1.7622   -5.3006    3.5248 N   0  0  0  0  0  0  0  0  0  0  0  0
   -2.7531   -6.3513    3.5363 C   0  0  0  0  0  0  0  0  0  0  0  0
   -1.3000   -5.0754    4.4009 H   0  0  0  0  0  0  0  0  0  0  0  0
   -3.7426   -5.9205    3.7490 H   0  0  0  0  0  0  0  0  0  0  0  0
   -2.7726   -6.8475    2.5548 H   0  0  0  0  0  0  0  0  0  0  0  0
   -2.4987   -7.0866    4.3139 H   0  0  0  0  0  0  0  0  0  0  0  0
 18 19  1  0  0  0  0
 19 31  1  0  0  0  0
 19 20  2  0  0  0  0
  8  9  1  0  0  0  0
  9 17  1  0  0  0  0
  9 10  2  0  0  0  0
  1  3  1  0  0  0  0
  1  7  1  0  0  0  0
  1  2  2  0  0  0  0
 32 33  1  0  0  0  0
 33 41  1  0  0  0  0
 33 34  2  0  0  0  0
 21 22  1  0  0  0  0
 22 23  1  0  0  0  0
 18 21  1  0  0  0  0
 17 23  1  0  0  0  0
 17 18  1  0  0  0  0
  8 11  1  0  0  0  0
 32 35  1  0  0  0  0
 41 42  1  0  0  0  0
  7  8  1  0  0  0  0
 31 32  1  0  0  0  0
 22 27  1  0  0  0  0
 22 28  1  0  0  0  0
 21 25  1  0  0  0  0
 21 26  1  0  0  0  0
 23 29  1  0  0  0  0
 23 30  1  0  0  0  0
 18 24  1  0  0  0  0
  3  4  1  0  0  0  0
  3  5  1  0  0  0  0
  3  6  1  0  0  0  0
 11 14  1  0  0  0  0
 11 15  1  0  0  0  0
 11 16  1  0  0  0  0
 35 38  1  0  0  0  0
 35 39  1  0  0  0  0
 35 40  1  0  0  0  0
 42 44  1  0  0  0  0
 42 45  1  0  0  0  0
 42 46  1  0  0  0  0
  8 13  1  0  0  0  0
 32 37  1  0  0  0  0
 31 36  1  0  0  0  0
 41 43  1  0  0  0  0
  7 12  1  0  0  0  0
M  END
$$$$

  -OEChem-05262214473D

 46 46  0     1  0  0  0  0  0999 V2000
   -0.6012   -3.2995    3.8205 C   0  0  0  0  0  0  0  0  0  0  0  0
   -0.6574   -4.4683    3.4568 O   0  0  0  0  0  0  0  0  0  0  0  0
   -0.4935   -2.9859    5.2760 C   0  0  0  0  0  0  0  0  0  0  0  0
   -1.4789   -2.8689    5.7550 H   0  0  0  0  0  0  0  0  0  0  0  0
    0.0123   -3.7847    5.8419 H   0  0  0  0  0  0  0  0  0  0  0  0
    0.0585   -2.0642    5.5199 H   0  0  0  0  0  0  0  0  0  0  0  0
   -0.6261   -2.1849    2.9917 N   0  0  0  0  0  0  0  0  0  0  0  0
   -0.7237   -2.2601    1.5650 C   0  0  2  0  0  0  0  0  0  0  0  0
    0.1695   -1.1513    1.0687 C   0  0  0  0  0  0  0  0  0  0  0  0
    0.3193   -0.1267    1.7365 O   0  0  0  0  0  0  0  0  0  0  0  0
   -2.1397   -2.0663    1.0750 C   0  0  0  0  0  0  0  0  0  0  0  0
   -0.5717   -1.2606    3.4238 H   0  0  0  0  0  0  0  0  0  0  0  0
   -0.3076   -3.2111    1.2363 H   0  0  0  0  0  0  0  0  0  0  0  0
   -2.5584   -1.1089    1.4061 H   0  0  0  0  0  0  0  0  0  0  0  0
   -2.1682   -2.0790   -0.0197 H   0  0  0  0  0  0  0  0  0  0  0  0
   -2.7965   -2.8601    1.4459 H   0  0  0  0  0  0  0  0  0  0  0  0
    0.7724   -1.3745   -0.1593 N   0  0  0  0  0  0  0  0  0  0  0  0
    0.5614   -2.5964   -0.9244 C   0  0  2  0  0  0  0  0  0  0  0  0
    0.3023   -3.6958    0.0614 C   0  0  0  0  0  0  0  0  0  0  0  0
    0.3657   -4.8634   -0.3052 O   0  0  0  0  0  0  0  0  0  0  0  0
    1.8675   -2.8105   -1.6805 C   0  0  0  0  0  0  0  0  0  0  0  0
    2.3820   -1.3741   -1.7361 C   0  0  0  0  0  0  0  0  0  0  0  0
    1.5408   -0.3981   -0.9273 C   0  0  0  0  0  0  0  0  0  0  0  0
   -0.3071   -2.5022   -1.5833 H   0  0  0  0  0  0  0  0  0  0  0  0
    1.6596   -3.1959   -2.6858 H   0  0  0  0  0  0  0  0  0  0  0  0
    2.5561   -3.4974   -1.1790 H   0  0  0  0  0  0  0  0  0  0  0  0
    3.3887   -1.3127   -1.3070 H   0  0  0  0  0  0  0  0  0  0  0  0
    2.4211   -0.9888   -2.7590 H   0  0  0  0  0  0  0  0  0  0  0  0
    2.1479    0.2776   -0.3187 H   0  0  0  0  0  0  0  0  0  0  0  0
    0.8868    0.1950   -1.5757 H   0  0  0  0  0  0  0  0  0  0  0  0
    0.0043   -3.2408    1.3380 N   0  0  0  0  0  0  0  0  0  0  0  0
   -0.8368   -3.6065    2.4550 C   0  0  2  0  0  0  0  0  0  0  0  0
   -1.6238   -4.8504    2.0638 C   0  0  0  0  0  0  0  0  0  0  0  0
   -1.8356   -5.1704    0.8960 O   0  0  0  0  0  0  0  0  0  0  0  0
   -1.7718   -2.4702    2.8390 C   0  0  0  0  0  0  0  0  0  0  0  0
    1.0082   -3.1936    1.4838 H   0  0  0  0  0  0  0  0  0  0  0  0
   -0.1684   -3.8441    3.2897 H   0  0  0  0  0  0  0  0  0  0  0  0
   -2.4492   -2.2181    2.0150 H   0  0  0  0  0  0  0  0  0  0  0  0
   -2.3882   -2.7385    3.7033 H   0  0  0  0  0  0  0  0  0  0  0  0
   -1.2050   -1.5675    3.0913 H   0  0  0  0  0  0  0  0  0  0  0  0
   -2.0985   -5.5376    3.1722 N   0  0  0  0  0  0  0  0  0  0  0  0
   -2.8846   -6.7444    3.0634 C   0  0  0  0  0  0  0  0  0  0  0  0
   -1.8587   -5.2105    4.1034 H   0  0  0  0  0  0  0  0  0  0  0  0
   -3.9541   -6.4870    3.0617 H   0  0  0  0  0  0  0  0  0  0  0  0
   -2.6311   -7.2639    2.1276 H   0  0  0  0  0  0  0  0  0  0  0  0
   -2.6672   -7.4017    3.9182 H   0  0  0  0  0  0  0  0  0  0  0  0
 18 19  1  0  0  0  0
 19 31  1  0  0  0  0
 19 20  2  0  0  0  0
  8  9  1  0  0  0  0
  9 17  1  0  0  0  0
  9 10  2  0  0  0  0
  1  3  1  0  0  0  0
  1  7  1  0  0  0  0
  1  2  2  0  0  0  0
 32 33  1  0  0  0  0
 33 41  1  0  0  0  0
 33 34  2  0  0  0  0
 21 22  1  0  0  0  0
 22 23  1  0  0  0  0
 18 21  1  0  0  0  0
 17 23  1  0  0  0  0
 17 18  1  0  0  0  0
  8 11  1  0  0  0  0
 32 35  1  0  0  0  0
 41 42  1  0  0  0  0
  7  8  1  0  0  0  0
 31 32  1  0  0  0  0
 22 27  1  0  0  0  0
 22 28  1  0  0  0  0
 21 25  1  0  0  0  0
 21 26  1  0  0  0  0
 23 29  1  0  0  0  0
 23 30  1  0  0  0  0
 18 24  1  0  0  0  0
  3  4  1  0  0  0  0
  3  5  1  0  0  0  0
  3  6  1  0  0  0  0
 11 14  1  0  0  0  0
 11 15  1  0  0  0  0
 11 16  1  0  0  0  0
 35 38  1  0  0  0  0
 35 39  1  0  0  0  0
 35 40  1  0  0  0  0
 42 44  1  0  0  0  0
 42 45  1  0  0  0  0
 42 46  1  0  0  0  0
  8 13  1  0  0  0  0
 32 37  1  0  0  0  0
 31 36  1  0  0  0  0
 41 43  1  0  0  0  0
  7 12  1  0  0  0  0
M  END
$$$$

  -OEChem-05262214473D

 46 46  0     1  0  0  0  0  0999 V2000
   -0.6012   -3.2995    3.8205 C   0  0  0  0  0  0  0  0  0  0  0  0
   -0.6574   -4.4683    3.4568 O   0  0  0  0  0  0  0  0  0  0  0  0
   -0.4935   -2.9859    5.2760 C   0  0  0  0  0  0  0  0  0  0  0  0
   -1.4789   -2.8689    5.7550 H   0  0  0  0  0  0  0  0  0  0  0  0
    0.0123   -3.7847    5.8419 H   0  0  0  0  0  0  0  0  0  0  0  0
    0.0585   -2.0642    5.5199 H   0  0  0  0  0  0  0  0  0  0  0  0
   -0.6261   -2.1849    2.9917 N   0  0  0  0  0  0  0  0  0  0  0  0
   -0.7237   -2.2601    1.5650 C   0  0  2  0  0  0  0  0  0  0  0  0
    0.1695   -1.1513    1.0687 C   0  0  0  0  0  0  0  0  0  0  0  0
    0.3193   -0.1267    1.7365 O   0  0  0  0  0  0  0  0  0  0  0  0
   -2.1397   -2.0663    1.0750 C   0  0  0  0  0  0  0  0  0  0  0  0
   -0.5717   -1.2606    3.4238 H   0  0  0  0  0  0  0  0  0  0  0  0
   -0.3076   -3.2111    1.2363 H   0  0  0  0  0  0  0  0  0  0  0  0
   -2.5584   -1.1089    1.4061 H   0  0  0  0  0  0  0  0  0  0  0  0
   -2.1682   -2.0790   -0.0197 H   0  0  0  0  0  0  0  0  0  0  0  0
   -2.7965   -2.8601    1.4459 H   0  0  0  0  0  0  0  0  0  0  0  0
    0.7724   -1.3745   -0.1593 N   0  0  0  0  0  0  0  0  0  0  0  0
    0.5614   -2.5964   -0.9244 C   0  0  2  0  0  0  0  0  0  0  0  0
    0.3023   -3.6958    0.0614 C   0  0  0  0  0  0  0  0  0  0  0  0
    0.6283   -4.8443   -0.2149 O   0  0  0  0  0  0  0  0  0  0  0  0
    1.8675   -2.8105   -1.6805 C   0  0  0  0  0  0  0  0  0  0  0  0
    2.3820   -1.3741   -1.7361 C   0  0  0  0  0  0  0  0  0  0  0  0
    1.5408   -0.3981   -0.9273 C   0  0  0  0  0  0  0  0  0  0  0  0
   -0.3071   -2.5022   -1.5833 H   0  0  0  0  0  0  0  0  0  0  0  0
    1.6596   -3.1959   -2.6858 H   0  0  0  0  0  0  0  0  0  0  0  0
    2.5561   -3.4974   -1.1790 H   0  0  0  0  0  0  0  0  0  0  0  0
    3.3887   -1.3127   -1.3070 H   0  0  0  0  0  0  0  0  0  0  0  0
    2.4211   -0.9888   -2.7590 H   0  0  0  0  0  0  0  0  0  0  0  0
    2.1479    0.2776   -0.3187 H   0  0  0  0  0  0  0  0  0  0  0  0
    0.8868    0.1950   -1.5757 H   0  0  0  0  0  0  0  0  0  0  0  0
   -0.3086   -3.2639    1.2300 N   0  0  0  0  0  0  0  0  0  0  0  0
   -1.2775   -3.7390    2.1915 C   0  0  2  0  0  0  0  0  0  0  0  0
   -1.7564   -5.1116    1.7376 C   0  0  0  0  0  0  0  0  0  0  0  0
   -1.6819   -5.4966    0.5725 O   0  0  0  0  0  0  0  0  0  0  0  0
   -2.4444   -2.7729    2.3247 C   0  0  0  0  0  0  0  0  0  0  0  0
    0.6261   -3.0380    1.5568 H   0  0  0  0  0  0  0  0  0  0  0  0
   -0.7535   -3.8325    3.1489 H   0  0  0  0  0  0  0  0  0  0  0  0
   -2.9817   -2.6662    1.3752 H   0  0  0  0  0  0  0  0  0  0  0  0
   -3.1634   -3.1200    3.0741 H   0  0  0  0  0  0  0  0  0  0  0  0
   -2.0950   -1.7784    2.6223 H   0  0  0  0  0  0  0  0  0  0  0  0
   -2.3161   -5.8395    2.7783 N   0  0  0  0  0  0  0  0  0  0  0  0
   -2.8550   -7.1675    2.5993 C   0  0  0  0  0  0  0  0  0  0  0  0
   -2.3188   -5.4494    3.7161 H   0  0  0  0  0  0  0  0  0  0  0  0
   -3.9315   -7.1009    2.3830 H   0  0  0  0  0  0  0  0  0  0  0  0
   -2.3424   -7.6611    1.7605 H   0  0  0  0  0  0  0  0  0  0  0  0
   -2.7013   -7.7524    3.5182 H   0  0  0  0  0  0  0  0  0  0  0  0
 18 19  1  0  0  0  0
 19 31  1  0  0  0  0
 19 20  2  0  0  0  0
  8  9  1  0  0  0  0
  9 17  1  0  0  0  0
  9 10  2  0  0  0  0
  1  3  1  0  0  0  0
  1  7  1  0  0  0  0
  1  2  2  0  0  0  0
 32 33  1  0  0  0  0
 33 41  1  0  0  0  0
 33 34  2  0  0  0  0
 21 22  1  0  0  0  0
 22 23  1  0  0  0  0
 18 21  1  0  0  0  0
 17 23  1  0  0  0  0
 17 18  1  0  0  0  0
  8 11  1  0  0  0  0
 32 35  1  0  0  0  0
 41 42  1  0  0  0  0
  7  8  1  0  0  0  0
 31 32  1  0  0  0  0
 22 27  1  0  0  0  0
 22 28  1  0  0  0  0
 21 25  1  0  0  0  0
 21 26  1  0  0  0  0
 23 29  1  0  0  0  0
 23 30  1  0  0  0  0
 18 24  1  0  0  0  0
  3  4  1  0  0  0  0
  3  5  1  0  0  0  0
  3  6  1  0  0  0  0
 11 14  1  0  0  0  0
 11 15  1  0  0  0  0
 11 16  1  0  0  0  0
 35 38  1  0  0  0  0
 35 39  1  0  0  0  0
 35 40  1  0  0  0  0
 42 44  1  0  0  0  0
 42 45  1  0  0  0  0
 42 46  1  0  0  0  0
  8 13  1  0  0  0  0
 32 37  1  0  0  0  0
 31 36  1  0  0  0  0
 41 43  1  0  0  0  0
  7 12  1  0  0  0  0
M  END
$$$$

  -OEChem-05262214473D

 46 46  0     1  0  0  0  0  0999 V2000
   -0.6012   -3.2995    3.8205 C   0  0  0  0  0  0  0  0  0  0  0  0
   -0.6574   -4.4683    3.4568 O   0  0  0  0  0  0  0  0  0  0  0  0
   -0.4935   -2.9859    5.2760 C   0  0  0  0  0  0  0  0  0  0  0  0
   -1.4789   -2.8689    5.7550 H   0  0  0  0  0  0  0  0  0  0  0  0
    0.0123   -3.7847    5.8419 H   0  0  0  0  0  0  0  0  0  0  0  0
    0.0585   -2.0642    5.5199 H   0  0  0  0  0  0  0  0  0  0  0  0
   -0.6261   -2.1849    2.9917 N   0  0  0  0  0  0  0  0  0  0  0  0
   -0.7237   -2.2601    1.5650 C   0  0  2  0  0  0  0  0  0  0  0  0
    0.1695   -1.1513    1.0687 C   0  0  0  0  0  0  0  0  0  0  0  0
    0.3193   -0.1267    1.7365 O   0  0  0  0  0  0  0  0  0  0  0  0
   -2.1397   -2.0663    1.0750 C   0  0  0  0  0  0  0  0  0  0  0  0
   -0.5717   -1.2606    3.4238 H   0  0  0  0  0  0  0  0  0  0  0  0
   -0.3076   -3.2111    1.2363 H   0  0  0  0  0  0  0  0  0  0  0  0
   -2.5584   -1.1089    1.4061 H   0  0  0  0  0  0  0  0  0  0  0  0
   -2.1682   -2.0790   -0.0197 H   0  0  0  0  0  0  0  0  0  0  0  0
   -2.7965   -2.8601    1.4459 H   0  0  0  0  0  0  0  0  0  0  0  0
    0.7724   -1.3745   -0.1593 N   0  0  0  0  0  0  0  0  0  0  0  0
    0.5614   -2.5964   -0.9244 C   0  0  2  0  0  0  0  0  0  0  0  0
    0.3023   -3.6958    0.0614 C   0  0  0  0  0  0  0  0  0  0  0  0
    0.8615   -4.7771   -0.0787 O   0  0  0  0  0  0  0  0  0  0  0  0
    1.8675   -2.8105   -1.6805 C   0  0  0  0  0  0  0  0  0  0  0  0
    2.3820   -1.3741   -1.7361 C   0  0  0  0  0  0  0  0  0  0  0  0
    1.5408   -0.3981   -0.9273 C   0  0  0  0  0  0  0  0  0  0  0  0
   -0.3071   -2.5022   -1.5833 H   0  0  0  0  0  0  0  0  0  0  0  0
    1.6596   -3.1959   -2.6858 H   0  0  0  0  0  0  0  0  0  0  0  0
    2.5561   -3.4974   -1.1790 H   0  0  0  0  0  0  0  0  0  0  0  0
    3.3887   -1.3127   -1.3070 H   0  0  0  0  0  0  0  0  0  0  0  0
    2.4211   -0.9888   -2.7590 H   0  0  0  0  0  0  0  0  0  0  0  0
    2.1479    0.2776   -0.3187 H   0  0  0  0  0  0  0  0  0  0  0  0
    0.8868    0.1950   -1.5757 H   0  0  0  0  0  0  0  0  0  0  0  0
   -0.5863   -3.3442    1.0674 N   0  0  0  0  0  0  0  0  0  0  0  0
   -1.6307   -3.9537    1.8592 C   0  0  2  0  0  0  0  0  0  0  0  0
   -1.7781   -5.4012    1.4090 C   0  0  0  0  0  0  0  0  0  0  0  0
   -1.4166   -5.8001    0.3039 O   0  0  0  0  0  0  0  0  0  0  0  0
   -2.9450   -3.2027    1.7138 C   0  0  0  0  0  0  0  0  0  0  0  0
    0.2167   -2.9496    1.5479 H   0  0  0  0  0  0  0  0  0  0  0  0
   -1.2938   -3.9273    2.9012 H   0  0  0  0  0  0  0  0  0  0  0  0
   -3.2984   -3.2183    0.6763 H   0  0  0  0  0  0  0  0  0  0  0  0
   -3.7278   -3.6486    2.3362 H   0  0  0  0  0  0  0  0  0  0  0  0
   -2.8297   -2.1544    2.0098 H   0  0  0  0  0  0  0  0  0  0  0  0
   -2.4002   -6.1858    2.3700 N   0  0  0  0  0  0  0  0  0  0  0  0
   -2.6663   -7.5920    2.1755 C   0  0  0  0  0  0  0  0  0  0  0  0
   -2.6491   -5.7758    3.2653 H   0  0  0  0  0  0  0  0  0  0  0  0
   -3.6763   -7.7204    1.7592 H   0  0  0  0  0  0  0  0  0  0  0  0
   -1.9263   -8.0121    1.4784 H   0  0  0  0  0  0  0  0  0  0  0  0
   -2.5986   -8.1148    3.1410 H   0  0  0  0  0  0  0  0  0  0  0  0
 18 19  1  0  0  0  0
 19 31  1  0  0  0  0
 19 20  2  0  0  0  0
  8  9  1  0  0  0  0
  9 17  1  0  0  0  0
  9 10  2  0  0  0  0
  1  3  1  0  0  0  0
  1  7  1  0  0  0  0
  1  2  2  0  0  0  0
 32 33  1  0  0  0  0
 33 41  1  0  0  0  0
 33 34  2  0  0  0  0
 21 22  1  0  0  0  0
 22 23  1  0  0  0  0
 18 21  1  0  0  0  0
 17 23  1  0  0  0  0
 17 18  1  0  0  0  0
  8 11  1  0  0  0  0
 32 35  1  0  0  0  0
 41 42  1  0  0  0  0
  7  8  1  0  0  0  0
 31 32  1  0  0  0  0
 22 27  1  0  0  0  0
 22 28  1  0  0  0  0
 21 25  1  0  0  0  0
 21 26  1  0  0  0  0
 23 29  1  0  0  0  0
 23 30  1  0  0  0  0
 18 24  1  0  0  0  0
  3  4  1  0  0  0  0
  3  5  1  0  0  0  0
  3  6  1  0  0  0  0
 11 14  1  0  0  0  0
 11 15  1  0  0  0  0
 11 16  1  0  0  0  0
 35 38  1  0  0  0  0
 35 39  1  0  0  0  0
 35 40  1  0  0  0  0
 42 44  1  0  0  0  0
 42 45  1  0  0  0  0
 42 46  1  0  0  0  0
  8 13  1  0  0  0  0
 32 37  1  0  0  0  0
 31 36  1  0  0  0  0
 41 43  1  0  0  0  0
  7 12  1  0  0  0  0
M  END
$$$$

  -OEChem-05262214473D

 46 46  0     1  0  0  0  0  0999 V2000
   -0.6012   -3.2995    3.8205 C   0  0  0  0  0  0  0  0  0  0  0  0
   -0.6574   -4.4683    3.4568 O   0  0  0  0  0  0  0  0  0  0  0  0
   -0.4935   -2.9859    5.2760 C   0  0  0  0  0  0  0  0  0  0  0  0
   -1.4789   -2.8689    5.7550 H   0  0  0  0  0  0  0  0  0  0  0  0
    0.0123   -3.7847    5.8419 H   0  0  0  0  0  0  0  0  0  0  0  0
    0.0585   -2.0642    5.5199 H   0  0  0  0  0  0  0  0  0  0  0  0
   -0.6261   -2.1849    2.9917 N   0  0  0  0  0  0  0  0  0  0  0  0
   -0.7237   -2.2601    1.5650 C   0  0  2  0  0  0  0  0  0  0  0  0
    0.1695   -1.1513    1.0687 C   0  0  0  0  0  0  0  0  0  0  0  0
    0.3193   -0.1267    1.7365 O   0  0  0  0  0  0  0  0  0  0  0  0
   -2.1397   -2.0663    1.0750 C   0  0  0  0  0  0  0  0  0  0  0  0
   -0.5717   -1.2606    3.4238 H   0  0  0  0  0  0  0  0  0  0  0  0
   -0.3076   -3.2111    1.2363 H   0  0  0  0  0  0  0  0  0  0  0  0
   -2.5584   -1.1089    1.4061 H   0  0  0  0  0  0  0  0  0  0  0  0
   -2.1682   -2.0790   -0.0197 H   0  0  0  0  0  0  0  0  0  0  0  0
   -2.7965   -2.8601    1.4459 H   0  0  0  0  0  0  0  0  0  0  0  0
    0.7724   -1.3745   -0.1593 N   0  0  0  0  0  0  0  0  0  0  0  0
    0.5614   -2.5964   -0.9244 C   0  0  2  0  0  0  0  0  0  0  0  0
    0.3023   -3.6958    0.0614 C   0  0  0  0  0  0  0  0  0  0  0  0
    1.0495   -4.6665    0.0941 O   0  0  0  0  0  0  0  0  0  0  0  0
    1.8675   -2.8105   -1.6805 C   0  0  0  0  0  0  0  0  0  0  0  0
    2.3820   -1.3741   -1.7361 C   0  0  0  0  0  0  0  0  0  0  0  0
    1.5408   -0.3981   -0.9273 C   0  0  0  0  0  0  0  0  0  0  0  0
   -0.3071   -2.5022   -1.5833 H   0  0  0  0  0  0  0  0  0  0  0  0
    1.6596   -3.1959   -2.6858 H   0  0  0  0  0  0  0  0  0  0  0  0
    2.5561   -3.4974   -1.1790 H   0  0  0  0  0  0  0  0  0  0  0  0
    3.3887   -1.3127   -1.3070 H   0  0  0  0  0  0  0  0  0  0  0  0
    2.4211   -0.9888   -2.7590 H   0  0  0  0  0  0  0  0  0  0  0  0
    2.1479    0.2776   -0.3187 H   0  0  0  0  0  0  0  0  0  0  0  0
    0.8868    0.1950   -1.5757 H   0  0  0  0  0  0  0  0  0  0  0  0
   -0.8101   -3.4764    0.8613 N   0  0  0  0  0  0  0  0  0  0  0  0
   -1.8722   -4.2361    1.4808 C   0  0  2  0  0  0  0  0  0  0  0  0
   -1.6875   -5.6992    1.1004 C   0  0  0  0  0  0  0  0  0  0  0  0
   -1.0577   -6.0600    0.1083 O   0  0  0  0  0  0  0  0  0  0  0  0
   -3.2395   -3.7304    1.0479 C   0  0  0  0  0  0  0  0  0  0  0  0
   -0.1922   -2.9342    1.4576 H   0  0  0  0  0  0  0  0  0  0  0  0
   -1.7526   -4.1218    2.5637 H   0  0  0  0  0  0  0  0  0  0  0  0
   -3.3776   -3.8368   -0.0343 H   0  0  0  0  0  0  0  0  0  0  0  0
   -4.0429   -4.2883    1.5401 H   0  0  0  0  0  0  0  0  0  0  0  0
   -3.3592   -2.6701    1.2955 H   0  0  0  0  0  0  0  0  0  0  0  0
   -2.3449   -6.5529    1.9752 N   0  0  0  0  0  0  0  0  0  0  0  0
   -2.3313   -7.9889    1.8210 C   0  0  0  0  0  0  0  0  0  0  0  0
   -2.8270   -6.1674    2.7818 H   0  0  0  0  0  0  0  0  0  0  0  0
   -3.2060   -8.3033    1.2327 H   0  0  0  0  0  0  0  0  0  0  0  0
   -1.4111   -8.2929    1.3006 H   0  0  0  0  0  0  0  0  0  0  0  0
   -2.3661   -8.4643    2.8123 H   0  0  0  0  0  0  0  0  0  0  0  0
 18 19  1  0  0  0  0
 19 31  1  0  0  0  0
 19 20  2  0  0  0  0
  8  9  1  0  0  0  0
  9 17  1  0  0  0  0
  9 10  2  0  0  0  0
  1  3  1  0  0  0  0
  1  7  1  0  0  0  0
  1  2  2  0  0  0  0
 32 33  1  0  0  0  0
 33 41  1  0  0  0  0
 33 34  2  0  0  0  0
 21 22  1  0  0  0  0
 22 23  1  0  0  0  0
 18 21  1  0  0  0  0
 17 23  1  0  0  0  0
 17 18  1  0  0  0  0
  8 11  1  0  0  0  0
 32 35  1  0  0  0  0
 41 42  1  0  0  0  0
  7  8  1  0  0  0  0
 31 32  1  0  0  0  0
 22 27  1  0  0  0  0
 22 28  1  0  0  0  0
 21 25  1  0  0  0  0
 21 26  1  0  0  0  0
 23 29  1  0  0  0  0
 23 30  1  0  0  0  0
 18 24  1  0  0  0  0
  3  4  1  0  0  0  0
  3  5  1  0  0  0  0
  3  6  1  0  0  0  0
 11 14  1  0  0  0  0
 11 15  1  0  0  0  0
 11 16  1  0  0  0  0
 35 38  1  0  0  0  0
 35 39  1  0  0  0  0
 35 40  1  0  0  0  0
 42 44  1  0  0  0  0
 42 45  1  0  0  0  0
 42 46  1  0  0  0  0
  8 13  1  0  0  0  0
 32 37  1  0  0  0  0
 31 36  1  0  0  0  0
 41 43  1  0  0  0  0
  7 12  1  0  0  0  0
M  END
$$$$

  -OEChem-05262214473D

 46 46  0     1  0  0  0  0  0999 V2000
   -0.6012   -3.2995    3.8205 C   0  0  0  0  0  0  0  0  0  0  0  0
   -0.6574   -4.4683    3.4568 O   0  0  0  0  0  0  0  0  0  0  0  0
   -0.4935   -2.9859    5.2760 C   0  0  0  0  0  0  0  0  0  0  0  0
   -1.4789   -2.8689    5.7550 H   0  0  0  0  0  0  0  0  0  0  0  0
    0.0123   -3.7847    5.8419 H   0  0  0  0  0  0  0  0  0  0  0  0
    0.0585   -2.0642    5.5199 H   0  0  0  0  0  0  0  0  0  0  0  0
   -0.6261   -2.1849    2.9917 N   0  0  0  0  0  0  0  0  0  0  0  0
   -0.7237   -2.2601    1.5650 C   0  0  2  0  0  0  0  0  0  0  0  0
    0.1695   -1.1513    1.0687 C   0  0  0  0  0  0  0  0  0  0  0  0
    0.3193   -0.1267    1.7365 O   0  0  0  0  0  0  0  0  0  0  0  0
   -2.1397   -2.0663    1.0750 C   0  0  0  0  0  0  0  0  0  0  0  0
   -0.5717   -1.2606    3.4238 H   0  0  0  0  0  0  0  0  0  0  0  0
   -0.3076   -3.2111    1.2363 H   0  0  0  0  0  0  0  0  0  0  0  0
   -2.5584   -1.1089    1.4061 H   0  0  0  0  0  0  0  0  0  0  0  0
   -2.1682   -2.0790   -0.0197 H   0  0  0  0  0  0  0  0  0  0  0  0
   -2.7965   -2.8601    1.4459 H   0  0  0  0  0  0  0  0  0  0  0  0
    0.7724   -1.3745   -0.1593 N   0  0  0  0  0  0  0  0  0  0  0  0
    0.5614   -2.5964   -0.9244 C   0  0  2  0  0  0  0  0  0  0  0  0
    0.3023   -3.6958    0.0614 C   0  0  0  0  0  0  0  0  0  0  0  0
    1.1795   -4.5199    0.2917 O   0  0  0  0  0  0  0  0  0  0  0  0
    1.8675   -2.8105   -1.6805 C   0  0  0  0  0  0  0  0  0  0  0  0
    2.3820   -1.3741   -1.7361 C   0  0  0  0  0  0  0  0  0  0  0  0
    1.5408   -0.3981   -0.9273 C   0  0  0  0  0  0  0  0  0  0  0  0
   -0.3071   -2.5022   -1.5833 H   0  0  0  0  0  0  0  0  0  0  0  0
    1.6596   -3.1959   -2.6858 H   0  0  0  0  0  0  0  0  0  0  0  0
    2.5561   -3.4974   -1.1790 H   0  0  0  0  0  0  0  0  0  0  0  0
    3.3887   -1.3127   -1.3070 H   0  0  0  0  0  0  0  0  0  0  0  0
    2.4211   -0.9888   -2.7590 H   0  0  0  0  0  0  0  0  0  0  0  0
    2.1479    0.2776   -0.3187 H   0  0  0  0  0  0  0  0  0  0  0  0
    0.8868    0.1950   -1.5757 H   0  0  0  0  0  0  0  0  0  0  0  0
   -0.9646   -3.6513    0.6255 N   0  0  0  0  0  0  0  0  0  0  0  0
   -1.9856   -4.5669    1.0821 C   0  0  2  0  0  0  0  0  0  0  0  0
   -1.4906   -5.9855    0.8329 C   0  0  0  0  0  0  0  0  0  0  0  0
   -0.6297   -6.2588   -0.0009 O   0  0  0  0  0  0  0  0  0  0  0  0
   -3.3077   -4.3200    0.3724 C   0  0  0  0  0  0  0  0  0  0  0  0
   -0.5725   -2.9930    1.2921 H   0  0  0  0  0  0  0  0  0  0  0  0
   -2.0987   -4.4029    2.1593 H   0  0  0  0  0  0  0  0  0  0  0  0
   -3.2140   -4.4795   -0.7080 H   0  0  0  0  0  0  0  0  0  0  0  0
   -4.0874   -4.9954    0.7398 H   0  0  0  0  0  0  0  0  0  0  0  0
   -3.6473   -3.2903    0.5282 H   0  0  0  0  0  0  0  0  0  0  0  0
   -2.1541   -6.9157    1.6207 N   0  0  0  0  0  0  0  0  0  0  0  0
   -1.8729   -8.3310    1.5598 C   0  0  0  0  0  0  0  0  0  0  0  0
   -2.8405   -6.5975    2.2986 H   0  0  0  0  0  0  0  0  0  0  0  0
   -2.5527   -8.8098    0.8396 H   0  0  0  0  0  0  0  0  0  0  0  0
   -0.8320   -8.4845    1.2392 H   0  0  0  0  0  0  0  0  0  0  0  0
   -2.0197   -8.7770    2.5546 H   0  0  0  0  0  0  0  0  0  0  0  0
 18 19  1  0  0  0  0
 19 31  1  0  0  0  0
 19 20  2  0  0  0  0
  8  9  1  0  0  0  0
  9 17  1  0  0  0  0
  9 10  2  0  0  0  0
  1  3  1  0  0  0  0
  1  7  1  0  0  0  0
  1  2  2  0  0  0  0
 32 33  1  0  0  0  0
 33 41  1  0  0  0  0
 33 34  2  0  0  0  0
 21 22  1  0  0  0  0
 22 23  1  0  0  0  0
 18 21  1  0  0  0  0
 17 23  1  0  0  0  0
 17 18  1  0  0  0  0
  8 11  1  0  0  0  0
 32 35  1  0  0  0  0
 41 42  1  0  0  0  0
  7  8  1  0  0  0  0
 31 32  1  0  0  0  0
 22 27  1  0  0  0  0
 22 28  1  0  0  0  0
 21 25  1  0  0  0  0
 21 26  1  0  0  0  0
 23 29  1  0  0  0  0
 23 30  1  0  0  0  0
 18 24  1  0  0  0  0
  3  4  1  0  0  0  0
  3  5  1  0  0  0  0
  3  6  1  0  0  0  0
 11 14  1  0  0  0  0
 11 15  1  0  0  0  0
 11 16  1  0  0  0  0
 35 38  1  0  0  0  0
 35 39  1  0  0  0  0
 35 40  1  0  0  0  0
 42 44  1  0  0  0  0
 42 45  1  0  0  0  0
 42 46  1  0  0  0  0
  8 13  1  0  0  0  0
 32 37  1  0  0  0  0
 31 36  1  0  0  0  0
 41 43  1  0  0  0  0
  7 12  1  0  0  0  0
M  END
$$$$

  -OEChem-05262214473D

 46 46  0     1  0  0  0  0  0999 V2000
   -0.6012   -3.2995    3.8205 C   0  0  0  0  0  0  0  0  0  0  0  0
   -0.6574   -4.4683    3.4568 O   0  0  0  0  0  0  0  0  0  0  0  0
   -0.4935   -2.9859    5.2760 C   0  0  0  0  0  0  0  0  0  0  0  0
   -1.4789   -2.8689    5.7550 H   0  0  0  0  0  0  0  0  0  0  0  0
    0.0123   -3.7847    5.8419 H   0  0  0  0  0  0  0  0  0  0  0  0
    0.0585   -2.0642    5.5199 H   0  0  0  0  0  0  0  0  0  0  0  0
   -0.6261   -2.1849    2.9917 N   0  0  0  0  0  0  0  0  0  0  0  0
   -0.7237   -2.2601    1.5650 C   0  0  2  0  0  0  0  0  0  0  0  0
    0.1695   -1.1513    1.0687 C   0  0  0  0  0  0  0  0  0  0  0  0
    0.3193   -0.1267    1.7365 O   0  0  0  0  0  0  0  0  0  0  0  0
   -2.1397   -2.0663    1.0750 C   0  0  0  0  0  0  0  0  0  0  0  0
   -0.5717   -1.2606    3.4238 H   0  0  0  0  0  0  0  0  0  0  0  0
   -0.3076   -3.2111    1.2363 H   0  0  0  0  0  0  0  0  0  0  0  0
   -2.5584   -1.1089    1.4061 H   0  0  0  0  0  0  0  0  0  0  0  0
   -2.1682   -2.0790   -0.0197 H   0  0  0  0  0  0  0  0  0  0  0  0
   -2.7965   -2.8601    1.4459 H   0  0  0  0  0  0  0  0  0  0  0  0
    0.7724   -1.3745   -0.1593 N   0  0  0  0  0  0  0  0  0  0  0  0
    0.5614   -2.5964   -0.9244 C   0  0  2  0  0  0  0  0  0  0  0  0
    0.3023   -3.6958    0.0614 C   0  0  0  0  0  0  0  0  0  0  0  0
    1.2426   -4.3473    0.5008 O   0  0  0  0  0  0  0  0  0  0  0  0
    1.8675   -2.8105   -1.6805 C   0  0  0  0  0  0  0  0  0  0  0  0
    2.3820   -1.3741   -1.7361 C   0  0  0  0  0  0  0  0  0  0  0  0
    1.5408   -0.3981   -0.9273 C   0  0  0  0  0  0  0  0  0  0  0  0
   -0.3071   -2.5022   -1.5833 H   0  0  0  0  0  0  0  0  0  0  0  0
    1.6596   -3.1959   -2.6858 H   0  0  0  0  0  0  0  0  0  0  0  0
    2.5561   -3.4974   -1.1790 H   0  0  0  0  0  0  0  0  0  0  0  0
    3.3887   -1.3127   -1.3070 H   0  0  0  0  0  0  0  0  0  0  0  0
    2.4211   -0.9888   -2.7590 H   0  0  0  0  0  0  0  0  0  0  0  0
    2.1479    0.2776   -0.3187 H   0  0  0  0  0  0  0  0  0  0  0  0
    0.8868    0.1950   -1.5757 H   0  0  0  0  0  0  0  0  0  0  0  0
   -1.0394   -3.8571    0.3764 N   0  0  0  0  0  0  0  0  0  0  0  0
   -1.9631   -4.9235    0.6903 C   0  0  2  0  0  0  0  0  0  0  0  0
   -1.2010   -6.2405    0.6247 C   0  0  0  0  0  0  0  0  0  0  0  0
   -0.1617   -6.3828   -0.0162 O   0  0  0  0  0  0  0  0  0  0  0  0
   -3.1451   -4.9313   -0.2666 C   0  0  0  0  0  0  0  0  0  0  0  0
   -0.8985   -3.1219    1.0626 H   0  0  0  0  0  0  0  0  0  0  0  0
   -2.3083   -4.7514    1.7156 H   0  0  0  0  0  0  0  0  0  0  0  0
   -2.8188   -5.1025   -1.2989 H   0  0  0  0  0  0  0  0  0  0  0  0
   -3.8581   -5.7217   -0.0100 H   0  0  0  0  0  0  0  0  0  0  0  0
   -3.6744   -3.9727   -0.2400 H   0  0  0  0  0  0  0  0  0  0  0  0
   -1.8408   -7.2495    1.3308 N   0  0  0  0  0  0  0  0  0  0  0  0
   -1.3224   -8.5952    1.4099 C   0  0  0  0  0  0  0  0  0  0  0  0
   -2.6885   -7.0370    1.8484 H   0  0  0  0  0  0  0  0  0  0  0  0
   -1.7607   -9.2054    0.6065 H   0  0  0  0  0  0  0  0  0  0  0  0
   -0.2283   -8.5736    1.2984 H   0  0  0  0  0  0  0  0  0  0  0  0
   -1.5830   -9.0316    2.3854 H   0  0  0  0  0  0  0  0  0  0  0  0
 18 19  1  0  0  0  0
 19 31  1  0  0  0  0
 19 20  2  0  0  0  0
  8  9  1  0  0  0  0
  9 17  1  0  0  0  0
  9 10  2  0  0  0  0
  1  3  1  0  0  0  0
  1  7  1  0  0  0  0
  1  2  2  0  0  0  0
 32 33  1  0  0  0  0
 33 41  1  0  0  0  0
 33 34  2  0  0  0  0
 21 22  1  0  0  0  0
 22 23  1  0  0  0  0
 18 21  1  0  0  0  0
 17 23  1  0  0  0  0
 17 18  1  0  0  0  0
  8 11  1  0  0  0  0
 32 35  1  0  0  0  0
 41 42  1  0  0  0  0
  7  8  1  0  0  0  0
 31 32  1  0  0  0  0
 22 27  1  0  0  0  0
 22 28  1  0  0  0  0
 21 25  1  0  0  0  0
 21 26  1  0  0  0  0
 23 29  1  0  0  0  0
 23 30  1  0  0  0  0
 18 24  1  0  0  0  0
  3  4  1  0  0  0  0
  3  5  1  0  0  0  0
  3  6  1  0  0  0  0
 11 14  1  0  0  0  0
 11 15  1  0  0  0  0
 11 16  1  0  0  0  0
 35 38  1  0  0  0  0
 35 39  1  0  0  0  0
 35 40  1  0  0  0  0
 42 44  1  0  0  0  0
 42 45  1  0  0  0  0
 42 46  1  0  0  0  0
  8 13  1  0  0  0  0
 32 37  1  0  0  0  0
 31 36  1  0  0  0  0
 41 43  1  0  0  0  0
  7 12  1  0  0  0  0
M  END
$$$$

  -OEChem-05262214473D

 46 46  0     1  0  0  0  0  0999 V2000
   -0.6012   -3.2995    3.8205 C   0  0  0  0  0  0  0  0  0  0  0  0
   -0.6574   -4.4683    3.4568 O   0  0  0  0  0  0  0  0  0  0  0  0
   -0.4935   -2.9859    5.2760 C   0  0  0  0  0  0  0  0  0  0  0  0
   -1.4789   -2.8689    5.7550 H   0  0  0  0  0  0  0  0  0  0  0  0
    0.0123   -3.7847    5.8419 H   0  0  0  0  0  0  0  0  0  0  0  0
    0.0585   -2.0642    5.5199 H   0  0  0  0  0  0  0  0  0  0  0  0
   -0.6261   -2.1849    2.9917 N   0  0  0  0  0  0  0  0  0  0  0  0
   -0.7237   -2.2601    1.5650 C   0  0  2  0  0  0  0  0  0  0  0  0
    0.1695   -1.1513    1.0687 C   0  0  0  0  0  0  0  0  0  0  0  0
    0.3193   -0.1267    1.7365 O   0  0  0  0  0  0  0  0  0  0  0  0
   -2.1397   -2.0663    1.0750 C   0  0  0  0  0  0  0  0  0  0  0  0
   -0.5717   -1.2606    3.4238 H   0  0  0  0  0  0  0  0  0  0  0  0
   -0.3076   -3.2111    1.2363 H   0  0  0  0  0  0  0  0  0  0  0  0
   -2.5584   -1.1089    1.4061 H   0  0  0  0  0  0  0  0  0  0  0  0
   -2.1682   -2.0790   -0.0197 H   0  0  0  0  0  0  0  0  0  0  0  0
   -2.7965   -2.8601    1.4459 H   0  0  0  0  0  0  0  0  0  0  0  0
    0.7724   -1.3745   -0.1593 N   0  0  0  0  0  0  0  0  0  0  0  0
    0.5614   -2.5964   -0.9244 C   0  0  2  0  0  0  0  0  0  0  0  0
    0.3023   -3.6958    0.0614 C   0  0  0  0  0  0  0  0  0  0  0  0
    1.2345   -4.1605    0.7070 O   0  0  0  0  0  0  0  0  0  0  0  0
    1.8675   -2.8105   -1.6805 C   0  0  0  0  0  0  0  0  0  0  0  0
    2.3820   -1.3741   -1.7361 C   0  0  0  0  0  0  0  0  0  0  0  0
    1.5408   -0.3981   -0.9273 C   0  0  0  0  0  0  0  0  0  0  0  0
   -0.3071   -2.5022   -1.5833 H   0  0  0  0  0  0  0  0  0  0  0  0
    1.6596   -3.1959   -2.6858 H   0  0  0  0  0  0  0  0  0  0  0  0
    2.5561   -3.4974   -1.1790 H   0  0  0  0  0  0  0  0  0  0  0  0
    3.3887   -1.3127   -1.3070 H   0  0  0  0  0  0  0  0  0  0  0  0
    2.4211   -0.9888   -2.7590 H   0  0  0  0  0  0  0  0  0  0  0  0
    2.1479    0.2776   -0.3187 H   0  0  0  0  0  0  0  0  0  0  0  0
    0.8868    0.1950   -1.5757 H   0  0  0  0  0  0  0  0  0  0  0  0
   -1.0293   -4.0798    0.1307 N   0  0  0  0  0  0  0  0  0  0  0  0
   -1.8064   -5.2817    0.3320 C   0  0  2  0  0  0  0  0  0  0  0  0
   -0.8383   -6.4468    0.4899 C   0  0  0  0  0  0  0  0  0  0  0  0
    0.3144   -6.4237    0.0634 O   0  0  0  0  0  0  0  0  0  0  0  0
   -2.7627   -5.5227   -0.8257 C   0  0  0  0  0  0  0  0  0  0  0  0
   -1.1479   -3.3122    0.7849 H   0  0  0  0  0  0  0  0  0  0  0  0
   -2.3673   -5.1435    1.2627 H   0  0  0  0  0  0  0  0  0  0  0  0
   -2.2188   -5.6635   -1.7669 H   0  0  0  0  0  0  0  0  0  0  0  0
   -3.3707   -6.4178   -0.6582 H   0  0  0  0  0  0  0  0  0  0  0  0
   -3.4386   -4.6708   -0.9566 H   0  0  0  0  0  0  0  0  0  0  0  0
   -1.4264   -7.5316    1.1251 N   0  0  0  0  0  0  0  0  0  0  0  0
   -0.7172   -8.7634    1.3814 C   0  0  0  0  0  0  0  0  0  0  0  0
   -2.3816   -7.4557    1.4622 H   0  0  0  0  0  0  0  0  0  0  0  0
   -0.8842   -9.4632    0.5493 H   0  0  0  0  0  0  0  0  0  0  0  0
    0.3588   -8.5544    1.4742 H   0  0  0  0  0  0  0  0  0  0  0  0
   -1.0857   -9.2108    2.3163 H   0  0  0  0  0  0  0  0  0  0  0  0
 18 19  1  0  0  0  0
 19 31  1  0  0  0  0
 19 20  2  0  0  0  0
  8  9  1  0  0  0  0
  9 17  1  0  0  0  0
  9 10  2  0  0  0  0
  1  3  1  0  0  0  0
  1  7  1  0  0  0  0
  1  2  2  0  0  0  0
 32 33  1  0  0  0  0
 33 41  1  0  0  0  0
 33 34  2  0  0  0  0
 21 22  1  0  0  0  0
 22 23  1  0  0  0  0
 18 21  1  0  0  0  0
 17 23  1  0  0  0  0
 17 18  1  0  0  0  0
  8 11  1  0  0  0  0
 32 35  1  0  0  0  0
 41 42  1  0  0  0  0
  7  8  1  0  0  0  0
 31 32  1  0  0  0  0
 22 27  1  0  0  0  0
 22 28  1  0  0  0  0
 21 25  1  0  0  0  0
 21 26  1  0  0  0  0
 23 29  1  0  0  0  0
 23 30  1  0  0  0  0
 18 24  1  0  0  0  0
  3  4  1  0  0  0  0
  3  5  1  0  0  0  0
  3  6  1  0  0  0  0
 11 14  1  0  0  0  0
 11 15  1  0  0  0  0
 11 16  1  0  0  0  0
 35 38  1  0  0  0  0
 35 39  1  0  0  0  0
 35 40  1  0  0  0  0
 42 44  1  0  0  0  0
 42 45  1  0  0  0  0
 42 46  1  0  0  0  0
  8 13  1  0  0  0  0
 32 37  1  0  0  0  0
 31 36  1  0  0  0  0
 41 43  1  0  0  0  0
  7 12  1  0  0  0  0
M  END
$$$$

  -OEChem-05262214473D

 46 46  0     1  0  0  0  0  0999 V2000
   -0.6012   -3.2995    3.8205 C   0  0  0  0  0  0  0  0  0  0  0  0
   -0.6574   -4.4683    3.4568 O   0  0  0  0  0  0  0  0  0  0  0  0
   -0.4935   -2.9859    5.2760 C   0  0  0  0  0  0  0  0  0  0  0  0
   -1.4789   -2.8689    5.7550 H   0  0  0  0  0  0  0  0  0  0  0  0
    0.0123   -3.7847    5.8419 H   0  0  0  0  0  0  0  0  0  0  0  0
    0.0585   -2.0642    5.5199 H   0  0  0  0  0  0  0  0  0  0  0  0
   -0.6261   -2.1849    2.9917 N   0  0  0  0  0  0  0  0  0  0  0  0
   -0.7237   -2.2601    1.5650 C   0  0  2  0  0  0  0  0  0  0  0  0
    0.1695   -1.1513    1.0687 C   0  0  0  0  0  0  0  0  0  0  0  0
    0.3193   -0.1267    1.7365 O   0  0  0  0  0  0  0  0  0  0  0  0
   -2.1397   -2.0663    1.0750 C   0  0  0  0  0  0  0  0  0  0  0  0
   -0.5717   -1.2606    3.4238 H   0  0  0  0  0  0  0  0  0  0  0  0
   -0.3076   -3.2111    1.2363 H   0  0  0  0  0  0  0  0  0  0  0  0
   -2.5584   -1.1089    1.4061 H   0  0  0  0  0  0  0  0  0  0  0  0
   -2.1682   -2.0790   -0.0197 H   0  0  0  0  0  0  0  0  0  0  0  0
   -2.7965   -2.8601    1.4459 H   0  0  0  0  0  0  0  0  0  0  0  0
    0.7724   -1.3745   -0.1593 N   0  0  0  0  0  0  0  0  0  0  0  0
    0.5614   -2.5964   -0.9244 C   0  0  2  0  0  0  0  0  0  0  0  0
    0.3023   -3.6958    0.0614 C   0  0  0  0  0  0  0  0  0  0  0  0
    1.1557   -3.9722    0.8962 O   0  0  0  0  0  0  0  0  0  0  0  0
    1.8675   -2.8105   -1.6805 C   0  0  0  0  0  0  0  0  0  0  0  0
    2.3820   -1.3741   -1.7361 C   0  0  0  0  0  0  0  0  0  0  0  0
    1.5408   -0.3981   -0.9273 C   0  0  0  0  0  0  0  0  0  0  0  0
   -0.3071   -2.5022   -1.5833 H   0  0  0  0  0  0  0  0  0  0  0  0
    1.6596   -3.1959   -2.6858 H   0  0  0  0  0  0  0  0  0  0  0  0
    2.5561   -3.4974   -1.1790 H   0  0  0  0  0  0  0  0  0  0  0  0
    3.3887   -1.3127   -1.3070 H   0  0  0  0  0  0  0  0  0  0  0  0
    2.4211   -0.9888   -2.7590 H   0  0  0  0  0  0  0  0  0  0  0  0
    2.1479    0.2776   -0.3187 H   0  0  0  0  0  0  0  0  0  0  0  0
    0.8868    0.1950   -1.5757 H   0  0  0  0  0  0  0  0  0  0  0  0
   -0.9350   -4.3042   -0.0947 N   0  0  0  0  0  0  0  0  0  0  0  0
   -1.5260   -5.6171    0.0317 C   0  0  2  0  0  0  0  0  0  0  0  0
   -0.4272   -6.5903    0.4378 C   0  0  0  0  0  0  0  0  0  0  0  0
    0.7661   -6.3785    0.2324 O   0  0  0  0  0  0  0  0  0  0  0  0
   -2.1865   -6.0539   -1.2666 C   0  0  0  0  0  0  0  0  0  0  0  0
   -1.3037   -3.5508    0.4778 H   0  0  0  0  0  0  0  0  0  0  0  0
   -2.2716   -5.5525    0.8317 H   0  0  0  0  0  0  0  0  0  0  0  0
   -1.4550   -6.1242   -2.0799 H   0  0  0  0  0  0  0  0  0  0  0  0
   -2.6584   -7.0363   -1.1607 H   0  0  0  0  0  0  0  0  0  0  0  0
   -2.9561   -5.3371   -1.5728 H   0  0  0  0  0  0  0  0  0  0  0  0
   -0.9390   -7.7427    1.0177 N   0  0  0  0  0  0  0  0  0  0  0  0
   -0.0986   -8.8241    1.4762 C   0  0  0  0  0  0  0  0  0  0  0  0
   -1.9405   -7.8252    1.1660 H   0  0  0  0  0  0  0  0  0  0  0  0
    0.0171   -9.5656    0.6720 H   0  0  0  0  0  0  0  0  0  0  0  0
    0.8892   -8.4280    1.7545 H   0  0  0  0  0  0  0  0  0  0  0  0
   -0.5618   -9.3024    2.3519 H   0  0  0  0  0  0  0  0  0  0  0  0
 18 19  1  0  0  0  0
 19 31  1  0  0  0  0
 19 20  2  0  0  0  0
  8  9  1  0  0  0  0
  9 17  1  0  0  0  0
  9 10  2  0  0  0  0
  1  3  1  0  0  0  0
  1  7  1  0  0  0  0
  1  2  2  0  0  0  0
 32 33  1  0  0  0  0
 33 41  1  0  0  0  0
 33 34  2  0  0  0  0
 21 22  1  0  0  0  0
 22 23  1  0  0  0  0
 18 21  1  0  0  0  0
 17 23  1  0  0  0  0
 17 18  1  0  0  0  0
  8 11  1  0  0  0  0
 32 35  1  0  0  0  0
 41 42  1  0  0  0  0
  7  8  1  0  0  0  0
 31 32  1  0  0  0  0
 22 27  1  0  0  0  0
 22 28  1  0  0  0  0
 21 25  1  0  0  0  0
 21 26  1  0  0  0  0
 23 29  1  0  0  0  0
 23 30  1  0  0  0  0
 18 24  1  0  0  0  0
  3  4  1  0  0  0  0
  3  5  1  0  0  0  0
  3  6  1  0  0  0  0
 11 14  1  0  0  0  0
 11 15  1  0  0  0  0
 11 16  1  0  0  0  0
 35 38  1  0  0  0  0
 35 39  1  0  0  0  0
 35 40  1  0  0  0  0
 42 44  1  0  0  0  0
 42 45  1  0  0  0  0
 42 46  1  0  0  0  0
  8 13  1  0  0  0  0
 32 37  1  0  0  0  0
 31 36  1  0  0  0  0
 41 43  1  0  0  0  0
  7 12  1  0  0  0  0
M  END
$$$$

  -OEChem-05262214473D

 46 46  0     1  0  0  0  0  0999 V2000
   -0.6012   -3.2995    3.8205 C   0  0  0  0  0  0  0  0  0  0  0  0
   -0.6574   -4.4683    3.4568 O   0  0  0  0  0  0  0  0  0  0  0  0
   -0.4935   -2.9859    5.2760 C   0  0  0  0  0  0  0  0  0  0  0  0
   -1.4789   -2.8689    5.7550 H   0  0  0  0  0  0  0  0  0  0  0  0
    0.0123   -3.7847    5.8419 H   0  0  0  0  0  0  0  0  0  0  0  0
    0.0585   -2.0642    5.5199 H   0  0  0  0  0  0  0  0  0  0  0  0
   -0.6261   -2.1849    2.9917 N   0  0  0  0  0  0  0  0  0  0  0  0
   -0.7237   -2.2601    1.5650 C   0  0  2  0  0  0  0  0  0  0  0  0
    0.1695   -1.1513    1.0687 C   0  0  0  0  0  0  0  0  0  0  0  0
    0.3193   -0.1267    1.7365 O   0  0  0  0  0  0  0  0  0  0  0  0
   -2.1397   -2.0663    1.0750 C   0  0  0  0  0  0  0  0  0  0  0  0
   -0.5717   -1.2606    3.4238 H   0  0  0  0  0  0  0  0  0  0  0  0
   -0.3076   -3.2111    1.2363 H   0  0  0  0  0  0  0  0  0  0  0  0
   -2.5584   -1.1089    1.4061 H   0  0  0  0  0  0  0  0  0  0  0  0
   -2.1682   -2.0790   -0.0197 H   0  0  0  0  0  0  0  0  0  0  0  0
   -2.7965   -2.8601    1.4459 H   0  0  0  0  0  0  0  0  0  0  0  0
    0.7724   -1.3745   -0.1593 N   0  0  0  0  0  0  0  0  0  0  0  0
    0.5614   -2.5964   -0.9244 C   0  0  2  0  0  0  0  0  0  0  0  0
    0.3023   -3.6958    0.0614 C   0  0  0  0  0  0  0  0  0  0  0  0
    1.0117   -3.7953    1.0556 O   0  0  0  0  0  0  0  0  0  0  0  0
    1.8675   -2.8105   -1.6805 C   0  0  0  0  0  0  0  0  0  0  0  0
    2.3820   -1.3741   -1.7361 C   0  0  0  0  0  0  0  0  0  0  0  0
    1.5408   -0.3981   -0.9273 C   0  0  0  0  0  0  0  0  0  0  0  0
   -0.3071   -2.5022   -1.5833 H   0  0  0  0  0  0  0  0  0  0  0  0
    1.6596   -3.1959   -2.6858 H   0  0  0  0  0  0  0  0  0  0  0  0
    2.5561   -3.4974   -1.1790 H   0  0  0  0  0  0  0  0  0  0  0  0
    3.3887   -1.3127   -1.3070 H   0  0  0  0  0  0  0  0  0  0  0  0
    2.4211   -0.9888   -2.7590 H   0  0  0  0  0  0  0  0  0  0  0  0
    2.1479    0.2776   -0.3187 H   0  0  0  0  0  0  0  0  0  0  0  0
    0.8868    0.1950   -1.5757 H   0  0  0  0  0  0  0  0  0  0  0  0
   -0.7629   -4.5149   -0.2846 N   0  0  0  0  0  0  0  0  0  0  0  0
   -1.1411   -5.9067   -0.1902 C   0  0  2  0  0  0  0  0  0  0  0  0
    0.0041   -6.6614    0.4719 C   0  0  0  0  0  0  0  0  0  0  0  0
    1.1626   -6.2505    0.4794 O   0  0  0  0  0  0  0  0  0  0  0  0
   -1.4559   -6.4887   -1.5594 C   0  0  0  0  0  0  0  0  0  0  0  0
   -1.3553   -3.8216    0.1623 H   0  0  0  0  0  0  0  0  0  0  0  0
   -2.0277   -5.9507    0.4518 H   0  0  0  0  0  0  0  0  0  0  0  0
   -0.5794   -6.4532   -2.2167 H   0  0  0  0  0  0  0  0  0  0  0  0
   -1.7698   -7.5349   -1.4833 H   0  0  0  0  0  0  0  0  0  0  0  0
   -2.2596   -5.9261   -2.0466 H   0  0  0  0  0  0  0  0  0  0  0  0
   -0.4119   -7.8685    1.0159 N   0  0  0  0  0  0  0  0  0  0  0  0
    0.4913   -8.7733    1.6880 C   0  0  0  0  0  0  0  0  0  0  0  0
   -1.3953   -8.1202    0.9802 H   0  0  0  0  0  0  0  0  0  0  0  0
    0.8819   -9.5057    0.9662 H   0  0  0  0  0  0  0  0  0  0  0  0
    1.3268   -8.2032    2.1203 H   0  0  0  0  0  0  0  0  0  0  0  0
   -0.0468   -9.3000    2.4898 H   0  0  0  0  0  0  0  0  0  0  0  0
 18 19  1  0  0  0  0
 19 31  1  0  0  0  0
 19 20  2  0  0  0  0
  8  9  1  0  0  0  0
  9 17  1  0  0  0  0
  9 10  2  0  0  0  0
  1  3  1  0  0  0  0
  1  7  1  0  0  0  0
  1  2  2  0  0  0  0
 32 33  1  0  0  0  0
 33 41  1  0  0  0  0
 33 34  2  0  0  0  0
 21 22  1  0  0  0  0
 22 23  1  0  0  0  0
 18 21  1  0  0  0  0
 17 23  1  0  0  0  0
 17 18  1  0  0  0  0
  8 11  1  0  0  0  0
 32 35  1  0  0  0  0
 41 42  1  0  0  0  0
  7  8  1  0  0  0  0
 31 32  1  0  0  0  0
 22 27  1  0  0  0  0
 22 28  1  0  0  0  0
 21 25  1  0  0  0  0
 21 26  1  0  0  0  0
 23 29  1  0  0  0  0
 23 30  1  0  0  0  0
 18 24  1  0  0  0  0
  3  4  1  0  0  0  0
  3  5  1  0  0  0  0
  3  6  1  0  0  0  0
 11 14  1  0  0  0  0
 11 15  1  0  0  0  0
 11 16  1  0  0  0  0
 35 38  1  0  0  0  0
 35 39  1  0  0  0  0
 35 40  1  0  0  0  0
 42 44  1  0  0  0  0
 42 45  1  0  0  0  0
 42 46  1  0  0  0  0
  8 13  1  0  0  0  0
 32 37  1  0  0  0  0
 31 36  1  0  0  0  0
 41 43  1  0  0  0  0
  7 12  1  0  0  0  0
M  END
$$$$

  -OEChem-05262214473D

 46 46  0     1  0  0  0  0  0999 V2000
   -0.6012   -3.2995    3.8205 C   0  0  0  0  0  0  0  0  0  0  0  0
   -0.6574   -4.4683    3.4568 O   0  0  0  0  0  0  0  0  0  0  0  0
   -0.4935   -2.9859    5.2760 C   0  0  0  0  0  0  0  0  0  0  0  0
   -1.4789   -2.8689    5.7550 H   0  0  0  0  0  0  0  0  0  0  0  0
    0.0123   -3.7847    5.8419 H   0  0  0  0  0  0  0  0  0  0  0  0
    0.0585   -2.0642    5.5199 H   0  0  0  0  0  0  0  0  0  0  0  0
   -0.6261   -2.1849    2.9917 N   0  0  0  0  0  0  0  0  0  0  0  0
   -0.7237   -2.2601    1.5650 C   0  0  2  0  0  0  0  0  0  0  0  0
    0.1695   -1.1513    1.0687 C   0  0  0  0  0  0  0  0  0  0  0  0
    0.3193   -0.1267    1.7365 O   0  0  0  0  0  0  0  0  0  0  0  0
   -2.1397   -2.0663    1.0750 C   0  0  0  0  0  0  0  0  0  0  0  0
   -0.5717   -1.2606    3.4238 H   0  0  0  0  0  0  0  0  0  0  0  0
   -0.3076   -3.2111    1.2363 H   0  0  0  0  0  0  0  0  0  0  0  0
   -2.5584   -1.1089    1.4061 H   0  0  0  0  0  0  0  0  0  0  0  0
   -2.1682   -2.0790   -0.0197 H   0  0  0  0  0  0  0  0  0  0  0  0
   -2.7965   -2.8601    1.4459 H   0  0  0  0  0  0  0  0  0  0  0  0
    0.7724   -1.3745   -0.1593 N   0  0  0  0  0  0  0  0  0  0  0  0
    0.5614   -2.5964   -0.9244 C   0  0  2  0  0  0  0  0  0  0  0  0
    0.3023   -3.6958    0.0614 C   0  0  0  0  0  0  0  0  0  0  0  0
    0.8122   -3.6418    1.1744 O   0  0  0  0  0  0  0  0  0  0  0  0
    1.8675   -2.8105   -1.6805 C   0  0  0  0  0  0  0  0  0  0  0  0
    2.3820   -1.3741   -1.7361 C   0  0  0  0  0  0  0  0  0  0  0  0
    1.5408   -0.3981   -0.9273 C   0  0  0  0  0  0  0  0  0  0  0  0
   -0.3071   -2.5022   -1.5833 H   0  0  0  0  0  0  0  0  0  0  0  0
    1.6596   -3.1959   -2.6858 H   0  0  0  0  0  0  0  0  0  0  0  0
    2.5561   -3.4974   -1.1790 H   0  0  0  0  0  0  0  0  0  0  0  0
    3.3887   -1.3127   -1.3070 H   0  0  0  0  0  0  0  0  0  0  0  0
    2.4211   -0.9888   -2.7590 H   0  0  0  0  0  0  0  0  0  0  0  0
    2.1479    0.2776   -0.3187 H   0  0  0  0  0  0  0  0  0  0  0  0
    0.8868    0.1950   -1.5757 H   0  0  0  0  0  0  0  0  0  0  0  0
   -0.5248   -4.6977   -0.4258 N   0  0  0  0  0  0  0  0  0  0  0  0
   -0.6780   -6.1309   -0.3184 C   0  0  2  0  0  0  0  0  0  0  0  0
    0.4264   -6.6551    0.5899 C   0  0  0  0  0  0  0  0  0  0  0  0
    1.4770   -6.0483    0.7875 O   0  0  0  0  0  0  0  0  0  0  0  0
   -0.6206   -6.7973   -1.6842 C   0  0  0  0  0  0  0  0  0  0  0  0
   -1.2992   -4.1060   -0.1402 H   0  0  0  0  0  0  0  0  0  0  0  0
   -1.6523   -6.3107    0.1490 H   0  0  0  0  0  0  0  0  0  0  0  0
    0.3483   -6.6281   -2.1680 H   0  0  0  0  0  0  0  0  0  0  0  0
   -0.7653   -7.8798   -1.6039 H   0  0  0  0  0  0  0  0  0  0  0  0
   -1.3967   -6.3977   -2.3458 H   0  0  0  0  0  0  0  0  0  0  0  0
    0.1190   -7.9004    1.1199 N   0  0  0  0  0  0  0  0  0  0  0  0
    1.0123   -8.6143    2.0022 C   0  0  0  0  0  0  0  0  0  0  0  0
   -0.7833   -8.3208    0.9174 H   0  0  0  0  0  0  0  0  0  0  0  0
    1.6512   -9.2874    1.4118 H   0  0  0  0  0  0  0  0  0  0  0  0
    1.6419   -7.8951    2.5466 H   0  0  0  0  0  0  0  0  0  0  0  0
    0.4240   -9.2040    2.7207 H   0  0  0  0  0  0  0  0  0  0  0  0
 18 19  1  0  0  0  0
 19 31  1  0  0  0  0
 19 20  2  0  0  0  0
  8  9  1  0  0  0  0
  9 17  1  0  0  0  0
  9 10  2  0  0  0  0
  1  3  1  0  0  0  0
  1  7  1  0  0  0  0
  1  2  2  0  0  0  0
 32 33  1  0  0  0  0
 33 41  1  0  0  0  0
 33 34  2  0  0  0  0
 21 22  1  0  0  0  0
 22 23  1  0  0  0  0
 18 21  1  0  0  0  0
 17 23  1  0  0  0  0
 17 18  1  0  0  0  0
  8 11  1  0  0  0  0
 32 35  1  0  0  0  0
 41 42  1  0  0  0  0
  7  8  1  0  0  0  0
 31 32  1  0  0  0  0
 22 27  1  0  0  0  0
 22 28  1  0  0  0  0
 21 25  1  0  0  0  0
 21 26  1  0  0  0  0
 23 29  1  0  0  0  0
 23 30  1  0  0  0  0
 18 24  1  0  0  0  0
  3  4  1  0  0  0  0
  3  5  1  0  0  0  0
  3  6  1  0  0  0  0
 11 14  1  0  0  0  0
 11 15  1  0  0  0  0
 11 16  1  0  0  0  0
 35 38  1  0  0  0  0
 35 39  1  0  0  0  0
 35 40  1  0  0  0  0
 42 44  1  0  0  0  0
 42 45  1  0  0  0  0
 42 46  1  0  0  0  0
  8 13  1  0  0  0  0
 32 37  1  0  0  0  0
 31 36  1  0  0  0  0
 41 43  1  0  0  0  0
  7 12  1  0  0  0  0
M  END
$$$$

  -OEChem-05262214473D

 46 46  0     1  0  0  0  0  0999 V2000
   -0.6012   -3.2995    3.8205 C   0  0  0  0  0  0  0  0  0  0  0  0
   -0.6574   -4.4683    3.4568 O   0  0  0  0  0  0  0  0  0  0  0  0
   -0.4935   -2.9859    5.2760 C   0  0  0  0  0  0  0  0  0  0  0  0
   -1.4789   -2.8689    5.7550 H   0  0  0  0  0  0  0  0  0  0  0  0
    0.0123   -3.7847    5.8419 H   0  0  0  0  0  0  0  0  0  0  0  0
    0.0585   -2.0642    5.5199 H   0  0  0  0  0  0  0  0  0  0  0  0
   -0.6261   -2.1849    2.9917 N   0  0  0  0  0  0  0  0  0  0  0  0
   -0.7237   -2.2601    1.5650 C   0  0  2  0  0  0  0  0  0  0  0  0
    0.1695   -1.1513    1.0687 C   0  0  0  0  0  0  0  0  0  0  0  0
    0.3193   -0.1267    1.7365 O   0  0  0  0  0  0  0  0  0  0  0  0
   -2.1397   -2.0663    1.0750 C   0  0  0  0  0  0  0  0  0  0  0  0
   -0.5717   -1.2606    3.4238 H   0  0  0  0  0  0  0  0  0  0  0  0
   -0.3076   -3.2111    1.2363 H   0  0  0  0  0  0  0  0  0  0  0  0
   -2.5584   -1.1089    1.4061 H   0  0  0  0  0  0  0  0  0  0  0  0
   -2.1682   -2.0790   -0.0197 H   0  0  0  0  0  0  0  0  0  0  0  0
   -2.7965   -2.8601    1.4459 H   0  0  0  0  0  0  0  0  0  0  0  0
    0.7724   -1.3745   -0.1593 N   0  0  0  0  0  0  0  0  0  0  0  0
    0.5614   -2.5964   -0.9244 C   0  0  2  0  0  0  0  0  0  0  0  0
    0.3023   -3.6958    0.0614 C   0  0  0  0  0  0  0  0  0  0  0  0
    0.5709   -3.5222    1.2444 O   0  0  0  0  0  0  0  0  0  0  0  0
    1.8675   -2.8105   -1.6805 C   0  0  0  0  0  0  0  0  0  0  0  0
    2.3820   -1.3741   -1.7361 C   0  0  0  0  0  0  0  0  0  0  0  0
    1.5408   -0.3981   -0.9273 C   0  0  0  0  0  0  0  0  0  0  0  0
   -0.3071   -2.5022   -1.5833 H   0  0  0  0  0  0  0  0  0  0  0  0
    1.6596   -3.1959   -2.6858 H   0  0  0  0  0  0  0  0  0  0  0  0
    2.5561   -3.4974   -1.1790 H   0  0  0  0  0  0  0  0  0  0  0  0
    3.3887   -1.3127   -1.3070 H   0  0  0  0  0  0  0  0  0  0  0  0
    2.4211   -0.9888   -2.7590 H   0  0  0  0  0  0  0  0  0  0  0  0
    2.1479    0.2776   -0.3187 H   0  0  0  0  0  0  0  0  0  0  0  0
    0.8868    0.1950   -1.5757 H   0  0  0  0  0  0  0  0  0  0  0  0
   -0.2369   -4.8400   -0.5089 N   0  0  0  0  0  0  0  0  0  0  0  0
   -0.1681   -6.2743   -0.3444 C   0  0  2  0  0  0  0  0  0  0  0  0
    0.8108   -6.5719    0.7837 C   0  0  0  0  0  0  0  0  0  0  0  0
    1.6877   -5.7857    1.1357 O   0  0  0  0  0  0  0  0  0  0  0  0
    0.2624   -6.9589   -1.6323 C   0  0  0  0  0  0  0  0  0  0  0  0
   -1.1392   -4.3847   -0.4090 H   0  0  0  0  0  0  0  0  0  0  0  0
   -1.1709   -6.6081   -0.0562 H   0  0  0  0  0  0  0  0  0  0  0  0
    1.2649   -6.6370   -1.9370 H   0  0  0  0  0  0  0  0  0  0  0  0
    0.2865   -8.0473   -1.5143 H   0  0  0  0  0  0  0  0  0  0  0  0
   -0.4262   -6.7197   -2.4499 H   0  0  0  0  0  0  0  0  0  0  0  0
    0.6175   -7.8363    1.3225 N   0  0  0  0  0  0  0  0  0  0  0  0
    1.4287   -8.3580    2.3975 C   0  0  0  0  0  0  0  0  0  0  0  0
   -0.1460   -8.4132    0.9819 H   0  0  0  0  0  0  0  0  0  0  0  0
    2.2726   -8.9257    1.9784 H   0  0  0  0  0  0  0  0  0  0  0  0
    1.8128   -7.5249    3.0044 H   0  0  0  0  0  0  0  0  0  0  0  0
    0.8186   -9.0207    3.0287 H   0  0  0  0  0  0  0  0  0  0  0  0
 18 19  1  0  0  0  0
 19 31  1  0  0  0  0
 19 20  2  0  0  0  0
  8  9  1  0  0  0  0
  9 17  1  0  0  0  0
  9 10  2  0  0  0  0
  1  3  1  0  0  0  0
  1  7  1  0  0  0  0
  1  2  2  0  0  0  0
 32 33  1  0  0  0  0
 33 41  1  0  0  0  0
 33 34  2  0  0  0  0
 21 22  1  0  0  0  0
 22 23  1  0  0  0  0
 18 21  1  0  0  0  0
 17 23  1  0  0  0  0
 17 18  1  0  0  0  0
  8 11  1  0  0  0  0
 32 35  1  0  0  0  0
 41 42  1  0  0  0  0
  7  8  1  0  0  0  0
 31 32  1  0  0  0  0
 22 27  1  0  0  0  0
 22 28  1  0  0  0  0
 21 25  1  0  0  0  0
 21 26  1  0  0  0  0
 23 29  1  0  0  0  0
 23 30  1  0  0  0  0
 18 24  1  0  0  0  0
  3  4  1  0  0  0  0
  3  5  1  0  0  0  0
  3  6  1  0  0  0  0
 11 14  1  0  0  0  0
 11 15  1  0  0  0  0
 11 16  1  0  0  0  0
 35 38  1  0  0  0  0
 35 39  1  0  0  0  0
 35 40  1  0  0  0  0
 42 44  1  0  0  0  0
 42 45  1  0  0  0  0
 42 46  1  0  0  0  0
  8 13  1  0  0  0  0
 32 37  1  0  0  0  0
 31 36  1  0  0  0  0
 41 43  1  0  0  0  0
  7 12  1  0  0  0  0
M  END
$$$$

  -OEChem-05262214473D

 46 46  0     1  0  0  0  0  0999 V2000
   -0.6012   -3.2995    3.8205 C   0  0  0  0  0  0  0  0  0  0  0  0
   -0.6574   -4.4683    3.4568 O   0  0  0  0  0  0  0  0  0  0  0  0
   -0.4935   -2.9859    5.2760 C   0  0  0  0  0  0  0  0  0  0  0  0
   -1.4789   -2.8689    5.7550 H   0  0  0  0  0  0  0  0  0  0  0  0
    0.0123   -3.7847    5.8419 H   0  0  0  0  0  0  0  0  0  0  0  0
    0.0585   -2.0642    5.5199 H   0  0  0  0  0  0  0  0  0  0  0  0
   -0.6261   -2.1849    2.9917 N   0  0  0  0  0  0  0  0  0  0  0  0
   -0.7237   -2.2601    1.5650 C   0  0  2  0  0  0  0  0  0  0  0  0
    0.1695   -1.1513    1.0687 C   0  0  0  0  0  0  0  0  0  0  0  0
    0.3193   -0.1267    1.7365 O   0  0  0  0  0  0  0  0  0  0  0  0
   -2.1397   -2.0663    1.0750 C   0  0  0  0  0  0  0  0  0  0  0  0
   -0.5717   -1.2606    3.4238 H   0  0  0  0  0  0  0  0  0  0  0  0
   -0.3076   -3.2111    1.2363 H   0  0  0  0  0  0  0  0  0  0  0  0
   -2.5584   -1.1089    1.4061 H   0  0  0  0  0  0  0  0  0  0  0  0
   -2.1682   -2.0790   -0.0197 H   0  0  0  0  0  0  0  0  0  0  0  0
   -2.7965   -2.8601    1.4459 H   0  0  0  0  0  0  0  0  0  0  0  0
    0.7724   -1.3745   -0.1593 N   0  0  0  0  0  0  0  0  0  0  0  0
    0.5614   -2.5964   -0.9244 C   0  0  2  0  0  0  0  0  0  0  0  0
   -0.0544   -3.5988    0.0049 C   0  0  0  0  0  0  0  0  0  0  0  0
   -0.2748   -3.2874    1.1694 O   0  0  0  0  0  0  0  0  0  0  0  0
    1.9561   -3.0201   -1.3701 C   0  0  0  0  0  0  0  0  0  0  0  0
    2.4412   -1.5761   -1.2677 C   0  0  0  0  0  0  0  0  0  0  0  0
    1.5408   -0.3981   -0.9273 C   0  0  0  0  0  0  0  0  0  0  0  0
   -0.1236   -2.4233   -1.7599 H   0  0  0  0  0  0  0  0  0  0  0  0
    1.9168   -3.4270   -2.3876 H   0  0  0  0  0  0  0  0  0  0  0  0
    2.4180   -3.7645   -0.7143 H   0  0  0  0  0  0  0  0  0  0  0  0
    3.1835   -1.4790   -0.4671 H   0  0  0  0  0  0  0  0  0  0  0  0
    2.8940   -1.2255   -2.1995 H   0  0  0  0  0  0  0  0  0  0  0  0
    2.0756    0.4073   -0.4167 H   0  0  0  0  0  0  0  0  0  0  0  0
    1.0584    0.0055   -1.8242 H   0  0  0  0  0  0  0  0  0  0  0  0
   -0.3257   -4.8116   -0.5370 N   0  0  0  0  0  0  0  0  0  0  0  0
   -0.3204   -6.2523   -0.4215 C   0  0  2  0  0  0  0  0  0  0  0  0
    0.7001   -6.6351    0.6422 C   0  0  0  0  0  0  0  0  0  0  0  0
    1.6326   -5.9047    0.9708 O   0  0  0  0  0  0  0  0  0  0  0  0
    0.0071   -6.9127   -1.7517 C   0  0  0  0  0  0  0  0  0  0  0  0
   -1.1975   -4.3167   -0.3742 H   0  0  0  0  0  0  0  0  0  0  0  0
   -1.3222   -6.5467   -0.0902 H   0  0  0  0  0  0  0  0  0  0  0  0
    1.0072   -6.6296   -2.0997 H   0  0  0  0  0  0  0  0  0  0  0  0
   -0.0173   -8.0044   -1.6693 H   0  0  0  0  0  0  0  0  0  0  0  0
   -0.7105   -6.6128   -2.5229 H   0  0  0  0  0  0  0  0  0  0  0  0
    0.4721   -7.9062    1.1507 N   0  0  0  0  0  0  0  0  0  0  0  0
    1.3113   -8.5029    2.1634 C   0  0  0  0  0  0  0  0  0  0  0  0
   -0.3362   -8.4335    0.8339 H   0  0  0  0  0  0  0  0  0  0  0  0
    2.1025   -9.0962    1.6818 H   0  0  0  0  0  0  0  0  0  0  0  0
    1.7680   -7.7105    2.7745 H   0  0  0  0  0  0  0  0  0  0  0  0
    0.7026   -9.1563    2.8056 H   0  0  0  0  0  0  0  0  0  0  0  0
 18 19  1  0  0  0  0
 19 31  1  0  0  0  0
 19 20  2  0  0  0  0
  8  9  1  0  0  0  0
  9 17  1  0  0  0  0
  9 10  2  0  0  0  0
  1  3  1  0  0  0  0
  1  7  1  0  0  0  0
  1  2  2  0  0  0  0
 32 33  1  0  0  0  0
 33 41  1  0  0  0  0
 33 34  2  0  0  0  0
 21 22  1  0  0  0  0
 22 23  1  0  0  0  0
 18 21  1  0  0  0  0
 17 23  1  0  0  0  0
 17 18  1  0  0  0  0
  8 11  1  0  0  0  0
 32 35  1  0  0  0  0
 41 42  1  0  0  0  0
  7  8  1  0  0  0  0
 31 32  1  0  0  0  0
 22 27  1  0  0  0  0
 22 28  1  0  0  0  0
 21 25  1  0  0  0  0
 21 26  1  0  0  0  0
 23 29  1  0  0  0  0
 23 30  1  0  0  0  0
 18 24  1  0  0  0  0
  3  4  1  0  0  0  0
  3  5  1  0  0  0  0
  3  6  1  0  0  0  0
 11 14  1  0  0  0  0
 11 15  1  0  0  0  0
 11 16  1  0  0  0  0
 35 38  1  0  0  0  0
 35 39  1  0  0  0  0
 35 40  1  0  0  0  0
 42 44  1  0  0  0  0
 42 45  1  0  0  0  0
 42 46  1  0  0  0  0
  8 13  1  0  0  0  0
 32 37  1  0  0  0  0
 31 36  1  0  0  0  0
 41 43  1  0  0  0  0
  7 12  1  0  0  0  0
M  END
$$$$

  -OEChem-05262214473D

 46 46  0     1  0  0  0  0  0999 V2000
   -0.6012   -3.2995    3.8205 C   0  0  0  0  0  0  0  0  0  0  0  0
   -0.6574   -4.4683    3.4568 O   0  0  0  0  0  0  0  0  0  0  0  0
   -0.4935   -2.9859    5.2760 C   0  0  0  0  0  0  0  0  0  0  0  0
   -1.4789   -2.8689    5.7550 H   0  0  0  0  0  0  0  0  0  0  0  0
    0.0123   -3.7847    5.8419 H   0  0  0  0  0  0  0  0  0  0  0  0
    0.0585   -2.0642    5.5199 H   0  0  0  0  0  0  0  0  0  0  0  0
   -0.6261   -2.1849    2.9917 N   0  0  0  0  0  0  0  0  0  0  0  0
   -0.7237   -2.2601    1.5650 C   0  0  2  0  0  0  0  0  0  0  0  0
    0.1695   -1.1513    1.0687 C   0  0  0  0  0  0  0  0  0  0  0  0
    0.3193   -0.1267    1.7365 O   0  0  0  0  0  0  0  0  0  0  0  0
   -2.1397   -2.0663    1.0750 C   0  0  0  0  0  0  0  0  0  0  0  0
   -0.5717   -1.2606    3.4238 H   0  0  0  0  0  0  0  0  0  0  0  0
   -0.3076   -3.2111    1.2363 H   0  0  0  0  0  0  0  0  0  0  0  0
   -2.5584   -1.1089    1.4061 H   0  0  0  0  0  0  0  0  0  0  0  0
   -2.1682   -2.0790   -0.0197 H   0  0  0  0  0  0  0  0  0  0  0  0
   -2.7965   -2.8601    1.4459 H   0  0  0  0  0  0  0  0  0  0  0  0
    0.7724   -1.3745   -0.1593 N   0  0  0  0  0  0  0  0  0  0  0  0
    0.5614   -2.5964   -0.9244 C   0  0  2  0  0  0  0  0  0  0  0  0
   -0.0544   -3.5988    0.0049 C   0  0  0  0  0  0  0  0  0  0  0  0
   -0.5272   -3.2233    1.0713 O   0  0  0  0  0  0  0  0  0  0  0  0
    1.9561   -3.0201   -1.3701 C   0  0  0  0  0  0  0  0  0  0  0  0
    2.4412   -1.5761   -1.2677 C   0  0  0  0  0  0  0  0  0  0  0  0
    1.5408   -0.3981   -0.9273 C   0  0  0  0  0  0  0  0  0  0  0  0
   -0.1236   -2.4233   -1.7599 H   0  0  0  0  0  0  0  0  0  0  0  0
    1.9168   -3.4270   -2.3876 H   0  0  0  0  0  0  0  0  0  0  0  0
    2.4180   -3.7645   -0.7143 H   0  0  0  0  0  0  0  0  0  0  0  0
    3.1835   -1.4790   -0.4671 H   0  0  0  0  0  0  0  0  0  0  0  0
    2.8940   -1.2255   -2.1995 H   0  0  0  0  0  0  0  0  0  0  0  0
    2.0756    0.4073   -0.4167 H   0  0  0  0  0  0  0  0  0  0  0  0
    1.0584    0.0055   -1.8242 H   0  0  0  0  0  0  0  0  0  0  0  0
   -0.0363   -4.8847   -0.4241 N   0  0  0  0  0  0  0  0  0  0  0  0
    0.1655   -6.2867   -0.1367 C   0  0  2  0  0  0  0  0  0  0  0  0
    1.0216   -6.3910    1.1185 C   0  0  0  0  0  0  0  0  0  0  0  0
    1.7577   -5.4858    1.5056 O   0  0  0  0  0  0  0  0  0  0  0  0
    0.8252   -7.0018   -1.3056 C   0  0  0  0  0  0  0  0  0  0  0  0
   -0.9877   -4.5322   -0.4677 H   0  0  0  0  0  0  0  0  0  0  0  0
   -0.8237   -6.7151    0.0584 H   0  0  0  0  0  0  0  0  0  0  0  0
    1.8174   -6.5862   -1.5161 H   0  0  0  0  0  0  0  0  0  0  0  0
    0.9514   -8.0694   -1.0975 H   0  0  0  0  0  0  0  0  0  0  0  0
    0.2228   -6.9004   -2.2147 H   0  0  0  0  0  0  0  0  0  0  0  0
    0.8996   -7.6300    1.7319 N   0  0  0  0  0  0  0  0  0  0  0  0
    1.6212   -7.9796    2.9332 C   0  0  0  0  0  0  0  0  0  0  0  0
    0.2515   -8.3138    1.3524 H   0  0  0  0  0  0  0  0  0  0  0  0
    2.5672   -8.4719    2.6632 H   0  0  0  0  0  0  0  0  0  0  0  0
    1.8342   -7.0682    3.5112 H   0  0  0  0  0  0  0  0  0  0  0  0
    1.0117   -8.6649    3.5406 H   0  0  0  0  0  0  0  0  0  0  0  0
 18 19  1  0  0  0  0
 19 31  1  0  0  0  0
 19 20  2  0  0  0  0
  8  9  1  0  0  0  0
  9 17  1  0  0  0  0
  9 10  2  0  0  0  0
  1  3  1  0  0  0  0
  1  7  1  0  0  0  0
  1  2  2  0  0  0  0
 32 33  1  0  0  0  0
 33 41  1  0  0  0  0
 33 34  2  0  0  0  0
 21 22  1  0  0  0  0
 22 23  1  0  0  0  0
 18 21  1  0  0  0  0
 17 23  1  0  0  0  0
 17 18  1  0  0  0  0
  8 11  1  0  0  0  0
 32 35  1  0  0  0  0
 41 42  1  0  0  0  0
  7  8  1  0  0  0  0
 31 32  1  0  0  0  0
 22 27  1  0  0  0  0
 22 28  1  0  0  0  0
 21 25  1  0  0  0  0
 21 26  1  0  0  0  0
 23 29  1  0  0  0  0
 23 30  1  0  0  0  0
 18 24  1  0  0  0  0
  3  4  1  0  0  0  0
  3  5  1  0  0  0  0
  3  6  1  0  0  0  0
 11 14  1  0  0  0  0
 11 15  1  0  0  0  0
 11 16  1  0  0  0  0
 35 38  1  0  0  0  0
 35 39  1  0  0  0  0
 35 40  1  0  0  0  0
 42 44  1  0  0  0  0
 42 45  1  0  0  0  0
 42 46  1  0  0  0  0
  8 13  1  0  0  0  0
 32 37  1  0  0  0  0
 31 36  1  0  0  0  0
 41 43  1  0  0  0  0
  7 12  1  0  0  0  0
M  END
$$$$

  -OEChem-05262214473D

 46 46  0     1  0  0  0  0  0999 V2000
   -0.6012   -3.2995    3.8205 C   0  0  0  0  0  0  0  0  0  0  0  0
   -0.6574   -4.4683    3.4568 O   0  0  0  0  0  0  0  0  0  0  0  0
   -0.4935   -2.9859    5.2760 C   0  0  0  0  0  0  0  0  0  0  0  0
   -1.4789   -2.8689    5.7550 H   0  0  0  0  0  0  0  0  0  0  0  0
    0.0123   -3.7847    5.8419 H   0  0  0  0  0  0  0  0  0  0  0  0
    0.0585   -2.0642    5.5199 H   0  0  0  0  0  0  0  0  0  0  0  0
   -0.6261   -2.1849    2.9917 N   0  0  0  0  0  0  0  0  0  0  0  0
   -0.7237   -2.2601    1.5650 C   0  0  2  0  0  0  0  0  0  0  0  0
    0.1695   -1.1513    1.0687 C   0  0  0  0  0  0  0  0  0  0  0  0
    0.3193   -0.1267    1.7365 O   0  0  0  0  0  0  0  0  0  0  0  0
   -2.1397   -2.0663    1.0750 C   0  0  0  0  0  0  0  0  0  0  0  0
   -0.5717   -1.2606    3.4238 H   0  0  0  0  0  0  0  0  0  0  0  0
   -0.3076   -3.2111    1.2363 H   0  0  0  0  0  0  0  0  0  0  0  0
   -2.5584   -1.1089    1.4061 H   0  0  0  0  0  0  0  0  0  0  0  0
   -2.1682   -2.0790   -0.0197 H   0  0  0  0  0  0  0  0  0  0  0  0
   -2.7965   -2.8601    1.4459 H   0  0  0  0  0  0  0  0  0  0  0  0
    0.7724   -1.3745   -0.1593 N   0  0  0  0  0  0  0  0  0  0  0  0
    0.5614   -2.5964   -0.9244 C   0  0  2  0  0  0  0  0  0  0  0  0
   -0.0544   -3.5988    0.0049 C   0  0  0  0  0  0  0  0  0  0  0  0
   -0.7643   -3.2124    0.9260 O   0  0  0  0  0  0  0  0  0  0  0  0
    1.9561   -3.0201   -1.3701 C   0  0  0  0  0  0  0  0  0  0  0  0
    2.4412   -1.5761   -1.2677 C   0  0  0  0  0  0  0  0  0  0  0  0
    1.5408   -0.3981   -0.9273 C   0  0  0  0  0  0  0  0  0  0  0  0
   -0.1236   -2.4233   -1.7599 H   0  0  0  0  0  0  0  0  0  0  0  0
    1.9168   -3.4270   -2.3876 H   0  0  0  0  0  0  0  0  0  0  0  0
    2.4180   -3.7645   -0.7143 H   0  0  0  0  0  0  0  0  0  0  0  0
    3.1835   -1.4790   -0.4671 H   0  0  0  0  0  0  0  0  0  0  0  0
    2.8940   -1.2255   -2.1995 H   0  0  0  0  0  0  0  0  0  0  0  0
    2.0756    0.4073   -0.4167 H   0  0  0  0  0  0  0  0  0  0  0  0
    1.0584    0.0055   -1.8242 H   0  0  0  0  0  0  0  0  0  0  0  0
    0.2354   -4.8970   -0.2573 N   0  0  0  0  0  0  0  0  0  0  0  0
    0.5911   -6.2118    0.2261 C   0  0  2  0  0  0  0  0  0  0  0  0
    1.2105   -6.0531    1.6083 C   0  0  0  0  0  0  0  0  0  0  0  0
    1.7187   -5.0042    1.9992 O   0  0  0  0  0  0  0  0  0  0  0  0
    1.5526   -6.9091   -0.7236 C   0  0  0  0  0  0  0  0  0  0  0  0
   -0.7344   -4.7167   -0.4988 H   0  0  0  0  0  0  0  0  0  0  0  0
   -0.3408   -6.7821    0.3062 H   0  0  0  0  0  0  0  0  0  0  0  0
    2.4921   -6.3524   -0.8167 H   0  0  0  0  0  0  0  0  0  0  0  0
    1.7986   -7.9160   -0.3706 H   0  0  0  0  0  0  0  0  0  0  0  0
    1.1171   -6.9958   -1.7249 H   0  0  0  0  0  0  0  0  0  0  0  0
    1.1678   -7.2328    2.3380 N   0  0  0  0  0  0  0  0  0  0  0  0
    1.7034   -7.3426    3.6748 C   0  0  0  0  0  0  0  0  0  0  0  0
    0.7103   -8.0488    1.9423 H   0  0  0  0  0  0  0  0  0  0  0  0
    2.7460   -7.6899    3.6252 H   0  0  0  0  0  0  0  0  0  0  0  0
    1.6677   -6.3590    4.1659 H   0  0  0  0  0  0  0  0  0  0  0  0
    1.1044   -8.0625    4.2518 H   0  0  0  0  0  0  0  0  0  0  0  0
 18 19  1  0  0  0  0
 19 31  1  0  0  0  0
 19 20  2  0  0  0  0
  8  9  1  0  0  0  0
  9 17  1  0  0  0  0
  9 10  2  0  0  0  0
  1  3  1  0  0  0  0
  1  7  1  0  0  0  0
  1  2  2  0  0  0  0
 32 33  1  0  0  0  0
 33 41  1  0  0  0  0
 33 34  2  0  0  0  0
 21 22  1  0  0  0  0
 22 23  1  0  0  0  0
 18 21  1  0  0  0  0
 17 23  1  0  0  0  0
 17 18  1  0  0  0  0
  8 11  1  0  0  0  0
 32 35  1  0  0  0  0
 41 42  1  0  0  0  0
  7  8  1  0  0  0  0
 31 32  1  0  0  0  0
 22 27  1  0  0  0  0
 22 28  1  0  0  0  0
 21 25  1  0  0  0  0
 21 26  1  0  0  0  0
 23 29  1  0  0  0  0
 23 30  1  0  0  0  0
 18 24  1  0  0  0  0
  3  4  1  0  0  0  0
  3  5  1  0  0  0  0
  3  6  1  0  0  0  0
 11 14  1  0  0  0  0
 11 15  1  0  0  0  0
 11 16  1  0  0  0  0
 35 38  1  0  0  0  0
 35 39  1  0  0  0  0
 35 40  1  0  0  0  0
 42 44  1  0  0  0  0
 42 45  1  0  0  0  0
 42 46  1  0  0  0  0
  8 13  1  0  0  0  0
 32 37  1  0  0  0  0
 31 36  1  0  0  0  0
 41 43  1  0  0  0  0
  7 12  1  0  0  0  0
M  END
$$$$

  -OEChem-05262214473D

 46 46  0     1  0  0  0  0  0999 V2000
   -0.6012   -3.2995    3.8205 C   0  0  0  0  0  0  0  0  0  0  0  0
   -0.6574   -4.4683    3.4568 O   0  0  0  0  0  0  0  0  0  0  0  0
   -0.4935   -2.9859    5.2760 C   0  0  0  0  0  0  0  0  0  0  0  0
   -1.4789   -2.8689    5.7550 H   0  0  0  0  0  0  0  0  0  0  0  0
    0.0123   -3.7847    5.8419 H   0  0  0  0  0  0  0  0  0  0  0  0
    0.0585   -2.0642    5.5199 H   0  0  0  0  0  0  0  0  0  0  0  0
   -0.6261   -2.1849    2.9917 N   0  0  0  0  0  0  0  0  0  0  0  0
   -0.7237   -2.2601    1.5650 C   0  0  2  0  0  0  0  0  0  0  0  0
    0.1695   -1.1513    1.0687 C   0  0  0  0  0  0  0  0  0  0  0  0
    0.3193   -0.1267    1.7365 O   0  0  0  0  0  0  0  0  0  0  0  0
   -2.1397   -2.0663    1.0750 C   0  0  0  0  0  0  0  0  0  0  0  0
   -0.5717   -1.2606    3.4238 H   0  0  0  0  0  0  0  0  0  0  0  0
   -0.3076   -3.2111    1.2363 H   0  0  0  0  0  0  0  0  0  0  0  0
   -2.5584   -1.1089    1.4061 H   0  0  0  0  0  0  0  0  0  0  0  0
   -2.1682   -2.0790   -0.0197 H   0  0  0  0  0  0  0  0  0  0  0  0
   -2.7965   -2.8601    1.4459 H   0  0  0  0  0  0  0  0  0  0  0  0
    0.7724   -1.3745   -0.1593 N   0  0  0  0  0  0  0  0  0  0  0  0
    0.5614   -2.5964   -0.9244 C   0  0  2  0  0  0  0  0  0  0  0  0
   -0.0544   -3.5988    0.0049 C   0  0  0  0  0  0  0  0  0  0  0  0
   -0.9700   -3.2553    0.7434 O   0  0  0  0  0  0  0  0  0  0  0  0
    1.9561   -3.0201   -1.3701 C   0  0  0  0  0  0  0  0  0  0  0  0
    2.4412   -1.5761   -1.2677 C   0  0  0  0  0  0  0  0  0  0  0  0
    1.5408   -0.3981   -0.9273 C   0  0  0  0  0  0  0  0  0  0  0  0
   -0.1236   -2.4233   -1.7599 H   0  0  0  0  0  0  0  0  0  0  0  0
    1.9168   -3.4270   -2.3876 H   0  0  0  0  0  0  0  0  0  0  0  0
    2.4180   -3.7645   -0.7143 H   0  0  0  0  0  0  0  0  0  0  0  0
    3.1835   -1.4790   -0.4671 H   0  0  0  0  0  0  0  0  0  0  0  0
    2.8940   -1.2255   -2.1995 H   0  0  0  0  0  0  0  0  0  0  0  0
    2.0756    0.4073   -0.4167 H   0  0  0  0  0  0  0  0  0  0  0  0
    1.0584    0.0055   -1.8242 H   0  0  0  0  0  0  0  0  0  0  0  0
    0.4710   -4.8475   -0.0478 N   0  0  0  0  0  0  0  0  0  0  0  0
    0.9273   -6.0326    0.6423 C   0  0  2  0  0  0  0  0  0  0  0  0
    1.2541   -5.6442    2.0782 C   0  0  0  0  0  0  0  0  0  0  0  0
    1.5184   -4.4928    2.4181 O   0  0  0  0  0  0  0  0  0  0  0  0
    2.1395   -6.6411   -0.0455 C   0  0  0  0  0  0  0  0  0  0  0  0
   -0.4548   -4.8575   -0.4653 H   0  0  0  0  0  0  0  0  0  0  0  0
    0.0934   -6.7430    0.6362 H   0  0  0  0  0  0  0  0  0  0  0  0
    2.9853   -5.9438   -0.0492 H   0  0  0  0  0  0  0  0  0  0  0  0
    2.4666   -7.5547    0.4619 H   0  0  0  0  0  0  0  0  0  0  0  0
    1.9114   -6.8924   -1.0870 H   0  0  0  0  0  0  0  0  0  0  0  0
    1.2582   -6.7418    2.9276 N   0  0  0  0  0  0  0  0  0  0  0  0
    1.5523   -6.6353    4.3376 C   0  0  0  0  0  0  0  0  0  0  0  0
    1.0088   -7.6565    2.5633 H   0  0  0  0  0  0  0  0  0  0  0  0
    2.6268   -6.8035    4.5023 H   0  0  0  0  0  0  0  0  0  0  0  0
    1.2797   -5.6310    4.6941 H   0  0  0  0  0  0  0  0  0  0  0  0
    0.9741   -7.3901    4.8907 H   0  0  0  0  0  0  0  0  0  0  0  0
 18 19  1  0  0  0  0
 19 31  1  0  0  0  0
 19 20  2  0  0  0  0
  8  9  1  0  0  0  0
  9 17  1  0  0  0  0
  9 10  2  0  0  0  0
  1  3  1  0  0  0  0
  1  7  1  0  0  0  0
  1  2  2  0  0  0  0
 32 33  1  0  0  0  0
 33 41  1  0  0  0  0
 33 34  2  0  0  0  0
 21 22  1  0  0  0  0
 22 23  1  0  0  0  0
 18 21  1  0  0  0  0
 17 23  1  0  0  0  0
 17 18  1  0  0  0  0
  8 11  1  0  0  0  0
 32 35  1  0  0  0  0
 41 42  1  0  0  0  0
  7  8  1  0  0  0  0
 31 32  1  0  0  0  0
 22 27  1  0  0  0  0
 22 28  1  0  0  0  0
 21 25  1  0  0  0  0
 21 26  1  0  0  0  0
 23 29  1  0  0  0  0
 23 30  1  0  0  0  0
 18 24  1  0  0  0  0
  3  4  1  0  0  0  0
  3  5  1  0  0  0  0
  3  6  1  0  0  0  0
 11 14  1  0  0  0  0
 11 15  1  0  0  0  0
 11 16  1  0  0  0  0
 35 38  1  0  0  0  0
 35 39  1  0  0  0  0
 35 40  1  0  0  0  0
 42 44  1  0  0  0  0
 42 45  1  0  0  0  0
 42 46  1  0  0  0  0
  8 13  1  0  0  0  0
 32 37  1  0  0  0  0
 31 36  1  0  0  0  0
 41 43  1  0  0  0  0
  7 12  1  0  0  0  0
M  END
$$$$

  -OEChem-05262214473D

 46 46  0     1  0  0  0  0  0999 V2000
   -0.6012   -3.2995    3.8205 C   0  0  0  0  0  0  0  0  0  0  0  0
   -0.6574   -4.4683    3.4568 O   0  0  0  0  0  0  0  0  0  0  0  0
   -0.4935   -2.9859    5.2760 C   0  0  0  0  0  0  0  0  0  0  0  0
   -1.4789   -2.8689    5.7550 H   0  0  0  0  0  0  0  0  0  0  0  0
    0.0123   -3.7847    5.8419 H   0  0  0  0  0  0  0  0  0  0  0  0
    0.0585   -2.0642    5.5199 H   0  0  0  0  0  0  0  0  0  0  0  0
   -0.6261   -2.1849    2.9917 N   0  0  0  0  0  0  0  0  0  0  0  0
   -0.7237   -2.2601    1.5650 C   0  0  2  0  0  0  0  0  0  0  0  0
    0.1695   -1.1513    1.0687 C   0  0  0  0  0  0  0  0  0  0  0  0
    0.3193   -0.1267    1.7365 O   0  0  0  0  0  0  0  0  0  0  0  0
   -2.1397   -2.0663    1.0750 C   0  0  0  0  0  0  0  0  0  0  0  0
   -0.5717   -1.2606    3.4238 H   0  0  0  0  0  0  0  0  0  0  0  0
   -0.3076   -3.2111    1.2363 H   0  0  0  0  0  0  0  0  0  0  0  0
   -2.5584   -1.1089    1.4061 H   0  0  0  0  0  0  0  0  0  0  0  0
   -2.1682   -2.0790   -0.0197 H   0  0  0  0  0  0  0  0  0  0  0  0
   -2.7965   -2.8601    1.4459 H   0  0  0  0  0  0  0  0  0  0  0  0
    0.7724   -1.3745   -0.1593 N   0  0  0  0  0  0  0  0  0  0  0  0
    0.5614   -2.5964   -0.9244 C   0  0  2  0  0  0  0  0  0  0  0  0
   -0.0544   -3.5988    0.0049 C   0  0  0  0  0  0  0  0  0  0  0  0
   -1.1301   -3.3491    0.5361 O   0  0  0  0  0  0  0  0  0  0  0  0
    1.9561   -3.0201   -1.3701 C   0  0  0  0  0  0  0  0  0  0  0  0
    2.4412   -1.5761   -1.2677 C   0  0  0  0  0  0  0  0  0  0  0  0
    1.5408   -0.3981   -0.9273 C   0  0  0  0  0  0  0  0  0  0  0  0
   -0.1236   -2.4233   -1.7599 H   0  0  0  0  0  0  0  0  0  0  0  0
    1.9168   -3.4270   -2.3876 H   0  0  0  0  0  0  0  0  0  0  0  0
    2.4180   -3.7645   -0.7143 H   0  0  0  0  0  0  0  0  0  0  0  0
    3.1835   -1.4790   -0.4671 H   0  0  0  0  0  0  0  0  0  0  0  0
    2.8940   -1.2255   -2.1995 H   0  0  0  0  0  0  0  0  0  0  0  0
    2.0756    0.4073   -0.4167 H   0  0  0  0  0  0  0  0  0  0  0  0
    1.0584    0.0055   -1.8242 H   0  0  0  0  0  0  0  0  0  0  0  0
    0.6543   -4.7396    0.1900 N   0  0  0  0  0  0  0  0  0  0  0  0
    1.1514   -5.7613    1.0834 C   0  0  2  0  0  0  0  0  0  0  0  0
    1.1493   -5.1924    2.4961 C   0  0  0  0  0  0  0  0  0  0  0  0
    1.1703   -3.9865    2.7337 O   0  0  0  0  0  0  0  0  0  0  0  0
    2.5462   -6.2159    0.6826 C   0  0  0  0  0  0  0  0  0  0  0  0
   -0.1678   -4.9451   -0.3697 H   0  0  0  0  0  0  0  0  0  0  0  0
    0.4495   -6.6004    1.0259 H   0  0  0  0  0  0  0  0  0  0  0  0
    3.2633   -5.3885    0.7340 H   0  0  0  0  0  0  0  0  0  0  0  0
    2.9098   -7.0100    1.3431 H   0  0  0  0  0  0  0  0  0  0  0  0
    2.5517   -6.5972   -0.3443 H   0  0  0  0  0  0  0  0  0  0  0  0
    1.1646   -6.1902    3.4606 N   0  0  0  0  0  0  0  0  0  0  0  0
    1.1781   -5.9058    4.8765 C   0  0  0  0  0  0  0  0  0  0  0  0
    1.1267   -7.1637    3.1731 H   0  0  0  0  0  0  0  0  0  0  0  0
    2.2177   -5.8733    5.2346 H   0  0  0  0  0  0  0  0  0  0  0  0
    0.6968   -4.9338    5.0597 H   0  0  0  0  0  0  0  0  0  0  0  0
    0.6298   -6.6936    5.4139 H   0  0  0  0  0  0  0  0  0  0  0  0
 18 19  1  0  0  0  0
 19 31  1  0  0  0  0
 19 20  2  0  0  0  0
  8  9  1  0  0  0  0
  9 17  1  0  0  0  0
  9 10  2  0  0  0  0
  1  3  1  0  0  0  0
  1  7  1  0  0  0  0
  1  2  2  0  0  0  0
 32 33  1  0  0  0  0
 33 41  1  0  0  0  0
 33 34  2  0  0  0  0
 21 22  1  0  0  0  0
 22 23  1  0  0  0  0
 18 21  1  0  0  0  0
 17 23  1  0  0  0  0
 17 18  1  0  0  0  0
  8 11  1  0  0  0  0
 32 35  1  0  0  0  0
 41 42  1  0  0  0  0
  7  8  1  0  0  0  0
 31 32  1  0  0  0  0
 22 27  1  0  0  0  0
 22 28  1  0  0  0  0
 21 25  1  0  0  0  0
 21 26  1  0  0  0  0
 23 29  1  0  0  0  0
 23 30  1  0  0  0  0
 18 24  1  0  0  0  0
  3  4  1  0  0  0  0
  3  5  1  0  0  0  0
  3  6  1  0  0  0  0
 11 14  1  0  0  0  0
 11 15  1  0  0  0  0
 11 16  1  0  0  0  0
 35 38  1  0  0  0  0
 35 39  1  0  0  0  0
 35 40  1  0  0  0  0
 42 44  1  0  0  0  0
 42 45  1  0  0  0  0
 42 46  1  0  0  0  0
  8 13  1  0  0  0  0
 32 37  1  0  0  0  0
 31 36  1  0  0  0  0
 41 43  1  0  0  0  0
  7 12  1  0  0  0  0
M  END
$$$$

  -OEChem-05262214473D

 46 46  0     1  0  0  0  0  0999 V2000
   -0.6012   -3.2995    3.8205 C   0  0  0  0  0  0  0  0  0  0  0  0
   -0.6574   -4.4683    3.4568 O   0  0  0  0  0  0  0  0  0  0  0  0
   -0.4935   -2.9859    5.2760 C   0  0  0  0  0  0  0  0  0  0  0  0
   -1.4789   -2.8689    5.7550 H   0  0  0  0  0  0  0  0  0  0  0  0
    0.0123   -3.7847    5.8419 H   0  0  0  0  0  0  0  0  0  0  0  0
    0.0585   -2.0642    5.5199 H   0  0  0  0  0  0  0  0  0  0  0  0
   -0.6261   -2.1849    2.9917 N   0  0  0  0  0  0  0  0  0  0  0  0
   -0.7237   -2.2601    1.5650 C   0  0  2  0  0  0  0  0  0  0  0  0
    0.1695   -1.1513    1.0687 C   0  0  0  0  0  0  0  0  0  0  0  0
    0.3193   -0.1267    1.7365 O   0  0  0  0  0  0  0  0  0  0  0  0
   -2.1397   -2.0663    1.0750 C   0  0  0  0  0  0  0  0  0  0  0  0
   -0.5717   -1.2606    3.4238 H   0  0  0  0  0  0  0  0  0  0  0  0
   -0.3076   -3.2111    1.2363 H   0  0  0  0  0  0  0  0  0  0  0  0
   -2.5584   -1.1089    1.4061 H   0  0  0  0  0  0  0  0  0  0  0  0
   -2.1682   -2.0790   -0.0197 H   0  0  0  0  0  0  0  0  0  0  0  0
   -2.7965   -2.8601    1.4459 H   0  0  0  0  0  0  0  0  0  0  0  0
    0.7724   -1.3745   -0.1593 N   0  0  0  0  0  0  0  0  0  0  0  0
    0.5614   -2.5964   -0.9244 C   0  0  2  0  0  0  0  0  0  0  0  0
   -0.0544   -3.5988    0.0049 C   0  0  0  0  0  0  0  0  0  0  0  0
   -1.2339   -3.4875    0.3180 O   0  0  0  0  0  0  0  0  0  0  0  0
    1.9561   -3.0201   -1.3701 C   0  0  0  0  0  0  0  0  0  0  0  0
    2.4412   -1.5761   -1.2677 C   0  0  0  0  0  0  0  0  0  0  0  0
    1.5408   -0.3981   -0.9273 C   0  0  0  0  0  0  0  0  0  0  0  0
   -0.1236   -2.4233   -1.7599 H   0  0  0  0  0  0  0  0  0  0  0  0
    1.9168   -3.4270   -2.3876 H   0  0  0  0  0  0  0  0  0  0  0  0
    2.4180   -3.7645   -0.7143 H   0  0  0  0  0  0  0  0  0  0  0  0
    3.1835   -1.4790   -0.4671 H   0  0  0  0  0  0  0  0  0  0  0  0
    2.8940   -1.2255   -2.1995 H   0  0  0  0  0  0  0  0  0  0  0  0
    2.0756    0.4073   -0.4167 H   0  0  0  0  0  0  0  0  0  0  0  0
    1.0584    0.0055   -1.8242 H   0  0  0  0  0  0  0  0  0  0  0  0
    0.7729   -4.5807    0.4401 N   0  0  0  0  0  0  0  0  0  0  0  0
    1.2479   -5.4164    1.5194 C   0  0  2  0  0  0  0  0  0  0  0  0
    0.9032   -4.7283    2.8336 C   0  0  0  0  0  0  0  0  0  0  0  0
    0.6983   -3.5197    2.9244 O   0  0  0  0  0  0  0  0  0  0  0  0
    2.7447   -5.6626    1.4110 C   0  0  0  0  0  0  0  0  0  0  0  0
    0.1069   -4.9735   -0.2183 H   0  0  0  0  0  0  0  0  0  0  0  0
    0.7032   -6.3642    1.4488 H   0  0  0  0  0  0  0  0  0  0  0  0
    3.3072   -4.7243    1.4796 H   0  0  0  0  0  0  0  0  0  0  0  0
    3.0979   -6.3190    2.2131 H   0  0  0  0  0  0  0  0  0  0  0  0
    2.9943   -6.1304    0.4526 H   0  0  0  0  0  0  0  0  0  0  0  0
    0.8936   -5.6158    3.9006 N   0  0  0  0  0  0  0  0  0  0  0  0
    0.6064   -5.2039    5.2548 C   0  0  0  0  0  0  0  0  0  0  0  0
    1.0561   -6.6039    3.7301 H   0  0  0  0  0  0  0  0  0  0  0  0
    1.5466   -4.9625    5.7723 H   0  0  0  0  0  0  0  0  0  0  0  0
   -0.0414   -4.3151    5.2379 H   0  0  0  0  0  0  0  0  0  0  0  0
    0.0950   -6.0205    5.7856 H   0  0  0  0  0  0  0  0  0  0  0  0
 18 19  1  0  0  0  0
 19 31  1  0  0  0  0
 19 20  2  0  0  0  0
  8  9  1  0  0  0  0
  9 17  1  0  0  0  0
  9 10  2  0  0  0  0
  1  3  1  0  0  0  0
  1  7  1  0  0  0  0
  1  2  2  0  0  0  0
 32 33  1  0  0  0  0
 33 41  1  0  0  0  0
 33 34  2  0  0  0  0
 21 22  1  0  0  0  0
 22 23  1  0  0  0  0
 18 21  1  0  0  0  0
 17 23  1  0  0  0  0
 17 18  1  0  0  0  0
  8 11  1  0  0  0  0
 32 35  1  0  0  0  0
 41 42  1  0  0  0  0
  7  8  1  0  0  0  0
 31 32  1  0  0  0  0
 22 27  1  0  0  0  0
 22 28  1  0  0  0  0
 21 25  1  0  0  0  0
 21 26  1  0  0  0  0
 23 29  1  0  0  0  0
 23 30  1  0  0  0  0
 18 24  1  0  0  0  0
  3  4  1  0  0  0  0
  3  5  1  0  0  0  0
  3  6  1  0  0  0  0
 11 14  1  0  0  0  0
 11 15  1  0  0  0  0
 11 16  1  0  0  0  0
 35 38  1  0  0  0  0
 35 39  1  0  0  0  0
 35 40  1  0  0  0  0
 42 44  1  0  0  0  0
 42 45  1  0  0  0  0
 42 46  1  0  0  0  0
  8 13  1  0  0  0  0
 32 37  1  0  0  0  0
 31 36  1  0  0  0  0
 41 43  1  0  0  0  0
  7 12  1  0  0  0  0
M  END
$$$$

  -OEChem-05262214473D

 46 46  0     1  0  0  0  0  0999 V2000
   -0.6012   -3.2995    3.8205 C   0  0  0  0  0  0  0  0  0  0  0  0
   -0.6574   -4.4683    3.4568 O   0  0  0  0  0  0  0  0  0  0  0  0
   -0.4935   -2.9859    5.2760 C   0  0  0  0  0  0  0  0  0  0  0  0
   -1.4789   -2.8689    5.7550 H   0  0  0  0  0  0  0  0  0  0  0  0
    0.0123   -3.7847    5.8419 H   0  0  0  0  0  0  0  0  0  0  0  0
    0.0585   -2.0642    5.5199 H   0  0  0  0  0  0  0  0  0  0  0  0
   -0.6261   -2.1849    2.9917 N   0  0  0  0  0  0  0  0  0  0  0  0
   -0.7237   -2.2601    1.5650 C   0  0  2  0  0  0  0  0  0  0  0  0
    0.1695   -1.1513    1.0687 C   0  0  0  0  0  0  0  0  0  0  0  0
    0.3193   -0.1267    1.7365 O   0  0  0  0  0  0  0  0  0  0  0  0
   -2.1397   -2.0663    1.0750 C   0  0  0  0  0  0  0  0  0  0  0  0
   -0.5717   -1.2606    3.4238 H   0  0  0  0  0  0  0  0  0  0  0  0
   -0.3076   -3.2111    1.2363 H   0  0  0  0  0  0  0  0  0  0  0  0
   -2.5584   -1.1089    1.4061 H   0  0  0  0  0  0  0  0  0  0  0  0
   -2.1682   -2.0790   -0.0197 H   0  0  0  0  0  0  0  0  0  0  0  0
   -2.7965   -2.8601    1.4459 H   0  0  0  0  0  0  0  0  0  0  0  0
    0.7724   -1.3745   -0.1593 N   0  0  0  0  0  0  0  0  0  0  0  0
    0.5614   -2.5964   -0.9244 C   0  0  2  0  0  0  0  0  0  0  0  0
   -0.0544   -3.5988    0.0049 C   0  0  0  0  0  0  0  0  0  0  0  0
   -1.2742   -3.6610    0.1042 O   0  0  0  0  0  0  0  0  0  0  0  0
    1.9561   -3.0201   -1.3701 C   0  0  0  0  0  0  0  0  0  0  0  0
    2.4412   -1.5761   -1.2677 C   0  0  0  0  0  0  0  0  0  0  0  0
    1.5408   -0.3981   -0.9273 C   0  0  0  0  0  0  0  0  0  0  0  0
   -0.1236   -2.4233   -1.7599 H   0  0  0  0  0  0  0  0  0  0  0  0
    1.9168   -3.4270   -2.3876 H   0  0  0  0  0  0  0  0  0  0  0  0
    2.4180   -3.7645   -0.7143 H   0  0  0  0  0  0  0  0  0  0  0  0
    3.1835   -1.4790   -0.4671 H   0  0  0  0  0  0  0  0  0  0  0  0
    2.8940   -1.2255   -2.1995 H   0  0  0  0  0  0  0  0  0  0  0  0
    2.0756    0.4073   -0.4167 H   0  0  0  0  0  0  0  0  0  0  0  0
    1.0584    0.0055   -1.8242 H   0  0  0  0  0  0  0  0  0  0  0  0
    0.8187   -4.3816    0.6852 N   0  0  0  0  0  0  0  0  0  0  0  0
    1.2104   -5.0214    1.9206 C   0  0  2  0  0  0  0  0  0  0  0  0
    0.5326   -4.2837    3.0677 C   0  0  0  0  0  0  0  0  0  0  0  0
    0.1345   -3.1242    2.9774 O   0  0  0  0  0  0  0  0  0  0  0  0
    2.7217   -5.0188    2.0902 C   0  0  0  0  0  0  0  0  0  0  0  0
    0.3505   -4.9408   -0.0216 H   0  0  0  0  0  0  0  0  0  0  0  0
    0.8371   -6.0503    1.8761 H   0  0  0  0  0  0  0  0  0  0  0  0
    3.1140   -3.9964    2.1368 H   0  0  0  0  0  0  0  0  0  0  0  0
    3.0183   -5.5290    3.0125 H   0  0  0  0  0  0  0  0  0  0  0  0
    3.2091   -5.5238    1.2492 H   0  0  0  0  0  0  0  0  0  0  0  0
    0.4635   -5.0577    4.2176 N   0  0  0  0  0  0  0  0  0  0  0  0
   -0.1238   -4.5775    5.4466 C   0  0  0  0  0  0  0  0  0  0  0  0
    0.8017   -6.0153    4.1964 H   0  0  0  0  0  0  0  0  0  0  0  0
    0.6591   -4.1333    6.0787 H   0  0  0  0  0  0  0  0  0  0  0  0
   -0.8846   -3.8170    5.2165 H   0  0  0  0  0  0  0  0  0  0  0  0
   -0.5939   -5.4165    5.9805 H   0  0  0  0  0  0  0  0  0  0  0  0
 18 19  1  0  0  0  0
 19 31  1  0  0  0  0
 19 20  2  0  0  0  0
  8  9  1  0  0  0  0
  9 17  1  0  0  0  0
  9 10  2  0  0  0  0
  1  3  1  0  0  0  0
  1  7  1  0  0  0  0
  1  2  2  0  0  0  0
 32 33  1  0  0  0  0
 33 41  1  0  0  0  0
 33 34  2  0  0  0  0
 21 22  1  0  0  0  0
 22 23  1  0  0  0  0
 18 21  1  0  0  0  0
 17 23  1  0  0  0  0
 17 18  1  0  0  0  0
  8 11  1  0  0  0  0
 32 35  1  0  0  0  0
 41 42  1  0  0  0  0
  7  8  1  0  0  0  0
 31 32  1  0  0  0  0
 22 27  1  0  0  0  0
 22 28  1  0  0  0  0
 21 25  1  0  0  0  0
 21 26  1  0  0  0  0
 23 29  1  0  0  0  0
 23 30  1  0  0  0  0
 18 24  1  0  0  0  0
  3  4  1  0  0  0  0
  3  5  1  0  0  0  0
  3  6  1  0  0  0  0
 11 14  1  0  0  0  0
 11 15  1  0  0  0  0
 11 16  1  0  0  0  0
 35 38  1  0  0  0  0
 35 39  1  0  0  0  0
 35 40  1  0  0  0  0
 42 44  1  0  0  0  0
 42 45  1  0  0  0  0
 42 46  1  0  0  0  0
  8 13  1  0  0  0  0
 32 37  1  0  0  0  0
 31 36  1  0  0  0  0
 41 43  1  0  0  0  0
  7 12  1  0  0  0  0
M  END
$$$$

  -OEChem-05262214473D

 46 46  0     1  0  0  0  0  0999 V2000
   -0.6012   -3.2995    3.8205 C   0  0  0  0  0  0  0  0  0  0  0  0
   -0.6574   -4.4683    3.4568 O   0  0  0  0  0  0  0  0  0  0  0  0
   -0.4935   -2.9859    5.2760 C   0  0  0  0  0  0  0  0  0  0  0  0
   -1.4789   -2.8689    5.7550 H   0  0  0  0  0  0  0  0  0  0  0  0
    0.0123   -3.7847    5.8419 H   0  0  0  0  0  0  0  0  0  0  0  0
    0.0585   -2.0642    5.5199 H   0  0  0  0  0  0  0  0  0  0  0  0
   -0.6261   -2.1849    2.9917 N   0  0  0  0  0  0  0  0  0  0  0  0
   -0.7237   -2.2601    1.5650 C   0  0  2  0  0  0  0  0  0  0  0  0
    0.1695   -1.1513    1.0687 C   0  0  0  0  0  0  0  0  0  0  0  0
    0.3193   -0.1267    1.7365 O   0  0  0  0  0  0  0  0  0  0  0  0
   -2.1397   -2.0663    1.0750 C   0  0  0  0  0  0  0  0  0  0  0  0
   -0.5717   -1.2606    3.4238 H   0  0  0  0  0  0  0  0  0  0  0  0
   -0.3076   -3.2111    1.2363 H   0  0  0  0  0  0  0  0  0  0  0  0
   -2.5584   -1.1089    1.4061 H   0  0  0  0  0  0  0  0  0  0  0  0
   -2.1682   -2.0790   -0.0197 H   0  0  0  0  0  0  0  0  0  0  0  0
   -2.7965   -2.8601    1.4459 H   0  0  0  0  0  0  0  0  0  0  0  0
    0.7724   -1.3745   -0.1593 N   0  0  0  0  0  0  0  0  0  0  0  0
    0.5614   -2.5964   -0.9244 C   0  0  2  0  0  0  0  0  0  0  0  0
   -0.0544   -3.5988    0.0049 C   0  0  0  0  0  0  0  0  0  0  0  0
   -1.2483   -3.8578   -0.0909 O   0  0  0  0  0  0  0  0  0  0  0  0
    1.9561   -3.0201   -1.3701 C   0  0  0  0  0  0  0  0  0  0  0  0
    2.4412   -1.5761   -1.2677 C   0  0  0  0  0  0  0  0  0  0  0  0
    1.5408   -0.3981   -0.9273 C   0  0  0  0  0  0  0  0  0  0  0  0
   -0.1236   -2.4233   -1.7599 H   0  0  0  0  0  0  0  0  0  0  0  0
    1.9168   -3.4270   -2.3876 H   0  0  0  0  0  0  0  0  0  0  0  0
    2.4180   -3.7645   -0.7143 H   0  0  0  0  0  0  0  0  0  0  0  0
    3.1835   -1.4790   -0.4671 H   0  0  0  0  0  0  0  0  0  0  0  0
    2.8940   -1.2255   -2.1995 H   0  0  0  0  0  0  0  0  0  0  0  0
    2.0756    0.4073   -0.4167 H   0  0  0  0  0  0  0  0  0  0  0  0
    1.0584    0.0055   -1.8242 H   0  0  0  0  0  0  0  0  0  0  0  0
    0.7886   -4.1559    0.9087 N   0  0  0  0  0  0  0  0  0  0  0  0
    1.0413   -4.6032    2.2596 C   0  0  2  0  0  0  0  0  0  0  0  0
    0.0629   -3.8887    3.1824 C   0  0  0  0  0  0  0  0  0  0  0  0
   -0.4827   -2.8270    2.8889 O   0  0  0  0  0  0  0  0  0  0  0  0
    2.4786   -4.3284    2.6738 C   0  0  0  0  0  0  0  0  0  0  0  0
    0.5466   -4.8492    0.2072 H   0  0  0  0  0  0  0  0  0  0  0  0
    0.8421   -5.6803    2.2786 H   0  0  0  0  0  0  0  0  0  0  0  0
    2.6969   -3.2544    2.6607 H   0  0  0  0  0  0  0  0  0  0  0  0
    2.6763   -4.6936    3.6870 H   0  0  0  0  0  0  0  0  0  0  0  0
    3.1813   -4.8187    1.9914 H   0  0  0  0  0  0  0  0  0  0  0  0
   -0.0963   -4.5539    4.3900 N   0  0  0  0  0  0  0  0  0  0  0  0
   -0.9629   -4.0692    5.4388 C   0  0  0  0  0  0  0  0  0  0  0  0
    0.3808   -5.4380    4.5402 H   0  0  0  0  0  0  0  0  0  0  0  0
   -0.3841   -3.4421    6.1329 H   0  0  0  0  0  0  0  0  0  0  0  0
   -1.7752   -3.4734    4.9970 H   0  0  0  0  0  0  0  0  0  0  0  0
   -1.3899   -4.9230    5.9854 H   0  0  0  0  0  0  0  0  0  0  0  0
 18 19  1  0  0  0  0
 19 31  1  0  0  0  0
 19 20  2  0  0  0  0
  8  9  1  0  0  0  0
  9 17  1  0  0  0  0
  9 10  2  0  0  0  0
  1  3  1  0  0  0  0
  1  7  1  0  0  0  0
  1  2  2  0  0  0  0
 32 33  1  0  0  0  0
 33 41  1  0  0  0  0
 33 34  2  0  0  0  0
 21 22  1  0  0  0  0
 22 23  1  0  0  0  0
 18 21  1  0  0  0  0
 17 23  1  0  0  0  0
 17 18  1  0  0  0  0
  8 11  1  0  0  0  0
 32 35  1  0  0  0  0
 41 42  1  0  0  0  0
  7  8  1  0  0  0  0
 31 32  1  0  0  0  0
 22 27  1  0  0  0  0
 22 28  1  0  0  0  0
 21 25  1  0  0  0  0
 21 26  1  0  0  0  0
 23 29  1  0  0  0  0
 23 30  1  0  0  0  0
 18 24  1  0  0  0  0
  3  4  1  0  0  0  0
  3  5  1  0  0  0  0
  3  6  1  0  0  0  0
 11 14  1  0  0  0  0
 11 15  1  0  0  0  0
 11 16  1  0  0  0  0
 35 38  1  0  0  0  0
 35 39  1  0  0  0  0
 35 40  1  0  0  0  0
 42 44  1  0  0  0  0
 42 45  1  0  0  0  0
 42 46  1  0  0  0  0
  8 13  1  0  0  0  0
 32 37  1  0  0  0  0
 31 36  1  0  0  0  0
 41 43  1  0  0  0  0
  7 12  1  0  0  0  0
M  END
$$$$

  -OEChem-05262214473D

 46 46  0     1  0  0  0  0  0999 V2000
   -0.6012   -3.2995    3.8205 C   0  0  0  0  0  0  0  0  0  0  0  0
   -0.6574   -4.4683    3.4568 O   0  0  0  0  0  0  0  0  0  0  0  0
   -0.4935   -2.9859    5.2760 C   0  0  0  0  0  0  0  0  0  0  0  0
   -1.4789   -2.8689    5.7550 H   0  0  0  0  0  0  0  0  0  0  0  0
    0.0123   -3.7847    5.8419 H   0  0  0  0  0  0  0  0  0  0  0  0
    0.0585   -2.0642    5.5199 H   0  0  0  0  0  0  0  0  0  0  0  0
   -0.6261   -2.1849    2.9917 N   0  0  0  0  0  0  0  0  0  0  0  0
   -0.7237   -2.2601    1.5650 C   0  0  2  0  0  0  0  0  0  0  0  0
    0.1695   -1.1513    1.0687 C   0  0  0  0  0  0  0  0  0  0  0  0
    0.3193   -0.1267    1.7365 O   0  0  0  0  0  0  0  0  0  0  0  0
   -2.1397   -2.0663    1.0750 C   0  0  0  0  0  0  0  0  0  0  0  0
   -0.5717   -1.2606    3.4238 H   0  0  0  0  0  0  0  0  0  0  0  0
   -0.3076   -3.2111    1.2363 H   0  0  0  0  0  0  0  0  0  0  0  0
   -2.5584   -1.1089    1.4061 H   0  0  0  0  0  0  0  0  0  0  0  0
   -2.1682   -2.0790   -0.0197 H   0  0  0  0  0  0  0  0  0  0  0  0
   -2.7965   -2.8601    1.4459 H   0  0  0  0  0  0  0  0  0  0  0  0
    0.7724   -1.3745   -0.1593 N   0  0  0  0  0  0  0  0  0  0  0  0
    0.5614   -2.5964   -0.9244 C   0  0  2  0  0  0  0  0  0  0  0  0
   -0.0544   -3.5988    0.0049 C   0  0  0  0  0  0  0  0  0  0  0  0
   -1.1580   -4.0644   -0.2540 O   0  0  0  0  0  0  0  0  0  0  0  0
    1.9561   -3.0201   -1.3701 C   0  0  0  0  0  0  0  0  0  0  0  0
    2.4412   -1.5761   -1.2677 C   0  0  0  0  0  0  0  0  0  0  0  0
    1.5408   -0.3981   -0.9273 C   0  0  0  0  0  0  0  0  0  0  0  0
   -0.1236   -2.4233   -1.7599 H   0  0  0  0  0  0  0  0  0  0  0  0
    1.9168   -3.4270   -2.3876 H   0  0  0  0  0  0  0  0  0  0  0  0
    2.4180   -3.7645   -0.7143 H   0  0  0  0  0  0  0  0  0  0  0  0
    3.1835   -1.4790   -0.4671 H   0  0  0  0  0  0  0  0  0  0  0  0
    2.8940   -1.2255   -2.1995 H   0  0  0  0  0  0  0  0  0  0  0  0
    2.0756    0.4073   -0.4167 H   0  0  0  0  0  0  0  0  0  0  0  0
    1.0584    0.0055   -1.8242 H   0  0  0  0  0  0  0  0  0  0  0  0
    0.6847   -3.9189    1.0954 N   0  0  0  0  0  0  0  0  0  0  0  0
    0.7523   -4.1904    2.5134 C   0  0  2  0  0  0  0  0  0  0  0  0
   -0.4741   -3.5704    3.1700 C   0  0  0  0  0  0  0  0  0  0  0  0
   -1.1113   -2.6484    2.6650 O   0  0  0  0  0  0  0  0  0  0  0  0
    2.0321   -3.6386    3.1220 C   0  0  0  0  0  0  0  0  0  0  0  0
    0.6817   -4.7049    0.4523 H   0  0  0  0  0  0  0  0  0  0  0  0
    0.7180   -5.2792    2.6290 H   0  0  0  0  0  0  0  0  0  0  0  0
    2.0843   -2.5489    3.0158 H   0  0  0  0  0  0  0  0  0  0  0  0
    2.0952   -3.8699    4.1904 H   0  0  0  0  0  0  0  0  0  0  0  0
    2.9130   -4.0632    2.6285 H   0  0  0  0  0  0  0  0  0  0  0  0
   -0.7477   -4.1388    4.4062 N   0  0  0  0  0  0  0  0  0  0  0  0
   -1.8536   -3.7136    5.2321 C   0  0  0  0  0  0  0  0  0  0  0  0
   -0.1779   -4.9113    4.7381 H   0  0  0  0  0  0  0  0  0  0  0  0
   -1.5121   -2.9361    5.9313 H   0  0  0  0  0  0  0  0  0  0  0  0
   -2.6526   -3.3077    4.5943 H   0  0  0  0  0  0  0  0  0  0  0  0
   -2.2389   -4.5734    5.7998 H   0  0  0  0  0  0  0  0  0  0  0  0
 18 19  1  0  0  0  0
 19 31  1  0  0  0  0
 19 20  2  0  0  0  0
  8  9  1  0  0  0  0
  9 17  1  0  0  0  0
  9 10  2  0  0  0  0
  1  3  1  0  0  0  0
  1  7  1  0  0  0  0
  1  2  2  0  0  0  0
 32 33  1  0  0  0  0
 33 41  1  0  0  0  0
 33 34  2  0  0  0  0
 21 22  1  0  0  0  0
 22 23  1  0  0  0  0
 18 21  1  0  0  0  0
 17 23  1  0  0  0  0
 17 18  1  0  0  0  0
  8 11  1  0  0  0  0
 32 35  1  0  0  0  0
 41 42  1  0  0  0  0
  7  8  1  0  0  0  0
 31 32  1  0  0  0  0
 22 27  1  0  0  0  0
 22 28  1  0  0  0  0
 21 25  1  0  0  0  0
 21 26  1  0  0  0  0
 23 29  1  0  0  0  0
 23 30  1  0  0  0  0
 18 24  1  0  0  0  0
  3  4  1  0  0  0  0
  3  5  1  0  0  0  0
  3  6  1  0  0  0  0
 11 14  1  0  0  0  0
 11 15  1  0  0  0  0
 11 16  1  0  0  0  0
 35 38  1  0  0  0  0
 35 39  1  0  0  0  0
 35 40  1  0  0  0  0
 42 44  1  0  0  0  0
 42 45  1  0  0  0  0
 42 46  1  0  0  0  0
  8 13  1  0  0  0  0
 32 37  1  0  0  0  0
 31 36  1  0  0  0  0
 41 43  1  0  0  0  0
  7 12  1  0  0  0  0
M  END
$$$$

  -OEChem-05262214473D

 46 46  0     1  0  0  0  0  0999 V2000
   -0.6012   -3.2995    3.8205 C   0  0  0  0  0  0  0  0  0  0  0  0
   -0.6574   -4.4683    3.4568 O   0  0  0  0  0  0  0  0  0  0  0  0
   -0.4935   -2.9859    5.2760 C   0  0  0  0  0  0  0  0  0  0  0  0
   -1.4789   -2.8689    5.7550 H   0  0  0  0  0  0  0  0  0  0  0  0
    0.0123   -3.7847    5.8419 H   0  0  0  0  0  0  0  0  0  0  0  0
    0.0585   -2.0642    5.5199 H   0  0  0  0  0  0  0  0  0  0  0  0
   -0.6261   -2.1849    2.9917 N   0  0  0  0  0  0  0  0  0  0  0  0
   -0.7237   -2.2601    1.5650 C   0  0  2  0  0  0  0  0  0  0  0  0
    0.1695   -1.1513    1.0687 C   0  0  0  0  0  0  0  0  0  0  0  0
    0.3193   -0.1267    1.7365 O   0  0  0  0  0  0  0  0  0  0  0  0
   -2.1397   -2.0663    1.0750 C   0  0  0  0  0  0  0  0  0  0  0  0
   -0.5717   -1.2606    3.4238 H   0  0  0  0  0  0  0  0  0  0  0  0
   -0.3076   -3.2111    1.2363 H   0  0  0  0  0  0  0  0  0  0  0  0
   -2.5584   -1.1089    1.4061 H   0  0  0  0  0  0  0  0  0  0  0  0
   -2.1682   -2.0790   -0.0197 H   0  0  0  0  0  0  0  0  0  0  0  0
   -2.7965   -2.8601    1.4459 H   0  0  0  0  0  0  0  0  0  0  0  0
    0.7724   -1.3745   -0.1593 N   0  0  0  0  0  0  0  0  0  0  0  0
    0.5614   -2.5964   -0.9244 C   0  0  2  0  0  0  0  0  0  0  0  0
   -0.0544   -3.5988    0.0049 C   0  0  0  0  0  0  0  0  0  0  0  0
   -1.0093   -4.2669   -0.3739 O   0  0  0  0  0  0  0  0  0  0  0  0
    1.9561   -3.0201   -1.3701 C   0  0  0  0  0  0  0  0  0  0  0  0
    2.4412   -1.5761   -1.2677 C   0  0  0  0  0  0  0  0  0  0  0  0
    1.5408   -0.3981   -0.9273 C   0  0  0  0  0  0  0  0  0  0  0  0
   -0.1236   -2.4233   -1.7599 H   0  0  0  0  0  0  0  0  0  0  0  0
    1.9168   -3.4270   -2.3876 H   0  0  0  0  0  0  0  0  0  0  0  0
    2.4180   -3.7645   -0.7143 H   0  0  0  0  0  0  0  0  0  0  0  0
    3.1835   -1.4790   -0.4671 H   0  0  0  0  0  0  0  0  0  0  0  0
    2.8940   -1.2255   -2.1995 H   0  0  0  0  0  0  0  0  0  0  0  0
    2.0756    0.4073   -0.4167 H   0  0  0  0  0  0  0  0  0  0  0  0
    1.0584    0.0055   -1.8242 H   0  0  0  0  0  0  0  0  0  0  0  0
    0.5139   -3.6869    1.2326 N   0  0  0  0  0  0  0  0  0  0  0  0
    0.3630   -3.8110    2.6646 C   0  0  2  0  0  0  0  0  0  0  0  0
   -1.0417   -3.3504    3.0311 C   0  0  0  0  0  0  0  0  0  0  0  0
   -1.7084   -2.6005    2.3210 O   0  0  0  0  0  0  0  0  0  0  0  0
    1.4125   -2.9962    3.4044 C   0  0  0  0  0  0  0  0  0  0  0  0
    0.7467   -4.5179    0.6972 H   0  0  0  0  0  0  0  0  0  0  0  0
    0.4731   -4.8745    2.9033 H   0  0  0  0  0  0  0  0  0  0  0  0
    1.3179   -1.9279    3.1777 H   0  0  0  0  0  0  0  0  0  0  0  0
    1.3147   -3.1139    4.4886 H   0  0  0  0  0  0  0  0  0  0  0  0
    2.4223   -3.3087    3.1172 H   0  0  0  0  0  0  0  0  0  0  0  0
   -1.4464   -3.8405    4.2649 N   0  0  0  0  0  0  0  0  0  0  0  0
   -2.7353   -3.5350    4.8405 C   0  0  0  0  0  0  0  0  0  0  0  0
   -0.8363   -4.4712    4.7765 H   0  0  0  0  0  0  0  0  0  0  0  0
   -2.6479   -2.6497    5.4875 H   0  0  0  0  0  0  0  0  0  0  0  0
   -3.4570   -3.3312    4.0359 H   0  0  0  0  0  0  0  0  0  0  0  0
   -3.0829   -4.3917    5.4366 H   0  0  0  0  0  0  0  0  0  0  0  0
 18 19  1  0  0  0  0
 19 31  1  0  0  0  0
 19 20  2  0  0  0  0
  8  9  1  0  0  0  0
  9 17  1  0  0  0  0
  9 10  2  0  0  0  0
  1  3  1  0  0  0  0
  1  7  1  0  0  0  0
  1  2  2  0  0  0  0
 32 33  1  0  0  0  0
 33 41  1  0  0  0  0
 33 34  2  0  0  0  0
 21 22  1  0  0  0  0
 22 23  1  0  0  0  0
 18 21  1  0  0  0  0
 17 23  1  0  0  0  0
 17 18  1  0  0  0  0
  8 11  1  0  0  0  0
 32 35  1  0  0  0  0
 41 42  1  0  0  0  0
  7  8  1  0  0  0  0
 31 32  1  0  0  0  0
 22 27  1  0  0  0  0
 22 28  1  0  0  0  0
 21 25  1  0  0  0  0
 21 26  1  0  0  0  0
 23 29  1  0  0  0  0
 23 30  1  0  0  0  0
 18 24  1  0  0  0  0
  3  4  1  0  0  0  0
  3  5  1  0  0  0  0
  3  6  1  0  0  0  0
 11 14  1  0  0  0  0
 11 15  1  0  0  0  0
 11 16  1  0  0  0  0
 35 38  1  0  0  0  0
 35 39  1  0  0  0  0
 35 40  1  0  0  0  0
 42 44  1  0  0  0  0
 42 45  1  0  0  0  0
 42 46  1  0  0  0  0
  8 13  1  0  0  0  0
 32 37  1  0  0  0  0
 31 36  1  0  0  0  0
 41 43  1  0  0  0  0
  7 12  1  0  0  0  0
M  END
$$$$

  -OEChem-05262214473D

 46 46  0     1  0  0  0  0  0999 V2000
   -0.6012   -3.2995    3.8205 C   0  0  0  0  0  0  0  0  0  0  0  0
   -0.6574   -4.4683    3.4568 O   0  0  0  0  0  0  0  0  0  0  0  0
   -0.4935   -2.9859    5.2760 C   0  0  0  0  0  0  0  0  0  0  0  0
   -1.4789   -2.8689    5.7550 H   0  0  0  0  0  0  0  0  0  0  0  0
    0.0123   -3.7847    5.8419 H   0  0  0  0  0  0  0  0  0  0  0  0
    0.0585   -2.0642    5.5199 H   0  0  0  0  0  0  0  0  0  0  0  0
   -0.6261   -2.1849    2.9917 N   0  0  0  0  0  0  0  0  0  0  0  0
   -0.7237   -2.2601    1.5650 C   0  0  2  0  0  0  0  0  0  0  0  0
    0.1695   -1.1513    1.0687 C   0  0  0  0  0  0  0  0  0  0  0  0
    0.3193   -0.1267    1.7365 O   0  0  0  0  0  0  0  0  0  0  0  0
   -2.1397   -2.0663    1.0750 C   0  0  0  0  0  0  0  0  0  0  0  0
   -0.5717   -1.2606    3.4238 H   0  0  0  0  0  0  0  0  0  0  0  0
   -0.3076   -3.2111    1.2363 H   0  0  0  0  0  0  0  0  0  0  0  0
   -2.5584   -1.1089    1.4061 H   0  0  0  0  0  0  0  0  0  0  0  0
   -2.1682   -2.0790   -0.0197 H   0  0  0  0  0  0  0  0  0  0  0  0
   -2.7965   -2.8601    1.4459 H   0  0  0  0  0  0  0  0  0  0  0  0
    0.7724   -1.3745   -0.1593 N   0  0  0  0  0  0  0  0  0  0  0  0
    0.5614   -2.5964   -0.9244 C   0  0  2  0  0  0  0  0  0  0  0  0
   -0.0544   -3.5988    0.0049 C   0  0  0  0  0  0  0  0  0  0  0  0
   -0.8125   -4.4514   -0.4424 O   0  0  0  0  0  0  0  0  0  0  0  0
    1.9561   -3.0201   -1.3701 C   0  0  0  0  0  0  0  0  0  0  0  0
    2.4412   -1.5761   -1.2677 C   0  0  0  0  0  0  0  0  0  0  0  0
    1.5408   -0.3981   -0.9273 C   0  0  0  0  0  0  0  0  0  0  0  0
   -0.1236   -2.4233   -1.7599 H   0  0  0  0  0  0  0  0  0  0  0  0
    1.9168   -3.4270   -2.3876 H   0  0  0  0  0  0  0  0  0  0  0  0
    2.4180   -3.7645   -0.7143 H   0  0  0  0  0  0  0  0  0  0  0  0
    3.1835   -1.4790   -0.4671 H   0  0  0  0  0  0  0  0  0  0  0  0
    2.8940   -1.2255   -2.1995 H   0  0  0  0  0  0  0  0  0  0  0  0
    2.0756    0.4073   -0.4167 H   0  0  0  0  0  0  0  0  0  0  0  0
    1.0584    0.0055   -1.8242 H   0  0  0  0  0  0  0  0  0  0  0  0
    0.2880   -3.4755    1.3108 N   0  0  0  0  0  0  0  0  0  0  0  0
   -0.1002   -3.4909    2.7030 C   0  0  2  0  0  0  0  0  0  0  0  0
   -1.6012   -3.2437    2.7754 C   0  0  0  0  0  0  0  0  0  0  0  0
   -2.2332   -2.6866    1.8803 O   0  0  0  0  0  0  0  0  0  0  0  0
    0.6622   -2.4451    3.5016 C   0  0  0  0  0  0  0  0  0  0  0  0
    0.7370   -4.3007    0.9250 H   0  0  0  0  0  0  0  0  0  0  0  0
    0.1242   -4.4937    3.0828 H   0  0  0  0  0  0  0  0  0  0  0  0
    0.4501   -1.4339    3.1355 H   0  0  0  0  0  0  0  0  0  0  0  0
    0.3878   -2.4773    4.5612 H   0  0  0  0  0  0  0  0  0  0  0  0
    1.7427   -2.6068    3.4240 H   0  0  0  0  0  0  0  0  0  0  0  0
   -2.1446   -3.6796    3.9758 N   0  0  0  0  0  0  0  0  0  0  0  0
   -3.5477   -3.5456    4.2907 C   0  0  0  0  0  0  0  0  0  0  0  0
   -1.5495   -4.1476    4.6530 H   0  0  0  0  0  0  0  0  0  0  0  0
   -3.7142   -2.6025    4.8319 H   0  0  0  0  0  0  0  0  0  0  0  0
   -4.1336   -3.5423    3.3597 H   0  0  0  0  0  0  0  0  0  0  0  0
   -3.8644   -4.3902    4.9203 H   0  0  0  0  0  0  0  0  0  0  0  0
 18 19  1  0  0  0  0
 19 31  1  0  0  0  0
 19 20  2  0  0  0  0
  8  9  1  0  0  0  0
  9 17  1  0  0  0  0
  9 10  2  0  0  0  0
  1  3  1  0  0  0  0
  1  7  1  0  0  0  0
  1  2  2  0  0  0  0
 32 33  1  0  0  0  0
 33 41  1  0  0  0  0
 33 34  2  0  0  0  0
 21 22  1  0  0  0  0
 22 23  1  0  0  0  0
 18 21  1  0  0  0  0
 17 23  1  0  0  0  0
 17 18  1  0  0  0  0
  8 11  1  0  0  0  0
 32 35  1  0  0  0  0
 41 42  1  0  0  0  0
  7  8  1  0  0  0  0
 31 32  1  0  0  0  0
 22 27  1  0  0  0  0
 22 28  1  0  0  0  0
 21 25  1  0  0  0  0
 21 26  1  0  0  0  0
 23 29  1  0  0  0  0
 23 30  1  0  0  0  0
 18 24  1  0  0  0  0
  3  4  1  0  0  0  0
  3  5  1  0  0  0  0
  3  6  1  0  0  0  0
 11 14  1  0  0  0  0
 11 15  1  0  0  0  0
 11 16  1  0  0  0  0
 35 38  1  0  0  0  0
 35 39  1  0  0  0  0
 35 40  1  0  0  0  0
 42 44  1  0  0  0  0
 42 45  1  0  0  0  0
 42 46  1  0  0  0  0
  8 13  1  0  0  0  0
 32 37  1  0  0  0  0
 31 36  1  0  0  0  0
 41 43  1  0  0  0  0
  7 12  1  0  0  0  0
M  END
$$$$

  -OEChem-05262214473D

 46 46  0     1  0  0  0  0  0999 V2000
   -0.6012   -3.2995    3.8205 C   0  0  0  0  0  0  0  0  0  0  0  0
   -0.6574   -4.4683    3.4568 O   0  0  0  0  0  0  0  0  0  0  0  0
   -0.4935   -2.9859    5.2760 C   0  0  0  0  0  0  0  0  0  0  0  0
   -1.4789   -2.8689    5.7550 H   0  0  0  0  0  0  0  0  0  0  0  0
    0.0123   -3.7847    5.8419 H   0  0  0  0  0  0  0  0  0  0  0  0
    0.0585   -2.0642    5.5199 H   0  0  0  0  0  0  0  0  0  0  0  0
   -0.6261   -2.1849    2.9917 N   0  0  0  0  0  0  0  0  0  0  0  0
   -0.7237   -2.2601    1.5650 C   0  0  2  0  0  0  0  0  0  0  0  0
    0.1695   -1.1513    1.0687 C   0  0  0  0  0  0  0  0  0  0  0  0
    0.3193   -0.1267    1.7365 O   0  0  0  0  0  0  0  0  0  0  0  0
   -2.1397   -2.0663    1.0750 C   0  0  0  0  0  0  0  0  0  0  0  0
   -0.5717   -1.2606    3.4238 H   0  0  0  0  0  0  0  0  0  0  0  0
   -0.3076   -3.2111    1.2363 H   0  0  0  0  0  0  0  0  0  0  0  0
   -2.5584   -1.1089    1.4061 H   0  0  0  0  0  0  0  0  0  0  0  0
   -2.1682   -2.0790   -0.0197 H   0  0  0  0  0  0  0  0  0  0  0  0
   -2.7965   -2.8601    1.4459 H   0  0  0  0  0  0  0  0  0  0  0  0
    0.7724   -1.3745   -0.1593 N   0  0  0  0  0  0  0  0  0  0  0  0
    0.5614   -2.5964   -0.9244 C   0  0  2  0  0  0  0  0  0  0  0  0
   -0.0544   -3.5988    0.0049 C   0  0  0  0  0  0  0  0  0  0  0  0
   -0.5810   -4.6052   -0.4550 O   0  0  0  0  0  0  0  0  0  0  0  0
    1.9561   -3.0201   -1.3701 C   0  0  0  0  0  0  0  0  0  0  0  0
    2.4412   -1.5761   -1.2677 C   0  0  0  0  0  0  0  0  0  0  0  0
    1.5408   -0.3981   -0.9273 C   0  0  0  0  0  0  0  0  0  0  0  0
   -0.1236   -2.4233   -1.7599 H   0  0  0  0  0  0  0  0  0  0  0  0
    1.9168   -3.4270   -2.3876 H   0  0  0  0  0  0  0  0  0  0  0  0
    2.4180   -3.7645   -0.7143 H   0  0  0  0  0  0  0  0  0  0  0  0
    3.1835   -1.4790   -0.4671 H   0  0  0  0  0  0  0  0  0  0  0  0
    2.8940   -1.2255   -2.1995 H   0  0  0  0  0  0  0  0  0  0  0  0
    2.0756    0.4073   -0.4167 H   0  0  0  0  0  0  0  0  0  0  0  0
    1.0584    0.0055   -1.8242 H   0  0  0  0  0  0  0  0  0  0  0  0
    0.0224   -3.2993    1.3249 N   0  0  0  0  0  0  0  0  0  0  0  0
   -0.6055   -3.2520    2.6259 C   0  0  2  0  0  0  0  0  0  0  0  0
   -2.1145   -3.2576    2.4203 C   0  0  0  0  0  0  0  0  0  0  0  0
   -2.6501   -2.9008    1.3730 O   0  0  0  0  0  0  0  0  0  0  0  0
   -0.1679   -2.0228    3.4071 C   0  0  0  0  0  0  0  0  0  0  0  0
    0.6534   -4.0683    1.1203 H   0  0  0  0  0  0  0  0  0  0  0  0
   -0.3051   -4.1627    3.1553 H   0  0  0  0  0  0  0  0  0  0  0  0
   -0.4602   -1.1004    2.8920 H   0  0  0  0  0  0  0  0  0  0  0  0
   -0.6222   -2.0032    4.4032 H   0  0  0  0  0  0  0  0  0  0  0  0
    0.9206   -2.0051    3.5282 H   0  0  0  0  0  0  0  0  0  0  0  0
   -2.7948   -3.6669    3.5587 N   0  0  0  0  0  0  0  0  0  0  0  0
   -4.2357   -3.7446    3.6202 C   0  0  0  0  0  0  0  0  0  0  0  0
   -2.2689   -3.9626    4.3758 H   0  0  0  0  0  0  0  0  0  0  0  0
   -4.6382   -2.7976    4.0090 H   0  0  0  0  0  0  0  0  0  0  0  0
   -4.6363   -3.9267    2.6120 H   0  0  0  0  0  0  0  0  0  0  0  0
   -4.5302   -4.5690    4.2862 H   0  0  0  0  0  0  0  0  0  0  0  0
 18 19  1  0  0  0  0
 19 31  1  0  0  0  0
 19 20  2  0  0  0  0
  8  9  1  0  0  0  0
  9 17  1  0  0  0  0
  9 10  2  0  0  0  0
  1  3  1  0  0  0  0
  1  7  1  0  0  0  0
  1  2  2  0  0  0  0
 32 33  1  0  0  0  0
 33 41  1  0  0  0  0
 33 34  2  0  0  0  0
 21 22  1  0  0  0  0
 22 23  1  0  0  0  0
 18 21  1  0  0  0  0
 17 23  1  0  0  0  0
 17 18  1  0  0  0  0
  8 11  1  0  0  0  0
 32 35  1  0  0  0  0
 41 42  1  0  0  0  0
  7  8  1  0  0  0  0
 31 32  1  0  0  0  0
 22 27  1  0  0  0  0
 22 28  1  0  0  0  0
 21 25  1  0  0  0  0
 21 26  1  0  0  0  0
 23 29  1  0  0  0  0
 23 30  1  0  0  0  0
 18 24  1  0  0  0  0
  3  4  1  0  0  0  0
  3  5  1  0  0  0  0
  3  6  1  0  0  0  0
 11 14  1  0  0  0  0
 11 15  1  0  0  0  0
 11 16  1  0  0  0  0
 35 38  1  0  0  0  0
 35 39  1  0  0  0  0
 35 40  1  0  0  0  0
 42 44  1  0  0  0  0
 42 45  1  0  0  0  0
 42 46  1  0  0  0  0
  8 13  1  0  0  0  0
 32 37  1  0  0  0  0
 31 36  1  0  0  0  0
 41 43  1  0  0  0  0
  7 12  1  0  0  0  0
M  END
$$$$

  -OEChem-05262214473D

 46 46  0     1  0  0  0  0  0999 V2000
   -0.6012   -3.2995    3.8205 C   0  0  0  0  0  0  0  0  0  0  0  0
   -0.6574   -4.4683    3.4568 O   0  0  0  0  0  0  0  0  0  0  0  0
   -0.4935   -2.9859    5.2760 C   0  0  0  0  0  0  0  0  0  0  0  0
   -1.4789   -2.8689    5.7550 H   0  0  0  0  0  0  0  0  0  0  0  0
    0.0123   -3.7847    5.8419 H   0  0  0  0  0  0  0  0  0  0  0  0
    0.0585   -2.0642    5.5199 H   0  0  0  0  0  0  0  0  0  0  0  0
   -0.6261   -2.1849    2.9917 N   0  0  0  0  0  0  0  0  0  0  0  0
   -0.7237   -2.2601    1.5650 C   0  0  2  0  0  0  0  0  0  0  0  0
    0.1695   -1.1513    1.0687 C   0  0  0  0  0  0  0  0  0  0  0  0
    0.3193   -0.1267    1.7365 O   0  0  0  0  0  0  0  0  0  0  0  0
   -2.1397   -2.0663    1.0750 C   0  0  0  0  0  0  0  0  0  0  0  0
   -0.5717   -1.2606    3.4238 H   0  0  0  0  0  0  0  0  0  0  0  0
   -0.3076   -3.2111    1.2363 H   0  0  0  0  0  0  0  0  0  0  0  0
   -2.5584   -1.1089    1.4061 H   0  0  0  0  0  0  0  0  0  0  0  0
   -2.1682   -2.0790   -0.0197 H   0  0  0  0  0  0  0  0  0  0  0  0
   -2.7965   -2.8601    1.4459 H   0  0  0  0  0  0  0  0  0  0  0  0
    0.7724   -1.3745   -0.1593 N   0  0  0  0  0  0  0  0  0  0  0  0
    0.5614   -2.5964   -0.9244 C   0  0  2  0  0  0  0  0  0  0  0  0
   -0.0544   -3.5988    0.0049 C   0  0  0  0  0  0  0  0  0  0  0  0
   -0.3304   -4.7181   -0.4107 O   0  0  0  0  0  0  0  0  0  0  0  0
    1.9561   -3.0201   -1.3701 C   0  0  0  0  0  0  0  0  0  0  0  0
    2.4412   -1.5761   -1.2677 C   0  0  0  0  0  0  0  0  0  0  0  0
    1.5408   -0.3981   -0.9273 C   0  0  0  0  0  0  0  0  0  0  0  0
   -0.1236   -2.4233   -1.7599 H   0  0  0  0  0  0  0  0  0  0  0  0
    1.9168   -3.4270   -2.3876 H   0  0  0  0  0  0  0  0  0  0  0  0
    2.4180   -3.7645   -0.7143 H   0  0  0  0  0  0  0  0  0  0  0  0
    3.1835   -1.4790   -0.4671 H   0  0  0  0  0  0  0  0  0  0  0  0
    2.8940   -1.2255   -2.1995 H   0  0  0  0  0  0  0  0  0  0  0  0
    2.0756    0.4073   -0.4167 H   0  0  0  0  0  0  0  0  0  0  0  0
    1.0584    0.0055   -1.8242 H   0  0  0  0  0  0  0  0  0  0  0  0
   -0.2649   -3.1702    1.2737 N   0  0  0  0  0  0  0  0  0  0  0  0
   -1.1186   -3.1105    2.4385 C   0  0  2  0  0  0  0  0  0  0  0  0
   -2.5466   -3.3911    1.9899 C   0  0  0  0  0  0  0  0  0  0  0  0
   -2.9307   -3.2286    0.8335 O   0  0  0  0  0  0  0  0  0  0  0  0
   -1.0210   -1.7581    3.1272 C   0  0  0  0  0  0  0  0  0  0  0  0
    0.5016   -3.8364    1.2698 H   0  0  0  0  0  0  0  0  0  0  0  0
   -0.7853   -3.9042    3.1160 H   0  0  0  0  0  0  0  0  0  0  0  0
   -1.3508   -0.9502    2.4638 H   0  0  0  0  0  0  0  0  0  0  0  0
   -1.6464   -1.7242    4.0254 H   0  0  0  0  0  0  0  0  0  0  0  0
    0.0119   -1.5448    3.4226 H   0  0  0  0  0  0  0  0  0  0  0  0
   -3.3527   -3.8032    3.0418 N   0  0  0  0  0  0  0  0  0  0  0  0
   -4.7522   -4.1185    2.8746 C   0  0  0  0  0  0  0  0  0  0  0  0
   -2.9455   -3.9288    3.9639 H   0  0  0  0  0  0  0  0  0  0  0  0
   -5.3571   -3.2218    3.0750 H   0  0  0  0  0  0  0  0  0  0  0  0
   -4.9308   -4.4581    1.8437 H   0  0  0  0  0  0  0  0  0  0  0  0
   -5.0348   -4.9160    3.5775 H   0  0  0  0  0  0  0  0  0  0  0  0
 18 19  1  0  0  0  0
 19 31  1  0  0  0  0
 19 20  2  0  0  0  0
  8  9  1  0  0  0  0
  9 17  1  0  0  0  0
  9 10  2  0  0  0  0
  1  3  1  0  0  0  0
  1  7  1  0  0  0  0
  1  2  2  0  0  0  0
 32 33  1  0  0  0  0
 33 41  1  0  0  0  0
 33 34  2  0  0  0  0
 21 22  1  0  0  0  0
 22 23  1  0  0  0  0
 18 21  1  0  0  0  0
 17 23  1  0  0  0  0
 17 18  1  0  0  0  0
  8 11  1  0  0  0  0
 32 35  1  0  0  0  0
 41 42  1  0  0  0  0
  7  8  1  0  0  0  0
 31 32  1  0  0  0  0
 22 27  1  0  0  0  0
 22 28  1  0  0  0  0
 21 25  1  0  0  0  0
 21 26  1  0  0  0  0
 23 29  1  0  0  0  0
 23 30  1  0  0  0  0
 18 24  1  0  0  0  0
  3  4  1  0  0  0  0
  3  5  1  0  0  0  0
  3  6  1  0  0  0  0
 11 14  1  0  0  0  0
 11 15  1  0  0  0  0
 11 16  1  0  0  0  0
 35 38  1  0  0  0  0
 35 39  1  0  0  0  0
 35 40  1  0  0  0  0
 42 44  1  0  0  0  0
 42 45  1  0  0  0  0
 42 46  1  0  0  0  0
  8 13  1  0  0  0  0
 32 37  1  0  0  0  0
 31 36  1  0  0  0  0
 41 43  1  0  0  0  0
  7 12  1  0  0  0  0
M  END
$$$$

  -OEChem-05262214473D

 46 46  0     1  0  0  0  0  0999 V2000
   -0.6012   -3.2995    3.8205 C   0  0  0  0  0  0  0  0  0  0  0  0
   -0.6574   -4.4683    3.4568 O   0  0  0  0  0  0  0  0  0  0  0  0
   -0.4935   -2.9859    5.2760 C   0  0  0  0  0  0  0  0  0  0  0  0
   -1.4789   -2.8689    5.7550 H   0  0  0  0  0  0  0  0  0  0  0  0
    0.0123   -3.7847    5.8419 H   0  0  0  0  0  0  0  0  0  0  0  0
    0.0585   -2.0642    5.5199 H   0  0  0  0  0  0  0  0  0  0  0  0
   -0.6261   -2.1849    2.9917 N   0  0  0  0  0  0  0  0  0  0  0  0
   -0.7237   -2.2601    1.5650 C   0  0  2  0  0  0  0  0  0  0  0  0
    0.1695   -1.1513    1.0687 C   0  0  0  0  0  0  0  0  0  0  0  0
    0.3193   -0.1267    1.7365 O   0  0  0  0  0  0  0  0  0  0  0  0
   -2.1397   -2.0663    1.0750 C   0  0  0  0  0  0  0  0  0  0  0  0
   -0.5717   -1.2606    3.4238 H   0  0  0  0  0  0  0  0  0  0  0  0
   -0.3076   -3.2111    1.2363 H   0  0  0  0  0  0  0  0  0  0  0  0
   -2.5584   -1.1089    1.4061 H   0  0  0  0  0  0  0  0  0  0  0  0
   -2.1682   -2.0790   -0.0197 H   0  0  0  0  0  0  0  0  0  0  0  0
   -2.7965   -2.8601    1.4459 H   0  0  0  0  0  0  0  0  0  0  0  0
    0.7724   -1.3745   -0.1593 N   0  0  0  0  0  0  0  0  0  0  0  0
    0.5614   -2.5964   -0.9244 C   0  0  2  0  0  0  0  0  0  0  0  0
   -0.0544   -3.5988    0.0049 C   0  0  0  0  0  0  0  0  0  0  0  0
   -0.0780   -4.7822   -0.3125 O   0  0  0  0  0  0  0  0  0  0  0  0
    1.9561   -3.0201   -1.3701 C   0  0  0  0  0  0  0  0  0  0  0  0
    2.4412   -1.5761   -1.2677 C   0  0  0  0  0  0  0  0  0  0  0  0
    1.5408   -0.3981   -0.9273 C   0  0  0  0  0  0  0  0  0  0  0  0
   -0.1236   -2.4233   -1.7599 H   0  0  0  0  0  0  0  0  0  0  0  0
    1.9168   -3.4270   -2.3876 H   0  0  0  0  0  0  0  0  0  0  0  0
    2.4180   -3.7645   -0.7143 H   0  0  0  0  0  0  0  0  0  0  0  0
    3.1835   -1.4790   -0.4671 H   0  0  0  0  0  0  0  0  0  0  0  0
    2.8940   -1.2255   -2.1995 H   0  0  0  0  0  0  0  0  0  0  0  0
    2.0756    0.4073   -0.4167 H   0  0  0  0  0  0  0  0  0  0  0  0
    1.0584    0.0055   -1.8242 H   0  0  0  0  0  0  0  0  0  0  0  0
   -0.5543   -3.0971    1.1609 N   0  0  0  0  0  0  0  0  0  0  0  0
   -1.6045   -3.0760    2.1537 C   0  0  2  0  0  0  0  0  0  0  0  0
   -2.8682   -3.6352    1.5136 C   0  0  0  0  0  0  0  0  0  0  0  0
   -3.0557   -3.6475    0.2988 O   0  0  0  0  0  0  0  0  0  0  0  0
   -1.8391   -1.6690    2.6811 C   0  0  0  0  0  0  0  0  0  0  0  0
    0.2919   -3.6209    1.3633 H   0  0  0  0  0  0  0  0  0  0  0  0
   -1.2838   -3.7357    2.9673 H   0  0  0  0  0  0  0  0  0  0  0  0
   -2.1611   -0.9935    1.8802 H   0  0  0  0  0  0  0  0  0  0  0  0
   -2.6152   -1.6592    3.4536 H   0  0  0  0  0  0  0  0  0  0  0  0
   -0.9214   -1.2571    3.1144 H   0  0  0  0  0  0  0  0  0  0  0  0
   -3.7803   -4.0794    2.4606 N   0  0  0  0  0  0  0  0  0  0  0  0
   -5.0621   -4.6418    2.1047 C   0  0  0  0  0  0  0  0  0  0  0  0
   -3.5332   -4.0484    3.4453 H   0  0  0  0  0  0  0  0  0  0  0  0
   -5.8218   -3.8462    2.0936 H   0  0  0  0  0  0  0  0  0  0  0  0
   -4.9970   -5.1003    1.1070 H   0  0  0  0  0  0  0  0  0  0  0  0
   -5.3440   -5.4074    2.8425 H   0  0  0  0  0  0  0  0  0  0  0  0
 18 19  1  0  0  0  0
 19 31  1  0  0  0  0
 19 20  2  0  0  0  0
  8  9  1  0  0  0  0
  9 17  1  0  0  0  0
  9 10  2  0  0  0  0
  1  3  1  0  0  0  0
  1  7  1  0  0  0  0
  1  2  2  0  0  0  0
 32 33  1  0  0  0  0
 33 41  1  0  0  0  0
 33 34  2  0  0  0  0
 21 22  1  0  0  0  0
 22 23  1  0  0  0  0
 18 21  1  0  0  0  0
 17 23  1  0  0  0  0
 17 18  1  0  0  0  0
  8 11  1  0  0  0  0
 32 35  1  0  0  0  0
 41 42  1  0  0  0  0
  7  8  1  0  0  0  0
 31 32  1  0  0  0  0
 22 27  1  0  0  0  0
 22 28  1  0  0  0  0
 21 25  1  0  0  0  0
 21 26  1  0  0  0  0
 23 29  1  0  0  0  0
 23 30  1  0  0  0  0
 18 24  1  0  0  0  0
  3  4  1  0  0  0  0
  3  5  1  0  0  0  0
  3  6  1  0  0  0  0
 11 14  1  0  0  0  0
 11 15  1  0  0  0  0
 11 16  1  0  0  0  0
 35 38  1  0  0  0  0
 35 39  1  0  0  0  0
 35 40  1  0  0  0  0
 42 44  1  0  0  0  0
 42 45  1  0  0  0  0
 42 46  1  0  0  0  0
  8 13  1  0  0  0  0
 32 37  1  0  0  0  0
 31 36  1  0  0  0  0
 41 43  1  0  0  0  0
  7 12  1  0  0  0  0
M  END
$$$$

  -OEChem-05262214473D

 46 46  0     1  0  0  0  0  0999 V2000
   -0.6012   -3.2995    3.8205 C   0  0  0  0  0  0  0  0  0  0  0  0
   -0.6574   -4.4683    3.4568 O   0  0  0  0  0  0  0  0  0  0  0  0
   -0.4935   -2.9859    5.2760 C   0  0  0  0  0  0  0  0  0  0  0  0
   -1.4789   -2.8689    5.7550 H   0  0  0  0  0  0  0  0  0  0  0  0
    0.0123   -3.7847    5.8419 H   0  0  0  0  0  0  0  0  0  0  0  0
    0.0585   -2.0642    5.5199 H   0  0  0  0  0  0  0  0  0  0  0  0
   -0.6261   -2.1849    2.9917 N   0  0  0  0  0  0  0  0  0  0  0  0
   -0.7237   -2.2601    1.5650 C   0  0  2  0  0  0  0  0  0  0  0  0
    0.1695   -1.1513    1.0687 C   0  0  0  0  0  0  0  0  0  0  0  0
    0.3193   -0.1267    1.7365 O   0  0  0  0  0  0  0  0  0  0  0  0
   -2.1397   -2.0663    1.0750 C   0  0  0  0  0  0  0  0  0  0  0  0
   -0.5717   -1.2606    3.4238 H   0  0  0  0  0  0  0  0  0  0  0  0
   -0.3076   -3.2111    1.2363 H   0  0  0  0  0  0  0  0  0  0  0  0
   -2.5584   -1.1089    1.4061 H   0  0  0  0  0  0  0  0  0  0  0  0
   -2.1682   -2.0790   -0.0197 H   0  0  0  0  0  0  0  0  0  0  0  0
   -2.7965   -2.8601    1.4459 H   0  0  0  0  0  0  0  0  0  0  0  0
    0.7724   -1.3745   -0.1593 N   0  0  0  0  0  0  0  0  0  0  0  0
    0.5614   -2.5964   -0.9244 C   0  0  2  0  0  0  0  0  0  0  0  0
   -0.0544   -3.5988    0.0049 C   0  0  0  0  0  0  0  0  0  0  0  0
    0.1591   -4.7931   -0.1672 O   0  0  0  0  0  0  0  0  0  0  0  0
    1.9561   -3.0201   -1.3701 C   0  0  0  0  0  0  0  0  0  0  0  0
    2.4412   -1.5761   -1.2677 C   0  0  0  0  0  0  0  0  0  0  0  0
    1.5408   -0.3981   -0.9273 C   0  0  0  0  0  0  0  0  0  0  0  0
   -0.1236   -2.4233   -1.7599 H   0  0  0  0  0  0  0  0  0  0  0  0
    1.9168   -3.4270   -2.3876 H   0  0  0  0  0  0  0  0  0  0  0  0
    2.4180   -3.7645   -0.7143 H   0  0  0  0  0  0  0  0  0  0  0  0
    3.1835   -1.4790   -0.4671 H   0  0  0  0  0  0  0  0  0  0  0  0
    2.8940   -1.2255   -2.1995 H   0  0  0  0  0  0  0  0  0  0  0  0
    2.0756    0.4073   -0.4167 H   0  0  0  0  0  0  0  0  0  0  0  0
    1.0584    0.0055   -1.8242 H   0  0  0  0  0  0  0  0  0  0  0  0
   -0.8260   -3.0848    0.9941 N   0  0  0  0  0  0  0  0  0  0  0  0
   -2.0300   -3.1509    1.7909 C   0  0  2  0  0  0  0  0  0  0  0  0
   -3.0571   -3.9732    1.0238 C   0  0  0  0  0  0  0  0  0  0  0  0
   -3.0167   -4.1291   -0.1949 O   0  0  0  0  0  0  0  0  0  0  0  0
   -2.5665   -1.7617    2.0992 C   0  0  0  0  0  0  0  0  0  0  0  0
    0.0386   -3.4365    1.3944 H   0  0  0  0  0  0  0  0  0  0  0  0
   -1.7667   -3.6688    2.7196 H   0  0  0  0  0  0  0  0  0  0  0  0
   -2.8358   -1.2274    1.1808 H   0  0  0  0  0  0  0  0  0  0  0  0
   -3.4624   -1.8126    2.7267 H   0  0  0  0  0  0  0  0  0  0  0  0
   -1.8157   -1.1617    2.6247 H   0  0  0  0  0  0  0  0  0  0  0  0
   -4.0484   -4.4766    1.8545 N   0  0  0  0  0  0  0  0  0  0  0  0
   -5.1443   -5.2788    1.3631 C   0  0  0  0  0  0  0  0  0  0  0  0
   -3.9920   -4.3135    2.8555 H   0  0  0  0  0  0  0  0  0  0  0  0
   -6.0006   -4.6282    1.1315 H   0  0  0  0  0  0  0  0  0  0  0  0
   -4.8304   -5.8096    0.4523 H   0  0  0  0  0  0  0  0  0  0  0  0
   -5.4366   -6.0098    2.1313 H   0  0  0  0  0  0  0  0  0  0  0  0
 18 19  1  0  0  0  0
 19 31  1  0  0  0  0
 19 20  2  0  0  0  0
  8  9  1  0  0  0  0
  9 17  1  0  0  0  0
  9 10  2  0  0  0  0
  1  3  1  0  0  0  0
  1  7  1  0  0  0  0
  1  2  2  0  0  0  0
 32 33  1  0  0  0  0
 33 41  1  0  0  0  0
 33 34  2  0  0  0  0
 21 22  1  0  0  0  0
 22 23  1  0  0  0  0
 18 21  1  0  0  0  0
 17 23  1  0  0  0  0
 17 18  1  0  0  0  0
  8 11  1  0  0  0  0
 32 35  1  0  0  0  0
 41 42  1  0  0  0  0
  7  8  1  0  0  0  0
 31 32  1  0  0  0  0
 22 27  1  0  0  0  0
 22 28  1  0  0  0  0
 21 25  1  0  0  0  0
 21 26  1  0  0  0  0
 23 29  1  0  0  0  0
 23 30  1  0  0  0  0
 18 24  1  0  0  0  0
  3  4  1  0  0  0  0
  3  5  1  0  0  0  0
  3  6  1  0  0  0  0
 11 14  1  0  0  0  0
 11 15  1  0  0  0  0
 11 16  1  0  0  0  0
 35 38  1  0  0  0  0
 35 39  1  0  0  0  0
 35 40  1  0  0  0  0
 42 44  1  0  0  0  0
 42 45  1  0  0  0  0
 42 46  1  0  0  0  0
  8 13  1  0  0  0  0
 32 37  1  0  0  0  0
 31 36  1  0  0  0  0
 41 43  1  0  0  0  0
  7 12  1  0  0  0  0
M  END
$$$$

  -OEChem-05262214473D

 46 46  0     1  0  0  0  0  0999 V2000
   -0.6012   -3.2995    3.8205 C   0  0  0  0  0  0  0  0  0  0  0  0
   -0.6574   -4.4683    3.4568 O   0  0  0  0  0  0  0  0  0  0  0  0
   -0.4935   -2.9859    5.2760 C   0  0  0  0  0  0  0  0  0  0  0  0
   -1.4789   -2.8689    5.7550 H   0  0  0  0  0  0  0  0  0  0  0  0
    0.0123   -3.7847    5.8419 H   0  0  0  0  0  0  0  0  0  0  0  0
    0.0585   -2.0642    5.5199 H   0  0  0  0  0  0  0  0  0  0  0  0
   -0.6261   -2.1849    2.9917 N   0  0  0  0  0  0  0  0  0  0  0  0
   -0.7237   -2.2601    1.5650 C   0  0  2  0  0  0  0  0  0  0  0  0
    0.1695   -1.1513    1.0687 C   0  0  0  0  0  0  0  0  0  0  0  0
    0.3193   -0.1267    1.7365 O   0  0  0  0  0  0  0  0  0  0  0  0
   -2.1397   -2.0663    1.0750 C   0  0  0  0  0  0  0  0  0  0  0  0
   -0.5717   -1.2606    3.4238 H   0  0  0  0  0  0  0  0  0  0  0  0
   -0.3076   -3.2111    1.2363 H   0  0  0  0  0  0  0  0  0  0  0  0
   -2.5584   -1.1089    1.4061 H   0  0  0  0  0  0  0  0  0  0  0  0
   -2.1682   -2.0790   -0.0197 H   0  0  0  0  0  0  0  0  0  0  0  0
   -2.7965   -2.8601    1.4459 H   0  0  0  0  0  0  0  0  0  0  0  0
    0.7724   -1.3745   -0.1593 N   0  0  0  0  0  0  0  0  0  0  0  0
    0.5614   -2.5964   -0.9244 C   0  0  2  0  0  0  0  0  0  0  0  0
   -0.0544   -3.5988    0.0049 C   0  0  0  0  0  0  0  0  0  0  0  0
    0.3648   -4.7502    0.0153 O   0  0  0  0  0  0  0  0  0  0  0  0
    1.9561   -3.0201   -1.3701 C   0  0  0  0  0  0  0  0  0  0  0  0
    2.4412   -1.5761   -1.2677 C   0  0  0  0  0  0  0  0  0  0  0  0
    1.5408   -0.3981   -0.9273 C   0  0  0  0  0  0  0  0  0  0  0  0
   -0.1236   -2.4233   -1.7599 H   0  0  0  0  0  0  0  0  0  0  0  0
    1.9168   -3.4270   -2.3876 H   0  0  0  0  0  0  0  0  0  0  0  0
    2.4180   -3.7645   -0.7143 H   0  0  0  0  0  0  0  0  0  0  0  0
    3.1835   -1.4790   -0.4671 H   0  0  0  0  0  0  0  0  0  0  0  0
    2.8940   -1.2255   -2.1995 H   0  0  0  0  0  0  0  0  0  0  0  0
    2.0756    0.4073   -0.4167 H   0  0  0  0  0  0  0  0  0  0  0  0
    1.0584    0.0055   -1.8242 H   0  0  0  0  0  0  0  0  0  0  0  0
   -1.0616   -3.1343    0.7846 N   0  0  0  0  0  0  0  0  0  0  0  0
   -2.3663   -3.3301    1.3747 C   0  0  2  0  0  0  0  0  0  0  0  0
   -3.1007   -4.3820    0.5539 C   0  0  0  0  0  0  0  0  0  0  0  0
   -2.8164   -4.6405   -0.6138 O   0  0  0  0  0  0  0  0  0  0  0  0
   -3.1534   -2.0297    1.4211 C   0  0  0  0  0  0  0  0  0  0  0  0
   -0.2411   -3.2956    1.3610 H   0  0  0  0  0  0  0  0  0  0  0  0
   -2.2009   -3.7079    2.3896 H   0  0  0  0  0  0  0  0  0  0  0  0
   -3.3289   -1.6359    0.4133 H   0  0  0  0  0  0  0  0  0  0  0  0
   -4.1303   -2.1739    1.8943 H   0  0  0  0  0  0  0  0  0  0  0  0
   -2.6100   -1.2652    1.9867 H   0  0  0  0  0  0  0  0  0  0  0  0
   -4.1388   -4.9676    1.2649 N   0  0  0  0  0  0  0  0  0  0  0  0
   -4.9932   -5.9861    0.7003 C   0  0  0  0  0  0  0  0  0  0  0  0
   -4.2905   -4.7057    2.2345 H   0  0  0  0  0  0  0  0  0  0  0  0
   -5.8814   -5.5146    0.2545 H   0  0  0  0  0  0  0  0  0  0  0  0
   -4.4425   -6.5376   -0.0759 H   0  0  0  0  0  0  0  0  0  0  0  0
   -5.3064   -6.6822    1.4923 H   0  0  0  0  0  0  0  0  0  0  0  0
 18 19  1  0  0  0  0
 19 31  1  0  0  0  0
 19 20  2  0  0  0  0
  8  9  1  0  0  0  0
  9 17  1  0  0  0  0
  9 10  2  0  0  0  0
  1  3  1  0  0  0  0
  1  7  1  0  0  0  0
  1  2  2  0  0  0  0
 32 33  1  0  0  0  0
 33 41  1  0  0  0  0
 33 34  2  0  0  0  0
 21 22  1  0  0  0  0
 22 23  1  0  0  0  0
 18 21  1  0  0  0  0
 17 23  1  0  0  0  0
 17 18  1  0  0  0  0
  8 11  1  0  0  0  0
 32 35  1  0  0  0  0
 41 42  1  0  0  0  0
  7  8  1  0  0  0  0
 31 32  1  0  0  0  0
 22 27  1  0  0  0  0
 22 28  1  0  0  0  0
 21 25  1  0  0  0  0
 21 26  1  0  0  0  0
 23 29  1  0  0  0  0
 23 30  1  0  0  0  0
 18 24  1  0  0  0  0
  3  4  1  0  0  0  0
  3  5  1  0  0  0  0
  3  6  1  0  0  0  0
 11 14  1  0  0  0  0
 11 15  1  0  0  0  0
 11 16  1  0  0  0  0
 35 38  1  0  0  0  0
 35 39  1  0  0  0  0
 35 40  1  0  0  0  0
 42 44  1  0  0  0  0
 42 45  1  0  0  0  0
 42 46  1  0  0  0  0
  8 13  1  0  0  0  0
 32 37  1  0  0  0  0
 31 36  1  0  0  0  0
 41 43  1  0  0  0  0
  7 12  1  0  0  0  0
M  END
$$$$

  -OEChem-05262214473D

 46 46  0     1  0  0  0  0  0999 V2000
   -0.6012   -3.2995    3.8205 C   0  0  0  0  0  0  0  0  0  0  0  0
   -0.6574   -4.4683    3.4568 O   0  0  0  0  0  0  0  0  0  0  0  0
   -0.4935   -2.9859    5.2760 C   0  0  0  0  0  0  0  0  0  0  0  0
   -1.4789   -2.8689    5.7550 H   0  0  0  0  0  0  0  0  0  0  0  0
    0.0123   -3.7847    5.8419 H   0  0  0  0  0  0  0  0  0  0  0  0
    0.0585   -2.0642    5.5199 H   0  0  0  0  0  0  0  0  0  0  0  0
   -0.6261   -2.1849    2.9917 N   0  0  0  0  0  0  0  0  0  0  0  0
   -0.7237   -2.2601    1.5650 C   0  0  2  0  0  0  0  0  0  0  0  0
    0.1695   -1.1513    1.0687 C   0  0  0  0  0  0  0  0  0  0  0  0
    0.3193   -0.1267    1.7365 O   0  0  0  0  0  0  0  0  0  0  0  0
   -2.1397   -2.0663    1.0750 C   0  0  0  0  0  0  0  0  0  0  0  0
   -0.5717   -1.2606    3.4238 H   0  0  0  0  0  0  0  0  0  0  0  0
   -0.3076   -3.2111    1.2363 H   0  0  0  0  0  0  0  0  0  0  0  0
   -2.5584   -1.1089    1.4061 H   0  0  0  0  0  0  0  0  0  0  0  0
   -2.1682   -2.0790   -0.0197 H   0  0  0  0  0  0  0  0  0  0  0  0
   -2.7965   -2.8601    1.4459 H   0  0  0  0  0  0  0  0  0  0  0  0
    0.7724   -1.3745   -0.1593 N   0  0  0  0  0  0  0  0  0  0  0  0
    0.5614   -2.5964   -0.9244 C   0  0  2  0  0  0  0  0  0  0  0  0
   -0.0544   -3.5988    0.0049 C   0  0  0  0  0  0  0  0  0  0  0  0
    0.5250   -4.6564    0.2227 O   0  0  0  0  0  0  0  0  0  0  0  0
    1.9561   -3.0201   -1.3701 C   0  0  0  0  0  0  0  0  0  0  0  0
    2.4412   -1.5761   -1.2677 C   0  0  0  0  0  0  0  0  0  0  0  0
    1.5408   -0.3981   -0.9273 C   0  0  0  0  0  0  0  0  0  0  0  0
   -0.1236   -2.4233   -1.7599 H   0  0  0  0  0  0  0  0  0  0  0  0
    1.9168   -3.4270   -2.3876 H   0  0  0  0  0  0  0  0  0  0  0  0
    2.4180   -3.7645   -0.7143 H   0  0  0  0  0  0  0  0  0  0  0  0
    3.1835   -1.4790   -0.4671 H   0  0  0  0  0  0  0  0  0  0  0  0
    2.8940   -1.2255   -2.1995 H   0  0  0  0  0  0  0  0  0  0  0  0
    2.0756    0.4073   -0.4167 H   0  0  0  0  0  0  0  0  0  0  0  0
    1.0584    0.0055   -1.8242 H   0  0  0  0  0  0  0  0  0  0  0  0
   -1.2449   -3.2422    0.5467 N   0  0  0  0  0  0  0  0  0  0  0  0
   -2.5904   -3.6014    0.9336 C   0  0  2  0  0  0  0  0  0  0  0  0
   -2.9959   -4.8338    0.1360 C   0  0  0  0  0  0  0  0  0  0  0  0
   -2.4684   -5.1469   -0.9293 O   0  0  0  0  0  0  0  0  0  0  0  0
   -3.5601   -2.4549    0.6930 C   0  0  0  0  0  0  0  0  0  0  0  0
   -0.5280   -3.2080    1.2653 H   0  0  0  0  0  0  0  0  0  0  0  0
   -2.5570   -3.8505    1.9999 H   0  0  0  0  0  0  0  0  0  0  0  0
   -3.6069   -2.1912   -0.3699 H   0  0  0  0  0  0  0  0  0  0  0  0
   -4.5735   -2.7186    1.0131 H   0  0  0  0  0  0  0  0  0  0  0  0
   -3.2503   -1.5603    1.2440 H   0  0  0  0  0  0  0  0  0  0  0  0
   -4.0453   -5.5192    0.7319 N   0  0  0  0  0  0  0  0  0  0  0  0
   -4.6190   -6.7156    0.1614 C   0  0  0  0  0  0  0  0  0  0  0  0
   -4.4085   -5.1986    1.6247 H   0  0  0  0  0  0  0  0  0  0  0  0
   -5.4723   -6.4448   -0.4778 H   0  0  0  0  0  0  0  0  0  0  0  0
   -3.8595   -7.2347   -0.4415 H   0  0  0  0  0  0  0  0  0  0  0  0
   -4.9621   -7.3787    0.9692 H   0  0  0  0  0  0  0  0  0  0  0  0
 18 19  1  0  0  0  0
 19 31  1  0  0  0  0
 19 20  2  0  0  0  0
  8  9  1  0  0  0  0
  9 17  1  0  0  0  0
  9 10  2  0  0  0  0
  1  3  1  0  0  0  0
  1  7  1  0  0  0  0
  1  2  2  0  0  0  0
 32 33  1  0  0  0  0
 33 41  1  0  0  0  0
 33 34  2  0  0  0  0
 21 22  1  0  0  0  0
 22 23  1  0  0  0  0
 18 21  1  0  0  0  0
 17 23  1  0  0  0  0
 17 18  1  0  0  0  0
  8 11  1  0  0  0  0
 32 35  1  0  0  0  0
 41 42  1  0  0  0  0
  7  8  1  0  0  0  0
 31 32  1  0  0  0  0
 22 27  1  0  0  0  0
 22 28  1  0  0  0  0
 21 25  1  0  0  0  0
 21 26  1  0  0  0  0
 23 29  1  0  0  0  0
 23 30  1  0  0  0  0
 18 24  1  0  0  0  0
  3  4  1  0  0  0  0
  3  5  1  0  0  0  0
  3  6  1  0  0  0  0
 11 14  1  0  0  0  0
 11 15  1  0  0  0  0
 11 16  1  0  0  0  0
 35 38  1  0  0  0  0
 35 39  1  0  0  0  0
 35 40  1  0  0  0  0
 42 44  1  0  0  0  0
 42 45  1  0  0  0  0
 42 46  1  0  0  0  0
  8 13  1  0  0  0  0
 32 37  1  0  0  0  0
 31 36  1  0  0  0  0
 41 43  1  0  0  0  0
  7 12  1  0  0  0  0
M  END
$$$$

  -OEChem-05262214473D

 46 46  0     1  0  0  0  0  0999 V2000
   -0.6012   -3.2995    3.8205 C   0  0  0  0  0  0  0  0  0  0  0  0
   -0.6574   -4.4683    3.4568 O   0  0  0  0  0  0  0  0  0  0  0  0
   -0.4935   -2.9859    5.2760 C   0  0  0  0  0  0  0  0  0  0  0  0
   -1.4789   -2.8689    5.7550 H   0  0  0  0  0  0  0  0  0  0  0  0
    0.0123   -3.7847    5.8419 H   0  0  0  0  0  0  0  0  0  0  0  0
    0.0585   -2.0642    5.5199 H   0  0  0  0  0  0  0  0  0  0  0  0
   -0.6261   -2.1849    2.9917 N   0  0  0  0  0  0  0  0  0  0  0  0
   -0.7237   -2.2601    1.5650 C   0  0  2  0  0  0  0  0  0  0  0  0
    0.1695   -1.1513    1.0687 C   0  0  0  0  0  0  0  0  0  0  0  0
    0.3193   -0.1267    1.7365 O   0  0  0  0  0  0  0  0  0  0  0  0
   -2.1397   -2.0663    1.0750 C   0  0  0  0  0  0  0  0  0  0  0  0
   -0.5717   -1.2606    3.4238 H   0  0  0  0  0  0  0  0  0  0  0  0
   -0.3076   -3.2111    1.2363 H   0  0  0  0  0  0  0  0  0  0  0  0
   -2.5584   -1.1089    1.4061 H   0  0  0  0  0  0  0  0  0  0  0  0
   -2.1682   -2.0790   -0.0197 H   0  0  0  0  0  0  0  0  0  0  0  0
   -2.7965   -2.8601    1.4459 H   0  0  0  0  0  0  0  0  0  0  0  0
    0.7724   -1.3745   -0.1593 N   0  0  0  0  0  0  0  0  0  0  0  0
    0.5614   -2.5964   -0.9244 C   0  0  2  0  0  0  0  0  0  0  0  0
   -0.0544   -3.5988    0.0049 C   0  0  0  0  0  0  0  0  0  0  0  0
    0.6287   -4.5180    0.4407 O   0  0  0  0  0  0  0  0  0  0  0  0
    1.9561   -3.0201   -1.3701 C   0  0  0  0  0  0  0  0  0  0  0  0
    2.4412   -1.5761   -1.2677 C   0  0  0  0  0  0  0  0  0  0  0  0
    1.5408   -0.3981   -0.9273 C   0  0  0  0  0  0  0  0  0  0  0  0
   -0.1236   -2.4233   -1.7599 H   0  0  0  0  0  0  0  0  0  0  0  0
    1.9168   -3.4270   -2.3876 H   0  0  0  0  0  0  0  0  0  0  0  0
    2.4180   -3.7645   -0.7143 H   0  0  0  0  0  0  0  0  0  0  0  0
    3.1835   -1.4790   -0.4671 H   0  0  0  0  0  0  0  0  0  0  0  0
    2.8940   -1.2255   -2.1995 H   0  0  0  0  0  0  0  0  0  0  0  0
    2.0756    0.4073   -0.4167 H   0  0  0  0  0  0  0  0  0  0  0  0
    1.0584    0.0055   -1.8242 H   0  0  0  0  0  0  0  0  0  0  0  0
   -1.3635   -3.4011    0.2967 N   0  0  0  0  0  0  0  0  0  0  0  0
   -2.6869   -3.9463    0.4976 C   0  0  2  0  0  0  0  0  0  0  0  0
   -2.7498   -5.2979   -0.2015 C   0  0  0  0  0  0  0  0  0  0  0  0
   -1.9964   -5.6137   -1.1201 O   0  0  0  0  0  0  0  0  0  0  0  0
   -3.7586   -3.0083   -0.0355 C   0  0  0  0  0  0  0  0  0  0  0  0
   -0.8027   -3.1796    1.1139 H   0  0  0  0  0  0  0  0  0  0  0  0
   -2.8106   -4.0867    1.5769 H   0  0  0  0  0  0  0  0  0  0  0  0
   -3.6508   -2.8555   -1.1155 H   0  0  0  0  0  0  0  0  0  0  0  0
   -4.7617   -3.4095    0.1431 H   0  0  0  0  0  0  0  0  0  0  0  0
   -3.6929   -2.0271    0.4471 H   0  0  0  0  0  0  0  0  0  0  0  0
   -3.7743   -6.0936    0.2919 N   0  0  0  0  0  0  0  0  0  0  0  0
   -4.0473   -7.4174   -0.2168 C   0  0  0  0  0  0  0  0  0  0  0  0
   -4.3378   -5.7584    1.0677 H   0  0  0  0  0  0  0  0  0  0  0  0
   -4.8011   -7.3556   -1.0155 H   0  0  0  0  0  0  0  0  0  0  0  0
   -3.1213   -7.8535   -0.6197 H   0  0  0  0  0  0  0  0  0  0  0  0
   -4.4273   -8.0519    0.5975 H   0  0  0  0  0  0  0  0  0  0  0  0
 18 19  1  0  0  0  0
 19 31  1  0  0  0  0
 19 20  2  0  0  0  0
  8  9  1  0  0  0  0
  9 17  1  0  0  0  0
  9 10  2  0  0  0  0
  1  3  1  0  0  0  0
  1  7  1  0  0  0  0
  1  2  2  0  0  0  0
 32 33  1  0  0  0  0
 33 41  1  0  0  0  0
 33 34  2  0  0  0  0
 21 22  1  0  0  0  0
 22 23  1  0  0  0  0
 18 21  1  0  0  0  0
 17 23  1  0  0  0  0
 17 18  1  0  0  0  0
  8 11  1  0  0  0  0
 32 35  1  0  0  0  0
 41 42  1  0  0  0  0
  7  8  1  0  0  0  0
 31 32  1  0  0  0  0
 22 27  1  0  0  0  0
 22 28  1  0  0  0  0
 21 25  1  0  0  0  0
 21 26  1  0  0  0  0
 23 29  1  0  0  0  0
 23 30  1  0  0  0  0
 18 24  1  0  0  0  0
  3  4  1  0  0  0  0
  3  5  1  0  0  0  0
  3  6  1  0  0  0  0
 11 14  1  0  0  0  0
 11 15  1  0  0  0  0
 11 16  1  0  0  0  0
 35 38  1  0  0  0  0
 35 39  1  0  0  0  0
 35 40  1  0  0  0  0
 42 44  1  0  0  0  0
 42 45  1  0  0  0  0
 42 46  1  0  0  0  0
  8 13  1  0  0  0  0
 32 37  1  0  0  0  0
 31 36  1  0  0  0  0
 41 43  1  0  0  0  0
  7 12  1  0  0  0  0
M  END
$$$$

  -OEChem-05262214473D

 46 46  0     1  0  0  0  0  0999 V2000
   -0.6012   -3.2995    3.8205 C   0  0  0  0  0  0  0  0  0  0  0  0
   -0.6574   -4.4683    3.4568 O   0  0  0  0  0  0  0  0  0  0  0  0
   -0.4935   -2.9859    5.2760 C   0  0  0  0  0  0  0  0  0  0  0  0
   -1.4789   -2.8689    5.7550 H   0  0  0  0  0  0  0  0  0  0  0  0
    0.0123   -3.7847    5.8419 H   0  0  0  0  0  0  0  0  0  0  0  0
    0.0585   -2.0642    5.5199 H   0  0  0  0  0  0  0  0  0  0  0  0
   -0.6261   -2.1849    2.9917 N   0  0  0  0  0  0  0  0  0  0  0  0
   -0.7237   -2.2601    1.5650 C   0  0  2  0  0  0  0  0  0  0  0  0
    0.1695   -1.1513    1.0687 C   0  0  0  0  0  0  0  0  0  0  0  0
    0.3193   -0.1267    1.7365 O   0  0  0  0  0  0  0  0  0  0  0  0
   -2.1397   -2.0663    1.0750 C   0  0  0  0  0  0  0  0  0  0  0  0
   -0.5717   -1.2606    3.4238 H   0  0  0  0  0  0  0  0  0  0  0  0
   -0.3076   -3.2111    1.2363 H   0  0  0  0  0  0  0  0  0  0  0  0
   -2.5584   -1.1089    1.4061 H   0  0  0  0  0  0  0  0  0  0  0  0
   -2.1682   -2.0790   -0.0197 H   0  0  0  0  0  0  0  0  0  0  0  0
   -2.7965   -2.8601    1.4459 H   0  0  0  0  0  0  0  0  0  0  0  0
    0.7724   -1.3745   -0.1593 N   0  0  0  0  0  0  0  0  0  0  0  0
    0.5614   -2.5964   -0.9244 C   0  0  2  0  0  0  0  0  0  0  0  0
   -0.0544   -3.5988    0.0049 C   0  0  0  0  0  0  0  0  0  0  0  0
    0.6691   -4.3445    0.6546 O   0  0  0  0  0  0  0  0  0  0  0  0
    1.9561   -3.0201   -1.3701 C   0  0  0  0  0  0  0  0  0  0  0  0
    2.4412   -1.5761   -1.2677 C   0  0  0  0  0  0  0  0  0  0  0  0
    1.5408   -0.3981   -0.9273 C   0  0  0  0  0  0  0  0  0  0  0  0
   -0.1236   -2.4233   -1.7599 H   0  0  0  0  0  0  0  0  0  0  0  0
    1.9168   -3.4270   -2.3876 H   0  0  0  0  0  0  0  0  0  0  0  0
    2.4180   -3.7645   -0.7143 H   0  0  0  0  0  0  0  0  0  0  0  0
    3.1835   -1.4790   -0.4671 H   0  0  0  0  0  0  0  0  0  0  0  0
    2.8940   -1.2255   -2.1995 H   0  0  0  0  0  0  0  0  0  0  0  0
    2.0756    0.4073   -0.4167 H   0  0  0  0  0  0  0  0  0  0  0  0
    1.0584    0.0055   -1.8242 H   0  0  0  0  0  0  0  0  0  0  0  0
   -1.4093   -3.6002    0.0516 N   0  0  0  0  0  0  0  0  0  0  0  0
   -2.6494   -4.3413    0.0964 C   0  0  2  0  0  0  0  0  0  0  0  0
   -2.3792   -5.7426   -0.4356 C   0  0  0  0  0  0  0  0  0  0  0  0
   -1.4325   -6.0091   -1.1730 O   0  0  0  0  0  0  0  0  0  0  0  0
   -3.7356   -3.6520   -0.7146 C   0  0  0  0  0  0  0  0  0  0  0  0
   -1.0464   -3.2123    0.9172 H   0  0  0  0  0  0  0  0  0  0  0  0
   -2.9446   -4.4005    1.1497 H   0  0  0  0  0  0  0  0  0  0  0  0
   -3.4577   -3.5834   -1.7727 H   0  0  0  0  0  0  0  0  0  0  0  0
   -4.6821   -4.1996   -0.6564 H   0  0  0  0  0  0  0  0  0  0  0  0
   -3.9077   -2.6338   -0.3495 H   0  0  0  0  0  0  0  0  0  0  0  0
   -3.3442   -6.6517   -0.0251 N   0  0  0  0  0  0  0  0  0  0  0  0
   -3.3171   -8.0439   -0.4086 C   0  0  0  0  0  0  0  0  0  0  0  0
   -4.0834   -6.3470    0.6014 H   0  0  0  0  0  0  0  0  0  0  0  0
   -3.9137   -8.1848   -1.3219 H   0  0  0  0  0  0  0  0  0  0  0  0
   -2.2782   -8.3516   -0.5984 H   0  0  0  0  0  0  0  0  0  0  0  0
   -3.7384   -8.6558    0.4026 H   0  0  0  0  0  0  0  0  0  0  0  0
 18 19  1  0  0  0  0
 19 31  1  0  0  0  0
 19 20  2  0  0  0  0
  8  9  1  0  0  0  0
  9 17  1  0  0  0  0
  9 10  2  0  0  0  0
  1  3  1  0  0  0  0
  1  7  1  0  0  0  0
  1  2  2  0  0  0  0
 32 33  1  0  0  0  0
 33 41  1  0  0  0  0
 33 34  2  0  0  0  0
 21 22  1  0  0  0  0
 22 23  1  0  0  0  0
 18 21  1  0  0  0  0
 17 23  1  0  0  0  0
 17 18  1  0  0  0  0
  8 11  1  0  0  0  0
 32 35  1  0  0  0  0
 41 42  1  0  0  0  0
  7  8  1  0  0  0  0
 31 32  1  0  0  0  0
 22 27  1  0  0  0  0
 22 28  1  0  0  0  0
 21 25  1  0  0  0  0
 21 26  1  0  0  0  0
 23 29  1  0  0  0  0
 23 30  1  0  0  0  0
 18 24  1  0  0  0  0
  3  4  1  0  0  0  0
  3  5  1  0  0  0  0
  3  6  1  0  0  0  0
 11 14  1  0  0  0  0
 11 15  1  0  0  0  0
 11 16  1  0  0  0  0
 35 38  1  0  0  0  0
 35 39  1  0  0  0  0
 35 40  1  0  0  0  0
 42 44  1  0  0  0  0
 42 45  1  0  0  0  0
 42 46  1  0  0  0  0
  8 13  1  0  0  0  0
 32 37  1  0  0  0  0
 31 36  1  0  0  0  0
 41 43  1  0  0  0  0
  7 12  1  0  0  0  0
M  END
$$$$

  -OEChem-05262214473D

 46 46  0     1  0  0  0  0  0999 V2000
   -0.6012   -3.2995    3.8205 C   0  0  0  0  0  0  0  0  0  0  0  0
   -0.6574   -4.4683    3.4568 O   0  0  0  0  0  0  0  0  0  0  0  0
   -0.4935   -2.9859    5.2760 C   0  0  0  0  0  0  0  0  0  0  0  0
   -1.4789   -2.8689    5.7550 H   0  0  0  0  0  0  0  0  0  0  0  0
    0.0123   -3.7847    5.8419 H   0  0  0  0  0  0  0  0  0  0  0  0
    0.0585   -2.0642    5.5199 H   0  0  0  0  0  0  0  0  0  0  0  0
   -0.6261   -2.1849    2.9917 N   0  0  0  0  0  0  0  0  0  0  0  0
   -0.7237   -2.2601    1.5650 C   0  0  2  0  0  0  0  0  0  0  0  0
    0.1695   -1.1513    1.0687 C   0  0  0  0  0  0  0  0  0  0  0  0
    0.3193   -0.1267    1.7365 O   0  0  0  0  0  0  0  0  0  0  0  0
   -2.1397   -2.0663    1.0750 C   0  0  0  0  0  0  0  0  0  0  0  0
   -0.5717   -1.2606    3.4238 H   0  0  0  0  0  0  0  0  0  0  0  0
   -0.3076   -3.2111    1.2363 H   0  0  0  0  0  0  0  0  0  0  0  0
   -2.5584   -1.1089    1.4061 H   0  0  0  0  0  0  0  0  0  0  0  0
   -2.1682   -2.0790   -0.0197 H   0  0  0  0  0  0  0  0  0  0  0  0
   -2.7965   -2.8601    1.4459 H   0  0  0  0  0  0  0  0  0  0  0  0
    0.7724   -1.3745   -0.1593 N   0  0  0  0  0  0  0  0  0  0  0  0
    0.5614   -2.5964   -0.9244 C   0  0  2  0  0  0  0  0  0  0  0  0
   -0.0544   -3.5988    0.0049 C   0  0  0  0  0  0  0  0  0  0  0  0
    0.6432   -4.1478    0.8497 O   0  0  0  0  0  0  0  0  0  0  0  0
    1.9561   -3.0201   -1.3701 C   0  0  0  0  0  0  0  0  0  0  0  0
    2.4412   -1.5761   -1.2677 C   0  0  0  0  0  0  0  0  0  0  0  0
    1.5408   -0.3981   -0.9273 C   0  0  0  0  0  0  0  0  0  0  0  0
   -0.1236   -2.4233   -1.7599 H   0  0  0  0  0  0  0  0  0  0  0  0
    1.9168   -3.4270   -2.3876 H   0  0  0  0  0  0  0  0  0  0  0  0
    2.4180   -3.7645   -0.7143 H   0  0  0  0  0  0  0  0  0  0  0  0
    3.1835   -1.4790   -0.4671 H   0  0  0  0  0  0  0  0  0  0  0  0
    2.8940   -1.2255   -2.1995 H   0  0  0  0  0  0  0  0  0  0  0  0
    2.0756    0.4073   -0.4167 H   0  0  0  0  0  0  0  0  0  0  0  0
    1.0584    0.0055   -1.8242 H   0  0  0  0  0  0  0  0  0  0  0  0
   -1.3792   -3.8259   -0.1719 N   0  0  0  0  0  0  0  0  0  0  0  0
   -2.4803   -4.7595   -0.2427 C   0  0  2  0  0  0  0  0  0  0  0  0
   -1.9095   -6.1375   -0.5503 C   0  0  0  0  0  0  0  0  0  0  0  0
   -0.8153   -6.3063   -1.0846 O   0  0  0  0  0  0  0  0  0  0  0  0
   -3.4925   -4.3424   -1.2982 C   0  0  0  0  0  0  0  0  0  0  0  0
   -1.2425   -3.3039    0.6884 H   0  0  0  0  0  0  0  0  0  0  0  0
   -2.9496   -4.7706    0.7471 H   0  0  0  0  0  0  0  0  0  0  0  0
   -3.0405   -4.3254   -2.2967 H   0  0  0  0  0  0  0  0  0  0  0  0
   -4.3400   -5.0350   -1.3308 H   0  0  0  0  0  0  0  0  0  0  0  0
   -3.8799   -3.3389   -1.0917 H   0  0  0  0  0  0  0  0  0  0  0  0
   -2.7843   -7.1555   -0.1975 N   0  0  0  0  0  0  0  0  0  0  0  0
   -2.4780   -8.5522   -0.4009 C   0  0  0  0  0  0  0  0  0  0  0  0
   -3.6625   -6.9243    0.2576 H   0  0  0  0  0  0  0  0  0  0  0  0
   -2.8705   -8.8760   -1.3761 H   0  0  0  0  0  0  0  0  0  0  0  0
   -1.3875   -8.6952   -0.3788 H   0  0  0  0  0  0  0  0  0  0  0  0
   -2.9424   -9.1494    0.3977 H   0  0  0  0  0  0  0  0  0  0  0  0
 18 19  1  0  0  0  0
 19 31  1  0  0  0  0
 19 20  2  0  0  0  0
  8  9  1  0  0  0  0
  9 17  1  0  0  0  0
  9 10  2  0  0  0  0
  1  3  1  0  0  0  0
  1  7  1  0  0  0  0
  1  2  2  0  0  0  0
 32 33  1  0  0  0  0
 33 41  1  0  0  0  0
 33 34  2  0  0  0  0
 21 22  1  0  0  0  0
 22 23  1  0  0  0  0
 18 21  1  0  0  0  0
 17 23  1  0  0  0  0
 17 18  1  0  0  0  0
  8 11  1  0  0  0  0
 32 35  1  0  0  0  0
 41 42  1  0  0  0  0
  7  8  1  0  0  0  0
 31 32  1  0  0  0  0
 22 27  1  0  0  0  0
 22 28  1  0  0  0  0
 21 25  1  0  0  0  0
 21 26  1  0  0  0  0
 23 29  1  0  0  0  0
 23 30  1  0  0  0  0
 18 24  1  0  0  0  0
  3  4  1  0  0  0  0
  3  5  1  0  0  0  0
  3  6  1  0  0  0  0
 11 14  1  0  0  0  0
 11 15  1  0  0  0  0
 11 16  1  0  0  0  0
 35 38  1  0  0  0  0
 35 39  1  0  0  0  0
 35 40  1  0  0  0  0
 42 44  1  0  0  0  0
 42 45  1  0  0  0  0
 42 46  1  0  0  0  0
  8 13  1  0  0  0  0
 32 37  1  0  0  0  0
 31 36  1  0  0  0  0
 41 43  1  0  0  0  0
  7 12  1  0  0  0  0
M  END
$$$$

  -OEChem-05262214473D

 46 46  0     1  0  0  0  0  0999 V2000
   -0.6012   -3.2995    3.8205 C   0  0  0  0  0  0  0  0  0  0  0  0
   -0.6574   -4.4683    3.4568 O   0  0  0  0  0  0  0  0  0  0  0  0
   -0.4935   -2.9859    5.2760 C   0  0  0  0  0  0  0  0  0  0  0  0
   -1.4789   -2.8689    5.7550 H   0  0  0  0  0  0  0  0  0  0  0  0
    0.0123   -3.7847    5.8419 H   0  0  0  0  0  0  0  0  0  0  0  0
    0.0585   -2.0642    5.5199 H   0  0  0  0  0  0  0  0  0  0  0  0
   -0.6261   -2.1849    2.9917 N   0  0  0  0  0  0  0  0  0  0  0  0
   -0.7237   -2.2601    1.5650 C   0  0  2  0  0  0  0  0  0  0  0  0
    0.1695   -1.1513    1.0687 C   0  0  0  0  0  0  0  0  0  0  0  0
    0.3193   -0.1267    1.7365 O   0  0  0  0  0  0  0  0  0  0  0  0
   -2.1397   -2.0663    1.0750 C   0  0  0  0  0  0  0  0  0  0  0  0
   -0.5717   -1.2606    3.4238 H   0  0  0  0  0  0  0  0  0  0  0  0
   -0.3076   -3.2111    1.2363 H   0  0  0  0  0  0  0  0  0  0  0  0
   -2.5584   -1.1089    1.4061 H   0  0  0  0  0  0  0  0  0  0  0  0
   -2.1682   -2.0790   -0.0197 H   0  0  0  0  0  0  0  0  0  0  0  0
   -2.7965   -2.8601    1.4459 H   0  0  0  0  0  0  0  0  0  0  0  0
    0.7724   -1.3745   -0.1593 N   0  0  0  0  0  0  0  0  0  0  0  0
    0.5614   -2.5964   -0.9244 C   0  0  2  0  0  0  0  0  0  0  0  0
   -0.0544   -3.5988    0.0049 C   0  0  0  0  0  0  0  0  0  0  0  0
    0.5528   -3.9411    1.0128 O   0  0  0  0  0  0  0  0  0  0  0  0
    1.9561   -3.0201   -1.3701 C   0  0  0  0  0  0  0  0  0  0  0  0
    2.4412   -1.5761   -1.2677 C   0  0  0  0  0  0  0  0  0  0  0  0
    1.5408   -0.3981   -0.9273 C   0  0  0  0  0  0  0  0  0  0  0  0
   -0.1236   -2.4233   -1.7599 H   0  0  0  0  0  0  0  0  0  0  0  0
    1.9168   -3.4270   -2.3876 H   0  0  0  0  0  0  0  0  0  0  0  0
    2.4180   -3.7645   -0.7143 H   0  0  0  0  0  0  0  0  0  0  0  0
    3.1835   -1.4790   -0.4671 H   0  0  0  0  0  0  0  0  0  0  0  0
    2.8940   -1.2255   -2.1995 H   0  0  0  0  0  0  0  0  0  0  0  0
    2.0756    0.4073   -0.4167 H   0  0  0  0  0  0  0  0  0  0  0  0
    1.0584    0.0055   -1.8242 H   0  0  0  0  0  0  0  0  0  0  0  0
   -1.2753   -4.0628   -0.3586 N   0  0  0  0  0  0  0  0  0  0  0  0
   -2.1913   -5.1723   -0.4964 C   0  0  2  0  0  0  0  0  0  0  0  0
   -1.3725   -6.4558   -0.5379 C   0  0  0  0  0  0  0  0  0  0  0  0
   -0.1867   -6.4849   -0.8607 O   0  0  0  0  0  0  0  0  0  0  0  0
   -3.0460   -5.0322   -1.7465 C   0  0  0  0  0  0  0  0  0  0  0  0
   -1.3776   -3.4482    0.4433 H   0  0  0  0  0  0  0  0  0  0  0  0
   -2.8255   -5.1717    0.3968 H   0  0  0  0  0  0  0  0  0  0  0  0
   -2.4279   -5.0309   -2.6517 H   0  0  0  0  0  0  0  0  0  0  0  0
   -3.7590   -5.8587   -1.8343 H   0  0  0  0  0  0  0  0  0  0  0  0
   -3.6115   -4.0944   -1.7288 H   0  0  0  0  0  0  0  0  0  0  0  0
   -2.1329   -7.5706   -0.2137 N   0  0  0  0  0  0  0  0  0  0  0  0
   -1.5873   -8.9078   -0.1942 C   0  0  0  0  0  0  0  0  0  0  0  0
   -3.1038   -7.4509    0.0597 H   0  0  0  0  0  0  0  0  0  0  0  0
   -1.7425   -9.3820   -1.1745 H   0  0  0  0  0  0  0  0  0  0  0  0
   -0.5101   -8.8609    0.0239 H   0  0  0  0  0  0  0  0  0  0  0  0
   -2.0934   -9.4989    0.5832 H   0  0  0  0  0  0  0  0  0  0  0  0
 18 19  1  0  0  0  0
 19 31  1  0  0  0  0
 19 20  2  0  0  0  0
  8  9  1  0  0  0  0
  9 17  1  0  0  0  0
  9 10  2  0  0  0  0
  1  3  1  0  0  0  0
  1  7  1  0  0  0  0
  1  2  2  0  0  0  0
 32 33  1  0  0  0  0
 33 41  1  0  0  0  0
 33 34  2  0  0  0  0
 21 22  1  0  0  0  0
 22 23  1  0  0  0  0
 18 21  1  0  0  0  0
 17 23  1  0  0  0  0
 17 18  1  0  0  0  0
  8 11  1  0  0  0  0
 32 35  1  0  0  0  0
 41 42  1  0  0  0  0
  7  8  1  0  0  0  0
 31 32  1  0  0  0  0
 22 27  1  0  0  0  0
 22 28  1  0  0  0  0
 21 25  1  0  0  0  0
 21 26  1  0  0  0  0
 23 29  1  0  0  0  0
 23 30  1  0  0  0  0
 18 24  1  0  0  0  0
  3  4  1  0  0  0  0
  3  5  1  0  0  0  0
  3  6  1  0  0  0  0
 11 14  1  0  0  0  0
 11 15  1  0  0  0  0
 11 16  1  0  0  0  0
 35 38  1  0  0  0  0
 35 39  1  0  0  0  0
 35 40  1  0  0  0  0
 42 44  1  0  0  0  0
 42 45  1  0  0  0  0
 42 46  1  0  0  0  0
  8 13  1  0  0  0  0
 32 37  1  0  0  0  0
 31 36  1  0  0  0  0
 41 43  1  0  0  0  0
  7 12  1  0  0  0  0
M  END
$$$$

  -OEChem-05262214473D

 46 46  0     1  0  0  0  0  0999 V2000
   -0.6012   -3.2995    3.8205 C   0  0  0  0  0  0  0  0  0  0  0  0
   -0.6574   -4.4683    3.4568 O   0  0  0  0  0  0  0  0  0  0  0  0
   -0.4935   -2.9859    5.2760 C   0  0  0  0  0  0  0  0  0  0  0  0
   -1.4789   -2.8689    5.7550 H   0  0  0  0  0  0  0  0  0  0  0  0
    0.0123   -3.7847    5.8419 H   0  0  0  0  0  0  0  0  0  0  0  0
    0.0585   -2.0642    5.5199 H   0  0  0  0  0  0  0  0  0  0  0  0
   -0.6261   -2.1849    2.9917 N   0  0  0  0  0  0  0  0  0  0  0  0
   -0.7237   -2.2601    1.5650 C   0  0  2  0  0  0  0  0  0  0  0  0
    0.1695   -1.1513    1.0687 C   0  0  0  0  0  0  0  0  0  0  0  0
    0.3193   -0.1267    1.7365 O   0  0  0  0  0  0  0  0  0  0  0  0
   -2.1397   -2.0663    1.0750 C   0  0  0  0  0  0  0  0  0  0  0  0
   -0.5717   -1.2606    3.4238 H   0  0  0  0  0  0  0  0  0  0  0  0
   -0.3076   -3.2111    1.2363 H   0  0  0  0  0  0  0  0  0  0  0  0
   -2.5584   -1.1089    1.4061 H   0  0  0  0  0  0  0  0  0  0  0  0
   -2.1682   -2.0790   -0.0197 H   0  0  0  0  0  0  0  0  0  0  0  0
   -2.7965   -2.8601    1.4459 H   0  0  0  0  0  0  0  0  0  0  0  0
    0.7724   -1.3745   -0.1593 N   0  0  0  0  0  0  0  0  0  0  0  0
    0.5614   -2.5964   -0.9244 C   0  0  2  0  0  0  0  0  0  0  0  0
   -0.0544   -3.5988    0.0049 C   0  0  0  0  0  0  0  0  0  0  0  0
    0.4042   -3.7386    1.1326 O   0  0  0  0  0  0  0  0  0  0  0  0
    1.9561   -3.0201   -1.3701 C   0  0  0  0  0  0  0  0  0  0  0  0
    2.4412   -1.5761   -1.2677 C   0  0  0  0  0  0  0  0  0  0  0  0
    1.5408   -0.3981   -0.9273 C   0  0  0  0  0  0  0  0  0  0  0  0
   -0.1236   -2.4233   -1.7599 H   0  0  0  0  0  0  0  0  0  0  0  0
    1.9168   -3.4270   -2.3876 H   0  0  0  0  0  0  0  0  0  0  0  0
    2.4180   -3.7645   -0.7143 H   0  0  0  0  0  0  0  0  0  0  0  0
    3.1835   -1.4790   -0.4671 H   0  0  0  0  0  0  0  0  0  0  0  0
    2.8940   -1.2255   -2.1995 H   0  0  0  0  0  0  0  0  0  0  0  0
    2.0756    0.4073   -0.4167 H   0  0  0  0  0  0  0  0  0  0  0  0
    1.0584    0.0055   -1.8242 H   0  0  0  0  0  0  0  0  0  0  0  0
   -1.1045   -4.2949   -0.4958 N   0  0  0  0  0  0  0  0  0  0  0  0
   -1.8019   -5.5517   -0.6477 C   0  0  2  0  0  0  0  0  0  0  0  0
   -0.8049   -6.6758   -0.3990 C   0  0  0  0  0  0  0  0  0  0  0  0
    0.4103   -6.5328   -0.5167 O   0  0  0  0  0  0  0  0  0  0  0  0
   -2.4264   -5.6746   -2.0288 C   0  0  0  0  0  0  0  0  0  0  0  0
   -1.4425   -3.6353    0.1985 H   0  0  0  0  0  0  0  0  0  0  0  0
   -2.5806   -5.5764    0.1225 H   0  0  0  0  0  0  0  0  0  0  0  0
   -1.6616   -5.6518   -2.8136 H   0  0  0  0  0  0  0  0  0  0  0  0
   -2.9784   -6.6146   -2.1325 H   0  0  0  0  0  0  0  0  0  0  0  0
   -3.1209   -4.8488   -2.2174 H   0  0  0  0  0  0  0  0  0  0  0  0
   -1.4343   -7.8689   -0.0724 N   0  0  0  0  0  0  0  0  0  0  0  0
   -0.7056   -9.0863    0.1974 C   0  0  0  0  0  0  0  0  0  0  0  0
   -2.4455   -7.8911    0.0212 H   0  0  0  0  0  0  0  0  0  0  0  0
   -0.6067   -9.6684   -0.7307 H   0  0  0  0  0  0  0  0  0  0  0  0
    0.2943   -8.8374    0.5823 H   0  0  0  0  0  0  0  0  0  0  0  0
   -1.2494   -9.6806    0.9465 H   0  0  0  0  0  0  0  0  0  0  0  0
 18 19  1  0  0  0  0
 19 31  1  0  0  0  0
 19 20  2  0  0  0  0
  8  9  1  0  0  0  0
  9 17  1  0  0  0  0
  9 10  2  0  0  0  0
  1  3  1  0  0  0  0
  1  7  1  0  0  0  0
  1  2  2  0  0  0  0
 32 33  1  0  0  0  0
 33 41  1  0  0  0  0
 33 34  2  0  0  0  0
 21 22  1  0  0  0  0
 22 23  1  0  0  0  0
 18 21  1  0  0  0  0
 17 23  1  0  0  0  0
 17 18  1  0  0  0  0
  8 11  1  0  0  0  0
 32 35  1  0  0  0  0
 41 42  1  0  0  0  0
  7  8  1  0  0  0  0
 31 32  1  0  0  0  0
 22 27  1  0  0  0  0
 22 28  1  0  0  0  0
 21 25  1  0  0  0  0
 21 26  1  0  0  0  0
 23 29  1  0  0  0  0
 23 30  1  0  0  0  0
 18 24  1  0  0  0  0
  3  4  1  0  0  0  0
  3  5  1  0  0  0  0
  3  6  1  0  0  0  0
 11 14  1  0  0  0  0
 11 15  1  0  0  0  0
 11 16  1  0  0  0  0
 35 38  1  0  0  0  0
 35 39  1  0  0  0  0
 35 40  1  0  0  0  0
 42 44  1  0  0  0  0
 42 45  1  0  0  0  0
 42 46  1  0  0  0  0
  8 13  1  0  0  0  0
 32 37  1  0  0  0  0
 31 36  1  0  0  0  0
 41 43  1  0  0  0  0
  7 12  1  0  0  0  0
M  END
$$$$

  -OEChem-05262214473D

 46 46  0     1  0  0  0  0  0999 V2000
   -0.6012   -3.2995    3.8205 C   0  0  0  0  0  0  0  0  0  0  0  0
   -0.6574   -4.4683    3.4568 O   0  0  0  0  0  0  0  0  0  0  0  0
   -0.4935   -2.9859    5.2760 C   0  0  0  0  0  0  0  0  0  0  0  0
   -1.4789   -2.8689    5.7550 H   0  0  0  0  0  0  0  0  0  0  0  0
    0.0123   -3.7847    5.8419 H   0  0  0  0  0  0  0  0  0  0  0  0
    0.0585   -2.0642    5.5199 H   0  0  0  0  0  0  0  0  0  0  0  0
   -0.6261   -2.1849    2.9917 N   0  0  0  0  0  0  0  0  0  0  0  0
   -0.7237   -2.2601    1.5650 C   0  0  2  0  0  0  0  0  0  0  0  0
    0.1695   -1.1513    1.0687 C   0  0  0  0  0  0  0  0  0  0  0  0
    0.3193   -0.1267    1.7365 O   0  0  0  0  0  0  0  0  0  0  0  0
   -2.1397   -2.0663    1.0750 C   0  0  0  0  0  0  0  0  0  0  0  0
   -0.5717   -1.2606    3.4238 H   0  0  0  0  0  0  0  0  0  0  0  0
   -0.3076   -3.2111    1.2363 H   0  0  0  0  0  0  0  0  0  0  0  0
   -2.5584   -1.1089    1.4061 H   0  0  0  0  0  0  0  0  0  0  0  0
   -2.1682   -2.0790   -0.0197 H   0  0  0  0  0  0  0  0  0  0  0  0
   -2.7965   -2.8601    1.4459 H   0  0  0  0  0  0  0  0  0  0  0  0
    0.7724   -1.3745   -0.1593 N   0  0  0  0  0  0  0  0  0  0  0  0
    0.5614   -2.5964   -0.9244 C   0  0  2  0  0  0  0  0  0  0  0  0
   -0.0544   -3.5988    0.0049 C   0  0  0  0  0  0  0  0  0  0  0  0
    0.2073   -3.5542    1.2012 O   0  0  0  0  0  0  0  0  0  0  0  0
    1.9561   -3.0201   -1.3701 C   0  0  0  0  0  0  0  0  0  0  0  0
    2.4412   -1.5761   -1.2677 C   0  0  0  0  0  0  0  0  0  0  0  0
    1.5408   -0.3981   -0.9273 C   0  0  0  0  0  0  0  0  0  0  0  0
   -0.1236   -2.4233   -1.7599 H   0  0  0  0  0  0  0  0  0  0  0  0
    1.9168   -3.4270   -2.3876 H   0  0  0  0  0  0  0  0  0  0  0  0
    2.4180   -3.7645   -0.7143 H   0  0  0  0  0  0  0  0  0  0  0  0
    3.1835   -1.4790   -0.4671 H   0  0  0  0  0  0  0  0  0  0  0  0
    2.8940   -1.2255   -2.1995 H   0  0  0  0  0  0  0  0  0  0  0  0
    2.0756    0.4073   -0.4167 H   0  0  0  0  0  0  0  0  0  0  0  0
    1.0584    0.0055   -1.8242 H   0  0  0  0  0  0  0  0  0  0  0  0
   -0.8786   -4.5062   -0.5741 N   0  0  0  0  0  0  0  0  0  0  0  0
   -1.3388   -5.8718   -0.6860 C   0  0  2  0  0  0  0  0  0  0  0  0
   -0.2454   -6.7825   -0.1433 C   0  0  0  0  0  0  0  0  0  0  0  0
    0.9352   -6.4467   -0.0760 O   0  0  0  0  0  0  0  0  0  0  0  0
   -1.6761   -6.2258   -2.1260 C   0  0  0  0  0  0  0  0  0  0  0  0
   -1.4329   -3.8524   -0.0294 H   0  0  0  0  0  0  0  0  0  0  0  0
   -2.2316   -5.9572   -0.0570 H   0  0  0  0  0  0  0  0  0  0  0  0
   -0.7937   -6.1459   -2.7714 H   0  0  0  0  0  0  0  0  0  0  0  0
   -2.0515   -7.2513   -2.2050 H   0  0  0  0  0  0  0  0  0  0  0  0
   -2.4413   -5.5508   -2.5243 H   0  0  0  0  0  0  0  0  0  0  0  0
   -0.7361   -8.0298    0.2167 N   0  0  0  0  0  0  0  0  0  0  0  0
    0.1068   -9.0758    0.7472 C   0  0  0  0  0  0  0  0  0  0  0  0
   -1.7323   -8.2147    0.1448 H   0  0  0  0  0  0  0  0  0  0  0  0
    0.4596   -9.7156   -0.0751 H   0  0  0  0  0  0  0  0  0  0  0  0
    0.9709   -8.6263    1.2585 H   0  0  0  0  0  0  0  0  0  0  0  0
   -0.4679   -9.6821    1.4628 H   0  0  0  0  0  0  0  0  0  0  0  0
 18 19  1  0  0  0  0
 19 31  1  0  0  0  0
 19 20  2  0  0  0  0
  8  9  1  0  0  0  0
  9 17  1  0  0  0  0
  9 10  2  0  0  0  0
  1  3  1  0  0  0  0
  1  7  1  0  0  0  0
  1  2  2  0  0  0  0
 32 33  1  0  0  0  0
 33 41  1  0  0  0  0
 33 34  2  0  0  0  0
 21 22  1  0  0  0  0
 22 23  1  0  0  0  0
 18 21  1  0  0  0  0
 17 23  1  0  0  0  0
 17 18  1  0  0  0  0
  8 11  1  0  0  0  0
 32 35  1  0  0  0  0
 41 42  1  0  0  0  0
  7  8  1  0  0  0  0
 31 32  1  0  0  0  0
 22 27  1  0  0  0  0
 22 28  1  0  0  0  0
 21 25  1  0  0  0  0
 21 26  1  0  0  0  0
 23 29  1  0  0  0  0
 23 30  1  0  0  0  0
 18 24  1  0  0  0  0
  3  4  1  0  0  0  0
  3  5  1  0  0  0  0
  3  6  1  0  0  0  0
 11 14  1  0  0  0  0
 11 15  1  0  0  0  0
 11 16  1  0  0  0  0
 35 38  1  0  0  0  0
 35 39  1  0  0  0  0
 35 40  1  0  0  0  0
 42 44  1  0  0  0  0
 42 45  1  0  0  0  0
 42 46  1  0  0  0  0
  8 13  1  0  0  0  0
 32 37  1  0  0  0  0
 31 36  1  0  0  0  0
 41 43  1  0  0  0  0
  7 12  1  0  0  0  0
M  END
$$$$

  -OEChem-05262214473D

 46 46  0     1  0  0  0  0  0999 V2000
   -0.6012   -3.2995    3.8205 C   0  0  0  0  0  0  0  0  0  0  0  0
   -0.6574   -4.4683    3.4568 O   0  0  0  0  0  0  0  0  0  0  0  0
   -0.4935   -2.9859    5.2760 C   0  0  0  0  0  0  0  0  0  0  0  0
   -1.4789   -2.8689    5.7550 H   0  0  0  0  0  0  0  0  0  0  0  0
    0.0123   -3.7847    5.8419 H   0  0  0  0  0  0  0  0  0  0  0  0
    0.0585   -2.0642    5.5199 H   0  0  0  0  0  0  0  0  0  0  0  0
   -0.6261   -2.1849    2.9917 N   0  0  0  0  0  0  0  0  0  0  0  0
   -0.7237   -2.2601    1.5650 C   0  0  2  0  0  0  0  0  0  0  0  0
    0.1695   -1.1513    1.0687 C   0  0  0  0  0  0  0  0  0  0  0  0
    0.3193   -0.1267    1.7365 O   0  0  0  0  0  0  0  0  0  0  0  0
   -2.1397   -2.0663    1.0750 C   0  0  0  0  0  0  0  0  0  0  0  0
   -0.5717   -1.2606    3.4238 H   0  0  0  0  0  0  0  0  0  0  0  0
   -0.3076   -3.2111    1.2363 H   0  0  0  0  0  0  0  0  0  0  0  0
   -2.5584   -1.1089    1.4061 H   0  0  0  0  0  0  0  0  0  0  0  0
   -2.1682   -2.0790   -0.0197 H   0  0  0  0  0  0  0  0  0  0  0  0
   -2.7965   -2.8601    1.4459 H   0  0  0  0  0  0  0  0  0  0  0  0
    0.7724   -1.3745   -0.1593 N   0  0  0  0  0  0  0  0  0  0  0  0
    0.5614   -2.5964   -0.9244 C   0  0  2  0  0  0  0  0  0  0  0  0
   -0.0544   -3.5988    0.0049 C   0  0  0  0  0  0  0  0  0  0  0  0
   -0.0242   -3.4003    1.2137 O   0  0  0  0  0  0  0  0  0  0  0  0
    1.9561   -3.0201   -1.3701 C   0  0  0  0  0  0  0  0  0  0  0  0
    2.4412   -1.5761   -1.2677 C   0  0  0  0  0  0  0  0  0  0  0  0
    1.5408   -0.3981   -0.9273 C   0  0  0  0  0  0  0  0  0  0  0  0
   -0.1236   -2.4233   -1.7599 H   0  0  0  0  0  0  0  0  0  0  0  0
    1.9168   -3.4270   -2.3876 H   0  0  0  0  0  0  0  0  0  0  0  0
    2.4180   -3.7645   -0.7143 H   0  0  0  0  0  0  0  0  0  0  0  0
    3.1835   -1.4790   -0.4671 H   0  0  0  0  0  0  0  0  0  0  0  0
    2.8940   -1.2255   -2.1995 H   0  0  0  0  0  0  0  0  0  0  0  0
    2.0756    0.4073   -0.4167 H   0  0  0  0  0  0  0  0  0  0  0  0
    1.0584    0.0055   -1.8242 H   0  0  0  0  0  0  0  0  0  0  0  0
   -0.6130   -4.6825   -0.5881 N   0  0  0  0  0  0  0  0  0  0  0  0
   -0.8335   -6.1107   -0.6089 C   0  0  2  0  0  0  0  0  0  0  0  0
    0.2679   -6.7686    0.2118 C   0  0  0  0  0  0  0  0  0  0  0  0
    1.3521   -6.2325    0.4314 O   0  0  0  0  0  0  0  0  0  0  0  0
   -0.8460   -6.6480   -2.0315 C   0  0  0  0  0  0  0  0  0  0  0  0
   -1.3493   -4.0848   -0.2247 H   0  0  0  0  0  0  0  0  0  0  0  0
   -1.8024   -6.2881   -0.1296 H   0  0  0  0  0  0  0  0  0  0  0  0
    0.1166   -6.4794   -2.5279 H   0  0  0  0  0  0  0  0  0  0  0  0
   -1.0416   -7.7253   -2.0470 H   0  0  0  0  0  0  0  0  0  0  0  0
   -1.6192   -6.1525   -2.6285 H   0  0  0  0  0  0  0  0  0  0  0  0
   -0.0859   -8.0426    0.6339 N   0  0  0  0  0  0  0  0  0  0  0  0
    0.7948   -8.8768    1.4178 C   0  0  0  0  0  0  0  0  0  0  0  0
   -1.0129   -8.3997    0.4220 H   0  0  0  0  0  0  0  0  0  0  0  0
    1.3836   -9.5205    0.7478 H   0  0  0  0  0  0  0  0  0  0  0  0
    1.4735   -8.2419    2.0062 H   0  0  0  0  0  0  0  0  0  0  0  0
    0.1979   -9.5033    2.0969 H   0  0  0  0  0  0  0  0  0  0  0  0
 18 19  1  0  0  0  0
 19 31  1  0  0  0  0
 19 20  2  0  0  0  0
  8  9  1  0  0  0  0
  9 17  1  0  0  0  0
  9 10  2  0  0  0  0
  1  3  1  0  0  0  0
  1  7  1  0  0  0  0
  1  2  2  0  0  0  0
 32 33  1  0  0  0  0
 33 41  1  0  0  0  0
 33 34  2  0  0  0  0
 21 22  1  0  0  0  0
 22 23  1  0  0  0  0
 18 21  1  0  0  0  0
 17 23  1  0  0  0  0
 17 18  1  0  0  0  0
  8 11  1  0  0  0  0
 32 35  1  0  0  0  0
 41 42  1  0  0  0  0
  7  8  1  0  0  0  0
 31 32  1  0  0  0  0
 22 27  1  0  0  0  0
 22 28  1  0  0  0  0
 21 25  1  0  0  0  0
 21 26  1  0  0  0  0
 23 29  1  0  0  0  0
 23 30  1  0  0  0  0
 18 24  1  0  0  0  0
  3  4  1  0  0  0  0
  3  5  1  0  0  0  0
  3  6  1  0  0  0  0
 11 14  1  0  0  0  0
 11 15  1  0  0  0  0
 11 16  1  0  0  0  0
 35 38  1  0  0  0  0
 35 39  1  0  0  0  0
 35 40  1  0  0  0  0
 42 44  1  0  0  0  0
 42 45  1  0  0  0  0
 42 46  1  0  0  0  0
  8 13  1  0  0  0  0
 32 37  1  0  0  0  0
 31 36  1  0  0  0  0
 41 43  1  0  0  0  0
  7 12  1  0  0  0  0
M  END
$$$$

  -OEChem-05262214473D

 46 46  0     1  0  0  0  0  0999 V2000
   -0.6012   -3.2995    3.8205 C   0  0  0  0  0  0  0  0  0  0  0  0
   -0.6574   -4.4683    3.4568 O   0  0  0  0  0  0  0  0  0  0  0  0
   -0.4935   -2.9859    5.2760 C   0  0  0  0  0  0  0  0  0  0  0  0
   -1.4789   -2.8689    5.7550 H   0  0  0  0  0  0  0  0  0  0  0  0
    0.0123   -3.7847    5.8419 H   0  0  0  0  0  0  0  0  0  0  0  0
    0.0585   -2.0642    5.5199 H   0  0  0  0  0  0  0  0  0  0  0  0
   -0.6261   -2.1849    2.9917 N   0  0  0  0  0  0  0  0  0  0  0  0
   -0.7237   -2.2601    1.5650 C   0  0  2  0  0  0  0  0  0  0  0  0
    0.1695   -1.1513    1.0687 C   0  0  0  0  0  0  0  0  0  0  0  0
    0.3193   -0.1267    1.7365 O   0  0  0  0  0  0  0  0  0  0  0  0
   -2.1397   -2.0663    1.0750 C   0  0  0  0  0  0  0  0  0  0  0  0
   -0.5717   -1.2606    3.4238 H   0  0  0  0  0  0  0  0  0  0  0  0
   -0.3076   -3.2111    1.2363 H   0  0  0  0  0  0  0  0  0  0  0  0
   -2.5584   -1.1089    1.4061 H   0  0  0  0  0  0  0  0  0  0  0  0
   -2.1682   -2.0790   -0.0197 H   0  0  0  0  0  0  0  0  0  0  0  0
   -2.7965   -2.8601    1.4459 H   0  0  0  0  0  0  0  0  0  0  0  0
    0.7724   -1.3745   -0.1593 N   0  0  0  0  0  0  0  0  0  0  0  0
    0.5614   -2.5964   -0.9244 C   0  0  2  0  0  0  0  0  0  0  0  0
   -0.3735   -3.4587   -0.1308 C   0  0  0  0  0  0  0  0  0  0  0  0
   -0.7927   -3.0604    0.9496 O   0  0  0  0  0  0  0  0  0  0  0  0
    1.9458   -3.2230   -1.0432 C   0  0  0  0  0  0  0  0  0  0  0  0
    2.2521   -1.7403   -0.8458 C   0  0  0  0  0  0  0  0  0  0  0  0
    1.5408   -0.3981   -0.9273 C   0  0  0  0  0  0  0  0  0  0  0  0
    0.1027   -2.3787   -1.8936 H   0  0  0  0  0  0  0  0  0  0  0  0
    2.0691   -3.6740   -2.0351 H   0  0  0  0  0  0  0  0  0  0  0  0
    2.1474   -3.9863   -0.2855 H   0  0  0  0  0  0  0  0  0  0  0  0
    2.5528   -1.5477    0.1905 H   0  0  0  0  0  0  0  0  0  0  0  0
    3.0524   -1.3926   -1.5053 H   0  0  0  0  0  0  0  0  0  0  0  0
    2.1327    0.4188   -0.5056 H   0  0  0  0  0  0  0  0  0  0  0  0
    1.2759   -0.1509   -1.9611 H   0  0  0  0  0  0  0  0  0  0  0  0
   -0.7065   -4.6360   -0.6478 N   0  0  0  0  0  0  0  0  0  0  0  0
   -1.0072   -6.0464   -0.7437 C   0  0  2  0  0  0  0  0  0  0  0  0
    0.1007   -6.8128   -0.0332 C   0  0  0  0  0  0  0  0  0  0  0  0
    1.2238   -6.3493    0.1533 O   0  0  0  0  0  0  0  0  0  0  0  0
   -1.1306   -6.4886   -2.1935 C   0  0  0  0  0  0  0  0  0  0  0  0
   -1.3865   -4.0257   -0.2043 H   0  0  0  0  0  0  0  0  0  0  0  0
   -1.9557   -6.2040   -0.2187 H   0  0  0  0  0  0  0  0  0  0  0  0
   -0.1899   -6.3383   -2.7356 H   0  0  0  0  0  0  0  0  0  0  0  0
   -1.3865   -7.5509   -2.2639 H   0  0  0  0  0  0  0  0  0  0  0  0
   -1.9076   -5.9156   -2.7109 H   0  0  0  0  0  0  0  0  0  0  0  0
   -0.2991   -8.0914    0.3296 N   0  0  0  0  0  0  0  0  0  0  0  0
    0.5768   -9.0196    1.0058 C   0  0  0  0  0  0  0  0  0  0  0  0
   -1.2551   -8.3852    0.1524 H   0  0  0  0  0  0  0  0  0  0  0  0
    1.0898   -9.6481    0.2629 H   0  0  0  0  0  0  0  0  0  0  0  0
    1.3223   -8.4606    1.5904 H   0  0  0  0  0  0  0  0  0  0  0  0
   -0.0145   -9.6571    1.6796 H   0  0  0  0  0  0  0  0  0  0  0  0
 18 19  1  0  0  0  0
 19 31  1  0  0  0  0
 19 20  2  0  0  0  0
  8  9  1  0  0  0  0
  9 17  1  0  0  0  0
  9 10  2  0  0  0  0
  1  3  1  0  0  0  0
  1  7  1  0  0  0  0
  1  2  2  0  0  0  0
 32 33  1  0  0  0  0
 33 41  1  0  0  0  0
 33 34  2  0  0  0  0
 21 22  1  0  0  0  0
 22 23  1  0  0  0  0
 18 21  1  0  0  0  0
 17 23  1  0  0  0  0
 17 18  1  0  0  0  0
  8 11  1  0  0  0  0
 32 35  1  0  0  0  0
 41 42  1  0  0  0  0
  7  8  1  0  0  0  0
 31 32  1  0  0  0  0
 22 27  1  0  0  0  0
 22 28  1  0  0  0  0
 21 25  1  0  0  0  0
 21 26  1  0  0  0  0
 23 29  1  0  0  0  0
 23 30  1  0  0  0  0
 18 24  1  0  0  0  0
  3  4  1  0  0  0  0
  3  5  1  0  0  0  0
  3  6  1  0  0  0  0
 11 14  1  0  0  0  0
 11 15  1  0  0  0  0
 11 16  1  0  0  0  0
 35 38  1  0  0  0  0
 35 39  1  0  0  0  0
 35 40  1  0  0  0  0
 42 44  1  0  0  0  0
 42 45  1  0  0  0  0
 42 46  1  0  0  0  0
  8 13  1  0  0  0  0
 32 37  1  0  0  0  0
 31 36  1  0  0  0  0
 41 43  1  0  0  0  0
  7 12  1  0  0  0  0
M  END
$$$$

  -OEChem-05262214473D

 46 46  0     1  0  0  0  0  0999 V2000
   -0.6012   -3.2995    3.8205 C   0  0  0  0  0  0  0  0  0  0  0  0
   -0.6574   -4.4683    3.4568 O   0  0  0  0  0  0  0  0  0  0  0  0
   -0.4935   -2.9859    5.2760 C   0  0  0  0  0  0  0  0  0  0  0  0
   -1.4789   -2.8689    5.7550 H   0  0  0  0  0  0  0  0  0  0  0  0
    0.0123   -3.7847    5.8419 H   0  0  0  0  0  0  0  0  0  0  0  0
    0.0585   -2.0642    5.5199 H   0  0  0  0  0  0  0  0  0  0  0  0
   -0.6261   -2.1849    2.9917 N   0  0  0  0  0  0  0  0  0  0  0  0
   -0.7237   -2.2601    1.5650 C   0  0  2  0  0  0  0  0  0  0  0  0
    0.1695   -1.1513    1.0687 C   0  0  0  0  0  0  0  0  0  0  0  0
    0.3193   -0.1267    1.7365 O   0  0  0  0  0  0  0  0  0  0  0  0
   -2.1397   -2.0663    1.0750 C   0  0  0  0  0  0  0  0  0  0  0  0
   -0.5717   -1.2606    3.4238 H   0  0  0  0  0  0  0  0  0  0  0  0
   -0.3076   -3.2111    1.2363 H   0  0  0  0  0  0  0  0  0  0  0  0
   -2.5584   -1.1089    1.4061 H   0  0  0  0  0  0  0  0  0  0  0  0
   -2.1682   -2.0790   -0.0197 H   0  0  0  0  0  0  0  0  0  0  0  0
   -2.7965   -2.8601    1.4459 H   0  0  0  0  0  0  0  0  0  0  0  0
    0.7724   -1.3745   -0.1593 N   0  0  0  0  0  0  0  0  0  0  0  0
    0.5614   -2.5964   -0.9244 C   0  0  2  0  0  0  0  0  0  0  0  0
   -0.3735   -3.4587   -0.1308 C   0  0  0  0  0  0  0  0  0  0  0  0
   -1.0067   -2.9688    0.7970 O   0  0  0  0  0  0  0  0  0  0  0  0
    1.9458   -3.2230   -1.0432 C   0  0  0  0  0  0  0  0  0  0  0  0
    2.2521   -1.7403   -0.8458 C   0  0  0  0  0  0  0  0  0  0  0  0
    1.5408   -0.3981   -0.9273 C   0  0  0  0  0  0  0  0  0  0  0  0
    0.1027   -2.3787   -1.8936 H   0  0  0  0  0  0  0  0  0  0  0  0
    2.0691   -3.6740   -2.0351 H   0  0  0  0  0  0  0  0  0  0  0  0
    2.1474   -3.9863   -0.2855 H   0  0  0  0  0  0  0  0  0  0  0  0
    2.5528   -1.5477    0.1905 H   0  0  0  0  0  0  0  0  0  0  0  0
    3.0524   -1.3926   -1.5053 H   0  0  0  0  0  0  0  0  0  0  0  0
    2.1327    0.4188   -0.5056 H   0  0  0  0  0  0  0  0  0  0  0  0
    1.2759   -0.1509   -1.9611 H   0  0  0  0  0  0  0  0  0  0  0  0
   -0.4699   -4.7369   -0.4787 N   0  0  0  0  0  0  0  0  0  0  0  0
   -0.5730   -6.1745   -0.3713 C   0  0  2  0  0  0  0  0  0  0  0  0
    0.4937   -6.6508    0.6058 C   0  0  0  0  0  0  0  0  0  0  0  0
    1.5058   -6.0021    0.8627 O   0  0  0  0  0  0  0  0  0  0  0  0
   -0.4065   -6.8440   -1.7266 C   0  0  0  0  0  0  0  0  0  0  0  0
   -1.2829   -4.1751   -0.2445 H   0  0  0  0  0  0  0  0  0  0  0  0
   -1.5661   -6.3908    0.0373 H   0  0  0  0  0  0  0  0  0  0  0  0
    0.5827   -6.6386   -2.1518 H   0  0  0  0  0  0  0  0  0  0  0  0
   -0.5133   -7.9309   -1.6480 H   0  0  0  0  0  0  0  0  0  0  0  0
   -1.1560   -6.4782   -2.4367 H   0  0  0  0  0  0  0  0  0  0  0  0
    0.2037   -7.9051    1.1244 N   0  0  0  0  0  0  0  0  0  0  0  0
    1.0690   -8.5793    2.0640 C   0  0  0  0  0  0  0  0  0  0  0  0
   -0.6673   -8.3617    0.8704 H   0  0  0  0  0  0  0  0  0  0  0  0
    1.7686   -9.2291    1.5179 H   0  0  0  0  0  0  0  0  0  0  0  0
    1.6356   -7.8335    2.6408 H   0  0  0  0  0  0  0  0  0  0  0  0
    0.4616   -9.1887    2.7494 H   0  0  0  0  0  0  0  0  0  0  0  0
 18 19  1  0  0  0  0
 19 31  1  0  0  0  0
 19 20  2  0  0  0  0
  8  9  1  0  0  0  0
  9 17  1  0  0  0  0
  9 10  2  0  0  0  0
  1  3  1  0  0  0  0
  1  7  1  0  0  0  0
  1  2  2  0  0  0  0
 32 33  1  0  0  0  0
 33 41  1  0  0  0  0
 33 34  2  0  0  0  0
 21 22  1  0  0  0  0
 22 23  1  0  0  0  0
 18 21  1  0  0  0  0
 17 23  1  0  0  0  0
 17 18  1  0  0  0  0
  8 11  1  0  0  0  0
 32 35  1  0  0  0  0
 41 42  1  0  0  0  0
  7  8  1  0  0  0  0
 31 32  1  0  0  0  0
 22 27  1  0  0  0  0
 22 28  1  0  0  0  0
 21 25  1  0  0  0  0
 21 26  1  0  0  0  0
 23 29  1  0  0  0  0
 23 30  1  0  0  0  0
 18 24  1  0  0  0  0
  3  4  1  0  0  0  0
  3  5  1  0  0  0  0
  3  6  1  0  0  0  0
 11 14  1  0  0  0  0
 11 15  1  0  0  0  0
 11 16  1  0  0  0  0
 35 38  1  0  0  0  0
 35 39  1  0  0  0  0
 35 40  1  0  0  0  0
 42 44  1  0  0  0  0
 42 45  1  0  0  0  0
 42 46  1  0  0  0  0
  8 13  1  0  0  0  0
 32 37  1  0  0  0  0
 31 36  1  0  0  0  0
 41 43  1  0  0  0  0
  7 12  1  0  0  0  0
M  END
$$$$

  -OEChem-05262214473D

 46 46  0     1  0  0  0  0  0999 V2000
   -0.6012   -3.2995    3.8205 C   0  0  0  0  0  0  0  0  0  0  0  0
   -0.6574   -4.4683    3.4568 O   0  0  0  0  0  0  0  0  0  0  0  0
   -0.4935   -2.9859    5.2760 C   0  0  0  0  0  0  0  0  0  0  0  0
   -1.4789   -2.8689    5.7550 H   0  0  0  0  0  0  0  0  0  0  0  0
    0.0123   -3.7847    5.8419 H   0  0  0  0  0  0  0  0  0  0  0  0
    0.0585   -2.0642    5.5199 H   0  0  0  0  0  0  0  0  0  0  0  0
   -0.6261   -2.1849    2.9917 N   0  0  0  0  0  0  0  0  0  0  0  0
   -0.7237   -2.2601    1.5650 C   0  0  2  0  0  0  0  0  0  0  0  0
    0.1695   -1.1513    1.0687 C   0  0  0  0  0  0  0  0  0  0  0  0
    0.3193   -0.1267    1.7365 O   0  0  0  0  0  0  0  0  0  0  0  0
   -2.1397   -2.0663    1.0750 C   0  0  0  0  0  0  0  0  0  0  0  0
   -0.5717   -1.2606    3.4238 H   0  0  0  0  0  0  0  0  0  0  0  0
   -0.3076   -3.2111    1.2363 H   0  0  0  0  0  0  0  0  0  0  0  0
   -2.5584   -1.1089    1.4061 H   0  0  0  0  0  0  0  0  0  0  0  0
   -2.1682   -2.0790   -0.0197 H   0  0  0  0  0  0  0  0  0  0  0  0
   -2.7965   -2.8601    1.4459 H   0  0  0  0  0  0  0  0  0  0  0  0
    0.7724   -1.3745   -0.1593 N   0  0  0  0  0  0  0  0  0  0  0  0
    0.5614   -2.5964   -0.9244 C   0  0  2  0  0  0  0  0  0  0  0  0
   -0.3735   -3.4587   -0.1308 C   0  0  0  0  0  0  0  0  0  0  0  0
   -1.2032   -2.9344    0.6030 O   0  0  0  0  0  0  0  0  0  0  0  0
    1.9458   -3.2230   -1.0432 C   0  0  0  0  0  0  0  0  0  0  0  0
    2.2521   -1.7403   -0.8458 C   0  0  0  0  0  0  0  0  0  0  0  0
    1.5408   -0.3981   -0.9273 C   0  0  0  0  0  0  0  0  0  0  0  0
    0.1027   -2.3787   -1.8936 H   0  0  0  0  0  0  0  0  0  0  0  0
    2.0691   -3.6740   -2.0351 H   0  0  0  0  0  0  0  0  0  0  0  0
    2.1474   -3.9863   -0.2855 H   0  0  0  0  0  0  0  0  0  0  0  0
    2.5528   -1.5477    0.1905 H   0  0  0  0  0  0  0  0  0  0  0  0
    3.0524   -1.3926   -1.5053 H   0  0  0  0  0  0  0  0  0  0  0  0
    2.1327    0.4188   -0.5056 H   0  0  0  0  0  0  0  0  0  0  0  0
    1.2759   -0.1509   -1.9611 H   0  0  0  0  0  0  0  0  0  0  0  0
   -0.2527   -4.7747   -0.2639 N   0  0  0  0  0  0  0  0  0  0  0  0
   -0.1914   -6.1787    0.0737 C   0  0  2  0  0  0  0  0  0  0  0  0
    0.7560   -6.3374    1.2554 C   0  0  0  0  0  0  0  0  0  0  0  0
    1.6249   -5.5136    1.5339 O   0  0  0  0  0  0  0  0  0  0  0  0
    0.2722   -7.0127   -1.1105 C   0  0  0  0  0  0  0  0  0  0  0  0
   -1.1563   -4.3116   -0.2438 H   0  0  0  0  0  0  0  0  0  0  0  0
   -1.2023   -6.4765    0.3727 H   0  0  0  0  0  0  0  0  0  0  0  0
    1.2832   -6.7287   -1.4244 H   0  0  0  0  0  0  0  0  0  0  0  0
    0.2907   -8.0790   -0.8618 H   0  0  0  0  0  0  0  0  0  0  0  0
   -0.3937   -6.8743   -1.9692 H   0  0  0  0  0  0  0  0  0  0  0  0
    0.5456   -7.5280    1.9369 N   0  0  0  0  0  0  0  0  0  0  0  0
    1.3265   -7.9158    3.0883 C   0  0  0  0  0  0  0  0  0  0  0  0
   -0.2097   -8.1425    1.6476 H   0  0  0  0  0  0  0  0  0  0  0  0
    2.1801   -8.5289    2.7635 H   0  0  0  0  0  0  0  0  0  0  0  0
    1.6959   -7.0153    3.6009 H   0  0  0  0  0  0  0  0  0  0  0  0
    0.6981   -8.4985    3.7780 H   0  0  0  0  0  0  0  0  0  0  0  0
 18 19  1  0  0  0  0
 19 31  1  0  0  0  0
 19 20  2  0  0  0  0
  8  9  1  0  0  0  0
  9 17  1  0  0  0  0
  9 10  2  0  0  0  0
  1  3  1  0  0  0  0
  1  7  1  0  0  0  0
  1  2  2  0  0  0  0
 32 33  1  0  0  0  0
 33 41  1  0  0  0  0
 33 34  2  0  0  0  0
 21 22  1  0  0  0  0
 22 23  1  0  0  0  0
 18 21  1  0  0  0  0
 17 23  1  0  0  0  0
 17 18  1  0  0  0  0
  8 11  1  0  0  0  0
 32 35  1  0  0  0  0
 41 42  1  0  0  0  0
  7  8  1  0  0  0  0
 31 32  1  0  0  0  0
 22 27  1  0  0  0  0
 22 28  1  0  0  0  0
 21 25  1  0  0  0  0
 21 26  1  0  0  0  0
 23 29  1  0  0  0  0
 23 30  1  0  0  0  0
 18 24  1  0  0  0  0
  3  4  1  0  0  0  0
  3  5  1  0  0  0  0
  3  6  1  0  0  0  0
 11 14  1  0  0  0  0
 11 15  1  0  0  0  0
 11 16  1  0  0  0  0
 35 38  1  0  0  0  0
 35 39  1  0  0  0  0
 35 40  1  0  0  0  0
 42 44  1  0  0  0  0
 42 45  1  0  0  0  0
 42 46  1  0  0  0  0
  8 13  1  0  0  0  0
 32 37  1  0  0  0  0
 31 36  1  0  0  0  0
 41 43  1  0  0  0  0
  7 12  1  0  0  0  0
M  END
$$$$

  -OEChem-05262214473D

 46 46  0     1  0  0  0  0  0999 V2000
   -0.6012   -3.2995    3.8205 C   0  0  0  0  0  0  0  0  0  0  0  0
   -0.6574   -4.4683    3.4568 O   0  0  0  0  0  0  0  0  0  0  0  0
   -0.4935   -2.9859    5.2760 C   0  0  0  0  0  0  0  0  0  0  0  0
   -1.4789   -2.8689    5.7550 H   0  0  0  0  0  0  0  0  0  0  0  0
    0.0123   -3.7847    5.8419 H   0  0  0  0  0  0  0  0  0  0  0  0
    0.0585   -2.0642    5.5199 H   0  0  0  0  0  0  0  0  0  0  0  0
   -0.6261   -2.1849    2.9917 N   0  0  0  0  0  0  0  0  0  0  0  0
   -0.7237   -2.2601    1.5650 C   0  0  2  0  0  0  0  0  0  0  0  0
    0.1695   -1.1513    1.0687 C   0  0  0  0  0  0  0  0  0  0  0  0
    0.3193   -0.1267    1.7365 O   0  0  0  0  0  0  0  0  0  0  0  0
   -2.1397   -2.0663    1.0750 C   0  0  0  0  0  0  0  0  0  0  0  0
   -0.5717   -1.2606    3.4238 H   0  0  0  0  0  0  0  0  0  0  0  0
   -0.3076   -3.2111    1.2363 H   0  0  0  0  0  0  0  0  0  0  0  0
   -2.5584   -1.1089    1.4061 H   0  0  0  0  0  0  0  0  0  0  0  0
   -2.1682   -2.0790   -0.0197 H   0  0  0  0  0  0  0  0  0  0  0  0
   -2.7965   -2.8601    1.4459 H   0  0  0  0  0  0  0  0  0  0  0  0
    0.7724   -1.3745   -0.1593 N   0  0  0  0  0  0  0  0  0  0  0  0
    0.5614   -2.5964   -0.9244 C   0  0  2  0  0  0  0  0  0  0  0  0
   -0.3735   -3.4587   -0.1308 C   0  0  0  0  0  0  0  0  0  0  0  0
   -1.3688   -2.9593    0.3807 O   0  0  0  0  0  0  0  0  0  0  0  0
    1.9458   -3.2230   -1.0432 C   0  0  0  0  0  0  0  0  0  0  0  0
    2.2521   -1.7403   -0.8458 C   0  0  0  0  0  0  0  0  0  0  0  0
    1.5408   -0.3981   -0.9273 C   0  0  0  0  0  0  0  0  0  0  0  0
    0.1027   -2.3787   -1.8936 H   0  0  0  0  0  0  0  0  0  0  0  0
    2.0691   -3.6740   -2.0351 H   0  0  0  0  0  0  0  0  0  0  0  0
    2.1474   -3.9863   -0.2855 H   0  0  0  0  0  0  0  0  0  0  0  0
    2.5528   -1.5477    0.1905 H   0  0  0  0  0  0  0  0  0  0  0  0
    3.0524   -1.3926   -1.5053 H   0  0  0  0  0  0  0  0  0  0  0  0
    2.1327    0.4188   -0.5056 H   0  0  0  0  0  0  0  0  0  0  0  0
    1.2759   -0.1509   -1.9611 H   0  0  0  0  0  0  0  0  0  0  0  0
   -0.0697   -4.7467   -0.0179 N   0  0  0  0  0  0  0  0  0  0  0  0
    0.1115   -6.0586    0.5610 C   0  0  2  0  0  0  0  0  0  0  0  0
    0.8698   -5.8938    1.8714 C   0  0  0  0  0  0  0  0  0  0  0  0
    1.5732   -4.9171    2.1211 O   0  0  0  0  0  0  0  0  0  0  0  0
    0.8591   -6.9833   -0.3871 C   0  0  0  0  0  0  0  0  0  0  0  0
   -1.0155   -4.4261   -0.2023 H   0  0  0  0  0  0  0  0  0  0  0  0
   -0.8891   -6.4553    0.7647 H   0  0  0  0  0  0  0  0  0  0  0  0
    1.8639   -6.6023   -0.6030 H   0  0  0  0  0  0  0  0  0  0  0  0
    0.9704   -7.9849    0.0412 H   0  0  0  0  0  0  0  0  0  0  0  0
    0.3273   -7.0771   -1.3401 H   0  0  0  0  0  0  0  0  0  0  0  0
    0.7032   -6.9858    2.7117 N   0  0  0  0  0  0  0  0  0  0  0  0
    1.3318   -7.0743    4.0090 C   0  0  0  0  0  0  0  0  0  0  0  0
    0.0866   -7.7427    2.4311 H   0  0  0  0  0  0  0  0  0  0  0  0
    2.2961   -7.5951    3.9149 H   0  0  0  0  0  0  0  0  0  0  0  0
    1.4991   -6.0618    4.4051 H   0  0  0  0  0  0  0  0  0  0  0  0
    0.6788   -7.6333    4.6953 H   0  0  0  0  0  0  0  0  0  0  0  0
 18 19  1  0  0  0  0
 19 31  1  0  0  0  0
 19 20  2  0  0  0  0
  8  9  1  0  0  0  0
  9 17  1  0  0  0  0
  9 10  2  0  0  0  0
  1  3  1  0  0  0  0
  1  7  1  0  0  0  0
  1  2  2  0  0  0  0
 32 33  1  0  0  0  0
 33 41  1  0  0  0  0
 33 34  2  0  0  0  0
 21 22  1  0  0  0  0
 22 23  1  0  0  0  0
 18 21  1  0  0  0  0
 17 23  1  0  0  0  0
 17 18  1  0  0  0  0
  8 11  1  0  0  0  0
 32 35  1  0  0  0  0
 41 42  1  0  0  0  0
  7  8  1  0  0  0  0
 31 32  1  0  0  0  0
 22 27  1  0  0  0  0
 22 28  1  0  0  0  0
 21 25  1  0  0  0  0
 21 26  1  0  0  0  0
 23 29  1  0  0  0  0
 23 30  1  0  0  0  0
 18 24  1  0  0  0  0
  3  4  1  0  0  0  0
  3  5  1  0  0  0  0
  3  6  1  0  0  0  0
 11 14  1  0  0  0  0
 11 15  1  0  0  0  0
 11 16  1  0  0  0  0
 35 38  1  0  0  0  0
 35 39  1  0  0  0  0
 35 40  1  0  0  0  0
 42 44  1  0  0  0  0
 42 45  1  0  0  0  0
 42 46  1  0  0  0  0
  8 13  1  0  0  0  0
 32 37  1  0  0  0  0
 31 36  1  0  0  0  0
 41 43  1  0  0  0  0
  7 12  1  0  0  0  0
M  END
$$$$

  -OEChem-05262214473D

 46 46  0     1  0  0  0  0  0999 V2000
   -0.6012   -3.2995    3.8205 C   0  0  0  0  0  0  0  0  0  0  0  0
   -0.6574   -4.4683    3.4568 O   0  0  0  0  0  0  0  0  0  0  0  0
   -0.4935   -2.9859    5.2760 C   0  0  0  0  0  0  0  0  0  0  0  0
   -1.4789   -2.8689    5.7550 H   0  0  0  0  0  0  0  0  0  0  0  0
    0.0123   -3.7847    5.8419 H   0  0  0  0  0  0  0  0  0  0  0  0
    0.0585   -2.0642    5.5199 H   0  0  0  0  0  0  0  0  0  0  0  0
   -0.6261   -2.1849    2.9917 N   0  0  0  0  0  0  0  0  0  0  0  0
   -0.7237   -2.2601    1.5650 C   0  0  2  0  0  0  0  0  0  0  0  0
    0.1695   -1.1513    1.0687 C   0  0  0  0  0  0  0  0  0  0  0  0
    0.3193   -0.1267    1.7365 O   0  0  0  0  0  0  0  0  0  0  0  0
   -2.1397   -2.0663    1.0750 C   0  0  0  0  0  0  0  0  0  0  0  0
   -0.5717   -1.2606    3.4238 H   0  0  0  0  0  0  0  0  0  0  0  0
   -0.3076   -3.2111    1.2363 H   0  0  0  0  0  0  0  0  0  0  0  0
   -2.5584   -1.1089    1.4061 H   0  0  0  0  0  0  0  0  0  0  0  0
   -2.1682   -2.0790   -0.0197 H   0  0  0  0  0  0  0  0  0  0  0  0
   -2.7965   -2.8601    1.4459 H   0  0  0  0  0  0  0  0  0  0  0  0
    0.7724   -1.3745   -0.1593 N   0  0  0  0  0  0  0  0  0  0  0  0
    0.5614   -2.5964   -0.9244 C   0  0  2  0  0  0  0  0  0  0  0  0
   -0.3735   -3.4587   -0.1308 C   0  0  0  0  0  0  0  0  0  0  0  0
   -1.4923   -3.0420    0.1454 O   0  0  0  0  0  0  0  0  0  0  0  0
    1.9458   -3.2230   -1.0432 C   0  0  0  0  0  0  0  0  0  0  0  0
    2.2521   -1.7403   -0.8458 C   0  0  0  0  0  0  0  0  0  0  0  0
    1.5408   -0.3981   -0.9273 C   0  0  0  0  0  0  0  0  0  0  0  0
    0.1027   -2.3787   -1.8936 H   0  0  0  0  0  0  0  0  0  0  0  0
    2.0691   -3.6740   -2.0351 H   0  0  0  0  0  0  0  0  0  0  0  0
    2.1474   -3.9863   -0.2855 H   0  0  0  0  0  0  0  0  0  0  0  0
    2.5528   -1.5477    0.1905 H   0  0  0  0  0  0  0  0  0  0  0  0
    3.0524   -1.3926   -1.5053 H   0  0  0  0  0  0  0  0  0  0  0  0
    2.1327    0.4188   -0.5056 H   0  0  0  0  0  0  0  0  0  0  0  0
    1.2759   -0.1509   -1.9611 H   0  0  0  0  0  0  0  0  0  0  0  0
    0.0666   -4.6550    0.2424 N   0  0  0  0  0  0  0  0  0  0  0  0
    0.3150   -5.8225    1.0574 C   0  0  2  0  0  0  0  0  0  0  0  0
    0.8272   -5.3504    2.4117 C   0  0  0  0  0  0  0  0  0  0  0  0
    1.3540   -4.2532    2.5843 O   0  0  0  0  0  0  0  0  0  0  0  0
    1.3143   -6.7577    0.3943 C   0  0  0  0  0  0  0  0  0  0  0  0
   -0.8700   -4.5106   -0.1227 H   0  0  0  0  0  0  0  0  0  0  0  0
   -0.6478   -6.3287    1.1866 H   0  0  0  0  0  0  0  0  0  0  0  0
    2.2852   -6.2680    0.2565 H   0  0  0  0  0  0  0  0  0  0  0  0
    1.4797   -7.6552    0.9995 H   0  0  0  0  0  0  0  0  0  0  0  0
    0.9579   -7.0727   -0.5924 H   0  0  0  0  0  0  0  0  0  0  0  0
    0.6657   -6.3154    3.3960 N   0  0  0  0  0  0  0  0  0  0  0  0
    1.0846   -6.1121    4.7632 C   0  0  0  0  0  0  0  0  0  0  0  0
    0.2014   -7.1894    3.1675 H   0  0  0  0  0  0  0  0  0  0  0  0
    2.1089   -6.4913    4.8937 H   0  0  0  0  0  0  0  0  0  0  0  0
    1.0586   -5.0380    4.9987 H   0  0  0  0  0  0  0  0  0  0  0  0
    0.4050   -6.6522    5.4389 H   0  0  0  0  0  0  0  0  0  0  0  0
 18 19  1  0  0  0  0
 19 31  1  0  0  0  0
 19 20  2  0  0  0  0
  8  9  1  0  0  0  0
  9 17  1  0  0  0  0
  9 10  2  0  0  0  0
  1  3  1  0  0  0  0
  1  7  1  0  0  0  0
  1  2  2  0  0  0  0
 32 33  1  0  0  0  0
 33 41  1  0  0  0  0
 33 34  2  0  0  0  0
 21 22  1  0  0  0  0
 22 23  1  0  0  0  0
 18 21  1  0  0  0  0
 17 23  1  0  0  0  0
 17 18  1  0  0  0  0
  8 11  1  0  0  0  0
 32 35  1  0  0  0  0
 41 42  1  0  0  0  0
  7  8  1  0  0  0  0
 31 32  1  0  0  0  0
 22 27  1  0  0  0  0
 22 28  1  0  0  0  0
 21 25  1  0  0  0  0
 21 26  1  0  0  0  0
 23 29  1  0  0  0  0
 23 30  1  0  0  0  0
 18 24  1  0  0  0  0
  3  4  1  0  0  0  0
  3  5  1  0  0  0  0
  3  6  1  0  0  0  0
 11 14  1  0  0  0  0
 11 15  1  0  0  0  0
 11 16  1  0  0  0  0
 35 38  1  0  0  0  0
 35 39  1  0  0  0  0
 35 40  1  0  0  0  0
 42 44  1  0  0  0  0
 42 45  1  0  0  0  0
 42 46  1  0  0  0  0
  8 13  1  0  0  0  0
 32 37  1  0  0  0  0
 31 36  1  0  0  0  0
 41 43  1  0  0  0  0
  7 12  1  0  0  0  0
M  END
$$$$

  -OEChem-05262214473D

 46 46  0     1  0  0  0  0  0999 V2000
   -0.6012   -3.2995    3.8205 C   0  0  0  0  0  0  0  0  0  0  0  0
   -0.6574   -4.4683    3.4568 O   0  0  0  0  0  0  0  0  0  0  0  0
   -0.4935   -2.9859    5.2760 C   0  0  0  0  0  0  0  0  0  0  0  0
   -1.4789   -2.8689    5.7550 H   0  0  0  0  0  0  0  0  0  0  0  0
    0.0123   -3.7847    5.8419 H   0  0  0  0  0  0  0  0  0  0  0  0
    0.0585   -2.0642    5.5199 H   0  0  0  0  0  0  0  0  0  0  0  0
   -0.6261   -2.1849    2.9917 N   0  0  0  0  0  0  0  0  0  0  0  0
   -0.7237   -2.2601    1.5650 C   0  0  2  0  0  0  0  0  0  0  0  0
    0.1695   -1.1513    1.0687 C   0  0  0  0  0  0  0  0  0  0  0  0
    0.3193   -0.1267    1.7365 O   0  0  0  0  0  0  0  0  0  0  0  0
   -2.1397   -2.0663    1.0750 C   0  0  0  0  0  0  0  0  0  0  0  0
   -0.5717   -1.2606    3.4238 H   0  0  0  0  0  0  0  0  0  0  0  0
   -0.3076   -3.2111    1.2363 H   0  0  0  0  0  0  0  0  0  0  0  0
   -2.5584   -1.1089    1.4061 H   0  0  0  0  0  0  0  0  0  0  0  0
   -2.1682   -2.0790   -0.0197 H   0  0  0  0  0  0  0  0  0  0  0  0
   -2.7965   -2.8601    1.4459 H   0  0  0  0  0  0  0  0  0  0  0  0
    0.7724   -1.3745   -0.1593 N   0  0  0  0  0  0  0  0  0  0  0  0
    0.5614   -2.5964   -0.9244 C   0  0  2  0  0  0  0  0  0  0  0  0
   -0.3735   -3.4587   -0.1308 C   0  0  0  0  0  0  0  0  0  0  0  0
   -1.5653   -3.1767   -0.0869 O   0  0  0  0  0  0  0  0  0  0  0  0
    1.9458   -3.2230   -1.0432 C   0  0  0  0  0  0  0  0  0  0  0  0
    2.2521   -1.7403   -0.8458 C   0  0  0  0  0  0  0  0  0  0  0  0
    1.5408   -0.3981   -0.9273 C   0  0  0  0  0  0  0  0  0  0  0  0
    0.1027   -2.3787   -1.8936 H   0  0  0  0  0  0  0  0  0  0  0  0
    2.0691   -3.6740   -2.0351 H   0  0  0  0  0  0  0  0  0  0  0  0
    2.1474   -3.9863   -0.2855 H   0  0  0  0  0  0  0  0  0  0  0  0
    2.5528   -1.5477    0.1905 H   0  0  0  0  0  0  0  0  0  0  0  0
    3.0524   -1.3926   -1.5053 H   0  0  0  0  0  0  0  0  0  0  0  0
    2.1327    0.4188   -0.5056 H   0  0  0  0  0  0  0  0  0  0  0  0
    1.2759   -0.1509   -1.9611 H   0  0  0  0  0  0  0  0  0  0  0  0
    0.1470   -4.5057    0.4993 N   0  0  0  0  0  0  0  0  0  0  0  0
    0.4054   -5.4864    1.5290 C   0  0  2  0  0  0  0  0  0  0  0  0
    0.6311   -4.7441    2.8395 C   0  0  0  0  0  0  0  0  0  0  0  0
    0.9825   -3.5673    2.8920 O   0  0  0  0  0  0  0  0  0  0  0  0
    1.6067   -6.3513    1.1804 C   0  0  0  0  0  0  0  0  0  0  0  0
   -0.7297   -4.5595   -0.0105 H   0  0  0  0  0  0  0  0  0  0  0  0
   -0.4949   -6.1052    1.6095 H   0  0  0  0  0  0  0  0  0  0  0  0
    2.5184   -5.7487    1.0955 H   0  0  0  0  0  0  0  0  0  0  0  0
    1.7838   -7.1122    1.9477 H   0  0  0  0  0  0  0  0  0  0  0  0
    1.4551   -6.8613    0.2230 H   0  0  0  0  0  0  0  0  0  0  0  0
    0.4358   -5.5625    3.9433 N   0  0  0  0  0  0  0  0  0  0  0  0
    0.6017   -5.0949    5.2997 C   0  0  0  0  0  0  0  0  0  0  0  0
    0.1268   -6.5204    3.8066 H   0  0  0  0  0  0  0  0  0  0  0  0
    1.6311   -5.2929    5.6330 H   0  0  0  0  0  0  0  0  0  0  0  0
    0.4045   -4.0135    5.3413 H   0  0  0  0  0  0  0  0  0  0  0  0
   -0.1045   -5.6220    5.9580 H   0  0  0  0  0  0  0  0  0  0  0  0
 18 19  1  0  0  0  0
 19 31  1  0  0  0  0
 19 20  2  0  0  0  0
  8  9  1  0  0  0  0
  9 17  1  0  0  0  0
  9 10  2  0  0  0  0
  1  3  1  0  0  0  0
  1  7  1  0  0  0  0
  1  2  2  0  0  0  0
 32 33  1  0  0  0  0
 33 41  1  0  0  0  0
 33 34  2  0  0  0  0
 21 22  1  0  0  0  0
 22 23  1  0  0  0  0
 18 21  1  0  0  0  0
 17 23  1  0  0  0  0
 17 18  1  0  0  0  0
  8 11  1  0  0  0  0
 32 35  1  0  0  0  0
 41 42  1  0  0  0  0
  7  8  1  0  0  0  0
 31 32  1  0  0  0  0
 22 27  1  0  0  0  0
 22 28  1  0  0  0  0
 21 25  1  0  0  0  0
 21 26  1  0  0  0  0
 23 29  1  0  0  0  0
 23 30  1  0  0  0  0
 18 24  1  0  0  0  0
  3  4  1  0  0  0  0
  3  5  1  0  0  0  0
  3  6  1  0  0  0  0
 11 14  1  0  0  0  0
 11 15  1  0  0  0  0
 11 16  1  0  0  0  0
 35 38  1  0  0  0  0
 35 39  1  0  0  0  0
 35 40  1  0  0  0  0
 42 44  1  0  0  0  0
 42 45  1  0  0  0  0
 42 46  1  0  0  0  0
  8 13  1  0  0  0  0
 32 37  1  0  0  0  0
 31 36  1  0  0  0  0
 41 43  1  0  0  0  0
  7 12  1  0  0  0  0
M  END
$$$$

  -OEChem-05262214473D

 46 46  0     1  0  0  0  0  0999 V2000
   -0.6012   -3.2995    3.8205 C   0  0  0  0  0  0  0  0  0  0  0  0
   -0.6574   -4.4683    3.4568 O   0  0  0  0  0  0  0  0  0  0  0  0
   -0.4935   -2.9859    5.2760 C   0  0  0  0  0  0  0  0  0  0  0  0
   -1.4789   -2.8689    5.7550 H   0  0  0  0  0  0  0  0  0  0  0  0
    0.0123   -3.7847    5.8419 H   0  0  0  0  0  0  0  0  0  0  0  0
    0.0585   -2.0642    5.5199 H   0  0  0  0  0  0  0  0  0  0  0  0
   -0.6261   -2.1849    2.9917 N   0  0  0  0  0  0  0  0  0  0  0  0
   -0.7237   -2.2601    1.5650 C   0  0  2  0  0  0  0  0  0  0  0  0
    0.1695   -1.1513    1.0687 C   0  0  0  0  0  0  0  0  0  0  0  0
    0.3193   -0.1267    1.7365 O   0  0  0  0  0  0  0  0  0  0  0  0
   -2.1397   -2.0663    1.0750 C   0  0  0  0  0  0  0  0  0  0  0  0
   -0.5717   -1.2606    3.4238 H   0  0  0  0  0  0  0  0  0  0  0  0
   -0.3076   -3.2111    1.2363 H   0  0  0  0  0  0  0  0  0  0  0  0
   -2.5584   -1.1089    1.4061 H   0  0  0  0  0  0  0  0  0  0  0  0
   -2.1682   -2.0790   -0.0197 H   0  0  0  0  0  0  0  0  0  0  0  0
   -2.7965   -2.8601    1.4459 H   0  0  0  0  0  0  0  0  0  0  0  0
    0.7724   -1.3745   -0.1593 N   0  0  0  0  0  0  0  0  0  0  0  0
    0.5614   -2.5964   -0.9244 C   0  0  2  0  0  0  0  0  0  0  0  0
   -0.3735   -3.4587   -0.1308 C   0  0  0  0  0  0  0  0  0  0  0  0
   -1.5827   -3.3544   -0.3005 O   0  0  0  0  0  0  0  0  0  0  0  0
    1.9458   -3.2230   -1.0432 C   0  0  0  0  0  0  0  0  0  0  0  0
    2.2521   -1.7403   -0.8458 C   0  0  0  0  0  0  0  0  0  0  0  0
    1.5408   -0.3981   -0.9273 C   0  0  0  0  0  0  0  0  0  0  0  0
    0.1027   -2.3787   -1.8936 H   0  0  0  0  0  0  0  0  0  0  0  0
    2.0691   -3.6740   -2.0351 H   0  0  0  0  0  0  0  0  0  0  0  0
    2.1474   -3.9863   -0.2855 H   0  0  0  0  0  0  0  0  0  0  0  0
    2.5528   -1.5477    0.1905 H   0  0  0  0  0  0  0  0  0  0  0  0
    3.0524   -1.3926   -1.5053 H   0  0  0  0  0  0  0  0  0  0  0  0
    2.1327    0.4188   -0.5056 H   0  0  0  0  0  0  0  0  0  0  0  0
    1.2759   -0.1509   -1.9611 H   0  0  0  0  0  0  0  0  0  0  0  0
    0.1659   -4.3090    0.7353 N   0  0  0  0  0  0  0  0  0  0  0  0
    0.3765   -5.0733    1.9438 C   0  0  2  0  0  0  0  0  0  0  0  0
    0.2949   -4.1162    3.1258 C   0  0  0  0  0  0  0  0  0  0  0  0
    0.4838   -2.9059    3.0231 O   0  0  0  0  0  0  0  0  0  0  0  0
    1.7165   -5.7918    1.9177 C   0  0  0  0  0  0  0  0  0  0  0  0
   -0.6042   -4.5694    0.1266 H   0  0  0  0  0  0  0  0  0  0  0  0
   -0.4408   -5.8002    2.0047 H   0  0  0  0  0  0  0  0  0  0  0  0
    2.5475   -5.0797    1.8568 H   0  0  0  0  0  0  0  0  0  0  0  0
    1.8620   -6.3931    2.8212 H   0  0  0  0  0  0  0  0  0  0  0  0
    1.7849   -6.4574    1.0505 H   0  0  0  0  0  0  0  0  0  0  0  0
    0.0291   -4.7784    4.3161 N   0  0  0  0  0  0  0  0  0  0  0  0
   -0.0840   -4.0919    5.5818 C   0  0  0  0  0  0  0  0  0  0  0  0
   -0.1320   -5.7812    4.3048 H   0  0  0  0  0  0  0  0  0  0  0  0
    0.8953   -4.0814    6.0826 H   0  0  0  0  0  0  0  0  0  0  0  0
   -0.4187   -3.0583    5.4095 H   0  0  0  0  0  0  0  0  0  0  0  0
   -0.8152   -4.6129    6.2173 H   0  0  0  0  0  0  0  0  0  0  0  0
 18 19  1  0  0  0  0
 19 31  1  0  0  0  0
 19 20  2  0  0  0  0
  8  9  1  0  0  0  0
  9 17  1  0  0  0  0
  9 10  2  0  0  0  0
  1  3  1  0  0  0  0
  1  7  1  0  0  0  0
  1  2  2  0  0  0  0
 32 33  1  0  0  0  0
 33 41  1  0  0  0  0
 33 34  2  0  0  0  0
 21 22  1  0  0  0  0
 22 23  1  0  0  0  0
 18 21  1  0  0  0  0
 17 23  1  0  0  0  0
 17 18  1  0  0  0  0
  8 11  1  0  0  0  0
 32 35  1  0  0  0  0
 41 42  1  0  0  0  0
  7  8  1  0  0  0  0
 31 32  1  0  0  0  0
 22 27  1  0  0  0  0
 22 28  1  0  0  0  0
 21 25  1  0  0  0  0
 21 26  1  0  0  0  0
 23 29  1  0  0  0  0
 23 30  1  0  0  0  0
 18 24  1  0  0  0  0
  3  4  1  0  0  0  0
  3  5  1  0  0  0  0
  3  6  1  0  0  0  0
 11 14  1  0  0  0  0
 11 15  1  0  0  0  0
 11 16  1  0  0  0  0
 35 38  1  0  0  0  0
 35 39  1  0  0  0  0
 35 40  1  0  0  0  0
 42 44  1  0  0  0  0
 42 45  1  0  0  0  0
 42 46  1  0  0  0  0
  8 13  1  0  0  0  0
 32 37  1  0  0  0  0
 31 36  1  0  0  0  0
 41 43  1  0  0  0  0
  7 12  1  0  0  0  0
M  END
$$$$

  -OEChem-05262214473D

 46 46  0     1  0  0  0  0  0999 V2000
   -0.6012   -3.2995    3.8205 C   0  0  0  0  0  0  0  0  0  0  0  0
   -0.6574   -4.4683    3.4568 O   0  0  0  0  0  0  0  0  0  0  0  0
   -0.4935   -2.9859    5.2760 C   0  0  0  0  0  0  0  0  0  0  0  0
   -1.4789   -2.8689    5.7550 H   0  0  0  0  0  0  0  0  0  0  0  0
    0.0123   -3.7847    5.8419 H   0  0  0  0  0  0  0  0  0  0  0  0
    0.0585   -2.0642    5.5199 H   0  0  0  0  0  0  0  0  0  0  0  0
   -0.6261   -2.1849    2.9917 N   0  0  0  0  0  0  0  0  0  0  0  0
   -0.7237   -2.2601    1.5650 C   0  0  2  0  0  0  0  0  0  0  0  0
    0.1695   -1.1513    1.0687 C   0  0  0  0  0  0  0  0  0  0  0  0
    0.3193   -0.1267    1.7365 O   0  0  0  0  0  0  0  0  0  0  0  0
   -2.1397   -2.0663    1.0750 C   0  0  0  0  0  0  0  0  0  0  0  0
   -0.5717   -1.2606    3.4238 H   0  0  0  0  0  0  0  0  0  0  0  0
   -0.3076   -3.2111    1.2363 H   0  0  0  0  0  0  0  0  0  0  0  0
   -2.5584   -1.1089    1.4061 H   0  0  0  0  0  0  0  0  0  0  0  0
   -2.1682   -2.0790   -0.0197 H   0  0  0  0  0  0  0  0  0  0  0  0
   -2.7965   -2.8601    1.4459 H   0  0  0  0  0  0  0  0  0  0  0  0
    0.7724   -1.3745   -0.1593 N   0  0  0  0  0  0  0  0  0  0  0  0
    0.5614   -2.5964   -0.9244 C   0  0  2  0  0  0  0  0  0  0  0  0
   -0.3735   -3.4587   -0.1308 C   0  0  0  0  0  0  0  0  0  0  0  0
   -1.5433   -3.5628   -0.4806 O   0  0  0  0  0  0  0  0  0  0  0  0
    1.9458   -3.2230   -1.0432 C   0  0  0  0  0  0  0  0  0  0  0  0
    2.2521   -1.7403   -0.8458 C   0  0  0  0  0  0  0  0  0  0  0  0
    1.5408   -0.3981   -0.9273 C   0  0  0  0  0  0  0  0  0  0  0  0
    0.1027   -2.3787   -1.8936 H   0  0  0  0  0  0  0  0  0  0  0  0
    2.0691   -3.6740   -2.0351 H   0  0  0  0  0  0  0  0  0  0  0  0
    2.1474   -3.9863   -0.2855 H   0  0  0  0  0  0  0  0  0  0  0  0
    2.5528   -1.5477    0.1905 H   0  0  0  0  0  0  0  0  0  0  0  0
    3.0524   -1.3926   -1.5053 H   0  0  0  0  0  0  0  0  0  0  0  0
    2.1327    0.4188   -0.5056 H   0  0  0  0  0  0  0  0  0  0  0  0
    1.2759   -0.1509   -1.9611 H   0  0  0  0  0  0  0  0  0  0  0  0
    0.1221   -4.0783    0.9344 N   0  0  0  0  0  0  0  0  0  0  0  0
    0.2301   -4.6112    2.2735 C   0  0  2  0  0  0  0  0  0  0  0  0
   -0.1584   -3.5096    3.2508 C   0  0  0  0  0  0  0  0  0  0  0  0
   -0.1081   -2.3142    2.9688 O   0  0  0  0  0  0  0  0  0  0  0  0
    1.6361   -5.1174    2.5559 C   0  0  0  0  0  0  0  0  0  0  0  0
   -0.5020   -4.5396    0.2793 H   0  0  0  0  0  0  0  0  0  0  0  0
   -0.4892   -5.4343    2.3453 H   0  0  0  0  0  0  0  0  0  0  0  0
    2.3707   -4.3066    2.4885 H   0  0  0  0  0  0  0  0  0  0  0  0
    1.7089   -5.5467    3.5606 H   0  0  0  0  0  0  0  0  0  0  0  0
    1.9251   -5.8885    1.8337 H   0  0  0  0  0  0  0  0  0  0  0  0
   -0.5266   -4.0166    4.4892 N   0  0  0  0  0  0  0  0  0  0  0  0
   -0.9257   -3.1715    5.5903 C   0  0  0  0  0  0  0  0  0  0  0  0
   -0.5575   -5.0223    4.6283 H   0  0  0  0  0  0  0  0  0  0  0  0
   -0.0483   -2.9394    6.2118 H   0  0  0  0  0  0  0  0  0  0  0  0
   -1.3548   -2.2374    5.1986 H   0  0  0  0  0  0  0  0  0  0  0  0
   -1.6784   -3.6938    6.1991 H   0  0  0  0  0  0  0  0  0  0  0  0
 18 19  1  0  0  0  0
 19 31  1  0  0  0  0
 19 20  2  0  0  0  0
  8  9  1  0  0  0  0
  9 17  1  0  0  0  0
  9 10  2  0  0  0  0
  1  3  1  0  0  0  0
  1  7  1  0  0  0  0
  1  2  2  0  0  0  0
 32 33  1  0  0  0  0
 33 41  1  0  0  0  0
 33 34  2  0  0  0  0
 21 22  1  0  0  0  0
 22 23  1  0  0  0  0
 18 21  1  0  0  0  0
 17 23  1  0  0  0  0
 17 18  1  0  0  0  0
  8 11  1  0  0  0  0
 32 35  1  0  0  0  0
 41 42  1  0  0  0  0
  7  8  1  0  0  0  0
 31 32  1  0  0  0  0
 22 27  1  0  0  0  0
 22 28  1  0  0  0  0
 21 25  1  0  0  0  0
 21 26  1  0  0  0  0
 23 29  1  0  0  0  0
 23 30  1  0  0  0  0
 18 24  1  0  0  0  0
  3  4  1  0  0  0  0
  3  5  1  0  0  0  0
  3  6  1  0  0  0  0
 11 14  1  0  0  0  0
 11 15  1  0  0  0  0
 11 16  1  0  0  0  0
 35 38  1  0  0  0  0
 35 39  1  0  0  0  0
 35 40  1  0  0  0  0
 42 44  1  0  0  0  0
 42 45  1  0  0  0  0
 42 46  1  0  0  0  0
  8 13  1  0  0  0  0
 32 37  1  0  0  0  0
 31 36  1  0  0  0  0
 41 43  1  0  0  0  0
  7 12  1  0  0  0  0
M  END
$$$$

  -OEChem-05262214473D

 46 46  0     1  0  0  0  0  0999 V2000
   -0.6012   -3.2995    3.8205 C   0  0  0  0  0  0  0  0  0  0  0  0
   -0.6574   -4.4683    3.4568 O   0  0  0  0  0  0  0  0  0  0  0  0
   -0.4935   -2.9859    5.2760 C   0  0  0  0  0  0  0  0  0  0  0  0
   -1.4789   -2.8689    5.7550 H   0  0  0  0  0  0  0  0  0  0  0  0
    0.0123   -3.7847    5.8419 H   0  0  0  0  0  0  0  0  0  0  0  0
    0.0585   -2.0642    5.5199 H   0  0  0  0  0  0  0  0  0  0  0  0
   -0.6261   -2.1849    2.9917 N   0  0  0  0  0  0  0  0  0  0  0  0
   -0.7237   -2.2601    1.5650 C   0  0  2  0  0  0  0  0  0  0  0  0
    0.1695   -1.1513    1.0687 C   0  0  0  0  0  0  0  0  0  0  0  0
    0.3193   -0.1267    1.7365 O   0  0  0  0  0  0  0  0  0  0  0  0
   -2.1397   -2.0663    1.0750 C   0  0  0  0  0  0  0  0  0  0  0  0
   -0.5717   -1.2606    3.4238 H   0  0  0  0  0  0  0  0  0  0  0  0
   -0.3076   -3.2111    1.2363 H   0  0  0  0  0  0  0  0  0  0  0  0
   -2.5584   -1.1089    1.4061 H   0  0  0  0  0  0  0  0  0  0  0  0
   -2.1682   -2.0790   -0.0197 H   0  0  0  0  0  0  0  0  0  0  0  0
   -2.7965   -2.8601    1.4459 H   0  0  0  0  0  0  0  0  0  0  0  0
    0.7724   -1.3745   -0.1593 N   0  0  0  0  0  0  0  0  0  0  0  0
    0.5614   -2.5964   -0.9244 C   0  0  2  0  0  0  0  0  0  0  0  0
   -0.3735   -3.4587   -0.1308 C   0  0  0  0  0  0  0  0  0  0  0  0
   -1.4500   -3.7879   -0.6152 O   0  0  0  0  0  0  0  0  0  0  0  0
    1.9458   -3.2230   -1.0432 C   0  0  0  0  0  0  0  0  0  0  0  0
    2.2521   -1.7403   -0.8458 C   0  0  0  0  0  0  0  0  0  0  0  0
    1.5408   -0.3981   -0.9273 C   0  0  0  0  0  0  0  0  0  0  0  0
    0.1027   -2.3787   -1.8936 H   0  0  0  0  0  0  0  0  0  0  0  0
    2.0691   -3.6740   -2.0351 H   0  0  0  0  0  0  0  0  0  0  0  0
    2.1474   -3.9863   -0.2855 H   0  0  0  0  0  0  0  0  0  0  0  0
    2.5528   -1.5477    0.1905 H   0  0  0  0  0  0  0  0  0  0  0  0
    3.0524   -1.3926   -1.5053 H   0  0  0  0  0  0  0  0  0  0  0  0
    2.1327    0.4188   -0.5056 H   0  0  0  0  0  0  0  0  0  0  0  0
    1.2759   -0.1509   -1.9611 H   0  0  0  0  0  0  0  0  0  0  0  0
    0.0185   -3.8293    1.0829 N   0  0  0  0  0  0  0  0  0  0  0  0
   -0.0236   -4.1317    2.4956 C   0  0  2  0  0  0  0  0  0  0  0  0
   -0.6980   -2.9656    3.2062 C   0  0  0  0  0  0  0  0  0  0  0  0
   -0.7527   -1.8326    2.7327 O   0  0  0  0  0  0  0  0  0  0  0  0
    1.3710   -4.3739    3.0515 C   0  0  0  0  0  0  0  0  0  0  0  0
   -0.4301   -4.4722    0.4373 H   0  0  0  0  0  0  0  0  0  0  0  0
   -0.6367   -5.0325    2.6080 H   0  0  0  0  0  0  0  0  0  0  0  0
    2.0000   -3.4822    2.9476 H   0  0  0  0  0  0  0  0  0  0  0  0
    1.3350   -4.6308    4.1153 H   0  0  0  0  0  0  0  0  0  0  0  0
    1.8658   -5.1934    2.5192 H   0  0  0  0  0  0  0  0  0  0  0  0
   -1.1936   -3.3290    4.4506 N   0  0  0  0  0  0  0  0  0  0  0  0
   -1.8661   -2.3964    5.3246 C   0  0  0  0  0  0  0  0  0  0  0  0
   -1.1206   -4.2954    4.7548 H   0  0  0  0  0  0  0  0  0  0  0  0
   -1.1355   -1.9448    6.0118 H   0  0  0  0  0  0  0  0  0  0  0  0
   -2.3402   -1.6068    4.7230 H   0  0  0  0  0  0  0  0  0  0  0  0
   -2.6355   -2.9271    5.9047 H   0  0  0  0  0  0  0  0  0  0  0  0
 18 19  1  0  0  0  0
 19 31  1  0  0  0  0
 19 20  2  0  0  0  0
  8  9  1  0  0  0  0
  9 17  1  0  0  0  0
  9 10  2  0  0  0  0
  1  3  1  0  0  0  0
  1  7  1  0  0  0  0
  1  2  2  0  0  0  0
 32 33  1  0  0  0  0
 33 41  1  0  0  0  0
 33 34  2  0  0  0  0
 21 22  1  0  0  0  0
 22 23  1  0  0  0  0
 18 21  1  0  0  0  0
 17 23  1  0  0  0  0
 17 18  1  0  0  0  0
  8 11  1  0  0  0  0
 32 35  1  0  0  0  0
 41 42  1  0  0  0  0
  7  8  1  0  0  0  0
 31 32  1  0  0  0  0
 22 27  1  0  0  0  0
 22 28  1  0  0  0  0
 21 25  1  0  0  0  0
 21 26  1  0  0  0  0
 23 29  1  0  0  0  0
 23 30  1  0  0  0  0
 18 24  1  0  0  0  0
  3  4  1  0  0  0  0
  3  5  1  0  0  0  0
  3  6  1  0  0  0  0
 11 14  1  0  0  0  0
 11 15  1  0  0  0  0
 11 16  1  0  0  0  0
 35 38  1  0  0  0  0
 35 39  1  0  0  0  0
 35 40  1  0  0  0  0
 42 44  1  0  0  0  0
 42 45  1  0  0  0  0
 42 46  1  0  0  0  0
  8 13  1  0  0  0  0
 32 37  1  0  0  0  0
 31 36  1  0  0  0  0
 41 43  1  0  0  0  0
  7 12  1  0  0  0  0
M  END
$$$$

  -OEChem-05262214473D

 46 46  0     1  0  0  0  0  0999 V2000
   -0.6012   -3.2995    3.8205 C   0  0  0  0  0  0  0  0  0  0  0  0
   -0.6574   -4.4683    3.4568 O   0  0  0  0  0  0  0  0  0  0  0  0
   -0.4935   -2.9859    5.2760 C   0  0  0  0  0  0  0  0  0  0  0  0
   -1.4789   -2.8689    5.7550 H   0  0  0  0  0  0  0  0  0  0  0  0
    0.0123   -3.7847    5.8419 H   0  0  0  0  0  0  0  0  0  0  0  0
    0.0585   -2.0642    5.5199 H   0  0  0  0  0  0  0  0  0  0  0  0
   -0.6261   -2.1849    2.9917 N   0  0  0  0  0  0  0  0  0  0  0  0
   -0.7237   -2.2601    1.5650 C   0  0  2  0  0  0  0  0  0  0  0  0
    0.1695   -1.1513    1.0687 C   0  0  0  0  0  0  0  0  0  0  0  0
    0.3193   -0.1267    1.7365 O   0  0  0  0  0  0  0  0  0  0  0  0
   -2.1397   -2.0663    1.0750 C   0  0  0  0  0  0  0  0  0  0  0  0
   -0.5717   -1.2606    3.4238 H   0  0  0  0  0  0  0  0  0  0  0  0
   -0.3076   -3.2111    1.2363 H   0  0  0  0  0  0  0  0  0  0  0  0
   -2.5584   -1.1089    1.4061 H   0  0  0  0  0  0  0  0  0  0  0  0
   -2.1682   -2.0790   -0.0197 H   0  0  0  0  0  0  0  0  0  0  0  0
   -2.7965   -2.8601    1.4459 H   0  0  0  0  0  0  0  0  0  0  0  0
    0.7724   -1.3745   -0.1593 N   0  0  0  0  0  0  0  0  0  0  0  0
    0.5614   -2.5964   -0.9244 C   0  0  2  0  0  0  0  0  0  0  0  0
   -0.3735   -3.4587   -0.1308 C   0  0  0  0  0  0  0  0  0  0  0  0
   -1.3089   -4.0142   -0.6949 O   0  0  0  0  0  0  0  0  0  0  0  0
    1.9458   -3.2230   -1.0432 C   0  0  0  0  0  0  0  0  0  0  0  0
    2.2521   -1.7403   -0.8458 C   0  0  0  0  0  0  0  0  0  0  0  0
    1.5408   -0.3981   -0.9273 C   0  0  0  0  0  0  0  0  0  0  0  0
    0.1027   -2.3787   -1.8936 H   0  0  0  0  0  0  0  0  0  0  0  0
    2.0691   -3.6740   -2.0351 H   0  0  0  0  0  0  0  0  0  0  0  0
    2.1474   -3.9863   -0.2855 H   0  0  0  0  0  0  0  0  0  0  0  0
    2.5528   -1.5477    0.1905 H   0  0  0  0  0  0  0  0  0  0  0  0
    3.0524   -1.3926   -1.5053 H   0  0  0  0  0  0  0  0  0  0  0  0
    2.1327    0.4188   -0.5056 H   0  0  0  0  0  0  0  0  0  0  0  0
    1.2759   -0.1509   -1.9611 H   0  0  0  0  0  0  0  0  0  0  0  0
   -0.1377   -3.5790    1.1707 N   0  0  0  0  0  0  0  0  0  0  0  0
   -0.3675   -3.6675    2.5949 C   0  0  2  0  0  0  0  0  0  0  0  0
   -1.2871   -2.5213    2.9950 C   0  0  0  0  0  0  0  0  0  0  0  0
   -1.4063   -1.4938    2.3309 O   0  0  0  0  0  0  0  0  0  0  0  0
    0.9393   -3.6120    3.3707 C   0  0  0  0  0  0  0  0  0  0  0  0
   -0.3934   -4.3717    0.5896 H   0  0  0  0  0  0  0  0  0  0  0  0
   -0.8734   -4.6223    2.7750 H   0  0  0  0  0  0  0  0  0  0  0  0
    1.4606   -2.6625    3.2028 H   0  0  0  0  0  0  0  0  0  0  0  0
    0.7658   -3.7078    4.4476 H   0  0  0  0  0  0  0  0  0  0  0  0
    1.6113   -4.4194    3.0604 H   0  0  0  0  0  0  0  0  0  0  0  0
   -1.9263   -2.7624    4.2031 N   0  0  0  0  0  0  0  0  0  0  0  0
   -2.8412   -1.8194    4.8029 C   0  0  0  0  0  0  0  0  0  0  0  0
   -1.7829   -3.6499    4.6759 H   0  0  0  0  0  0  0  0  0  0  0  0
   -2.2921   -1.1653    5.4962 H   0  0  0  0  0  0  0  0  0  0  0  0
   -3.3075   -1.2094    4.0152 H   0  0  0  0  0  0  0  0  0  0  0  0
   -3.6211   -2.3652    5.3540 H   0  0  0  0  0  0  0  0  0  0  0  0
 18 19  1  0  0  0  0
 19 31  1  0  0  0  0
 19 20  2  0  0  0  0
  8  9  1  0  0  0  0
  9 17  1  0  0  0  0
  9 10  2  0  0  0  0
  1  3  1  0  0  0  0
  1  7  1  0  0  0  0
  1  2  2  0  0  0  0
 32 33  1  0  0  0  0
 33 41  1  0  0  0  0
 33 34  2  0  0  0  0
 21 22  1  0  0  0  0
 22 23  1  0  0  0  0
 18 21  1  0  0  0  0
 17 23  1  0  0  0  0
 17 18  1  0  0  0  0
  8 11  1  0  0  0  0
 32 35  1  0  0  0  0
 41 42  1  0  0  0  0
  7  8  1  0  0  0  0
 31 32  1  0  0  0  0
 22 27  1  0  0  0  0
 22 28  1  0  0  0  0
 21 25  1  0  0  0  0
 21 26  1  0  0  0  0
 23 29  1  0  0  0  0
 23 30  1  0  0  0  0
 18 24  1  0  0  0  0
  3  4  1  0  0  0  0
  3  5  1  0  0  0  0
  3  6  1  0  0  0  0
 11 14  1  0  0  0  0
 11 15  1  0  0  0  0
 11 16  1  0  0  0  0
 35 38  1  0  0  0  0
 35 39  1  0  0  0  0
 35 40  1  0  0  0  0
 42 44  1  0  0  0  0
 42 45  1  0  0  0  0
 42 46  1  0  0  0  0
  8 13  1  0  0  0  0
 32 37  1  0  0  0  0
 31 36  1  0  0  0  0
 41 43  1  0  0  0  0
  7 12  1  0  0  0  0
M  END
$$$$

  -OEChem-05262214473D

 46 46  0     1  0  0  0  0  0999 V2000
   -0.6012   -3.2995    3.8205 C   0  0  0  0  0  0  0  0  0  0  0  0
   -0.6574   -4.4683    3.4568 O   0  0  0  0  0  0  0  0  0  0  0  0
   -0.4935   -2.9859    5.2760 C   0  0  0  0  0  0  0  0  0  0  0  0
   -1.4789   -2.8689    5.7550 H   0  0  0  0  0  0  0  0  0  0  0  0
    0.0123   -3.7847    5.8419 H   0  0  0  0  0  0  0  0  0  0  0  0
    0.0585   -2.0642    5.5199 H   0  0  0  0  0  0  0  0  0  0  0  0
   -0.6261   -2.1849    2.9917 N   0  0  0  0  0  0  0  0  0  0  0  0
   -0.7237   -2.2601    1.5650 C   0  0  2  0  0  0  0  0  0  0  0  0
    0.1695   -1.1513    1.0687 C   0  0  0  0  0  0  0  0  0  0  0  0
    0.3193   -0.1267    1.7365 O   0  0  0  0  0  0  0  0  0  0  0  0
   -2.1397   -2.0663    1.0750 C   0  0  0  0  0  0  0  0  0  0  0  0
   -0.5717   -1.2606    3.4238 H   0  0  0  0  0  0  0  0  0  0  0  0
   -0.3076   -3.2111    1.2363 H   0  0  0  0  0  0  0  0  0  0  0  0
   -2.5584   -1.1089    1.4061 H   0  0  0  0  0  0  0  0  0  0  0  0
   -2.1682   -2.0790   -0.0197 H   0  0  0  0  0  0  0  0  0  0  0  0
   -2.7965   -2.8601    1.4459 H   0  0  0  0  0  0  0  0  0  0  0  0
    0.7724   -1.3745   -0.1593 N   0  0  0  0  0  0  0  0  0  0  0  0
    0.5614   -2.5964   -0.9244 C   0  0  2  0  0  0  0  0  0  0  0  0
   -0.3735   -3.4587   -0.1308 C   0  0  0  0  0  0  0  0  0  0  0  0
   -1.1298   -4.2263   -0.7144 O   0  0  0  0  0  0  0  0  0  0  0  0
    1.9458   -3.2230   -1.0432 C   0  0  0  0  0  0  0  0  0  0  0  0
    2.2521   -1.7403   -0.8458 C   0  0  0  0  0  0  0  0  0  0  0  0
    1.5408   -0.3981   -0.9273 C   0  0  0  0  0  0  0  0  0  0  0  0
    0.1027   -2.3787   -1.8936 H   0  0  0  0  0  0  0  0  0  0  0  0
    2.0691   -3.6740   -2.0351 H   0  0  0  0  0  0  0  0  0  0  0  0
    2.1474   -3.9863   -0.2855 H   0  0  0  0  0  0  0  0  0  0  0  0
    2.5528   -1.5477    0.1905 H   0  0  0  0  0  0  0  0  0  0  0  0
    3.0524   -1.3926   -1.5053 H   0  0  0  0  0  0  0  0  0  0  0  0
    2.1327    0.4188   -0.5056 H   0  0  0  0  0  0  0  0  0  0  0  0
    1.2759   -0.1509   -1.9611 H   0  0  0  0  0  0  0  0  0  0  0  0
   -0.3360   -3.3445    1.1919 N   0  0  0  0  0  0  0  0  0  0  0  0
   -0.7780   -3.2501    2.5648 C   0  0  2  0  0  0  0  0  0  0  0  0
   -1.8856   -2.2069    2.6316 C   0  0  0  0  0  0  0  0  0  0  0  0
   -2.0241   -1.3209    1.7908 O   0  0  0  0  0  0  0  0  0  0  0  0
    0.3705   -2.8838    3.4919 C   0  0  0  0  0  0  0  0  0  0  0  0
   -0.3944   -4.2451    0.7261 H   0  0  0  0  0  0  0  0  0  0  0  0
   -1.1831   -4.2315    2.8348 H   0  0  0  0  0  0  0  0  0  0  0  0
    0.7892   -1.9035    3.2367 H   0  0  0  0  0  0  0  0  0  0  0  0
    0.0401   -2.8407    4.5350 H   0  0  0  0  0  0  0  0  0  0  0  0
    1.1789   -3.6194    3.4203 H   0  0  0  0  0  0  0  0  0  0  0  0
   -2.6748   -2.3554    3.7635 N   0  0  0  0  0  0  0  0  0  0  0  0
   -3.7844   -1.4799    4.0607 C   0  0  0  0  0  0  0  0  0  0  0  0
   -2.4994   -3.1299    4.3969 H   0  0  0  0  0  0  0  0  0  0  0  0
   -3.4394   -0.6540    4.7002 H   0  0  0  0  0  0  0  0  0  0  0  0
   -4.1910   -1.0724    3.1233 H   0  0  0  0  0  0  0  0  0  0  0  0
   -4.5682   -2.0464    4.5847 H   0  0  0  0  0  0  0  0  0  0  0  0
 18 19  1  0  0  0  0
 19 31  1  0  0  0  0
 19 20  2  0  0  0  0
  8  9  1  0  0  0  0
  9 17  1  0  0  0  0
  9 10  2  0  0  0  0
  1  3  1  0  0  0  0
  1  7  1  0  0  0  0
  1  2  2  0  0  0  0
 32 33  1  0  0  0  0
 33 41  1  0  0  0  0
 33 34  2  0  0  0  0
 21 22  1  0  0  0  0
 22 23  1  0  0  0  0
 18 21  1  0  0  0  0
 17 23  1  0  0  0  0
 17 18  1  0  0  0  0
  8 11  1  0  0  0  0
 32 35  1  0  0  0  0
 41 42  1  0  0  0  0
  7  8  1  0  0  0  0
 31 32  1  0  0  0  0
 22 27  1  0  0  0  0
 22 28  1  0  0  0  0
 21 25  1  0  0  0  0
 21 26  1  0  0  0  0
 23 29  1  0  0  0  0
 23 30  1  0  0  0  0
 18 24  1  0  0  0  0
  3  4  1  0  0  0  0
  3  5  1  0  0  0  0
  3  6  1  0  0  0  0
 11 14  1  0  0  0  0
 11 15  1  0  0  0  0
 11 16  1  0  0  0  0
 35 38  1  0  0  0  0
 35 39  1  0  0  0  0
 35 40  1  0  0  0  0
 42 44  1  0  0  0  0
 42 45  1  0  0  0  0
 42 46  1  0  0  0  0
  8 13  1  0  0  0  0
 32 37  1  0  0  0  0
 31 36  1  0  0  0  0
 41 43  1  0  0  0  0
  7 12  1  0  0  0  0
M  END
$$$$

  -OEChem-05262214473D

 46 46  0     1  0  0  0  0  0999 V2000
   -0.6012   -3.2995    3.8205 C   0  0  0  0  0  0  0  0  0  0  0  0
   -0.6574   -4.4683    3.4568 O   0  0  0  0  0  0  0  0  0  0  0  0
   -0.4935   -2.9859    5.2760 C   0  0  0  0  0  0  0  0  0  0  0  0
   -1.4789   -2.8689    5.7550 H   0  0  0  0  0  0  0  0  0  0  0  0
    0.0123   -3.7847    5.8419 H   0  0  0  0  0  0  0  0  0  0  0  0
    0.0585   -2.0642    5.5199 H   0  0  0  0  0  0  0  0  0  0  0  0
   -0.6261   -2.1849    2.9917 N   0  0  0  0  0  0  0  0  0  0  0  0
   -0.7237   -2.2601    1.5650 C   0  0  2  0  0  0  0  0  0  0  0  0
    0.1695   -1.1513    1.0687 C   0  0  0  0  0  0  0  0  0  0  0  0
    0.3193   -0.1267    1.7365 O   0  0  0  0  0  0  0  0  0  0  0  0
   -2.1397   -2.0663    1.0750 C   0  0  0  0  0  0  0  0  0  0  0  0
   -0.5717   -1.2606    3.4238 H   0  0  0  0  0  0  0  0  0  0  0  0
   -0.3076   -3.2111    1.2363 H   0  0  0  0  0  0  0  0  0  0  0  0
   -2.5584   -1.1089    1.4061 H   0  0  0  0  0  0  0  0  0  0  0  0
   -2.1682   -2.0790   -0.0197 H   0  0  0  0  0  0  0  0  0  0  0  0
   -2.7965   -2.8601    1.4459 H   0  0  0  0  0  0  0  0  0  0  0  0
    0.7724   -1.3745   -0.1593 N   0  0  0  0  0  0  0  0  0  0  0  0
    0.5614   -2.5964   -0.9244 C   0  0  2  0  0  0  0  0  0  0  0  0
   -0.3735   -3.4587   -0.1308 C   0  0  0  0  0  0  0  0  0  0  0  0
   -0.9248   -4.4098   -0.6723 O   0  0  0  0  0  0  0  0  0  0  0  0
    1.9458   -3.2230   -1.0432 C   0  0  0  0  0  0  0  0  0  0  0  0
    2.2521   -1.7403   -0.8458 C   0  0  0  0  0  0  0  0  0  0  0  0
    1.5408   -0.3981   -0.9273 C   0  0  0  0  0  0  0  0  0  0  0  0
    0.1027   -2.3787   -1.8936 H   0  0  0  0  0  0  0  0  0  0  0  0
    2.0691   -3.6740   -2.0351 H   0  0  0  0  0  0  0  0  0  0  0  0
    2.1474   -3.9863   -0.2855 H   0  0  0  0  0  0  0  0  0  0  0  0
    2.5528   -1.5477    0.1905 H   0  0  0  0  0  0  0  0  0  0  0  0
    3.0524   -1.3926   -1.5053 H   0  0  0  0  0  0  0  0  0  0  0  0
    2.1327    0.4188   -0.5056 H   0  0  0  0  0  0  0  0  0  0  0  0
    1.2759   -0.1509   -1.9611 H   0  0  0  0  0  0  0  0  0  0  0  0
   -0.5629   -3.1418    1.1450 N   0  0  0  0  0  0  0  0  0  0  0  0
   -1.2272   -2.9081    2.4072 C   0  0  2  0  0  0  0  0  0  0  0  0
   -2.4526   -2.0439    2.1407 C   0  0  0  0  0  0  0  0  0  0  0  0
   -2.5642   -1.3258    1.1493 O   0  0  0  0  0  0  0  0  0  0  0  0
   -0.2968   -2.2387    3.4066 C   0  0  0  0  0  0  0  0  0  0  0  0
   -0.4331   -4.1009    0.8373 H   0  0  0  0  0  0  0  0  0  0  0  0
   -1.5447   -3.8868    2.7834 H   0  0  0  0  0  0  0  0  0  0  0  0
    0.0317   -1.2568    3.0470 H   0  0  0  0  0  0  0  0  0  0  0  0
   -0.7927   -2.0883    4.3713 H   0  0  0  0  0  0  0  0  0  0  0  0
    0.5980   -2.8477    3.5745 H   0  0  0  0  0  0  0  0  0  0  0  0
   -3.3881   -2.1358    3.1618 N   0  0  0  0  0  0  0  0  0  0  0  0
   -4.6314   -1.4010    3.1485 C   0  0  0  0  0  0  0  0  0  0  0  0
   -3.2211   -2.7708    3.9368 H   0  0  0  0  0  0  0  0  0  0  0  0
   -4.4991   -0.4459    3.6780 H   0  0  0  0  0  0  0  0  0  0  0  0
   -4.9303   -1.2050    2.1082 H   0  0  0  0  0  0  0  0  0  0  0  0
   -5.4121   -1.9924    3.6491 H   0  0  0  0  0  0  0  0  0  0  0  0
 18 19  1  0  0  0  0
 19 31  1  0  0  0  0
 19 20  2  0  0  0  0
  8  9  1  0  0  0  0
  9 17  1  0  0  0  0
  9 10  2  0  0  0  0
  1  3  1  0  0  0  0
  1  7  1  0  0  0  0
  1  2  2  0  0  0  0
 32 33  1  0  0  0  0
 33 41  1  0  0  0  0
 33 34  2  0  0  0  0
 21 22  1  0  0  0  0
 22 23  1  0  0  0  0
 18 21  1  0  0  0  0
 17 23  1  0  0  0  0
 17 18  1  0  0  0  0
  8 11  1  0  0  0  0
 32 35  1  0  0  0  0
 41 42  1  0  0  0  0
  7  8  1  0  0  0  0
 31 32  1  0  0  0  0
 22 27  1  0  0  0  0
 22 28  1  0  0  0  0
 21 25  1  0  0  0  0
 21 26  1  0  0  0  0
 23 29  1  0  0  0  0
 23 30  1  0  0  0  0
 18 24  1  0  0  0  0
  3  4  1  0  0  0  0
  3  5  1  0  0  0  0
  3  6  1  0  0  0  0
 11 14  1  0  0  0  0
 11 15  1  0  0  0  0
 11 16  1  0  0  0  0
 35 38  1  0  0  0  0
 35 39  1  0  0  0  0
 35 40  1  0  0  0  0
 42 44  1  0  0  0  0
 42 45  1  0  0  0  0
 42 46  1  0  0  0  0
  8 13  1  0  0  0  0
 32 37  1  0  0  0  0
 31 36  1  0  0  0  0
 41 43  1  0  0  0  0
  7 12  1  0  0  0  0
M  END
$$$$

  -OEChem-05262214473D

 46 46  0     1  0  0  0  0  0999 V2000
   -0.6012   -3.2995    3.8205 C   0  0  0  0  0  0  0  0  0  0  0  0
   -0.6574   -4.4683    3.4568 O   0  0  0  0  0  0  0  0  0  0  0  0
   -0.4935   -2.9859    5.2760 C   0  0  0  0  0  0  0  0  0  0  0  0
   -1.4789   -2.8689    5.7550 H   0  0  0  0  0  0  0  0  0  0  0  0
    0.0123   -3.7847    5.8419 H   0  0  0  0  0  0  0  0  0  0  0  0
    0.0585   -2.0642    5.5199 H   0  0  0  0  0  0  0  0  0  0  0  0
   -0.6261   -2.1849    2.9917 N   0  0  0  0  0  0  0  0  0  0  0  0
   -0.7237   -2.2601    1.5650 C   0  0  2  0  0  0  0  0  0  0  0  0
    0.1695   -1.1513    1.0687 C   0  0  0  0  0  0  0  0  0  0  0  0
    0.3193   -0.1267    1.7365 O   0  0  0  0  0  0  0  0  0  0  0  0
   -2.1397   -2.0663    1.0750 C   0  0  0  0  0  0  0  0  0  0  0  0
   -0.5717   -1.2606    3.4238 H   0  0  0  0  0  0  0  0  0  0  0  0
   -0.3076   -3.2111    1.2363 H   0  0  0  0  0  0  0  0  0  0  0  0
   -2.5584   -1.1089    1.4061 H   0  0  0  0  0  0  0  0  0  0  0  0
   -2.1682   -2.0790   -0.0197 H   0  0  0  0  0  0  0  0  0  0  0  0
   -2.7965   -2.8601    1.4459 H   0  0  0  0  0  0  0  0  0  0  0  0
    0.7724   -1.3745   -0.1593 N   0  0  0  0  0  0  0  0  0  0  0  0
    0.5614   -2.5964   -0.9244 C   0  0  2  0  0  0  0  0  0  0  0  0
   -0.3735   -3.4587   -0.1308 C   0  0  0  0  0  0  0  0  0  0  0  0
   -0.7080   -4.5522   -0.5715 O   0  0  0  0  0  0  0  0  0  0  0  0
    1.9458   -3.2230   -1.0432 C   0  0  0  0  0  0  0  0  0  0  0  0
    2.2521   -1.7403   -0.8458 C   0  0  0  0  0  0  0  0  0  0  0  0
    1.5408   -0.3981   -0.9273 C   0  0  0  0  0  0  0  0  0  0  0  0
    0.1027   -2.3787   -1.8936 H   0  0  0  0  0  0  0  0  0  0  0  0
    2.0691   -3.6740   -2.0351 H   0  0  0  0  0  0  0  0  0  0  0  0
    2.1474   -3.9863   -0.2855 H   0  0  0  0  0  0  0  0  0  0  0  0
    2.5528   -1.5477    0.1905 H   0  0  0  0  0  0  0  0  0  0  0  0
    3.0524   -1.3926   -1.5053 H   0  0  0  0  0  0  0  0  0  0  0  0
    2.1327    0.4188   -0.5056 H   0  0  0  0  0  0  0  0  0  0  0  0
    1.2759   -0.1509   -1.9611 H   0  0  0  0  0  0  0  0  0  0  0  0
   -0.8028   -2.9846    1.0332 N   0  0  0  0  0  0  0  0  0  0  0  0
   -1.6846   -2.6648    2.1329 C   0  0  2  0  0  0  0  0  0  0  0  0
   -2.9496   -2.0433    1.5558 C   0  0  0  0  0  0  0  0  0  0  0  0
   -2.9898   -1.5080    0.4500 O   0  0  0  0  0  0  0  0  0  0  0  0
   -1.0171   -1.7208    3.1209 C   0  0  0  0  0  0  0  0  0  0  0  0
   -0.5067   -3.9489    0.9156 H   0  0  0  0  0  0  0  0  0  0  0  0
   -1.9335   -3.6117    2.6243 H   0  0  0  0  0  0  0  0  0  0  0  0
   -0.7603   -0.7666    2.6465 H   0  0  0  0  0  0  0  0  0  0  0  0
   -1.6759   -1.5022    3.9677 H   0  0  0  0  0  0  0  0  0  0  0  0
   -0.0918   -2.1570    3.5124 H   0  0  0  0  0  0  0  0  0  0  0  0
   -4.0177   -2.1186    2.4389 N   0  0  0  0  0  0  0  0  0  0  0  0
   -5.3246   -1.5880    2.1286 C   0  0  0  0  0  0  0  0  0  0  0  0
   -3.8990   -2.5971    3.3269 H   0  0  0  0  0  0  0  0  0  0  0  0
   -5.3990   -0.5550    2.4992 H   0  0  0  0  0  0  0  0  0  0  0  0
   -5.4752   -1.5983    1.0390 H   0  0  0  0  0  0  0  0  0  0  0  0
   -6.0955   -2.2069    2.6111 H   0  0  0  0  0  0  0  0  0  0  0  0
 18 19  1  0  0  0  0
 19 31  1  0  0  0  0
 19 20  2  0  0  0  0
  8  9  1  0  0  0  0
  9 17  1  0  0  0  0
  9 10  2  0  0  0  0
  1  3  1  0  0  0  0
  1  7  1  0  0  0  0
  1  2  2  0  0  0  0
 32 33  1  0  0  0  0
 33 41  1  0  0  0  0
 33 34  2  0  0  0  0
 21 22  1  0  0  0  0
 22 23  1  0  0  0  0
 18 21  1  0  0  0  0
 17 23  1  0  0  0  0
 17 18  1  0  0  0  0
  8 11  1  0  0  0  0
 32 35  1  0  0  0  0
 41 42  1  0  0  0  0
  7  8  1  0  0  0  0
 31 32  1  0  0  0  0
 22 27  1  0  0  0  0
 22 28  1  0  0  0  0
 21 25  1  0  0  0  0
 21 26  1  0  0  0  0
 23 29  1  0  0  0  0
 23 30  1  0  0  0  0
 18 24  1  0  0  0  0
  3  4  1  0  0  0  0
  3  5  1  0  0  0  0
  3  6  1  0  0  0  0
 11 14  1  0  0  0  0
 11 15  1  0  0  0  0
 11 16  1  0  0  0  0
 35 38  1  0  0  0  0
 35 39  1  0  0  0  0
 35 40  1  0  0  0  0
 42 44  1  0  0  0  0
 42 45  1  0  0  0  0
 42 46  1  0  0  0  0
  8 13  1  0  0  0  0
 32 37  1  0  0  0  0
 31 36  1  0  0  0  0
 41 43  1  0  0  0  0
  7 12  1  0  0  0  0
M  END
$$$$

  -OEChem-05262214473D

 46 46  0     1  0  0  0  0  0999 V2000
   -0.6012   -3.2995    3.8205 C   0  0  0  0  0  0  0  0  0  0  0  0
   -0.6574   -4.4683    3.4568 O   0  0  0  0  0  0  0  0  0  0  0  0
   -0.4935   -2.9859    5.2760 C   0  0  0  0  0  0  0  0  0  0  0  0
   -1.4789   -2.8689    5.7550 H   0  0  0  0  0  0  0  0  0  0  0  0
    0.0123   -3.7847    5.8419 H   0  0  0  0  0  0  0  0  0  0  0  0
    0.0585   -2.0642    5.5199 H   0  0  0  0  0  0  0  0  0  0  0  0
   -0.6261   -2.1849    2.9917 N   0  0  0  0  0  0  0  0  0  0  0  0
   -0.7237   -2.2601    1.5650 C   0  0  2  0  0  0  0  0  0  0  0  0
    0.1695   -1.1513    1.0687 C   0  0  0  0  0  0  0  0  0  0  0  0
    0.3193   -0.1267    1.7365 O   0  0  0  0  0  0  0  0  0  0  0  0
   -2.1397   -2.0663    1.0750 C   0  0  0  0  0  0  0  0  0  0  0  0
   -0.5717   -1.2606    3.4238 H   0  0  0  0  0  0  0  0  0  0  0  0
   -0.3076   -3.2111    1.2363 H   0  0  0  0  0  0  0  0  0  0  0  0
   -2.5584   -1.1089    1.4061 H   0  0  0  0  0  0  0  0  0  0  0  0
   -2.1682   -2.0790   -0.0197 H   0  0  0  0  0  0  0  0  0  0  0  0
   -2.7965   -2.8601    1.4459 H   0  0  0  0  0  0  0  0  0  0  0  0
    0.7724   -1.3745   -0.1593 N   0  0  0  0  0  0  0  0  0  0  0  0
    0.5614   -2.5964   -0.9244 C   0  0  2  0  0  0  0  0  0  0  0  0
   -0.3735   -3.4587   -0.1308 C   0  0  0  0  0  0  0  0  0  0  0  0
   -0.4940   -4.6437   -0.4189 O   0  0  0  0  0  0  0  0  0  0  0  0
    1.9458   -3.2230   -1.0432 C   0  0  0  0  0  0  0  0  0  0  0  0
    2.2521   -1.7403   -0.8458 C   0  0  0  0  0  0  0  0  0  0  0  0
    1.5408   -0.3981   -0.9273 C   0  0  0  0  0  0  0  0  0  0  0  0
    0.1027   -2.3787   -1.8936 H   0  0  0  0  0  0  0  0  0  0  0  0
    2.0691   -3.6740   -2.0351 H   0  0  0  0  0  0  0  0  0  0  0  0
    2.1474   -3.9863   -0.2855 H   0  0  0  0  0  0  0  0  0  0  0  0
    2.5528   -1.5477    0.1905 H   0  0  0  0  0  0  0  0  0  0  0  0
    3.0524   -1.3926   -1.5053 H   0  0  0  0  0  0  0  0  0  0  0  0
    2.1327    0.4188   -0.5056 H   0  0  0  0  0  0  0  0  0  0  0  0
    1.2759   -0.1509   -1.9611 H   0  0  0  0  0  0  0  0  0  0  0  0
   -1.0394   -2.8836    0.8642 N   0  0  0  0  0  0  0  0  0  0  0  0
   -2.1188   -2.5367    1.7605 C   0  0  2  0  0  0  0  0  0  0  0  0
   -3.3426   -2.2053    0.9168 C   0  0  0  0  0  0  0  0  0  0  0  0
   -3.2717   -1.8552   -0.2594 O   0  0  0  0  0  0  0  0  0  0  0  0
   -1.7412   -1.3654    2.6540 C   0  0  0  0  0  0  0  0  0  0  0  0
   -0.6103   -3.7996    0.9558 H   0  0  0  0  0  0  0  0  0  0  0  0
   -2.3231   -3.4249    2.3683 H   0  0  0  0  0  0  0  0  0  0  0  0
   -1.5329   -0.4662    2.0627 H   0  0  0  0  0  0  0  0  0  0  0  0
   -2.5492   -1.1222    3.3519 H   0  0  0  0  0  0  0  0  0  0  0  0
   -0.8434   -1.5944    3.2382 H   0  0  0  0  0  0  0  0  0  0  0  0
   -4.5205   -2.3049    1.6441 N   0  0  0  0  0  0  0  0  0  0  0  0
   -5.8168   -2.0283    1.0704 C   0  0  0  0  0  0  0  0  0  0  0  0
   -4.4868   -2.6206    2.6089 H   0  0  0  0  0  0  0  0  0  0  0  0
   -6.0778   -0.9739    1.2443 H   0  0  0  0  0  0  0  0  0  0  0  0
   -5.7884   -2.2253   -0.0114 H   0  0  0  0  0  0  0  0  0  0  0  0
   -6.5716   -2.6752    1.5413 H   0  0  0  0  0  0  0  0  0  0  0  0
 18 19  1  0  0  0  0
 19 31  1  0  0  0  0
 19 20  2  0  0  0  0
  8  9  1  0  0  0  0
  9 17  1  0  0  0  0
  9 10  2  0  0  0  0
  1  3  1  0  0  0  0
  1  7  1  0  0  0  0
  1  2  2  0  0  0  0
 32 33  1  0  0  0  0
 33 41  1  0  0  0  0
 33 34  2  0  0  0  0
 21 22  1  0  0  0  0
 22 23  1  0  0  0  0
 18 21  1  0  0  0  0
 17 23  1  0  0  0  0
 17 18  1  0  0  0  0
  8 11  1  0  0  0  0
 32 35  1  0  0  0  0
 41 42  1  0  0  0  0
  7  8  1  0  0  0  0
 31 32  1  0  0  0  0
 22 27  1  0  0  0  0
 22 28  1  0  0  0  0
 21 25  1  0  0  0  0
 21 26  1  0  0  0  0
 23 29  1  0  0  0  0
 23 30  1  0  0  0  0
 18 24  1  0  0  0  0
  3  4  1  0  0  0  0
  3  5  1  0  0  0  0
  3  6  1  0  0  0  0
 11 14  1  0  0  0  0
 11 15  1  0  0  0  0
 11 16  1  0  0  0  0
 35 38  1  0  0  0  0
 35 39  1  0  0  0  0
 35 40  1  0  0  0  0
 42 44  1  0  0  0  0
 42 45  1  0  0  0  0
 42 46  1  0  0  0  0
  8 13  1  0  0  0  0
 32 37  1  0  0  0  0
 31 36  1  0  0  0  0
 41 43  1  0  0  0  0
  7 12  1  0  0  0  0
M  END
$$$$

  -OEChem-05262214473D

 46 46  0     1  0  0  0  0  0999 V2000
   -0.6012   -3.2995    3.8205 C   0  0  0  0  0  0  0  0  0  0  0  0
   -0.6574   -4.4683    3.4568 O   0  0  0  0  0  0  0  0  0  0  0  0
   -0.4935   -2.9859    5.2760 C   0  0  0  0  0  0  0  0  0  0  0  0
   -1.4789   -2.8689    5.7550 H   0  0  0  0  0  0  0  0  0  0  0  0
    0.0123   -3.7847    5.8419 H   0  0  0  0  0  0  0  0  0  0  0  0
    0.0585   -2.0642    5.5199 H   0  0  0  0  0  0  0  0  0  0  0  0
   -0.6261   -2.1849    2.9917 N   0  0  0  0  0  0  0  0  0  0  0  0
   -0.7237   -2.2601    1.5650 C   0  0  2  0  0  0  0  0  0  0  0  0
    0.1695   -1.1513    1.0687 C   0  0  0  0  0  0  0  0  0  0  0  0
    0.3193   -0.1267    1.7365 O   0  0  0  0  0  0  0  0  0  0  0  0
   -2.1397   -2.0663    1.0750 C   0  0  0  0  0  0  0  0  0  0  0  0
   -0.5717   -1.2606    3.4238 H   0  0  0  0  0  0  0  0  0  0  0  0
   -0.3076   -3.2111    1.2363 H   0  0  0  0  0  0  0  0  0  0  0  0
   -2.5584   -1.1089    1.4061 H   0  0  0  0  0  0  0  0  0  0  0  0
   -2.1682   -2.0790   -0.0197 H   0  0  0  0  0  0  0  0  0  0  0  0
   -2.7965   -2.8601    1.4459 H   0  0  0  0  0  0  0  0  0  0  0  0
    0.7724   -1.3745   -0.1593 N   0  0  0  0  0  0  0  0  0  0  0  0
    0.5614   -2.5964   -0.9244 C   0  0  2  0  0  0  0  0  0  0  0  0
   -0.3735   -3.4587   -0.1308 C   0  0  0  0  0  0  0  0  0  0  0  0
   -0.2975   -4.6782   -0.2249 O   0  0  0  0  0  0  0  0  0  0  0  0
    1.9458   -3.2230   -1.0432 C   0  0  0  0  0  0  0  0  0  0  0  0
    2.2521   -1.7403   -0.8458 C   0  0  0  0  0  0  0  0  0  0  0  0
    1.5408   -0.3981   -0.9273 C   0  0  0  0  0  0  0  0  0  0  0  0
    0.1027   -2.3787   -1.8936 H   0  0  0  0  0  0  0  0  0  0  0  0
    2.0691   -3.6740   -2.0351 H   0  0  0  0  0  0  0  0  0  0  0  0
    2.1474   -3.9863   -0.2855 H   0  0  0  0  0  0  0  0  0  0  0  0
    2.5528   -1.5477    0.1905 H   0  0  0  0  0  0  0  0  0  0  0  0
    3.0524   -1.3926   -1.5053 H   0  0  0  0  0  0  0  0  0  0  0  0
    2.1327    0.4188   -0.5056 H   0  0  0  0  0  0  0  0  0  0  0  0
    1.2759   -0.1509   -1.9611 H   0  0  0  0  0  0  0  0  0  0  0  0
   -1.2566   -2.8459    0.6493 N   0  0  0  0  0  0  0  0  0  0  0  0
   -2.5004   -2.5325    1.3155 C   0  0  2  0  0  0  0  0  0  0  0  0
   -3.6050   -2.5188    0.2672 C   0  0  0  0  0  0  0  0  0  0  0  0
   -3.3909   -2.3437   -0.9306 O   0  0  0  0  0  0  0  0  0  0  0  0
   -2.4199   -1.1966    2.0379 C   0  0  0  0  0  0  0  0  0  0  0  0
   -0.7369   -3.6630    0.9551 H   0  0  0  0  0  0  0  0  0  0  0  0
   -2.6869   -3.3391    2.0329 H   0  0  0  0  0  0  0  0  0  0  0  0
   -2.2334   -0.3762    1.3353 H   0  0  0  0  0  0  0  0  0  0  0  0
   -3.3531   -0.9741    2.5657 H   0  0  0  0  0  0  0  0  0  0  0  0
   -1.6057   -1.1982    2.7706 H   0  0  0  0  0  0  0  0  0  0  0  0
   -4.8623   -2.6820    0.8316 N   0  0  0  0  0  0  0  0  0  0  0  0
   -6.0743   -2.6918    0.0461 C   0  0  0  0  0  0  0  0  0  0  0  0
   -4.9444   -2.8398    1.8317 H   0  0  0  0  0  0  0  0  0  0  0  0
   -6.4893   -1.6742   -0.0014 H   0  0  0  0  0  0  0  0  0  0  0  0
   -5.8487   -3.0435   -0.9714 H   0  0  0  0  0  0  0  0  0  0  0  0
   -6.8080   -3.3655    0.5127 H   0  0  0  0  0  0  0  0  0  0  0  0
 18 19  1  0  0  0  0
 19 31  1  0  0  0  0
 19 20  2  0  0  0  0
  8  9  1  0  0  0  0
  9 17  1  0  0  0  0
  9 10  2  0  0  0  0
  1  3  1  0  0  0  0
  1  7  1  0  0  0  0
  1  2  2  0  0  0  0
 32 33  1  0  0  0  0
 33 41  1  0  0  0  0
 33 34  2  0  0  0  0
 21 22  1  0  0  0  0
 22 23  1  0  0  0  0
 18 21  1  0  0  0  0
 17 23  1  0  0  0  0
 17 18  1  0  0  0  0
  8 11  1  0  0  0  0
 32 35  1  0  0  0  0
 41 42  1  0  0  0  0
  7  8  1  0  0  0  0
 31 32  1  0  0  0  0
 22 27  1  0  0  0  0
 22 28  1  0  0  0  0
 21 25  1  0  0  0  0
 21 26  1  0  0  0  0
 23 29  1  0  0  0  0
 23 30  1  0  0  0  0
 18 24  1  0  0  0  0
  3  4  1  0  0  0  0
  3  5  1  0  0  0  0
  3  6  1  0  0  0  0
 11 14  1  0  0  0  0
 11 15  1  0  0  0  0
 11 16  1  0  0  0  0
 35 38  1  0  0  0  0
 35 39  1  0  0  0  0
 35 40  1  0  0  0  0
 42 44  1  0  0  0  0
 42 45  1  0  0  0  0
 42 46  1  0  0  0  0
  8 13  1  0  0  0  0
 32 37  1  0  0  0  0
 31 36  1  0  0  0  0
 41 43  1  0  0  0  0
  7 12  1  0  0  0  0
M  END
$$$$

  -OEChem-05262214473D

 46 46  0     1  0  0  0  0  0999 V2000
   -0.6012   -3.2995    3.8205 C   0  0  0  0  0  0  0  0  0  0  0  0
   -0.6574   -4.4683    3.4568 O   0  0  0  0  0  0  0  0  0  0  0  0
   -0.4935   -2.9859    5.2760 C   0  0  0  0  0  0  0  0  0  0  0  0
   -1.4789   -2.8689    5.7550 H   0  0  0  0  0  0  0  0  0  0  0  0
    0.0123   -3.7847    5.8419 H   0  0  0  0  0  0  0  0  0  0  0  0
    0.0585   -2.0642    5.5199 H   0  0  0  0  0  0  0  0  0  0  0  0
   -0.6261   -2.1849    2.9917 N   0  0  0  0  0  0  0  0  0  0  0  0
   -0.7237   -2.2601    1.5650 C   0  0  2  0  0  0  0  0  0  0  0  0
    0.1695   -1.1513    1.0687 C   0  0  0  0  0  0  0  0  0  0  0  0
    0.3193   -0.1267    1.7365 O   0  0  0  0  0  0  0  0  0  0  0  0
   -2.1397   -2.0663    1.0750 C   0  0  0  0  0  0  0  0  0  0  0  0
   -0.5717   -1.2606    3.4238 H   0  0  0  0  0  0  0  0  0  0  0  0
   -0.3076   -3.2111    1.2363 H   0  0  0  0  0  0  0  0  0  0  0  0
   -2.5584   -1.1089    1.4061 H   0  0  0  0  0  0  0  0  0  0  0  0
   -2.1682   -2.0790   -0.0197 H   0  0  0  0  0  0  0  0  0  0  0  0
   -2.7965   -2.8601    1.4459 H   0  0  0  0  0  0  0  0  0  0  0  0
    0.7724   -1.3745   -0.1593 N   0  0  0  0  0  0  0  0  0  0  0  0
    0.5614   -2.5964   -0.9244 C   0  0  2  0  0  0  0  0  0  0  0  0
   -0.3735   -3.4587   -0.1308 C   0  0  0  0  0  0  0  0  0  0  0  0
   -0.1318   -4.6532   -0.0026 O   0  0  0  0  0  0  0  0  0  0  0  0
    1.9458   -3.2230   -1.0432 C   0  0  0  0  0  0  0  0  0  0  0  0
    2.2521   -1.7403   -0.8458 C   0  0  0  0  0  0  0  0  0  0  0  0
    1.5408   -0.3981   -0.9273 C   0  0  0  0  0  0  0  0  0  0  0  0
    0.1027   -2.3787   -1.8936 H   0  0  0  0  0  0  0  0  0  0  0  0
    2.0691   -3.6740   -2.0351 H   0  0  0  0  0  0  0  0  0  0  0  0
    2.1474   -3.9863   -0.2855 H   0  0  0  0  0  0  0  0  0  0  0  0
    2.5528   -1.5477    0.1905 H   0  0  0  0  0  0  0  0  0  0  0  0
    3.0524   -1.3926   -1.5053 H   0  0  0  0  0  0  0  0  0  0  0  0
    2.1327    0.4188   -0.5056 H   0  0  0  0  0  0  0  0  0  0  0  0
    1.2759   -0.1509   -1.9611 H   0  0  0  0  0  0  0  0  0  0  0  0
   -1.4396   -2.8738    0.4034 N   0  0  0  0  0  0  0  0  0  0  0  0
   -2.8032   -2.6526    0.8282 C   0  0  2  0  0  0  0  0  0  0  0  0
   -3.7187   -2.9623   -0.3488 C   0  0  0  0  0  0  0  0  0  0  0  0
   -3.3391   -2.9402   -1.5178 O   0  0  0  0  0  0  0  0  0  0  0  0
   -3.0068   -1.2261    1.3145 C   0  0  0  0  0  0  0  0  0  0  0  0
   -0.8777   -3.5486    0.9136 H   0  0  0  0  0  0  0  0  0  0  0  0
   -3.0001   -3.3603    1.6409 H   0  0  0  0  0  0  0  0  0  0  0  0
   -2.8141   -0.5026    0.5139 H   0  0  0  0  0  0  0  0  0  0  0  0
   -4.0329   -1.0682    1.6626 H   0  0  0  0  0  0  0  0  0  0  0  0
   -2.3267   -0.9954    2.1416 H   0  0  0  0  0  0  0  0  0  0  0  0
   -5.0199   -3.2242    0.0568 N   0  0  0  0  0  0  0  0  0  0  0  0
   -6.0796   -3.5333   -0.8745 C   0  0  0  0  0  0  0  0  0  0  0  0
   -5.2407   -3.2396    1.0482 H   0  0  0  0  0  0  0  0  0  0  0  0
   -6.6054   -2.6080   -1.1528 H   0  0  0  0  0  0  0  0  0  0  0  0
   -5.6519   -3.9970   -1.7757 H   0  0  0  0  0  0  0  0  0  0  0  0
   -6.7887   -4.2307   -0.4046 H   0  0  0  0  0  0  0  0  0  0  0  0
 18 19  1  0  0  0  0
 19 31  1  0  0  0  0
 19 20  2  0  0  0  0
  8  9  1  0  0  0  0
  9 17  1  0  0  0  0
  9 10  2  0  0  0  0
  1  3  1  0  0  0  0
  1  7  1  0  0  0  0
  1  2  2  0  0  0  0
 32 33  1  0  0  0  0
 33 41  1  0  0  0  0
 33 34  2  0  0  0  0
 21 22  1  0  0  0  0
 22 23  1  0  0  0  0
 18 21  1  0  0  0  0
 17 23  1  0  0  0  0
 17 18  1  0  0  0  0
  8 11  1  0  0  0  0
 32 35  1  0  0  0  0
 41 42  1  0  0  0  0
  7  8  1  0  0  0  0
 31 32  1  0  0  0  0
 22 27  1  0  0  0  0
 22 28  1  0  0  0  0
 21 25  1  0  0  0  0
 21 26  1  0  0  0  0
 23 29  1  0  0  0  0
 23 30  1  0  0  0  0
 18 24  1  0  0  0  0
  3  4  1  0  0  0  0
  3  5  1  0  0  0  0
  3  6  1  0  0  0  0
 11 14  1  0  0  0  0
 11 15  1  0  0  0  0
 11 16  1  0  0  0  0
 35 38  1  0  0  0  0
 35 39  1  0  0  0  0
 35 40  1  0  0  0  0
 42 44  1  0  0  0  0
 42 45  1  0  0  0  0
 42 46  1  0  0  0  0
  8 13  1  0  0  0  0
 32 37  1  0  0  0  0
 31 36  1  0  0  0  0
 41 43  1  0  0  0  0
  7 12  1  0  0  0  0
M  END
$$$$

  -OEChem-05262214473D

 46 46  0     1  0  0  0  0  0999 V2000
   -0.6012   -3.2995    3.8205 C   0  0  0  0  0  0  0  0  0  0  0  0
   -0.6574   -4.4683    3.4568 O   0  0  0  0  0  0  0  0  0  0  0  0
   -0.4935   -2.9859    5.2760 C   0  0  0  0  0  0  0  0  0  0  0  0
   -1.4789   -2.8689    5.7550 H   0  0  0  0  0  0  0  0  0  0  0  0
    0.0123   -3.7847    5.8419 H   0  0  0  0  0  0  0  0  0  0  0  0
    0.0585   -2.0642    5.5199 H   0  0  0  0  0  0  0  0  0  0  0  0
   -0.6261   -2.1849    2.9917 N   0  0  0  0  0  0  0  0  0  0  0  0
   -0.7237   -2.2601    1.5650 C   0  0  2  0  0  0  0  0  0  0  0  0
    0.1695   -1.1513    1.0687 C   0  0  0  0  0  0  0  0  0  0  0  0
    0.3193   -0.1267    1.7365 O   0  0  0  0  0  0  0  0  0  0  0  0
   -2.1397   -2.0663    1.0750 C   0  0  0  0  0  0  0  0  0  0  0  0
   -0.5717   -1.2606    3.4238 H   0  0  0  0  0  0  0  0  0  0  0  0
   -0.3076   -3.2111    1.2363 H   0  0  0  0  0  0  0  0  0  0  0  0
   -2.5584   -1.1089    1.4061 H   0  0  0  0  0  0  0  0  0  0  0  0
   -2.1682   -2.0790   -0.0197 H   0  0  0  0  0  0  0  0  0  0  0  0
   -2.7965   -2.8601    1.4459 H   0  0  0  0  0  0  0  0  0  0  0  0
    0.7724   -1.3745   -0.1593 N   0  0  0  0  0  0  0  0  0  0  0  0
    0.5614   -2.5964   -0.9244 C   0  0  2  0  0  0  0  0  0  0  0  0
   -0.3735   -3.4587   -0.1308 C   0  0  0  0  0  0  0  0  0  0  0  0
   -0.0083   -4.5706    0.2327 O   0  0  0  0  0  0  0  0  0  0  0  0
    1.9458   -3.2230   -1.0432 C   0  0  0  0  0  0  0  0  0  0  0  0
    2.2521   -1.7403   -0.8458 C   0  0  0  0  0  0  0  0  0  0  0  0
    1.5408   -0.3981   -0.9273 C   0  0  0  0  0  0  0  0  0  0  0  0
    0.1027   -2.3787   -1.8936 H   0  0  0  0  0  0  0  0  0  0  0  0
    2.0691   -3.6740   -2.0351 H   0  0  0  0  0  0  0  0  0  0  0  0
    2.1474   -3.9863   -0.2855 H   0  0  0  0  0  0  0  0  0  0  0  0
    2.5528   -1.5477    0.1905 H   0  0  0  0  0  0  0  0  0  0  0  0
    3.0524   -1.3926   -1.5053 H   0  0  0  0  0  0  0  0  0  0  0  0
    2.1327    0.4188   -0.5056 H   0  0  0  0  0  0  0  0  0  0  0  0
    1.2759   -0.1509   -1.9611 H   0  0  0  0  0  0  0  0  0  0  0  0
   -1.5759   -2.9655    0.1431 N   0  0  0  0  0  0  0  0  0  0  0  0
   -3.0068   -2.8887    0.3318 C   0  0  2  0  0  0  0  0  0  0  0  0
   -3.6761   -3.5058   -0.8891 C   0  0  0  0  0  0  0  0  0  0  0  0
   -3.1200   -3.6040   -1.9810 O   0  0  0  0  0  0  0  0  0  0  0  0
   -3.4620   -1.4517    0.5331 C   0  0  0  0  0  0  0  0  0  0  0  0
   -1.0232   -3.4640    0.8340 H   0  0  0  0  0  0  0  0  0  0  0  0
   -3.2414   -3.4869    1.2190 H   0  0  0  0  0  0  0  0  0  0  0  0
   -3.2354   -0.8369   -0.3456 H   0  0  0  0  0  0  0  0  0  0  0  0
   -4.5422   -1.3979    0.7044 H   0  0  0  0  0  0  0  0  0  0  0  0
   -2.9573   -0.9999    1.3939 H   0  0  0  0  0  0  0  0  0  0  0  0
   -4.9824   -3.8946   -0.6275 N   0  0  0  0  0  0  0  0  0  0  0  0
   -5.8324   -4.4954   -1.6288 C   0  0  0  0  0  0  0  0  0  0  0  0
   -5.3555   -3.7929    0.3118 H   0  0  0  0  0  0  0  0  0  0  0  0
   -6.4181   -3.7117   -2.1315 H   0  0  0  0  0  0  0  0  0  0  0  0
   -5.2114   -5.0209   -2.3693 H   0  0  0  0  0  0  0  0  0  0  0  0
   -6.5150   -5.2118   -1.1482 H   0  0  0  0  0  0  0  0  0  0  0  0
 18 19  1  0  0  0  0
 19 31  1  0  0  0  0
 19 20  2  0  0  0  0
  8  9  1  0  0  0  0
  9 17  1  0  0  0  0
  9 10  2  0  0  0  0
  1  3  1  0  0  0  0
  1  7  1  0  0  0  0
  1  2  2  0  0  0  0
 32 33  1  0  0  0  0
 33 41  1  0  0  0  0
 33 34  2  0  0  0  0
 21 22  1  0  0  0  0
 22 23  1  0  0  0  0
 18 21  1  0  0  0  0
 17 23  1  0  0  0  0
 17 18  1  0  0  0  0
  8 11  1  0  0  0  0
 32 35  1  0  0  0  0
 41 42  1  0  0  0  0
  7  8  1  0  0  0  0
 31 32  1  0  0  0  0
 22 27  1  0  0  0  0
 22 28  1  0  0  0  0
 21 25  1  0  0  0  0
 21 26  1  0  0  0  0
 23 29  1  0  0  0  0
 23 30  1  0  0  0  0
 18 24  1  0  0  0  0
  3  4  1  0  0  0  0
  3  5  1  0  0  0  0
  3  6  1  0  0  0  0
 11 14  1  0  0  0  0
 11 15  1  0  0  0  0
 11 16  1  0  0  0  0
 35 38  1  0  0  0  0
 35 39  1  0  0  0  0
 35 40  1  0  0  0  0
 42 44  1  0  0  0  0
 42 45  1  0  0  0  0
 42 46  1  0  0  0  0
  8 13  1  0  0  0  0
 32 37  1  0  0  0  0
 31 36  1  0  0  0  0
 41 43  1  0  0  0  0
  7 12  1  0  0  0  0
M  END
$$$$

  -OEChem-05262214473D

 46 46  0     1  0  0  0  0  0999 V2000
   -0.6012   -3.2995    3.8205 C   0  0  0  0  0  0  0  0  0  0  0  0
   -0.6574   -4.4683    3.4568 O   0  0  0  0  0  0  0  0  0  0  0  0
   -0.4935   -2.9859    5.2760 C   0  0  0  0  0  0  0  0  0  0  0  0
   -1.4789   -2.8689    5.7550 H   0  0  0  0  0  0  0  0  0  0  0  0
    0.0123   -3.7847    5.8419 H   0  0  0  0  0  0  0  0  0  0  0  0
    0.0585   -2.0642    5.5199 H   0  0  0  0  0  0  0  0  0  0  0  0
   -0.6261   -2.1849    2.9917 N   0  0  0  0  0  0  0  0  0  0  0  0
   -0.7237   -2.2601    1.5650 C   0  0  2  0  0  0  0  0  0  0  0  0
    0.1695   -1.1513    1.0687 C   0  0  0  0  0  0  0  0  0  0  0  0
    0.3193   -0.1267    1.7365 O   0  0  0  0  0  0  0  0  0  0  0  0
   -2.1397   -2.0663    1.0750 C   0  0  0  0  0  0  0  0  0  0  0  0
   -0.5717   -1.2606    3.4238 H   0  0  0  0  0  0  0  0  0  0  0  0
   -0.3076   -3.2111    1.2363 H   0  0  0  0  0  0  0  0  0  0  0  0
   -2.5584   -1.1089    1.4061 H   0  0  0  0  0  0  0  0  0  0  0  0
   -2.1682   -2.0790   -0.0197 H   0  0  0  0  0  0  0  0  0  0  0  0
   -2.7965   -2.8601    1.4459 H   0  0  0  0  0  0  0  0  0  0  0  0
    0.7724   -1.3745   -0.1593 N   0  0  0  0  0  0  0  0  0  0  0  0
    0.5614   -2.5964   -0.9244 C   0  0  2  0  0  0  0  0  0  0  0  0
   -0.3735   -3.4587   -0.1308 C   0  0  0  0  0  0  0  0  0  0  0  0
    0.0646   -4.4358    0.4650 O   0  0  0  0  0  0  0  0  0  0  0  0
    1.9458   -3.2230   -1.0432 C   0  0  0  0  0  0  0  0  0  0  0  0
    2.2521   -1.7403   -0.8458 C   0  0  0  0  0  0  0  0  0  0  0  0
    1.5408   -0.3981   -0.9273 C   0  0  0  0  0  0  0  0  0  0  0  0
    0.1027   -2.3787   -1.8936 H   0  0  0  0  0  0  0  0  0  0  0  0
    2.0691   -3.6740   -2.0351 H   0  0  0  0  0  0  0  0  0  0  0  0
    2.1474   -3.9863   -0.2855 H   0  0  0  0  0  0  0  0  0  0  0  0
    2.5528   -1.5477    0.1905 H   0  0  0  0  0  0  0  0  0  0  0  0
    3.0524   -1.3926   -1.5053 H   0  0  0  0  0  0  0  0  0  0  0  0
    2.1327    0.4188   -0.5056 H   0  0  0  0  0  0  0  0  0  0  0  0
    1.2759   -0.1509   -1.9611 H   0  0  0  0  0  0  0  0  0  0  0  0
   -1.6563   -3.1149   -0.1138 N   0  0  0  0  0  0  0  0  0  0  0  0
   -3.0972   -3.2248   -0.1398 C   0  0  2  0  0  0  0  0  0  0  0  0
   -3.4800   -4.1121   -1.3170 C   0  0  0  0  0  0  0  0  0  0  0  0
   -2.7484   -4.2900   -2.2886 O   0  0  0  0  0  0  0  0  0  0  0  0
   -3.7544   -1.8581   -0.2530 C   0  0  0  0  0  0  0  0  0  0  0  0
   -1.1635   -3.4151    0.7219 H   0  0  0  0  0  0  0  0  0  0  0  0
   -3.3943   -3.7104    0.7961 H   0  0  0  0  0  0  0  0  0  0  0  0
   -3.4686   -1.3562   -1.1846 H   0  0  0  0  0  0  0  0  0  0  0  0
   -4.8463   -1.9409   -0.2438 H   0  0  0  0  0  0  0  0  0  0  0  0
   -3.4545   -1.2113    0.5785 H   0  0  0  0  0  0  0  0  0  0  0  0
   -4.7525   -4.6475   -1.1748 N   0  0  0  0  0  0  0  0  0  0  0  0
   -5.3495   -5.5127   -2.1652 C   0  0  0  0  0  0  0  0  0  0  0  0
   -5.2809   -4.4619   -0.3273 H   0  0  0  0  0  0  0  0  0  0  0  0
   -5.9403   -4.9102   -2.8709 H   0  0  0  0  0  0  0  0  0  0  0  0
   -4.5573   -6.0453   -2.7119 H   0  0  0  0  0  0  0  0  0  0  0  0
   -6.0054   -6.2420   -1.6673 H   0  0  0  0  0  0  0  0  0  0  0  0
 18 19  1  0  0  0  0
 19 31  1  0  0  0  0
 19 20  2  0  0  0  0
  8  9  1  0  0  0  0
  9 17  1  0  0  0  0
  9 10  2  0  0  0  0
  1  3  1  0  0  0  0
  1  7  1  0  0  0  0
  1  2  2  0  0  0  0
 32 33  1  0  0  0  0
 33 41  1  0  0  0  0
 33 34  2  0  0  0  0
 21 22  1  0  0  0  0
 22 23  1  0  0  0  0
 18 21  1  0  0  0  0
 17 23  1  0  0  0  0
 17 18  1  0  0  0  0
  8 11  1  0  0  0  0
 32 35  1  0  0  0  0
 41 42  1  0  0  0  0
  7  8  1  0  0  0  0
 31 32  1  0  0  0  0
 22 27  1  0  0  0  0
 22 28  1  0  0  0  0
 21 25  1  0  0  0  0
 21 26  1  0  0  0  0
 23 29  1  0  0  0  0
 23 30  1  0  0  0  0
 18 24  1  0  0  0  0
  3  4  1  0  0  0  0
  3  5  1  0  0  0  0
  3  6  1  0  0  0  0
 11 14  1  0  0  0  0
 11 15  1  0  0  0  0
 11 16  1  0  0  0  0
 35 38  1  0  0  0  0
 35 39  1  0  0  0  0
 35 40  1  0  0  0  0
 42 44  1  0  0  0  0
 42 45  1  0  0  0  0
 42 46  1  0  0  0  0
  8 13  1  0  0  0  0
 32 37  1  0  0  0  0
 31 36  1  0  0  0  0
 41 43  1  0  0  0  0
  7 12  1  0  0  0  0
M  END
$$$$

  -OEChem-05262214473D

 46 46  0     1  0  0  0  0  0999 V2000
   -0.6012   -3.2995    3.8205 C   0  0  0  0  0  0  0  0  0  0  0  0
   -0.6574   -4.4683    3.4568 O   0  0  0  0  0  0  0  0  0  0  0  0
   -0.4935   -2.9859    5.2760 C   0  0  0  0  0  0  0  0  0  0  0  0
   -1.4789   -2.8689    5.7550 H   0  0  0  0  0  0  0  0  0  0  0  0
    0.0123   -3.7847    5.8419 H   0  0  0  0  0  0  0  0  0  0  0  0
    0.0585   -2.0642    5.5199 H   0  0  0  0  0  0  0  0  0  0  0  0
   -0.6261   -2.1849    2.9917 N   0  0  0  0  0  0  0  0  0  0  0  0
   -0.7237   -2.2601    1.5650 C   0  0  2  0  0  0  0  0  0  0  0  0
    0.1695   -1.1513    1.0687 C   0  0  0  0  0  0  0  0  0  0  0  0
    0.3193   -0.1267    1.7365 O   0  0  0  0  0  0  0  0  0  0  0  0
   -2.1397   -2.0663    1.0750 C   0  0  0  0  0  0  0  0  0  0  0  0
   -0.5717   -1.2606    3.4238 H   0  0  0  0  0  0  0  0  0  0  0  0
   -0.3076   -3.2111    1.2363 H   0  0  0  0  0  0  0  0  0  0  0  0
   -2.5584   -1.1089    1.4061 H   0  0  0  0  0  0  0  0  0  0  0  0
   -2.1682   -2.0790   -0.0197 H   0  0  0  0  0  0  0  0  0  0  0  0
   -2.7965   -2.8601    1.4459 H   0  0  0  0  0  0  0  0  0  0  0  0
    0.7724   -1.3745   -0.1593 N   0  0  0  0  0  0  0  0  0  0  0  0
    0.5614   -2.5964   -0.9244 C   0  0  2  0  0  0  0  0  0  0  0  0
   -0.3735   -3.4587   -0.1308 C   0  0  0  0  0  0  0  0  0  0  0  0
    0.0820   -4.2582    0.6786 O   0  0  0  0  0  0  0  0  0  0  0  0
    1.9458   -3.2230   -1.0432 C   0  0  0  0  0  0  0  0  0  0  0  0
    2.2521   -1.7403   -0.8458 C   0  0  0  0  0  0  0  0  0  0  0  0
    1.5408   -0.3981   -0.9273 C   0  0  0  0  0  0  0  0  0  0  0  0
    0.1027   -2.3787   -1.8936 H   0  0  0  0  0  0  0  0  0  0  0  0
    2.0691   -3.6740   -2.0351 H   0  0  0  0  0  0  0  0  0  0  0  0
    2.1474   -3.9863   -0.2855 H   0  0  0  0  0  0  0  0  0  0  0  0
    2.5528   -1.5477    0.1905 H   0  0  0  0  0  0  0  0  0  0  0  0
    3.0524   -1.3926   -1.5053 H   0  0  0  0  0  0  0  0  0  0  0  0
    2.1327    0.4188   -0.5056 H   0  0  0  0  0  0  0  0  0  0  0  0
    1.2759   -0.1509   -1.9611 H   0  0  0  0  0  0  0  0  0  0  0  0
   -1.6752   -3.3116   -0.3499 N   0  0  0  0  0  0  0  0  0  0  0  0
   -3.0682   -3.6379   -0.5546 C   0  0  2  0  0  0  0  0  0  0  0  0
   -3.1439   -4.7399   -1.6032 C   0  0  0  0  0  0  0  0  0  0  0  0
   -2.2497   -4.9514   -2.4198 O   0  0  0  0  0  0  0  0  0  0  0  0
   -3.8642   -2.4176   -0.9903 C   0  0  0  0  0  0  0  0  0  0  0  0
   -1.2890   -3.4053    0.5847 H   0  0  0  0  0  0  0  0  0  0  0  0
   -3.4484   -4.0155    0.4009 H   0  0  0  0  0  0  0  0  0  0  0  0
   -3.4977   -2.0252   -1.9459 H   0  0  0  0  0  0  0  0  0  0  0  0
   -4.9244   -2.6600   -1.1174 H   0  0  0  0  0  0  0  0  0  0  0  0
   -3.7843   -1.6152   -0.2490 H   0  0  0  0  0  0  0  0  0  0  0  0
   -4.3459   -5.4315   -1.5476 N   0  0  0  0  0  0  0  0  0  0  0  0
   -4.6638   -6.5157   -2.4473 C   0  0  0  0  0  0  0  0  0  0  0  0
   -5.0221   -5.2011   -0.8256 H   0  0  0  0  0  0  0  0  0  0  0  0
   -5.2045   -6.1217   -3.3205 H   0  0  0  0  0  0  0  0  0  0  0  0
   -3.7342   -7.0005   -2.7800 H   0  0  0  0  0  0  0  0  0  0  0  0
   -5.2948   -7.2510   -1.9266 H   0  0  0  0  0  0  0  0  0  0  0  0
 18 19  1  0  0  0  0
 19 31  1  0  0  0  0
 19 20  2  0  0  0  0
  8  9  1  0  0  0  0
  9 17  1  0  0  0  0
  9 10  2  0  0  0  0
  1  3  1  0  0  0  0
  1  7  1  0  0  0  0
  1  2  2  0  0  0  0
 32 33  1  0  0  0  0
 33 41  1  0  0  0  0
 33 34  2  0  0  0  0
 21 22  1  0  0  0  0
 22 23  1  0  0  0  0
 18 21  1  0  0  0  0
 17 23  1  0  0  0  0
 17 18  1  0  0  0  0
  8 11  1  0  0  0  0
 32 35  1  0  0  0  0
 41 42  1  0  0  0  0
  7  8  1  0  0  0  0
 31 32  1  0  0  0  0
 22 27  1  0  0  0  0
 22 28  1  0  0  0  0
 21 25  1  0  0  0  0
 21 26  1  0  0  0  0
 23 29  1  0  0  0  0
 23 30  1  0  0  0  0
 18 24  1  0  0  0  0
  3  4  1  0  0  0  0
  3  5  1  0  0  0  0
  3  6  1  0  0  0  0
 11 14  1  0  0  0  0
 11 15  1  0  0  0  0
 11 16  1  0  0  0  0
 35 38  1  0  0  0  0
 35 39  1  0  0  0  0
 35 40  1  0  0  0  0
 42 44  1  0  0  0  0
 42 45  1  0  0  0  0
 42 46  1  0  0  0  0
  8 13  1  0  0  0  0
 32 37  1  0  0  0  0
 31 36  1  0  0  0  0
 41 43  1  0  0  0  0
  7 12  1  0  0  0  0
M  END
$$$$

  -OEChem-05262214473D

 46 46  0     1  0  0  0  0  0999 V2000
   -0.6012   -3.2995    3.8205 C   0  0  0  0  0  0  0  0  0  0  0  0
   -0.6574   -4.4683    3.4568 O   0  0  0  0  0  0  0  0  0  0  0  0
   -0.4935   -2.9859    5.2760 C   0  0  0  0  0  0  0  0  0  0  0  0
   -1.4789   -2.8689    5.7550 H   0  0  0  0  0  0  0  0  0  0  0  0
    0.0123   -3.7847    5.8419 H   0  0  0  0  0  0  0  0  0  0  0  0
    0.0585   -2.0642    5.5199 H   0  0  0  0  0  0  0  0  0  0  0  0
   -0.6261   -2.1849    2.9917 N   0  0  0  0  0  0  0  0  0  0  0  0
   -0.7237   -2.2601    1.5650 C   0  0  2  0  0  0  0  0  0  0  0  0
    0.1695   -1.1513    1.0687 C   0  0  0  0  0  0  0  0  0  0  0  0
    0.3193   -0.1267    1.7365 O   0  0  0  0  0  0  0  0  0  0  0  0
   -2.1397   -2.0663    1.0750 C   0  0  0  0  0  0  0  0  0  0  0  0
   -0.5717   -1.2606    3.4238 H   0  0  0  0  0  0  0  0  0  0  0  0
   -0.3076   -3.2111    1.2363 H   0  0  0  0  0  0  0  0  0  0  0  0
   -2.5584   -1.1089    1.4061 H   0  0  0  0  0  0  0  0  0  0  0  0
   -2.1682   -2.0790   -0.0197 H   0  0  0  0  0  0  0  0  0  0  0  0
   -2.7965   -2.8601    1.4459 H   0  0  0  0  0  0  0  0  0  0  0  0
    0.7724   -1.3745   -0.1593 N   0  0  0  0  0  0  0  0  0  0  0  0
    0.5614   -2.5964   -0.9244 C   0  0  2  0  0  0  0  0  0  0  0  0
   -0.3735   -3.4587   -0.1308 C   0  0  0  0  0  0  0  0  0  0  0  0
    0.0427   -4.0497    0.8588 O   0  0  0  0  0  0  0  0  0  0  0  0
    1.9458   -3.2230   -1.0432 C   0  0  0  0  0  0  0  0  0  0  0  0
    2.2521   -1.7403   -0.8458 C   0  0  0  0  0  0  0  0  0  0  0  0
    1.5408   -0.3981   -0.9273 C   0  0  0  0  0  0  0  0  0  0  0  0
    0.1027   -2.3787   -1.8936 H   0  0  0  0  0  0  0  0  0  0  0  0
    2.0691   -3.6740   -2.0351 H   0  0  0  0  0  0  0  0  0  0  0  0
    2.1474   -3.9863   -0.2855 H   0  0  0  0  0  0  0  0  0  0  0  0
    2.5528   -1.5477    0.1905 H   0  0  0  0  0  0  0  0  0  0  0  0
    3.0524   -1.3926   -1.5053 H   0  0  0  0  0  0  0  0  0  0  0  0
    2.1327    0.4188   -0.5056 H   0  0  0  0  0  0  0  0  0  0  0  0
    1.2759   -0.1509   -1.9611 H   0  0  0  0  0  0  0  0  0  0  0  0
   -1.6314   -3.5423   -0.5489 N   0  0  0  0  0  0  0  0  0  0  0  0
   -2.9219   -4.1000   -0.8843 C   0  0  2  0  0  0  0  0  0  0  0  0
   -2.6905   -5.3465   -1.7282 C   0  0  0  0  0  0  0  0  0  0  0  0
   -1.6579   -5.5430   -2.3654 O   0  0  0  0  0  0  0  0  0  0  0  0
   -3.7838   -3.0920   -1.6285 C   0  0  0  0  0  0  0  0  0  0  0  0
   -1.3912   -3.4350    0.4320 H   0  0  0  0  0  0  0  0  0  0  0  0
   -3.4000   -4.3813    0.0603 H   0  0  0  0  0  0  0  0  0  0  0  0
   -3.3209   -2.7982   -2.5776 H   0  0  0  0  0  0  0  0  0  0  0  0
   -4.7714   -3.5064   -1.8567 H   0  0  0  0  0  0  0  0  0  0  0  0
   -3.9244   -2.1840   -1.0322 H   0  0  0  0  0  0  0  0  0  0  0  0
   -3.7901   -6.1933   -1.7207 N   0  0  0  0  0  0  0  0  0  0  0  0
   -3.8221   -7.4361   -2.4558 C   0  0  0  0  0  0  0  0  0  0  0  0
   -4.5966   -5.9600   -1.1490 H   0  0  0  0  0  0  0  0  0  0  0  0
   -4.2609   -7.2637   -3.4497 H   0  0  0  0  0  0  0  0  0  0  0  0
   -2.7980   -7.8214   -2.5692 H   0  0  0  0  0  0  0  0  0  0  0  0
   -4.4316   -8.1702   -1.9084 H   0  0  0  0  0  0  0  0  0  0  0  0
 18 19  1  0  0  0  0
 19 31  1  0  0  0  0
 19 20  2  0  0  0  0
  8  9  1  0  0  0  0
  9 17  1  0  0  0  0
  9 10  2  0  0  0  0
  1  3  1  0  0  0  0
  1  7  1  0  0  0  0
  1  2  2  0  0  0  0
 32 33  1  0  0  0  0
 33 41  1  0  0  0  0
 33 34  2  0  0  0  0
 21 22  1  0  0  0  0
 22 23  1  0  0  0  0
 18 21  1  0  0  0  0
 17 23  1  0  0  0  0
 17 18  1  0  0  0  0
  8 11  1  0  0  0  0
 32 35  1  0  0  0  0
 41 42  1  0  0  0  0
  7  8  1  0  0  0  0
 31 32  1  0  0  0  0
 22 27  1  0  0  0  0
 22 28  1  0  0  0  0
 21 25  1  0  0  0  0
 21 26  1  0  0  0  0
 23 29  1  0  0  0  0
 23 30  1  0  0  0  0
 18 24  1  0  0  0  0
  3  4  1  0  0  0  0
  3  5  1  0  0  0  0
  3  6  1  0  0  0  0
 11 14  1  0  0  0  0
 11 15  1  0  0  0  0
 11 16  1  0  0  0  0
 35 38  1  0  0  0  0
 35 39  1  0  0  0  0
 35 40  1  0  0  0  0
 42 44  1  0  0  0  0
 42 45  1  0  0  0  0
 42 46  1  0  0  0  0
  8 13  1  0  0  0  0
 32 37  1  0  0  0  0
 31 36  1  0  0  0  0
 41 43  1  0  0  0  0
  7 12  1  0  0  0  0
M  END
$$$$

  -OEChem-05262214473D

 46 46  0     1  0  0  0  0  0999 V2000
   -0.6012   -3.2995    3.8205 C   0  0  0  0  0  0  0  0  0  0  0  0
   -0.6574   -4.4683    3.4568 O   0  0  0  0  0  0  0  0  0  0  0  0
   -0.4935   -2.9859    5.2760 C   0  0  0  0  0  0  0  0  0  0  0  0
   -1.4789   -2.8689    5.7550 H   0  0  0  0  0  0  0  0  0  0  0  0
    0.0123   -3.7847    5.8419 H   0  0  0  0  0  0  0  0  0  0  0  0
    0.0585   -2.0642    5.5199 H   0  0  0  0  0  0  0  0  0  0  0  0
   -0.6261   -2.1849    2.9917 N   0  0  0  0  0  0  0  0  0  0  0  0
   -0.7237   -2.2601    1.5650 C   0  0  2  0  0  0  0  0  0  0  0  0
    0.1695   -1.1513    1.0687 C   0  0  0  0  0  0  0  0  0  0  0  0
    0.3193   -0.1267    1.7365 O   0  0  0  0  0  0  0  0  0  0  0  0
   -2.1397   -2.0663    1.0750 C   0  0  0  0  0  0  0  0  0  0  0  0
   -0.5717   -1.2606    3.4238 H   0  0  0  0  0  0  0  0  0  0  0  0
   -0.3076   -3.2111    1.2363 H   0  0  0  0  0  0  0  0  0  0  0  0
   -2.5584   -1.1089    1.4061 H   0  0  0  0  0  0  0  0  0  0  0  0
   -2.1682   -2.0790   -0.0197 H   0  0  0  0  0  0  0  0  0  0  0  0
   -2.7965   -2.8601    1.4459 H   0  0  0  0  0  0  0  0  0  0  0  0
    0.7724   -1.3745   -0.1593 N   0  0  0  0  0  0  0  0  0  0  0  0
    0.5614   -2.5964   -0.9244 C   0  0  2  0  0  0  0  0  0  0  0  0
   -0.3735   -3.4587   -0.1308 C   0  0  0  0  0  0  0  0  0  0  0  0
   -0.0507   -3.8247    0.9933 O   0  0  0  0  0  0  0  0  0  0  0  0
    1.9458   -3.2230   -1.0432 C   0  0  0  0  0  0  0  0  0  0  0  0
    2.2521   -1.7403   -0.8458 C   0  0  0  0  0  0  0  0  0  0  0  0
    1.5408   -0.3981   -0.9273 C   0  0  0  0  0  0  0  0  0  0  0  0
    0.1027   -2.3787   -1.8936 H   0  0  0  0  0  0  0  0  0  0  0  0
    2.0691   -3.6740   -2.0351 H   0  0  0  0  0  0  0  0  0  0  0  0
    2.1474   -3.9863   -0.2855 H   0  0  0  0  0  0  0  0  0  0  0  0
    2.5528   -1.5477    0.1905 H   0  0  0  0  0  0  0  0  0  0  0  0
    3.0524   -1.3926   -1.5053 H   0  0  0  0  0  0  0  0  0  0  0  0
    2.1327    0.4188   -0.5056 H   0  0  0  0  0  0  0  0  0  0  0  0
    1.2759   -0.1509   -1.9611 H   0  0  0  0  0  0  0  0  0  0  0  0
   -1.5278   -3.7912   -0.6974 N   0  0  0  0  0  0  0  0  0  0  0  0
   -2.6681   -4.5795   -1.1064 C   0  0  2  0  0  0  0  0  0  0  0  0
   -2.1509   -5.8905   -1.6836 C   0  0  0  0  0  0  0  0  0  0  0  0
   -1.0132   -6.0247   -2.1293 O   0  0  0  0  0  0  0  0  0  0  0  0
   -3.5187   -3.8355   -2.1241 C   0  0  0  0  0  0  0  0  0  0  0  0
   -1.4631   -3.5024    0.2741 H   0  0  0  0  0  0  0  0  0  0  0  0
   -3.2525   -4.7831   -0.2024 H   0  0  0  0  0  0  0  0  0  0  0  0
   -2.9502   -3.6227   -3.0367 H   0  0  0  0  0  0  0  0  0  0  0  0
   -4.3975   -4.4223   -2.4114 H   0  0  0  0  0  0  0  0  0  0  0  0
   -3.8652   -2.8792   -1.7178 H   0  0  0  0  0  0  0  0  0  0  0  0
   -3.1231   -6.8810   -1.6821 N   0  0  0  0  0  0  0  0  0  0  0  0
   -2.8817   -8.2112   -2.1902 C   0  0  0  0  0  0  0  0  0  0  0  0
   -4.0335   -6.6869   -1.2755 H   0  0  0  0  0  0  0  0  0  0  0  0
   -3.1737   -8.2583   -3.2496 H   0  0  0  0  0  0  0  0  0  0  0  0
   -1.8127   -8.4520   -2.0936 H   0  0  0  0  0  0  0  0  0  0  0  0
   -3.4745   -8.9369   -1.6140 H   0  0  0  0  0  0  0  0  0  0  0  0
 18 19  1  0  0  0  0
 19 31  1  0  0  0  0
 19 20  2  0  0  0  0
  8  9  1  0  0  0  0
  9 17  1  0  0  0  0
  9 10  2  0  0  0  0
  1  3  1  0  0  0  0
  1  7  1  0  0  0  0
  1  2  2  0  0  0  0
 32 33  1  0  0  0  0
 33 41  1  0  0  0  0
 33 34  2  0  0  0  0
 21 22  1  0  0  0  0
 22 23  1  0  0  0  0
 18 21  1  0  0  0  0
 17 23  1  0  0  0  0
 17 18  1  0  0  0  0
  8 11  1  0  0  0  0
 32 35  1  0  0  0  0
 41 42  1  0  0  0  0
  7  8  1  0  0  0  0
 31 32  1  0  0  0  0
 22 27  1  0  0  0  0
 22 28  1  0  0  0  0
 21 25  1  0  0  0  0
 21 26  1  0  0  0  0
 23 29  1  0  0  0  0
 23 30  1  0  0  0  0
 18 24  1  0  0  0  0
  3  4  1  0  0  0  0
  3  5  1  0  0  0  0
  3  6  1  0  0  0  0
 11 14  1  0  0  0  0
 11 15  1  0  0  0  0
 11 16  1  0  0  0  0
 35 38  1  0  0  0  0
 35 39  1  0  0  0  0
 35 40  1  0  0  0  0
 42 44  1  0  0  0  0
 42 45  1  0  0  0  0
 42 46  1  0  0  0  0
  8 13  1  0  0  0  0
 32 37  1  0  0  0  0
 31 36  1  0  0  0  0
 41 43  1  0  0  0  0
  7 12  1  0  0  0  0
M  END
$$$$

  -OEChem-05262214473D

 46 46  0     1  0  0  0  0  0999 V2000
   -0.6012   -3.2995    3.8205 C   0  0  0  0  0  0  0  0  0  0  0  0
   -0.6574   -4.4683    3.4568 O   0  0  0  0  0  0  0  0  0  0  0  0
   -0.4935   -2.9859    5.2760 C   0  0  0  0  0  0  0  0  0  0  0  0
   -1.4789   -2.8689    5.7550 H   0  0  0  0  0  0  0  0  0  0  0  0
    0.0123   -3.7847    5.8419 H   0  0  0  0  0  0  0  0  0  0  0  0
    0.0585   -2.0642    5.5199 H   0  0  0  0  0  0  0  0  0  0  0  0
   -0.6261   -2.1849    2.9917 N   0  0  0  0  0  0  0  0  0  0  0  0
   -0.7237   -2.2601    1.5650 C   0  0  2  0  0  0  0  0  0  0  0  0
    0.1695   -1.1513    1.0687 C   0  0  0  0  0  0  0  0  0  0  0  0
    0.3193   -0.1267    1.7365 O   0  0  0  0  0  0  0  0  0  0  0  0
   -2.1397   -2.0663    1.0750 C   0  0  0  0  0  0  0  0  0  0  0  0
   -0.5717   -1.2606    3.4238 H   0  0  0  0  0  0  0  0  0  0  0  0
   -0.3076   -3.2111    1.2363 H   0  0  0  0  0  0  0  0  0  0  0  0
   -2.5584   -1.1089    1.4061 H   0  0  0  0  0  0  0  0  0  0  0  0
   -2.1682   -2.0790   -0.0197 H   0  0  0  0  0  0  0  0  0  0  0  0
   -2.7965   -2.8601    1.4459 H   0  0  0  0  0  0  0  0  0  0  0  0
    0.7724   -1.3745   -0.1593 N   0  0  0  0  0  0  0  0  0  0  0  0
    0.5614   -2.5964   -0.9244 C   0  0  2  0  0  0  0  0  0  0  0  0
   -0.3735   -3.4587   -0.1308 C   0  0  0  0  0  0  0  0  0  0  0  0
   -0.1917   -3.5984    1.0730 O   0  0  0  0  0  0  0  0  0  0  0  0
    1.9458   -3.2230   -1.0432 C   0  0  0  0  0  0  0  0  0  0  0  0
    2.2521   -1.7403   -0.8458 C   0  0  0  0  0  0  0  0  0  0  0  0
    1.5408   -0.3981   -0.9273 C   0  0  0  0  0  0  0  0  0  0  0  0
    0.1027   -2.3787   -1.8936 H   0  0  0  0  0  0  0  0  0  0  0  0
    2.0691   -3.6740   -2.0351 H   0  0  0  0  0  0  0  0  0  0  0  0
    2.1474   -3.9863   -0.2855 H   0  0  0  0  0  0  0  0  0  0  0  0
    2.5528   -1.5477    0.1905 H   0  0  0  0  0  0  0  0  0  0  0  0
    3.0524   -1.3926   -1.5053 H   0  0  0  0  0  0  0  0  0  0  0  0
    2.1327    0.4188   -0.5056 H   0  0  0  0  0  0  0  0  0  0  0  0
    1.2759   -0.1509   -1.9611 H   0  0  0  0  0  0  0  0  0  0  0  0
   -1.3715   -4.0415   -0.7853 N   0  0  0  0  0  0  0  0  0  0  0  0
   -2.3243   -5.0437   -1.2057 C   0  0  2  0  0  0  0  0  0  0  0  0
   -1.5618   -6.3348   -1.4724 C   0  0  0  0  0  0  0  0  0  0  0  0
   -0.3597   -6.3635   -1.7276 O   0  0  0  0  0  0  0  0  0  0  0  0
   -3.0871   -4.5974   -2.4433 C   0  0  0  0  0  0  0  0  0  0  0  0
   -1.4998   -3.6029    0.1217 H   0  0  0  0  0  0  0  0  0  0  0  0
   -3.0158   -5.1933   -0.3694 H   0  0  0  0  0  0  0  0  0  0  0  0
   -2.4108   -4.4424   -3.2919 H   0  0  0  0  0  0  0  0  0  0  0  0
   -3.8283   -5.3452   -2.7438 H   0  0  0  0  0  0  0  0  0  0  0  0
   -3.6107   -3.6531   -2.2589 H   0  0  0  0  0  0  0  0  0  0  0  0
   -2.3904   -7.4476   -1.4346 N   0  0  0  0  0  0  0  0  0  0  0  0
   -1.9066   -8.7882   -1.6685 C   0  0  0  0  0  0  0  0  0  0  0  0
   -3.3712   -7.3324   -1.1966 H   0  0  0  0  0  0  0  0  0  0  0  0
   -2.0171   -9.0378   -2.7341 H   0  0  0  0  0  0  0  0  0  0  0  0
   -0.8453   -8.8494   -1.3858 H   0  0  0  0  0  0  0  0  0  0  0  0
   -2.4888   -9.4987   -1.0633 H   0  0  0  0  0  0  0  0  0  0  0  0
 18 19  1  0  0  0  0
 19 31  1  0  0  0  0
 19 20  2  0  0  0  0
  8  9  1  0  0  0  0
  9 17  1  0  0  0  0
  9 10  2  0  0  0  0
  1  3  1  0  0  0  0
  1  7  1  0  0  0  0
  1  2  2  0  0  0  0
 32 33  1  0  0  0  0
 33 41  1  0  0  0  0
 33 34  2  0  0  0  0
 21 22  1  0  0  0  0
 22 23  1  0  0  0  0
 18 21  1  0  0  0  0
 17 23  1  0  0  0  0
 17 18  1  0  0  0  0
  8 11  1  0  0  0  0
 32 35  1  0  0  0  0
 41 42  1  0  0  0  0
  7  8  1  0  0  0  0
 31 32  1  0  0  0  0
 22 27  1  0  0  0  0
 22 28  1  0  0  0  0
 21 25  1  0  0  0  0
 21 26  1  0  0  0  0
 23 29  1  0  0  0  0
 23 30  1  0  0  0  0
 18 24  1  0  0  0  0
  3  4  1  0  0  0  0
  3  5  1  0  0  0  0
  3  6  1  0  0  0  0
 11 14  1  0  0  0  0
 11 15  1  0  0  0  0
 11 16  1  0  0  0  0
 35 38  1  0  0  0  0
 35 39  1  0  0  0  0
 35 40  1  0  0  0  0
 42 44  1  0  0  0  0
 42 45  1  0  0  0  0
 42 46  1  0  0  0  0
  8 13  1  0  0  0  0
 32 37  1  0  0  0  0
 31 36  1  0  0  0  0
 41 43  1  0  0  0  0
  7 12  1  0  0  0  0
M  END
$$$$

  -OEChem-05262214473D

 46 46  0     1  0  0  0  0  0999 V2000
   -0.6012   -3.2995    3.8205 C   0  0  0  0  0  0  0  0  0  0  0  0
   -0.6574   -4.4683    3.4568 O   0  0  0  0  0  0  0  0  0  0  0  0
   -0.4935   -2.9859    5.2760 C   0  0  0  0  0  0  0  0  0  0  0  0
   -1.4789   -2.8689    5.7550 H   0  0  0  0  0  0  0  0  0  0  0  0
    0.0123   -3.7847    5.8419 H   0  0  0  0  0  0  0  0  0  0  0  0
    0.0585   -2.0642    5.5199 H   0  0  0  0  0  0  0  0  0  0  0  0
   -0.6261   -2.1849    2.9917 N   0  0  0  0  0  0  0  0  0  0  0  0
   -0.7237   -2.2601    1.5650 C   0  0  2  0  0  0  0  0  0  0  0  0
    0.1695   -1.1513    1.0687 C   0  0  0  0  0  0  0  0  0  0  0  0
    0.3193   -0.1267    1.7365 O   0  0  0  0  0  0  0  0  0  0  0  0
   -2.1397   -2.0663    1.0750 C   0  0  0  0  0  0  0  0  0  0  0  0
   -0.5717   -1.2606    3.4238 H   0  0  0  0  0  0  0  0  0  0  0  0
   -0.3076   -3.2111    1.2363 H   0  0  0  0  0  0  0  0  0  0  0  0
   -2.5584   -1.1089    1.4061 H   0  0  0  0  0  0  0  0  0  0  0  0
   -2.1682   -2.0790   -0.0197 H   0  0  0  0  0  0  0  0  0  0  0  0
   -2.7965   -2.8601    1.4459 H   0  0  0  0  0  0  0  0  0  0  0  0
    0.7724   -1.3745   -0.1593 N   0  0  0  0  0  0  0  0  0  0  0  0
    0.5614   -2.5964   -0.9244 C   0  0  2  0  0  0  0  0  0  0  0  0
   -0.3735   -3.4587   -0.1308 C   0  0  0  0  0  0  0  0  0  0  0  0
   -0.3708   -3.3863    1.0925 O   0  0  0  0  0  0  0  0  0  0  0  0
    1.9458   -3.2230   -1.0432 C   0  0  0  0  0  0  0  0  0  0  0  0
    2.2521   -1.7403   -0.8458 C   0  0  0  0  0  0  0  0  0  0  0  0
    1.5408   -0.3981   -0.9273 C   0  0  0  0  0  0  0  0  0  0  0  0
    0.1027   -2.3787   -1.8936 H   0  0  0  0  0  0  0  0  0  0  0  0
    2.0691   -3.6740   -2.0351 H   0  0  0  0  0  0  0  0  0  0  0  0
    2.1474   -3.9863   -0.2855 H   0  0  0  0  0  0  0  0  0  0  0  0
    2.5528   -1.5477    0.1905 H   0  0  0  0  0  0  0  0  0  0  0  0
    3.0524   -1.3926   -1.5053 H   0  0  0  0  0  0  0  0  0  0  0  0
    2.1327    0.4188   -0.5056 H   0  0  0  0  0  0  0  0  0  0  0  0
    1.2759   -0.1509   -1.9611 H   0  0  0  0  0  0  0  0  0  0  0  0
   -1.1732   -4.2760   -0.8065 N   0  0  0  0  0  0  0  0  0  0  0  0
   -1.9138   -5.4611   -1.1756 C   0  0  2  0  0  0  0  0  0  0  0  0
   -0.9634   -6.6492   -1.1090 C   0  0  0  0  0  0  0  0  0  0  0  0
    0.2582   -6.5364   -1.1875 O   0  0  0  0  0  0  0  0  0  0  0  0
   -2.5182   -5.3256   -2.5645 C   0  0  0  0  0  0  0  0  0  0  0  0
   -1.4988   -3.7296   -0.0147 H   0  0  0  0  0  0  0  0  0  0  0  0
   -2.7061   -5.5841   -0.4292 H   0  0  0  0  0  0  0  0  0  0  0  0
   -1.7394   -5.2014   -3.3258 H   0  0  0  0  0  0  0  0  0  0  0  0
   -3.1025   -6.2124   -2.8311 H   0  0  0  0  0  0  0  0  0  0  0  0
   -3.1783   -4.4532   -2.6189 H   0  0  0  0  0  0  0  0  0  0  0  0
   -1.6419   -7.8545   -0.9950 N   0  0  0  0  0  0  0  0  0  0  0  0
   -0.9635   -9.1277   -0.9262 C   0  0  0  0  0  0  0  0  0  0  0  0
   -2.6547   -7.8524   -0.9176 H   0  0  0  0  0  0  0  0  0  0  0  0
   -0.8699   -9.5490   -1.9380 H   0  0  0  0  0  0  0  0  0  0  0  0
    0.0381   -8.9864   -0.4939 H   0  0  0  0  0  0  0  0  0  0  0  0
   -1.5418   -9.8175   -0.2940 H   0  0  0  0  0  0  0  0  0  0  0  0
 18 19  1  0  0  0  0
 19 31  1  0  0  0  0
 19 20  2  0  0  0  0
  8  9  1  0  0  0  0
  9 17  1  0  0  0  0
  9 10  2  0  0  0  0
  1  3  1  0  0  0  0
  1  7  1  0  0  0  0
  1  2  2  0  0  0  0
 32 33  1  0  0  0  0
 33 41  1  0  0  0  0
 33 34  2  0  0  0  0
 21 22  1  0  0  0  0
 22 23  1  0  0  0  0
 18 21  1  0  0  0  0
 17 23  1  0  0  0  0
 17 18  1  0  0  0  0
  8 11  1  0  0  0  0
 32 35  1  0  0  0  0
 41 42  1  0  0  0  0
  7  8  1  0  0  0  0
 31 32  1  0  0  0  0
 22 27  1  0  0  0  0
 22 28  1  0  0  0  0
 21 25  1  0  0  0  0
 21 26  1  0  0  0  0
 23 29  1  0  0  0  0
 23 30  1  0  0  0  0
 18 24  1  0  0  0  0
  3  4  1  0  0  0  0
  3  5  1  0  0  0  0
  3  6  1  0  0  0  0
 11 14  1  0  0  0  0
 11 15  1  0  0  0  0
 11 16  1  0  0  0  0
 35 38  1  0  0  0  0
 35 39  1  0  0  0  0
 35 40  1  0  0  0  0
 42 44  1  0  0  0  0
 42 45  1  0  0  0  0
 42 46  1  0  0  0  0
  8 13  1  0  0  0  0
 32 37  1  0  0  0  0
 31 36  1  0  0  0  0
 41 43  1  0  0  0  0
  7 12  1  0  0  0  0
M  END
$$$$

  -OEChem-05262214473D

 46 46  0     1  0  0  0  0  0999 V2000
   -0.6012   -3.2995    3.8205 C   0  0  0  0  0  0  0  0  0  0  0  0
   -0.6574   -4.4683    3.4568 O   0  0  0  0  0  0  0  0  0  0  0  0
   -0.4935   -2.9859    5.2760 C   0  0  0  0  0  0  0  0  0  0  0  0
   -1.4789   -2.8689    5.7550 H   0  0  0  0  0  0  0  0  0  0  0  0
    0.0123   -3.7847    5.8419 H   0  0  0  0  0  0  0  0  0  0  0  0
    0.0585   -2.0642    5.5199 H   0  0  0  0  0  0  0  0  0  0  0  0
   -0.6261   -2.1849    2.9917 N   0  0  0  0  0  0  0  0  0  0  0  0
   -0.7237   -2.2601    1.5650 C   0  0  2  0  0  0  0  0  0  0  0  0
    0.1695   -1.1513    1.0687 C   0  0  0  0  0  0  0  0  0  0  0  0
    0.3193   -0.1267    1.7365 O   0  0  0  0  0  0  0  0  0  0  0  0
   -2.1397   -2.0663    1.0750 C   0  0  0  0  0  0  0  0  0  0  0  0
   -0.5717   -1.2606    3.4238 H   0  0  0  0  0  0  0  0  0  0  0  0
   -0.3076   -3.2111    1.2363 H   0  0  0  0  0  0  0  0  0  0  0  0
   -2.5584   -1.1089    1.4061 H   0  0  0  0  0  0  0  0  0  0  0  0
   -2.1682   -2.0790   -0.0197 H   0  0  0  0  0  0  0  0  0  0  0  0
   -2.7965   -2.8601    1.4459 H   0  0  0  0  0  0  0  0  0  0  0  0
    0.7724   -1.3745   -0.1593 N   0  0  0  0  0  0  0  0  0  0  0  0
    0.5614   -2.5964   -0.9244 C   0  0  2  0  0  0  0  0  0  0  0  0
   -0.3735   -3.4587   -0.1308 C   0  0  0  0  0  0  0  0  0  0  0  0
   -0.5758   -3.2028    1.0504 O   0  0  0  0  0  0  0  0  0  0  0  0
    1.9458   -3.2230   -1.0432 C   0  0  0  0  0  0  0  0  0  0  0  0
    2.2521   -1.7403   -0.8458 C   0  0  0  0  0  0  0  0  0  0  0  0
    1.5408   -0.3981   -0.9273 C   0  0  0  0  0  0  0  0  0  0  0  0
    0.1027   -2.3787   -1.8936 H   0  0  0  0  0  0  0  0  0  0  0  0
    2.0691   -3.6740   -2.0351 H   0  0  0  0  0  0  0  0  0  0  0  0
    2.1474   -3.9863   -0.2855 H   0  0  0  0  0  0  0  0  0  0  0  0
    2.5528   -1.5477    0.1905 H   0  0  0  0  0  0  0  0  0  0  0  0
    3.0524   -1.3926   -1.5053 H   0  0  0  0  0  0  0  0  0  0  0  0
    2.1327    0.4188   -0.5056 H   0  0  0  0  0  0  0  0  0  0  0  0
    1.2759   -0.1509   -1.9611 H   0  0  0  0  0  0  0  0  0  0  0  0
   -0.9464   -4.4787   -0.7596 N   0  0  0  0  0  0  0  0  0  0  0  0
   -1.4645   -5.8031   -1.0180 C   0  0  2  0  0  0  0  0  0  0  0  0
   -0.3963   -6.8123   -0.6181 C   0  0  0  0  0  0  0  0  0  0  0  0
    0.7983   -6.5315   -0.5460 O   0  0  0  0  0  0  0  0  0  0  0  0
   -1.8509   -5.9707   -2.4793 C   0  0  0  0  0  0  0  0  0  0  0  0
   -1.4601   -3.8738   -0.1259 H   0  0  0  0  0  0  0  0  0  0  0  0
   -2.3445   -5.9288   -0.3778 H   0  0  0  0  0  0  0  0  0  0  0  0
   -0.9819   -5.8480   -3.1361 H   0  0  0  0  0  0  0  0  0  0  0  0
   -2.2697   -6.9648   -2.6674 H   0  0  0  0  0  0  0  0  0  0  0  0
   -2.5974   -5.2249   -2.7730 H   0  0  0  0  0  0  0  0  0  0  0  0
   -0.9286   -8.0741   -0.3932 N   0  0  0  0  0  0  0  0  0  0  0  0
   -0.1164   -9.2066   -0.0141 C   0  0  0  0  0  0  0  0  0  0  0  0
   -1.9329   -8.2115   -0.4575 H   0  0  0  0  0  0  0  0  0  0  0  0
    0.1898   -9.7572   -0.9158 H   0  0  0  0  0  0  0  0  0  0  0  0
    0.7775   -8.8538    0.5212 H   0  0  0  0  0  0  0  0  0  0  0  0
   -0.6978   -9.8715    0.6416 H   0  0  0  0  0  0  0  0  0  0  0  0
 18 19  1  0  0  0  0
 19 31  1  0  0  0  0
 19 20  2  0  0  0  0
  8  9  1  0  0  0  0
  9 17  1  0  0  0  0
  9 10  2  0  0  0  0
  1  3  1  0  0  0  0
  1  7  1  0  0  0  0
  1  2  2  0  0  0  0
 32 33  1  0  0  0  0
 33 41  1  0  0  0  0
 33 34  2  0  0  0  0
 21 22  1  0  0  0  0
 22 23  1  0  0  0  0
 18 21  1  0  0  0  0
 17 23  1  0  0  0  0
 17 18  1  0  0  0  0
  8 11  1  0  0  0  0
 32 35  1  0  0  0  0
 41 42  1  0  0  0  0
  7  8  1  0  0  0  0
 31 32  1  0  0  0  0
 22 27  1  0  0  0  0
 22 28  1  0  0  0  0
 21 25  1  0  0  0  0
 21 26  1  0  0  0  0
 23 29  1  0  0  0  0
 23 30  1  0  0  0  0
 18 24  1  0  0  0  0
  3  4  1  0  0  0  0
  3  5  1  0  0  0  0
  3  6  1  0  0  0  0
 11 14  1  0  0  0  0
 11 15  1  0  0  0  0
 11 16  1  0  0  0  0
 35 38  1  0  0  0  0
 35 39  1  0  0  0  0
 35 40  1  0  0  0  0
 42 44  1  0  0  0  0
 42 45  1  0  0  0  0
 42 46  1  0  0  0  0
  8 13  1  0  0  0  0
 32 37  1  0  0  0  0
 31 36  1  0  0  0  0
 41 43  1  0  0  0  0
  7 12  1  0  0  0  0
M  END
$$$$

  -OEChem-05262214473D

 46 46  0     1  0  0  0  0  0999 V2000
   -0.6012   -3.2995    3.8205 C   0  0  0  0  0  0  0  0  0  0  0  0
   -0.6574   -4.4683    3.4568 O   0  0  0  0  0  0  0  0  0  0  0  0
   -0.4935   -2.9859    5.2760 C   0  0  0  0  0  0  0  0  0  0  0  0
   -1.4789   -2.8689    5.7550 H   0  0  0  0  0  0  0  0  0  0  0  0
    0.0123   -3.7847    5.8419 H   0  0  0  0  0  0  0  0  0  0  0  0
    0.0585   -2.0642    5.5199 H   0  0  0  0  0  0  0  0  0  0  0  0
   -0.6261   -2.1849    2.9917 N   0  0  0  0  0  0  0  0  0  0  0  0
   -0.7237   -2.2601    1.5650 C   0  0  2  0  0  0  0  0  0  0  0  0
    0.1695   -1.1513    1.0687 C   0  0  0  0  0  0  0  0  0  0  0  0
    0.3193   -0.1267    1.7365 O   0  0  0  0  0  0  0  0  0  0  0  0
   -2.1397   -2.0663    1.0750 C   0  0  0  0  0  0  0  0  0  0  0  0
   -0.5717   -1.2606    3.4238 H   0  0  0  0  0  0  0  0  0  0  0  0
   -0.3076   -3.2111    1.2363 H   0  0  0  0  0  0  0  0  0  0  0  0
   -2.5584   -1.1089    1.4061 H   0  0  0  0  0  0  0  0  0  0  0  0
   -2.1682   -2.0790   -0.0197 H   0  0  0  0  0  0  0  0  0  0  0  0
   -2.7965   -2.8601    1.4459 H   0  0  0  0  0  0  0  0  0  0  0  0
    0.7724   -1.3745   -0.1593 N   0  0  0  0  0  0  0  0  0  0  0  0
    0.5614   -2.5964   -0.9244 C   0  0  2  0  0  0  0  0  0  0  0  0
   -0.3735   -3.4587   -0.1308 C   0  0  0  0  0  0  0  0  0  0  0  0
   -0.7927   -3.0604    0.9496 O   0  0  0  0  0  0  0  0  0  0  0  0
    1.9458   -3.2230   -1.0432 C   0  0  0  0  0  0  0  0  0  0  0  0
    2.2521   -1.7403   -0.8458 C   0  0  0  0  0  0  0  0  0  0  0  0
    1.5408   -0.3981   -0.9273 C   0  0  0  0  0  0  0  0  0  0  0  0
    0.1027   -2.3787   -1.8936 H   0  0  0  0  0  0  0  0  0  0  0  0
    2.0691   -3.6740   -2.0351 H   0  0  0  0  0  0  0  0  0  0  0  0
    2.1474   -3.9863   -0.2855 H   0  0  0  0  0  0  0  0  0  0  0  0
    2.5528   -1.5477    0.1905 H   0  0  0  0  0  0  0  0  0  0  0  0
    3.0524   -1.3926   -1.5053 H   0  0  0  0  0  0  0  0  0  0  0  0
    2.1327    0.4188   -0.5056 H   0  0  0  0  0  0  0  0  0  0  0  0
    1.2759   -0.1509   -1.9611 H   0  0  0  0  0  0  0  0  0  0  0  0
   -0.7065   -4.6360   -0.6478 N   0  0  0  0  0  0  0  0  0  0  0  0
   -1.0072   -6.0464   -0.7436 C   0  0  2  0  0  0  0  0  0  0  0  0
    0.1007   -6.8128   -0.0332 C   0  0  0  0  0  0  0  0  0  0  0  0
    1.2238   -6.3493    0.1533 O   0  0  0  0  0  0  0  0  0  0  0  0
   -1.1306   -6.4886   -2.1935 C   0  0  0  0  0  0  0  0  0  0  0  0
   -1.3865   -4.0257   -0.2043 H   0  0  0  0  0  0  0  0  0  0  0  0
   -1.9557   -6.2040   -0.2187 H   0  0  0  0  0  0  0  0  0  0  0  0
   -0.1899   -6.3383   -2.7356 H   0  0  0  0  0  0  0  0  0  0  0  0
   -1.3865   -7.5509   -2.2639 H   0  0  0  0  0  0  0  0  0  0  0  0
   -1.9076   -5.9156   -2.7109 H   0  0  0  0  0  0  0  0  0  0  0  0
   -0.2991   -8.0914    0.3296 N   0  0  0  0  0  0  0  0  0  0  0  0
    0.5768   -9.0196    1.0058 C   0  0  0  0  0  0  0  0  0  0  0  0
   -1.2551   -8.3852    0.1524 H   0  0  0  0  0  0  0  0  0  0  0  0
    1.0898   -9.6481    0.2629 H   0  0  0  0  0  0  0  0  0  0  0  0
    1.3223   -8.4606    1.5904 H   0  0  0  0  0  0  0  0  0  0  0  0
   -0.0145   -9.6571    1.6796 H   0  0  0  0  0  0  0  0  0  0  0  0
 18 19  1  0  0  0  0
 19 31  1  0  0  0  0
 19 20  2  0  0  0  0
  8  9  1  0  0  0  0
  9 17  1  0  0  0  0
  9 10  2  0  0  0  0
  1  3  1  0  0  0  0
  1  7  1  0  0  0  0
  1  2  2  0  0  0  0
 32 33  1  0  0  0  0
 33 41  1  0  0  0  0
 33 34  2  0  0  0  0
 21 22  1  0  0  0  0
 22 23  1  0  0  0  0
 18 21  1  0  0  0  0
 17 23  1  0  0  0  0
 17 18  1  0  0  0  0
  8 11  1  0  0  0  0
 32 35  1  0  0  0  0
 41 42  1  0  0  0  0
  7  8  1  0  0  0  0
 31 32  1  0  0  0  0
 22 27  1  0  0  0  0
 22 28  1  0  0  0  0
 21 25  1  0  0  0  0
 21 26  1  0  0  0  0
 23 29  1  0  0  0  0
 23 30  1  0  0  0  0
 18 24  1  0  0  0  0
  3  4  1  0  0  0  0
  3  5  1  0  0  0  0
  3  6  1  0  0  0  0
 11 14  1  0  0  0  0
 11 15  1  0  0  0  0
 11 16  1  0  0  0  0
 35 38  1  0  0  0  0
 35 39  1  0  0  0  0
 35 40  1  0  0  0  0
 42 44  1  0  0  0  0
 42 45  1  0  0  0  0
 42 46  1  0  0  0  0
  8 13  1  0  0  0  0
 32 37  1  0  0  0  0
 31 36  1  0  0  0  0
 41 43  1  0  0  0  0
  7 12  1  0  0  0  0
M  END
$$$$

  -OEChem-05262214473D

 46 46  0     1  0  0  0  0  0999 V2000
   -0.6012   -3.2995    3.8205 C   0  0  0  0  0  0  0  0  0  0  0  0
   -0.6574   -4.4683    3.4568 O   0  0  0  0  0  0  0  0  0  0  0  0
   -0.4935   -2.9859    5.2760 C   0  0  0  0  0  0  0  0  0  0  0  0
   -1.4789   -2.8689    5.7550 H   0  0  0  0  0  0  0  0  0  0  0  0
    0.0123   -3.7847    5.8419 H   0  0  0  0  0  0  0  0  0  0  0  0
    0.0585   -2.0642    5.5199 H   0  0  0  0  0  0  0  0  0  0  0  0
   -0.6261   -2.1849    2.9917 N   0  0  0  0  0  0  0  0  0  0  0  0
   -0.7237   -2.2601    1.5650 C   0  0  2  0  0  0  0  0  0  0  0  0
    0.1695   -1.1513    1.0687 C   0  0  0  0  0  0  0  0  0  0  0  0
    0.3193   -0.1267    1.7365 O   0  0  0  0  0  0  0  0  0  0  0  0
   -2.1397   -2.0663    1.0750 C   0  0  0  0  0  0  0  0  0  0  0  0
   -0.5717   -1.2606    3.4238 H   0  0  0  0  0  0  0  0  0  0  0  0
   -0.3076   -3.2111    1.2363 H   0  0  0  0  0  0  0  0  0  0  0  0
   -2.5584   -1.1089    1.4061 H   0  0  0  0  0  0  0  0  0  0  0  0
   -2.1682   -2.0790   -0.0197 H   0  0  0  0  0  0  0  0  0  0  0  0
   -2.7965   -2.8601    1.4459 H   0  0  0  0  0  0  0  0  0  0  0  0
    0.7724   -1.3745   -0.1593 N   0  0  0  0  0  0  0  0  0  0  0  0
    0.5614   -2.5964   -0.9244 C   0  0  2  0  0  0  0  0  0  0  0  0
   -0.3735   -3.4587   -0.1308 C   0  0  0  0  0  0  0  0  0  0  0  0
   -1.0067   -2.9688    0.7970 O   0  0  0  0  0  0  0  0  0  0  0  0
    1.9458   -3.2230   -1.0432 C   0  0  0  0  0  0  0  0  0  0  0  0
    2.2521   -1.7403   -0.8458 C   0  0  0  0  0  0  0  0  0  0  0  0
    1.5408   -0.3981   -0.9273 C   0  0  0  0  0  0  0  0  0  0  0  0
    0.1027   -2.3787   -1.8936 H   0  0  0  0  0  0  0  0  0  0  0  0
    2.0691   -3.6740   -2.0351 H   0  0  0  0  0  0  0  0  0  0  0  0
    2.1474   -3.9863   -0.2855 H   0  0  0  0  0  0  0  0  0  0  0  0
    2.5528   -1.5477    0.1905 H   0  0  0  0  0  0  0  0  0  0  0  0
    3.0524   -1.3926   -1.5053 H   0  0  0  0  0  0  0  0  0  0  0  0
    2.1327    0.4188   -0.5056 H   0  0  0  0  0  0  0  0  0  0  0  0
    1.2759   -0.1509   -1.9611 H   0  0  0  0  0  0  0  0  0  0  0  0
   -0.4699   -4.7369   -0.4787 N   0  0  0  0  0  0  0  0  0  0  0  0
   -0.5730   -6.1745   -0.3713 C   0  0  2  0  0  0  0  0  0  0  0  0
    0.4937   -6.6508    0.6058 C   0  0  0  0  0  0  0  0  0  0  0  0
    1.5058   -6.0021    0.8627 O   0  0  0  0  0  0  0  0  0  0  0  0
   -0.4065   -6.8440   -1.7266 C   0  0  0  0  0  0  0  0  0  0  0  0
   -1.2829   -4.1751   -0.2445 H   0  0  0  0  0  0  0  0  0  0  0  0
   -1.5661   -6.3908    0.0373 H   0  0  0  0  0  0  0  0  0  0  0  0
    0.5827   -6.6386   -2.1518 H   0  0  0  0  0  0  0  0  0  0  0  0
   -0.5133   -7.9309   -1.6480 H   0  0  0  0  0  0  0  0  0  0  0  0
   -1.1560   -6.4782   -2.4367 H   0  0  0  0  0  0  0  0  0  0  0  0
    0.2037   -7.9051    1.1244 N   0  0  0  0  0  0  0  0  0  0  0  0
    1.0690   -8.5793    2.0640 C   0  0  0  0  0  0  0  0  0  0  0  0
   -0.6673   -8.3617    0.8704 H   0  0  0  0  0  0  0  0  0  0  0  0
    1.7686   -9.2291    1.5179 H   0  0  0  0  0  0  0  0  0  0  0  0
    1.6356   -7.8335    2.6408 H   0  0  0  0  0  0  0  0  0  0  0  0
    0.4616   -9.1887    2.7494 H   0  0  0  0  0  0  0  0  0  0  0  0
 18 19  1  0  0  0  0
 19 31  1  0  0  0  0
 19 20  2  0  0  0  0
  8  9  1  0  0  0  0
  9 17  1  0  0  0  0
  9 10  2  0  0  0  0
  1  3  1  0  0  0  0
  1  7  1  0  0  0  0
  1  2  2  0  0  0  0
 32 33  1  0  0  0  0
 33 41  1  0  0  0  0
 33 34  2  0  0  0  0
 21 22  1  0  0  0  0
 22 23  1  0  0  0  0
 18 21  1  0  0  0  0
 17 23  1  0  0  0  0
 17 18  1  0  0  0  0
  8 11  1  0  0  0  0
 32 35  1  0  0  0  0
 41 42  1  0  0  0  0
  7  8  1  0  0  0  0
 31 32  1  0  0  0  0
 22 27  1  0  0  0  0
 22 28  1  0  0  0  0
 21 25  1  0  0  0  0
 21 26  1  0  0  0  0
 23 29  1  0  0  0  0
 23 30  1  0  0  0  0
 18 24  1  0  0  0  0
  3  4  1  0  0  0  0
  3  5  1  0  0  0  0
  3  6  1  0  0  0  0
 11 14  1  0  0  0  0
 11 15  1  0  0  0  0
 11 16  1  0  0  0  0
 35 38  1  0  0  0  0
 35 39  1  0  0  0  0
 35 40  1  0  0  0  0
 42 44  1  0  0  0  0
 42 45  1  0  0  0  0
 42 46  1  0  0  0  0
  8 13  1  0  0  0  0
 32 37  1  0  0  0  0
 31 36  1  0  0  0  0
 41 43  1  0  0  0  0
  7 12  1  0  0  0  0
M  END
$$$$

  -OEChem-05262214473D

 46 46  0     1  0  0  0  0  0999 V2000
   -0.6012   -3.2995    3.8205 C   0  0  0  0  0  0  0  0  0  0  0  0
   -0.6574   -4.4683    3.4568 O   0  0  0  0  0  0  0  0  0  0  0  0
   -0.4935   -2.9859    5.2760 C   0  0  0  0  0  0  0  0  0  0  0  0
   -1.4789   -2.8689    5.7550 H   0  0  0  0  0  0  0  0  0  0  0  0
    0.0123   -3.7847    5.8419 H   0  0  0  0  0  0  0  0  0  0  0  0
    0.0585   -2.0642    5.5199 H   0  0  0  0  0  0  0  0  0  0  0  0
   -0.6261   -2.1849    2.9917 N   0  0  0  0  0  0  0  0  0  0  0  0
   -0.7237   -2.2601    1.5650 C   0  0  2  0  0  0  0  0  0  0  0  0
    0.1695   -1.1513    1.0687 C   0  0  0  0  0  0  0  0  0  0  0  0
    0.3193   -0.1267    1.7365 O   0  0  0  0  0  0  0  0  0  0  0  0
   -2.1397   -2.0663    1.0750 C   0  0  0  0  0  0  0  0  0  0  0  0
   -0.5717   -1.2606    3.4238 H   0  0  0  0  0  0  0  0  0  0  0  0
   -0.3076   -3.2111    1.2363 H   0  0  0  0  0  0  0  0  0  0  0  0
   -2.5584   -1.1089    1.4061 H   0  0  0  0  0  0  0  0  0  0  0  0
   -2.1682   -2.0790   -0.0197 H   0  0  0  0  0  0  0  0  0  0  0  0
   -2.7965   -2.8601    1.4459 H   0  0  0  0  0  0  0  0  0  0  0  0
    0.7724   -1.3745   -0.1593 N   0  0  0  0  0  0  0  0  0  0  0  0
    0.5614   -2.5964   -0.9244 C   0  0  2  0  0  0  0  0  0  0  0  0
   -0.3735   -3.4587   -0.1308 C   0  0  0  0  0  0  0  0  0  0  0  0
   -1.2032   -2.9344    0.6030 O   0  0  0  0  0  0  0  0  0  0  0  0
    1.9458   -3.2230   -1.0432 C   0  0  0  0  0  0  0  0  0  0  0  0
    2.2521   -1.7403   -0.8458 C   0  0  0  0  0  0  0  0  0  0  0  0
    1.5408   -0.3981   -0.9273 C   0  0  0  0  0  0  0  0  0  0  0  0
    0.1027   -2.3787   -1.8936 H   0  0  0  0  0  0  0  0  0  0  0  0
    2.0691   -3.6740   -2.0351 H   0  0  0  0  0  0  0  0  0  0  0  0
    2.1474   -3.9863   -0.2855 H   0  0  0  0  0  0  0  0  0  0  0  0
    2.5528   -1.5477    0.1905 H   0  0  0  0  0  0  0  0  0  0  0  0
    3.0524   -1.3926   -1.5053 H   0  0  0  0  0  0  0  0  0  0  0  0
    2.1327    0.4188   -0.5056 H   0  0  0  0  0  0  0  0  0  0  0  0
    1.2759   -0.1509   -1.9611 H   0  0  0  0  0  0  0  0  0  0  0  0
   -0.2527   -4.7747   -0.2639 N   0  0  0  0  0  0  0  0  0  0  0  0
   -0.1914   -6.1787    0.0737 C   0  0  2  0  0  0  0  0  0  0  0  0
    0.7560   -6.3374    1.2554 C   0  0  0  0  0  0  0  0  0  0  0  0
    1.6249   -5.5136    1.5339 O   0  0  0  0  0  0  0  0  0  0  0  0
    0.2722   -7.0127   -1.1105 C   0  0  0  0  0  0  0  0  0  0  0  0
   -1.1563   -4.3116   -0.2438 H   0  0  0  0  0  0  0  0  0  0  0  0
   -1.2023   -6.4765    0.3727 H   0  0  0  0  0  0  0  0  0  0  0  0
    1.2832   -6.7287   -1.4244 H   0  0  0  0  0  0  0  0  0  0  0  0
    0.2907   -8.0790   -0.8618 H   0  0  0  0  0  0  0  0  0  0  0  0
   -0.3937   -6.8743   -1.9692 H   0  0  0  0  0  0  0  0  0  0  0  0
    0.5456   -7.5280    1.9369 N   0  0  0  0  0  0  0  0  0  0  0  0
    1.3265   -7.9158    3.0883 C   0  0  0  0  0  0  0  0  0  0  0  0
   -0.2097   -8.1425    1.6476 H   0  0  0  0  0  0  0  0  0  0  0  0
    2.1801   -8.5289    2.7635 H   0  0  0  0  0  0  0  0  0  0  0  0
    1.6959   -7.0153    3.6009 H   0  0  0  0  0  0  0  0  0  0  0  0
    0.6981   -8.4985    3.7780 H   0  0  0  0  0  0  0  0  0  0  0  0
 18 19  1  0  0  0  0
 19 31  1  0  0  0  0
 19 20  2  0  0  0  0
  8  9  1  0  0  0  0
  9 17  1  0  0  0  0
  9 10  2  0  0  0  0
  1  3  1  0  0  0  0
  1  7  1  0  0  0  0
  1  2  2  0  0  0  0
 32 33  1  0  0  0  0
 33 41  1  0  0  0  0
 33 34  2  0  0  0  0
 21 22  1  0  0  0  0
 22 23  1  0  0  0  0
 18 21  1  0  0  0  0
 17 23  1  0  0  0  0
 17 18  1  0  0  0  0
  8 11  1  0  0  0  0
 32 35  1  0  0  0  0
 41 42  1  0  0  0  0
  7  8  1  0  0  0  0
 31 32  1  0  0  0  0
 22 27  1  0  0  0  0
 22 28  1  0  0  0  0
 21 25  1  0  0  0  0
 21 26  1  0  0  0  0
 23 29  1  0  0  0  0
 23 30  1  0  0  0  0
 18 24  1  0  0  0  0
  3  4  1  0  0  0  0
  3  5  1  0  0  0  0
  3  6  1  0  0  0  0
 11 14  1  0  0  0  0
 11 15  1  0  0  0  0
 11 16  1  0  0  0  0
 35 38  1  0  0  0  0
 35 39  1  0  0  0  0
 35 40  1  0  0  0  0
 42 44  1  0  0  0  0
 42 45  1  0  0  0  0
 42 46  1  0  0  0  0
  8 13  1  0  0  0  0
 32 37  1  0  0  0  0
 31 36  1  0  0  0  0
 41 43  1  0  0  0  0
  7 12  1  0  0  0  0
M  END
$$$$

  -OEChem-05262214473D

 46 46  0     1  0  0  0  0  0999 V2000
   -0.6012   -3.2995    3.8205 C   0  0  0  0  0  0  0  0  0  0  0  0
   -0.6574   -4.4683    3.4568 O   0  0  0  0  0  0  0  0  0  0  0  0
   -0.4935   -2.9859    5.2760 C   0  0  0  0  0  0  0  0  0  0  0  0
   -1.4789   -2.8689    5.7550 H   0  0  0  0  0  0  0  0  0  0  0  0
    0.0123   -3.7847    5.8419 H   0  0  0  0  0  0  0  0  0  0  0  0
    0.0585   -2.0642    5.5199 H   0  0  0  0  0  0  0  0  0  0  0  0
   -0.6261   -2.1849    2.9917 N   0  0  0  0  0  0  0  0  0  0  0  0
   -0.7237   -2.2601    1.5650 C   0  0  2  0  0  0  0  0  0  0  0  0
    0.1695   -1.1513    1.0687 C   0  0  0  0  0  0  0  0  0  0  0  0
    0.3193   -0.1267    1.7365 O   0  0  0  0  0  0  0  0  0  0  0  0
   -2.1397   -2.0663    1.0750 C   0  0  0  0  0  0  0  0  0  0  0  0
   -0.5717   -1.2606    3.4238 H   0  0  0  0  0  0  0  0  0  0  0  0
   -0.3076   -3.2111    1.2363 H   0  0  0  0  0  0  0  0  0  0  0  0
   -2.5584   -1.1089    1.4061 H   0  0  0  0  0  0  0  0  0  0  0  0
   -2.1682   -2.0790   -0.0197 H   0  0  0  0  0  0  0  0  0  0  0  0
   -2.7965   -2.8601    1.4459 H   0  0  0  0  0  0  0  0  0  0  0  0
    0.7724   -1.3745   -0.1593 N   0  0  0  0  0  0  0  0  0  0  0  0
    0.5614   -2.5964   -0.9244 C   0  0  2  0  0  0  0  0  0  0  0  0
   -0.3735   -3.4587   -0.1308 C   0  0  0  0  0  0  0  0  0  0  0  0
   -1.3688   -2.9593    0.3807 O   0  0  0  0  0  0  0  0  0  0  0  0
    1.9458   -3.2230   -1.0432 C   0  0  0  0  0  0  0  0  0  0  0  0
    2.2521   -1.7403   -0.8458 C   0  0  0  0  0  0  0  0  0  0  0  0
    1.5408   -0.3981   -0.9273 C   0  0  0  0  0  0  0  0  0  0  0  0
    0.1027   -2.3787   -1.8936 H   0  0  0  0  0  0  0  0  0  0  0  0
    2.0691   -3.6740   -2.0351 H   0  0  0  0  0  0  0  0  0  0  0  0
    2.1474   -3.9863   -0.2855 H   0  0  0  0  0  0  0  0  0  0  0  0
    2.5528   -1.5477    0.1905 H   0  0  0  0  0  0  0  0  0  0  0  0
    3.0524   -1.3926   -1.5053 H   0  0  0  0  0  0  0  0  0  0  0  0
    2.1327    0.4188   -0.5056 H   0  0  0  0  0  0  0  0  0  0  0  0
    1.2759   -0.1509   -1.9611 H   0  0  0  0  0  0  0  0  0  0  0  0
   -0.0697   -4.7467   -0.0179 N   0  0  0  0  0  0  0  0  0  0  0  0
    0.1115   -6.0586    0.5610 C   0  0  2  0  0  0  0  0  0  0  0  0
    0.8698   -5.8938    1.8714 C   0  0  0  0  0  0  0  0  0  0  0  0
    1.5732   -4.9171    2.1211 O   0  0  0  0  0  0  0  0  0  0  0  0
    0.8591   -6.9833   -0.3871 C   0  0  0  0  0  0  0  0  0  0  0  0
   -1.0155   -4.4261   -0.2023 H   0  0  0  0  0  0  0  0  0  0  0  0
   -0.8891   -6.4553    0.7647 H   0  0  0  0  0  0  0  0  0  0  0  0
    1.8639   -6.6023   -0.6030 H   0  0  0  0  0  0  0  0  0  0  0  0
    0.9704   -7.9849    0.0412 H   0  0  0  0  0  0  0  0  0  0  0  0
    0.3273   -7.0771   -1.3401 H   0  0  0  0  0  0  0  0  0  0  0  0
    0.7032   -6.9858    2.7117 N   0  0  0  0  0  0  0  0  0  0  0  0
    1.3318   -7.0743    4.0090 C   0  0  0  0  0  0  0  0  0  0  0  0
    0.0866   -7.7427    2.4311 H   0  0  0  0  0  0  0  0  0  0  0  0
    2.2961   -7.5951    3.9149 H   0  0  0  0  0  0  0  0  0  0  0  0
    1.4991   -6.0618    4.4051 H   0  0  0  0  0  0  0  0  0  0  0  0
    0.6788   -7.6333    4.6953 H   0  0  0  0  0  0  0  0  0  0  0  0
 18 19  1  0  0  0  0
 19 31  1  0  0  0  0
 19 20  2  0  0  0  0
  8  9  1  0  0  0  0
  9 17  1  0  0  0  0
  9 10  2  0  0  0  0
  1  3  1  0  0  0  0
  1  7  1  0  0  0  0
  1  2  2  0  0  0  0
 32 33  1  0  0  0  0
 33 41  1  0  0  0  0
 33 34  2  0  0  0  0
 21 22  1  0  0  0  0
 22 23  1  0  0  0  0
 18 21  1  0  0  0  0
 17 23  1  0  0  0  0
 17 18  1  0  0  0  0
  8 11  1  0  0  0  0
 32 35  1  0  0  0  0
 41 42  1  0  0  0  0
  7  8  1  0  0  0  0
 31 32  1  0  0  0  0
 22 27  1  0  0  0  0
 22 28  1  0  0  0  0
 21 25  1  0  0  0  0
 21 26  1  0  0  0  0
 23 29  1  0  0  0  0
 23 30  1  0  0  0  0
 18 24  1  0  0  0  0
  3  4  1  0  0  0  0
  3  5  1  0  0  0  0
  3  6  1  0  0  0  0
 11 14  1  0  0  0  0
 11 15  1  0  0  0  0
 11 16  1  0  0  0  0
 35 38  1  0  0  0  0
 35 39  1  0  0  0  0
 35 40  1  0  0  0  0
 42 44  1  0  0  0  0
 42 45  1  0  0  0  0
 42 46  1  0  0  0  0
  8 13  1  0  0  0  0
 32 37  1  0  0  0  0
 31 36  1  0  0  0  0
 41 43  1  0  0  0  0
  7 12  1  0  0  0  0
M  END
$$$$

  -OEChem-05262214473D

 46 46  0     1  0  0  0  0  0999 V2000
   -0.6012   -3.2995    3.8205 C   0  0  0  0  0  0  0  0  0  0  0  0
   -0.6574   -4.4683    3.4568 O   0  0  0  0  0  0  0  0  0  0  0  0
   -0.4935   -2.9859    5.2760 C   0  0  0  0  0  0  0  0  0  0  0  0
   -1.4789   -2.8689    5.7550 H   0  0  0  0  0  0  0  0  0  0  0  0
    0.0123   -3.7847    5.8419 H   0  0  0  0  0  0  0  0  0  0  0  0
    0.0585   -2.0642    5.5199 H   0  0  0  0  0  0  0  0  0  0  0  0
   -0.6261   -2.1849    2.9917 N   0  0  0  0  0  0  0  0  0  0  0  0
   -0.7237   -2.2601    1.5650 C   0  0  2  0  0  0  0  0  0  0  0  0
    0.1695   -1.1513    1.0687 C   0  0  0  0  0  0  0  0  0  0  0  0
    0.3193   -0.1267    1.7365 O   0  0  0  0  0  0  0  0  0  0  0  0
   -2.1397   -2.0663    1.0750 C   0  0  0  0  0  0  0  0  0  0  0  0
   -0.5717   -1.2606    3.4238 H   0  0  0  0  0  0  0  0  0  0  0  0
   -0.3076   -3.2111    1.2363 H   0  0  0  0  0  0  0  0  0  0  0  0
   -2.5584   -1.1089    1.4061 H   0  0  0  0  0  0  0  0  0  0  0  0
   -2.1682   -2.0790   -0.0197 H   0  0  0  0  0  0  0  0  0  0  0  0
   -2.7965   -2.8601    1.4459 H   0  0  0  0  0  0  0  0  0  0  0  0
    0.7724   -1.3745   -0.1593 N   0  0  0  0  0  0  0  0  0  0  0  0
    0.5614   -2.5964   -0.9244 C   0  0  2  0  0  0  0  0  0  0  0  0
   -0.3735   -3.4587   -0.1308 C   0  0  0  0  0  0  0  0  0  0  0  0
   -1.4923   -3.0420    0.1454 O   0  0  0  0  0  0  0  0  0  0  0  0
    1.9458   -3.2230   -1.0432 C   0  0  0  0  0  0  0  0  0  0  0  0
    2.2521   -1.7403   -0.8458 C   0  0  0  0  0  0  0  0  0  0  0  0
    1.5408   -0.3981   -0.9273 C   0  0  0  0  0  0  0  0  0  0  0  0
    0.1027   -2.3787   -1.8936 H   0  0  0  0  0  0  0  0  0  0  0  0
    2.0691   -3.6740   -2.0351 H   0  0  0  0  0  0  0  0  0  0  0  0
    2.1474   -3.9863   -0.2855 H   0  0  0  0  0  0  0  0  0  0  0  0
    2.5528   -1.5477    0.1905 H   0  0  0  0  0  0  0  0  0  0  0  0
    3.0524   -1.3926   -1.5053 H   0  0  0  0  0  0  0  0  0  0  0  0
    2.1327    0.4188   -0.5056 H   0  0  0  0  0  0  0  0  0  0  0  0
    1.2759   -0.1509   -1.9611 H   0  0  0  0  0  0  0  0  0  0  0  0
    0.0666   -4.6550    0.2424 N   0  0  0  0  0  0  0  0  0  0  0  0
    0.3150   -5.8225    1.0574 C   0  0  2  0  0  0  0  0  0  0  0  0
    0.8272   -5.3504    2.4117 C   0  0  0  0  0  0  0  0  0  0  0  0
    1.3540   -4.2532    2.5843 O   0  0  0  0  0  0  0  0  0  0  0  0
    1.3143   -6.7577    0.3943 C   0  0  0  0  0  0  0  0  0  0  0  0
   -0.8700   -4.5106   -0.1227 H   0  0  0  0  0  0  0  0  0  0  0  0
   -0.6478   -6.3287    1.1866 H   0  0  0  0  0  0  0  0  0  0  0  0
    2.2852   -6.2680    0.2565 H   0  0  0  0  0  0  0  0  0  0  0  0
    1.4797   -7.6552    0.9995 H   0  0  0  0  0  0  0  0  0  0  0  0
    0.9579   -7.0727   -0.5924 H   0  0  0  0  0  0  0  0  0  0  0  0
    0.6657   -6.3154    3.3960 N   0  0  0  0  0  0  0  0  0  0  0  0
    1.0846   -6.1121    4.7632 C   0  0  0  0  0  0  0  0  0  0  0  0
    0.2014   -7.1894    3.1675 H   0  0  0  0  0  0  0  0  0  0  0  0
    2.1089   -6.4913    4.8937 H   0  0  0  0  0  0  0  0  0  0  0  0
    1.0586   -5.0380    4.9987 H   0  0  0  0  0  0  0  0  0  0  0  0
    0.4050   -6.6522    5.4389 H   0  0  0  0  0  0  0  0  0  0  0  0
 18 19  1  0  0  0  0
 19 31  1  0  0  0  0
 19 20  2  0  0  0  0
  8  9  1  0  0  0  0
  9 17  1  0  0  0  0
  9 10  2  0  0  0  0
  1  3  1  0  0  0  0
  1  7  1  0  0  0  0
  1  2  2  0  0  0  0
 32 33  1  0  0  0  0
 33 41  1  0  0  0  0
 33 34  2  0  0  0  0
 21 22  1  0  0  0  0
 22 23  1  0  0  0  0
 18 21  1  0  0  0  0
 17 23  1  0  0  0  0
 17 18  1  0  0  0  0
  8 11  1  0  0  0  0
 32 35  1  0  0  0  0
 41 42  1  0  0  0  0
  7  8  1  0  0  0  0
 31 32  1  0  0  0  0
 22 27  1  0  0  0  0
 22 28  1  0  0  0  0
 21 25  1  0  0  0  0
 21 26  1  0  0  0  0
 23 29  1  0  0  0  0
 23 30  1  0  0  0  0
 18 24  1  0  0  0  0
  3  4  1  0  0  0  0
  3  5  1  0  0  0  0
  3  6  1  0  0  0  0
 11 14  1  0  0  0  0
 11 15  1  0  0  0  0
 11 16  1  0  0  0  0
 35 38  1  0  0  0  0
 35 39  1  0  0  0  0
 35 40  1  0  0  0  0
 42 44  1  0  0  0  0
 42 45  1  0  0  0  0
 42 46  1  0  0  0  0
  8 13  1  0  0  0  0
 32 37  1  0  0  0  0
 31 36  1  0  0  0  0
 41 43  1  0  0  0  0
  7 12  1  0  0  0  0
M  END
$$$$

  -OEChem-05262214473D

 46 46  0     1  0  0  0  0  0999 V2000
   -0.6012   -3.2995    3.8205 C   0  0  0  0  0  0  0  0  0  0  0  0
   -0.6574   -4.4683    3.4568 O   0  0  0  0  0  0  0  0  0  0  0  0
   -0.4935   -2.9859    5.2760 C   0  0  0  0  0  0  0  0  0  0  0  0
   -1.4789   -2.8689    5.7550 H   0  0  0  0  0  0  0  0  0  0  0  0
    0.0123   -3.7847    5.8419 H   0  0  0  0  0  0  0  0  0  0  0  0
    0.0585   -2.0642    5.5199 H   0  0  0  0  0  0  0  0  0  0  0  0
   -0.6261   -2.1849    2.9917 N   0  0  0  0  0  0  0  0  0  0  0  0
   -0.7237   -2.2601    1.5650 C   0  0  2  0  0  0  0  0  0  0  0  0
    0.1695   -1.1513    1.0687 C   0  0  0  0  0  0  0  0  0  0  0  0
    0.3193   -0.1267    1.7365 O   0  0  0  0  0  0  0  0  0  0  0  0
   -2.1397   -2.0663    1.0750 C   0  0  0  0  0  0  0  0  0  0  0  0
   -0.5717   -1.2606    3.4238 H   0  0  0  0  0  0  0  0  0  0  0  0
   -0.3076   -3.2111    1.2363 H   0  0  0  0  0  0  0  0  0  0  0  0
   -2.5584   -1.1089    1.4061 H   0  0  0  0  0  0  0  0  0  0  0  0
   -2.1682   -2.0790   -0.0197 H   0  0  0  0  0  0  0  0  0  0  0  0
   -2.7965   -2.8601    1.4459 H   0  0  0  0  0  0  0  0  0  0  0  0
    0.7724   -1.3745   -0.1593 N   0  0  0  0  0  0  0  0  0  0  0  0
    0.5614   -2.5964   -0.9244 C   0  0  2  0  0  0  0  0  0  0  0  0
   -0.3735   -3.4587   -0.1308 C   0  0  0  0  0  0  0  0  0  0  0  0
   -1.5653   -3.1767   -0.0869 O   0  0  0  0  0  0  0  0  0  0  0  0
    1.9458   -3.2230   -1.0432 C   0  0  0  0  0  0  0  0  0  0  0  0
    2.2521   -1.7403   -0.8458 C   0  0  0  0  0  0  0  0  0  0  0  0
    1.5408   -0.3981   -0.9273 C   0  0  0  0  0  0  0  0  0  0  0  0
    0.1027   -2.3787   -1.8936 H   0  0  0  0  0  0  0  0  0  0  0  0
    2.0691   -3.6740   -2.0351 H   0  0  0  0  0  0  0  0  0  0  0  0
    2.1474   -3.9863   -0.2855 H   0  0  0  0  0  0  0  0  0  0  0  0
    2.5528   -1.5477    0.1905 H   0  0  0  0  0  0  0  0  0  0  0  0
    3.0524   -1.3926   -1.5053 H   0  0  0  0  0  0  0  0  0  0  0  0
    2.1327    0.4188   -0.5056 H   0  0  0  0  0  0  0  0  0  0  0  0
    1.2759   -0.1509   -1.9611 H   0  0  0  0  0  0  0  0  0  0  0  0
    0.1470   -4.5057    0.4993 N   0  0  0  0  0  0  0  0  0  0  0  0
    0.4054   -5.4864    1.5290 C   0  0  2  0  0  0  0  0  0  0  0  0
    0.6311   -4.7441    2.8395 C   0  0  0  0  0  0  0  0  0  0  0  0
    0.9825   -3.5673    2.8920 O   0  0  0  0  0  0  0  0  0  0  0  0
    1.6067   -6.3513    1.1804 C   0  0  0  0  0  0  0  0  0  0  0  0
   -0.7297   -4.5595   -0.0105 H   0  0  0  0  0  0  0  0  0  0  0  0
   -0.4949   -6.1052    1.6095 H   0  0  0  0  0  0  0  0  0  0  0  0
    2.5184   -5.7487    1.0955 H   0  0  0  0  0  0  0  0  0  0  0  0
    1.7838   -7.1122    1.9477 H   0  0  0  0  0  0  0  0  0  0  0  0
    1.4551   -6.8613    0.2230 H   0  0  0  0  0  0  0  0  0  0  0  0
    0.4358   -5.5625    3.9433 N   0  0  0  0  0  0  0  0  0  0  0  0
    0.6017   -5.0949    5.2997 C   0  0  0  0  0  0  0  0  0  0  0  0
    0.1268   -6.5204    3.8066 H   0  0  0  0  0  0  0  0  0  0  0  0
    1.6311   -5.2929    5.6330 H   0  0  0  0  0  0  0  0  0  0  0  0
    0.4045   -4.0135    5.3413 H   0  0  0  0  0  0  0  0  0  0  0  0
   -0.1045   -5.6220    5.9580 H   0  0  0  0  0  0  0  0  0  0  0  0
 18 19  1  0  0  0  0
 19 31  1  0  0  0  0
 19 20  2  0  0  0  0
  8  9  1  0  0  0  0
  9 17  1  0  0  0  0
  9 10  2  0  0  0  0
  1  3  1  0  0  0  0
  1  7  1  0  0  0  0
  1  2  2  0  0  0  0
 32 33  1  0  0  0  0
 33 41  1  0  0  0  0
 33 34  2  0  0  0  0
 21 22  1  0  0  0  0
 22 23  1  0  0  0  0
 18 21  1  0  0  0  0
 17 23  1  0  0  0  0
 17 18  1  0  0  0  0
  8 11  1  0  0  0  0
 32 35  1  0  0  0  0
 41 42  1  0  0  0  0
  7  8  1  0  0  0  0
 31 32  1  0  0  0  0
 22 27  1  0  0  0  0
 22 28  1  0  0  0  0
 21 25  1  0  0  0  0
 21 26  1  0  0  0  0
 23 29  1  0  0  0  0
 23 30  1  0  0  0  0
 18 24  1  0  0  0  0
  3  4  1  0  0  0  0
  3  5  1  0  0  0  0
  3  6  1  0  0  0  0
 11 14  1  0  0  0  0
 11 15  1  0  0  0  0
 11 16  1  0  0  0  0
 35 38  1  0  0  0  0
 35 39  1  0  0  0  0
 35 40  1  0  0  0  0
 42 44  1  0  0  0  0
 42 45  1  0  0  0  0
 42 46  1  0  0  0  0
  8 13  1  0  0  0  0
 32 37  1  0  0  0  0
 31 36  1  0  0  0  0
 41 43  1  0  0  0  0
  7 12  1  0  0  0  0
M  END
$$$$

  -OEChem-05262214473D

 46 46  0     1  0  0  0  0  0999 V2000
   -0.6012   -3.2995    3.8205 C   0  0  0  0  0  0  0  0  0  0  0  0
   -0.6574   -4.4683    3.4568 O   0  0  0  0  0  0  0  0  0  0  0  0
   -0.4935   -2.9859    5.2760 C   0  0  0  0  0  0  0  0  0  0  0  0
   -1.4789   -2.8689    5.7550 H   0  0  0  0  0  0  0  0  0  0  0  0
    0.0123   -3.7847    5.8419 H   0  0  0  0  0  0  0  0  0  0  0  0
    0.0585   -2.0642    5.5199 H   0  0  0  0  0  0  0  0  0  0  0  0
   -0.6261   -2.1849    2.9917 N   0  0  0  0  0  0  0  0  0  0  0  0
   -0.7237   -2.2601    1.5650 C   0  0  2  0  0  0  0  0  0  0  0  0
    0.1695   -1.1513    1.0687 C   0  0  0  0  0  0  0  0  0  0  0  0
    0.3193   -0.1267    1.7365 O   0  0  0  0  0  0  0  0  0  0  0  0
   -2.1397   -2.0663    1.0750 C   0  0  0  0  0  0  0  0  0  0  0  0
   -0.5717   -1.2606    3.4238 H   0  0  0  0  0  0  0  0  0  0  0  0
   -0.3076   -3.2111    1.2363 H   0  0  0  0  0  0  0  0  0  0  0  0
   -2.5584   -1.1089    1.4061 H   0  0  0  0  0  0  0  0  0  0  0  0
   -2.1682   -2.0790   -0.0197 H   0  0  0  0  0  0  0  0  0  0  0  0
   -2.7965   -2.8601    1.4459 H   0  0  0  0  0  0  0  0  0  0  0  0
    0.7724   -1.3745   -0.1593 N   0  0  0  0  0  0  0  0  0  0  0  0
    0.5614   -2.5964   -0.9244 C   0  0  2  0  0  0  0  0  0  0  0  0
   -0.3735   -3.4587   -0.1308 C   0  0  0  0  0  0  0  0  0  0  0  0
   -1.5827   -3.3544   -0.3005 O   0  0  0  0  0  0  0  0  0  0  0  0
    1.9458   -3.2230   -1.0432 C   0  0  0  0  0  0  0  0  0  0  0  0
    2.2521   -1.7403   -0.8458 C   0  0  0  0  0  0  0  0  0  0  0  0
    1.5408   -0.3981   -0.9273 C   0  0  0  0  0  0  0  0  0  0  0  0
    0.1027   -2.3787   -1.8936 H   0  0  0  0  0  0  0  0  0  0  0  0
    2.0691   -3.6740   -2.0351 H   0  0  0  0  0  0  0  0  0  0  0  0
    2.1474   -3.9863   -0.2855 H   0  0  0  0  0  0  0  0  0  0  0  0
    2.5528   -1.5477    0.1905 H   0  0  0  0  0  0  0  0  0  0  0  0
    3.0524   -1.3926   -1.5053 H   0  0  0  0  0  0  0  0  0  0  0  0
    2.1327    0.4188   -0.5056 H   0  0  0  0  0  0  0  0  0  0  0  0
    1.2759   -0.1509   -1.9611 H   0  0  0  0  0  0  0  0  0  0  0  0
    0.1659   -4.3090    0.7353 N   0  0  0  0  0  0  0  0  0  0  0  0
    0.3765   -5.0733    1.9438 C   0  0  2  0  0  0  0  0  0  0  0  0
    0.2949   -4.1162    3.1258 C   0  0  0  0  0  0  0  0  0  0  0  0
    0.4838   -2.9059    3.0231 O   0  0  0  0  0  0  0  0  0  0  0  0
    1.7165   -5.7918    1.9177 C   0  0  0  0  0  0  0  0  0  0  0  0
   -0.6042   -4.5694    0.1266 H   0  0  0  0  0  0  0  0  0  0  0  0
   -0.4408   -5.8002    2.0047 H   0  0  0  0  0  0  0  0  0  0  0  0
    2.5475   -5.0797    1.8568 H   0  0  0  0  0  0  0  0  0  0  0  0
    1.8620   -6.3931    2.8212 H   0  0  0  0  0  0  0  0  0  0  0  0
    1.7849   -6.4574    1.0505 H   0  0  0  0  0  0  0  0  0  0  0  0
    0.0291   -4.7784    4.3161 N   0  0  0  0  0  0  0  0  0  0  0  0
   -0.0840   -4.0919    5.5818 C   0  0  0  0  0  0  0  0  0  0  0  0
   -0.1320   -5.7812    4.3049 H   0  0  0  0  0  0  0  0  0  0  0  0
    0.8953   -4.0814    6.0826 H   0  0  0  0  0  0  0  0  0  0  0  0
   -0.4187   -3.0583    5.4095 H   0  0  0  0  0  0  0  0  0  0  0  0
   -0.8152   -4.6129    6.2173 H   0  0  0  0  0  0  0  0  0  0  0  0
 18 19  1  0  0  0  0
 19 31  1  0  0  0  0
 19 20  2  0  0  0  0
  8  9  1  0  0  0  0
  9 17  1  0  0  0  0
  9 10  2  0  0  0  0
  1  3  1  0  0  0  0
  1  7  1  0  0  0  0
  1  2  2  0  0  0  0
 32 33  1  0  0  0  0
 33 41  1  0  0  0  0
 33 34  2  0  0  0  0
 21 22  1  0  0  0  0
 22 23  1  0  0  0  0
 18 21  1  0  0  0  0
 17 23  1  0  0  0  0
 17 18  1  0  0  0  0
  8 11  1  0  0  0  0
 32 35  1  0  0  0  0
 41 42  1  0  0  0  0
  7  8  1  0  0  0  0
 31 32  1  0  0  0  0
 22 27  1  0  0  0  0
 22 28  1  0  0  0  0
 21 25  1  0  0  0  0
 21 26  1  0  0  0  0
 23 29  1  0  0  0  0
 23 30  1  0  0  0  0
 18 24  1  0  0  0  0
  3  4  1  0  0  0  0
  3  5  1  0  0  0  0
  3  6  1  0  0  0  0
 11 14  1  0  0  0  0
 11 15  1  0  0  0  0
 11 16  1  0  0  0  0
 35 38  1  0  0  0  0
 35 39  1  0  0  0  0
 35 40  1  0  0  0  0
 42 44  1  0  0  0  0
 42 45  1  0  0  0  0
 42 46  1  0  0  0  0
  8 13  1  0  0  0  0
 32 37  1  0  0  0  0
 31 36  1  0  0  0  0
 41 43  1  0  0  0  0
  7 12  1  0  0  0  0
M  END
$$$$

  -OEChem-05262214473D

 46 46  0     1  0  0  0  0  0999 V2000
   -0.6012   -3.2995    3.8205 C   0  0  0  0  0  0  0  0  0  0  0  0
   -0.6574   -4.4683    3.4568 O   0  0  0  0  0  0  0  0  0  0  0  0
   -0.4935   -2.9859    5.2760 C   0  0  0  0  0  0  0  0  0  0  0  0
   -1.4789   -2.8689    5.7550 H   0  0  0  0  0  0  0  0  0  0  0  0
    0.0123   -3.7847    5.8419 H   0  0  0  0  0  0  0  0  0  0  0  0
    0.0585   -2.0642    5.5199 H   0  0  0  0  0  0  0  0  0  0  0  0
   -0.6261   -2.1849    2.9917 N   0  0  0  0  0  0  0  0  0  0  0  0
   -0.7237   -2.2601    1.5650 C   0  0  2  0  0  0  0  0  0  0  0  0
    0.1695   -1.1513    1.0687 C   0  0  0  0  0  0  0  0  0  0  0  0
    0.3193   -0.1267    1.7365 O   0  0  0  0  0  0  0  0  0  0  0  0
   -2.1397   -2.0663    1.0750 C   0  0  0  0  0  0  0  0  0  0  0  0
   -0.5717   -1.2606    3.4238 H   0  0  0  0  0  0  0  0  0  0  0  0
   -0.3076   -3.2111    1.2363 H   0  0  0  0  0  0  0  0  0  0  0  0
   -2.5584   -1.1089    1.4061 H   0  0  0  0  0  0  0  0  0  0  0  0
   -2.1682   -2.0790   -0.0197 H   0  0  0  0  0  0  0  0  0  0  0  0
   -2.7965   -2.8601    1.4459 H   0  0  0  0  0  0  0  0  0  0  0  0
    0.7724   -1.3745   -0.1593 N   0  0  0  0  0  0  0  0  0  0  0  0
    0.5614   -2.5964   -0.9244 C   0  0  2  0  0  0  0  0  0  0  0  0
   -0.3735   -3.4587   -0.1308 C   0  0  0  0  0  0  0  0  0  0  0  0
   -1.5433   -3.5628   -0.4806 O   0  0  0  0  0  0  0  0  0  0  0  0
    1.9458   -3.2230   -1.0432 C   0  0  0  0  0  0  0  0  0  0  0  0
    2.2521   -1.7403   -0.8458 C   0  0  0  0  0  0  0  0  0  0  0  0
    1.5408   -0.3981   -0.9273 C   0  0  0  0  0  0  0  0  0  0  0  0
    0.1027   -2.3787   -1.8936 H   0  0  0  0  0  0  0  0  0  0  0  0
    2.0691   -3.6740   -2.0351 H   0  0  0  0  0  0  0  0  0  0  0  0
    2.1474   -3.9863   -0.2855 H   0  0  0  0  0  0  0  0  0  0  0  0
    2.5528   -1.5477    0.1905 H   0  0  0  0  0  0  0  0  0  0  0  0
    3.0524   -1.3926   -1.5053 H   0  0  0  0  0  0  0  0  0  0  0  0
    2.1327    0.4188   -0.5056 H   0  0  0  0  0  0  0  0  0  0  0  0
    1.2759   -0.1509   -1.9611 H   0  0  0  0  0  0  0  0  0  0  0  0
    0.1221   -4.0783    0.9344 N   0  0  0  0  0  0  0  0  0  0  0  0
    0.2301   -4.6112    2.2735 C   0  0  2  0  0  0  0  0  0  0  0  0
   -0.1584   -3.5096    3.2508 C   0  0  0  0  0  0  0  0  0  0  0  0
   -0.1081   -2.3142    2.9688 O   0  0  0  0  0  0  0  0  0  0  0  0
    1.6361   -5.1174    2.5559 C   0  0  0  0  0  0  0  0  0  0  0  0
   -0.5020   -4.5396    0.2793 H   0  0  0  0  0  0  0  0  0  0  0  0
   -0.4892   -5.4343    2.3453 H   0  0  0  0  0  0  0  0  0  0  0  0
    2.3707   -4.3066    2.4885 H   0  0  0  0  0  0  0  0  0  0  0  0
    1.7089   -5.5467    3.5606 H   0  0  0  0  0  0  0  0  0  0  0  0
    1.9251   -5.8885    1.8337 H   0  0  0  0  0  0  0  0  0  0  0  0
   -0.5266   -4.0166    4.4892 N   0  0  0  0  0  0  0  0  0  0  0  0
   -0.9257   -3.1715    5.5903 C   0  0  0  0  0  0  0  0  0  0  0  0
   -0.5575   -5.0223    4.6283 H   0  0  0  0  0  0  0  0  0  0  0  0
   -0.0483   -2.9394    6.2118 H   0  0  0  0  0  0  0  0  0  0  0  0
   -1.3548   -2.2374    5.1986 H   0  0  0  0  0  0  0  0  0  0  0  0
   -1.6784   -3.6938    6.1991 H   0  0  0  0  0  0  0  0  0  0  0  0
 18 19  1  0  0  0  0
 19 31  1  0  0  0  0
 19 20  2  0  0  0  0
  8  9  1  0  0  0  0
  9 17  1  0  0  0  0
  9 10  2  0  0  0  0
  1  3  1  0  0  0  0
  1  7  1  0  0  0  0
  1  2  2  0  0  0  0
 32 33  1  0  0  0  0
 33 41  1  0  0  0  0
 33 34  2  0  0  0  0
 21 22  1  0  0  0  0
 22 23  1  0  0  0  0
 18 21  1  0  0  0  0
 17 23  1  0  0  0  0
 17 18  1  0  0  0  0
  8 11  1  0  0  0  0
 32 35  1  0  0  0  0
 41 42  1  0  0  0  0
  7  8  1  0  0  0  0
 31 32  1  0  0  0  0
 22 27  1  0  0  0  0
 22 28  1  0  0  0  0
 21 25  1  0  0  0  0
 21 26  1  0  0  0  0
 23 29  1  0  0  0  0
 23 30  1  0  0  0  0
 18 24  1  0  0  0  0
  3  4  1  0  0  0  0
  3  5  1  0  0  0  0
  3  6  1  0  0  0  0
 11 14  1  0  0  0  0
 11 15  1  0  0  0  0
 11 16  1  0  0  0  0
 35 38  1  0  0  0  0
 35 39  1  0  0  0  0
 35 40  1  0  0  0  0
 42 44  1  0  0  0  0
 42 45  1  0  0  0  0
 42 46  1  0  0  0  0
  8 13  1  0  0  0  0
 32 37  1  0  0  0  0
 31 36  1  0  0  0  0
 41 43  1  0  0  0  0
  7 12  1  0  0  0  0
M  END
$$$$

  -OEChem-05262214473D

 46 46  0     1  0  0  0  0  0999 V2000
   -0.6012   -3.2995    3.8205 C   0  0  0  0  0  0  0  0  0  0  0  0
   -0.6574   -4.4683    3.4568 O   0  0  0  0  0  0  0  0  0  0  0  0
   -0.4935   -2.9859    5.2760 C   0  0  0  0  0  0  0  0  0  0  0  0
   -1.4789   -2.8689    5.7550 H   0  0  0  0  0  0  0  0  0  0  0  0
    0.0123   -3.7847    5.8419 H   0  0  0  0  0  0  0  0  0  0  0  0
    0.0585   -2.0642    5.5199 H   0  0  0  0  0  0  0  0  0  0  0  0
   -0.6261   -2.1849    2.9917 N   0  0  0  0  0  0  0  0  0  0  0  0
   -0.7237   -2.2601    1.5650 C   0  0  2  0  0  0  0  0  0  0  0  0
    0.1695   -1.1513    1.0687 C   0  0  0  0  0  0  0  0  0  0  0  0
    0.3193   -0.1267    1.7365 O   0  0  0  0  0  0  0  0  0  0  0  0
   -2.1397   -2.0663    1.0750 C   0  0  0  0  0  0  0  0  0  0  0  0
   -0.5717   -1.2606    3.4238 H   0  0  0  0  0  0  0  0  0  0  0  0
   -0.3076   -3.2111    1.2363 H   0  0  0  0  0  0  0  0  0  0  0  0
   -2.5584   -1.1089    1.4061 H   0  0  0  0  0  0  0  0  0  0  0  0
   -2.1682   -2.0790   -0.0197 H   0  0  0  0  0  0  0  0  0  0  0  0
   -2.7965   -2.8601    1.4459 H   0  0  0  0  0  0  0  0  0  0  0  0
    0.7724   -1.3745   -0.1593 N   0  0  0  0  0  0  0  0  0  0  0  0
    0.5614   -2.5964   -0.9244 C   0  0  2  0  0  0  0  0  0  0  0  0
   -0.3735   -3.4587   -0.1308 C   0  0  0  0  0  0  0  0  0  0  0  0
   -1.4500   -3.7879   -0.6152 O   0  0  0  0  0  0  0  0  0  0  0  0
    1.9458   -3.2230   -1.0432 C   0  0  0  0  0  0  0  0  0  0  0  0
    2.2521   -1.7403   -0.8458 C   0  0  0  0  0  0  0  0  0  0  0  0
    1.5408   -0.3981   -0.9273 C   0  0  0  0  0  0  0  0  0  0  0  0
    0.1027   -2.3787   -1.8936 H   0  0  0  0  0  0  0  0  0  0  0  0
    2.0691   -3.6740   -2.0351 H   0  0  0  0  0  0  0  0  0  0  0  0
    2.1474   -3.9863   -0.2855 H   0  0  0  0  0  0  0  0  0  0  0  0
    2.5528   -1.5477    0.1905 H   0  0  0  0  0  0  0  0  0  0  0  0
    3.0524   -1.3926   -1.5053 H   0  0  0  0  0  0  0  0  0  0  0  0
    2.1327    0.4188   -0.5056 H   0  0  0  0  0  0  0  0  0  0  0  0
    1.2759   -0.1509   -1.9611 H   0  0  0  0  0  0  0  0  0  0  0  0
    0.0185   -3.8293    1.0829 N   0  0  0  0  0  0  0  0  0  0  0  0
   -0.0236   -4.1317    2.4956 C   0  0  2  0  0  0  0  0  0  0  0  0
   -0.6980   -2.9656    3.2062 C   0  0  0  0  0  0  0  0  0  0  0  0
   -0.7527   -1.8326    2.7327 O   0  0  0  0  0  0  0  0  0  0  0  0
    1.3710   -4.3739    3.0515 C   0  0  0  0  0  0  0  0  0  0  0  0
   -0.4301   -4.4722    0.4373 H   0  0  0  0  0  0  0  0  0  0  0  0
   -0.6367   -5.0325    2.6080 H   0  0  0  0  0  0  0  0  0  0  0  0
    2.0000   -3.4822    2.9476 H   0  0  0  0  0  0  0  0  0  0  0  0
    1.3350   -4.6308    4.1153 H   0  0  0  0  0  0  0  0  0  0  0  0
    1.8658   -5.1934    2.5192 H   0  0  0  0  0  0  0  0  0  0  0  0
   -1.1936   -3.3290    4.4506 N   0  0  0  0  0  0  0  0  0  0  0  0
   -1.8661   -2.3964    5.3246 C   0  0  0  0  0  0  0  0  0  0  0  0
   -1.1206   -4.2954    4.7548 H   0  0  0  0  0  0  0  0  0  0  0  0
   -1.1355   -1.9448    6.0118 H   0  0  0  0  0  0  0  0  0  0  0  0
   -2.3402   -1.6068    4.7230 H   0  0  0  0  0  0  0  0  0  0  0  0
   -2.6355   -2.9271    5.9047 H   0  0  0  0  0  0  0  0  0  0  0  0
 18 19  1  0  0  0  0
 19 31  1  0  0  0  0
 19 20  2  0  0  0  0
  8  9  1  0  0  0  0
  9 17  1  0  0  0  0
  9 10  2  0  0  0  0
  1  3  1  0  0  0  0
  1  7  1  0  0  0  0
  1  2  2  0  0  0  0
 32 33  1  0  0  0  0
 33 41  1  0  0  0  0
 33 34  2  0  0  0  0
 21 22  1  0  0  0  0
 22 23  1  0  0  0  0
 18 21  1  0  0  0  0
 17 23  1  0  0  0  0
 17 18  1  0  0  0  0
  8 11  1  0  0  0  0
 32 35  1  0  0  0  0
 41 42  1  0  0  0  0
  7  8  1  0  0  0  0
 31 32  1  0  0  0  0
 22 27  1  0  0  0  0
 22 28  1  0  0  0  0
 21 25  1  0  0  0  0
 21 26  1  0  0  0  0
 23 29  1  0  0  0  0
 23 30  1  0  0  0  0
 18 24  1  0  0  0  0
  3  4  1  0  0  0  0
  3  5  1  0  0  0  0
  3  6  1  0  0  0  0
 11 14  1  0  0  0  0
 11 15  1  0  0  0  0
 11 16  1  0  0  0  0
 35 38  1  0  0  0  0
 35 39  1  0  0  0  0
 35 40  1  0  0  0  0
 42 44  1  0  0  0  0
 42 45  1  0  0  0  0
 42 46  1  0  0  0  0
  8 13  1  0  0  0  0
 32 37  1  0  0  0  0
 31 36  1  0  0  0  0
 41 43  1  0  0  0  0
  7 12  1  0  0  0  0
M  END
$$$$

  -OEChem-05262214473D

 46 46  0     1  0  0  0  0  0999 V2000
   -0.6012   -3.2995    3.8205 C   0  0  0  0  0  0  0  0  0  0  0  0
   -0.6574   -4.4683    3.4568 O   0  0  0  0  0  0  0  0  0  0  0  0
   -0.4935   -2.9859    5.2760 C   0  0  0  0  0  0  0  0  0  0  0  0
   -1.4789   -2.8689    5.7550 H   0  0  0  0  0  0  0  0  0  0  0  0
    0.0123   -3.7847    5.8419 H   0  0  0  0  0  0  0  0  0  0  0  0
    0.0585   -2.0642    5.5199 H   0  0  0  0  0  0  0  0  0  0  0  0
   -0.6261   -2.1849    2.9917 N   0  0  0  0  0  0  0  0  0  0  0  0
   -0.7237   -2.2601    1.5650 C   0  0  2  0  0  0  0  0  0  0  0  0
    0.1695   -1.1513    1.0687 C   0  0  0  0  0  0  0  0  0  0  0  0
    0.3193   -0.1267    1.7365 O   0  0  0  0  0  0  0  0  0  0  0  0
   -2.1397   -2.0663    1.0750 C   0  0  0  0  0  0  0  0  0  0  0  0
   -0.5717   -1.2606    3.4238 H   0  0  0  0  0  0  0  0  0  0  0  0
   -0.3076   -3.2111    1.2363 H   0  0  0  0  0  0  0  0  0  0  0  0
   -2.5584   -1.1089    1.4061 H   0  0  0  0  0  0  0  0  0  0  0  0
   -2.1682   -2.0790   -0.0197 H   0  0  0  0  0  0  0  0  0  0  0  0
   -2.7965   -2.8601    1.4459 H   0  0  0  0  0  0  0  0  0  0  0  0
    0.7724   -1.3745   -0.1593 N   0  0  0  0  0  0  0  0  0  0  0  0
    0.5614   -2.5964   -0.9244 C   0  0  2  0  0  0  0  0  0  0  0  0
   -0.3735   -3.4587   -0.1308 C   0  0  0  0  0  0  0  0  0  0  0  0
   -1.3089   -4.0142   -0.6949 O   0  0  0  0  0  0  0  0  0  0  0  0
    1.9458   -3.2230   -1.0432 C   0  0  0  0  0  0  0  0  0  0  0  0
    2.2521   -1.7403   -0.8458 C   0  0  0  0  0  0  0  0  0  0  0  0
    1.5408   -0.3981   -0.9273 C   0  0  0  0  0  0  0  0  0  0  0  0
    0.1027   -2.3787   -1.8936 H   0  0  0  0  0  0  0  0  0  0  0  0
    2.0691   -3.6740   -2.0351 H   0  0  0  0  0  0  0  0  0  0  0  0
    2.1474   -3.9863   -0.2855 H   0  0  0  0  0  0  0  0  0  0  0  0
    2.5528   -1.5477    0.1905 H   0  0  0  0  0  0  0  0  0  0  0  0
    3.0524   -1.3926   -1.5053 H   0  0  0  0  0  0  0  0  0  0  0  0
    2.1327    0.4188   -0.5056 H   0  0  0  0  0  0  0  0  0  0  0  0
    1.2759   -0.1509   -1.9611 H   0  0  0  0  0  0  0  0  0  0  0  0
   -0.1377   -3.5790    1.1707 N   0  0  0  0  0  0  0  0  0  0  0  0
   -0.3675   -3.6675    2.5949 C   0  0  2  0  0  0  0  0  0  0  0  0
   -1.2871   -2.5213    2.9950 C   0  0  0  0  0  0  0  0  0  0  0  0
   -1.4063   -1.4938    2.3309 O   0  0  0  0  0  0  0  0  0  0  0  0
    0.9393   -3.6120    3.3707 C   0  0  0  0  0  0  0  0  0  0  0  0
   -0.3934   -4.3717    0.5896 H   0  0  0  0  0  0  0  0  0  0  0  0
   -0.8734   -4.6223    2.7750 H   0  0  0  0  0  0  0  0  0  0  0  0
    1.4606   -2.6625    3.2028 H   0  0  0  0  0  0  0  0  0  0  0  0
    0.7658   -3.7078    4.4476 H   0  0  0  0  0  0  0  0  0  0  0  0
    1.6113   -4.4194    3.0604 H   0  0  0  0  0  0  0  0  0  0  0  0
   -1.9263   -2.7624    4.2031 N   0  0  0  0  0  0  0  0  0  0  0  0
   -2.8412   -1.8194    4.8029 C   0  0  0  0  0  0  0  0  0  0  0  0
   -1.7829   -3.6499    4.6759 H   0  0  0  0  0  0  0  0  0  0  0  0
   -2.2921   -1.1653    5.4962 H   0  0  0  0  0  0  0  0  0  0  0  0
   -3.3075   -1.2094    4.0152 H   0  0  0  0  0  0  0  0  0  0  0  0
   -3.6211   -2.3652    5.3540 H   0  0  0  0  0  0  0  0  0  0  0  0
 18 19  1  0  0  0  0
 19 31  1  0  0  0  0
 19 20  2  0  0  0  0
  8  9  1  0  0  0  0
  9 17  1  0  0  0  0
  9 10  2  0  0  0  0
  1  3  1  0  0  0  0
  1  7  1  0  0  0  0
  1  2  2  0  0  0  0
 32 33  1  0  0  0  0
 33 41  1  0  0  0  0
 33 34  2  0  0  0  0
 21 22  1  0  0  0  0
 22 23  1  0  0  0  0
 18 21  1  0  0  0  0
 17 23  1  0  0  0  0
 17 18  1  0  0  0  0
  8 11  1  0  0  0  0
 32 35  1  0  0  0  0
 41 42  1  0  0  0  0
  7  8  1  0  0  0  0
 31 32  1  0  0  0  0
 22 27  1  0  0  0  0
 22 28  1  0  0  0  0
 21 25  1  0  0  0  0
 21 26  1  0  0  0  0
 23 29  1  0  0  0  0
 23 30  1  0  0  0  0
 18 24  1  0  0  0  0
  3  4  1  0  0  0  0
  3  5  1  0  0  0  0
  3  6  1  0  0  0  0
 11 14  1  0  0  0  0
 11 15  1  0  0  0  0
 11 16  1  0  0  0  0
 35 38  1  0  0  0  0
 35 39  1  0  0  0  0
 35 40  1  0  0  0  0
 42 44  1  0  0  0  0
 42 45  1  0  0  0  0
 42 46  1  0  0  0  0
  8 13  1  0  0  0  0
 32 37  1  0  0  0  0
 31 36  1  0  0  0  0
 41 43  1  0  0  0  0
  7 12  1  0  0  0  0
M  END
$$$$

  -OEChem-05262214473D

 46 46  0     1  0  0  0  0  0999 V2000
   -0.6012   -3.2995    3.8205 C   0  0  0  0  0  0  0  0  0  0  0  0
   -0.6574   -4.4683    3.4568 O   0  0  0  0  0  0  0  0  0  0  0  0
   -0.4935   -2.9859    5.2760 C   0  0  0  0  0  0  0  0  0  0  0  0
   -1.4789   -2.8689    5.7550 H   0  0  0  0  0  0  0  0  0  0  0  0
    0.0123   -3.7847    5.8419 H   0  0  0  0  0  0  0  0  0  0  0  0
    0.0585   -2.0642    5.5199 H   0  0  0  0  0  0  0  0  0  0  0  0
   -0.6261   -2.1849    2.9917 N   0  0  0  0  0  0  0  0  0  0  0  0
   -0.7237   -2.2601    1.5650 C   0  0  2  0  0  0  0  0  0  0  0  0
    0.1695   -1.1513    1.0687 C   0  0  0  0  0  0  0  0  0  0  0  0
    0.3193   -0.1267    1.7365 O   0  0  0  0  0  0  0  0  0  0  0  0
   -2.1397   -2.0663    1.0750 C   0  0  0  0  0  0  0  0  0  0  0  0
   -0.5717   -1.2606    3.4238 H   0  0  0  0  0  0  0  0  0  0  0  0
   -0.3076   -3.2111    1.2363 H   0  0  0  0  0  0  0  0  0  0  0  0
   -2.5584   -1.1089    1.4061 H   0  0  0  0  0  0  0  0  0  0  0  0
   -2.1682   -2.0790   -0.0197 H   0  0  0  0  0  0  0  0  0  0  0  0
   -2.7965   -2.8601    1.4459 H   0  0  0  0  0  0  0  0  0  0  0  0
    0.7724   -1.3745   -0.1593 N   0  0  0  0  0  0  0  0  0  0  0  0
    0.5614   -2.5964   -0.9244 C   0  0  2  0  0  0  0  0  0  0  0  0
   -0.3735   -3.4587   -0.1308 C   0  0  0  0  0  0  0  0  0  0  0  0
   -1.1298   -4.2263   -0.7144 O   0  0  0  0  0  0  0  0  0  0  0  0
    1.9458   -3.2230   -1.0432 C   0  0  0  0  0  0  0  0  0  0  0  0
    2.2521   -1.7403   -0.8458 C   0  0  0  0  0  0  0  0  0  0  0  0
    1.5408   -0.3981   -0.9273 C   0  0  0  0  0  0  0  0  0  0  0  0
    0.1027   -2.3787   -1.8936 H   0  0  0  0  0  0  0  0  0  0  0  0
    2.0691   -3.6740   -2.0351 H   0  0  0  0  0  0  0  0  0  0  0  0
    2.1474   -3.9863   -0.2855 H   0  0  0  0  0  0  0  0  0  0  0  0
    2.5528   -1.5477    0.1905 H   0  0  0  0  0  0  0  0  0  0  0  0
    3.0524   -1.3926   -1.5053 H   0  0  0  0  0  0  0  0  0  0  0  0
    2.1327    0.4188   -0.5056 H   0  0  0  0  0  0  0  0  0  0  0  0
    1.2759   -0.1509   -1.9611 H   0  0  0  0  0  0  0  0  0  0  0  0
   -0.3360   -3.3445    1.1919 N   0  0  0  0  0  0  0  0  0  0  0  0
   -0.7780   -3.2501    2.5648 C   0  0  2  0  0  0  0  0  0  0  0  0
   -1.8856   -2.2069    2.6316 C   0  0  0  0  0  0  0  0  0  0  0  0
   -2.0241   -1.3209    1.7908 O   0  0  0  0  0  0  0  0  0  0  0  0
    0.3705   -2.8838    3.4919 C   0  0  0  0  0  0  0  0  0  0  0  0
   -0.3944   -4.2451    0.7261 H   0  0  0  0  0  0  0  0  0  0  0  0
   -1.1831   -4.2315    2.8348 H   0  0  0  0  0  0  0  0  0  0  0  0
    0.7892   -1.9035    3.2367 H   0  0  0  0  0  0  0  0  0  0  0  0
    0.0401   -2.8407    4.5350 H   0  0  0  0  0  0  0  0  0  0  0  0
    1.1789   -3.6194    3.4203 H   0  0  0  0  0  0  0  0  0  0  0  0
   -2.6748   -2.3554    3.7635 N   0  0  0  0  0  0  0  0  0  0  0  0
   -3.7844   -1.4799    4.0607 C   0  0  0  0  0  0  0  0  0  0  0  0
   -2.4994   -3.1299    4.3969 H   0  0  0  0  0  0  0  0  0  0  0  0
   -3.4394   -0.6540    4.7002 H   0  0  0  0  0  0  0  0  0  0  0  0
   -4.1910   -1.0724    3.1233 H   0  0  0  0  0  0  0  0  0  0  0  0
   -4.5682   -2.0464    4.5847 H   0  0  0  0  0  0  0  0  0  0  0  0
 18 19  1  0  0  0  0
 19 31  1  0  0  0  0
 19 20  2  0  0  0  0
  8  9  1  0  0  0  0
  9 17  1  0  0  0  0
  9 10  2  0  0  0  0
  1  3  1  0  0  0  0
  1  7  1  0  0  0  0
  1  2  2  0  0  0  0
 32 33  1  0  0  0  0
 33 41  1  0  0  0  0
 33 34  2  0  0  0  0
 21 22  1  0  0  0  0
 22 23  1  0  0  0  0
 18 21  1  0  0  0  0
 17 23  1  0  0  0  0
 17 18  1  0  0  0  0
  8 11  1  0  0  0  0
 32 35  1  0  0  0  0
 41 42  1  0  0  0  0
  7  8  1  0  0  0  0
 31 32  1  0  0  0  0
 22 27  1  0  0  0  0
 22 28  1  0  0  0  0
 21 25  1  0  0  0  0
 21 26  1  0  0  0  0
 23 29  1  0  0  0  0
 23 30  1  0  0  0  0
 18 24  1  0  0  0  0
  3  4  1  0  0  0  0
  3  5  1  0  0  0  0
  3  6  1  0  0  0  0
 11 14  1  0  0  0  0
 11 15  1  0  0  0  0
 11 16  1  0  0  0  0
 35 38  1  0  0  0  0
 35 39  1  0  0  0  0
 35 40  1  0  0  0  0
 42 44  1  0  0  0  0
 42 45  1  0  0  0  0
 42 46  1  0  0  0  0
  8 13  1  0  0  0  0
 32 37  1  0  0  0  0
 31 36  1  0  0  0  0
 41 43  1  0  0  0  0
  7 12  1  0  0  0  0
M  END
$$$$

  -OEChem-05262214473D

 46 46  0     1  0  0  0  0  0999 V2000
   -0.6012   -3.2995    3.8205 C   0  0  0  0  0  0  0  0  0  0  0  0
   -0.6574   -4.4683    3.4568 O   0  0  0  0  0  0  0  0  0  0  0  0
   -0.4935   -2.9859    5.2760 C   0  0  0  0  0  0  0  0  0  0  0  0
   -1.4789   -2.8689    5.7550 H   0  0  0  0  0  0  0  0  0  0  0  0
    0.0123   -3.7847    5.8419 H   0  0  0  0  0  0  0  0  0  0  0  0
    0.0585   -2.0642    5.5199 H   0  0  0  0  0  0  0  0  0  0  0  0
   -0.6261   -2.1849    2.9917 N   0  0  0  0  0  0  0  0  0  0  0  0
   -0.7237   -2.2601    1.5650 C   0  0  2  0  0  0  0  0  0  0  0  0
    0.1695   -1.1513    1.0687 C   0  0  0  0  0  0  0  0  0  0  0  0
    0.3193   -0.1267    1.7365 O   0  0  0  0  0  0  0  0  0  0  0  0
   -2.1397   -2.0663    1.0750 C   0  0  0  0  0  0  0  0  0  0  0  0
   -0.5717   -1.2606    3.4238 H   0  0  0  0  0  0  0  0  0  0  0  0
   -0.3076   -3.2111    1.2363 H   0  0  0  0  0  0  0  0  0  0  0  0
   -2.5584   -1.1089    1.4061 H   0  0  0  0  0  0  0  0  0  0  0  0
   -2.1682   -2.0790   -0.0197 H   0  0  0  0  0  0  0  0  0  0  0  0
   -2.7965   -2.8601    1.4459 H   0  0  0  0  0  0  0  0  0  0  0  0
    0.7724   -1.3745   -0.1593 N   0  0  0  0  0  0  0  0  0  0  0  0
    0.5614   -2.5964   -0.9244 C   0  0  2  0  0  0  0  0  0  0  0  0
   -0.3735   -3.4587   -0.1308 C   0  0  0  0  0  0  0  0  0  0  0  0
   -0.9248   -4.4098   -0.6723 O   0  0  0  0  0  0  0  0  0  0  0  0
    1.9458   -3.2230   -1.0432 C   0  0  0  0  0  0  0  0  0  0  0  0
    2.2521   -1.7403   -0.8458 C   0  0  0  0  0  0  0  0  0  0  0  0
    1.5408   -0.3981   -0.9273 C   0  0  0  0  0  0  0  0  0  0  0  0
    0.1027   -2.3787   -1.8936 H   0  0  0  0  0  0  0  0  0  0  0  0
    2.0691   -3.6740   -2.0351 H   0  0  0  0  0  0  0  0  0  0  0  0
    2.1474   -3.9863   -0.2855 H   0  0  0  0  0  0  0  0  0  0  0  0
    2.5528   -1.5477    0.1905 H   0  0  0  0  0  0  0  0  0  0  0  0
    3.0524   -1.3926   -1.5053 H   0  0  0  0  0  0  0  0  0  0  0  0
    2.1327    0.4188   -0.5056 H   0  0  0  0  0  0  0  0  0  0  0  0
    1.2759   -0.1509   -1.9611 H   0  0  0  0  0  0  0  0  0  0  0  0
   -0.5629   -3.1418    1.1450 N   0  0  0  0  0  0  0  0  0  0  0  0
   -1.2272   -2.9081    2.4072 C   0  0  2  0  0  0  0  0  0  0  0  0
   -2.4526   -2.0439    2.1407 C   0  0  0  0  0  0  0  0  0  0  0  0
   -2.5642   -1.3258    1.1493 O   0  0  0  0  0  0  0  0  0  0  0  0
   -0.2968   -2.2387    3.4066 C   0  0  0  0  0  0  0  0  0  0  0  0
   -0.4331   -4.1009    0.8373 H   0  0  0  0  0  0  0  0  0  0  0  0
   -1.5447   -3.8868    2.7834 H   0  0  0  0  0  0  0  0  0  0  0  0
    0.0317   -1.2568    3.0470 H   0  0  0  0  0  0  0  0  0  0  0  0
   -0.7927   -2.0883    4.3713 H   0  0  0  0  0  0  0  0  0  0  0  0
    0.5980   -2.8477    3.5745 H   0  0  0  0  0  0  0  0  0  0  0  0
   -3.3881   -2.1358    3.1618 N   0  0  0  0  0  0  0  0  0  0  0  0
   -4.6314   -1.4010    3.1485 C   0  0  0  0  0  0  0  0  0  0  0  0
   -3.2211   -2.7708    3.9368 H   0  0  0  0  0  0  0  0  0  0  0  0
   -4.4991   -0.4459    3.6780 H   0  0  0  0  0  0  0  0  0  0  0  0
   -4.9303   -1.2050    2.1082 H   0  0  0  0  0  0  0  0  0  0  0  0
   -5.4121   -1.9924    3.6491 H   0  0  0  0  0  0  0  0  0  0  0  0
 18 19  1  0  0  0  0
 19 31  1  0  0  0  0
 19 20  2  0  0  0  0
  8  9  1  0  0  0  0
  9 17  1  0  0  0  0
  9 10  2  0  0  0  0
  1  3  1  0  0  0  0
  1  7  1  0  0  0  0
  1  2  2  0  0  0  0
 32 33  1  0  0  0  0
 33 41  1  0  0  0  0
 33 34  2  0  0  0  0
 21 22  1  0  0  0  0
 22 23  1  0  0  0  0
 18 21  1  0  0  0  0
 17 23  1  0  0  0  0
 17 18  1  0  0  0  0
  8 11  1  0  0  0  0
 32 35  1  0  0  0  0
 41 42  1  0  0  0  0
  7  8  1  0  0  0  0
 31 32  1  0  0  0  0
 22 27  1  0  0  0  0
 22 28  1  0  0  0  0
 21 25  1  0  0  0  0
 21 26  1  0  0  0  0
 23 29  1  0  0  0  0
 23 30  1  0  0  0  0
 18 24  1  0  0  0  0
  3  4  1  0  0  0  0
  3  5  1  0  0  0  0
  3  6  1  0  0  0  0
 11 14  1  0  0  0  0
 11 15  1  0  0  0  0
 11 16  1  0  0  0  0
 35 38  1  0  0  0  0
 35 39  1  0  0  0  0
 35 40  1  0  0  0  0
 42 44  1  0  0  0  0
 42 45  1  0  0  0  0
 42 46  1  0  0  0  0
  8 13  1  0  0  0  0
 32 37  1  0  0  0  0
 31 36  1  0  0  0  0
 41 43  1  0  0  0  0
  7 12  1  0  0  0  0
M  END
$$$$

  -OEChem-05262214473D

 46 46  0     1  0  0  0  0  0999 V2000
   -0.6012   -3.2995    3.8205 C   0  0  0  0  0  0  0  0  0  0  0  0
   -0.6574   -4.4683    3.4568 O   0  0  0  0  0  0  0  0  0  0  0  0
   -0.4935   -2.9859    5.2760 C   0  0  0  0  0  0  0  0  0  0  0  0
   -1.4789   -2.8689    5.7550 H   0  0  0  0  0  0  0  0  0  0  0  0
    0.0123   -3.7847    5.8419 H   0  0  0  0  0  0  0  0  0  0  0  0
    0.0585   -2.0642    5.5199 H   0  0  0  0  0  0  0  0  0  0  0  0
   -0.6261   -2.1849    2.9917 N   0  0  0  0  0  0  0  0  0  0  0  0
   -0.7237   -2.2601    1.5650 C   0  0  2  0  0  0  0  0  0  0  0  0
    0.1695   -1.1513    1.0687 C   0  0  0  0  0  0  0  0  0  0  0  0
    0.3193   -0.1267    1.7365 O   0  0  0  0  0  0  0  0  0  0  0  0
   -2.1397   -2.0663    1.0750 C   0  0  0  0  0  0  0  0  0  0  0  0
   -0.5717   -1.2606    3.4238 H   0  0  0  0  0  0  0  0  0  0  0  0
   -0.3076   -3.2111    1.2363 H   0  0  0  0  0  0  0  0  0  0  0  0
   -2.5584   -1.1089    1.4061 H   0  0  0  0  0  0  0  0  0  0  0  0
   -2.1682   -2.0790   -0.0197 H   0  0  0  0  0  0  0  0  0  0  0  0
   -2.7965   -2.8601    1.4459 H   0  0  0  0  0  0  0  0  0  0  0  0
    0.7724   -1.3745   -0.1593 N   0  0  0  0  0  0  0  0  0  0  0  0
    0.5614   -2.5964   -0.9244 C   0  0  2  0  0  0  0  0  0  0  0  0
   -0.3735   -3.4587   -0.1308 C   0  0  0  0  0  0  0  0  0  0  0  0
   -0.7080   -4.5522   -0.5715 O   0  0  0  0  0  0  0  0  0  0  0  0
    1.9458   -3.2230   -1.0432 C   0  0  0  0  0  0  0  0  0  0  0  0
    2.2521   -1.7403   -0.8458 C   0  0  0  0  0  0  0  0  0  0  0  0
    1.5408   -0.3981   -0.9273 C   0  0  0  0  0  0  0  0  0  0  0  0
    0.1027   -2.3787   -1.8936 H   0  0  0  0  0  0  0  0  0  0  0  0
    2.0691   -3.6740   -2.0351 H   0  0  0  0  0  0  0  0  0  0  0  0
    2.1474   -3.9863   -0.2855 H   0  0  0  0  0  0  0  0  0  0  0  0
    2.5528   -1.5477    0.1905 H   0  0  0  0  0  0  0  0  0  0  0  0
    3.0524   -1.3926   -1.5053 H   0  0  0  0  0  0  0  0  0  0  0  0
    2.1327    0.4188   -0.5056 H   0  0  0  0  0  0  0  0  0  0  0  0
    1.2759   -0.1509   -1.9611 H   0  0  0  0  0  0  0  0  0  0  0  0
   -0.8028   -2.9846    1.0332 N   0  0  0  0  0  0  0  0  0  0  0  0
   -1.6846   -2.6648    2.1329 C   0  0  2  0  0  0  0  0  0  0  0  0
   -2.9496   -2.0433    1.5558 C   0  0  0  0  0  0  0  0  0  0  0  0
   -2.9898   -1.5080    0.4500 O   0  0  0  0  0  0  0  0  0  0  0  0
   -1.0171   -1.7208    3.1209 C   0  0  0  0  0  0  0  0  0  0  0  0
   -0.5067   -3.9489    0.9156 H   0  0  0  0  0  0  0  0  0  0  0  0
   -1.9335   -3.6117    2.6243 H   0  0  0  0  0  0  0  0  0  0  0  0
   -0.7603   -0.7666    2.6465 H   0  0  0  0  0  0  0  0  0  0  0  0
   -1.6759   -1.5022    3.9677 H   0  0  0  0  0  0  0  0  0  0  0  0
   -0.0918   -2.1570    3.5124 H   0  0  0  0  0  0  0  0  0  0  0  0
   -4.0176   -2.1186    2.4389 N   0  0  0  0  0  0  0  0  0  0  0  0
   -5.3246   -1.5880    2.1286 C   0  0  0  0  0  0  0  0  0  0  0  0
   -3.8990   -2.5971    3.3269 H   0  0  0  0  0  0  0  0  0  0  0  0
   -5.3990   -0.5550    2.4992 H   0  0  0  0  0  0  0  0  0  0  0  0
   -5.4752   -1.5983    1.0390 H   0  0  0  0  0  0  0  0  0  0  0  0
   -6.0955   -2.2069    2.6111 H   0  0  0  0  0  0  0  0  0  0  0  0
 18 19  1  0  0  0  0
 19 31  1  0  0  0  0
 19 20  2  0  0  0  0
  8  9  1  0  0  0  0
  9 17  1  0  0  0  0
  9 10  2  0  0  0  0
  1  3  1  0  0  0  0
  1  7  1  0  0  0  0
  1  2  2  0  0  0  0
 32 33  1  0  0  0  0
 33 41  1  0  0  0  0
 33 34  2  0  0  0  0
 21 22  1  0  0  0  0
 22 23  1  0  0  0  0
 18 21  1  0  0  0  0
 17 23  1  0  0  0  0
 17 18  1  0  0  0  0
  8 11  1  0  0  0  0
 32 35  1  0  0  0  0
 41 42  1  0  0  0  0
  7  8  1  0  0  0  0
 31 32  1  0  0  0  0
 22 27  1  0  0  0  0
 22 28  1  0  0  0  0
 21 25  1  0  0  0  0
 21 26  1  0  0  0  0
 23 29  1  0  0  0  0
 23 30  1  0  0  0  0
 18 24  1  0  0  0  0
  3  4  1  0  0  0  0
  3  5  1  0  0  0  0
  3  6  1  0  0  0  0
 11 14  1  0  0  0  0
 11 15  1  0  0  0  0
 11 16  1  0  0  0  0
 35 38  1  0  0  0  0
 35 39  1  0  0  0  0
 35 40  1  0  0  0  0
 42 44  1  0  0  0  0
 42 45  1  0  0  0  0
 42 46  1  0  0  0  0
  8 13  1  0  0  0  0
 32 37  1  0  0  0  0
 31 36  1  0  0  0  0
 41 43  1  0  0  0  0
  7 12  1  0  0  0  0
M  END
$$$$

  -OEChem-05262214473D

 46 46  0     1  0  0  0  0  0999 V2000
   -0.6012   -3.2995    3.8205 C   0  0  0  0  0  0  0  0  0  0  0  0
   -0.6574   -4.4683    3.4568 O   0  0  0  0  0  0  0  0  0  0  0  0
   -0.4935   -2.9859    5.2760 C   0  0  0  0  0  0  0  0  0  0  0  0
   -1.4789   -2.8689    5.7550 H   0  0  0  0  0  0  0  0  0  0  0  0
    0.0123   -3.7847    5.8419 H   0  0  0  0  0  0  0  0  0  0  0  0
    0.0585   -2.0642    5.5199 H   0  0  0  0  0  0  0  0  0  0  0  0
   -0.6261   -2.1849    2.9917 N   0  0  0  0  0  0  0  0  0  0  0  0
   -0.7237   -2.2601    1.5650 C   0  0  2  0  0  0  0  0  0  0  0  0
    0.1695   -1.1513    1.0687 C   0  0  0  0  0  0  0  0  0  0  0  0
    0.3193   -0.1267    1.7365 O   0  0  0  0  0  0  0  0  0  0  0  0
   -2.1397   -2.0663    1.0750 C   0  0  0  0  0  0  0  0  0  0  0  0
   -0.5717   -1.2606    3.4238 H   0  0  0  0  0  0  0  0  0  0  0  0
   -0.3076   -3.2111    1.2363 H   0  0  0  0  0  0  0  0  0  0  0  0
   -2.5584   -1.1089    1.4061 H   0  0  0  0  0  0  0  0  0  0  0  0
   -2.1682   -2.0790   -0.0197 H   0  0  0  0  0  0  0  0  0  0  0  0
   -2.7965   -2.8601    1.4459 H   0  0  0  0  0  0  0  0  0  0  0  0
    0.7724   -1.3745   -0.1593 N   0  0  0  0  0  0  0  0  0  0  0  0
    0.5614   -2.5964   -0.9244 C   0  0  2  0  0  0  0  0  0  0  0  0
   -0.3735   -3.4587   -0.1308 C   0  0  0  0  0  0  0  0  0  0  0  0
   -0.4940   -4.6437   -0.4189 O   0  0  0  0  0  0  0  0  0  0  0  0
    1.9458   -3.2230   -1.0432 C   0  0  0  0  0  0  0  0  0  0  0  0
    2.2521   -1.7403   -0.8458 C   0  0  0  0  0  0  0  0  0  0  0  0
    1.5408   -0.3981   -0.9273 C   0  0  0  0  0  0  0  0  0  0  0  0
    0.1027   -2.3787   -1.8936 H   0  0  0  0  0  0  0  0  0  0  0  0
    2.0691   -3.6740   -2.0351 H   0  0  0  0  0  0  0  0  0  0  0  0
    2.1474   -3.9863   -0.2855 H   0  0  0  0  0  0  0  0  0  0  0  0
    2.5528   -1.5477    0.1905 H   0  0  0  0  0  0  0  0  0  0  0  0
    3.0524   -1.3926   -1.5053 H   0  0  0  0  0  0  0  0  0  0  0  0
    2.1327    0.4188   -0.5056 H   0  0  0  0  0  0  0  0  0  0  0  0
    1.2759   -0.1509   -1.9611 H   0  0  0  0  0  0  0  0  0  0  0  0
   -1.0394   -2.8836    0.8642 N   0  0  0  0  0  0  0  0  0  0  0  0
   -2.1188   -2.5367    1.7605 C   0  0  2  0  0  0  0  0  0  0  0  0
   -3.3426   -2.2053    0.9168 C   0  0  0  0  0  0  0  0  0  0  0  0
   -3.2717   -1.8552   -0.2594 O   0  0  0  0  0  0  0  0  0  0  0  0
   -1.7412   -1.3654    2.6540 C   0  0  0  0  0  0  0  0  0  0  0  0
   -0.6103   -3.7996    0.9558 H   0  0  0  0  0  0  0  0  0  0  0  0
   -2.3231   -3.4249    2.3683 H   0  0  0  0  0  0  0  0  0  0  0  0
   -1.5329   -0.4662    2.0627 H   0  0  0  0  0  0  0  0  0  0  0  0
   -2.5492   -1.1222    3.3519 H   0  0  0  0  0  0  0  0  0  0  0  0
   -0.8434   -1.5944    3.2382 H   0  0  0  0  0  0  0  0  0  0  0  0
   -4.5205   -2.3049    1.6441 N   0  0  0  0  0  0  0  0  0  0  0  0
   -5.8168   -2.0283    1.0704 C   0  0  0  0  0  0  0  0  0  0  0  0
   -4.4868   -2.6206    2.6089 H   0  0  0  0  0  0  0  0  0  0  0  0
   -6.0778   -0.9739    1.2443 H   0  0  0  0  0  0  0  0  0  0  0  0
   -5.7884   -2.2253   -0.0114 H   0  0  0  0  0  0  0  0  0  0  0  0
   -6.5716   -2.6752    1.5413 H   0  0  0  0  0  0  0  0  0  0  0  0
 18 19  1  0  0  0  0
 19 31  1  0  0  0  0
 19 20  2  0  0  0  0
  8  9  1  0  0  0  0
  9 17  1  0  0  0  0
  9 10  2  0  0  0  0
  1  3  1  0  0  0  0
  1  7  1  0  0  0  0
  1  2  2  0  0  0  0
 32 33  1  0  0  0  0
 33 41  1  0  0  0  0
 33 34  2  0  0  0  0
 21 22  1  0  0  0  0
 22 23  1  0  0  0  0
 18 21  1  0  0  0  0
 17 23  1  0  0  0  0
 17 18  1  0  0  0  0
  8 11  1  0  0  0  0
 32 35  1  0  0  0  0
 41 42  1  0  0  0  0
  7  8  1  0  0  0  0
 31 32  1  0  0  0  0
 22 27  1  0  0  0  0
 22 28  1  0  0  0  0
 21 25  1  0  0  0  0
 21 26  1  0  0  0  0
 23 29  1  0  0  0  0
 23 30  1  0  0  0  0
 18 24  1  0  0  0  0
  3  4  1  0  0  0  0
  3  5  1  0  0  0  0
  3  6  1  0  0  0  0
 11 14  1  0  0  0  0
 11 15  1  0  0  0  0
 11 16  1  0  0  0  0
 35 38  1  0  0  0  0
 35 39  1  0  0  0  0
 35 40  1  0  0  0  0
 42 44  1  0  0  0  0
 42 45  1  0  0  0  0
 42 46  1  0  0  0  0
  8 13  1  0  0  0  0
 32 37  1  0  0  0  0
 31 36  1  0  0  0  0
 41 43  1  0  0  0  0
  7 12  1  0  0  0  0
M  END
$$$$

  -OEChem-05262214473D

 46 46  0     1  0  0  0  0  0999 V2000
   -0.6012   -3.2995    3.8205 C   0  0  0  0  0  0  0  0  0  0  0  0
   -0.6574   -4.4683    3.4568 O   0  0  0  0  0  0  0  0  0  0  0  0
   -0.4935   -2.9859    5.2760 C   0  0  0  0  0  0  0  0  0  0  0  0
   -1.4789   -2.8689    5.7550 H   0  0  0  0  0  0  0  0  0  0  0  0
    0.0123   -3.7847    5.8419 H   0  0  0  0  0  0  0  0  0  0  0  0
    0.0585   -2.0642    5.5199 H   0  0  0  0  0  0  0  0  0  0  0  0
   -0.6261   -2.1849    2.9917 N   0  0  0  0  0  0  0  0  0  0  0  0
   -0.7237   -2.2601    1.5650 C   0  0  2  0  0  0  0  0  0  0  0  0
    0.1695   -1.1513    1.0687 C   0  0  0  0  0  0  0  0  0  0  0  0
    0.3193   -0.1267    1.7365 O   0  0  0  0  0  0  0  0  0  0  0  0
   -2.1397   -2.0663    1.0750 C   0  0  0  0  0  0  0  0  0  0  0  0
   -0.5717   -1.2606    3.4238 H   0  0  0  0  0  0  0  0  0  0  0  0
   -0.3076   -3.2111    1.2363 H   0  0  0  0  0  0  0  0  0  0  0  0
   -2.5584   -1.1089    1.4061 H   0  0  0  0  0  0  0  0  0  0  0  0
   -2.1682   -2.0790   -0.0197 H   0  0  0  0  0  0  0  0  0  0  0  0
   -2.7965   -2.8601    1.4459 H   0  0  0  0  0  0  0  0  0  0  0  0
    0.7724   -1.3745   -0.1593 N   0  0  0  0  0  0  0  0  0  0  0  0
    0.5614   -2.5964   -0.9244 C   0  0  2  0  0  0  0  0  0  0  0  0
   -0.3735   -3.4587   -0.1308 C   0  0  0  0  0  0  0  0  0  0  0  0
   -0.2975   -4.6782   -0.2249 O   0  0  0  0  0  0  0  0  0  0  0  0
    1.9458   -3.2230   -1.0432 C   0  0  0  0  0  0  0  0  0  0  0  0
    2.2521   -1.7403   -0.8458 C   0  0  0  0  0  0  0  0  0  0  0  0
    1.5408   -0.3981   -0.9273 C   0  0  0  0  0  0  0  0  0  0  0  0
    0.1027   -2.3787   -1.8936 H   0  0  0  0  0  0  0  0  0  0  0  0
    2.0691   -3.6740   -2.0351 H   0  0  0  0  0  0  0  0  0  0  0  0
    2.1474   -3.9863   -0.2855 H   0  0  0  0  0  0  0  0  0  0  0  0
    2.5528   -1.5477    0.1905 H   0  0  0  0  0  0  0  0  0  0  0  0
    3.0524   -1.3926   -1.5053 H   0  0  0  0  0  0  0  0  0  0  0  0
    2.1327    0.4188   -0.5056 H   0  0  0  0  0  0  0  0  0  0  0  0
    1.2759   -0.1509   -1.9611 H   0  0  0  0  0  0  0  0  0  0  0  0
   -1.2566   -2.8459    0.6493 N   0  0  0  0  0  0  0  0  0  0  0  0
   -2.5004   -2.5325    1.3155 C   0  0  2  0  0  0  0  0  0  0  0  0
   -3.6050   -2.5188    0.2672 C   0  0  0  0  0  0  0  0  0  0  0  0
   -3.3909   -2.3436   -0.9306 O   0  0  0  0  0  0  0  0  0  0  0  0
   -2.4199   -1.1966    2.0379 C   0  0  0  0  0  0  0  0  0  0  0  0
   -0.7369   -3.6630    0.9551 H   0  0  0  0  0  0  0  0  0  0  0  0
   -2.6869   -3.3391    2.0329 H   0  0  0  0  0  0  0  0  0  0  0  0
   -2.2334   -0.3762    1.3353 H   0  0  0  0  0  0  0  0  0  0  0  0
   -3.3531   -0.9741    2.5657 H   0  0  0  0  0  0  0  0  0  0  0  0
   -1.6057   -1.1982    2.7706 H   0  0  0  0  0  0  0  0  0  0  0  0
   -4.8623   -2.6820    0.8316 N   0  0  0  0  0  0  0  0  0  0  0  0
   -6.0743   -2.6918    0.0461 C   0  0  0  0  0  0  0  0  0  0  0  0
   -4.9444   -2.8398    1.8317 H   0  0  0  0  0  0  0  0  0  0  0  0
   -6.4893   -1.6742   -0.0014 H   0  0  0  0  0  0  0  0  0  0  0  0
   -5.8487   -3.0435   -0.9714 H   0  0  0  0  0  0  0  0  0  0  0  0
   -6.8080   -3.3655    0.5127 H   0  0  0  0  0  0  0  0  0  0  0  0
 18 19  1  0  0  0  0
 19 31  1  0  0  0  0
 19 20  2  0  0  0  0
  8  9  1  0  0  0  0
  9 17  1  0  0  0  0
  9 10  2  0  0  0  0
  1  3  1  0  0  0  0
  1  7  1  0  0  0  0
  1  2  2  0  0  0  0
 32 33  1  0  0  0  0
 33 41  1  0  0  0  0
 33 34  2  0  0  0  0
 21 22  1  0  0  0  0
 22 23  1  0  0  0  0
 18 21  1  0  0  0  0
 17 23  1  0  0  0  0
 17 18  1  0  0  0  0
  8 11  1  0  0  0  0
 32 35  1  0  0  0  0
 41 42  1  0  0  0  0
  7  8  1  0  0  0  0
 31 32  1  0  0  0  0
 22 27  1  0  0  0  0
 22 28  1  0  0  0  0
 21 25  1  0  0  0  0
 21 26  1  0  0  0  0
 23 29  1  0  0  0  0
 23 30  1  0  0  0  0
 18 24  1  0  0  0  0
  3  4  1  0  0  0  0
  3  5  1  0  0  0  0
  3  6  1  0  0  0  0
 11 14  1  0  0  0  0
 11 15  1  0  0  0  0
 11 16  1  0  0  0  0
 35 38  1  0  0  0  0
 35 39  1  0  0  0  0
 35 40  1  0  0  0  0
 42 44  1  0  0  0  0
 42 45  1  0  0  0  0
 42 46  1  0  0  0  0
  8 13  1  0  0  0  0
 32 37  1  0  0  0  0
 31 36  1  0  0  0  0
 41 43  1  0  0  0  0
  7 12  1  0  0  0  0
M  END
$$$$

  -OEChem-05262214473D

 46 46  0     1  0  0  0  0  0999 V2000
   -0.6012   -3.2995    3.8205 C   0  0  0  0  0  0  0  0  0  0  0  0
   -0.6574   -4.4683    3.4568 O   0  0  0  0  0  0  0  0  0  0  0  0
   -0.4935   -2.9859    5.2760 C   0  0  0  0  0  0  0  0  0  0  0  0
   -1.4789   -2.8689    5.7550 H   0  0  0  0  0  0  0  0  0  0  0  0
    0.0123   -3.7847    5.8419 H   0  0  0  0  0  0  0  0  0  0  0  0
    0.0585   -2.0642    5.5199 H   0  0  0  0  0  0  0  0  0  0  0  0
   -0.6261   -2.1849    2.9917 N   0  0  0  0  0  0  0  0  0  0  0  0
   -0.7237   -2.2601    1.5650 C   0  0  2  0  0  0  0  0  0  0  0  0
    0.1695   -1.1513    1.0687 C   0  0  0  0  0  0  0  0  0  0  0  0
    0.3193   -0.1267    1.7365 O   0  0  0  0  0  0  0  0  0  0  0  0
   -2.1397   -2.0663    1.0750 C   0  0  0  0  0  0  0  0  0  0  0  0
   -0.5717   -1.2606    3.4238 H   0  0  0  0  0  0  0  0  0  0  0  0
   -0.3076   -3.2111    1.2363 H   0  0  0  0  0  0  0  0  0  0  0  0
   -2.5584   -1.1089    1.4061 H   0  0  0  0  0  0  0  0  0  0  0  0
   -2.1682   -2.0790   -0.0197 H   0  0  0  0  0  0  0  0  0  0  0  0
   -2.7965   -2.8601    1.4459 H   0  0  0  0  0  0  0  0  0  0  0  0
    0.7724   -1.3745   -0.1593 N   0  0  0  0  0  0  0  0  0  0  0  0
    0.5614   -2.5964   -0.9244 C   0  0  2  0  0  0  0  0  0  0  0  0
   -0.3735   -3.4587   -0.1308 C   0  0  0  0  0  0  0  0  0  0  0  0
   -0.1318   -4.6532   -0.0026 O   0  0  0  0  0  0  0  0  0  0  0  0
    1.9458   -3.2230   -1.0432 C   0  0  0  0  0  0  0  0  0  0  0  0
    2.2521   -1.7403   -0.8458 C   0  0  0  0  0  0  0  0  0  0  0  0
    1.5408   -0.3981   -0.9273 C   0  0  0  0  0  0  0  0  0  0  0  0
    0.1027   -2.3787   -1.8936 H   0  0  0  0  0  0  0  0  0  0  0  0
    2.0691   -3.6740   -2.0351 H   0  0  0  0  0  0  0  0  0  0  0  0
    2.1474   -3.9863   -0.2855 H   0  0  0  0  0  0  0  0  0  0  0  0
    2.5528   -1.5477    0.1905 H   0  0  0  0  0  0  0  0  0  0  0  0
    3.0524   -1.3926   -1.5053 H   0  0  0  0  0  0  0  0  0  0  0  0
    2.1327    0.4188   -0.5056 H   0  0  0  0  0  0  0  0  0  0  0  0
    1.2759   -0.1509   -1.9611 H   0  0  0  0  0  0  0  0  0  0  0  0
   -1.4396   -2.8738    0.4034 N   0  0  0  0  0  0  0  0  0  0  0  0
   -2.8032   -2.6526    0.8282 C   0  0  2  0  0  0  0  0  0  0  0  0
   -3.7187   -2.9623   -0.3488 C   0  0  0  0  0  0  0  0  0  0  0  0
   -3.3391   -2.9402   -1.5178 O   0  0  0  0  0  0  0  0  0  0  0  0
   -3.0068   -1.2261    1.3145 C   0  0  0  0  0  0  0  0  0  0  0  0
   -0.8777   -3.5486    0.9136 H   0  0  0  0  0  0  0  0  0  0  0  0
   -3.0001   -3.3603    1.6409 H   0  0  0  0  0  0  0  0  0  0  0  0
   -2.8141   -0.5026    0.5139 H   0  0  0  0  0  0  0  0  0  0  0  0
   -4.0329   -1.0682    1.6626 H   0  0  0  0  0  0  0  0  0  0  0  0
   -2.3267   -0.9954    2.1416 H   0  0  0  0  0  0  0  0  0  0  0  0
   -5.0199   -3.2242    0.0568 N   0  0  0  0  0  0  0  0  0  0  0  0
   -6.0796   -3.5333   -0.8745 C   0  0  0  0  0  0  0  0  0  0  0  0
   -5.2407   -3.2396    1.0482 H   0  0  0  0  0  0  0  0  0  0  0  0
   -6.6054   -2.6080   -1.1528 H   0  0  0  0  0  0  0  0  0  0  0  0
   -5.6519   -3.9970   -1.7757 H   0  0  0  0  0  0  0  0  0  0  0  0
   -6.7887   -4.2307   -0.4046 H   0  0  0  0  0  0  0  0  0  0  0  0
 18 19  1  0  0  0  0
 19 31  1  0  0  0  0
 19 20  2  0  0  0  0
  8  9  1  0  0  0  0
  9 17  1  0  0  0  0
  9 10  2  0  0  0  0
  1  3  1  0  0  0  0
  1  7  1  0  0  0  0
  1  2  2  0  0  0  0
 32 33  1  0  0  0  0
 33 41  1  0  0  0  0
 33 34  2  0  0  0  0
 21 22  1  0  0  0  0
 22 23  1  0  0  0  0
 18 21  1  0  0  0  0
 17 23  1  0  0  0  0
 17 18  1  0  0  0  0
  8 11  1  0  0  0  0
 32 35  1  0  0  0  0
 41 42  1  0  0  0  0
  7  8  1  0  0  0  0
 31 32  1  0  0  0  0
 22 27  1  0  0  0  0
 22 28  1  0  0  0  0
 21 25  1  0  0  0  0
 21 26  1  0  0  0  0
 23 29  1  0  0  0  0
 23 30  1  0  0  0  0
 18 24  1  0  0  0  0
  3  4  1  0  0  0  0
  3  5  1  0  0  0  0
  3  6  1  0  0  0  0
 11 14  1  0  0  0  0
 11 15  1  0  0  0  0
 11 16  1  0  0  0  0
 35 38  1  0  0  0  0
 35 39  1  0  0  0  0
 35 40  1  0  0  0  0
 42 44  1  0  0  0  0
 42 45  1  0  0  0  0
 42 46  1  0  0  0  0
  8 13  1  0  0  0  0
 32 37  1  0  0  0  0
 31 36  1  0  0  0  0
 41 43  1  0  0  0  0
  7 12  1  0  0  0  0
M  END
$$$$

  -OEChem-05262214473D

 46 46  0     1  0  0  0  0  0999 V2000
   -0.6012   -3.2995    3.8205 C   0  0  0  0  0  0  0  0  0  0  0  0
   -0.6574   -4.4683    3.4568 O   0  0  0  0  0  0  0  0  0  0  0  0
   -0.4935   -2.9859    5.2760 C   0  0  0  0  0  0  0  0  0  0  0  0
   -1.4789   -2.8689    5.7550 H   0  0  0  0  0  0  0  0  0  0  0  0
    0.0123   -3.7847    5.8419 H   0  0  0  0  0  0  0  0  0  0  0  0
    0.0585   -2.0642    5.5199 H   0  0  0  0  0  0  0  0  0  0  0  0
   -0.6261   -2.1849    2.9917 N   0  0  0  0  0  0  0  0  0  0  0  0
   -0.7237   -2.2601    1.5650 C   0  0  2  0  0  0  0  0  0  0  0  0
    0.1695   -1.1513    1.0687 C   0  0  0  0  0  0  0  0  0  0  0  0
    0.3193   -0.1267    1.7365 O   0  0  0  0  0  0  0  0  0  0  0  0
   -2.1397   -2.0663    1.0750 C   0  0  0  0  0  0  0  0  0  0  0  0
   -0.5717   -1.2606    3.4238 H   0  0  0  0  0  0  0  0  0  0  0  0
   -0.3076   -3.2111    1.2363 H   0  0  0  0  0  0  0  0  0  0  0  0
   -2.5584   -1.1089    1.4061 H   0  0  0  0  0  0  0  0  0  0  0  0
   -2.1682   -2.0790   -0.0197 H   0  0  0  0  0  0  0  0  0  0  0  0
   -2.7965   -2.8601    1.4459 H   0  0  0  0  0  0  0  0  0  0  0  0
    0.7724   -1.3745   -0.1593 N   0  0  0  0  0  0  0  0  0  0  0  0
    0.5614   -2.5964   -0.9244 C   0  0  2  0  0  0  0  0  0  0  0  0
   -0.3735   -3.4587   -0.1308 C   0  0  0  0  0  0  0  0  0  0  0  0
   -0.0083   -4.5706    0.2327 O   0  0  0  0  0  0  0  0  0  0  0  0
    1.9458   -3.2230   -1.0432 C   0  0  0  0  0  0  0  0  0  0  0  0
    2.2521   -1.7403   -0.8458 C   0  0  0  0  0  0  0  0  0  0  0  0
    1.5408   -0.3981   -0.9273 C   0  0  0  0  0  0  0  0  0  0  0  0
    0.1027   -2.3787   -1.8936 H   0  0  0  0  0  0  0  0  0  0  0  0
    2.0691   -3.6740   -2.0351 H   0  0  0  0  0  0  0  0  0  0  0  0
    2.1474   -3.9863   -0.2855 H   0  0  0  0  0  0  0  0  0  0  0  0
    2.5528   -1.5477    0.1905 H   0  0  0  0  0  0  0  0  0  0  0  0
    3.0524   -1.3926   -1.5053 H   0  0  0  0  0  0  0  0  0  0  0  0
    2.1327    0.4188   -0.5056 H   0  0  0  0  0  0  0  0  0  0  0  0
    1.2759   -0.1509   -1.9611 H   0  0  0  0  0  0  0  0  0  0  0  0
   -1.5759   -2.9655    0.1431 N   0  0  0  0  0  0  0  0  0  0  0  0
   -3.0068   -2.8887    0.3318 C   0  0  2  0  0  0  0  0  0  0  0  0
   -3.6761   -3.5058   -0.8891 C   0  0  0  0  0  0  0  0  0  0  0  0
   -3.1200   -3.6040   -1.9810 O   0  0  0  0  0  0  0  0  0  0  0  0
   -3.4620   -1.4517    0.5331 C   0  0  0  0  0  0  0  0  0  0  0  0
   -1.0232   -3.4640    0.8340 H   0  0  0  0  0  0  0  0  0  0  0  0
   -3.2414   -3.4869    1.2190 H   0  0  0  0  0  0  0  0  0  0  0  0
   -3.2354   -0.8369   -0.3456 H   0  0  0  0  0  0  0  0  0  0  0  0
   -4.5422   -1.3979    0.7044 H   0  0  0  0  0  0  0  0  0  0  0  0
   -2.9573   -0.9999    1.3939 H   0  0  0  0  0  0  0  0  0  0  0  0
   -4.9824   -3.8946   -0.6275 N   0  0  0  0  0  0  0  0  0  0  0  0
   -5.8324   -4.4954   -1.6288 C   0  0  0  0  0  0  0  0  0  0  0  0
   -5.3555   -3.7929    0.3118 H   0  0  0  0  0  0  0  0  0  0  0  0
   -6.4181   -3.7117   -2.1315 H   0  0  0  0  0  0  0  0  0  0  0  0
   -5.2114   -5.0209   -2.3693 H   0  0  0  0  0  0  0  0  0  0  0  0
   -6.5150   -5.2118   -1.1482 H   0  0  0  0  0  0  0  0  0  0  0  0
 18 19  1  0  0  0  0
 19 31  1  0  0  0  0
 19 20  2  0  0  0  0
  8  9  1  0  0  0  0
  9 17  1  0  0  0  0
  9 10  2  0  0  0  0
  1  3  1  0  0  0  0
  1  7  1  0  0  0  0
  1  2  2  0  0  0  0
 32 33  1  0  0  0  0
 33 41  1  0  0  0  0
 33 34  2  0  0  0  0
 21 22  1  0  0  0  0
 22 23  1  0  0  0  0
 18 21  1  0  0  0  0
 17 23  1  0  0  0  0
 17 18  1  0  0  0  0
  8 11  1  0  0  0  0
 32 35  1  0  0  0  0
 41 42  1  0  0  0  0
  7  8  1  0  0  0  0
 31 32  1  0  0  0  0
 22 27  1  0  0  0  0
 22 28  1  0  0  0  0
 21 25  1  0  0  0  0
 21 26  1  0  0  0  0
 23 29  1  0  0  0  0
 23 30  1  0  0  0  0
 18 24  1  0  0  0  0
  3  4  1  0  0  0  0
  3  5  1  0  0  0  0
  3  6  1  0  0  0  0
 11 14  1  0  0  0  0
 11 15  1  0  0  0  0
 11 16  1  0  0  0  0
 35 38  1  0  0  0  0
 35 39  1  0  0  0  0
 35 40  1  0  0  0  0
 42 44  1  0  0  0  0
 42 45  1  0  0  0  0
 42 46  1  0  0  0  0
  8 13  1  0  0  0  0
 32 37  1  0  0  0  0
 31 36  1  0  0  0  0
 41 43  1  0  0  0  0
  7 12  1  0  0  0  0
M  END
$$$$

  -OEChem-05262214473D

 46 46  0     1  0  0  0  0  0999 V2000
   -0.6012   -3.2995    3.8205 C   0  0  0  0  0  0  0  0  0  0  0  0
   -0.6574   -4.4683    3.4568 O   0  0  0  0  0  0  0  0  0  0  0  0
   -0.4935   -2.9859    5.2760 C   0  0  0  0  0  0  0  0  0  0  0  0
   -1.4789   -2.8689    5.7550 H   0  0  0  0  0  0  0  0  0  0  0  0
    0.0123   -3.7847    5.8419 H   0  0  0  0  0  0  0  0  0  0  0  0
    0.0585   -2.0642    5.5199 H   0  0  0  0  0  0  0  0  0  0  0  0
   -0.6261   -2.1849    2.9917 N   0  0  0  0  0  0  0  0  0  0  0  0
   -0.7237   -2.2601    1.5650 C   0  0  2  0  0  0  0  0  0  0  0  0
    0.1695   -1.1513    1.0687 C   0  0  0  0  0  0  0  0  0  0  0  0
    0.3193   -0.1267    1.7365 O   0  0  0  0  0  0  0  0  0  0  0  0
   -2.1397   -2.0663    1.0750 C   0  0  0  0  0  0  0  0  0  0  0  0
   -0.5717   -1.2606    3.4238 H   0  0  0  0  0  0  0  0  0  0  0  0
   -0.3076   -3.2111    1.2363 H   0  0  0  0  0  0  0  0  0  0  0  0
   -2.5584   -1.1089    1.4061 H   0  0  0  0  0  0  0  0  0  0  0  0
   -2.1682   -2.0790   -0.0197 H   0  0  0  0  0  0  0  0  0  0  0  0
   -2.7965   -2.8601    1.4459 H   0  0  0  0  0  0  0  0  0  0  0  0
    0.7724   -1.3745   -0.1593 N   0  0  0  0  0  0  0  0  0  0  0  0
    0.5614   -2.5964   -0.9244 C   0  0  2  0  0  0  0  0  0  0  0  0
   -0.3735   -3.4587   -0.1308 C   0  0  0  0  0  0  0  0  0  0  0  0
    0.0646   -4.4358    0.4650 O   0  0  0  0  0  0  0  0  0  0  0  0
    1.9458   -3.2230   -1.0432 C   0  0  0  0  0  0  0  0  0  0  0  0
    2.2521   -1.7403   -0.8458 C   0  0  0  0  0  0  0  0  0  0  0  0
    1.5408   -0.3981   -0.9273 C   0  0  0  0  0  0  0  0  0  0  0  0
    0.1027   -2.3787   -1.8936 H   0  0  0  0  0  0  0  0  0  0  0  0
    2.0691   -3.6740   -2.0351 H   0  0  0  0  0  0  0  0  0  0  0  0
    2.1474   -3.9863   -0.2855 H   0  0  0  0  0  0  0  0  0  0  0  0
    2.5528   -1.5477    0.1905 H   0  0  0  0  0  0  0  0  0  0  0  0
    3.0524   -1.3926   -1.5053 H   0  0  0  0  0  0  0  0  0  0  0  0
    2.1327    0.4188   -0.5056 H   0  0  0  0  0  0  0  0  0  0  0  0
    1.2759   -0.1509   -1.9611 H   0  0  0  0  0  0  0  0  0  0  0  0
   -1.6563   -3.1149   -0.1138 N   0  0  0  0  0  0  0  0  0  0  0  0
   -3.0972   -3.2248   -0.1398 C   0  0  2  0  0  0  0  0  0  0  0  0
   -3.4800   -4.1121   -1.3170 C   0  0  0  0  0  0  0  0  0  0  0  0
   -2.7484   -4.2900   -2.2886 O   0  0  0  0  0  0  0  0  0  0  0  0
   -3.7544   -1.8581   -0.2530 C   0  0  0  0  0  0  0  0  0  0  0  0
   -1.1635   -3.4151    0.7219 H   0  0  0  0  0  0  0  0  0  0  0  0
   -3.3943   -3.7104    0.7961 H   0  0  0  0  0  0  0  0  0  0  0  0
   -3.4686   -1.3562   -1.1846 H   0  0  0  0  0  0  0  0  0  0  0  0
   -4.8463   -1.9409   -0.2438 H   0  0  0  0  0  0  0  0  0  0  0  0
   -3.4545   -1.2113    0.5785 H   0  0  0  0  0  0  0  0  0  0  0  0
   -4.7525   -4.6475   -1.1748 N   0  0  0  0  0  0  0  0  0  0  0  0
   -5.3495   -5.5127   -2.1652 C   0  0  0  0  0  0  0  0  0  0  0  0
   -5.2809   -4.4619   -0.3273 H   0  0  0  0  0  0  0  0  0  0  0  0
   -5.9403   -4.9102   -2.8709 H   0  0  0  0  0  0  0  0  0  0  0  0
   -4.5573   -6.0453   -2.7119 H   0  0  0  0  0  0  0  0  0  0  0  0
   -6.0054   -6.2420   -1.6673 H   0  0  0  0  0  0  0  0  0  0  0  0
 18 19  1  0  0  0  0
 19 31  1  0  0  0  0
 19 20  2  0  0  0  0
  8  9  1  0  0  0  0
  9 17  1  0  0  0  0
  9 10  2  0  0  0  0
  1  3  1  0  0  0  0
  1  7  1  0  0  0  0
  1  2  2  0  0  0  0
 32 33  1  0  0  0  0
 33 41  1  0  0  0  0
 33 34  2  0  0  0  0
 21 22  1  0  0  0  0
 22 23  1  0  0  0  0
 18 21  1  0  0  0  0
 17 23  1  0  0  0  0
 17 18  1  0  0  0  0
  8 11  1  0  0  0  0
 32 35  1  0  0  0  0
 41 42  1  0  0  0  0
  7  8  1  0  0  0  0
 31 32  1  0  0  0  0
 22 27  1  0  0  0  0
 22 28  1  0  0  0  0
 21 25  1  0  0  0  0
 21 26  1  0  0  0  0
 23 29  1  0  0  0  0
 23 30  1  0  0  0  0
 18 24  1  0  0  0  0
  3  4  1  0  0  0  0
  3  5  1  0  0  0  0
  3  6  1  0  0  0  0
 11 14  1  0  0  0  0
 11 15  1  0  0  0  0
 11 16  1  0  0  0  0
 35 38  1  0  0  0  0
 35 39  1  0  0  0  0
 35 40  1  0  0  0  0
 42 44  1  0  0  0  0
 42 45  1  0  0  0  0
 42 46  1  0  0  0  0
  8 13  1  0  0  0  0
 32 37  1  0  0  0  0
 31 36  1  0  0  0  0
 41 43  1  0  0  0  0
  7 12  1  0  0  0  0
M  END
$$$$

  -OEChem-05262214473D

 46 46  0     1  0  0  0  0  0999 V2000
   -0.6012   -3.2995    3.8205 C   0  0  0  0  0  0  0  0  0  0  0  0
   -0.6574   -4.4683    3.4568 O   0  0  0  0  0  0  0  0  0  0  0  0
   -0.4935   -2.9859    5.2760 C   0  0  0  0  0  0  0  0  0  0  0  0
   -1.4789   -2.8689    5.7550 H   0  0  0  0  0  0  0  0  0  0  0  0
    0.0123   -3.7847    5.8419 H   0  0  0  0  0  0  0  0  0  0  0  0
    0.0585   -2.0642    5.5199 H   0  0  0  0  0  0  0  0  0  0  0  0
   -0.6261   -2.1849    2.9917 N   0  0  0  0  0  0  0  0  0  0  0  0
   -0.7237   -2.2601    1.5650 C   0  0  2  0  0  0  0  0  0  0  0  0
    0.1695   -1.1513    1.0687 C   0  0  0  0  0  0  0  0  0  0  0  0
    0.3193   -0.1267    1.7365 O   0  0  0  0  0  0  0  0  0  0  0  0
   -2.1397   -2.0663    1.0750 C   0  0  0  0  0  0  0  0  0  0  0  0
   -0.5717   -1.2606    3.4238 H   0  0  0  0  0  0  0  0  0  0  0  0
   -0.3076   -3.2111    1.2363 H   0  0  0  0  0  0  0  0  0  0  0  0
   -2.5584   -1.1089    1.4061 H   0  0  0  0  0  0  0  0  0  0  0  0
   -2.1682   -2.0790   -0.0197 H   0  0  0  0  0  0  0  0  0  0  0  0
   -2.7965   -2.8601    1.4459 H   0  0  0  0  0  0  0  0  0  0  0  0
    0.7724   -1.3745   -0.1593 N   0  0  0  0  0  0  0  0  0  0  0  0
    0.5614   -2.5964   -0.9244 C   0  0  2  0  0  0  0  0  0  0  0  0
   -0.3735   -3.4587   -0.1308 C   0  0  0  0  0  0  0  0  0  0  0  0
    0.0820   -4.2582    0.6786 O   0  0  0  0  0  0  0  0  0  0  0  0
    1.9458   -3.2230   -1.0432 C   0  0  0  0  0  0  0  0  0  0  0  0
    2.2521   -1.7403   -0.8458 C   0  0  0  0  0  0  0  0  0  0  0  0
    1.5408   -0.3981   -0.9273 C   0  0  0  0  0  0  0  0  0  0  0  0
    0.1027   -2.3787   -1.8936 H   0  0  0  0  0  0  0  0  0  0  0  0
    2.0691   -3.6740   -2.0351 H   0  0  0  0  0  0  0  0  0  0  0  0
    2.1474   -3.9863   -0.2855 H   0  0  0  0  0  0  0  0  0  0  0  0
    2.5528   -1.5477    0.1905 H   0  0  0  0  0  0  0  0  0  0  0  0
    3.0524   -1.3926   -1.5053 H   0  0  0  0  0  0  0  0  0  0  0  0
    2.1327    0.4188   -0.5056 H   0  0  0  0  0  0  0  0  0  0  0  0
    1.2759   -0.1509   -1.9611 H   0  0  0  0  0  0  0  0  0  0  0  0
   -1.6752   -3.3116   -0.3499 N   0  0  0  0  0  0  0  0  0  0  0  0
   -3.0682   -3.6379   -0.5546 C   0  0  2  0  0  0  0  0  0  0  0  0
   -3.1439   -4.7399   -1.6032 C   0  0  0  0  0  0  0  0  0  0  0  0
   -2.2497   -4.9514   -2.4198 O   0  0  0  0  0  0  0  0  0  0  0  0
   -3.8642   -2.4176   -0.9903 C   0  0  0  0  0  0  0  0  0  0  0  0
   -1.2890   -3.4053    0.5847 H   0  0  0  0  0  0  0  0  0  0  0  0
   -3.4484   -4.0155    0.4009 H   0  0  0  0  0  0  0  0  0  0  0  0
   -3.4977   -2.0252   -1.9459 H   0  0  0  0  0  0  0  0  0  0  0  0
   -4.9244   -2.6600   -1.1174 H   0  0  0  0  0  0  0  0  0  0  0  0
   -3.7843   -1.6152   -0.2490 H   0  0  0  0  0  0  0  0  0  0  0  0
   -4.3459   -5.4315   -1.5476 N   0  0  0  0  0  0  0  0  0  0  0  0
   -4.6638   -6.5157   -2.4473 C   0  0  0  0  0  0  0  0  0  0  0  0
   -5.0221   -5.2011   -0.8256 H   0  0  0  0  0  0  0  0  0  0  0  0
   -5.2045   -6.1217   -3.3205 H   0  0  0  0  0  0  0  0  0  0  0  0
   -3.7342   -7.0005   -2.7800 H   0  0  0  0  0  0  0  0  0  0  0  0
   -5.2948   -7.2510   -1.9266 H   0  0  0  0  0  0  0  0  0  0  0  0
 18 19  1  0  0  0  0
 19 31  1  0  0  0  0
 19 20  2  0  0  0  0
  8  9  1  0  0  0  0
  9 17  1  0  0  0  0
  9 10  2  0  0  0  0
  1  3  1  0  0  0  0
  1  7  1  0  0  0  0
  1  2  2  0  0  0  0
 32 33  1  0  0  0  0
 33 41  1  0  0  0  0
 33 34  2  0  0  0  0
 21 22  1  0  0  0  0
 22 23  1  0  0  0  0
 18 21  1  0  0  0  0
 17 23  1  0  0  0  0
 17 18  1  0  0  0  0
  8 11  1  0  0  0  0
 32 35  1  0  0  0  0
 41 42  1  0  0  0  0
  7  8  1  0  0  0  0
 31 32  1  0  0  0  0
 22 27  1  0  0  0  0
 22 28  1  0  0  0  0
 21 25  1  0  0  0  0
 21 26  1  0  0  0  0
 23 29  1  0  0  0  0
 23 30  1  0  0  0  0
 18 24  1  0  0  0  0
  3  4  1  0  0  0  0
  3  5  1  0  0  0  0
  3  6  1  0  0  0  0
 11 14  1  0  0  0  0
 11 15  1  0  0  0  0
 11 16  1  0  0  0  0
 35 38  1  0  0  0  0
 35 39  1  0  0  0  0
 35 40  1  0  0  0  0
 42 44  1  0  0  0  0
 42 45  1  0  0  0  0
 42 46  1  0  0  0  0
  8 13  1  0  0  0  0
 32 37  1  0  0  0  0
 31 36  1  0  0  0  0
 41 43  1  0  0  0  0
  7 12  1  0  0  0  0
M  END
$$$$

  -OEChem-05262214473D

 46 46  0     1  0  0  0  0  0999 V2000
   -0.6012   -3.2995    3.8205 C   0  0  0  0  0  0  0  0  0  0  0  0
   -0.6574   -4.4683    3.4568 O   0  0  0  0  0  0  0  0  0  0  0  0
   -0.4935   -2.9859    5.2760 C   0  0  0  0  0  0  0  0  0  0  0  0
   -1.4789   -2.8689    5.7550 H   0  0  0  0  0  0  0  0  0  0  0  0
    0.0123   -3.7847    5.8419 H   0  0  0  0  0  0  0  0  0  0  0  0
    0.0585   -2.0642    5.5199 H   0  0  0  0  0  0  0  0  0  0  0  0
   -0.6261   -2.1849    2.9917 N   0  0  0  0  0  0  0  0  0  0  0  0
   -0.7237   -2.2601    1.5650 C   0  0  2  0  0  0  0  0  0  0  0  0
    0.1695   -1.1513    1.0687 C   0  0  0  0  0  0  0  0  0  0  0  0
    0.3193   -0.1267    1.7365 O   0  0  0  0  0  0  0  0  0  0  0  0
   -2.1397   -2.0663    1.0750 C   0  0  0  0  0  0  0  0  0  0  0  0
   -0.5717   -1.2606    3.4238 H   0  0  0  0  0  0  0  0  0  0  0  0
   -0.3076   -3.2111    1.2363 H   0  0  0  0  0  0  0  0  0  0  0  0
   -2.5584   -1.1089    1.4061 H   0  0  0  0  0  0  0  0  0  0  0  0
   -2.1682   -2.0790   -0.0197 H   0  0  0  0  0  0  0  0  0  0  0  0
   -2.7965   -2.8601    1.4459 H   0  0  0  0  0  0  0  0  0  0  0  0
    0.7724   -1.3745   -0.1593 N   0  0  0  0  0  0  0  0  0  0  0  0
    0.5614   -2.5964   -0.9244 C   0  0  2  0  0  0  0  0  0  0  0  0
   -0.3735   -3.4587   -0.1308 C   0  0  0  0  0  0  0  0  0  0  0  0
    0.0427   -4.0497    0.8588 O   0  0  0  0  0  0  0  0  0  0  0  0
    1.9458   -3.2230   -1.0432 C   0  0  0  0  0  0  0  0  0  0  0  0
    2.2521   -1.7403   -0.8458 C   0  0  0  0  0  0  0  0  0  0  0  0
    1.5408   -0.3981   -0.9273 C   0  0  0  0  0  0  0  0  0  0  0  0
    0.1027   -2.3787   -1.8936 H   0  0  0  0  0  0  0  0  0  0  0  0
    2.0691   -3.6740   -2.0351 H   0  0  0  0  0  0  0  0  0  0  0  0
    2.1474   -3.9863   -0.2855 H   0  0  0  0  0  0  0  0  0  0  0  0
    2.5528   -1.5477    0.1905 H   0  0  0  0  0  0  0  0  0  0  0  0
    3.0524   -1.3926   -1.5053 H   0  0  0  0  0  0  0  0  0  0  0  0
    2.1327    0.4188   -0.5056 H   0  0  0  0  0  0  0  0  0  0  0  0
    1.2759   -0.1509   -1.9611 H   0  0  0  0  0  0  0  0  0  0  0  0
   -1.6314   -3.5423   -0.5489 N   0  0  0  0  0  0  0  0  0  0  0  0
   -2.9219   -4.1000   -0.8843 C   0  0  2  0  0  0  0  0  0  0  0  0
   -2.6906   -5.3465   -1.7282 C   0  0  0  0  0  0  0  0  0  0  0  0
   -1.6579   -5.5430   -2.3654 O   0  0  0  0  0  0  0  0  0  0  0  0
   -3.7838   -3.0920   -1.6285 C   0  0  0  0  0  0  0  0  0  0  0  0
   -1.3912   -3.4350    0.4320 H   0  0  0  0  0  0  0  0  0  0  0  0
   -3.4000   -4.3813    0.0603 H   0  0  0  0  0  0  0  0  0  0  0  0
   -3.3209   -2.7982   -2.5776 H   0  0  0  0  0  0  0  0  0  0  0  0
   -4.7714   -3.5064   -1.8567 H   0  0  0  0  0  0  0  0  0  0  0  0
   -3.9244   -2.1840   -1.0322 H   0  0  0  0  0  0  0  0  0  0  0  0
   -3.7901   -6.1933   -1.7207 N   0  0  0  0  0  0  0  0  0  0  0  0
   -3.8221   -7.4361   -2.4558 C   0  0  0  0  0  0  0  0  0  0  0  0
   -4.5966   -5.9600   -1.1490 H   0  0  0  0  0  0  0  0  0  0  0  0
   -4.2609   -7.2637   -3.4497 H   0  0  0  0  0  0  0  0  0  0  0  0
   -2.7980   -7.8214   -2.5692 H   0  0  0  0  0  0  0  0  0  0  0  0
   -4.4316   -8.1702   -1.9084 H   0  0  0  0  0  0  0  0  0  0  0  0
 18 19  1  0  0  0  0
 19 31  1  0  0  0  0
 19 20  2  0  0  0  0
  8  9  1  0  0  0  0
  9 17  1  0  0  0  0
  9 10  2  0  0  0  0
  1  3  1  0  0  0  0
  1  7  1  0  0  0  0
  1  2  2  0  0  0  0
 32 33  1  0  0  0  0
 33 41  1  0  0  0  0
 33 34  2  0  0  0  0
 21 22  1  0  0  0  0
 22 23  1  0  0  0  0
 18 21  1  0  0  0  0
 17 23  1  0  0  0  0
 17 18  1  0  0  0  0
  8 11  1  0  0  0  0
 32 35  1  0  0  0  0
 41 42  1  0  0  0  0
  7  8  1  0  0  0  0
 31 32  1  0  0  0  0
 22 27  1  0  0  0  0
 22 28  1  0  0  0  0
 21 25  1  0  0  0  0
 21 26  1  0  0  0  0
 23 29  1  0  0  0  0
 23 30  1  0  0  0  0
 18 24  1  0  0  0  0
  3  4  1  0  0  0  0
  3  5  1  0  0  0  0
  3  6  1  0  0  0  0
 11 14  1  0  0  0  0
 11 15  1  0  0  0  0
 11 16  1  0  0  0  0
 35 38  1  0  0  0  0
 35 39  1  0  0  0  0
 35 40  1  0  0  0  0
 42 44  1  0  0  0  0
 42 45  1  0  0  0  0
 42 46  1  0  0  0  0
  8 13  1  0  0  0  0
 32 37  1  0  0  0  0
 31 36  1  0  0  0  0
 41 43  1  0  0  0  0
  7 12  1  0  0  0  0
M  END
$$$$

  -OEChem-05262214473D

 46 46  0     1  0  0  0  0  0999 V2000
   -0.6012   -3.2995    3.8205 C   0  0  0  0  0  0  0  0  0  0  0  0
   -0.6574   -4.4683    3.4568 O   0  0  0  0  0  0  0  0  0  0  0  0
   -0.4935   -2.9859    5.2760 C   0  0  0  0  0  0  0  0  0  0  0  0
   -1.4789   -2.8689    5.7550 H   0  0  0  0  0  0  0  0  0  0  0  0
    0.0123   -3.7847    5.8419 H   0  0  0  0  0  0  0  0  0  0  0  0
    0.0585   -2.0642    5.5199 H   0  0  0  0  0  0  0  0  0  0  0  0
   -0.6261   -2.1849    2.9917 N   0  0  0  0  0  0  0  0  0  0  0  0
   -0.7237   -2.2601    1.5650 C   0  0  2  0  0  0  0  0  0  0  0  0
    0.1695   -1.1513    1.0687 C   0  0  0  0  0  0  0  0  0  0  0  0
    0.3193   -0.1267    1.7365 O   0  0  0  0  0  0  0  0  0  0  0  0
   -2.1397   -2.0663    1.0750 C   0  0  0  0  0  0  0  0  0  0  0  0
   -0.5717   -1.2606    3.4238 H   0  0  0  0  0  0  0  0  0  0  0  0
   -0.3076   -3.2111    1.2363 H   0  0  0  0  0  0  0  0  0  0  0  0
   -2.5584   -1.1089    1.4061 H   0  0  0  0  0  0  0  0  0  0  0  0
   -2.1682   -2.0790   -0.0197 H   0  0  0  0  0  0  0  0  0  0  0  0
   -2.7965   -2.8601    1.4459 H   0  0  0  0  0  0  0  0  0  0  0  0
    0.7724   -1.3745   -0.1593 N   0  0  0  0  0  0  0  0  0  0  0  0
    0.5614   -2.5964   -0.9244 C   0  0  2  0  0  0  0  0  0  0  0  0
   -0.3735   -3.4587   -0.1308 C   0  0  0  0  0  0  0  0  0  0  0  0
   -0.0507   -3.8247    0.9933 O   0  0  0  0  0  0  0  0  0  0  0  0
    1.9458   -3.2230   -1.0432 C   0  0  0  0  0  0  0  0  0  0  0  0
    2.2521   -1.7403   -0.8458 C   0  0  0  0  0  0  0  0  0  0  0  0
    1.5408   -0.3981   -0.9273 C   0  0  0  0  0  0  0  0  0  0  0  0
    0.1027   -2.3787   -1.8936 H   0  0  0  0  0  0  0  0  0  0  0  0
    2.0691   -3.6740   -2.0351 H   0  0  0  0  0  0  0  0  0  0  0  0
    2.1474   -3.9863   -0.2855 H   0  0  0  0  0  0  0  0  0  0  0  0
    2.5528   -1.5477    0.1905 H   0  0  0  0  0  0  0  0  0  0  0  0
    3.0524   -1.3926   -1.5053 H   0  0  0  0  0  0  0  0  0  0  0  0
    2.1327    0.4188   -0.5056 H   0  0  0  0  0  0  0  0  0  0  0  0
    1.2759   -0.1509   -1.9611 H   0  0  0  0  0  0  0  0  0  0  0  0
   -1.5278   -3.7912   -0.6974 N   0  0  0  0  0  0  0  0  0  0  0  0
   -2.6681   -4.5795   -1.1064 C   0  0  2  0  0  0  0  0  0  0  0  0
   -2.1509   -5.8905   -1.6837 C   0  0  0  0  0  0  0  0  0  0  0  0
   -1.0132   -6.0247   -2.1293 O   0  0  0  0  0  0  0  0  0  0  0  0
   -3.5187   -3.8355   -2.1241 C   0  0  0  0  0  0  0  0  0  0  0  0
   -1.4631   -3.5024    0.2741 H   0  0  0  0  0  0  0  0  0  0  0  0
   -3.2525   -4.7831   -0.2024 H   0  0  0  0  0  0  0  0  0  0  0  0
   -2.9502   -3.6227   -3.0367 H   0  0  0  0  0  0  0  0  0  0  0  0
   -4.3975   -4.4223   -2.4114 H   0  0  0  0  0  0  0  0  0  0  0  0
   -3.8652   -2.8792   -1.7178 H   0  0  0  0  0  0  0  0  0  0  0  0
   -3.1231   -6.8810   -1.6821 N   0  0  0  0  0  0  0  0  0  0  0  0
   -2.8817   -8.2112   -2.1902 C   0  0  0  0  0  0  0  0  0  0  0  0
   -4.0335   -6.6869   -1.2755 H   0  0  0  0  0  0  0  0  0  0  0  0
   -3.1737   -8.2583   -3.2496 H   0  0  0  0  0  0  0  0  0  0  0  0
   -1.8127   -8.4520   -2.0936 H   0  0  0  0  0  0  0  0  0  0  0  0
   -3.4745   -8.9369   -1.6140 H   0  0  0  0  0  0  0  0  0  0  0  0
 18 19  1  0  0  0  0
 19 31  1  0  0  0  0
 19 20  2  0  0  0  0
  8  9  1  0  0  0  0
  9 17  1  0  0  0  0
  9 10  2  0  0  0  0
  1  3  1  0  0  0  0
  1  7  1  0  0  0  0
  1  2  2  0  0  0  0
 32 33  1  0  0  0  0
 33 41  1  0  0  0  0
 33 34  2  0  0  0  0
 21 22  1  0  0  0  0
 22 23  1  0  0  0  0
 18 21  1  0  0  0  0
 17 23  1  0  0  0  0
 17 18  1  0  0  0  0
  8 11  1  0  0  0  0
 32 35  1  0  0  0  0
 41 42  1  0  0  0  0
  7  8  1  0  0  0  0
 31 32  1  0  0  0  0
 22 27  1  0  0  0  0
 22 28  1  0  0  0  0
 21 25  1  0  0  0  0
 21 26  1  0  0  0  0
 23 29  1  0  0  0  0
 23 30  1  0  0  0  0
 18 24  1  0  0  0  0
  3  4  1  0  0  0  0
  3  5  1  0  0  0  0
  3  6  1  0  0  0  0
 11 14  1  0  0  0  0
 11 15  1  0  0  0  0
 11 16  1  0  0  0  0
 35 38  1  0  0  0  0
 35 39  1  0  0  0  0
 35 40  1  0  0  0  0
 42 44  1  0  0  0  0
 42 45  1  0  0  0  0
 42 46  1  0  0  0  0
  8 13  1  0  0  0  0
 32 37  1  0  0  0  0
 31 36  1  0  0  0  0
 41 43  1  0  0  0  0
  7 12  1  0  0  0  0
M  END
$$$$

  -OEChem-05262214473D

 46 46  0     1  0  0  0  0  0999 V2000
   -0.6012   -3.2995    3.8205 C   0  0  0  0  0  0  0  0  0  0  0  0
   -0.6574   -4.4683    3.4568 O   0  0  0  0  0  0  0  0  0  0  0  0
   -0.4935   -2.9859    5.2760 C   0  0  0  0  0  0  0  0  0  0  0  0
   -1.4789   -2.8689    5.7550 H   0  0  0  0  0  0  0  0  0  0  0  0
    0.0123   -3.7847    5.8419 H   0  0  0  0  0  0  0  0  0  0  0  0
    0.0585   -2.0642    5.5199 H   0  0  0  0  0  0  0  0  0  0  0  0
   -0.6261   -2.1849    2.9917 N   0  0  0  0  0  0  0  0  0  0  0  0
   -0.7237   -2.2601    1.5650 C   0  0  2  0  0  0  0  0  0  0  0  0
    0.1695   -1.1513    1.0687 C   0  0  0  0  0  0  0  0  0  0  0  0
    0.3193   -0.1267    1.7365 O   0  0  0  0  0  0  0  0  0  0  0  0
   -2.1397   -2.0663    1.0750 C   0  0  0  0  0  0  0  0  0  0  0  0
   -0.5717   -1.2606    3.4238 H   0  0  0  0  0  0  0  0  0  0  0  0
   -0.3076   -3.2111    1.2363 H   0  0  0  0  0  0  0  0  0  0  0  0
   -2.5584   -1.1089    1.4061 H   0  0  0  0  0  0  0  0  0  0  0  0
   -2.1682   -2.0790   -0.0197 H   0  0  0  0  0  0  0  0  0  0  0  0
   -2.7965   -2.8601    1.4459 H   0  0  0  0  0  0  0  0  0  0  0  0
    0.7724   -1.3745   -0.1593 N   0  0  0  0  0  0  0  0  0  0  0  0
    0.5614   -2.5964   -0.9244 C   0  0  2  0  0  0  0  0  0  0  0  0
   -0.3735   -3.4587   -0.1308 C   0  0  0  0  0  0  0  0  0  0  0  0
   -0.1917   -3.5984    1.0730 O   0  0  0  0  0  0  0  0  0  0  0  0
    1.9458   -3.2230   -1.0432 C   0  0  0  0  0  0  0  0  0  0  0  0
    2.2521   -1.7403   -0.8458 C   0  0  0  0  0  0  0  0  0  0  0  0
    1.5408   -0.3981   -0.9273 C   0  0  0  0  0  0  0  0  0  0  0  0
    0.1027   -2.3787   -1.8936 H   0  0  0  0  0  0  0  0  0  0  0  0
    2.0691   -3.6740   -2.0351 H   0  0  0  0  0  0  0  0  0  0  0  0
    2.1474   -3.9863   -0.2855 H   0  0  0  0  0  0  0  0  0  0  0  0
    2.5528   -1.5477    0.1905 H   0  0  0  0  0  0  0  0  0  0  0  0
    3.0524   -1.3926   -1.5053 H   0  0  0  0  0  0  0  0  0  0  0  0
    2.1327    0.4188   -0.5056 H   0  0  0  0  0  0  0  0  0  0  0  0
    1.2759   -0.1509   -1.9611 H   0  0  0  0  0  0  0  0  0  0  0  0
   -1.3715   -4.0415   -0.7853 N   0  0  0  0  0  0  0  0  0  0  0  0
   -2.3243   -5.0437   -1.2057 C   0  0  2  0  0  0  0  0  0  0  0  0
   -1.5618   -6.3348   -1.4724 C   0  0  0  0  0  0  0  0  0  0  0  0
   -0.3597   -6.3635   -1.7276 O   0  0  0  0  0  0  0  0  0  0  0  0
   -3.0871   -4.5974   -2.4433 C   0  0  0  0  0  0  0  0  0  0  0  0
   -1.4998   -3.6029    0.1217 H   0  0  0  0  0  0  0  0  0  0  0  0
   -3.0158   -5.1933   -0.3694 H   0  0  0  0  0  0  0  0  0  0  0  0
   -2.4108   -4.4424   -3.2919 H   0  0  0  0  0  0  0  0  0  0  0  0
   -3.8283   -5.3452   -2.7438 H   0  0  0  0  0  0  0  0  0  0  0  0
   -3.6107   -3.6531   -2.2589 H   0  0  0  0  0  0  0  0  0  0  0  0
   -2.3904   -7.4476   -1.4346 N   0  0  0  0  0  0  0  0  0  0  0  0
   -1.9066   -8.7882   -1.6685 C   0  0  0  0  0  0  0  0  0  0  0  0
   -3.3712   -7.3324   -1.1966 H   0  0  0  0  0  0  0  0  0  0  0  0
   -2.0171   -9.0378   -2.7341 H   0  0  0  0  0  0  0  0  0  0  0  0
   -0.8453   -8.8494   -1.3858 H   0  0  0  0  0  0  0  0  0  0  0  0
   -2.4888   -9.4987   -1.0633 H   0  0  0  0  0  0  0  0  0  0  0  0
 18 19  1  0  0  0  0
 19 31  1  0  0  0  0
 19 20  2  0  0  0  0
  8  9  1  0  0  0  0
  9 17  1  0  0  0  0
  9 10  2  0  0  0  0
  1  3  1  0  0  0  0
  1  7  1  0  0  0  0
  1  2  2  0  0  0  0
 32 33  1  0  0  0  0
 33 41  1  0  0  0  0
 33 34  2  0  0  0  0
 21 22  1  0  0  0  0
 22 23  1  0  0  0  0
 18 21  1  0  0  0  0
 17 23  1  0  0  0  0
 17 18  1  0  0  0  0
  8 11  1  0  0  0  0
 32 35  1  0  0  0  0
 41 42  1  0  0  0  0
  7  8  1  0  0  0  0
 31 32  1  0  0  0  0
 22 27  1  0  0  0  0
 22 28  1  0  0  0  0
 21 25  1  0  0  0  0
 21 26  1  0  0  0  0
 23 29  1  0  0  0  0
 23 30  1  0  0  0  0
 18 24  1  0  0  0  0
  3  4  1  0  0  0  0
  3  5  1  0  0  0  0
  3  6  1  0  0  0  0
 11 14  1  0  0  0  0
 11 15  1  0  0  0  0
 11 16  1  0  0  0  0
 35 38  1  0  0  0  0
 35 39  1  0  0  0  0
 35 40  1  0  0  0  0
 42 44  1  0  0  0  0
 42 45  1  0  0  0  0
 42 46  1  0  0  0  0
  8 13  1  0  0  0  0
 32 37  1  0  0  0  0
 31 36  1  0  0  0  0
 41 43  1  0  0  0  0
  7 12  1  0  0  0  0
M  END
$$$$

  -OEChem-05262214473D

 46 46  0     1  0  0  0  0  0999 V2000
   -0.6012   -3.2995    3.8205 C   0  0  0  0  0  0  0  0  0  0  0  0
   -0.6574   -4.4683    3.4568 O   0  0  0  0  0  0  0  0  0  0  0  0
   -0.4935   -2.9859    5.2760 C   0  0  0  0  0  0  0  0  0  0  0  0
   -1.4789   -2.8689    5.7550 H   0  0  0  0  0  0  0  0  0  0  0  0
    0.0123   -3.7847    5.8419 H   0  0  0  0  0  0  0  0  0  0  0  0
    0.0585   -2.0642    5.5199 H   0  0  0  0  0  0  0  0  0  0  0  0
   -0.6261   -2.1849    2.9917 N   0  0  0  0  0  0  0  0  0  0  0  0
   -0.7237   -2.2601    1.5650 C   0  0  2  0  0  0  0  0  0  0  0  0
    0.1695   -1.1513    1.0687 C   0  0  0  0  0  0  0  0  0  0  0  0
    0.3193   -0.1267    1.7365 O   0  0  0  0  0  0  0  0  0  0  0  0
   -2.1397   -2.0663    1.0750 C   0  0  0  0  0  0  0  0  0  0  0  0
   -0.5717   -1.2606    3.4238 H   0  0  0  0  0  0  0  0  0  0  0  0
   -0.3076   -3.2111    1.2363 H   0  0  0  0  0  0  0  0  0  0  0  0
   -2.5584   -1.1089    1.4061 H   0  0  0  0  0  0  0  0  0  0  0  0
   -2.1682   -2.0790   -0.0197 H   0  0  0  0  0  0  0  0  0  0  0  0
   -2.7965   -2.8601    1.4459 H   0  0  0  0  0  0  0  0  0  0  0  0
    0.7724   -1.3745   -0.1593 N   0  0  0  0  0  0  0  0  0  0  0  0
    0.5614   -2.5964   -0.9244 C   0  0  2  0  0  0  0  0  0  0  0  0
   -0.3735   -3.4587   -0.1308 C   0  0  0  0  0  0  0  0  0  0  0  0
   -0.3708   -3.3863    1.0925 O   0  0  0  0  0  0  0  0  0  0  0  0
    1.9458   -3.2230   -1.0432 C   0  0  0  0  0  0  0  0  0  0  0  0
    2.2521   -1.7403   -0.8458 C   0  0  0  0  0  0  0  0  0  0  0  0
    1.5408   -0.3981   -0.9273 C   0  0  0  0  0  0  0  0  0  0  0  0
    0.1027   -2.3787   -1.8936 H   0  0  0  0  0  0  0  0  0  0  0  0
    2.0691   -3.6740   -2.0351 H   0  0  0  0  0  0  0  0  0  0  0  0
    2.1474   -3.9863   -0.2855 H   0  0  0  0  0  0  0  0  0  0  0  0
    2.5528   -1.5477    0.1905 H   0  0  0  0  0  0  0  0  0  0  0  0
    3.0524   -1.3926   -1.5053 H   0  0  0  0  0  0  0  0  0  0  0  0
    2.1327    0.4188   -0.5056 H   0  0  0  0  0  0  0  0  0  0  0  0
    1.2759   -0.1509   -1.9611 H   0  0  0  0  0  0  0  0  0  0  0  0
   -1.1732   -4.2760   -0.8065 N   0  0  0  0  0  0  0  0  0  0  0  0
   -1.9138   -5.4611   -1.1756 C   0  0  2  0  0  0  0  0  0  0  0  0
   -0.9634   -6.6492   -1.1090 C   0  0  0  0  0  0  0  0  0  0  0  0
    0.2582   -6.5364   -1.1875 O   0  0  0  0  0  0  0  0  0  0  0  0
   -2.5182   -5.3256   -2.5645 C   0  0  0  0  0  0  0  0  0  0  0  0
   -1.4988   -3.7296   -0.0147 H   0  0  0  0  0  0  0  0  0  0  0  0
   -2.7061   -5.5841   -0.4292 H   0  0  0  0  0  0  0  0  0  0  0  0
   -1.7394   -5.2014   -3.3258 H   0  0  0  0  0  0  0  0  0  0  0  0
   -3.1025   -6.2124   -2.8311 H   0  0  0  0  0  0  0  0  0  0  0  0
   -3.1783   -4.4532   -2.6189 H   0  0  0  0  0  0  0  0  0  0  0  0
   -1.6419   -7.8545   -0.9950 N   0  0  0  0  0  0  0  0  0  0  0  0
   -0.9635   -9.1277   -0.9262 C   0  0  0  0  0  0  0  0  0  0  0  0
   -2.6547   -7.8524   -0.9176 H   0  0  0  0  0  0  0  0  0  0  0  0
   -0.8699   -9.5490   -1.9380 H   0  0  0  0  0  0  0  0  0  0  0  0
    0.0381   -8.9864   -0.4939 H   0  0  0  0  0  0  0  0  0  0  0  0
   -1.5418   -9.8175   -0.2940 H   0  0  0  0  0  0  0  0  0  0  0  0
 18 19  1  0  0  0  0
 19 31  1  0  0  0  0
 19 20  2  0  0  0  0
  8  9  1  0  0  0  0
  9 17  1  0  0  0  0
  9 10  2  0  0  0  0
  1  3  1  0  0  0  0
  1  7  1  0  0  0  0
  1  2  2  0  0  0  0
 32 33  1  0  0  0  0
 33 41  1  0  0  0  0
 33 34  2  0  0  0  0
 21 22  1  0  0  0  0
 22 23  1  0  0  0  0
 18 21  1  0  0  0  0
 17 23  1  0  0  0  0
 17 18  1  0  0  0  0
  8 11  1  0  0  0  0
 32 35  1  0  0  0  0
 41 42  1  0  0  0  0
  7  8  1  0  0  0  0
 31 32  1  0  0  0  0
 22 27  1  0  0  0  0
 22 28  1  0  0  0  0
 21 25  1  0  0  0  0
 21 26  1  0  0  0  0
 23 29  1  0  0  0  0
 23 30  1  0  0  0  0
 18 24  1  0  0  0  0
  3  4  1  0  0  0  0
  3  5  1  0  0  0  0
  3  6  1  0  0  0  0
 11 14  1  0  0  0  0
 11 15  1  0  0  0  0
 11 16  1  0  0  0  0
 35 38  1  0  0  0  0
 35 39  1  0  0  0  0
 35 40  1  0  0  0  0
 42 44  1  0  0  0  0
 42 45  1  0  0  0  0
 42 46  1  0  0  0  0
  8 13  1  0  0  0  0
 32 37  1  0  0  0  0
 31 36  1  0  0  0  0
 41 43  1  0  0  0  0
  7 12  1  0  0  0  0
M  END
$$$$

  -OEChem-05262214473D

 46 46  0     1  0  0  0  0  0999 V2000
   -0.6012   -3.2995    3.8205 C   0  0  0  0  0  0  0  0  0  0  0  0
   -0.6574   -4.4683    3.4568 O   0  0  0  0  0  0  0  0  0  0  0  0
   -0.4935   -2.9859    5.2760 C   0  0  0  0  0  0  0  0  0  0  0  0
   -1.4789   -2.8689    5.7550 H   0  0  0  0  0  0  0  0  0  0  0  0
    0.0123   -3.7847    5.8419 H   0  0  0  0  0  0  0  0  0  0  0  0
    0.0585   -2.0642    5.5199 H   0  0  0  0  0  0  0  0  0  0  0  0
   -0.6261   -2.1849    2.9917 N   0  0  0  0  0  0  0  0  0  0  0  0
   -0.7237   -2.2601    1.5650 C   0  0  2  0  0  0  0  0  0  0  0  0
    0.1695   -1.1513    1.0687 C   0  0  0  0  0  0  0  0  0  0  0  0
    0.3193   -0.1267    1.7365 O   0  0  0  0  0  0  0  0  0  0  0  0
   -2.1397   -2.0663    1.0750 C   0  0  0  0  0  0  0  0  0  0  0  0
   -0.5717   -1.2606    3.4238 H   0  0  0  0  0  0  0  0  0  0  0  0
   -0.3076   -3.2111    1.2363 H   0  0  0  0  0  0  0  0  0  0  0  0
   -2.5584   -1.1089    1.4061 H   0  0  0  0  0  0  0  0  0  0  0  0
   -2.1682   -2.0790   -0.0197 H   0  0  0  0  0  0  0  0  0  0  0  0
   -2.7965   -2.8601    1.4459 H   0  0  0  0  0  0  0  0  0  0  0  0
    0.7724   -1.3745   -0.1593 N   0  0  0  0  0  0  0  0  0  0  0  0
    0.5614   -2.5964   -0.9244 C   0  0  2  0  0  0  0  0  0  0  0  0
   -0.3735   -3.4587   -0.1308 C   0  0  0  0  0  0  0  0  0  0  0  0
   -0.5758   -3.2028    1.0504 O   0  0  0  0  0  0  0  0  0  0  0  0
    1.9458   -3.2230   -1.0432 C   0  0  0  0  0  0  0  0  0  0  0  0
    2.2521   -1.7403   -0.8458 C   0  0  0  0  0  0  0  0  0  0  0  0
    1.5408   -0.3981   -0.9273 C   0  0  0  0  0  0  0  0  0  0  0  0
    0.1027   -2.3787   -1.8936 H   0  0  0  0  0  0  0  0  0  0  0  0
    2.0691   -3.6740   -2.0351 H   0  0  0  0  0  0  0  0  0  0  0  0
    2.1474   -3.9863   -0.2855 H   0  0  0  0  0  0  0  0  0  0  0  0
    2.5528   -1.5477    0.1905 H   0  0  0  0  0  0  0  0  0  0  0  0
    3.0524   -1.3926   -1.5053 H   0  0  0  0  0  0  0  0  0  0  0  0
    2.1327    0.4188   -0.5056 H   0  0  0  0  0  0  0  0  0  0  0  0
    1.2759   -0.1509   -1.9611 H   0  0  0  0  0  0  0  0  0  0  0  0
   -0.9464   -4.4787   -0.7596 N   0  0  0  0  0  0  0  0  0  0  0  0
   -1.4645   -5.8031   -1.0180 C   0  0  2  0  0  0  0  0  0  0  0  0
   -0.3963   -6.8123   -0.6181 C   0  0  0  0  0  0  0  0  0  0  0  0
    0.7983   -6.5315   -0.5460 O   0  0  0  0  0  0  0  0  0  0  0  0
   -1.8509   -5.9707   -2.4793 C   0  0  0  0  0  0  0  0  0  0  0  0
   -1.4601   -3.8738   -0.1259 H   0  0  0  0  0  0  0  0  0  0  0  0
   -2.3445   -5.9288   -0.3778 H   0  0  0  0  0  0  0  0  0  0  0  0
   -0.9819   -5.8480   -3.1361 H   0  0  0  0  0  0  0  0  0  0  0  0
   -2.2697   -6.9648   -2.6674 H   0  0  0  0  0  0  0  0  0  0  0  0
   -2.5974   -5.2249   -2.7730 H   0  0  0  0  0  0  0  0  0  0  0  0
   -0.9286   -8.0741   -0.3932 N   0  0  0  0  0  0  0  0  0  0  0  0
   -0.1164   -9.2066   -0.0141 C   0  0  0  0  0  0  0  0  0  0  0  0
   -1.9329   -8.2115   -0.4575 H   0  0  0  0  0  0  0  0  0  0  0  0
    0.1898   -9.7572   -0.9158 H   0  0  0  0  0  0  0  0  0  0  0  0
    0.7775   -8.8538    0.5212 H   0  0  0  0  0  0  0  0  0  0  0  0
   -0.6978   -9.8715    0.6416 H   0  0  0  0  0  0  0  0  0  0  0  0
 18 19  1  0  0  0  0
 19 31  1  0  0  0  0
 19 20  2  0  0  0  0
  8  9  1  0  0  0  0
  9 17  1  0  0  0  0
  9 10  2  0  0  0  0
  1  3  1  0  0  0  0
  1  7  1  0  0  0  0
  1  2  2  0  0  0  0
 32 33  1  0  0  0  0
 33 41  1  0  0  0  0
 33 34  2  0  0  0  0
 21 22  1  0  0  0  0
 22 23  1  0  0  0  0
 18 21  1  0  0  0  0
 17 23  1  0  0  0  0
 17 18  1  0  0  0  0
  8 11  1  0  0  0  0
 32 35  1  0  0  0  0
 41 42  1  0  0  0  0
  7  8  1  0  0  0  0
 31 32  1  0  0  0  0
 22 27  1  0  0  0  0
 22 28  1  0  0  0  0
 21 25  1  0  0  0  0
 21 26  1  0  0  0  0
 23 29  1  0  0  0  0
 23 30  1  0  0  0  0
 18 24  1  0  0  0  0
  3  4  1  0  0  0  0
  3  5  1  0  0  0  0
  3  6  1  0  0  0  0
 11 14  1  0  0  0  0
 11 15  1  0  0  0  0
 11 16  1  0  0  0  0
 35 38  1  0  0  0  0
 35 39  1  0  0  0  0
 35 40  1  0  0  0  0
 42 44  1  0  0  0  0
 42 45  1  0  0  0  0
 42 46  1  0  0  0  0
  8 13  1  0  0  0  0
 32 37  1  0  0  0  0
 31 36  1  0  0  0  0
 41 43  1  0  0  0  0
  7 12  1  0  0  0  0
M  END
$$$$

  -OEChem-05262214473D

 46 46  0     1  0  0  0  0  0999 V2000
   -0.6012   -3.2995    3.8205 C   0  0  0  0  0  0  0  0  0  0  0  0
   -0.6574   -4.4683    3.4568 O   0  0  0  0  0  0  0  0  0  0  0  0
   -0.4935   -2.9859    5.2760 C   0  0  0  0  0  0  0  0  0  0  0  0
   -1.4789   -2.8689    5.7550 H   0  0  0  0  0  0  0  0  0  0  0  0
    0.0123   -3.7847    5.8419 H   0  0  0  0  0  0  0  0  0  0  0  0
    0.0585   -2.0642    5.5199 H   0  0  0  0  0  0  0  0  0  0  0  0
   -0.6261   -2.1849    2.9917 N   0  0  0  0  0  0  0  0  0  0  0  0
   -0.7237   -2.2601    1.5650 C   0  0  2  0  0  0  0  0  0  0  0  0
    0.1695   -1.1513    1.0687 C   0  0  0  0  0  0  0  0  0  0  0  0
    0.3193   -0.1267    1.7365 O   0  0  0  0  0  0  0  0  0  0  0  0
   -2.1397   -2.0663    1.0750 C   0  0  0  0  0  0  0  0  0  0  0  0
   -0.5717   -1.2606    3.4238 H   0  0  0  0  0  0  0  0  0  0  0  0
   -0.3076   -3.2111    1.2363 H   0  0  0  0  0  0  0  0  0  0  0  0
   -2.5584   -1.1089    1.4061 H   0  0  0  0  0  0  0  0  0  0  0  0
   -2.1682   -2.0790   -0.0197 H   0  0  0  0  0  0  0  0  0  0  0  0
   -2.7965   -2.8601    1.4459 H   0  0  0  0  0  0  0  0  0  0  0  0
    0.7724   -1.3745   -0.1593 N   0  0  0  0  0  0  0  0  0  0  0  0
    0.5614   -2.5964   -0.9244 C   0  0  2  0  0  0  0  0  0  0  0  0
   -0.3735   -3.4587   -0.1308 C   0  0  0  0  0  0  0  0  0  0  0  0
   -0.7927   -3.0604    0.9496 O   0  0  0  0  0  0  0  0  0  0  0  0
    1.9458   -3.2230   -1.0432 C   0  0  0  0  0  0  0  0  0  0  0  0
    2.2521   -1.7403   -0.8458 C   0  0  0  0  0  0  0  0  0  0  0  0
    1.5408   -0.3981   -0.9273 C   0  0  0  0  0  0  0  0  0  0  0  0
    0.1027   -2.3787   -1.8936 H   0  0  0  0  0  0  0  0  0  0  0  0
    2.0691   -3.6740   -2.0351 H   0  0  0  0  0  0  0  0  0  0  0  0
    2.1474   -3.9863   -0.2855 H   0  0  0  0  0  0  0  0  0  0  0  0
    2.5528   -1.5477    0.1905 H   0  0  0  0  0  0  0  0  0  0  0  0
    3.0524   -1.3926   -1.5053 H   0  0  0  0  0  0  0  0  0  0  0  0
    2.1327    0.4188   -0.5056 H   0  0  0  0  0  0  0  0  0  0  0  0
    1.2759   -0.1509   -1.9611 H   0  0  0  0  0  0  0  0  0  0  0  0
   -0.7065   -4.6360   -0.6478 N   0  0  0  0  0  0  0  0  0  0  0  0
   -1.0072   -6.0464   -0.7437 C   0  0  2  0  0  0  0  0  0  0  0  0
    0.1007   -6.8128   -0.0332 C   0  0  0  0  0  0  0  0  0  0  0  0
    1.2238   -6.3493    0.1533 O   0  0  0  0  0  0  0  0  0  0  0  0
   -1.1306   -6.4886   -2.1935 C   0  0  0  0  0  0  0  0  0  0  0  0
   -1.3865   -4.0257   -0.2043 H   0  0  0  0  0  0  0  0  0  0  0  0
   -1.9557   -6.2040   -0.2187 H   0  0  0  0  0  0  0  0  0  0  0  0
   -0.1899   -6.3383   -2.7356 H   0  0  0  0  0  0  0  0  0  0  0  0
   -1.3865   -7.5509   -2.2639 H   0  0  0  0  0  0  0  0  0  0  0  0
   -1.9076   -5.9156   -2.7109 H   0  0  0  0  0  0  0  0  0  0  0  0
   -0.2991   -8.0914    0.3296 N   0  0  0  0  0  0  0  0  0  0  0  0
    0.5768   -9.0196    1.0058 C   0  0  0  0  0  0  0  0  0  0  0  0
   -1.2551   -8.3852    0.1524 H   0  0  0  0  0  0  0  0  0  0  0  0
    1.0898   -9.6481    0.2629 H   0  0  0  0  0  0  0  0  0  0  0  0
    1.3223   -8.4606    1.5904 H   0  0  0  0  0  0  0  0  0  0  0  0
   -0.0145   -9.6571    1.6796 H   0  0  0  0  0  0  0  0  0  0  0  0
 18 19  1  0  0  0  0
 19 31  1  0  0  0  0
 19 20  2  0  0  0  0
  8  9  1  0  0  0  0
  9 17  1  0  0  0  0
  9 10  2  0  0  0  0
  1  3  1  0  0  0  0
  1  7  1  0  0  0  0
  1  2  2  0  0  0  0
 32 33  1  0  0  0  0
 33 41  1  0  0  0  0
 33 34  2  0  0  0  0
 21 22  1  0  0  0  0
 22 23  1  0  0  0  0
 18 21  1  0  0  0  0
 17 23  1  0  0  0  0
 17 18  1  0  0  0  0
  8 11  1  0  0  0  0
 32 35  1  0  0  0  0
 41 42  1  0  0  0  0
  7  8  1  0  0  0  0
 31 32  1  0  0  0  0
 22 27  1  0  0  0  0
 22 28  1  0  0  0  0
 21 25  1  0  0  0  0
 21 26  1  0  0  0  0
 23 29  1  0  0  0  0
 23 30  1  0  0  0  0
 18 24  1  0  0  0  0
  3  4  1  0  0  0  0
  3  5  1  0  0  0  0
  3  6  1  0  0  0  0
 11 14  1  0  0  0  0
 11 15  1  0  0  0  0
 11 16  1  0  0  0  0
 35 38  1  0  0  0  0
 35 39  1  0  0  0  0
 35 40  1  0  0  0  0
 42 44  1  0  0  0  0
 42 45  1  0  0  0  0
 42 46  1  0  0  0  0
  8 13  1  0  0  0  0
 32 37  1  0  0  0  0
 31 36  1  0  0  0  0
 41 43  1  0  0  0  0
  7 12  1  0  0  0  0
M  END
$$$$

  -OEChem-05262214473D

 46 46  0     1  0  0  0  0  0999 V2000
   -0.6012   -3.2995    3.8205 C   0  0  0  0  0  0  0  0  0  0  0  0
   -0.6574   -4.4683    3.4568 O   0  0  0  0  0  0  0  0  0  0  0  0
   -0.4935   -2.9859    5.2760 C   0  0  0  0  0  0  0  0  0  0  0  0
   -1.4789   -2.8689    5.7550 H   0  0  0  0  0  0  0  0  0  0  0  0
    0.0123   -3.7847    5.8419 H   0  0  0  0  0  0  0  0  0  0  0  0
    0.0585   -2.0642    5.5199 H   0  0  0  0  0  0  0  0  0  0  0  0
   -0.6261   -2.1849    2.9917 N   0  0  0  0  0  0  0  0  0  0  0  0
   -0.7237   -2.2601    1.5650 C   0  0  2  0  0  0  0  0  0  0  0  0
    0.1695   -1.1513    1.0687 C   0  0  0  0  0  0  0  0  0  0  0  0
    0.3193   -0.1267    1.7365 O   0  0  0  0  0  0  0  0  0  0  0  0
   -2.1397   -2.0663    1.0750 C   0  0  0  0  0  0  0  0  0  0  0  0
   -0.5717   -1.2606    3.4238 H   0  0  0  0  0  0  0  0  0  0  0  0
   -0.3076   -3.2111    1.2363 H   0  0  0  0  0  0  0  0  0  0  0  0
   -2.5584   -1.1089    1.4061 H   0  0  0  0  0  0  0  0  0  0  0  0
   -2.1682   -2.0790   -0.0197 H   0  0  0  0  0  0  0  0  0  0  0  0
   -2.7965   -2.8601    1.4459 H   0  0  0  0  0  0  0  0  0  0  0  0
    0.7724   -1.3745   -0.1593 N   0  0  0  0  0  0  0  0  0  0  0  0
    0.5614   -2.5964   -0.9244 C   0  0  2  0  0  0  0  0  0  0  0  0
   -0.3735   -3.4587   -0.1308 C   0  0  0  0  0  0  0  0  0  0  0  0
   -1.0067   -2.9688    0.7970 O   0  0  0  0  0  0  0  0  0  0  0  0
    1.9458   -3.2230   -1.0432 C   0  0  0  0  0  0  0  0  0  0  0  0
    2.2521   -1.7403   -0.8458 C   0  0  0  0  0  0  0  0  0  0  0  0
    1.5408   -0.3981   -0.9273 C   0  0  0  0  0  0  0  0  0  0  0  0
    0.1027   -2.3787   -1.8936 H   0  0  0  0  0  0  0  0  0  0  0  0
    2.0691   -3.6740   -2.0351 H   0  0  0  0  0  0  0  0  0  0  0  0
    2.1474   -3.9863   -0.2855 H   0  0  0  0  0  0  0  0  0  0  0  0
    2.5528   -1.5477    0.1905 H   0  0  0  0  0  0  0  0  0  0  0  0
    3.0524   -1.3926   -1.5053 H   0  0  0  0  0  0  0  0  0  0  0  0
    2.1327    0.4188   -0.5056 H   0  0  0  0  0  0  0  0  0  0  0  0
    1.2759   -0.1509   -1.9611 H   0  0  0  0  0  0  0  0  0  0  0  0
   -0.4699   -4.7369   -0.4787 N   0  0  0  0  0  0  0  0  0  0  0  0
   -0.5730   -6.1745   -0.3713 C   0  0  2  0  0  0  0  0  0  0  0  0
    0.4937   -6.6508    0.6058 C   0  0  0  0  0  0  0  0  0  0  0  0
    1.5058   -6.0021    0.8627 O   0  0  0  0  0  0  0  0  0  0  0  0
   -0.4065   -6.8440   -1.7266 C   0  0  0  0  0  0  0  0  0  0  0  0
   -1.2829   -4.1751   -0.2445 H   0  0  0  0  0  0  0  0  0  0  0  0
   -1.5661   -6.3908    0.0373 H   0  0  0  0  0  0  0  0  0  0  0  0
    0.5827   -6.6386   -2.1518 H   0  0  0  0  0  0  0  0  0  0  0  0
   -0.5133   -7.9309   -1.6480 H   0  0  0  0  0  0  0  0  0  0  0  0
   -1.1560   -6.4782   -2.4367 H   0  0  0  0  0  0  0  0  0  0  0  0
    0.2037   -7.9051    1.1244 N   0  0  0  0  0  0  0  0  0  0  0  0
    1.0690   -8.5793    2.0640 C   0  0  0  0  0  0  0  0  0  0  0  0
   -0.6673   -8.3617    0.8704 H   0  0  0  0  0  0  0  0  0  0  0  0
    1.7686   -9.2291    1.5179 H   0  0  0  0  0  0  0  0  0  0  0  0
    1.6356   -7.8335    2.6408 H   0  0  0  0  0  0  0  0  0  0  0  0
    0.4616   -9.1887    2.7494 H   0  0  0  0  0  0  0  0  0  0  0  0
 18 19  1  0  0  0  0
 19 31  1  0  0  0  0
 19 20  2  0  0  0  0
  8  9  1  0  0  0  0
  9 17  1  0  0  0  0
  9 10  2  0  0  0  0
  1  3  1  0  0  0  0
  1  7  1  0  0  0  0
  1  2  2  0  0  0  0
 32 33  1  0  0  0  0
 33 41  1  0  0  0  0
 33 34  2  0  0  0  0
 21 22  1  0  0  0  0
 22 23  1  0  0  0  0
 18 21  1  0  0  0  0
 17 23  1  0  0  0  0
 17 18  1  0  0  0  0
  8 11  1  0  0  0  0
 32 35  1  0  0  0  0
 41 42  1  0  0  0  0
  7  8  1  0  0  0  0
 31 32  1  0  0  0  0
 22 27  1  0  0  0  0
 22 28  1  0  0  0  0
 21 25  1  0  0  0  0
 21 26  1  0  0  0  0
 23 29  1  0  0  0  0
 23 30  1  0  0  0  0
 18 24  1  0  0  0  0
  3  4  1  0  0  0  0
  3  5  1  0  0  0  0
  3  6  1  0  0  0  0
 11 14  1  0  0  0  0
 11 15  1  0  0  0  0
 11 16  1  0  0  0  0
 35 38  1  0  0  0  0
 35 39  1  0  0  0  0
 35 40  1  0  0  0  0
 42 44  1  0  0  0  0
 42 45  1  0  0  0  0
 42 46  1  0  0  0  0
  8 13  1  0  0  0  0
 32 37  1  0  0  0  0
 31 36  1  0  0  0  0
 41 43  1  0  0  0  0
  7 12  1  0  0  0  0
M  END
$$$$

  -OEChem-05262214473D

 46 46  0     1  0  0  0  0  0999 V2000
   -0.6012   -3.2995    3.8205 C   0  0  0  0  0  0  0  0  0  0  0  0
   -0.6574   -4.4683    3.4568 O   0  0  0  0  0  0  0  0  0  0  0  0
   -0.4935   -2.9859    5.2760 C   0  0  0  0  0  0  0  0  0  0  0  0
   -1.4789   -2.8689    5.7550 H   0  0  0  0  0  0  0  0  0  0  0  0
    0.0123   -3.7847    5.8419 H   0  0  0  0  0  0  0  0  0  0  0  0
    0.0585   -2.0642    5.5199 H   0  0  0  0  0  0  0  0  0  0  0  0
   -0.6261   -2.1849    2.9917 N   0  0  0  0  0  0  0  0  0  0  0  0
   -0.7237   -2.2601    1.5650 C   0  0  2  0  0  0  0  0  0  0  0  0
    0.1695   -1.1513    1.0687 C   0  0  0  0  0  0  0  0  0  0  0  0
    0.3193   -0.1267    1.7365 O   0  0  0  0  0  0  0  0  0  0  0  0
   -2.1397   -2.0663    1.0750 C   0  0  0  0  0  0  0  0  0  0  0  0
   -0.5717   -1.2606    3.4238 H   0  0  0  0  0  0  0  0  0  0  0  0
   -0.3076   -3.2111    1.2363 H   0  0  0  0  0  0  0  0  0  0  0  0
   -2.5584   -1.1089    1.4061 H   0  0  0  0  0  0  0  0  0  0  0  0
   -2.1682   -2.0790   -0.0197 H   0  0  0  0  0  0  0  0  0  0  0  0
   -2.7965   -2.8601    1.4459 H   0  0  0  0  0  0  0  0  0  0  0  0
    0.7724   -1.3745   -0.1593 N   0  0  0  0  0  0  0  0  0  0  0  0
    0.5614   -2.5964   -0.9244 C   0  0  2  0  0  0  0  0  0  0  0  0
   -0.3735   -3.4587   -0.1308 C   0  0  0  0  0  0  0  0  0  0  0  0
   -1.2032   -2.9344    0.6030 O   0  0  0  0  0  0  0  0  0  0  0  0
    1.9458   -3.2230   -1.0432 C   0  0  0  0  0  0  0  0  0  0  0  0
    2.2521   -1.7403   -0.8458 C   0  0  0  0  0  0  0  0  0  0  0  0
    1.5408   -0.3981   -0.9273 C   0  0  0  0  0  0  0  0  0  0  0  0
    0.1027   -2.3787   -1.8936 H   0  0  0  0  0  0  0  0  0  0  0  0
    2.0691   -3.6740   -2.0351 H   0  0  0  0  0  0  0  0  0  0  0  0
    2.1474   -3.9863   -0.2855 H   0  0  0  0  0  0  0  0  0  0  0  0
    2.5528   -1.5477    0.1905 H   0  0  0  0  0  0  0  0  0  0  0  0
    3.0524   -1.3926   -1.5053 H   0  0  0  0  0  0  0  0  0  0  0  0
    2.1327    0.4188   -0.5056 H   0  0  0  0  0  0  0  0  0  0  0  0
    1.2759   -0.1509   -1.9611 H   0  0  0  0  0  0  0  0  0  0  0  0
   -0.2527   -4.7747   -0.2639 N   0  0  0  0  0  0  0  0  0  0  0  0
   -0.1914   -6.1787    0.0737 C   0  0  2  0  0  0  0  0  0  0  0  0
    0.7560   -6.3374    1.2554 C   0  0  0  0  0  0  0  0  0  0  0  0
    1.6249   -5.5136    1.5339 O   0  0  0  0  0  0  0  0  0  0  0  0
    0.2722   -7.0127   -1.1105 C   0  0  0  0  0  0  0  0  0  0  0  0
   -1.1563   -4.3116   -0.2438 H   0  0  0  0  0  0  0  0  0  0  0  0
   -1.2023   -6.4765    0.3727 H   0  0  0  0  0  0  0  0  0  0  0  0
    1.2832   -6.7287   -1.4244 H   0  0  0  0  0  0  0  0  0  0  0  0
    0.2907   -8.0790   -0.8618 H   0  0  0  0  0  0  0  0  0  0  0  0
   -0.3937   -6.8743   -1.9692 H   0  0  0  0  0  0  0  0  0  0  0  0
    0.5456   -7.5280    1.9369 N   0  0  0  0  0  0  0  0  0  0  0  0
    1.3265   -7.9158    3.0883 C   0  0  0  0  0  0  0  0  0  0  0  0
   -0.2097   -8.1425    1.6476 H   0  0  0  0  0  0  0  0  0  0  0  0
    2.1801   -8.5289    2.7635 H   0  0  0  0  0  0  0  0  0  0  0  0
    1.6959   -7.0153    3.6009 H   0  0  0  0  0  0  0  0  0  0  0  0
    0.6981   -8.4985    3.7780 H   0  0  0  0  0  0  0  0  0  0  0  0
 18 19  1  0  0  0  0
 19 31  1  0  0  0  0
 19 20  2  0  0  0  0
  8  9  1  0  0  0  0
  9 17  1  0  0  0  0
  9 10  2  0  0  0  0
  1  3  1  0  0  0  0
  1  7  1  0  0  0  0
  1  2  2  0  0  0  0
 32 33  1  0  0  0  0
 33 41  1  0  0  0  0
 33 34  2  0  0  0  0
 21 22  1  0  0  0  0
 22 23  1  0  0  0  0
 18 21  1  0  0  0  0
 17 23  1  0  0  0  0
 17 18  1  0  0  0  0
  8 11  1  0  0  0  0
 32 35  1  0  0  0  0
 41 42  1  0  0  0  0
  7  8  1  0  0  0  0
 31 32  1  0  0  0  0
 22 27  1  0  0  0  0
 22 28  1  0  0  0  0
 21 25  1  0  0  0  0
 21 26  1  0  0  0  0
 23 29  1  0  0  0  0
 23 30  1  0  0  0  0
 18 24  1  0  0  0  0
  3  4  1  0  0  0  0
  3  5  1  0  0  0  0
  3  6  1  0  0  0  0
 11 14  1  0  0  0  0
 11 15  1  0  0  0  0
 11 16  1  0  0  0  0
 35 38  1  0  0  0  0
 35 39  1  0  0  0  0
 35 40  1  0  0  0  0
 42 44  1  0  0  0  0
 42 45  1  0  0  0  0
 42 46  1  0  0  0  0
  8 13  1  0  0  0  0
 32 37  1  0  0  0  0
 31 36  1  0  0  0  0
 41 43  1  0  0  0  0
  7 12  1  0  0  0  0
M  END
$$$$

  -OEChem-05262214473D

 46 46  0     1  0  0  0  0  0999 V2000
   -0.6012   -3.2995    3.8205 C   0  0  0  0  0  0  0  0  0  0  0  0
   -0.6574   -4.4683    3.4568 O   0  0  0  0  0  0  0  0  0  0  0  0
   -0.4935   -2.9859    5.2760 C   0  0  0  0  0  0  0  0  0  0  0  0
   -1.4789   -2.8689    5.7550 H   0  0  0  0  0  0  0  0  0  0  0  0
    0.0123   -3.7847    5.8419 H   0  0  0  0  0  0  0  0  0  0  0  0
    0.0585   -2.0642    5.5199 H   0  0  0  0  0  0  0  0  0  0  0  0
   -0.6261   -2.1849    2.9917 N   0  0  0  0  0  0  0  0  0  0  0  0
   -0.7237   -2.2601    1.5650 C   0  0  2  0  0  0  0  0  0  0  0  0
    0.1695   -1.1513    1.0687 C   0  0  0  0  0  0  0  0  0  0  0  0
    0.3193   -0.1267    1.7365 O   0  0  0  0  0  0  0  0  0  0  0  0
   -2.1397   -2.0663    1.0750 C   0  0  0  0  0  0  0  0  0  0  0  0
   -0.5717   -1.2606    3.4238 H   0  0  0  0  0  0  0  0  0  0  0  0
   -0.3076   -3.2111    1.2363 H   0  0  0  0  0  0  0  0  0  0  0  0
   -2.5584   -1.1089    1.4061 H   0  0  0  0  0  0  0  0  0  0  0  0
   -2.1682   -2.0790   -0.0197 H   0  0  0  0  0  0  0  0  0  0  0  0
   -2.7965   -2.8601    1.4459 H   0  0  0  0  0  0  0  0  0  0  0  0
    0.7724   -1.3745   -0.1593 N   0  0  0  0  0  0  0  0  0  0  0  0
    0.5614   -2.5964   -0.9244 C   0  0  2  0  0  0  0  0  0  0  0  0
   -0.3735   -3.4587   -0.1308 C   0  0  0  0  0  0  0  0  0  0  0  0
   -1.3688   -2.9593    0.3807 O   0  0  0  0  0  0  0  0  0  0  0  0
    1.9458   -3.2230   -1.0432 C   0  0  0  0  0  0  0  0  0  0  0  0
    2.2521   -1.7403   -0.8458 C   0  0  0  0  0  0  0  0  0  0  0  0
    1.5408   -0.3981   -0.9273 C   0  0  0  0  0  0  0  0  0  0  0  0
    0.1027   -2.3787   -1.8936 H   0  0  0  0  0  0  0  0  0  0  0  0
    2.0691   -3.6740   -2.0351 H   0  0  0  0  0  0  0  0  0  0  0  0
    2.1474   -3.9863   -0.2855 H   0  0  0  0  0  0  0  0  0  0  0  0
    2.5528   -1.5477    0.1905 H   0  0  0  0  0  0  0  0  0  0  0  0
    3.0524   -1.3926   -1.5053 H   0  0  0  0  0  0  0  0  0  0  0  0
    2.1327    0.4188   -0.5056 H   0  0  0  0  0  0  0  0  0  0  0  0
    1.2759   -0.1509   -1.9611 H   0  0  0  0  0  0  0  0  0  0  0  0
   -0.0697   -4.7467   -0.0179 N   0  0  0  0  0  0  0  0  0  0  0  0
    0.1115   -6.0586    0.5610 C   0  0  2  0  0  0  0  0  0  0  0  0
    0.8698   -5.8938    1.8714 C   0  0  0  0  0  0  0  0  0  0  0  0
    1.5732   -4.9171    2.1211 O   0  0  0  0  0  0  0  0  0  0  0  0
    0.8591   -6.9833   -0.3871 C   0  0  0  0  0  0  0  0  0  0  0  0
   -1.0155   -4.4261   -0.2023 H   0  0  0  0  0  0  0  0  0  0  0  0
   -0.8891   -6.4553    0.7647 H   0  0  0  0  0  0  0  0  0  0  0  0
    1.8639   -6.6023   -0.6030 H   0  0  0  0  0  0  0  0  0  0  0  0
    0.9704   -7.9849    0.0412 H   0  0  0  0  0  0  0  0  0  0  0  0
    0.3273   -7.0771   -1.3401 H   0  0  0  0  0  0  0  0  0  0  0  0
    0.7032   -6.9858    2.7117 N   0  0  0  0  0  0  0  0  0  0  0  0
    1.3318   -7.0743    4.0090 C   0  0  0  0  0  0  0  0  0  0  0  0
    0.0866   -7.7427    2.4311 H   0  0  0  0  0  0  0  0  0  0  0  0
    2.2961   -7.5951    3.9149 H   0  0  0  0  0  0  0  0  0  0  0  0
    1.4991   -6.0618    4.4051 H   0  0  0  0  0  0  0  0  0  0  0  0
    0.6788   -7.6333    4.6953 H   0  0  0  0  0  0  0  0  0  0  0  0
 18 19  1  0  0  0  0
 19 31  1  0  0  0  0
 19 20  2  0  0  0  0
  8  9  1  0  0  0  0
  9 17  1  0  0  0  0
  9 10  2  0  0  0  0
  1  3  1  0  0  0  0
  1  7  1  0  0  0  0
  1  2  2  0  0  0  0
 32 33  1  0  0  0  0
 33 41  1  0  0  0  0
 33 34  2  0  0  0  0
 21 22  1  0  0  0  0
 22 23  1  0  0  0  0
 18 21  1  0  0  0  0
 17 23  1  0  0  0  0
 17 18  1  0  0  0  0
  8 11  1  0  0  0  0
 32 35  1  0  0  0  0
 41 42  1  0  0  0  0
  7  8  1  0  0  0  0
 31 32  1  0  0  0  0
 22 27  1  0  0  0  0
 22 28  1  0  0  0  0
 21 25  1  0  0  0  0
 21 26  1  0  0  0  0
 23 29  1  0  0  0  0
 23 30  1  0  0  0  0
 18 24  1  0  0  0  0
  3  4  1  0  0  0  0
  3  5  1  0  0  0  0
  3  6  1  0  0  0  0
 11 14  1  0  0  0  0
 11 15  1  0  0  0  0
 11 16  1  0  0  0  0
 35 38  1  0  0  0  0
 35 39  1  0  0  0  0
 35 40  1  0  0  0  0
 42 44  1  0  0  0  0
 42 45  1  0  0  0  0
 42 46  1  0  0  0  0
  8 13  1  0  0  0  0
 32 37  1  0  0  0  0
 31 36  1  0  0  0  0
 41 43  1  0  0  0  0
  7 12  1  0  0  0  0
M  END
$$$$

  -OEChem-05262214473D

 46 46  0     1  0  0  0  0  0999 V2000
   -0.6012   -3.2995    3.8205 C   0  0  0  0  0  0  0  0  0  0  0  0
   -0.6574   -4.4683    3.4568 O   0  0  0  0  0  0  0  0  0  0  0  0
   -0.4935   -2.9859    5.2760 C   0  0  0  0  0  0  0  0  0  0  0  0
   -1.4789   -2.8689    5.7550 H   0  0  0  0  0  0  0  0  0  0  0  0
    0.0123   -3.7847    5.8419 H   0  0  0  0  0  0  0  0  0  0  0  0
    0.0585   -2.0642    5.5199 H   0  0  0  0  0  0  0  0  0  0  0  0
   -0.6261   -2.1849    2.9917 N   0  0  0  0  0  0  0  0  0  0  0  0
   -0.7237   -2.2601    1.5650 C   0  0  2  0  0  0  0  0  0  0  0  0
    0.1695   -1.1513    1.0687 C   0  0  0  0  0  0  0  0  0  0  0  0
    0.3193   -0.1267    1.7365 O   0  0  0  0  0  0  0  0  0  0  0  0
   -2.1397   -2.0663    1.0750 C   0  0  0  0  0  0  0  0  0  0  0  0
   -0.5717   -1.2606    3.4238 H   0  0  0  0  0  0  0  0  0  0  0  0
   -0.3076   -3.2111    1.2363 H   0  0  0  0  0  0  0  0  0  0  0  0
   -2.5584   -1.1089    1.4061 H   0  0  0  0  0  0  0  0  0  0  0  0
   -2.1682   -2.0790   -0.0197 H   0  0  0  0  0  0  0  0  0  0  0  0
   -2.7965   -2.8601    1.4459 H   0  0  0  0  0  0  0  0  0  0  0  0
    0.7724   -1.3745   -0.1593 N   0  0  0  0  0  0  0  0  0  0  0  0
    0.5614   -2.5964   -0.9244 C   0  0  2  0  0  0  0  0  0  0  0  0
   -0.3735   -3.4587   -0.1308 C   0  0  0  0  0  0  0  0  0  0  0  0
   -1.4923   -3.0420    0.1454 O   0  0  0  0  0  0  0  0  0  0  0  0
    1.9458   -3.2230   -1.0432 C   0  0  0  0  0  0  0  0  0  0  0  0
    2.2521   -1.7403   -0.8458 C   0  0  0  0  0  0  0  0  0  0  0  0
    1.5408   -0.3981   -0.9273 C   0  0  0  0  0  0  0  0  0  0  0  0
    0.1027   -2.3787   -1.8936 H   0  0  0  0  0  0  0  0  0  0  0  0
    2.0691   -3.6740   -2.0351 H   0  0  0  0  0  0  0  0  0  0  0  0
    2.1474   -3.9863   -0.2855 H   0  0  0  0  0  0  0  0  0  0  0  0
    2.5528   -1.5477    0.1905 H   0  0  0  0  0  0  0  0  0  0  0  0
    3.0524   -1.3926   -1.5053 H   0  0  0  0  0  0  0  0  0  0  0  0
    2.1327    0.4188   -0.5056 H   0  0  0  0  0  0  0  0  0  0  0  0
    1.2759   -0.1509   -1.9611 H   0  0  0  0  0  0  0  0  0  0  0  0
    0.0666   -4.6550    0.2424 N   0  0  0  0  0  0  0  0  0  0  0  0
    0.3150   -5.8225    1.0574 C   0  0  2  0  0  0  0  0  0  0  0  0
    0.8272   -5.3504    2.4117 C   0  0  0  0  0  0  0  0  0  0  0  0
    1.3540   -4.2532    2.5843 O   0  0  0  0  0  0  0  0  0  0  0  0
    1.3143   -6.7577    0.3943 C   0  0  0  0  0  0  0  0  0  0  0  0
   -0.8700   -4.5106   -0.1227 H   0  0  0  0  0  0  0  0  0  0  0  0
   -0.6478   -6.3287    1.1866 H   0  0  0  0  0  0  0  0  0  0  0  0
    2.2852   -6.2680    0.2565 H   0  0  0  0  0  0  0  0  0  0  0  0
    1.4797   -7.6552    0.9995 H   0  0  0  0  0  0  0  0  0  0  0  0
    0.9579   -7.0727   -0.5924 H   0  0  0  0  0  0  0  0  0  0  0  0
    0.6657   -6.3154    3.3960 N   0  0  0  0  0  0  0  0  0  0  0  0
    1.0846   -6.1121    4.7632 C   0  0  0  0  0  0  0  0  0  0  0  0
    0.2014   -7.1894    3.1675 H   0  0  0  0  0  0  0  0  0  0  0  0
    2.1089   -6.4913    4.8937 H   0  0  0  0  0  0  0  0  0  0  0  0
    1.0586   -5.0380    4.9987 H   0  0  0  0  0  0  0  0  0  0  0  0
    0.4050   -6.6522    5.4389 H   0  0  0  0  0  0  0  0  0  0  0  0
 18 19  1  0  0  0  0
 19 31  1  0  0  0  0
 19 20  2  0  0  0  0
  8  9  1  0  0  0  0
  9 17  1  0  0  0  0
  9 10  2  0  0  0  0
  1  3  1  0  0  0  0
  1  7  1  0  0  0  0
  1  2  2  0  0  0  0
 32 33  1  0  0  0  0
 33 41  1  0  0  0  0
 33 34  2  0  0  0  0
 21 22  1  0  0  0  0
 22 23  1  0  0  0  0
 18 21  1  0  0  0  0
 17 23  1  0  0  0  0
 17 18  1  0  0  0  0
  8 11  1  0  0  0  0
 32 35  1  0  0  0  0
 41 42  1  0  0  0  0
  7  8  1  0  0  0  0
 31 32  1  0  0  0  0
 22 27  1  0  0  0  0
 22 28  1  0  0  0  0
 21 25  1  0  0  0  0
 21 26  1  0  0  0  0
 23 29  1  0  0  0  0
 23 30  1  0  0  0  0
 18 24  1  0  0  0  0
  3  4  1  0  0  0  0
  3  5  1  0  0  0  0
  3  6  1  0  0  0  0
 11 14  1  0  0  0  0
 11 15  1  0  0  0  0
 11 16  1  0  0  0  0
 35 38  1  0  0  0  0
 35 39  1  0  0  0  0
 35 40  1  0  0  0  0
 42 44  1  0  0  0  0
 42 45  1  0  0  0  0
 42 46  1  0  0  0  0
  8 13  1  0  0  0  0
 32 37  1  0  0  0  0
 31 36  1  0  0  0  0
 41 43  1  0  0  0  0
  7 12  1  0  0  0  0
M  END
$$$$

  -OEChem-05262214473D

 46 46  0     1  0  0  0  0  0999 V2000
   -0.6012   -3.2995    3.8205 C   0  0  0  0  0  0  0  0  0  0  0  0
   -0.6574   -4.4683    3.4568 O   0  0  0  0  0  0  0  0  0  0  0  0
   -0.4935   -2.9859    5.2760 C   0  0  0  0  0  0  0  0  0  0  0  0
   -1.4789   -2.8689    5.7550 H   0  0  0  0  0  0  0  0  0  0  0  0
    0.0123   -3.7847    5.8419 H   0  0  0  0  0  0  0  0  0  0  0  0
    0.0585   -2.0642    5.5199 H   0  0  0  0  0  0  0  0  0  0  0  0
   -0.6261   -2.1849    2.9917 N   0  0  0  0  0  0  0  0  0  0  0  0
   -0.7237   -2.2601    1.5650 C   0  0  2  0  0  0  0  0  0  0  0  0
    0.1695   -1.1513    1.0687 C   0  0  0  0  0  0  0  0  0  0  0  0
    0.3193   -0.1267    1.7365 O   0  0  0  0  0  0  0  0  0  0  0  0
   -2.1397   -2.0663    1.0750 C   0  0  0  0  0  0  0  0  0  0  0  0
   -0.5717   -1.2606    3.4238 H   0  0  0  0  0  0  0  0  0  0  0  0
   -0.3076   -3.2111    1.2363 H   0  0  0  0  0  0  0  0  0  0  0  0
   -2.5584   -1.1089    1.4061 H   0  0  0  0  0  0  0  0  0  0  0  0
   -2.1682   -2.0790   -0.0197 H   0  0  0  0  0  0  0  0  0  0  0  0
   -2.7965   -2.8601    1.4459 H   0  0  0  0  0  0  0  0  0  0  0  0
    0.7724   -1.3745   -0.1593 N   0  0  0  0  0  0  0  0  0  0  0  0
    0.5614   -2.5964   -0.9244 C   0  0  2  0  0  0  0  0  0  0  0  0
   -0.3735   -3.4587   -0.1308 C   0  0  0  0  0  0  0  0  0  0  0  0
   -1.5653   -3.1767   -0.0869 O   0  0  0  0  0  0  0  0  0  0  0  0
    1.9458   -3.2230   -1.0432 C   0  0  0  0  0  0  0  0  0  0  0  0
    2.2521   -1.7403   -0.8458 C   0  0  0  0  0  0  0  0  0  0  0  0
    1.5408   -0.3981   -0.9273 C   0  0  0  0  0  0  0  0  0  0  0  0
    0.1027   -2.3787   -1.8936 H   0  0  0  0  0  0  0  0  0  0  0  0
    2.0691   -3.6740   -2.0351 H   0  0  0  0  0  0  0  0  0  0  0  0
    2.1474   -3.9863   -0.2855 H   0  0  0  0  0  0  0  0  0  0  0  0
    2.5528   -1.5477    0.1905 H   0  0  0  0  0  0  0  0  0  0  0  0
    3.0524   -1.3926   -1.5053 H   0  0  0  0  0  0  0  0  0  0  0  0
    2.1327    0.4188   -0.5056 H   0  0  0  0  0  0  0  0  0  0  0  0
    1.2759   -0.1509   -1.9611 H   0  0  0  0  0  0  0  0  0  0  0  0
    0.1470   -4.5057    0.4993 N   0  0  0  0  0  0  0  0  0  0  0  0
    0.4054   -5.4864    1.5290 C   0  0  2  0  0  0  0  0  0  0  0  0
    0.6311   -4.7441    2.8395 C   0  0  0  0  0  0  0  0  0  0  0  0
    0.9825   -3.5673    2.8920 O   0  0  0  0  0  0  0  0  0  0  0  0
    1.6067   -6.3513    1.1804 C   0  0  0  0  0  0  0  0  0  0  0  0
   -0.7297   -4.5595   -0.0105 H   0  0  0  0  0  0  0  0  0  0  0  0
   -0.4949   -6.1052    1.6095 H   0  0  0  0  0  0  0  0  0  0  0  0
    2.5184   -5.7487    1.0955 H   0  0  0  0  0  0  0  0  0  0  0  0
    1.7838   -7.1122    1.9477 H   0  0  0  0  0  0  0  0  0  0  0  0
    1.4551   -6.8613    0.2230 H   0  0  0  0  0  0  0  0  0  0  0  0
    0.4358   -5.5625    3.9433 N   0  0  0  0  0  0  0  0  0  0  0  0
    0.6017   -5.0949    5.2997 C   0  0  0  0  0  0  0  0  0  0  0  0
    0.1268   -6.5204    3.8066 H   0  0  0  0  0  0  0  0  0  0  0  0
    1.6311   -5.2929    5.6330 H   0  0  0  0  0  0  0  0  0  0  0  0
    0.4045   -4.0135    5.3413 H   0  0  0  0  0  0  0  0  0  0  0  0
   -0.1045   -5.6220    5.9580 H   0  0  0  0  0  0  0  0  0  0  0  0
 18 19  1  0  0  0  0
 19 31  1  0  0  0  0
 19 20  2  0  0  0  0
  8  9  1  0  0  0  0
  9 17  1  0  0  0  0
  9 10  2  0  0  0  0
  1  3  1  0  0  0  0
  1  7  1  0  0  0  0
  1  2  2  0  0  0  0
 32 33  1  0  0  0  0
 33 41  1  0  0  0  0
 33 34  2  0  0  0  0
 21 22  1  0  0  0  0
 22 23  1  0  0  0  0
 18 21  1  0  0  0  0
 17 23  1  0  0  0  0
 17 18  1  0  0  0  0
  8 11  1  0  0  0  0
 32 35  1  0  0  0  0
 41 42  1  0  0  0  0
  7  8  1  0  0  0  0
 31 32  1  0  0  0  0
 22 27  1  0  0  0  0
 22 28  1  0  0  0  0
 21 25  1  0  0  0  0
 21 26  1  0  0  0  0
 23 29  1  0  0  0  0
 23 30  1  0  0  0  0
 18 24  1  0  0  0  0
  3  4  1  0  0  0  0
  3  5  1  0  0  0  0
  3  6  1  0  0  0  0
 11 14  1  0  0  0  0
 11 15  1  0  0  0  0
 11 16  1  0  0  0  0
 35 38  1  0  0  0  0
 35 39  1  0  0  0  0
 35 40  1  0  0  0  0
 42 44  1  0  0  0  0
 42 45  1  0  0  0  0
 42 46  1  0  0  0  0
  8 13  1  0  0  0  0
 32 37  1  0  0  0  0
 31 36  1  0  0  0  0
 41 43  1  0  0  0  0
  7 12  1  0  0  0  0
M  END
$$$$

  -OEChem-05262214473D

 46 46  0     1  0  0  0  0  0999 V2000
   -0.6012   -3.2995    3.8205 C   0  0  0  0  0  0  0  0  0  0  0  0
   -0.6574   -4.4683    3.4568 O   0  0  0  0  0  0  0  0  0  0  0  0
   -0.4935   -2.9859    5.2760 C   0  0  0  0  0  0  0  0  0  0  0  0
   -1.4789   -2.8689    5.7550 H   0  0  0  0  0  0  0  0  0  0  0  0
    0.0123   -3.7847    5.8419 H   0  0  0  0  0  0  0  0  0  0  0  0
    0.0585   -2.0642    5.5199 H   0  0  0  0  0  0  0  0  0  0  0  0
   -0.6261   -2.1849    2.9917 N   0  0  0  0  0  0  0  0  0  0  0  0
   -0.7237   -2.2601    1.5650 C   0  0  2  0  0  0  0  0  0  0  0  0
    0.1695   -1.1513    1.0687 C   0  0  0  0  0  0  0  0  0  0  0  0
    0.3193   -0.1267    1.7365 O   0  0  0  0  0  0  0  0  0  0  0  0
   -2.1397   -2.0663    1.0750 C   0  0  0  0  0  0  0  0  0  0  0  0
   -0.5717   -1.2606    3.4238 H   0  0  0  0  0  0  0  0  0  0  0  0
   -0.3076   -3.2111    1.2363 H   0  0  0  0  0  0  0  0  0  0  0  0
   -2.5584   -1.1089    1.4061 H   0  0  0  0  0  0  0  0  0  0  0  0
   -2.1682   -2.0790   -0.0197 H   0  0  0  0  0  0  0  0  0  0  0  0
   -2.7965   -2.8601    1.4459 H   0  0  0  0  0  0  0  0  0  0  0  0
    0.7724   -1.3745   -0.1593 N   0  0  0  0  0  0  0  0  0  0  0  0
    0.5614   -2.5964   -0.9244 C   0  0  2  0  0  0  0  0  0  0  0  0
   -0.3735   -3.4587   -0.1308 C   0  0  0  0  0  0  0  0  0  0  0  0
   -1.5827   -3.3544   -0.3005 O   0  0  0  0  0  0  0  0  0  0  0  0
    1.9458   -3.2230   -1.0432 C   0  0  0  0  0  0  0  0  0  0  0  0
    2.2521   -1.7403   -0.8458 C   0  0  0  0  0  0  0  0  0  0  0  0
    1.5408   -0.3981   -0.9273 C   0  0  0  0  0  0  0  0  0  0  0  0
    0.1027   -2.3787   -1.8936 H   0  0  0  0  0  0  0  0  0  0  0  0
    2.0691   -3.6740   -2.0351 H   0  0  0  0  0  0  0  0  0  0  0  0
    2.1474   -3.9863   -0.2855 H   0  0  0  0  0  0  0  0  0  0  0  0
    2.5528   -1.5477    0.1905 H   0  0  0  0  0  0  0  0  0  0  0  0
    3.0524   -1.3926   -1.5053 H   0  0  0  0  0  0  0  0  0  0  0  0
    2.1327    0.4188   -0.5056 H   0  0  0  0  0  0  0  0  0  0  0  0
    1.2759   -0.1509   -1.9611 H   0  0  0  0  0  0  0  0  0  0  0  0
    0.1659   -4.3090    0.7353 N   0  0  0  0  0  0  0  0  0  0  0  0
    0.3765   -5.0733    1.9438 C   0  0  2  0  0  0  0  0  0  0  0  0
    0.2949   -4.1162    3.1258 C   0  0  0  0  0  0  0  0  0  0  0  0
    0.4838   -2.9059    3.0231 O   0  0  0  0  0  0  0  0  0  0  0  0
    1.7165   -5.7918    1.9177 C   0  0  0  0  0  0  0  0  0  0  0  0
   -0.6042   -4.5694    0.1266 H   0  0  0  0  0  0  0  0  0  0  0  0
   -0.4408   -5.8002    2.0047 H   0  0  0  0  0  0  0  0  0  0  0  0
    2.5475   -5.0797    1.8568 H   0  0  0  0  0  0  0  0  0  0  0  0
    1.8620   -6.3931    2.8212 H   0  0  0  0  0  0  0  0  0  0  0  0
    1.7849   -6.4574    1.0505 H   0  0  0  0  0  0  0  0  0  0  0  0
    0.0291   -4.7784    4.3161 N   0  0  0  0  0  0  0  0  0  0  0  0
   -0.0840   -4.0919    5.5818 C   0  0  0  0  0  0  0  0  0  0  0  0
   -0.1320   -5.7813    4.3049 H   0  0  0  0  0  0  0  0  0  0  0  0
    0.8953   -4.0814    6.0826 H   0  0  0  0  0  0  0  0  0  0  0  0
   -0.4187   -3.0583    5.4095 H   0  0  0  0  0  0  0  0  0  0  0  0
   -0.8152   -4.6129    6.2173 H   0  0  0  0  0  0  0  0  0  0  0  0
 18 19  1  0  0  0  0
 19 31  1  0  0  0  0
 19 20  2  0  0  0  0
  8  9  1  0  0  0  0
  9 17  1  0  0  0  0
  9 10  2  0  0  0  0
  1  3  1  0  0  0  0
  1  7  1  0  0  0  0
  1  2  2  0  0  0  0
 32 33  1  0  0  0  0
 33 41  1  0  0  0  0
 33 34  2  0  0  0  0
 21 22  1  0  0  0  0
 22 23  1  0  0  0  0
 18 21  1  0  0  0  0
 17 23  1  0  0  0  0
 17 18  1  0  0  0  0
  8 11  1  0  0  0  0
 32 35  1  0  0  0  0
 41 42  1  0  0  0  0
  7  8  1  0  0  0  0
 31 32  1  0  0  0  0
 22 27  1  0  0  0  0
 22 28  1  0  0  0  0
 21 25  1  0  0  0  0
 21 26  1  0  0  0  0
 23 29  1  0  0  0  0
 23 30  1  0  0  0  0
 18 24  1  0  0  0  0
  3  4  1  0  0  0  0
  3  5  1  0  0  0  0
  3  6  1  0  0  0  0
 11 14  1  0  0  0  0
 11 15  1  0  0  0  0
 11 16  1  0  0  0  0
 35 38  1  0  0  0  0
 35 39  1  0  0  0  0
 35 40  1  0  0  0  0
 42 44  1  0  0  0  0
 42 45  1  0  0  0  0
 42 46  1  0  0  0  0
  8 13  1  0  0  0  0
 32 37  1  0  0  0  0
 31 36  1  0  0  0  0
 41 43  1  0  0  0  0
  7 12  1  0  0  0  0
M  END
$$$$

  -OEChem-05262214473D

 46 46  0     1  0  0  0  0  0999 V2000
   -0.6012   -3.2995    3.8205 C   0  0  0  0  0  0  0  0  0  0  0  0
   -0.6574   -4.4683    3.4568 O   0  0  0  0  0  0  0  0  0  0  0  0
   -0.4935   -2.9859    5.2760 C   0  0  0  0  0  0  0  0  0  0  0  0
   -1.4789   -2.8689    5.7550 H   0  0  0  0  0  0  0  0  0  0  0  0
    0.0123   -3.7847    5.8419 H   0  0  0  0  0  0  0  0  0  0  0  0
    0.0585   -2.0642    5.5199 H   0  0  0  0  0  0  0  0  0  0  0  0
   -0.6261   -2.1849    2.9917 N   0  0  0  0  0  0  0  0  0  0  0  0
   -0.7237   -2.2601    1.5650 C   0  0  2  0  0  0  0  0  0  0  0  0
    0.1695   -1.1513    1.0687 C   0  0  0  0  0  0  0  0  0  0  0  0
    0.3193   -0.1267    1.7365 O   0  0  0  0  0  0  0  0  0  0  0  0
   -2.1397   -2.0663    1.0750 C   0  0  0  0  0  0  0  0  0  0  0  0
   -0.5717   -1.2606    3.4238 H   0  0  0  0  0  0  0  0  0  0  0  0
   -0.3076   -3.2111    1.2363 H   0  0  0  0  0  0  0  0  0  0  0  0
   -2.5584   -1.1089    1.4061 H   0  0  0  0  0  0  0  0  0  0  0  0
   -2.1682   -2.0790   -0.0197 H   0  0  0  0  0  0  0  0  0  0  0  0
   -2.7965   -2.8601    1.4459 H   0  0  0  0  0  0  0  0  0  0  0  0
    0.7724   -1.3745   -0.1593 N   0  0  0  0  0  0  0  0  0  0  0  0
    0.5614   -2.5964   -0.9244 C   0  0  2  0  0  0  0  0  0  0  0  0
   -0.3735   -3.4587   -0.1308 C   0  0  0  0  0  0  0  0  0  0  0  0
   -1.5433   -3.5628   -0.4806 O   0  0  0  0  0  0  0  0  0  0  0  0
    1.9458   -3.2230   -1.0432 C   0  0  0  0  0  0  0  0  0  0  0  0
    2.2521   -1.7403   -0.8458 C   0  0  0  0  0  0  0  0  0  0  0  0
    1.5408   -0.3981   -0.9273 C   0  0  0  0  0  0  0  0  0  0  0  0
    0.1027   -2.3787   -1.8936 H   0  0  0  0  0  0  0  0  0  0  0  0
    2.0691   -3.6740   -2.0351 H   0  0  0  0  0  0  0  0  0  0  0  0
    2.1474   -3.9863   -0.2855 H   0  0  0  0  0  0  0  0  0  0  0  0
    2.5528   -1.5477    0.1905 H   0  0  0  0  0  0  0  0  0  0  0  0
    3.0524   -1.3926   -1.5053 H   0  0  0  0  0  0  0  0  0  0  0  0
    2.1327    0.4188   -0.5056 H   0  0  0  0  0  0  0  0  0  0  0  0
    1.2759   -0.1509   -1.9611 H   0  0  0  0  0  0  0  0  0  0  0  0
    0.1221   -4.0783    0.9344 N   0  0  0  0  0  0  0  0  0  0  0  0
    0.2301   -4.6112    2.2735 C   0  0  2  0  0  0  0  0  0  0  0  0
   -0.1584   -3.5096    3.2508 C   0  0  0  0  0  0  0  0  0  0  0  0
   -0.1081   -2.3142    2.9688 O   0  0  0  0  0  0  0  0  0  0  0  0
    1.6361   -5.1174    2.5559 C   0  0  0  0  0  0  0  0  0  0  0  0
   -0.5020   -4.5396    0.2793 H   0  0  0  0  0  0  0  0  0  0  0  0
   -0.4892   -5.4343    2.3453 H   0  0  0  0  0  0  0  0  0  0  0  0
    2.3707   -4.3066    2.4885 H   0  0  0  0  0  0  0  0  0  0  0  0
    1.7089   -5.5467    3.5606 H   0  0  0  0  0  0  0  0  0  0  0  0
    1.9251   -5.8885    1.8337 H   0  0  0  0  0  0  0  0  0  0  0  0
   -0.5266   -4.0166    4.4892 N   0  0  0  0  0  0  0  0  0  0  0  0
   -0.9257   -3.1715    5.5903 C   0  0  0  0  0  0  0  0  0  0  0  0
   -0.5575   -5.0223    4.6283 H   0  0  0  0  0  0  0  0  0  0  0  0
   -0.0483   -2.9394    6.2118 H   0  0  0  0  0  0  0  0  0  0  0  0
   -1.3548   -2.2374    5.1986 H   0  0  0  0  0  0  0  0  0  0  0  0
   -1.6784   -3.6938    6.1991 H   0  0  0  0  0  0  0  0  0  0  0  0
 18 19  1  0  0  0  0
 19 31  1  0  0  0  0
 19 20  2  0  0  0  0
  8  9  1  0  0  0  0
  9 17  1  0  0  0  0
  9 10  2  0  0  0  0
  1  3  1  0  0  0  0
  1  7  1  0  0  0  0
  1  2  2  0  0  0  0
 32 33  1  0  0  0  0
 33 41  1  0  0  0  0
 33 34  2  0  0  0  0
 21 22  1  0  0  0  0
 22 23  1  0  0  0  0
 18 21  1  0  0  0  0
 17 23  1  0  0  0  0
 17 18  1  0  0  0  0
  8 11  1  0  0  0  0
 32 35  1  0  0  0  0
 41 42  1  0  0  0  0
  7  8  1  0  0  0  0
 31 32  1  0  0  0  0
 22 27  1  0  0  0  0
 22 28  1  0  0  0  0
 21 25  1  0  0  0  0
 21 26  1  0  0  0  0
 23 29  1  0  0  0  0
 23 30  1  0  0  0  0
 18 24  1  0  0  0  0
  3  4  1  0  0  0  0
  3  5  1  0  0  0  0
  3  6  1  0  0  0  0
 11 14  1  0  0  0  0
 11 15  1  0  0  0  0
 11 16  1  0  0  0  0
 35 38  1  0  0  0  0
 35 39  1  0  0  0  0
 35 40  1  0  0  0  0
 42 44  1  0  0  0  0
 42 45  1  0  0  0  0
 42 46  1  0  0  0  0
  8 13  1  0  0  0  0
 32 37  1  0  0  0  0
 31 36  1  0  0  0  0
 41 43  1  0  0  0  0
  7 12  1  0  0  0  0
M  END
$$$$

  -OEChem-05262214473D

 46 46  0     1  0  0  0  0  0999 V2000
   -0.6012   -3.2995    3.8205 C   0  0  0  0  0  0  0  0  0  0  0  0
   -0.6574   -4.4683    3.4568 O   0  0  0  0  0  0  0  0  0  0  0  0
   -0.4935   -2.9859    5.2760 C   0  0  0  0  0  0  0  0  0  0  0  0
   -1.4789   -2.8689    5.7550 H   0  0  0  0  0  0  0  0  0  0  0  0
    0.0123   -3.7847    5.8419 H   0  0  0  0  0  0  0  0  0  0  0  0
    0.0585   -2.0642    5.5199 H   0  0  0  0  0  0  0  0  0  0  0  0
   -0.6261   -2.1849    2.9917 N   0  0  0  0  0  0  0  0  0  0  0  0
   -0.7237   -2.2601    1.5650 C   0  0  2  0  0  0  0  0  0  0  0  0
    0.1695   -1.1513    1.0687 C   0  0  0  0  0  0  0  0  0  0  0  0
    0.3193   -0.1267    1.7365 O   0  0  0  0  0  0  0  0  0  0  0  0
   -2.1397   -2.0663    1.0750 C   0  0  0  0  0  0  0  0  0  0  0  0
   -0.5717   -1.2606    3.4238 H   0  0  0  0  0  0  0  0  0  0  0  0
   -0.3076   -3.2111    1.2363 H   0  0  0  0  0  0  0  0  0  0  0  0
   -2.5584   -1.1089    1.4061 H   0  0  0  0  0  0  0  0  0  0  0  0
   -2.1682   -2.0790   -0.0197 H   0  0  0  0  0  0  0  0  0  0  0  0
   -2.7965   -2.8601    1.4459 H   0  0  0  0  0  0  0  0  0  0  0  0
    0.7724   -1.3745   -0.1593 N   0  0  0  0  0  0  0  0  0  0  0  0
    0.5614   -2.5964   -0.9244 C   0  0  2  0  0  0  0  0  0  0  0  0
   -0.3735   -3.4587   -0.1308 C   0  0  0  0  0  0  0  0  0  0  0  0
   -1.4500   -3.7879   -0.6152 O   0  0  0  0  0  0  0  0  0  0  0  0
    1.9458   -3.2230   -1.0432 C   0  0  0  0  0  0  0  0  0  0  0  0
    2.2521   -1.7403   -0.8458 C   0  0  0  0  0  0  0  0  0  0  0  0
    1.5408   -0.3981   -0.9273 C   0  0  0  0  0  0  0  0  0  0  0  0
    0.1027   -2.3787   -1.8936 H   0  0  0  0  0  0  0  0  0  0  0  0
    2.0691   -3.6740   -2.0351 H   0  0  0  0  0  0  0  0  0  0  0  0
    2.1474   -3.9863   -0.2855 H   0  0  0  0  0  0  0  0  0  0  0  0
    2.5528   -1.5477    0.1905 H   0  0  0  0  0  0  0  0  0  0  0  0
    3.0524   -1.3926   -1.5053 H   0  0  0  0  0  0  0  0  0  0  0  0
    2.1327    0.4188   -0.5056 H   0  0  0  0  0  0  0  0  0  0  0  0
    1.2759   -0.1509   -1.9611 H   0  0  0  0  0  0  0  0  0  0  0  0
    0.0185   -3.8293    1.0829 N   0  0  0  0  0  0  0  0  0  0  0  0
   -0.0236   -4.1317    2.4956 C   0  0  2  0  0  0  0  0  0  0  0  0
   -0.6980   -2.9656    3.2062 C   0  0  0  0  0  0  0  0  0  0  0  0
   -0.7527   -1.8326    2.7327 O   0  0  0  0  0  0  0  0  0  0  0  0
    1.3710   -4.3739    3.0515 C   0  0  0  0  0  0  0  0  0  0  0  0
   -0.4301   -4.4722    0.4373 H   0  0  0  0  0  0  0  0  0  0  0  0
   -0.6367   -5.0325    2.6080 H   0  0  0  0  0  0  0  0  0  0  0  0
    2.0000   -3.4822    2.9476 H   0  0  0  0  0  0  0  0  0  0  0  0
    1.3350   -4.6308    4.1153 H   0  0  0  0  0  0  0  0  0  0  0  0
    1.8658   -5.1934    2.5192 H   0  0  0  0  0  0  0  0  0  0  0  0
   -1.1936   -3.3290    4.4506 N   0  0  0  0  0  0  0  0  0  0  0  0
   -1.8661   -2.3964    5.3246 C   0  0  0  0  0  0  0  0  0  0  0  0
   -1.1206   -4.2954    4.7548 H   0  0  0  0  0  0  0  0  0  0  0  0
   -1.1355   -1.9448    6.0118 H   0  0  0  0  0  0  0  0  0  0  0  0
   -2.3402   -1.6068    4.7230 H   0  0  0  0  0  0  0  0  0  0  0  0
   -2.6355   -2.9271    5.9047 H   0  0  0  0  0  0  0  0  0  0  0  0
 18 19  1  0  0  0  0
 19 31  1  0  0  0  0
 19 20  2  0  0  0  0
  8  9  1  0  0  0  0
  9 17  1  0  0  0  0
  9 10  2  0  0  0  0
  1  3  1  0  0  0  0
  1  7  1  0  0  0  0
  1  2  2  0  0  0  0
 32 33  1  0  0  0  0
 33 41  1  0  0  0  0
 33 34  2  0  0  0  0
 21 22  1  0  0  0  0
 22 23  1  0  0  0  0
 18 21  1  0  0  0  0
 17 23  1  0  0  0  0
 17 18  1  0  0  0  0
  8 11  1  0  0  0  0
 32 35  1  0  0  0  0
 41 42  1  0  0  0  0
  7  8  1  0  0  0  0
 31 32  1  0  0  0  0
 22 27  1  0  0  0  0
 22 28  1  0  0  0  0
 21 25  1  0  0  0  0
 21 26  1  0  0  0  0
 23 29  1  0  0  0  0
 23 30  1  0  0  0  0
 18 24  1  0  0  0  0
  3  4  1  0  0  0  0
  3  5  1  0  0  0  0
  3  6  1  0  0  0  0
 11 14  1  0  0  0  0
 11 15  1  0  0  0  0
 11 16  1  0  0  0  0
 35 38  1  0  0  0  0
 35 39  1  0  0  0  0
 35 40  1  0  0  0  0
 42 44  1  0  0  0  0
 42 45  1  0  0  0  0
 42 46  1  0  0  0  0
  8 13  1  0  0  0  0
 32 37  1  0  0  0  0
 31 36  1  0  0  0  0
 41 43  1  0  0  0  0
  7 12  1  0  0  0  0
M  END
$$$$

  -OEChem-05262214473D

 46 46  0     1  0  0  0  0  0999 V2000
   -0.6012   -3.2995    3.8205 C   0  0  0  0  0  0  0  0  0  0  0  0
   -0.6574   -4.4683    3.4568 O   0  0  0  0  0  0  0  0  0  0  0  0
   -0.4935   -2.9859    5.2760 C   0  0  0  0  0  0  0  0  0  0  0  0
   -1.4789   -2.8689    5.7550 H   0  0  0  0  0  0  0  0  0  0  0  0
    0.0123   -3.7847    5.8419 H   0  0  0  0  0  0  0  0  0  0  0  0
    0.0585   -2.0642    5.5199 H   0  0  0  0  0  0  0  0  0  0  0  0
   -0.6261   -2.1849    2.9917 N   0  0  0  0  0  0  0  0  0  0  0  0
   -0.7237   -2.2601    1.5650 C   0  0  2  0  0  0  0  0  0  0  0  0
    0.1695   -1.1513    1.0687 C   0  0  0  0  0  0  0  0  0  0  0  0
    0.3193   -0.1267    1.7365 O   0  0  0  0  0  0  0  0  0  0  0  0
   -2.1397   -2.0663    1.0750 C   0  0  0  0  0  0  0  0  0  0  0  0
   -0.5717   -1.2606    3.4238 H   0  0  0  0  0  0  0  0  0  0  0  0
   -0.3076   -3.2111    1.2363 H   0  0  0  0  0  0  0  0  0  0  0  0
   -2.5584   -1.1089    1.4061 H   0  0  0  0  0  0  0  0  0  0  0  0
   -2.1682   -2.0790   -0.0197 H   0  0  0  0  0  0  0  0  0  0  0  0
   -2.7965   -2.8601    1.4459 H   0  0  0  0  0  0  0  0  0  0  0  0
    0.7724   -1.3745   -0.1593 N   0  0  0  0  0  0  0  0  0  0  0  0
    0.5614   -2.5964   -0.9244 C   0  0  2  0  0  0  0  0  0  0  0  0
   -0.3735   -3.4587   -0.1308 C   0  0  0  0  0  0  0  0  0  0  0  0
   -1.3089   -4.0142   -0.6949 O   0  0  0  0  0  0  0  0  0  0  0  0
    1.9458   -3.2230   -1.0432 C   0  0  0  0  0  0  0  0  0  0  0  0
    2.2521   -1.7403   -0.8458 C   0  0  0  0  0  0  0  0  0  0  0  0
    1.5408   -0.3981   -0.9273 C   0  0  0  0  0  0  0  0  0  0  0  0
    0.1027   -2.3787   -1.8936 H   0  0  0  0  0  0  0  0  0  0  0  0
    2.0691   -3.6740   -2.0351 H   0  0  0  0  0  0  0  0  0  0  0  0
    2.1474   -3.9863   -0.2855 H   0  0  0  0  0  0  0  0  0  0  0  0
    2.5528   -1.5477    0.1905 H   0  0  0  0  0  0  0  0  0  0  0  0
    3.0524   -1.3926   -1.5053 H   0  0  0  0  0  0  0  0  0  0  0  0
    2.1327    0.4188   -0.5056 H   0  0  0  0  0  0  0  0  0  0  0  0
    1.2759   -0.1509   -1.9611 H   0  0  0  0  0  0  0  0  0  0  0  0
   -0.1377   -3.5790    1.1707 N   0  0  0  0  0  0  0  0  0  0  0  0
   -0.3675   -3.6675    2.5949 C   0  0  2  0  0  0  0  0  0  0  0  0
   -1.2871   -2.5213    2.9950 C   0  0  0  0  0  0  0  0  0  0  0  0
   -1.4063   -1.4938    2.3309 O   0  0  0  0  0  0  0  0  0  0  0  0
    0.9393   -3.6120    3.3707 C   0  0  0  0  0  0  0  0  0  0  0  0
   -0.3934   -4.3717    0.5896 H   0  0  0  0  0  0  0  0  0  0  0  0
   -0.8734   -4.6223    2.7750 H   0  0  0  0  0  0  0  0  0  0  0  0
    1.4606   -2.6625    3.2028 H   0  0  0  0  0  0  0  0  0  0  0  0
    0.7658   -3.7079    4.4476 H   0  0  0  0  0  0  0  0  0  0  0  0
    1.6113   -4.4194    3.0604 H   0  0  0  0  0  0  0  0  0  0  0  0
   -1.9263   -2.7624    4.2031 N   0  0  0  0  0  0  0  0  0  0  0  0
   -2.8412   -1.8194    4.8029 C   0  0  0  0  0  0  0  0  0  0  0  0
   -1.7829   -3.6499    4.6759 H   0  0  0  0  0  0  0  0  0  0  0  0
   -2.2921   -1.1653    5.4962 H   0  0  0  0  0  0  0  0  0  0  0  0
   -3.3075   -1.2094    4.0152 H   0  0  0  0  0  0  0  0  0  0  0  0
   -3.6211   -2.3652    5.3540 H   0  0  0  0  0  0  0  0  0  0  0  0
 18 19  1  0  0  0  0
 19 31  1  0  0  0  0
 19 20  2  0  0  0  0
  8  9  1  0  0  0  0
  9 17  1  0  0  0  0
  9 10  2  0  0  0  0
  1  3  1  0  0  0  0
  1  7  1  0  0  0  0
  1  2  2  0  0  0  0
 32 33  1  0  0  0  0
 33 41  1  0  0  0  0
 33 34  2  0  0  0  0
 21 22  1  0  0  0  0
 22 23  1  0  0  0  0
 18 21  1  0  0  0  0
 17 23  1  0  0  0  0
 17 18  1  0  0  0  0
  8 11  1  0  0  0  0
 32 35  1  0  0  0  0
 41 42  1  0  0  0  0
  7  8  1  0  0  0  0
 31 32  1  0  0  0  0
 22 27  1  0  0  0  0
 22 28  1  0  0  0  0
 21 25  1  0  0  0  0
 21 26  1  0  0  0  0
 23 29  1  0  0  0  0
 23 30  1  0  0  0  0
 18 24  1  0  0  0  0
  3  4  1  0  0  0  0
  3  5  1  0  0  0  0
  3  6  1  0  0  0  0
 11 14  1  0  0  0  0
 11 15  1  0  0  0  0
 11 16  1  0  0  0  0
 35 38  1  0  0  0  0
 35 39  1  0  0  0  0
 35 40  1  0  0  0  0
 42 44  1  0  0  0  0
 42 45  1  0  0  0  0
 42 46  1  0  0  0  0
  8 13  1  0  0  0  0
 32 37  1  0  0  0  0
 31 36  1  0  0  0  0
 41 43  1  0  0  0  0
  7 12  1  0  0  0  0
M  END
$$$$

  -OEChem-05262214473D

 46 46  0     1  0  0  0  0  0999 V2000
   -0.6012   -3.2995    3.8205 C   0  0  0  0  0  0  0  0  0  0  0  0
   -0.6574   -4.4683    3.4568 O   0  0  0  0  0  0  0  0  0  0  0  0
   -0.4935   -2.9859    5.2760 C   0  0  0  0  0  0  0  0  0  0  0  0
   -1.4789   -2.8689    5.7550 H   0  0  0  0  0  0  0  0  0  0  0  0
    0.0123   -3.7847    5.8419 H   0  0  0  0  0  0  0  0  0  0  0  0
    0.0585   -2.0642    5.5199 H   0  0  0  0  0  0  0  0  0  0  0  0
   -0.6261   -2.1849    2.9917 N   0  0  0  0  0  0  0  0  0  0  0  0
   -0.7237   -2.2601    1.5650 C   0  0  2  0  0  0  0  0  0  0  0  0
    0.1695   -1.1513    1.0687 C   0  0  0  0  0  0  0  0  0  0  0  0
    0.3193   -0.1267    1.7365 O   0  0  0  0  0  0  0  0  0  0  0  0
   -2.1397   -2.0663    1.0750 C   0  0  0  0  0  0  0  0  0  0  0  0
   -0.5717   -1.2606    3.4238 H   0  0  0  0  0  0  0  0  0  0  0  0
   -0.3076   -3.2111    1.2363 H   0  0  0  0  0  0  0  0  0  0  0  0
   -2.5584   -1.1089    1.4061 H   0  0  0  0  0  0  0  0  0  0  0  0
   -2.1682   -2.0790   -0.0197 H   0  0  0  0  0  0  0  0  0  0  0  0
   -2.7965   -2.8601    1.4459 H   0  0  0  0  0  0  0  0  0  0  0  0
    0.7724   -1.3745   -0.1593 N   0  0  0  0  0  0  0  0  0  0  0  0
    0.5614   -2.5964   -0.9244 C   0  0  2  0  0  0  0  0  0  0  0  0
   -0.3735   -3.4587   -0.1308 C   0  0  0  0  0  0  0  0  0  0  0  0
   -1.1298   -4.2263   -0.7144 O   0  0  0  0  0  0  0  0  0  0  0  0
    1.9458   -3.2230   -1.0432 C   0  0  0  0  0  0  0  0  0  0  0  0
    2.2521   -1.7403   -0.8458 C   0  0  0  0  0  0  0  0  0  0  0  0
    1.5408   -0.3981   -0.9273 C   0  0  0  0  0  0  0  0  0  0  0  0
    0.1027   -2.3787   -1.8936 H   0  0  0  0  0  0  0  0  0  0  0  0
    2.0691   -3.6740   -2.0351 H   0  0  0  0  0  0  0  0  0  0  0  0
    2.1474   -3.9863   -0.2855 H   0  0  0  0  0  0  0  0  0  0  0  0
    2.5528   -1.5477    0.1905 H   0  0  0  0  0  0  0  0  0  0  0  0
    3.0524   -1.3926   -1.5053 H   0  0  0  0  0  0  0  0  0  0  0  0
    2.1327    0.4188   -0.5056 H   0  0  0  0  0  0  0  0  0  0  0  0
    1.2759   -0.1509   -1.9611 H   0  0  0  0  0  0  0  0  0  0  0  0
   -0.3360   -3.3445    1.1919 N   0  0  0  0  0  0  0  0  0  0  0  0
   -0.7780   -3.2501    2.5648 C   0  0  2  0  0  0  0  0  0  0  0  0
   -1.8856   -2.2069    2.6316 C   0  0  0  0  0  0  0  0  0  0  0  0
   -2.0241   -1.3209    1.7908 O   0  0  0  0  0  0  0  0  0  0  0  0
    0.3705   -2.8838    3.4919 C   0  0  0  0  0  0  0  0  0  0  0  0
   -0.3944   -4.2451    0.7261 H   0  0  0  0  0  0  0  0  0  0  0  0
   -1.1831   -4.2315    2.8348 H   0  0  0  0  0  0  0  0  0  0  0  0
    0.7892   -1.9035    3.2367 H   0  0  0  0  0  0  0  0  0  0  0  0
    0.0401   -2.8407    4.5350 H   0  0  0  0  0  0  0  0  0  0  0  0
    1.1789   -3.6194    3.4204 H   0  0  0  0  0  0  0  0  0  0  0  0
   -2.6748   -2.3554    3.7635 N   0  0  0  0  0  0  0  0  0  0  0  0
   -3.7844   -1.4799    4.0607 C   0  0  0  0  0  0  0  0  0  0  0  0
   -2.4994   -3.1299    4.3969 H   0  0  0  0  0  0  0  0  0  0  0  0
   -3.4394   -0.6540    4.7002 H   0  0  0  0  0  0  0  0  0  0  0  0
   -4.1910   -1.0724    3.1233 H   0  0  0  0  0  0  0  0  0  0  0  0
   -4.5682   -2.0464    4.5847 H   0  0  0  0  0  0  0  0  0  0  0  0
 18 19  1  0  0  0  0
 19 31  1  0  0  0  0
 19 20  2  0  0  0  0
  8  9  1  0  0  0  0
  9 17  1  0  0  0  0
  9 10  2  0  0  0  0
  1  3  1  0  0  0  0
  1  7  1  0  0  0  0
  1  2  2  0  0  0  0
 32 33  1  0  0  0  0
 33 41  1  0  0  0  0
 33 34  2  0  0  0  0
 21 22  1  0  0  0  0
 22 23  1  0  0  0  0
 18 21  1  0  0  0  0
 17 23  1  0  0  0  0
 17 18  1  0  0  0  0
  8 11  1  0  0  0  0
 32 35  1  0  0  0  0
 41 42  1  0  0  0  0
  7  8  1  0  0  0  0
 31 32  1  0  0  0  0
 22 27  1  0  0  0  0
 22 28  1  0  0  0  0
 21 25  1  0  0  0  0
 21 26  1  0  0  0  0
 23 29  1  0  0  0  0
 23 30  1  0  0  0  0
 18 24  1  0  0  0  0
  3  4  1  0  0  0  0
  3  5  1  0  0  0  0
  3  6  1  0  0  0  0
 11 14  1  0  0  0  0
 11 15  1  0  0  0  0
 11 16  1  0  0  0  0
 35 38  1  0  0  0  0
 35 39  1  0  0  0  0
 35 40  1  0  0  0  0
 42 44  1  0  0  0  0
 42 45  1  0  0  0  0
 42 46  1  0  0  0  0
  8 13  1  0  0  0  0
 32 37  1  0  0  0  0
 31 36  1  0  0  0  0
 41 43  1  0  0  0  0
  7 12  1  0  0  0  0
M  END
$$$$

  -OEChem-05262214473D

 46 46  0     1  0  0  0  0  0999 V2000
   -0.6012   -3.2995    3.8205 C   0  0  0  0  0  0  0  0  0  0  0  0
   -0.6574   -4.4683    3.4568 O   0  0  0  0  0  0  0  0  0  0  0  0
   -0.4935   -2.9859    5.2760 C   0  0  0  0  0  0  0  0  0  0  0  0
   -1.4789   -2.8689    5.7550 H   0  0  0  0  0  0  0  0  0  0  0  0
    0.0123   -3.7847    5.8419 H   0  0  0  0  0  0  0  0  0  0  0  0
    0.0585   -2.0642    5.5199 H   0  0  0  0  0  0  0  0  0  0  0  0
   -0.6261   -2.1849    2.9917 N   0  0  0  0  0  0  0  0  0  0  0  0
   -0.7237   -2.2601    1.5650 C   0  0  2  0  0  0  0  0  0  0  0  0
    0.1695   -1.1513    1.0687 C   0  0  0  0  0  0  0  0  0  0  0  0
    0.3193   -0.1267    1.7365 O   0  0  0  0  0  0  0  0  0  0  0  0
   -2.1397   -2.0663    1.0750 C   0  0  0  0  0  0  0  0  0  0  0  0
   -0.5717   -1.2606    3.4238 H   0  0  0  0  0  0  0  0  0  0  0  0
   -0.3076   -3.2111    1.2363 H   0  0  0  0  0  0  0  0  0  0  0  0
   -2.5584   -1.1089    1.4061 H   0  0  0  0  0  0  0  0  0  0  0  0
   -2.1682   -2.0790   -0.0197 H   0  0  0  0  0  0  0  0  0  0  0  0
   -2.7965   -2.8601    1.4459 H   0  0  0  0  0  0  0  0  0  0  0  0
    0.7724   -1.3745   -0.1593 N   0  0  0  0  0  0  0  0  0  0  0  0
    0.5614   -2.5964   -0.9244 C   0  0  2  0  0  0  0  0  0  0  0  0
   -0.3735   -3.4587   -0.1308 C   0  0  0  0  0  0  0  0  0  0  0  0
   -0.9248   -4.4098   -0.6723 O   0  0  0  0  0  0  0  0  0  0  0  0
    1.9458   -3.2230   -1.0432 C   0  0  0  0  0  0  0  0  0  0  0  0
    2.2521   -1.7403   -0.8458 C   0  0  0  0  0  0  0  0  0  0  0  0
    1.5408   -0.3981   -0.9273 C   0  0  0  0  0  0  0  0  0  0  0  0
    0.1027   -2.3787   -1.8936 H   0  0  0  0  0  0  0  0  0  0  0  0
    2.0691   -3.6740   -2.0351 H   0  0  0  0  0  0  0  0  0  0  0  0
    2.1474   -3.9863   -0.2855 H   0  0  0  0  0  0  0  0  0  0  0  0
    2.5528   -1.5477    0.1905 H   0  0  0  0  0  0  0  0  0  0  0  0
    3.0524   -1.3926   -1.5053 H   0  0  0  0  0  0  0  0  0  0  0  0
    2.1327    0.4188   -0.5056 H   0  0  0  0  0  0  0  0  0  0  0  0
    1.2759   -0.1509   -1.9611 H   0  0  0  0  0  0  0  0  0  0  0  0
   -0.5629   -3.1418    1.1450 N   0  0  0  0  0  0  0  0  0  0  0  0
   -1.2272   -2.9082    2.4072 C   0  0  2  0  0  0  0  0  0  0  0  0
   -2.4526   -2.0439    2.1407 C   0  0  0  0  0  0  0  0  0  0  0  0
   -2.5642   -1.3258    1.1493 O   0  0  0  0  0  0  0  0  0  0  0  0
   -0.2968   -2.2387    3.4066 C   0  0  0  0  0  0  0  0  0  0  0  0
   -0.4331   -4.1009    0.8373 H   0  0  0  0  0  0  0  0  0  0  0  0
   -1.5447   -3.8868    2.7834 H   0  0  0  0  0  0  0  0  0  0  0  0
    0.0317   -1.2568    3.0470 H   0  0  0  0  0  0  0  0  0  0  0  0
   -0.7927   -2.0883    4.3713 H   0  0  0  0  0  0  0  0  0  0  0  0
    0.5980   -2.8477    3.5745 H   0  0  0  0  0  0  0  0  0  0  0  0
   -3.3881   -2.1358    3.1618 N   0  0  0  0  0  0  0  0  0  0  0  0
   -4.6314   -1.4010    3.1485 C   0  0  0  0  0  0  0  0  0  0  0  0
   -3.2211   -2.7708    3.9368 H   0  0  0  0  0  0  0  0  0  0  0  0
   -4.4991   -0.4459    3.6780 H   0  0  0  0  0  0  0  0  0  0  0  0
   -4.9303   -1.2050    2.1082 H   0  0  0  0  0  0  0  0  0  0  0  0
   -5.4121   -1.9924    3.6491 H   0  0  0  0  0  0  0  0  0  0  0  0
 18 19  1  0  0  0  0
 19 31  1  0  0  0  0
 19 20  2  0  0  0  0
  8  9  1  0  0  0  0
  9 17  1  0  0  0  0
  9 10  2  0  0  0  0
  1  3  1  0  0  0  0
  1  7  1  0  0  0  0
  1  2  2  0  0  0  0
 32 33  1  0  0  0  0
 33 41  1  0  0  0  0
 33 34  2  0  0  0  0
 21 22  1  0  0  0  0
 22 23  1  0  0  0  0
 18 21  1  0  0  0  0
 17 23  1  0  0  0  0
 17 18  1  0  0  0  0
  8 11  1  0  0  0  0
 32 35  1  0  0  0  0
 41 42  1  0  0  0  0
  7  8  1  0  0  0  0
 31 32  1  0  0  0  0
 22 27  1  0  0  0  0
 22 28  1  0  0  0  0
 21 25  1  0  0  0  0
 21 26  1  0  0  0  0
 23 29  1  0  0  0  0
 23 30  1  0  0  0  0
 18 24  1  0  0  0  0
  3  4  1  0  0  0  0
  3  5  1  0  0  0  0
  3  6  1  0  0  0  0
 11 14  1  0  0  0  0
 11 15  1  0  0  0  0
 11 16  1  0  0  0  0
 35 38  1  0  0  0  0
 35 39  1  0  0  0  0
 35 40  1  0  0  0  0
 42 44  1  0  0  0  0
 42 45  1  0  0  0  0
 42 46  1  0  0  0  0
  8 13  1  0  0  0  0
 32 37  1  0  0  0  0
 31 36  1  0  0  0  0
 41 43  1  0  0  0  0
  7 12  1  0  0  0  0
M  END
$$$$

  -OEChem-05262214473D

 46 46  0     1  0  0  0  0  0999 V2000
   -0.6012   -3.2995    3.8205 C   0  0  0  0  0  0  0  0  0  0  0  0
   -0.6574   -4.4683    3.4568 O   0  0  0  0  0  0  0  0  0  0  0  0
   -0.4935   -2.9859    5.2760 C   0  0  0  0  0  0  0  0  0  0  0  0
   -1.4789   -2.8689    5.7550 H   0  0  0  0  0  0  0  0  0  0  0  0
    0.0123   -3.7847    5.8419 H   0  0  0  0  0  0  0  0  0  0  0  0
    0.0585   -2.0642    5.5199 H   0  0  0  0  0  0  0  0  0  0  0  0
   -0.6261   -2.1849    2.9917 N   0  0  0  0  0  0  0  0  0  0  0  0
   -0.7237   -2.2601    1.5650 C   0  0  2  0  0  0  0  0  0  0  0  0
    0.1695   -1.1513    1.0687 C   0  0  0  0  0  0  0  0  0  0  0  0
    0.3193   -0.1267    1.7365 O   0  0  0  0  0  0  0  0  0  0  0  0
   -2.1397   -2.0663    1.0750 C   0  0  0  0  0  0  0  0  0  0  0  0
   -0.5717   -1.2606    3.4238 H   0  0  0  0  0  0  0  0  0  0  0  0
   -0.3076   -3.2111    1.2363 H   0  0  0  0  0  0  0  0  0  0  0  0
   -2.5584   -1.1089    1.4061 H   0  0  0  0  0  0  0  0  0  0  0  0
   -2.1682   -2.0790   -0.0197 H   0  0  0  0  0  0  0  0  0  0  0  0
   -2.7965   -2.8601    1.4459 H   0  0  0  0  0  0  0  0  0  0  0  0
    0.7724   -1.3745   -0.1593 N   0  0  0  0  0  0  0  0  0  0  0  0
    0.5614   -2.5964   -0.9244 C   0  0  2  0  0  0  0  0  0  0  0  0
   -0.3735   -3.4587   -0.1308 C   0  0  0  0  0  0  0  0  0  0  0  0
   -0.7080   -4.5522   -0.5715 O   0  0  0  0  0  0  0  0  0  0  0  0
    1.9458   -3.2230   -1.0432 C   0  0  0  0  0  0  0  0  0  0  0  0
    2.2521   -1.7403   -0.8458 C   0  0  0  0  0  0  0  0  0  0  0  0
    1.5408   -0.3981   -0.9273 C   0  0  0  0  0  0  0  0  0  0  0  0
    0.1027   -2.3787   -1.8936 H   0  0  0  0  0  0  0  0  0  0  0  0
    2.0691   -3.6740   -2.0351 H   0  0  0  0  0  0  0  0  0  0  0  0
    2.1474   -3.9863   -0.2855 H   0  0  0  0  0  0  0  0  0  0  0  0
    2.5528   -1.5477    0.1905 H   0  0  0  0  0  0  0  0  0  0  0  0
    3.0524   -1.3926   -1.5053 H   0  0  0  0  0  0  0  0  0  0  0  0
    2.1327    0.4188   -0.5056 H   0  0  0  0  0  0  0  0  0  0  0  0
    1.2759   -0.1509   -1.9611 H   0  0  0  0  0  0  0  0  0  0  0  0
   -0.8028   -2.9846    1.0332 N   0  0  0  0  0  0  0  0  0  0  0  0
   -1.6846   -2.6648    2.1329 C   0  0  2  0  0  0  0  0  0  0  0  0
   -2.9496   -2.0433    1.5558 C   0  0  0  0  0  0  0  0  0  0  0  0
   -2.9898   -1.5080    0.4500 O   0  0  0  0  0  0  0  0  0  0  0  0
   -1.0171   -1.7208    3.1209 C   0  0  0  0  0  0  0  0  0  0  0  0
   -0.5067   -3.9489    0.9156 H   0  0  0  0  0  0  0  0  0  0  0  0
   -1.9335   -3.6117    2.6243 H   0  0  0  0  0  0  0  0  0  0  0  0
   -0.7603   -0.7666    2.6465 H   0  0  0  0  0  0  0  0  0  0  0  0
   -1.6759   -1.5022    3.9677 H   0  0  0  0  0  0  0  0  0  0  0  0
   -0.0918   -2.1570    3.5124 H   0  0  0  0  0  0  0  0  0  0  0  0
   -4.0176   -2.1186    2.4389 N   0  0  0  0  0  0  0  0  0  0  0  0
   -5.3246   -1.5880    2.1286 C   0  0  0  0  0  0  0  0  0  0  0  0
   -3.8990   -2.5971    3.3269 H   0  0  0  0  0  0  0  0  0  0  0  0
   -5.3990   -0.5550    2.4992 H   0  0  0  0  0  0  0  0  0  0  0  0
   -5.4752   -1.5983    1.0390 H   0  0  0  0  0  0  0  0  0  0  0  0
   -6.0955   -2.2069    2.6111 H   0  0  0  0  0  0  0  0  0  0  0  0
 18 19  1  0  0  0  0
 19 31  1  0  0  0  0
 19 20  2  0  0  0  0
  8  9  1  0  0  0  0
  9 17  1  0  0  0  0
  9 10  2  0  0  0  0
  1  3  1  0  0  0  0
  1  7  1  0  0  0  0
  1  2  2  0  0  0  0
 32 33  1  0  0  0  0
 33 41  1  0  0  0  0
 33 34  2  0  0  0  0
 21 22  1  0  0  0  0
 22 23  1  0  0  0  0
 18 21  1  0  0  0  0
 17 23  1  0  0  0  0
 17 18  1  0  0  0  0
  8 11  1  0  0  0  0
 32 35  1  0  0  0  0
 41 42  1  0  0  0  0
  7  8  1  0  0  0  0
 31 32  1  0  0  0  0
 22 27  1  0  0  0  0
 22 28  1  0  0  0  0
 21 25  1  0  0  0  0
 21 26  1  0  0  0  0
 23 29  1  0  0  0  0
 23 30  1  0  0  0  0
 18 24  1  0  0  0  0
  3  4  1  0  0  0  0
  3  5  1  0  0  0  0
  3  6  1  0  0  0  0
 11 14  1  0  0  0  0
 11 15  1  0  0  0  0
 11 16  1  0  0  0  0
 35 38  1  0  0  0  0
 35 39  1  0  0  0  0
 35 40  1  0  0  0  0
 42 44  1  0  0  0  0
 42 45  1  0  0  0  0
 42 46  1  0  0  0  0
  8 13  1  0  0  0  0
 32 37  1  0  0  0  0
 31 36  1  0  0  0  0
 41 43  1  0  0  0  0
  7 12  1  0  0  0  0
M  END
$$$$

  -OEChem-05262214473D

 46 46  0     1  0  0  0  0  0999 V2000
   -0.6012   -3.2995    3.8205 C   0  0  0  0  0  0  0  0  0  0  0  0
   -0.6574   -4.4683    3.4568 O   0  0  0  0  0  0  0  0  0  0  0  0
   -0.4935   -2.9859    5.2760 C   0  0  0  0  0  0  0  0  0  0  0  0
   -1.4789   -2.8689    5.7550 H   0  0  0  0  0  0  0  0  0  0  0  0
    0.0123   -3.7847    5.8419 H   0  0  0  0  0  0  0  0  0  0  0  0
    0.0585   -2.0642    5.5199 H   0  0  0  0  0  0  0  0  0  0  0  0
   -0.6261   -2.1849    2.9917 N   0  0  0  0  0  0  0  0  0  0  0  0
   -0.7237   -2.2601    1.5650 C   0  0  2  0  0  0  0  0  0  0  0  0
    0.1695   -1.1513    1.0687 C   0  0  0  0  0  0  0  0  0  0  0  0
    0.3193   -0.1267    1.7365 O   0  0  0  0  0  0  0  0  0  0  0  0
   -2.1397   -2.0663    1.0750 C   0  0  0  0  0  0  0  0  0  0  0  0
   -0.5717   -1.2606    3.4238 H   0  0  0  0  0  0  0  0  0  0  0  0
   -0.3076   -3.2111    1.2363 H   0  0  0  0  0  0  0  0  0  0  0  0
   -2.5584   -1.1089    1.4061 H   0  0  0  0  0  0  0  0  0  0  0  0
   -2.1682   -2.0790   -0.0197 H   0  0  0  0  0  0  0  0  0  0  0  0
   -2.7965   -2.8601    1.4459 H   0  0  0  0  0  0  0  0  0  0  0  0
    0.7724   -1.3745   -0.1593 N   0  0  0  0  0  0  0  0  0  0  0  0
    0.5614   -2.5964   -0.9244 C   0  0  2  0  0  0  0  0  0  0  0  0
   -0.3735   -3.4587   -0.1308 C   0  0  0  0  0  0  0  0  0  0  0  0
   -0.4940   -4.6437   -0.4189 O   0  0  0  0  0  0  0  0  0  0  0  0
    1.9458   -3.2230   -1.0432 C   0  0  0  0  0  0  0  0  0  0  0  0
    2.2521   -1.7403   -0.8458 C   0  0  0  0  0  0  0  0  0  0  0  0
    1.5408   -0.3981   -0.9273 C   0  0  0  0  0  0  0  0  0  0  0  0
    0.1027   -2.3787   -1.8936 H   0  0  0  0  0  0  0  0  0  0  0  0
    2.0691   -3.6740   -2.0351 H   0  0  0  0  0  0  0  0  0  0  0  0
    2.1474   -3.9863   -0.2855 H   0  0  0  0  0  0  0  0  0  0  0  0
    2.5528   -1.5477    0.1905 H   0  0  0  0  0  0  0  0  0  0  0  0
    3.0524   -1.3926   -1.5053 H   0  0  0  0  0  0  0  0  0  0  0  0
    2.1327    0.4188   -0.5056 H   0  0  0  0  0  0  0  0  0  0  0  0
    1.2759   -0.1509   -1.9611 H   0  0  0  0  0  0  0  0  0  0  0  0
   -1.0394   -2.8836    0.8642 N   0  0  0  0  0  0  0  0  0  0  0  0
   -2.1188   -2.5367    1.7605 C   0  0  2  0  0  0  0  0  0  0  0  0
   -3.3426   -2.2053    0.9168 C   0  0  0  0  0  0  0  0  0  0  0  0
   -3.2717   -1.8552   -0.2594 O   0  0  0  0  0  0  0  0  0  0  0  0
   -1.7412   -1.3654    2.6540 C   0  0  0  0  0  0  0  0  0  0  0  0
   -0.6103   -3.7996    0.9558 H   0  0  0  0  0  0  0  0  0  0  0  0
   -2.3231   -3.4249    2.3683 H   0  0  0  0  0  0  0  0  0  0  0  0
   -1.5329   -0.4662    2.0627 H   0  0  0  0  0  0  0  0  0  0  0  0
   -2.5492   -1.1222    3.3519 H   0  0  0  0  0  0  0  0  0  0  0  0
   -0.8434   -1.5944    3.2382 H   0  0  0  0  0  0  0  0  0  0  0  0
   -4.5205   -2.3049    1.6441 N   0  0  0  0  0  0  0  0  0  0  0  0
   -5.8168   -2.0283    1.0704 C   0  0  0  0  0  0  0  0  0  0  0  0
   -4.4868   -2.6206    2.6089 H   0  0  0  0  0  0  0  0  0  0  0  0
   -6.0778   -0.9739    1.2443 H   0  0  0  0  0  0  0  0  0  0  0  0
   -5.7884   -2.2253   -0.0114 H   0  0  0  0  0  0  0  0  0  0  0  0
   -6.5716   -2.6752    1.5413 H   0  0  0  0  0  0  0  0  0  0  0  0
 18 19  1  0  0  0  0
 19 31  1  0  0  0  0
 19 20  2  0  0  0  0
  8  9  1  0  0  0  0
  9 17  1  0  0  0  0
  9 10  2  0  0  0  0
  1  3  1  0  0  0  0
  1  7  1  0  0  0  0
  1  2  2  0  0  0  0
 32 33  1  0  0  0  0
 33 41  1  0  0  0  0
 33 34  2  0  0  0  0
 21 22  1  0  0  0  0
 22 23  1  0  0  0  0
 18 21  1  0  0  0  0
 17 23  1  0  0  0  0
 17 18  1  0  0  0  0
  8 11  1  0  0  0  0
 32 35  1  0  0  0  0
 41 42  1  0  0  0  0
  7  8  1  0  0  0  0
 31 32  1  0  0  0  0
 22 27  1  0  0  0  0
 22 28  1  0  0  0  0
 21 25  1  0  0  0  0
 21 26  1  0  0  0  0
 23 29  1  0  0  0  0
 23 30  1  0  0  0  0
 18 24  1  0  0  0  0
  3  4  1  0  0  0  0
  3  5  1  0  0  0  0
  3  6  1  0  0  0  0
 11 14  1  0  0  0  0
 11 15  1  0  0  0  0
 11 16  1  0  0  0  0
 35 38  1  0  0  0  0
 35 39  1  0  0  0  0
 35 40  1  0  0  0  0
 42 44  1  0  0  0  0
 42 45  1  0  0  0  0
 42 46  1  0  0  0  0
  8 13  1  0  0  0  0
 32 37  1  0  0  0  0
 31 36  1  0  0  0  0
 41 43  1  0  0  0  0
  7 12  1  0  0  0  0
M  END
$$$$

  -OEChem-05262214473D

 46 46  0     1  0  0  0  0  0999 V2000
   -0.6012   -3.2995    3.8205 C   0  0  0  0  0  0  0  0  0  0  0  0
   -0.6574   -4.4683    3.4568 O   0  0  0  0  0  0  0  0  0  0  0  0
   -0.4935   -2.9859    5.2760 C   0  0  0  0  0  0  0  0  0  0  0  0
   -1.4789   -2.8689    5.7550 H   0  0  0  0  0  0  0  0  0  0  0  0
    0.0123   -3.7847    5.8419 H   0  0  0  0  0  0  0  0  0  0  0  0
    0.0585   -2.0642    5.5199 H   0  0  0  0  0  0  0  0  0  0  0  0
   -0.6261   -2.1849    2.9917 N   0  0  0  0  0  0  0  0  0  0  0  0
   -0.7237   -2.2601    1.5650 C   0  0  2  0  0  0  0  0  0  0  0  0
    0.1695   -1.1513    1.0687 C   0  0  0  0  0  0  0  0  0  0  0  0
    0.3193   -0.1267    1.7365 O   0  0  0  0  0  0  0  0  0  0  0  0
   -2.1397   -2.0663    1.0750 C   0  0  0  0  0  0  0  0  0  0  0  0
   -0.5717   -1.2606    3.4238 H   0  0  0  0  0  0  0  0  0  0  0  0
   -0.3076   -3.2111    1.2363 H   0  0  0  0  0  0  0  0  0  0  0  0
   -2.5584   -1.1089    1.4061 H   0  0  0  0  0  0  0  0  0  0  0  0
   -2.1682   -2.0790   -0.0197 H   0  0  0  0  0  0  0  0  0  0  0  0
   -2.7965   -2.8601    1.4459 H   0  0  0  0  0  0  0  0  0  0  0  0
    0.7724   -1.3745   -0.1593 N   0  0  0  0  0  0  0  0  0  0  0  0
    0.5614   -2.5964   -0.9244 C   0  0  2  0  0  0  0  0  0  0  0  0
   -0.3735   -3.4587   -0.1308 C   0  0  0  0  0  0  0  0  0  0  0  0
   -0.2975   -4.6782   -0.2249 O   0  0  0  0  0  0  0  0  0  0  0  0
    1.9458   -3.2230   -1.0432 C   0  0  0  0  0  0  0  0  0  0  0  0
    2.2521   -1.7403   -0.8458 C   0  0  0  0  0  0  0  0  0  0  0  0
    1.5408   -0.3981   -0.9273 C   0  0  0  0  0  0  0  0  0  0  0  0
    0.1027   -2.3787   -1.8936 H   0  0  0  0  0  0  0  0  0  0  0  0
    2.0691   -3.6740   -2.0351 H   0  0  0  0  0  0  0  0  0  0  0  0
    2.1474   -3.9863   -0.2855 H   0  0  0  0  0  0  0  0  0  0  0  0
    2.5528   -1.5477    0.1905 H   0  0  0  0  0  0  0  0  0  0  0  0
    3.0524   -1.3926   -1.5053 H   0  0  0  0  0  0  0  0  0  0  0  0
    2.1327    0.4188   -0.5056 H   0  0  0  0  0  0  0  0  0  0  0  0
    1.2759   -0.1509   -1.9611 H   0  0  0  0  0  0  0  0  0  0  0  0
   -1.2566   -2.8459    0.6493 N   0  0  0  0  0  0  0  0  0  0  0  0
   -2.5004   -2.5325    1.3155 C   0  0  2  0  0  0  0  0  0  0  0  0
   -3.6050   -2.5188    0.2672 C   0  0  0  0  0  0  0  0  0  0  0  0
   -3.3909   -2.3436   -0.9306 O   0  0  0  0  0  0  0  0  0  0  0  0
   -2.4199   -1.1966    2.0379 C   0  0  0  0  0  0  0  0  0  0  0  0
   -0.7369   -3.6630    0.9551 H   0  0  0  0  0  0  0  0  0  0  0  0
   -2.6869   -3.3391    2.0329 H   0  0  0  0  0  0  0  0  0  0  0  0
   -2.2334   -0.3762    1.3353 H   0  0  0  0  0  0  0  0  0  0  0  0
   -3.3531   -0.9741    2.5657 H   0  0  0  0  0  0  0  0  0  0  0  0
   -1.6057   -1.1982    2.7706 H   0  0  0  0  0  0  0  0  0  0  0  0
   -4.8623   -2.6820    0.8316 N   0  0  0  0  0  0  0  0  0  0  0  0
   -6.0743   -2.6918    0.0461 C   0  0  0  0  0  0  0  0  0  0  0  0
   -4.9444   -2.8398    1.8317 H   0  0  0  0  0  0  0  0  0  0  0  0
   -6.4893   -1.6742   -0.0014 H   0  0  0  0  0  0  0  0  0  0  0  0
   -5.8487   -3.0435   -0.9714 H   0  0  0  0  0  0  0  0  0  0  0  0
   -6.8080   -3.3655    0.5127 H   0  0  0  0  0  0  0  0  0  0  0  0
 18 19  1  0  0  0  0
 19 31  1  0  0  0  0
 19 20  2  0  0  0  0
  8  9  1  0  0  0  0
  9 17  1  0  0  0  0
  9 10  2  0  0  0  0
  1  3  1  0  0  0  0
  1  7  1  0  0  0  0
  1  2  2  0  0  0  0
 32 33  1  0  0  0  0
 33 41  1  0  0  0  0
 33 34  2  0  0  0  0
 21 22  1  0  0  0  0
 22 23  1  0  0  0  0
 18 21  1  0  0  0  0
 17 23  1  0  0  0  0
 17 18  1  0  0  0  0
  8 11  1  0  0  0  0
 32 35  1  0  0  0  0
 41 42  1  0  0  0  0
  7  8  1  0  0  0  0
 31 32  1  0  0  0  0
 22 27  1  0  0  0  0
 22 28  1  0  0  0  0
 21 25  1  0  0  0  0
 21 26  1  0  0  0  0
 23 29  1  0  0  0  0
 23 30  1  0  0  0  0
 18 24  1  0  0  0  0
  3  4  1  0  0  0  0
  3  5  1  0  0  0  0
  3  6  1  0  0  0  0
 11 14  1  0  0  0  0
 11 15  1  0  0  0  0
 11 16  1  0  0  0  0
 35 38  1  0  0  0  0
 35 39  1  0  0  0  0
 35 40  1  0  0  0  0
 42 44  1  0  0  0  0
 42 45  1  0  0  0  0
 42 46  1  0  0  0  0
  8 13  1  0  0  0  0
 32 37  1  0  0  0  0
 31 36  1  0  0  0  0
 41 43  1  0  0  0  0
  7 12  1  0  0  0  0
M  END
$$$$

  -OEChem-05262214473D

 46 46  0     1  0  0  0  0  0999 V2000
   -0.6012   -3.2995    3.8205 C   0  0  0  0  0  0  0  0  0  0  0  0
   -0.6574   -4.4683    3.4568 O   0  0  0  0  0  0  0  0  0  0  0  0
   -0.4935   -2.9859    5.2760 C   0  0  0  0  0  0  0  0  0  0  0  0
   -1.4789   -2.8689    5.7550 H   0  0  0  0  0  0  0  0  0  0  0  0
    0.0123   -3.7847    5.8419 H   0  0  0  0  0  0  0  0  0  0  0  0
    0.0585   -2.0642    5.5199 H   0  0  0  0  0  0  0  0  0  0  0  0
   -0.6261   -2.1849    2.9917 N   0  0  0  0  0  0  0  0  0  0  0  0
   -0.7237   -2.2601    1.5650 C   0  0  2  0  0  0  0  0  0  0  0  0
    0.1695   -1.1513    1.0687 C   0  0  0  0  0  0  0  0  0  0  0  0
    0.3193   -0.1267    1.7365 O   0  0  0  0  0  0  0  0  0  0  0  0
   -2.1397   -2.0663    1.0750 C   0  0  0  0  0  0  0  0  0  0  0  0
   -0.5717   -1.2606    3.4238 H   0  0  0  0  0  0  0  0  0  0  0  0
   -0.3076   -3.2111    1.2363 H   0  0  0  0  0  0  0  0  0  0  0  0
   -2.5584   -1.1089    1.4061 H   0  0  0  0  0  0  0  0  0  0  0  0
   -2.1682   -2.0790   -0.0197 H   0  0  0  0  0  0  0  0  0  0  0  0
   -2.7965   -2.8601    1.4459 H   0  0  0  0  0  0  0  0  0  0  0  0
    0.7724   -1.3745   -0.1593 N   0  0  0  0  0  0  0  0  0  0  0  0
    0.5614   -2.5964   -0.9244 C   0  0  2  0  0  0  0  0  0  0  0  0
   -0.3735   -3.4587   -0.1308 C   0  0  0  0  0  0  0  0  0  0  0  0
   -0.1318   -4.6532   -0.0026 O   0  0  0  0  0  0  0  0  0  0  0  0
    1.9458   -3.2230   -1.0432 C   0  0  0  0  0  0  0  0  0  0  0  0
    2.2521   -1.7403   -0.8458 C   0  0  0  0  0  0  0  0  0  0  0  0
    1.5408   -0.3981   -0.9273 C   0  0  0  0  0  0  0  0  0  0  0  0
    0.1027   -2.3787   -1.8936 H   0  0  0  0  0  0  0  0  0  0  0  0
    2.0691   -3.6740   -2.0351 H   0  0  0  0  0  0  0  0  0  0  0  0
    2.1474   -3.9863   -0.2855 H   0  0  0  0  0  0  0  0  0  0  0  0
    2.5528   -1.5477    0.1905 H   0  0  0  0  0  0  0  0  0  0  0  0
    3.0524   -1.3926   -1.5053 H   0  0  0  0  0  0  0  0  0  0  0  0
    2.1327    0.4188   -0.5056 H   0  0  0  0  0  0  0  0  0  0  0  0
    1.2759   -0.1509   -1.9611 H   0  0  0  0  0  0  0  0  0  0  0  0
   -1.4396   -2.8738    0.4034 N   0  0  0  0  0  0  0  0  0  0  0  0
   -2.8032   -2.6526    0.8283 C   0  0  2  0  0  0  0  0  0  0  0  0
   -3.7187   -2.9623   -0.3488 C   0  0  0  0  0  0  0  0  0  0  0  0
   -3.3391   -2.9402   -1.5178 O   0  0  0  0  0  0  0  0  0  0  0  0
   -3.0068   -1.2261    1.3145 C   0  0  0  0  0  0  0  0  0  0  0  0
   -0.8777   -3.5486    0.9136 H   0  0  0  0  0  0  0  0  0  0  0  0
   -3.0001   -3.3603    1.6409 H   0  0  0  0  0  0  0  0  0  0  0  0
   -2.8141   -0.5026    0.5139 H   0  0  0  0  0  0  0  0  0  0  0  0
   -4.0329   -1.0682    1.6626 H   0  0  0  0  0  0  0  0  0  0  0  0
   -2.3267   -0.9954    2.1416 H   0  0  0  0  0  0  0  0  0  0  0  0
   -5.0199   -3.2242    0.0568 N   0  0  0  0  0  0  0  0  0  0  0  0
   -6.0796   -3.5333   -0.8745 C   0  0  0  0  0  0  0  0  0  0  0  0
   -5.2407   -3.2396    1.0482 H   0  0  0  0  0  0  0  0  0  0  0  0
   -6.6054   -2.6080   -1.1528 H   0  0  0  0  0  0  0  0  0  0  0  0
   -5.6519   -3.9970   -1.7757 H   0  0  0  0  0  0  0  0  0  0  0  0
   -6.7887   -4.2307   -0.4046 H   0  0  0  0  0  0  0  0  0  0  0  0
 18 19  1  0  0  0  0
 19 31  1  0  0  0  0
 19 20  2  0  0  0  0
  8  9  1  0  0  0  0
  9 17  1  0  0  0  0
  9 10  2  0  0  0  0
  1  3  1  0  0  0  0
  1  7  1  0  0  0  0
  1  2  2  0  0  0  0
 32 33  1  0  0  0  0
 33 41  1  0  0  0  0
 33 34  2  0  0  0  0
 21 22  1  0  0  0  0
 22 23  1  0  0  0  0
 18 21  1  0  0  0  0
 17 23  1  0  0  0  0
 17 18  1  0  0  0  0
  8 11  1  0  0  0  0
 32 35  1  0  0  0  0
 41 42  1  0  0  0  0
  7  8  1  0  0  0  0
 31 32  1  0  0  0  0
 22 27  1  0  0  0  0
 22 28  1  0  0  0  0
 21 25  1  0  0  0  0
 21 26  1  0  0  0  0
 23 29  1  0  0  0  0
 23 30  1  0  0  0  0
 18 24  1  0  0  0  0
  3  4  1  0  0  0  0
  3  5  1  0  0  0  0
  3  6  1  0  0  0  0
 11 14  1  0  0  0  0
 11 15  1  0  0  0  0
 11 16  1  0  0  0  0
 35 38  1  0  0  0  0
 35 39  1  0  0  0  0
 35 40  1  0  0  0  0
 42 44  1  0  0  0  0
 42 45  1  0  0  0  0
 42 46  1  0  0  0  0
  8 13  1  0  0  0  0
 32 37  1  0  0  0  0
 31 36  1  0  0  0  0
 41 43  1  0  0  0  0
  7 12  1  0  0  0  0
M  END
$$$$

  -OEChem-05262214473D

 46 46  0     1  0  0  0  0  0999 V2000
   -0.6012   -3.2995    3.8205 C   0  0  0  0  0  0  0  0  0  0  0  0
   -0.6574   -4.4683    3.4568 O   0  0  0  0  0  0  0  0  0  0  0  0
   -0.4935   -2.9859    5.2760 C   0  0  0  0  0  0  0  0  0  0  0  0
   -1.4789   -2.8689    5.7550 H   0  0  0  0  0  0  0  0  0  0  0  0
    0.0123   -3.7847    5.8419 H   0  0  0  0  0  0  0  0  0  0  0  0
    0.0585   -2.0642    5.5199 H   0  0  0  0  0  0  0  0  0  0  0  0
   -0.6261   -2.1849    2.9917 N   0  0  0  0  0  0  0  0  0  0  0  0
   -0.7237   -2.2601    1.5650 C   0  0  2  0  0  0  0  0  0  0  0  0
    0.1695   -1.1513    1.0687 C   0  0  0  0  0  0  0  0  0  0  0  0
    0.3193   -0.1267    1.7365 O   0  0  0  0  0  0  0  0  0  0  0  0
   -2.1397   -2.0663    1.0750 C   0  0  0  0  0  0  0  0  0  0  0  0
   -0.5717   -1.2606    3.4238 H   0  0  0  0  0  0  0  0  0  0  0  0
   -0.3076   -3.2111    1.2363 H   0  0  0  0  0  0  0  0  0  0  0  0
   -2.5584   -1.1089    1.4061 H   0  0  0  0  0  0  0  0  0  0  0  0
   -2.1682   -2.0790   -0.0197 H   0  0  0  0  0  0  0  0  0  0  0  0
   -2.7965   -2.8601    1.4459 H   0  0  0  0  0  0  0  0  0  0  0  0
    0.7724   -1.3745   -0.1593 N   0  0  0  0  0  0  0  0  0  0  0  0
    0.5614   -2.5964   -0.9244 C   0  0  2  0  0  0  0  0  0  0  0  0
   -0.3735   -3.4587   -0.1308 C   0  0  0  0  0  0  0  0  0  0  0  0
   -0.0083   -4.5706    0.2327 O   0  0  0  0  0  0  0  0  0  0  0  0
    1.9458   -3.2230   -1.0432 C   0  0  0  0  0  0  0  0  0  0  0  0
    2.2521   -1.7403   -0.8458 C   0  0  0  0  0  0  0  0  0  0  0  0
    1.5408   -0.3981   -0.9273 C   0  0  0  0  0  0  0  0  0  0  0  0
    0.1027   -2.3787   -1.8936 H   0  0  0  0  0  0  0  0  0  0  0  0
    2.0691   -3.6740   -2.0351 H   0  0  0  0  0  0  0  0  0  0  0  0
    2.1474   -3.9863   -0.2855 H   0  0  0  0  0  0  0  0  0  0  0  0
    2.5528   -1.5477    0.1905 H   0  0  0  0  0  0  0  0  0  0  0  0
    3.0524   -1.3926   -1.5053 H   0  0  0  0  0  0  0  0  0  0  0  0
    2.1327    0.4188   -0.5056 H   0  0  0  0  0  0  0  0  0  0  0  0
    1.2759   -0.1509   -1.9611 H   0  0  0  0  0  0  0  0  0  0  0  0
   -1.5759   -2.9655    0.1431 N   0  0  0  0  0  0  0  0  0  0  0  0
   -3.0068   -2.8887    0.3319 C   0  0  2  0  0  0  0  0  0  0  0  0
   -3.6761   -3.5058   -0.8891 C   0  0  0  0  0  0  0  0  0  0  0  0
   -3.1200   -3.6040   -1.9810 O   0  0  0  0  0  0  0  0  0  0  0  0
   -3.4620   -1.4517    0.5331 C   0  0  0  0  0  0  0  0  0  0  0  0
   -1.0232   -3.4640    0.8340 H   0  0  0  0  0  0  0  0  0  0  0  0
   -3.2414   -3.4869    1.2190 H   0  0  0  0  0  0  0  0  0  0  0  0
   -3.2354   -0.8369   -0.3456 H   0  0  0  0  0  0  0  0  0  0  0  0
   -4.5422   -1.3979    0.7044 H   0  0  0  0  0  0  0  0  0  0  0  0
   -2.9573   -0.9999    1.3939 H   0  0  0  0  0  0  0  0  0  0  0  0
   -4.9824   -3.8946   -0.6275 N   0  0  0  0  0  0  0  0  0  0  0  0
   -5.8324   -4.4954   -1.6288 C   0  0  0  0  0  0  0  0  0  0  0  0
   -5.3555   -3.7929    0.3118 H   0  0  0  0  0  0  0  0  0  0  0  0
   -6.4181   -3.7117   -2.1315 H   0  0  0  0  0  0  0  0  0  0  0  0
   -5.2114   -5.0209   -2.3693 H   0  0  0  0  0  0  0  0  0  0  0  0
   -6.5150   -5.2118   -1.1482 H   0  0  0  0  0  0  0  0  0  0  0  0
 18 19  1  0  0  0  0
 19 31  1  0  0  0  0
 19 20  2  0  0  0  0
  8  9  1  0  0  0  0
  9 17  1  0  0  0  0
  9 10  2  0  0  0  0
  1  3  1  0  0  0  0
  1  7  1  0  0  0  0
  1  2  2  0  0  0  0
 32 33  1  0  0  0  0
 33 41  1  0  0  0  0
 33 34  2  0  0  0  0
 21 22  1  0  0  0  0
 22 23  1  0  0  0  0
 18 21  1  0  0  0  0
 17 23  1  0  0  0  0
 17 18  1  0  0  0  0
  8 11  1  0  0  0  0
 32 35  1  0  0  0  0
 41 42  1  0  0  0  0
  7  8  1  0  0  0  0
 31 32  1  0  0  0  0
 22 27  1  0  0  0  0
 22 28  1  0  0  0  0
 21 25  1  0  0  0  0
 21 26  1  0  0  0  0
 23 29  1  0  0  0  0
 23 30  1  0  0  0  0
 18 24  1  0  0  0  0
  3  4  1  0  0  0  0
  3  5  1  0  0  0  0
  3  6  1  0  0  0  0
 11 14  1  0  0  0  0
 11 15  1  0  0  0  0
 11 16  1  0  0  0  0
 35 38  1  0  0  0  0
 35 39  1  0  0  0  0
 35 40  1  0  0  0  0
 42 44  1  0  0  0  0
 42 45  1  0  0  0  0
 42 46  1  0  0  0  0
  8 13  1  0  0  0  0
 32 37  1  0  0  0  0
 31 36  1  0  0  0  0
 41 43  1  0  0  0  0
  7 12  1  0  0  0  0
M  END
$$$$

  -OEChem-05262214473D

 46 46  0     1  0  0  0  0  0999 V2000
   -0.6012   -3.2995    3.8205 C   0  0  0  0  0  0  0  0  0  0  0  0
   -0.6574   -4.4683    3.4568 O   0  0  0  0  0  0  0  0  0  0  0  0
   -0.4935   -2.9859    5.2760 C   0  0  0  0  0  0  0  0  0  0  0  0
   -1.4789   -2.8689    5.7550 H   0  0  0  0  0  0  0  0  0  0  0  0
    0.0123   -3.7847    5.8419 H   0  0  0  0  0  0  0  0  0  0  0  0
    0.0585   -2.0642    5.5199 H   0  0  0  0  0  0  0  0  0  0  0  0
   -0.6261   -2.1849    2.9917 N   0  0  0  0  0  0  0  0  0  0  0  0
   -0.7237   -2.2601    1.5650 C   0  0  2  0  0  0  0  0  0  0  0  0
    0.1695   -1.1513    1.0687 C   0  0  0  0  0  0  0  0  0  0  0  0
    0.3193   -0.1267    1.7365 O   0  0  0  0  0  0  0  0  0  0  0  0
   -2.1397   -2.0663    1.0750 C   0  0  0  0  0  0  0  0  0  0  0  0
   -0.5717   -1.2606    3.4238 H   0  0  0  0  0  0  0  0  0  0  0  0
   -0.3076   -3.2111    1.2363 H   0  0  0  0  0  0  0  0  0  0  0  0
   -2.5584   -1.1089    1.4061 H   0  0  0  0  0  0  0  0  0  0  0  0
   -2.1682   -2.0790   -0.0197 H   0  0  0  0  0  0  0  0  0  0  0  0
   -2.7965   -2.8601    1.4459 H   0  0  0  0  0  0  0  0  0  0  0  0
    0.7724   -1.3745   -0.1593 N   0  0  0  0  0  0  0  0  0  0  0  0
    0.5614   -2.5964   -0.9244 C   0  0  2  0  0  0  0  0  0  0  0  0
   -0.3735   -3.4587   -0.1308 C   0  0  0  0  0  0  0  0  0  0  0  0
    0.0646   -4.4358    0.4650 O   0  0  0  0  0  0  0  0  0  0  0  0
    1.9458   -3.2230   -1.0432 C   0  0  0  0  0  0  0  0  0  0  0  0
    2.2521   -1.7403   -0.8458 C   0  0  0  0  0  0  0  0  0  0  0  0
    1.5408   -0.3981   -0.9273 C   0  0  0  0  0  0  0  0  0  0  0  0
    0.1027   -2.3787   -1.8936 H   0  0  0  0  0  0  0  0  0  0  0  0
    2.0691   -3.6740   -2.0351 H   0  0  0  0  0  0  0  0  0  0  0  0
    2.1474   -3.9863   -0.2855 H   0  0  0  0  0  0  0  0  0  0  0  0
    2.5528   -1.5477    0.1905 H   0  0  0  0  0  0  0  0  0  0  0  0
    3.0524   -1.3926   -1.5053 H   0  0  0  0  0  0  0  0  0  0  0  0
    2.1327    0.4188   -0.5056 H   0  0  0  0  0  0  0  0  0  0  0  0
    1.2759   -0.1509   -1.9611 H   0  0  0  0  0  0  0  0  0  0  0  0
   -1.6563   -3.1149   -0.1138 N   0  0  0  0  0  0  0  0  0  0  0  0
   -3.0972   -3.2248   -0.1398 C   0  0  2  0  0  0  0  0  0  0  0  0
   -3.4800   -4.1121   -1.3170 C   0  0  0  0  0  0  0  0  0  0  0  0
   -2.7484   -4.2900   -2.2886 O   0  0  0  0  0  0  0  0  0  0  0  0
   -3.7544   -1.8581   -0.2530 C   0  0  0  0  0  0  0  0  0  0  0  0
   -1.1635   -3.4151    0.7219 H   0  0  0  0  0  0  0  0  0  0  0  0
   -3.3943   -3.7104    0.7961 H   0  0  0  0  0  0  0  0  0  0  0  0
   -3.4686   -1.3562   -1.1846 H   0  0  0  0  0  0  0  0  0  0  0  0
   -4.8463   -1.9409   -0.2438 H   0  0  0  0  0  0  0  0  0  0  0  0
   -3.4545   -1.2113    0.5785 H   0  0  0  0  0  0  0  0  0  0  0  0
   -4.7525   -4.6475   -1.1748 N   0  0  0  0  0  0  0  0  0  0  0  0
   -5.3495   -5.5127   -2.1652 C   0  0  0  0  0  0  0  0  0  0  0  0
   -5.2809   -4.4619   -0.3273 H   0  0  0  0  0  0  0  0  0  0  0  0
   -5.9403   -4.9102   -2.8709 H   0  0  0  0  0  0  0  0  0  0  0  0
   -4.5573   -6.0453   -2.7119 H   0  0  0  0  0  0  0  0  0  0  0  0
   -6.0054   -6.2420   -1.6673 H   0  0  0  0  0  0  0  0  0  0  0  0
 18 19  1  0  0  0  0
 19 31  1  0  0  0  0
 19 20  2  0  0  0  0
  8  9  1  0  0  0  0
  9 17  1  0  0  0  0
  9 10  2  0  0  0  0
  1  3  1  0  0  0  0
  1  7  1  0  0  0  0
  1  2  2  0  0  0  0
 32 33  1  0  0  0  0
 33 41  1  0  0  0  0
 33 34  2  0  0  0  0
 21 22  1  0  0  0  0
 22 23  1  0  0  0  0
 18 21  1  0  0  0  0
 17 23  1  0  0  0  0
 17 18  1  0  0  0  0
  8 11  1  0  0  0  0
 32 35  1  0  0  0  0
 41 42  1  0  0  0  0
  7  8  1  0  0  0  0
 31 32  1  0  0  0  0
 22 27  1  0  0  0  0
 22 28  1  0  0  0  0
 21 25  1  0  0  0  0
 21 26  1  0  0  0  0
 23 29  1  0  0  0  0
 23 30  1  0  0  0  0
 18 24  1  0  0  0  0
  3  4  1  0  0  0  0
  3  5  1  0  0  0  0
  3  6  1  0  0  0  0
 11 14  1  0  0  0  0
 11 15  1  0  0  0  0
 11 16  1  0  0  0  0
 35 38  1  0  0  0  0
 35 39  1  0  0  0  0
 35 40  1  0  0  0  0
 42 44  1  0  0  0  0
 42 45  1  0  0  0  0
 42 46  1  0  0  0  0
  8 13  1  0  0  0  0
 32 37  1  0  0  0  0
 31 36  1  0  0  0  0
 41 43  1  0  0  0  0
  7 12  1  0  0  0  0
M  END
$$$$

  -OEChem-05262214473D

 46 46  0     1  0  0  0  0  0999 V2000
   -0.6012   -3.2995    3.8205 C   0  0  0  0  0  0  0  0  0  0  0  0
   -0.6574   -4.4683    3.4568 O   0  0  0  0  0  0  0  0  0  0  0  0
   -0.4935   -2.9859    5.2760 C   0  0  0  0  0  0  0  0  0  0  0  0
   -1.4789   -2.8689    5.7550 H   0  0  0  0  0  0  0  0  0  0  0  0
    0.0123   -3.7847    5.8419 H   0  0  0  0  0  0  0  0  0  0  0  0
    0.0585   -2.0642    5.5199 H   0  0  0  0  0  0  0  0  0  0  0  0
   -0.6261   -2.1849    2.9917 N   0  0  0  0  0  0  0  0  0  0  0  0
   -0.7237   -2.2601    1.5650 C   0  0  2  0  0  0  0  0  0  0  0  0
    0.1695   -1.1513    1.0687 C   0  0  0  0  0  0  0  0  0  0  0  0
    0.3193   -0.1267    1.7365 O   0  0  0  0  0  0  0  0  0  0  0  0
   -2.1397   -2.0663    1.0750 C   0  0  0  0  0  0  0  0  0  0  0  0
   -0.5717   -1.2606    3.4238 H   0  0  0  0  0  0  0  0  0  0  0  0
   -0.3076   -3.2111    1.2363 H   0  0  0  0  0  0  0  0  0  0  0  0
   -2.5584   -1.1089    1.4061 H   0  0  0  0  0  0  0  0  0  0  0  0
   -2.1682   -2.0790   -0.0197 H   0  0  0  0  0  0  0  0  0  0  0  0
   -2.7965   -2.8601    1.4459 H   0  0  0  0  0  0  0  0  0  0  0  0
    0.7724   -1.3745   -0.1593 N   0  0  0  0  0  0  0  0  0  0  0  0
    0.5614   -2.5964   -0.9244 C   0  0  2  0  0  0  0  0  0  0  0  0
   -0.3735   -3.4587   -0.1308 C   0  0  0  0  0  0  0  0  0  0  0  0
    0.0820   -4.2582    0.6786 O   0  0  0  0  0  0  0  0  0  0  0  0
    1.9458   -3.2230   -1.0432 C   0  0  0  0  0  0  0  0  0  0  0  0
    2.2521   -1.7403   -0.8458 C   0  0  0  0  0  0  0  0  0  0  0  0
    1.5408   -0.3981   -0.9273 C   0  0  0  0  0  0  0  0  0  0  0  0
    0.1027   -2.3787   -1.8936 H   0  0  0  0  0  0  0  0  0  0  0  0
    2.0691   -3.6740   -2.0351 H   0  0  0  0  0  0  0  0  0  0  0  0
    2.1474   -3.9863   -0.2855 H   0  0  0  0  0  0  0  0  0  0  0  0
    2.5528   -1.5477    0.1905 H   0  0  0  0  0  0  0  0  0  0  0  0
    3.0524   -1.3926   -1.5053 H   0  0  0  0  0  0  0  0  0  0  0  0
    2.1327    0.4188   -0.5056 H   0  0  0  0  0  0  0  0  0  0  0  0
    1.2759   -0.1509   -1.9611 H   0  0  0  0  0  0  0  0  0  0  0  0
   -1.6752   -3.3116   -0.3499 N   0  0  0  0  0  0  0  0  0  0  0  0
   -3.0682   -3.6379   -0.5546 C   0  0  2  0  0  0  0  0  0  0  0  0
   -3.1439   -4.7399   -1.6032 C   0  0  0  0  0  0  0  0  0  0  0  0
   -2.2497   -4.9514   -2.4198 O   0  0  0  0  0  0  0  0  0  0  0  0
   -3.8642   -2.4176   -0.9903 C   0  0  0  0  0  0  0  0  0  0  0  0
   -1.2890   -3.4053    0.5847 H   0  0  0  0  0  0  0  0  0  0  0  0
   -3.4484   -4.0155    0.4009 H   0  0  0  0  0  0  0  0  0  0  0  0
   -3.4977   -2.0252   -1.9459 H   0  0  0  0  0  0  0  0  0  0  0  0
   -4.9244   -2.6600   -1.1174 H   0  0  0  0  0  0  0  0  0  0  0  0
   -3.7843   -1.6152   -0.2490 H   0  0  0  0  0  0  0  0  0  0  0  0
   -4.3459   -5.4315   -1.5476 N   0  0  0  0  0  0  0  0  0  0  0  0
   -4.6638   -6.5157   -2.4473 C   0  0  0  0  0  0  0  0  0  0  0  0
   -5.0221   -5.2011   -0.8255 H   0  0  0  0  0  0  0  0  0  0  0  0
   -5.2045   -6.1217   -3.3205 H   0  0  0  0  0  0  0  0  0  0  0  0
   -3.7342   -7.0005   -2.7800 H   0  0  0  0  0  0  0  0  0  0  0  0
   -5.2948   -7.2510   -1.9266 H   0  0  0  0  0  0  0  0  0  0  0  0
 18 19  1  0  0  0  0
 19 31  1  0  0  0  0
 19 20  2  0  0  0  0
  8  9  1  0  0  0  0
  9 17  1  0  0  0  0
  9 10  2  0  0  0  0
  1  3  1  0  0  0  0
  1  7  1  0  0  0  0
  1  2  2  0  0  0  0
 32 33  1  0  0  0  0
 33 41  1  0  0  0  0
 33 34  2  0  0  0  0
 21 22  1  0  0  0  0
 22 23  1  0  0  0  0
 18 21  1  0  0  0  0
 17 23  1  0  0  0  0
 17 18  1  0  0  0  0
  8 11  1  0  0  0  0
 32 35  1  0  0  0  0
 41 42  1  0  0  0  0
  7  8  1  0  0  0  0
 31 32  1  0  0  0  0
 22 27  1  0  0  0  0
 22 28  1  0  0  0  0
 21 25  1  0  0  0  0
 21 26  1  0  0  0  0
 23 29  1  0  0  0  0
 23 30  1  0  0  0  0
 18 24  1  0  0  0  0
  3  4  1  0  0  0  0
  3  5  1  0  0  0  0
  3  6  1  0  0  0  0
 11 14  1  0  0  0  0
 11 15  1  0  0  0  0
 11 16  1  0  0  0  0
 35 38  1  0  0  0  0
 35 39  1  0  0  0  0
 35 40  1  0  0  0  0
 42 44  1  0  0  0  0
 42 45  1  0  0  0  0
 42 46  1  0  0  0  0
  8 13  1  0  0  0  0
 32 37  1  0  0  0  0
 31 36  1  0  0  0  0
 41 43  1  0  0  0  0
  7 12  1  0  0  0  0
M  END
$$$$

  -OEChem-05262214473D

 46 46  0     1  0  0  0  0  0999 V2000
   -0.6012   -3.2995    3.8205 C   0  0  0  0  0  0  0  0  0  0  0  0
   -0.6574   -4.4683    3.4568 O   0  0  0  0  0  0  0  0  0  0  0  0
   -0.4935   -2.9859    5.2760 C   0  0  0  0  0  0  0  0  0  0  0  0
   -1.4789   -2.8689    5.7550 H   0  0  0  0  0  0  0  0  0  0  0  0
    0.0123   -3.7847    5.8419 H   0  0  0  0  0  0  0  0  0  0  0  0
    0.0585   -2.0642    5.5199 H   0  0  0  0  0  0  0  0  0  0  0  0
   -0.6261   -2.1849    2.9917 N   0  0  0  0  0  0  0  0  0  0  0  0
   -0.7237   -2.2601    1.5650 C   0  0  2  0  0  0  0  0  0  0  0  0
    0.1695   -1.1513    1.0687 C   0  0  0  0  0  0  0  0  0  0  0  0
    0.3193   -0.1267    1.7365 O   0  0  0  0  0  0  0  0  0  0  0  0
   -2.1397   -2.0663    1.0750 C   0  0  0  0  0  0  0  0  0  0  0  0
   -0.5717   -1.2606    3.4238 H   0  0  0  0  0  0  0  0  0  0  0  0
   -0.3076   -3.2111    1.2363 H   0  0  0  0  0  0  0  0  0  0  0  0
   -2.5584   -1.1089    1.4061 H   0  0  0  0  0  0  0  0  0  0  0  0
   -2.1682   -2.0790   -0.0197 H   0  0  0  0  0  0  0  0  0  0  0  0
   -2.7965   -2.8601    1.4459 H   0  0  0  0  0  0  0  0  0  0  0  0
    0.7724   -1.3745   -0.1593 N   0  0  0  0  0  0  0  0  0  0  0  0
    0.5614   -2.5964   -0.9244 C   0  0  2  0  0  0  0  0  0  0  0  0
   -0.3735   -3.4587   -0.1308 C   0  0  0  0  0  0  0  0  0  0  0  0
    0.0427   -4.0497    0.8588 O   0  0  0  0  0  0  0  0  0  0  0  0
    1.9458   -3.2230   -1.0432 C   0  0  0  0  0  0  0  0  0  0  0  0
    2.2521   -1.7403   -0.8458 C   0  0  0  0  0  0  0  0  0  0  0  0
    1.5408   -0.3981   -0.9273 C   0  0  0  0  0  0  0  0  0  0  0  0
    0.1027   -2.3787   -1.8936 H   0  0  0  0  0  0  0  0  0  0  0  0
    2.0691   -3.6740   -2.0351 H   0  0  0  0  0  0  0  0  0  0  0  0
    2.1474   -3.9863   -0.2855 H   0  0  0  0  0  0  0  0  0  0  0  0
    2.5528   -1.5477    0.1905 H   0  0  0  0  0  0  0  0  0  0  0  0
    3.0524   -1.3926   -1.5053 H   0  0  0  0  0  0  0  0  0  0  0  0
    2.1327    0.4188   -0.5056 H   0  0  0  0  0  0  0  0  0  0  0  0
    1.2759   -0.1509   -1.9611 H   0  0  0  0  0  0  0  0  0  0  0  0
   -1.6314   -3.5423   -0.5489 N   0  0  0  0  0  0  0  0  0  0  0  0
   -2.9219   -4.1000   -0.8843 C   0  0  2  0  0  0  0  0  0  0  0  0
   -2.6906   -5.3465   -1.7282 C   0  0  0  0  0  0  0  0  0  0  0  0
   -1.6579   -5.5430   -2.3654 O   0  0  0  0  0  0  0  0  0  0  0  0
   -3.7838   -3.0920   -1.6285 C   0  0  0  0  0  0  0  0  0  0  0  0
   -1.3912   -3.4350    0.4320 H   0  0  0  0  0  0  0  0  0  0  0  0
   -3.4000   -4.3813    0.0603 H   0  0  0  0  0  0  0  0  0  0  0  0
   -3.3209   -2.7982   -2.5776 H   0  0  0  0  0  0  0  0  0  0  0  0
   -4.7714   -3.5064   -1.8567 H   0  0  0  0  0  0  0  0  0  0  0  0
   -3.9244   -2.1840   -1.0322 H   0  0  0  0  0  0  0  0  0  0  0  0
   -3.7901   -6.1933   -1.7207 N   0  0  0  0  0  0  0  0  0  0  0  0
   -3.8221   -7.4361   -2.4558 C   0  0  0  0  0  0  0  0  0  0  0  0
   -4.5966   -5.9600   -1.1490 H   0  0  0  0  0  0  0  0  0  0  0  0
   -4.2609   -7.2637   -3.4497 H   0  0  0  0  0  0  0  0  0  0  0  0
   -2.7980   -7.8214   -2.5692 H   0  0  0  0  0  0  0  0  0  0  0  0
   -4.4316   -8.1702   -1.9084 H   0  0  0  0  0  0  0  0  0  0  0  0
 18 19  1  0  0  0  0
 19 31  1  0  0  0  0
 19 20  2  0  0  0  0
  8  9  1  0  0  0  0
  9 17  1  0  0  0  0
  9 10  2  0  0  0  0
  1  3  1  0  0  0  0
  1  7  1  0  0  0  0
  1  2  2  0  0  0  0
 32 33  1  0  0  0  0
 33 41  1  0  0  0  0
 33 34  2  0  0  0  0
 21 22  1  0  0  0  0
 22 23  1  0  0  0  0
 18 21  1  0  0  0  0
 17 23  1  0  0  0  0
 17 18  1  0  0  0  0
  8 11  1  0  0  0  0
 32 35  1  0  0  0  0
 41 42  1  0  0  0  0
  7  8  1  0  0  0  0
 31 32  1  0  0  0  0
 22 27  1  0  0  0  0
 22 28  1  0  0  0  0
 21 25  1  0  0  0  0
 21 26  1  0  0  0  0
 23 29  1  0  0  0  0
 23 30  1  0  0  0  0
 18 24  1  0  0  0  0
  3  4  1  0  0  0  0
  3  5  1  0  0  0  0
  3  6  1  0  0  0  0
 11 14  1  0  0  0  0
 11 15  1  0  0  0  0
 11 16  1  0  0  0  0
 35 38  1  0  0  0  0
 35 39  1  0  0  0  0
 35 40  1  0  0  0  0
 42 44  1  0  0  0  0
 42 45  1  0  0  0  0
 42 46  1  0  0  0  0
  8 13  1  0  0  0  0
 32 37  1  0  0  0  0
 31 36  1  0  0  0  0
 41 43  1  0  0  0  0
  7 12  1  0  0  0  0
M  END
$$$$

  -OEChem-05262214473D

 46 46  0     1  0  0  0  0  0999 V2000
   -0.6012   -3.2995    3.8205 C   0  0  0  0  0  0  0  0  0  0  0  0
   -0.6574   -4.4683    3.4568 O   0  0  0  0  0  0  0  0  0  0  0  0
   -0.4935   -2.9859    5.2760 C   0  0  0  0  0  0  0  0  0  0  0  0
   -1.4789   -2.8689    5.7550 H   0  0  0  0  0  0  0  0  0  0  0  0
    0.0123   -3.7847    5.8419 H   0  0  0  0  0  0  0  0  0  0  0  0
    0.0585   -2.0642    5.5199 H   0  0  0  0  0  0  0  0  0  0  0  0
   -0.6261   -2.1849    2.9917 N   0  0  0  0  0  0  0  0  0  0  0  0
   -0.7237   -2.2601    1.5650 C   0  0  2  0  0  0  0  0  0  0  0  0
    0.1695   -1.1513    1.0687 C   0  0  0  0  0  0  0  0  0  0  0  0
    0.3193   -0.1267    1.7365 O   0  0  0  0  0  0  0  0  0  0  0  0
   -2.1397   -2.0663    1.0750 C   0  0  0  0  0  0  0  0  0  0  0  0
   -0.5717   -1.2606    3.4238 H   0  0  0  0  0  0  0  0  0  0  0  0
   -0.3076   -3.2111    1.2363 H   0  0  0  0  0  0  0  0  0  0  0  0
   -2.5584   -1.1089    1.4061 H   0  0  0  0  0  0  0  0  0  0  0  0
   -2.1682   -2.0790   -0.0197 H   0  0  0  0  0  0  0  0  0  0  0  0
   -2.7965   -2.8601    1.4459 H   0  0  0  0  0  0  0  0  0  0  0  0
    0.7724   -1.3745   -0.1593 N   0  0  0  0  0  0  0  0  0  0  0  0
    0.5614   -2.5964   -0.9244 C   0  0  2  0  0  0  0  0  0  0  0  0
   -0.3735   -3.4587   -0.1308 C   0  0  0  0  0  0  0  0  0  0  0  0
   -0.0507   -3.8247    0.9933 O   0  0  0  0  0  0  0  0  0  0  0  0
    1.9458   -3.2230   -1.0432 C   0  0  0  0  0  0  0  0  0  0  0  0
    2.2521   -1.7403   -0.8458 C   0  0  0  0  0  0  0  0  0  0  0  0
    1.5408   -0.3981   -0.9273 C   0  0  0  0  0  0  0  0  0  0  0  0
    0.1027   -2.3787   -1.8936 H   0  0  0  0  0  0  0  0  0  0  0  0
    2.0691   -3.6740   -2.0351 H   0  0  0  0  0  0  0  0  0  0  0  0
    2.1474   -3.9863   -0.2855 H   0  0  0  0  0  0  0  0  0  0  0  0
    2.5528   -1.5477    0.1905 H   0  0  0  0  0  0  0  0  0  0  0  0
    3.0524   -1.3926   -1.5053 H   0  0  0  0  0  0  0  0  0  0  0  0
    2.1327    0.4188   -0.5056 H   0  0  0  0  0  0  0  0  0  0  0  0
    1.2759   -0.1509   -1.9611 H   0  0  0  0  0  0  0  0  0  0  0  0
   -1.5278   -3.7912   -0.6974 N   0  0  0  0  0  0  0  0  0  0  0  0
   -2.6681   -4.5795   -1.1064 C   0  0  2  0  0  0  0  0  0  0  0  0
   -2.1509   -5.8905   -1.6837 C   0  0  0  0  0  0  0  0  0  0  0  0
   -1.0132   -6.0247   -2.1293 O   0  0  0  0  0  0  0  0  0  0  0  0
   -3.5187   -3.8355   -2.1241 C   0  0  0  0  0  0  0  0  0  0  0  0
   -1.4631   -3.5024    0.2741 H   0  0  0  0  0  0  0  0  0  0  0  0
   -3.2525   -4.7831   -0.2024 H   0  0  0  0  0  0  0  0  0  0  0  0
   -2.9502   -3.6227   -3.0367 H   0  0  0  0  0  0  0  0  0  0  0  0
   -4.3975   -4.4223   -2.4114 H   0  0  0  0  0  0  0  0  0  0  0  0
   -3.8652   -2.8792   -1.7178 H   0  0  0  0  0  0  0  0  0  0  0  0
   -3.1231   -6.8810   -1.6821 N   0  0  0  0  0  0  0  0  0  0  0  0
   -2.8817   -8.2112   -2.1902 C   0  0  0  0  0  0  0  0  0  0  0  0
   -4.0335   -6.6869   -1.2755 H   0  0  0  0  0  0  0  0  0  0  0  0
   -3.1737   -8.2583   -3.2496 H   0  0  0  0  0  0  0  0  0  0  0  0
   -1.8127   -8.4520   -2.0936 H   0  0  0  0  0  0  0  0  0  0  0  0
   -3.4745   -8.9369   -1.6140 H   0  0  0  0  0  0  0  0  0  0  0  0
 18 19  1  0  0  0  0
 19 31  1  0  0  0  0
 19 20  2  0  0  0  0
  8  9  1  0  0  0  0
  9 17  1  0  0  0  0
  9 10  2  0  0  0  0
  1  3  1  0  0  0  0
  1  7  1  0  0  0  0
  1  2  2  0  0  0  0
 32 33  1  0  0  0  0
 33 41  1  0  0  0  0
 33 34  2  0  0  0  0
 21 22  1  0  0  0  0
 22 23  1  0  0  0  0
 18 21  1  0  0  0  0
 17 23  1  0  0  0  0
 17 18  1  0  0  0  0
  8 11  1  0  0  0  0
 32 35  1  0  0  0  0
 41 42  1  0  0  0  0
  7  8  1  0  0  0  0
 31 32  1  0  0  0  0
 22 27  1  0  0  0  0
 22 28  1  0  0  0  0
 21 25  1  0  0  0  0
 21 26  1  0  0  0  0
 23 29  1  0  0  0  0
 23 30  1  0  0  0  0
 18 24  1  0  0  0  0
  3  4  1  0  0  0  0
  3  5  1  0  0  0  0
  3  6  1  0  0  0  0
 11 14  1  0  0  0  0
 11 15  1  0  0  0  0
 11 16  1  0  0  0  0
 35 38  1  0  0  0  0
 35 39  1  0  0  0  0
 35 40  1  0  0  0  0
 42 44  1  0  0  0  0
 42 45  1  0  0  0  0
 42 46  1  0  0  0  0
  8 13  1  0  0  0  0
 32 37  1  0  0  0  0
 31 36  1  0  0  0  0
 41 43  1  0  0  0  0
  7 12  1  0  0  0  0
M  END
$$$$

  -OEChem-05262214473D

 46 46  0     1  0  0  0  0  0999 V2000
   -0.6012   -3.2995    3.8205 C   0  0  0  0  0  0  0  0  0  0  0  0
   -0.6574   -4.4683    3.4568 O   0  0  0  0  0  0  0  0  0  0  0  0
   -0.4935   -2.9859    5.2760 C   0  0  0  0  0  0  0  0  0  0  0  0
   -1.4789   -2.8689    5.7550 H   0  0  0  0  0  0  0  0  0  0  0  0
    0.0123   -3.7847    5.8419 H   0  0  0  0  0  0  0  0  0  0  0  0
    0.0585   -2.0642    5.5199 H   0  0  0  0  0  0  0  0  0  0  0  0
   -0.6261   -2.1849    2.9917 N   0  0  0  0  0  0  0  0  0  0  0  0
   -0.7237   -2.2601    1.5650 C   0  0  2  0  0  0  0  0  0  0  0  0
    0.1695   -1.1513    1.0687 C   0  0  0  0  0  0  0  0  0  0  0  0
    0.3193   -0.1267    1.7365 O   0  0  0  0  0  0  0  0  0  0  0  0
   -2.1397   -2.0663    1.0750 C   0  0  0  0  0  0  0  0  0  0  0  0
   -0.5717   -1.2606    3.4238 H   0  0  0  0  0  0  0  0  0  0  0  0
   -0.3076   -3.2111    1.2363 H   0  0  0  0  0  0  0  0  0  0  0  0
   -2.5584   -1.1089    1.4061 H   0  0  0  0  0  0  0  0  0  0  0  0
   -2.1682   -2.0790   -0.0197 H   0  0  0  0  0  0  0  0  0  0  0  0
   -2.7965   -2.8601    1.4459 H   0  0  0  0  0  0  0  0  0  0  0  0
    0.7724   -1.3745   -0.1593 N   0  0  0  0  0  0  0  0  0  0  0  0
    0.5614   -2.5964   -0.9244 C   0  0  2  0  0  0  0  0  0  0  0  0
   -0.3735   -3.4587   -0.1308 C   0  0  0  0  0  0  0  0  0  0  0  0
   -0.1917   -3.5984    1.0730 O   0  0  0  0  0  0  0  0  0  0  0  0
    1.9458   -3.2230   -1.0432 C   0  0  0  0  0  0  0  0  0  0  0  0
    2.2521   -1.7403   -0.8458 C   0  0  0  0  0  0  0  0  0  0  0  0
    1.5408   -0.3981   -0.9273 C   0  0  0  0  0  0  0  0  0  0  0  0
    0.1027   -2.3787   -1.8936 H   0  0  0  0  0  0  0  0  0  0  0  0
    2.0691   -3.6740   -2.0351 H   0  0  0  0  0  0  0  0  0  0  0  0
    2.1474   -3.9863   -0.2855 H   0  0  0  0  0  0  0  0  0  0  0  0
    2.5528   -1.5477    0.1905 H   0  0  0  0  0  0  0  0  0  0  0  0
    3.0524   -1.3926   -1.5053 H   0  0  0  0  0  0  0  0  0  0  0  0
    2.1327    0.4188   -0.5056 H   0  0  0  0  0  0  0  0  0  0  0  0
    1.2759   -0.1509   -1.9611 H   0  0  0  0  0  0  0  0  0  0  0  0
   -1.3715   -4.0415   -0.7853 N   0  0  0  0  0  0  0  0  0  0  0  0
   -2.3243   -5.0437   -1.2057 C   0  0  2  0  0  0  0  0  0  0  0  0
   -1.5618   -6.3348   -1.4724 C   0  0  0  0  0  0  0  0  0  0  0  0
   -0.3597   -6.3635   -1.7276 O   0  0  0  0  0  0  0  0  0  0  0  0
   -3.0871   -4.5974   -2.4433 C   0  0  0  0  0  0  0  0  0  0  0  0
   -1.4998   -3.6029    0.1217 H   0  0  0  0  0  0  0  0  0  0  0  0
   -3.0158   -5.1933   -0.3694 H   0  0  0  0  0  0  0  0  0  0  0  0
   -2.4108   -4.4424   -3.2919 H   0  0  0  0  0  0  0  0  0  0  0  0
   -3.8283   -5.3452   -2.7438 H   0  0  0  0  0  0  0  0  0  0  0  0
   -3.6107   -3.6531   -2.2589 H   0  0  0  0  0  0  0  0  0  0  0  0
   -2.3904   -7.4476   -1.4346 N   0  0  0  0  0  0  0  0  0  0  0  0
   -1.9066   -8.7882   -1.6685 C   0  0  0  0  0  0  0  0  0  0  0  0
   -3.3712   -7.3324   -1.1966 H   0  0  0  0  0  0  0  0  0  0  0  0
   -2.0171   -9.0378   -2.7341 H   0  0  0  0  0  0  0  0  0  0  0  0
   -0.8453   -8.8494   -1.3858 H   0  0  0  0  0  0  0  0  0  0  0  0
   -2.4888   -9.4987   -1.0633 H   0  0  0  0  0  0  0  0  0  0  0  0
 18 19  1  0  0  0  0
 19 31  1  0  0  0  0
 19 20  2  0  0  0  0
  8  9  1  0  0  0  0
  9 17  1  0  0  0  0
  9 10  2  0  0  0  0
  1  3  1  0  0  0  0
  1  7  1  0  0  0  0
  1  2  2  0  0  0  0
 32 33  1  0  0  0  0
 33 41  1  0  0  0  0
 33 34  2  0  0  0  0
 21 22  1  0  0  0  0
 22 23  1  0  0  0  0
 18 21  1  0  0  0  0
 17 23  1  0  0  0  0
 17 18  1  0  0  0  0
  8 11  1  0  0  0  0
 32 35  1  0  0  0  0
 41 42  1  0  0  0  0
  7  8  1  0  0  0  0
 31 32  1  0  0  0  0
 22 27  1  0  0  0  0
 22 28  1  0  0  0  0
 21 25  1  0  0  0  0
 21 26  1  0  0  0  0
 23 29  1  0  0  0  0
 23 30  1  0  0  0  0
 18 24  1  0  0  0  0
  3  4  1  0  0  0  0
  3  5  1  0  0  0  0
  3  6  1  0  0  0  0
 11 14  1  0  0  0  0
 11 15  1  0  0  0  0
 11 16  1  0  0  0  0
 35 38  1  0  0  0  0
 35 39  1  0  0  0  0
 35 40  1  0  0  0  0
 42 44  1  0  0  0  0
 42 45  1  0  0  0  0
 42 46  1  0  0  0  0
  8 13  1  0  0  0  0
 32 37  1  0  0  0  0
 31 36  1  0  0  0  0
 41 43  1  0  0  0  0
  7 12  1  0  0  0  0
M  END
$$$$

  -OEChem-05262214473D

 46 46  0     1  0  0  0  0  0999 V2000
   -0.6012   -3.2995    3.8205 C   0  0  0  0  0  0  0  0  0  0  0  0
   -0.6574   -4.4683    3.4568 O   0  0  0  0  0  0  0  0  0  0  0  0
   -0.4935   -2.9859    5.2760 C   0  0  0  0  0  0  0  0  0  0  0  0
   -1.4789   -2.8689    5.7550 H   0  0  0  0  0  0  0  0  0  0  0  0
    0.0123   -3.7847    5.8419 H   0  0  0  0  0  0  0  0  0  0  0  0
    0.0585   -2.0642    5.5199 H   0  0  0  0  0  0  0  0  0  0  0  0
   -0.6261   -2.1849    2.9917 N   0  0  0  0  0  0  0  0  0  0  0  0
   -0.7237   -2.2601    1.5650 C   0  0  2  0  0  0  0  0  0  0  0  0
    0.1695   -1.1513    1.0687 C   0  0  0  0  0  0  0  0  0  0  0  0
    0.3193   -0.1267    1.7365 O   0  0  0  0  0  0  0  0  0  0  0  0
   -2.1397   -2.0663    1.0750 C   0  0  0  0  0  0  0  0  0  0  0  0
   -0.5717   -1.2606    3.4238 H   0  0  0  0  0  0  0  0  0  0  0  0
   -0.3076   -3.2111    1.2363 H   0  0  0  0  0  0  0  0  0  0  0  0
   -2.5584   -1.1089    1.4061 H   0  0  0  0  0  0  0  0  0  0  0  0
   -2.1682   -2.0790   -0.0197 H   0  0  0  0  0  0  0  0  0  0  0  0
   -2.7965   -2.8601    1.4459 H   0  0  0  0  0  0  0  0  0  0  0  0
    0.7724   -1.3745   -0.1593 N   0  0  0  0  0  0  0  0  0  0  0  0
    0.5614   -2.5964   -0.9244 C   0  0  2  0  0  0  0  0  0  0  0  0
   -0.3735   -3.4587   -0.1308 C   0  0  0  0  0  0  0  0  0  0  0  0
   -0.3708   -3.3863    1.0925 O   0  0  0  0  0  0  0  0  0  0  0  0
    1.9458   -3.2230   -1.0432 C   0  0  0  0  0  0  0  0  0  0  0  0
    2.2521   -1.7403   -0.8458 C   0  0  0  0  0  0  0  0  0  0  0  0
    1.5408   -0.3981   -0.9273 C   0  0  0  0  0  0  0  0  0  0  0  0
    0.1027   -2.3787   -1.8936 H   0  0  0  0  0  0  0  0  0  0  0  0
    2.0691   -3.6740   -2.0351 H   0  0  0  0  0  0  0  0  0  0  0  0
    2.1474   -3.9863   -0.2855 H   0  0  0  0  0  0  0  0  0  0  0  0
    2.5528   -1.5477    0.1905 H   0  0  0  0  0  0  0  0  0  0  0  0
    3.0524   -1.3926   -1.5053 H   0  0  0  0  0  0  0  0  0  0  0  0
    2.1327    0.4188   -0.5056 H   0  0  0  0  0  0  0  0  0  0  0  0
    1.2759   -0.1509   -1.9611 H   0  0  0  0  0  0  0  0  0  0  0  0
   -1.1732   -4.2760   -0.8065 N   0  0  0  0  0  0  0  0  0  0  0  0
   -1.9138   -5.4611   -1.1756 C   0  0  2  0  0  0  0  0  0  0  0  0
   -0.9634   -6.6492   -1.1090 C   0  0  0  0  0  0  0  0  0  0  0  0
    0.2582   -6.5364   -1.1875 O   0  0  0  0  0  0  0  0  0  0  0  0
   -2.5182   -5.3256   -2.5645 C   0  0  0  0  0  0  0  0  0  0  0  0
   -1.4988   -3.7296   -0.0147 H   0  0  0  0  0  0  0  0  0  0  0  0
   -2.7061   -5.5841   -0.4292 H   0  0  0  0  0  0  0  0  0  0  0  0
   -1.7394   -5.2014   -3.3258 H   0  0  0  0  0  0  0  0  0  0  0  0
   -3.1025   -6.2124   -2.8311 H   0  0  0  0  0  0  0  0  0  0  0  0
   -3.1783   -4.4532   -2.6189 H   0  0  0  0  0  0  0  0  0  0  0  0
   -1.6419   -7.8545   -0.9950 N   0  0  0  0  0  0  0  0  0  0  0  0
   -0.9635   -9.1277   -0.9262 C   0  0  0  0  0  0  0  0  0  0  0  0
   -2.6547   -7.8524   -0.9176 H   0  0  0  0  0  0  0  0  0  0  0  0
   -0.8699   -9.5490   -1.9380 H   0  0  0  0  0  0  0  0  0  0  0  0
    0.0381   -8.9864   -0.4939 H   0  0  0  0  0  0  0  0  0  0  0  0
   -1.5418   -9.8175   -0.2940 H   0  0  0  0  0  0  0  0  0  0  0  0
 18 19  1  0  0  0  0
 19 31  1  0  0  0  0
 19 20  2  0  0  0  0
  8  9  1  0  0  0  0
  9 17  1  0  0  0  0
  9 10  2  0  0  0  0
  1  3  1  0  0  0  0
  1  7  1  0  0  0  0
  1  2  2  0  0  0  0
 32 33  1  0  0  0  0
 33 41  1  0  0  0  0
 33 34  2  0  0  0  0
 21 22  1  0  0  0  0
 22 23  1  0  0  0  0
 18 21  1  0  0  0  0
 17 23  1  0  0  0  0
 17 18  1  0  0  0  0
  8 11  1  0  0  0  0
 32 35  1  0  0  0  0
 41 42  1  0  0  0  0
  7  8  1  0  0  0  0
 31 32  1  0  0  0  0
 22 27  1  0  0  0  0
 22 28  1  0  0  0  0
 21 25  1  0  0  0  0
 21 26  1  0  0  0  0
 23 29  1  0  0  0  0
 23 30  1  0  0  0  0
 18 24  1  0  0  0  0
  3  4  1  0  0  0  0
  3  5  1  0  0  0  0
  3  6  1  0  0  0  0
 11 14  1  0  0  0  0
 11 15  1  0  0  0  0
 11 16  1  0  0  0  0
 35 38  1  0  0  0  0
 35 39  1  0  0  0  0
 35 40  1  0  0  0  0
 42 44  1  0  0  0  0
 42 45  1  0  0  0  0
 42 46  1  0  0  0  0
  8 13  1  0  0  0  0
 32 37  1  0  0  0  0
 31 36  1  0  0  0  0
 41 43  1  0  0  0  0
  7 12  1  0  0  0  0
M  END
$$$$

  -OEChem-05262214473D

 46 46  0     1  0  0  0  0  0999 V2000
   -0.6012   -3.2995    3.8205 C   0  0  0  0  0  0  0  0  0  0  0  0
   -0.6574   -4.4683    3.4568 O   0  0  0  0  0  0  0  0  0  0  0  0
   -0.4935   -2.9859    5.2760 C   0  0  0  0  0  0  0  0  0  0  0  0
   -1.4789   -2.8689    5.7550 H   0  0  0  0  0  0  0  0  0  0  0  0
    0.0123   -3.7847    5.8419 H   0  0  0  0  0  0  0  0  0  0  0  0
    0.0585   -2.0642    5.5199 H   0  0  0  0  0  0  0  0  0  0  0  0
   -0.6261   -2.1849    2.9917 N   0  0  0  0  0  0  0  0  0  0  0  0
   -0.7237   -2.2601    1.5650 C   0  0  2  0  0  0  0  0  0  0  0  0
    0.1695   -1.1513    1.0687 C   0  0  0  0  0  0  0  0  0  0  0  0
    0.3193   -0.1267    1.7365 O   0  0  0  0  0  0  0  0  0  0  0  0
   -2.1397   -2.0663    1.0750 C   0  0  0  0  0  0  0  0  0  0  0  0
   -0.5717   -1.2606    3.4238 H   0  0  0  0  0  0  0  0  0  0  0  0
   -0.3076   -3.2111    1.2363 H   0  0  0  0  0  0  0  0  0  0  0  0
   -2.5584   -1.1089    1.4061 H   0  0  0  0  0  0  0  0  0  0  0  0
   -2.1682   -2.0790   -0.0197 H   0  0  0  0  0  0  0  0  0  0  0  0
   -2.7965   -2.8601    1.4459 H   0  0  0  0  0  0  0  0  0  0  0  0
    0.7724   -1.3745   -0.1593 N   0  0  0  0  0  0  0  0  0  0  0  0
    0.5614   -2.5964   -0.9244 C   0  0  2  0  0  0  0  0  0  0  0  0
   -0.3735   -3.4587   -0.1308 C   0  0  0  0  0  0  0  0  0  0  0  0
   -0.5758   -3.2028    1.0504 O   0  0  0  0  0  0  0  0  0  0  0  0
    1.9458   -3.2230   -1.0432 C   0  0  0  0  0  0  0  0  0  0  0  0
    2.2521   -1.7403   -0.8458 C   0  0  0  0  0  0  0  0  0  0  0  0
    1.5408   -0.3981   -0.9273 C   0  0  0  0  0  0  0  0  0  0  0  0
    0.1027   -2.3787   -1.8936 H   0  0  0  0  0  0  0  0  0  0  0  0
    2.0691   -3.6740   -2.0351 H   0  0  0  0  0  0  0  0  0  0  0  0
    2.1474   -3.9863   -0.2855 H   0  0  0  0  0  0  0  0  0  0  0  0
    2.5528   -1.5477    0.1905 H   0  0  0  0  0  0  0  0  0  0  0  0
    3.0524   -1.3926   -1.5053 H   0  0  0  0  0  0  0  0  0  0  0  0
    2.1327    0.4188   -0.5056 H   0  0  0  0  0  0  0  0  0  0  0  0
    1.2759   -0.1509   -1.9611 H   0  0  0  0  0  0  0  0  0  0  0  0
   -0.9464   -4.4787   -0.7596 N   0  0  0  0  0  0  0  0  0  0  0  0
   -1.4645   -5.8031   -1.0180 C   0  0  2  0  0  0  0  0  0  0  0  0
   -0.3963   -6.8123   -0.6181 C   0  0  0  0  0  0  0  0  0  0  0  0
    0.7983   -6.5315   -0.5460 O   0  0  0  0  0  0  0  0  0  0  0  0
   -1.8509   -5.9707   -2.4793 C   0  0  0  0  0  0  0  0  0  0  0  0
   -1.4601   -3.8738   -0.1259 H   0  0  0  0  0  0  0  0  0  0  0  0
   -2.3445   -5.9288   -0.3778 H   0  0  0  0  0  0  0  0  0  0  0  0
   -0.9819   -5.8480   -3.1361 H   0  0  0  0  0  0  0  0  0  0  0  0
   -2.2697   -6.9648   -2.6674 H   0  0  0  0  0  0  0  0  0  0  0  0
   -2.5974   -5.2249   -2.7730 H   0  0  0  0  0  0  0  0  0  0  0  0
   -0.9286   -8.0741   -0.3932 N   0  0  0  0  0  0  0  0  0  0  0  0
   -0.1164   -9.2066   -0.0141 C   0  0  0  0  0  0  0  0  0  0  0  0
   -1.9329   -8.2115   -0.4575 H   0  0  0  0  0  0  0  0  0  0  0  0
    0.1898   -9.7572   -0.9158 H   0  0  0  0  0  0  0  0  0  0  0  0
    0.7775   -8.8538    0.5212 H   0  0  0  0  0  0  0  0  0  0  0  0
   -0.6978   -9.8715    0.6416 H   0  0  0  0  0  0  0  0  0  0  0  0
 18 19  1  0  0  0  0
 19 31  1  0  0  0  0
 19 20  2  0  0  0  0
  8  9  1  0  0  0  0
  9 17  1  0  0  0  0
  9 10  2  0  0  0  0
  1  3  1  0  0  0  0
  1  7  1  0  0  0  0
  1  2  2  0  0  0  0
 32 33  1  0  0  0  0
 33 41  1  0  0  0  0
 33 34  2  0  0  0  0
 21 22  1  0  0  0  0
 22 23  1  0  0  0  0
 18 21  1  0  0  0  0
 17 23  1  0  0  0  0
 17 18  1  0  0  0  0
  8 11  1  0  0  0  0
 32 35  1  0  0  0  0
 41 42  1  0  0  0  0
  7  8  1  0  0  0  0
 31 32  1  0  0  0  0
 22 27  1  0  0  0  0
 22 28  1  0  0  0  0
 21 25  1  0  0  0  0
 21 26  1  0  0  0  0
 23 29  1  0  0  0  0
 23 30  1  0  0  0  0
 18 24  1  0  0  0  0
  3  4  1  0  0  0  0
  3  5  1  0  0  0  0
  3  6  1  0  0  0  0
 11 14  1  0  0  0  0
 11 15  1  0  0  0  0
 11 16  1  0  0  0  0
 35 38  1  0  0  0  0
 35 39  1  0  0  0  0
 35 40  1  0  0  0  0
 42 44  1  0  0  0  0
 42 45  1  0  0  0  0
 42 46  1  0  0  0  0
  8 13  1  0  0  0  0
 32 37  1  0  0  0  0
 31 36  1  0  0  0  0
 41 43  1  0  0  0  0
  7 12  1  0  0  0  0
M  END
$$$$

  -OEChem-05262214473D

 46 46  0     1  0  0  0  0  0999 V2000
   -0.6012   -3.2995    3.8205 C   0  0  0  0  0  0  0  0  0  0  0  0
   -0.6574   -4.4683    3.4568 O   0  0  0  0  0  0  0  0  0  0  0  0
   -0.4935   -2.9859    5.2760 C   0  0  0  0  0  0  0  0  0  0  0  0
   -1.4789   -2.8689    5.7550 H   0  0  0  0  0  0  0  0  0  0  0  0
    0.0123   -3.7847    5.8419 H   0  0  0  0  0  0  0  0  0  0  0  0
    0.0585   -2.0642    5.5199 H   0  0  0  0  0  0  0  0  0  0  0  0
   -0.6261   -2.1849    2.9917 N   0  0  0  0  0  0  0  0  0  0  0  0
   -0.7237   -2.2601    1.5650 C   0  0  2  0  0  0  0  0  0  0  0  0
    0.1695   -1.1513    1.0687 C   0  0  0  0  0  0  0  0  0  0  0  0
    0.3193   -0.1267    1.7365 O   0  0  0  0  0  0  0  0  0  0  0  0
   -2.1397   -2.0663    1.0750 C   0  0  0  0  0  0  0  0  0  0  0  0
   -0.5717   -1.2606    3.4238 H   0  0  0  0  0  0  0  0  0  0  0  0
   -0.3076   -3.2111    1.2363 H   0  0  0  0  0  0  0  0  0  0  0  0
   -2.5584   -1.1089    1.4061 H   0  0  0  0  0  0  0  0  0  0  0  0
   -2.1682   -2.0790   -0.0197 H   0  0  0  0  0  0  0  0  0  0  0  0
   -2.7965   -2.8601    1.4459 H   0  0  0  0  0  0  0  0  0  0  0  0
    0.7724   -1.3745   -0.1593 N   0  0  0  0  0  0  0  0  0  0  0  0
    0.5614   -2.5964   -0.9244 C   0  0  2  0  0  0  0  0  0  0  0  0
   -0.3735   -3.4587   -0.1308 C   0  0  0  0  0  0  0  0  0  0  0  0
   -0.7927   -3.0604    0.9496 O   0  0  0  0  0  0  0  0  0  0  0  0
    1.9458   -3.2230   -1.0432 C   0  0  0  0  0  0  0  0  0  0  0  0
    2.2521   -1.7403   -0.8458 C   0  0  0  0  0  0  0  0  0  0  0  0
    1.5408   -0.3981   -0.9273 C   0  0  0  0  0  0  0  0  0  0  0  0
    0.1027   -2.3787   -1.8936 H   0  0  0  0  0  0  0  0  0  0  0  0
    2.0691   -3.6740   -2.0351 H   0  0  0  0  0  0  0  0  0  0  0  0
    2.1474   -3.9863   -0.2855 H   0  0  0  0  0  0  0  0  0  0  0  0
    2.5528   -1.5477    0.1905 H   0  0  0  0  0  0  0  0  0  0  0  0
    3.0524   -1.3926   -1.5053 H   0  0  0  0  0  0  0  0  0  0  0  0
    2.1327    0.4188   -0.5056 H   0  0  0  0  0  0  0  0  0  0  0  0
    1.2759   -0.1509   -1.9611 H   0  0  0  0  0  0  0  0  0  0  0  0
   -0.7065   -4.6360   -0.6478 N   0  0  0  0  0  0  0  0  0  0  0  0
   -1.0072   -6.0464   -0.7437 C   0  0  2  0  0  0  0  0  0  0  0  0
    0.1007   -6.8128   -0.0332 C   0  0  0  0  0  0  0  0  0  0  0  0
    1.2238   -6.3493    0.1533 O   0  0  0  0  0  0  0  0  0  0  0  0
   -1.1306   -6.4886   -2.1935 C   0  0  0  0  0  0  0  0  0  0  0  0
   -1.3865   -4.0257   -0.2043 H   0  0  0  0  0  0  0  0  0  0  0  0
   -1.9557   -6.2040   -0.2187 H   0  0  0  0  0  0  0  0  0  0  0  0
   -0.1899   -6.3383   -2.7356 H   0  0  0  0  0  0  0  0  0  0  0  0
   -1.3865   -7.5509   -2.2639 H   0  0  0  0  0  0  0  0  0  0  0  0
   -1.9076   -5.9156   -2.7109 H   0  0  0  0  0  0  0  0  0  0  0  0
   -0.2991   -8.0914    0.3296 N   0  0  0  0  0  0  0  0  0  0  0  0
    0.5768   -9.0196    1.0058 C   0  0  0  0  0  0  0  0  0  0  0  0
   -1.2551   -8.3852    0.1524 H   0  0  0  0  0  0  0  0  0  0  0  0
    1.0898   -9.6481    0.2629 H   0  0  0  0  0  0  0  0  0  0  0  0
    1.3223   -8.4606    1.5904 H   0  0  0  0  0  0  0  0  0  0  0  0
   -0.0145   -9.6571    1.6796 H   0  0  0  0  0  0  0  0  0  0  0  0
 18 19  1  0  0  0  0
 19 31  1  0  0  0  0
 19 20  2  0  0  0  0
  8  9  1  0  0  0  0
  9 17  1  0  0  0  0
  9 10  2  0  0  0  0
  1  3  1  0  0  0  0
  1  7  1  0  0  0  0
  1  2  2  0  0  0  0
 32 33  1  0  0  0  0
 33 41  1  0  0  0  0
 33 34  2  0  0  0  0
 21 22  1  0  0  0  0
 22 23  1  0  0  0  0
 18 21  1  0  0  0  0
 17 23  1  0  0  0  0
 17 18  1  0  0  0  0
  8 11  1  0  0  0  0
 32 35  1  0  0  0  0
 41 42  1  0  0  0  0
  7  8  1  0  0  0  0
 31 32  1  0  0  0  0
 22 27  1  0  0  0  0
 22 28  1  0  0  0  0
 21 25  1  0  0  0  0
 21 26  1  0  0  0  0
 23 29  1  0  0  0  0
 23 30  1  0  0  0  0
 18 24  1  0  0  0  0
  3  4  1  0  0  0  0
  3  5  1  0  0  0  0
  3  6  1  0  0  0  0
 11 14  1  0  0  0  0
 11 15  1  0  0  0  0
 11 16  1  0  0  0  0
 35 38  1  0  0  0  0
 35 39  1  0  0  0  0
 35 40  1  0  0  0  0
 42 44  1  0  0  0  0
 42 45  1  0  0  0  0
 42 46  1  0  0  0  0
  8 13  1  0  0  0  0
 32 37  1  0  0  0  0
 31 36  1  0  0  0  0
 41 43  1  0  0  0  0
  7 12  1  0  0  0  0
M  END
$$$$

  -OEChem-05262214473D

 46 46  0     1  0  0  0  0  0999 V2000
   -0.6012   -3.2995    3.8205 C   0  0  0  0  0  0  0  0  0  0  0  0
   -0.6574   -4.4683    3.4568 O   0  0  0  0  0  0  0  0  0  0  0  0
   -0.4935   -2.9859    5.2760 C   0  0  0  0  0  0  0  0  0  0  0  0
   -1.4789   -2.8689    5.7550 H   0  0  0  0  0  0  0  0  0  0  0  0
    0.0123   -3.7847    5.8419 H   0  0  0  0  0  0  0  0  0  0  0  0
    0.0585   -2.0642    5.5199 H   0  0  0  0  0  0  0  0  0  0  0  0
   -0.6261   -2.1849    2.9917 N   0  0  0  0  0  0  0  0  0  0  0  0
   -0.7237   -2.2601    1.5650 C   0  0  2  0  0  0  0  0  0  0  0  0
    0.1695   -1.1513    1.0687 C   0  0  0  0  0  0  0  0  0  0  0  0
    0.3193   -0.1267    1.7365 O   0  0  0  0  0  0  0  0  0  0  0  0
   -2.1397   -2.0663    1.0750 C   0  0  0  0  0  0  0  0  0  0  0  0
   -0.5717   -1.2606    3.4238 H   0  0  0  0  0  0  0  0  0  0  0  0
   -0.3076   -3.2111    1.2363 H   0  0  0  0  0  0  0  0  0  0  0  0
   -2.5584   -1.1089    1.4061 H   0  0  0  0  0  0  0  0  0  0  0  0
   -2.1682   -2.0790   -0.0197 H   0  0  0  0  0  0  0  0  0  0  0  0
   -2.7965   -2.8601    1.4459 H   0  0  0  0  0  0  0  0  0  0  0  0
    0.7724   -1.3745   -0.1593 N   0  0  0  0  0  0  0  0  0  0  0  0
    0.5614   -2.5964   -0.9244 C   0  0  2  0  0  0  0  0  0  0  0  0
   -0.3735   -3.4587   -0.1308 C   0  0  0  0  0  0  0  0  0  0  0  0
   -1.0067   -2.9688    0.7970 O   0  0  0  0  0  0  0  0  0  0  0  0
    1.9458   -3.2230   -1.0432 C   0  0  0  0  0  0  0  0  0  0  0  0
    2.2521   -1.7403   -0.8458 C   0  0  0  0  0  0  0  0  0  0  0  0
    1.5408   -0.3981   -0.9273 C   0  0  0  0  0  0  0  0  0  0  0  0
    0.1027   -2.3787   -1.8936 H   0  0  0  0  0  0  0  0  0  0  0  0
    2.0691   -3.6740   -2.0351 H   0  0  0  0  0  0  0  0  0  0  0  0
    2.1474   -3.9863   -0.2855 H   0  0  0  0  0  0  0  0  0  0  0  0
    2.5528   -1.5477    0.1905 H   0  0  0  0  0  0  0  0  0  0  0  0
    3.0524   -1.3926   -1.5053 H   0  0  0  0  0  0  0  0  0  0  0  0
    2.1327    0.4188   -0.5056 H   0  0  0  0  0  0  0  0  0  0  0  0
    1.2759   -0.1509   -1.9611 H   0  0  0  0  0  0  0  0  0  0  0  0
   -0.4699   -4.7369   -0.4787 N   0  0  0  0  0  0  0  0  0  0  0  0
   -0.5730   -6.1745   -0.3713 C   0  0  2  0  0  0  0  0  0  0  0  0
    0.4937   -6.6508    0.6058 C   0  0  0  0  0  0  0  0  0  0  0  0
    1.5058   -6.0021    0.8627 O   0  0  0  0  0  0  0  0  0  0  0  0
   -0.4065   -6.8440   -1.7266 C   0  0  0  0  0  0  0  0  0  0  0  0
   -1.2829   -4.1751   -0.2445 H   0  0  0  0  0  0  0  0  0  0  0  0
   -1.5661   -6.3908    0.0373 H   0  0  0  0  0  0  0  0  0  0  0  0
    0.5827   -6.6386   -2.1518 H   0  0  0  0  0  0  0  0  0  0  0  0
   -0.5133   -7.9309   -1.6480 H   0  0  0  0  0  0  0  0  0  0  0  0
   -1.1560   -6.4782   -2.4367 H   0  0  0  0  0  0  0  0  0  0  0  0
    0.2037   -7.9051    1.1244 N   0  0  0  0  0  0  0  0  0  0  0  0
    1.0690   -8.5793    2.0640 C   0  0  0  0  0  0  0  0  0  0  0  0
   -0.6673   -8.3617    0.8704 H   0  0  0  0  0  0  0  0  0  0  0  0
    1.7686   -9.2291    1.5179 H   0  0  0  0  0  0  0  0  0  0  0  0
    1.6356   -7.8335    2.6408 H   0  0  0  0  0  0  0  0  0  0  0  0
    0.4616   -9.1887    2.7494 H   0  0  0  0  0  0  0  0  0  0  0  0
 18 19  1  0  0  0  0
 19 31  1  0  0  0  0
 19 20  2  0  0  0  0
  8  9  1  0  0  0  0
  9 17  1  0  0  0  0
  9 10  2  0  0  0  0
  1  3  1  0  0  0  0
  1  7  1  0  0  0  0
  1  2  2  0  0  0  0
 32 33  1  0  0  0  0
 33 41  1  0  0  0  0
 33 34  2  0  0  0  0
 21 22  1  0  0  0  0
 22 23  1  0  0  0  0
 18 21  1  0  0  0  0
 17 23  1  0  0  0  0
 17 18  1  0  0  0  0
  8 11  1  0  0  0  0
 32 35  1  0  0  0  0
 41 42  1  0  0  0  0
  7  8  1  0  0  0  0
 31 32  1  0  0  0  0
 22 27  1  0  0  0  0
 22 28  1  0  0  0  0
 21 25  1  0  0  0  0
 21 26  1  0  0  0  0
 23 29  1  0  0  0  0
 23 30  1  0  0  0  0
 18 24  1  0  0  0  0
  3  4  1  0  0  0  0
  3  5  1  0  0  0  0
  3  6  1  0  0  0  0
 11 14  1  0  0  0  0
 11 15  1  0  0  0  0
 11 16  1  0  0  0  0
 35 38  1  0  0  0  0
 35 39  1  0  0  0  0
 35 40  1  0  0  0  0
 42 44  1  0  0  0  0
 42 45  1  0  0  0  0
 42 46  1  0  0  0  0
  8 13  1  0  0  0  0
 32 37  1  0  0  0  0
 31 36  1  0  0  0  0
 41 43  1  0  0  0  0
  7 12  1  0  0  0  0
M  END
$$$$

  -OEChem-05262214473D

 46 46  0     1  0  0  0  0  0999 V2000
   -0.6012   -3.2995    3.8205 C   0  0  0  0  0  0  0  0  0  0  0  0
   -0.6574   -4.4683    3.4568 O   0  0  0  0  0  0  0  0  0  0  0  0
   -0.4935   -2.9859    5.2760 C   0  0  0  0  0  0  0  0  0  0  0  0
   -1.4789   -2.8689    5.7550 H   0  0  0  0  0  0  0  0  0  0  0  0
    0.0123   -3.7847    5.8419 H   0  0  0  0  0  0  0  0  0  0  0  0
    0.0585   -2.0642    5.5199 H   0  0  0  0  0  0  0  0  0  0  0  0
   -0.6261   -2.1849    2.9917 N   0  0  0  0  0  0  0  0  0  0  0  0
   -0.7237   -2.2601    1.5650 C   0  0  2  0  0  0  0  0  0  0  0  0
    0.1695   -1.1513    1.0687 C   0  0  0  0  0  0  0  0  0  0  0  0
    0.3193   -0.1267    1.7365 O   0  0  0  0  0  0  0  0  0  0  0  0
   -2.1397   -2.0663    1.0750 C   0  0  0  0  0  0  0  0  0  0  0  0
   -0.5717   -1.2606    3.4238 H   0  0  0  0  0  0  0  0  0  0  0  0
   -0.3076   -3.2111    1.2363 H   0  0  0  0  0  0  0  0  0  0  0  0
   -2.5584   -1.1089    1.4061 H   0  0  0  0  0  0  0  0  0  0  0  0
   -2.1682   -2.0790   -0.0197 H   0  0  0  0  0  0  0  0  0  0  0  0
   -2.7965   -2.8601    1.4459 H   0  0  0  0  0  0  0  0  0  0  0  0
    0.7724   -1.3745   -0.1593 N   0  0  0  0  0  0  0  0  0  0  0  0
    0.5614   -2.5964   -0.9244 C   0  0  2  0  0  0  0  0  0  0  0  0
   -0.3735   -3.4587   -0.1308 C   0  0  0  0  0  0  0  0  0  0  0  0
   -1.2032   -2.9344    0.6030 O   0  0  0  0  0  0  0  0  0  0  0  0
    1.9458   -3.2230   -1.0432 C   0  0  0  0  0  0  0  0  0  0  0  0
    2.2521   -1.7403   -0.8458 C   0  0  0  0  0  0  0  0  0  0  0  0
    1.5408   -0.3981   -0.9273 C   0  0  0  0  0  0  0  0  0  0  0  0
    0.1027   -2.3787   -1.8936 H   0  0  0  0  0  0  0  0  0  0  0  0
    2.0691   -3.6740   -2.0351 H   0  0  0  0  0  0  0  0  0  0  0  0
    2.1474   -3.9863   -0.2855 H   0  0  0  0  0  0  0  0  0  0  0  0
    2.5528   -1.5477    0.1905 H   0  0  0  0  0  0  0  0  0  0  0  0
    3.0524   -1.3926   -1.5053 H   0  0  0  0  0  0  0  0  0  0  0  0
    2.1327    0.4188   -0.5056 H   0  0  0  0  0  0  0  0  0  0  0  0
    1.2759   -0.1509   -1.9611 H   0  0  0  0  0  0  0  0  0  0  0  0
   -0.2527   -4.7747   -0.2639 N   0  0  0  0  0  0  0  0  0  0  0  0
   -0.1914   -6.1787    0.0737 C   0  0  2  0  0  0  0  0  0  0  0  0
    0.7560   -6.3374    1.2554 C   0  0  0  0  0  0  0  0  0  0  0  0
    1.6249   -5.5136    1.5339 O   0  0  0  0  0  0  0  0  0  0  0  0
    0.2722   -7.0127   -1.1105 C   0  0  0  0  0  0  0  0  0  0  0  0
   -1.1563   -4.3116   -0.2438 H   0  0  0  0  0  0  0  0  0  0  0  0
   -1.2023   -6.4765    0.3727 H   0  0  0  0  0  0  0  0  0  0  0  0
    1.2832   -6.7287   -1.4244 H   0  0  0  0  0  0  0  0  0  0  0  0
    0.2907   -8.0790   -0.8618 H   0  0  0  0  0  0  0  0  0  0  0  0
   -0.3937   -6.8743   -1.9692 H   0  0  0  0  0  0  0  0  0  0  0  0
    0.5456   -7.5280    1.9369 N   0  0  0  0  0  0  0  0  0  0  0  0
    1.3265   -7.9158    3.0883 C   0  0  0  0  0  0  0  0  0  0  0  0
   -0.2097   -8.1425    1.6476 H   0  0  0  0  0  0  0  0  0  0  0  0
    2.1801   -8.5289    2.7635 H   0  0  0  0  0  0  0  0  0  0  0  0
    1.6959   -7.0153    3.6008 H   0  0  0  0  0  0  0  0  0  0  0  0
    0.6981   -8.4985    3.7780 H   0  0  0  0  0  0  0  0  0  0  0  0
 18 19  1  0  0  0  0
 19 31  1  0  0  0  0
 19 20  2  0  0  0  0
  8  9  1  0  0  0  0
  9 17  1  0  0  0  0
  9 10  2  0  0  0  0
  1  3  1  0  0  0  0
  1  7  1  0  0  0  0
  1  2  2  0  0  0  0
 32 33  1  0  0  0  0
 33 41  1  0  0  0  0
 33 34  2  0  0  0  0
 21 22  1  0  0  0  0
 22 23  1  0  0  0  0
 18 21  1  0  0  0  0
 17 23  1  0  0  0  0
 17 18  1  0  0  0  0
  8 11  1  0  0  0  0
 32 35  1  0  0  0  0
 41 42  1  0  0  0  0
  7  8  1  0  0  0  0
 31 32  1  0  0  0  0
 22 27  1  0  0  0  0
 22 28  1  0  0  0  0
 21 25  1  0  0  0  0
 21 26  1  0  0  0  0
 23 29  1  0  0  0  0
 23 30  1  0  0  0  0
 18 24  1  0  0  0  0
  3  4  1  0  0  0  0
  3  5  1  0  0  0  0
  3  6  1  0  0  0  0
 11 14  1  0  0  0  0
 11 15  1  0  0  0  0
 11 16  1  0  0  0  0
 35 38  1  0  0  0  0
 35 39  1  0  0  0  0
 35 40  1  0  0  0  0
 42 44  1  0  0  0  0
 42 45  1  0  0  0  0
 42 46  1  0  0  0  0
  8 13  1  0  0  0  0
 32 37  1  0  0  0  0
 31 36  1  0  0  0  0
 41 43  1  0  0  0  0
  7 12  1  0  0  0  0
M  END
$$$$

  -OEChem-05262214473D

 46 46  0     1  0  0  0  0  0999 V2000
   -0.6012   -3.2995    3.8205 C   0  0  0  0  0  0  0  0  0  0  0  0
   -0.6574   -4.4683    3.4568 O   0  0  0  0  0  0  0  0  0  0  0  0
   -0.4935   -2.9859    5.2760 C   0  0  0  0  0  0  0  0  0  0  0  0
   -1.4789   -2.8689    5.7550 H   0  0  0  0  0  0  0  0  0  0  0  0
    0.0123   -3.7847    5.8419 H   0  0  0  0  0  0  0  0  0  0  0  0
    0.0585   -2.0642    5.5199 H   0  0  0  0  0  0  0  0  0  0  0  0
   -0.6261   -2.1849    2.9917 N   0  0  0  0  0  0  0  0  0  0  0  0
   -0.7237   -2.2601    1.5650 C   0  0  2  0  0  0  0  0  0  0  0  0
    0.1695   -1.1513    1.0687 C   0  0  0  0  0  0  0  0  0  0  0  0
    0.3193   -0.1267    1.7365 O   0  0  0  0  0  0  0  0  0  0  0  0
   -2.1397   -2.0663    1.0750 C   0  0  0  0  0  0  0  0  0  0  0  0
   -0.5717   -1.2606    3.4238 H   0  0  0  0  0  0  0  0  0  0  0  0
   -0.3076   -3.2111    1.2363 H   0  0  0  0  0  0  0  0  0  0  0  0
   -2.5584   -1.1089    1.4061 H   0  0  0  0  0  0  0  0  0  0  0  0
   -2.1682   -2.0790   -0.0197 H   0  0  0  0  0  0  0  0  0  0  0  0
   -2.7965   -2.8601    1.4459 H   0  0  0  0  0  0  0  0  0  0  0  0
    0.7724   -1.3745   -0.1593 N   0  0  0  0  0  0  0  0  0  0  0  0
    0.5614   -2.5964   -0.9244 C   0  0  2  0  0  0  0  0  0  0  0  0
   -0.3735   -3.4587   -0.1308 C   0  0  0  0  0  0  0  0  0  0  0  0
   -1.3688   -2.9593    0.3807 O   0  0  0  0  0  0  0  0  0  0  0  0
    1.9458   -3.2230   -1.0432 C   0  0  0  0  0  0  0  0  0  0  0  0
    2.2521   -1.7403   -0.8458 C   0  0  0  0  0  0  0  0  0  0  0  0
    1.5408   -0.3981   -0.9273 C   0  0  0  0  0  0  0  0  0  0  0  0
    0.1027   -2.3787   -1.8936 H   0  0  0  0  0  0  0  0  0  0  0  0
    2.0691   -3.6740   -2.0351 H   0  0  0  0  0  0  0  0  0  0  0  0
    2.1474   -3.9863   -0.2855 H   0  0  0  0  0  0  0  0  0  0  0  0
    2.5528   -1.5477    0.1905 H   0  0  0  0  0  0  0  0  0  0  0  0
    3.0524   -1.3926   -1.5053 H   0  0  0  0  0  0  0  0  0  0  0  0
    2.1327    0.4188   -0.5056 H   0  0  0  0  0  0  0  0  0  0  0  0
    1.2759   -0.1509   -1.9611 H   0  0  0  0  0  0  0  0  0  0  0  0
   -0.0697   -4.7467   -0.0179 N   0  0  0  0  0  0  0  0  0  0  0  0
    0.1115   -6.0586    0.5610 C   0  0  2  0  0  0  0  0  0  0  0  0
    0.8698   -5.8938    1.8714 C   0  0  0  0  0  0  0  0  0  0  0  0
    1.5732   -4.9171    2.1211 O   0  0  0  0  0  0  0  0  0  0  0  0
    0.8591   -6.9833   -0.3871 C   0  0  0  0  0  0  0  0  0  0  0  0
   -1.0155   -4.4261   -0.2023 H   0  0  0  0  0  0  0  0  0  0  0  0
   -0.8891   -6.4553    0.7647 H   0  0  0  0  0  0  0  0  0  0  0  0
    1.8639   -6.6023   -0.6030 H   0  0  0  0  0  0  0  0  0  0  0  0
    0.9704   -7.9849    0.0412 H   0  0  0  0  0  0  0  0  0  0  0  0
    0.3273   -7.0771   -1.3401 H   0  0  0  0  0  0  0  0  0  0  0  0
    0.7032   -6.9858    2.7117 N   0  0  0  0  0  0  0  0  0  0  0  0
    1.3318   -7.0743    4.0090 C   0  0  0  0  0  0  0  0  0  0  0  0
    0.0866   -7.7427    2.4311 H   0  0  0  0  0  0  0  0  0  0  0  0
    2.2961   -7.5951    3.9149 H   0  0  0  0  0  0  0  0  0  0  0  0
    1.4991   -6.0618    4.4051 H   0  0  0  0  0  0  0  0  0  0  0  0
    0.6788   -7.6333    4.6953 H   0  0  0  0  0  0  0  0  0  0  0  0
 18 19  1  0  0  0  0
 19 31  1  0  0  0  0
 19 20  2  0  0  0  0
  8  9  1  0  0  0  0
  9 17  1  0  0  0  0
  9 10  2  0  0  0  0
  1  3  1  0  0  0  0
  1  7  1  0  0  0  0
  1  2  2  0  0  0  0
 32 33  1  0  0  0  0
 33 41  1  0  0  0  0
 33 34  2  0  0  0  0
 21 22  1  0  0  0  0
 22 23  1  0  0  0  0
 18 21  1  0  0  0  0
 17 23  1  0  0  0  0
 17 18  1  0  0  0  0
  8 11  1  0  0  0  0
 32 35  1  0  0  0  0
 41 42  1  0  0  0  0
  7  8  1  0  0  0  0
 31 32  1  0  0  0  0
 22 27  1  0  0  0  0
 22 28  1  0  0  0  0
 21 25  1  0  0  0  0
 21 26  1  0  0  0  0
 23 29  1  0  0  0  0
 23 30  1  0  0  0  0
 18 24  1  0  0  0  0
  3  4  1  0  0  0  0
  3  5  1  0  0  0  0
  3  6  1  0  0  0  0
 11 14  1  0  0  0  0
 11 15  1  0  0  0  0
 11 16  1  0  0  0  0
 35 38  1  0  0  0  0
 35 39  1  0  0  0  0
 35 40  1  0  0  0  0
 42 44  1  0  0  0  0
 42 45  1  0  0  0  0
 42 46  1  0  0  0  0
  8 13  1  0  0  0  0
 32 37  1  0  0  0  0
 31 36  1  0  0  0  0
 41 43  1  0  0  0  0
  7 12  1  0  0  0  0
M  END
$$$$

  -OEChem-05262214473D

 46 46  0     1  0  0  0  0  0999 V2000
   -0.6012   -3.2995    3.8205 C   0  0  0  0  0  0  0  0  0  0  0  0
   -0.6574   -4.4683    3.4568 O   0  0  0  0  0  0  0  0  0  0  0  0
   -0.4935   -2.9859    5.2760 C   0  0  0  0  0  0  0  0  0  0  0  0
   -1.4789   -2.8689    5.7550 H   0  0  0  0  0  0  0  0  0  0  0  0
    0.0123   -3.7847    5.8419 H   0  0  0  0  0  0  0  0  0  0  0  0
    0.0585   -2.0642    5.5199 H   0  0  0  0  0  0  0  0  0  0  0  0
   -0.6261   -2.1849    2.9917 N   0  0  0  0  0  0  0  0  0  0  0  0
   -0.7237   -2.2601    1.5650 C   0  0  2  0  0  0  0  0  0  0  0  0
    0.1695   -1.1513    1.0687 C   0  0  0  0  0  0  0  0  0  0  0  0
    0.3193   -0.1267    1.7365 O   0  0  0  0  0  0  0  0  0  0  0  0
   -2.1397   -2.0663    1.0750 C   0  0  0  0  0  0  0  0  0  0  0  0
   -0.5717   -1.2606    3.4238 H   0  0  0  0  0  0  0  0  0  0  0  0
   -0.3076   -3.2111    1.2363 H   0  0  0  0  0  0  0  0  0  0  0  0
   -2.5584   -1.1089    1.4061 H   0  0  0  0  0  0  0  0  0  0  0  0
   -2.1682   -2.0790   -0.0197 H   0  0  0  0  0  0  0  0  0  0  0  0
   -2.7965   -2.8601    1.4459 H   0  0  0  0  0  0  0  0  0  0  0  0
    0.7724   -1.3745   -0.1593 N   0  0  0  0  0  0  0  0  0  0  0  0
    0.5614   -2.5964   -0.9244 C   0  0  2  0  0  0  0  0  0  0  0  0
   -0.3735   -3.4587   -0.1308 C   0  0  0  0  0  0  0  0  0  0  0  0
   -1.4923   -3.0420    0.1454 O   0  0  0  0  0  0  0  0  0  0  0  0
    1.9458   -3.2230   -1.0432 C   0  0  0  0  0  0  0  0  0  0  0  0
    2.2521   -1.7403   -0.8458 C   0  0  0  0  0  0  0  0  0  0  0  0
    1.5408   -0.3981   -0.9273 C   0  0  0  0  0  0  0  0  0  0  0  0
    0.1027   -2.3787   -1.8936 H   0  0  0  0  0  0  0  0  0  0  0  0
    2.0691   -3.6740   -2.0351 H   0  0  0  0  0  0  0  0  0  0  0  0
    2.1474   -3.9863   -0.2855 H   0  0  0  0  0  0  0  0  0  0  0  0
    2.5528   -1.5477    0.1905 H   0  0  0  0  0  0  0  0  0  0  0  0
    3.0524   -1.3926   -1.5053 H   0  0  0  0  0  0  0  0  0  0  0  0
    2.1327    0.4188   -0.5056 H   0  0  0  0  0  0  0  0  0  0  0  0
    1.2759   -0.1509   -1.9611 H   0  0  0  0  0  0  0  0  0  0  0  0
    0.0666   -4.6550    0.2424 N   0  0  0  0  0  0  0  0  0  0  0  0
    0.3150   -5.8225    1.0574 C   0  0  2  0  0  0  0  0  0  0  0  0
    0.8272   -5.3504    2.4117 C   0  0  0  0  0  0  0  0  0  0  0  0
    1.3540   -4.2532    2.5843 O   0  0  0  0  0  0  0  0  0  0  0  0
    1.3143   -6.7577    0.3943 C   0  0  0  0  0  0  0  0  0  0  0  0
   -0.8700   -4.5106   -0.1227 H   0  0  0  0  0  0  0  0  0  0  0  0
   -0.6478   -6.3287    1.1866 H   0  0  0  0  0  0  0  0  0  0  0  0
    2.2852   -6.2680    0.2565 H   0  0  0  0  0  0  0  0  0  0  0  0
    1.4797   -7.6552    0.9995 H   0  0  0  0  0  0  0  0  0  0  0  0
    0.9579   -7.0727   -0.5924 H   0  0  0  0  0  0  0  0  0  0  0  0
    0.6657   -6.3154    3.3960 N   0  0  0  0  0  0  0  0  0  0  0  0
    1.0846   -6.1121    4.7632 C   0  0  0  0  0  0  0  0  0  0  0  0
    0.2014   -7.1894    3.1675 H   0  0  0  0  0  0  0  0  0  0  0  0
    2.1089   -6.4913    4.8937 H   0  0  0  0  0  0  0  0  0  0  0  0
    1.0586   -5.0380    4.9987 H   0  0  0  0  0  0  0  0  0  0  0  0
    0.4050   -6.6522    5.4389 H   0  0  0  0  0  0  0  0  0  0  0  0
 18 19  1  0  0  0  0
 19 31  1  0  0  0  0
 19 20  2  0  0  0  0
  8  9  1  0  0  0  0
  9 17  1  0  0  0  0
  9 10  2  0  0  0  0
  1  3  1  0  0  0  0
  1  7  1  0  0  0  0
  1  2  2  0  0  0  0
 32 33  1  0  0  0  0
 33 41  1  0  0  0  0
 33 34  2  0  0  0  0
 21 22  1  0  0  0  0
 22 23  1  0  0  0  0
 18 21  1  0  0  0  0
 17 23  1  0  0  0  0
 17 18  1  0  0  0  0
  8 11  1  0  0  0  0
 32 35  1  0  0  0  0
 41 42  1  0  0  0  0
  7  8  1  0  0  0  0
 31 32  1  0  0  0  0
 22 27  1  0  0  0  0
 22 28  1  0  0  0  0
 21 25  1  0  0  0  0
 21 26  1  0  0  0  0
 23 29  1  0  0  0  0
 23 30  1  0  0  0  0
 18 24  1  0  0  0  0
  3  4  1  0  0  0  0
  3  5  1  0  0  0  0
  3  6  1  0  0  0  0
 11 14  1  0  0  0  0
 11 15  1  0  0  0  0
 11 16  1  0  0  0  0
 35 38  1  0  0  0  0
 35 39  1  0  0  0  0
 35 40  1  0  0  0  0
 42 44  1  0  0  0  0
 42 45  1  0  0  0  0
 42 46  1  0  0  0  0
  8 13  1  0  0  0  0
 32 37  1  0  0  0  0
 31 36  1  0  0  0  0
 41 43  1  0  0  0  0
  7 12  1  0  0  0  0
M  END
$$$$

  -OEChem-05262214473D

 46 46  0     1  0  0  0  0  0999 V2000
   -0.6012   -3.2995    3.8205 C   0  0  0  0  0  0  0  0  0  0  0  0
   -0.6574   -4.4683    3.4568 O   0  0  0  0  0  0  0  0  0  0  0  0
   -0.4935   -2.9859    5.2760 C   0  0  0  0  0  0  0  0  0  0  0  0
   -1.4789   -2.8689    5.7550 H   0  0  0  0  0  0  0  0  0  0  0  0
    0.0123   -3.7847    5.8419 H   0  0  0  0  0  0  0  0  0  0  0  0
    0.0585   -2.0642    5.5199 H   0  0  0  0  0  0  0  0  0  0  0  0
   -0.6261   -2.1849    2.9917 N   0  0  0  0  0  0  0  0  0  0  0  0
   -0.7237   -2.2601    1.5650 C   0  0  2  0  0  0  0  0  0  0  0  0
    0.1695   -1.1513    1.0687 C   0  0  0  0  0  0  0  0  0  0  0  0
    0.3193   -0.1267    1.7365 O   0  0  0  0  0  0  0  0  0  0  0  0
   -2.1397   -2.0663    1.0750 C   0  0  0  0  0  0  0  0  0  0  0  0
   -0.5717   -1.2606    3.4238 H   0  0  0  0  0  0  0  0  0  0  0  0
   -0.3076   -3.2111    1.2363 H   0  0  0  0  0  0  0  0  0  0  0  0
   -2.5584   -1.1089    1.4061 H   0  0  0  0  0  0  0  0  0  0  0  0
   -2.1682   -2.0790   -0.0197 H   0  0  0  0  0  0  0  0  0  0  0  0
   -2.7965   -2.8601    1.4459 H   0  0  0  0  0  0  0  0  0  0  0  0
    0.7724   -1.3745   -0.1593 N   0  0  0  0  0  0  0  0  0  0  0  0
    0.5614   -2.5964   -0.9244 C   0  0  2  0  0  0  0  0  0  0  0  0
   -0.3735   -3.4587   -0.1308 C   0  0  0  0  0  0  0  0  0  0  0  0
   -1.5653   -3.1767   -0.0869 O   0  0  0  0  0  0  0  0  0  0  0  0
    1.9458   -3.2230   -1.0432 C   0  0  0  0  0  0  0  0  0  0  0  0
    2.2521   -1.7403   -0.8458 C   0  0  0  0  0  0  0  0  0  0  0  0
    1.5408   -0.3981   -0.9273 C   0  0  0  0  0  0  0  0  0  0  0  0
    0.1027   -2.3787   -1.8936 H   0  0  0  0  0  0  0  0  0  0  0  0
    2.0691   -3.6740   -2.0351 H   0  0  0  0  0  0  0  0  0  0  0  0
    2.1474   -3.9863   -0.2855 H   0  0  0  0  0  0  0  0  0  0  0  0
    2.5528   -1.5477    0.1905 H   0  0  0  0  0  0  0  0  0  0  0  0
    3.0524   -1.3926   -1.5053 H   0  0  0  0  0  0  0  0  0  0  0  0
    2.1327    0.4188   -0.5056 H   0  0  0  0  0  0  0  0  0  0  0  0
    1.2759   -0.1509   -1.9611 H   0  0  0  0  0  0  0  0  0  0  0  0
    0.1470   -4.5057    0.4993 N   0  0  0  0  0  0  0  0  0  0  0  0
    0.4054   -5.4864    1.5290 C   0  0  2  0  0  0  0  0  0  0  0  0
    0.6311   -4.7441    2.8395 C   0  0  0  0  0  0  0  0  0  0  0  0
    0.9825   -3.5673    2.8920 O   0  0  0  0  0  0  0  0  0  0  0  0
    1.6067   -6.3513    1.1804 C   0  0  0  0  0  0  0  0  0  0  0  0
   -0.7297   -4.5595   -0.0105 H   0  0  0  0  0  0  0  0  0  0  0  0
   -0.4949   -6.1052    1.6095 H   0  0  0  0  0  0  0  0  0  0  0  0
    2.5184   -5.7487    1.0955 H   0  0  0  0  0  0  0  0  0  0  0  0
    1.7838   -7.1122    1.9477 H   0  0  0  0  0  0  0  0  0  0  0  0
    1.4551   -6.8613    0.2230 H   0  0  0  0  0  0  0  0  0  0  0  0
    0.4358   -5.5625    3.9433 N   0  0  0  0  0  0  0  0  0  0  0  0
    0.6017   -5.0949    5.2997 C   0  0  0  0  0  0  0  0  0  0  0  0
    0.1268   -6.5204    3.8066 H   0  0  0  0  0  0  0  0  0  0  0  0
    1.6311   -5.2929    5.6330 H   0  0  0  0  0  0  0  0  0  0  0  0
    0.4045   -4.0135    5.3413 H   0  0  0  0  0  0  0  0  0  0  0  0
   -0.1045   -5.6220    5.9580 H   0  0  0  0  0  0  0  0  0  0  0  0
 18 19  1  0  0  0  0
 19 31  1  0  0  0  0
 19 20  2  0  0  0  0
  8  9  1  0  0  0  0
  9 17  1  0  0  0  0
  9 10  2  0  0  0  0
  1  3  1  0  0  0  0
  1  7  1  0  0  0  0
  1  2  2  0  0  0  0
 32 33  1  0  0  0  0
 33 41  1  0  0  0  0
 33 34  2  0  0  0  0
 21 22  1  0  0  0  0
 22 23  1  0  0  0  0
 18 21  1  0  0  0  0
 17 23  1  0  0  0  0
 17 18  1  0  0  0  0
  8 11  1  0  0  0  0
 32 35  1  0  0  0  0
 41 42  1  0  0  0  0
  7  8  1  0  0  0  0
 31 32  1  0  0  0  0
 22 27  1  0  0  0  0
 22 28  1  0  0  0  0
 21 25  1  0  0  0  0
 21 26  1  0  0  0  0
 23 29  1  0  0  0  0
 23 30  1  0  0  0  0
 18 24  1  0  0  0  0
  3  4  1  0  0  0  0
  3  5  1  0  0  0  0
  3  6  1  0  0  0  0
 11 14  1  0  0  0  0
 11 15  1  0  0  0  0
 11 16  1  0  0  0  0
 35 38  1  0  0  0  0
 35 39  1  0  0  0  0
 35 40  1  0  0  0  0
 42 44  1  0  0  0  0
 42 45  1  0  0  0  0
 42 46  1  0  0  0  0
  8 13  1  0  0  0  0
 32 37  1  0  0  0  0
 31 36  1  0  0  0  0
 41 43  1  0  0  0  0
  7 12  1  0  0  0  0
M  END
$$$$

  -OEChem-05262214473D

 46 46  0     1  0  0  0  0  0999 V2000
   -0.6012   -3.2995    3.8205 C   0  0  0  0  0  0  0  0  0  0  0  0
   -0.6574   -4.4683    3.4568 O   0  0  0  0  0  0  0  0  0  0  0  0
   -0.4935   -2.9859    5.2760 C   0  0  0  0  0  0  0  0  0  0  0  0
   -1.4789   -2.8689    5.7550 H   0  0  0  0  0  0  0  0  0  0  0  0
    0.0123   -3.7847    5.8419 H   0  0  0  0  0  0  0  0  0  0  0  0
    0.0585   -2.0642    5.5199 H   0  0  0  0  0  0  0  0  0  0  0  0
   -0.6261   -2.1849    2.9917 N   0  0  0  0  0  0  0  0  0  0  0  0
   -0.7237   -2.2601    1.5650 C   0  0  2  0  0  0  0  0  0  0  0  0
    0.1695   -1.1513    1.0687 C   0  0  0  0  0  0  0  0  0  0  0  0
    0.3193   -0.1267    1.7365 O   0  0  0  0  0  0  0  0  0  0  0  0
   -2.1397   -2.0663    1.0750 C   0  0  0  0  0  0  0  0  0  0  0  0
   -0.5717   -1.2606    3.4238 H   0  0  0  0  0  0  0  0  0  0  0  0
   -0.3076   -3.2111    1.2363 H   0  0  0  0  0  0  0  0  0  0  0  0
   -2.5584   -1.1089    1.4061 H   0  0  0  0  0  0  0  0  0  0  0  0
   -2.1682   -2.0790   -0.0197 H   0  0  0  0  0  0  0  0  0  0  0  0
   -2.7965   -2.8601    1.4459 H   0  0  0  0  0  0  0  0  0  0  0  0
    0.7724   -1.3745   -0.1593 N   0  0  0  0  0  0  0  0  0  0  0  0
    0.5614   -2.5964   -0.9244 C   0  0  2  0  0  0  0  0  0  0  0  0
   -0.3735   -3.4587   -0.1308 C   0  0  0  0  0  0  0  0  0  0  0  0
   -1.5827   -3.3544   -0.3005 O   0  0  0  0  0  0  0  0  0  0  0  0
    1.9458   -3.2230   -1.0432 C   0  0  0  0  0  0  0  0  0  0  0  0
    2.2521   -1.7403   -0.8458 C   0  0  0  0  0  0  0  0  0  0  0  0
    1.5408   -0.3981   -0.9273 C   0  0  0  0  0  0  0  0  0  0  0  0
    0.1027   -2.3787   -1.8936 H   0  0  0  0  0  0  0  0  0  0  0  0
    2.0691   -3.6740   -2.0351 H   0  0  0  0  0  0  0  0  0  0  0  0
    2.1474   -3.9863   -0.2855 H   0  0  0  0  0  0  0  0  0  0  0  0
    2.5528   -1.5477    0.1905 H   0  0  0  0  0  0  0  0  0  0  0  0
    3.0524   -1.3926   -1.5053 H   0  0  0  0  0  0  0  0  0  0  0  0
    2.1327    0.4188   -0.5056 H   0  0  0  0  0  0  0  0  0  0  0  0
    1.2759   -0.1509   -1.9611 H   0  0  0  0  0  0  0  0  0  0  0  0
    0.1659   -4.3090    0.7353 N   0  0  0  0  0  0  0  0  0  0  0  0
    0.3765   -5.0733    1.9438 C   0  0  2  0  0  0  0  0  0  0  0  0
    0.2949   -4.1162    3.1258 C   0  0  0  0  0  0  0  0  0  0  0  0
    0.4838   -2.9059    3.0231 O   0  0  0  0  0  0  0  0  0  0  0  0
    1.7165   -5.7918    1.9177 C   0  0  0  0  0  0  0  0  0  0  0  0
   -0.6042   -4.5694    0.1266 H   0  0  0  0  0  0  0  0  0  0  0  0
   -0.4408   -5.8002    2.0047 H   0  0  0  0  0  0  0  0  0  0  0  0
    2.5475   -5.0797    1.8568 H   0  0  0  0  0  0  0  0  0  0  0  0
    1.8620   -6.3931    2.8212 H   0  0  0  0  0  0  0  0  0  0  0  0
    1.7849   -6.4574    1.0505 H   0  0  0  0  0  0  0  0  0  0  0  0
    0.0291   -4.7784    4.3161 N   0  0  0  0  0  0  0  0  0  0  0  0
   -0.0840   -4.0919    5.5818 C   0  0  0  0  0  0  0  0  0  0  0  0
   -0.1320   -5.7813    4.3048 H   0  0  0  0  0  0  0  0  0  0  0  0
    0.8953   -4.0814    6.0826 H   0  0  0  0  0  0  0  0  0  0  0  0
   -0.4187   -3.0583    5.4095 H   0  0  0  0  0  0  0  0  0  0  0  0
   -0.8152   -4.6129    6.2173 H   0  0  0  0  0  0  0  0  0  0  0  0
 18 19  1  0  0  0  0
 19 31  1  0  0  0  0
 19 20  2  0  0  0  0
  8  9  1  0  0  0  0
  9 17  1  0  0  0  0
  9 10  2  0  0  0  0
  1  3  1  0  0  0  0
  1  7  1  0  0  0  0
  1  2  2  0  0  0  0
 32 33  1  0  0  0  0
 33 41  1  0  0  0  0
 33 34  2  0  0  0  0
 21 22  1  0  0  0  0
 22 23  1  0  0  0  0
 18 21  1  0  0  0  0
 17 23  1  0  0  0  0
 17 18  1  0  0  0  0
  8 11  1  0  0  0  0
 32 35  1  0  0  0  0
 41 42  1  0  0  0  0
  7  8  1  0  0  0  0
 31 32  1  0  0  0  0
 22 27  1  0  0  0  0
 22 28  1  0  0  0  0
 21 25  1  0  0  0  0
 21 26  1  0  0  0  0
 23 29  1  0  0  0  0
 23 30  1  0  0  0  0
 18 24  1  0  0  0  0
  3  4  1  0  0  0  0
  3  5  1  0  0  0  0
  3  6  1  0  0  0  0
 11 14  1  0  0  0  0
 11 15  1  0  0  0  0
 11 16  1  0  0  0  0
 35 38  1  0  0  0  0
 35 39  1  0  0  0  0
 35 40  1  0  0  0  0
 42 44  1  0  0  0  0
 42 45  1  0  0  0  0
 42 46  1  0  0  0  0
  8 13  1  0  0  0  0
 32 37  1  0  0  0  0
 31 36  1  0  0  0  0
 41 43  1  0  0  0  0
  7 12  1  0  0  0  0
M  END
$$$$

  -OEChem-05262214473D

 46 46  0     1  0  0  0  0  0999 V2000
   -0.6012   -3.2995    3.8205 C   0  0  0  0  0  0  0  0  0  0  0  0
   -0.6574   -4.4683    3.4568 O   0  0  0  0  0  0  0  0  0  0  0  0
   -0.4935   -2.9859    5.2760 C   0  0  0  0  0  0  0  0  0  0  0  0
   -1.4789   -2.8689    5.7550 H   0  0  0  0  0  0  0  0  0  0  0  0
    0.0123   -3.7847    5.8419 H   0  0  0  0  0  0  0  0  0  0  0  0
    0.0585   -2.0642    5.5199 H   0  0  0  0  0  0  0  0  0  0  0  0
   -0.6261   -2.1849    2.9917 N   0  0  0  0  0  0  0  0  0  0  0  0
   -0.7237   -2.2601    1.5650 C   0  0  2  0  0  0  0  0  0  0  0  0
    0.1695   -1.1513    1.0687 C   0  0  0  0  0  0  0  0  0  0  0  0
    0.3193   -0.1267    1.7365 O   0  0  0  0  0  0  0  0  0  0  0  0
   -2.1397   -2.0663    1.0750 C   0  0  0  0  0  0  0  0  0  0  0  0
   -0.5717   -1.2606    3.4238 H   0  0  0  0  0  0  0  0  0  0  0  0
   -0.3076   -3.2111    1.2363 H   0  0  0  0  0  0  0  0  0  0  0  0
   -2.5584   -1.1089    1.4061 H   0  0  0  0  0  0  0  0  0  0  0  0
   -2.1682   -2.0790   -0.0197 H   0  0  0  0  0  0  0  0  0  0  0  0
   -2.7965   -2.8601    1.4459 H   0  0  0  0  0  0  0  0  0  0  0  0
    0.7724   -1.3745   -0.1593 N   0  0  0  0  0  0  0  0  0  0  0  0
    0.5614   -2.5964   -0.9244 C   0  0  2  0  0  0  0  0  0  0  0  0
   -0.3735   -3.4587   -0.1308 C   0  0  0  0  0  0  0  0  0  0  0  0
   -1.5433   -3.5628   -0.4806 O   0  0  0  0  0  0  0  0  0  0  0  0
    1.9458   -3.2230   -1.0432 C   0  0  0  0  0  0  0  0  0  0  0  0
    2.2521   -1.7403   -0.8458 C   0  0  0  0  0  0  0  0  0  0  0  0
    1.5408   -0.3981   -0.9273 C   0  0  0  0  0  0  0  0  0  0  0  0
    0.1027   -2.3787   -1.8936 H   0  0  0  0  0  0  0  0  0  0  0  0
    2.0691   -3.6740   -2.0351 H   0  0  0  0  0  0  0  0  0  0  0  0
    2.1474   -3.9863   -0.2855 H   0  0  0  0  0  0  0  0  0  0  0  0
    2.5528   -1.5477    0.1905 H   0  0  0  0  0  0  0  0  0  0  0  0
    3.0524   -1.3926   -1.5053 H   0  0  0  0  0  0  0  0  0  0  0  0
    2.1327    0.4188   -0.5056 H   0  0  0  0  0  0  0  0  0  0  0  0
    1.2759   -0.1509   -1.9611 H   0  0  0  0  0  0  0  0  0  0  0  0
    0.1221   -4.0783    0.9344 N   0  0  0  0  0  0  0  0  0  0  0  0
    0.2301   -4.6112    2.2735 C   0  0  2  0  0  0  0  0  0  0  0  0
   -0.1584   -3.5096    3.2508 C   0  0  0  0  0  0  0  0  0  0  0  0
   -0.1081   -2.3142    2.9688 O   0  0  0  0  0  0  0  0  0  0  0  0
    1.6361   -5.1174    2.5559 C   0  0  0  0  0  0  0  0  0  0  0  0
   -0.5020   -4.5396    0.2793 H   0  0  0  0  0  0  0  0  0  0  0  0
   -0.4892   -5.4343    2.3453 H   0  0  0  0  0  0  0  0  0  0  0  0
    2.3707   -4.3066    2.4885 H   0  0  0  0  0  0  0  0  0  0  0  0
    1.7089   -5.5467    3.5606 H   0  0  0  0  0  0  0  0  0  0  0  0
    1.9251   -5.8885    1.8337 H   0  0  0  0  0  0  0  0  0  0  0  0
   -0.5266   -4.0166    4.4892 N   0  0  0  0  0  0  0  0  0  0  0  0
   -0.9257   -3.1715    5.5903 C   0  0  0  0  0  0  0  0  0  0  0  0
   -0.5575   -5.0223    4.6283 H   0  0  0  0  0  0  0  0  0  0  0  0
   -0.0483   -2.9394    6.2118 H   0  0  0  0  0  0  0  0  0  0  0  0
   -1.3548   -2.2374    5.1986 H   0  0  0  0  0  0  0  0  0  0  0  0
   -1.6784   -3.6938    6.1991 H   0  0  0  0  0  0  0  0  0  0  0  0
 18 19  1  0  0  0  0
 19 31  1  0  0  0  0
 19 20  2  0  0  0  0
  8  9  1  0  0  0  0
  9 17  1  0  0  0  0
  9 10  2  0  0  0  0
  1  3  1  0  0  0  0
  1  7  1  0  0  0  0
  1  2  2  0  0  0  0
 32 33  1  0  0  0  0
 33 41  1  0  0  0  0
 33 34  2  0  0  0  0
 21 22  1  0  0  0  0
 22 23  1  0  0  0  0
 18 21  1  0  0  0  0
 17 23  1  0  0  0  0
 17 18  1  0  0  0  0
  8 11  1  0  0  0  0
 32 35  1  0  0  0  0
 41 42  1  0  0  0  0
  7  8  1  0  0  0  0
 31 32  1  0  0  0  0
 22 27  1  0  0  0  0
 22 28  1  0  0  0  0
 21 25  1  0  0  0  0
 21 26  1  0  0  0  0
 23 29  1  0  0  0  0
 23 30  1  0  0  0  0
 18 24  1  0  0  0  0
  3  4  1  0  0  0  0
  3  5  1  0  0  0  0
  3  6  1  0  0  0  0
 11 14  1  0  0  0  0
 11 15  1  0  0  0  0
 11 16  1  0  0  0  0
 35 38  1  0  0  0  0
 35 39  1  0  0  0  0
 35 40  1  0  0  0  0
 42 44  1  0  0  0  0
 42 45  1  0  0  0  0
 42 46  1  0  0  0  0
  8 13  1  0  0  0  0
 32 37  1  0  0  0  0
 31 36  1  0  0  0  0
 41 43  1  0  0  0  0
  7 12  1  0  0  0  0
M  END
$$$$

  -OEChem-05262214473D

 46 46  0     1  0  0  0  0  0999 V2000
   -0.6012   -3.2995    3.8205 C   0  0  0  0  0  0  0  0  0  0  0  0
   -0.6574   -4.4683    3.4568 O   0  0  0  0  0  0  0  0  0  0  0  0
   -0.4935   -2.9859    5.2760 C   0  0  0  0  0  0  0  0  0  0  0  0
   -1.4789   -2.8689    5.7550 H   0  0  0  0  0  0  0  0  0  0  0  0
    0.0123   -3.7847    5.8419 H   0  0  0  0  0  0  0  0  0  0  0  0
    0.0585   -2.0642    5.5199 H   0  0  0  0  0  0  0  0  0  0  0  0
   -0.6261   -2.1849    2.9917 N   0  0  0  0  0  0  0  0  0  0  0  0
   -0.7237   -2.2601    1.5650 C   0  0  2  0  0  0  0  0  0  0  0  0
    0.1695   -1.1513    1.0687 C   0  0  0  0  0  0  0  0  0  0  0  0
    0.3193   -0.1267    1.7365 O   0  0  0  0  0  0  0  0  0  0  0  0
   -2.1397   -2.0663    1.0750 C   0  0  0  0  0  0  0  0  0  0  0  0
   -0.5717   -1.2606    3.4238 H   0  0  0  0  0  0  0  0  0  0  0  0
   -0.3076   -3.2111    1.2363 H   0  0  0  0  0  0  0  0  0  0  0  0
   -2.5584   -1.1089    1.4061 H   0  0  0  0  0  0  0  0  0  0  0  0
   -2.1682   -2.0790   -0.0197 H   0  0  0  0  0  0  0  0  0  0  0  0
   -2.7965   -2.8601    1.4459 H   0  0  0  0  0  0  0  0  0  0  0  0
    0.7724   -1.3745   -0.1593 N   0  0  0  0  0  0  0  0  0  0  0  0
    0.5614   -2.5964   -0.9244 C   0  0  2  0  0  0  0  0  0  0  0  0
   -0.3735   -3.4587   -0.1308 C   0  0  0  0  0  0  0  0  0  0  0  0
   -1.4500   -3.7879   -0.6152 O   0  0  0  0  0  0  0  0  0  0  0  0
    1.9458   -3.2230   -1.0432 C   0  0  0  0  0  0  0  0  0  0  0  0
    2.2521   -1.7403   -0.8458 C   0  0  0  0  0  0  0  0  0  0  0  0
    1.5408   -0.3981   -0.9273 C   0  0  0  0  0  0  0  0  0  0  0  0
    0.1027   -2.3787   -1.8936 H   0  0  0  0  0  0  0  0  0  0  0  0
    2.0691   -3.6740   -2.0351 H   0  0  0  0  0  0  0  0  0  0  0  0
    2.1474   -3.9863   -0.2855 H   0  0  0  0  0  0  0  0  0  0  0  0
    2.5528   -1.5477    0.1905 H   0  0  0  0  0  0  0  0  0  0  0  0
    3.0524   -1.3926   -1.5053 H   0  0  0  0  0  0  0  0  0  0  0  0
    2.1327    0.4188   -0.5056 H   0  0  0  0  0  0  0  0  0  0  0  0
    1.2759   -0.1509   -1.9611 H   0  0  0  0  0  0  0  0  0  0  0  0
    0.0185   -3.8293    1.0829 N   0  0  0  0  0  0  0  0  0  0  0  0
   -0.0236   -4.1317    2.4956 C   0  0  2  0  0  0  0  0  0  0  0  0
   -0.6980   -2.9656    3.2062 C   0  0  0  0  0  0  0  0  0  0  0  0
   -0.7527   -1.8326    2.7327 O   0  0  0  0  0  0  0  0  0  0  0  0
    1.3710   -4.3739    3.0515 C   0  0  0  0  0  0  0  0  0  0  0  0
   -0.4301   -4.4722    0.4373 H   0  0  0  0  0  0  0  0  0  0  0  0
   -0.6367   -5.0325    2.6080 H   0  0  0  0  0  0  0  0  0  0  0  0
    2.0000   -3.4822    2.9476 H   0  0  0  0  0  0  0  0  0  0  0  0
    1.3350   -4.6308    4.1153 H   0  0  0  0  0  0  0  0  0  0  0  0
    1.8658   -5.1934    2.5192 H   0  0  0  0  0  0  0  0  0  0  0  0
   -1.1936   -3.3290    4.4506 N   0  0  0  0  0  0  0  0  0  0  0  0
   -1.8661   -2.3964    5.3246 C   0  0  0  0  0  0  0  0  0  0  0  0
   -1.1206   -4.2954    4.7548 H   0  0  0  0  0  0  0  0  0  0  0  0
   -1.1355   -1.9448    6.0118 H   0  0  0  0  0  0  0  0  0  0  0  0
   -2.3402   -1.6068    4.7230 H   0  0  0  0  0  0  0  0  0  0  0  0
   -2.6355   -2.9271    5.9047 H   0  0  0  0  0  0  0  0  0  0  0  0
 18 19  1  0  0  0  0
 19 31  1  0  0  0  0
 19 20  2  0  0  0  0
  8  9  1  0  0  0  0
  9 17  1  0  0  0  0
  9 10  2  0  0  0  0
  1  3  1  0  0  0  0
  1  7  1  0  0  0  0
  1  2  2  0  0  0  0
 32 33  1  0  0  0  0
 33 41  1  0  0  0  0
 33 34  2  0  0  0  0
 21 22  1  0  0  0  0
 22 23  1  0  0  0  0
 18 21  1  0  0  0  0
 17 23  1  0  0  0  0
 17 18  1  0  0  0  0
  8 11  1  0  0  0  0
 32 35  1  0  0  0  0
 41 42  1  0  0  0  0
  7  8  1  0  0  0  0
 31 32  1  0  0  0  0
 22 27  1  0  0  0  0
 22 28  1  0  0  0  0
 21 25  1  0  0  0  0
 21 26  1  0  0  0  0
 23 29  1  0  0  0  0
 23 30  1  0  0  0  0
 18 24  1  0  0  0  0
  3  4  1  0  0  0  0
  3  5  1  0  0  0  0
  3  6  1  0  0  0  0
 11 14  1  0  0  0  0
 11 15  1  0  0  0  0
 11 16  1  0  0  0  0
 35 38  1  0  0  0  0
 35 39  1  0  0  0  0
 35 40  1  0  0  0  0
 42 44  1  0  0  0  0
 42 45  1  0  0  0  0
 42 46  1  0  0  0  0
  8 13  1  0  0  0  0
 32 37  1  0  0  0  0
 31 36  1  0  0  0  0
 41 43  1  0  0  0  0
  7 12  1  0  0  0  0
M  END
$$$$

  -OEChem-05262214473D

 46 46  0     1  0  0  0  0  0999 V2000
   -0.6012   -3.2995    3.8205 C   0  0  0  0  0  0  0  0  0  0  0  0
   -0.6574   -4.4683    3.4568 O   0  0  0  0  0  0  0  0  0  0  0  0
   -0.4935   -2.9859    5.2760 C   0  0  0  0  0  0  0  0  0  0  0  0
   -1.4789   -2.8689    5.7550 H   0  0  0  0  0  0  0  0  0  0  0  0
    0.0123   -3.7847    5.8419 H   0  0  0  0  0  0  0  0  0  0  0  0
    0.0585   -2.0642    5.5199 H   0  0  0  0  0  0  0  0  0  0  0  0
   -0.6261   -2.1849    2.9917 N   0  0  0  0  0  0  0  0  0  0  0  0
   -0.7237   -2.2601    1.5650 C   0  0  2  0  0  0  0  0  0  0  0  0
    0.1695   -1.1513    1.0687 C   0  0  0  0  0  0  0  0  0  0  0  0
    0.3193   -0.1267    1.7365 O   0  0  0  0  0  0  0  0  0  0  0  0
   -2.1397   -2.0663    1.0750 C   0  0  0  0  0  0  0  0  0  0  0  0
   -0.5717   -1.2606    3.4238 H   0  0  0  0  0  0  0  0  0  0  0  0
   -0.3076   -3.2111    1.2363 H   0  0  0  0  0  0  0  0  0  0  0  0
   -2.5584   -1.1089    1.4061 H   0  0  0  0  0  0  0  0  0  0  0  0
   -2.1682   -2.0790   -0.0197 H   0  0  0  0  0  0  0  0  0  0  0  0
   -2.7965   -2.8601    1.4459 H   0  0  0  0  0  0  0  0  0  0  0  0
    0.7724   -1.3745   -0.1593 N   0  0  0  0  0  0  0  0  0  0  0  0
    0.5614   -2.5964   -0.9244 C   0  0  2  0  0  0  0  0  0  0  0  0
   -0.3735   -3.4587   -0.1308 C   0  0  0  0  0  0  0  0  0  0  0  0
   -1.3089   -4.0142   -0.6949 O   0  0  0  0  0  0  0  0  0  0  0  0
    1.9458   -3.2230   -1.0432 C   0  0  0  0  0  0  0  0  0  0  0  0
    2.2521   -1.7403   -0.8458 C   0  0  0  0  0  0  0  0  0  0  0  0
    1.5408   -0.3981   -0.9273 C   0  0  0  0  0  0  0  0  0  0  0  0
    0.1027   -2.3787   -1.8936 H   0  0  0  0  0  0  0  0  0  0  0  0
    2.0691   -3.6740   -2.0351 H   0  0  0  0  0  0  0  0  0  0  0  0
    2.1474   -3.9863   -0.2855 H   0  0  0  0  0  0  0  0  0  0  0  0
    2.5528   -1.5477    0.1905 H   0  0  0  0  0  0  0  0  0  0  0  0
    3.0524   -1.3926   -1.5053 H   0  0  0  0  0  0  0  0  0  0  0  0
    2.1327    0.4188   -0.5056 H   0  0  0  0  0  0  0  0  0  0  0  0
    1.2759   -0.1509   -1.9611 H   0  0  0  0  0  0  0  0  0  0  0  0
   -0.1377   -3.5790    1.1707 N   0  0  0  0  0  0  0  0  0  0  0  0
   -0.3675   -3.6675    2.5949 C   0  0  2  0  0  0  0  0  0  0  0  0
   -1.2871   -2.5213    2.9950 C   0  0  0  0  0  0  0  0  0  0  0  0
   -1.4063   -1.4938    2.3309 O   0  0  0  0  0  0  0  0  0  0  0  0
    0.9393   -3.6120    3.3707 C   0  0  0  0  0  0  0  0  0  0  0  0
   -0.3934   -4.3717    0.5896 H   0  0  0  0  0  0  0  0  0  0  0  0
   -0.8734   -4.6223    2.7750 H   0  0  0  0  0  0  0  0  0  0  0  0
    1.4606   -2.6625    3.2028 H   0  0  0  0  0  0  0  0  0  0  0  0
    0.7658   -3.7079    4.4476 H   0  0  0  0  0  0  0  0  0  0  0  0
    1.6113   -4.4194    3.0604 H   0  0  0  0  0  0  0  0  0  0  0  0
   -1.9263   -2.7624    4.2031 N   0  0  0  0  0  0  0  0  0  0  0  0
   -2.8412   -1.8194    4.8029 C   0  0  0  0  0  0  0  0  0  0  0  0
   -1.7829   -3.6499    4.6759 H   0  0  0  0  0  0  0  0  0  0  0  0
   -2.2921   -1.1653    5.4962 H   0  0  0  0  0  0  0  0  0  0  0  0
   -3.3075   -1.2094    4.0152 H   0  0  0  0  0  0  0  0  0  0  0  0
   -3.6211   -2.3652    5.3540 H   0  0  0  0  0  0  0  0  0  0  0  0
 18 19  1  0  0  0  0
 19 31  1  0  0  0  0
 19 20  2  0  0  0  0
  8  9  1  0  0  0  0
  9 17  1  0  0  0  0
  9 10  2  0  0  0  0
  1  3  1  0  0  0  0
  1  7  1  0  0  0  0
  1  2  2  0  0  0  0
 32 33  1  0  0  0  0
 33 41  1  0  0  0  0
 33 34  2  0  0  0  0
 21 22  1  0  0  0  0
 22 23  1  0  0  0  0
 18 21  1  0  0  0  0
 17 23  1  0  0  0  0
 17 18  1  0  0  0  0
  8 11  1  0  0  0  0
 32 35  1  0  0  0  0
 41 42  1  0  0  0  0
  7  8  1  0  0  0  0
 31 32  1  0  0  0  0
 22 27  1  0  0  0  0
 22 28  1  0  0  0  0
 21 25  1  0  0  0  0
 21 26  1  0  0  0  0
 23 29  1  0  0  0  0
 23 30  1  0  0  0  0
 18 24  1  0  0  0  0
  3  4  1  0  0  0  0
  3  5  1  0  0  0  0
  3  6  1  0  0  0  0
 11 14  1  0  0  0  0
 11 15  1  0  0  0  0
 11 16  1  0  0  0  0
 35 38  1  0  0  0  0
 35 39  1  0  0  0  0
 35 40  1  0  0  0  0
 42 44  1  0  0  0  0
 42 45  1  0  0  0  0
 42 46  1  0  0  0  0
  8 13  1  0  0  0  0
 32 37  1  0  0  0  0
 31 36  1  0  0  0  0
 41 43  1  0  0  0  0
  7 12  1  0  0  0  0
M  END
$$$$

  -OEChem-05262214473D

 46 46  0     1  0  0  0  0  0999 V2000
   -0.6012   -3.2995    3.8205 C   0  0  0  0  0  0  0  0  0  0  0  0
   -0.6574   -4.4683    3.4568 O   0  0  0  0  0  0  0  0  0  0  0  0
   -0.4935   -2.9859    5.2760 C   0  0  0  0  0  0  0  0  0  0  0  0
   -1.4789   -2.8689    5.7550 H   0  0  0  0  0  0  0  0  0  0  0  0
    0.0123   -3.7847    5.8419 H   0  0  0  0  0  0  0  0  0  0  0  0
    0.0585   -2.0642    5.5199 H   0  0  0  0  0  0  0  0  0  0  0  0
   -0.6261   -2.1849    2.9917 N   0  0  0  0  0  0  0  0  0  0  0  0
   -0.7237   -2.2601    1.5650 C   0  0  2  0  0  0  0  0  0  0  0  0
    0.1695   -1.1513    1.0687 C   0  0  0  0  0  0  0  0  0  0  0  0
    0.3193   -0.1267    1.7365 O   0  0  0  0  0  0  0  0  0  0  0  0
   -2.1397   -2.0663    1.0750 C   0  0  0  0  0  0  0  0  0  0  0  0
   -0.5717   -1.2606    3.4238 H   0  0  0  0  0  0  0  0  0  0  0  0
   -0.3076   -3.2111    1.2363 H   0  0  0  0  0  0  0  0  0  0  0  0
   -2.5584   -1.1089    1.4061 H   0  0  0  0  0  0  0  0  0  0  0  0
   -2.1682   -2.0790   -0.0197 H   0  0  0  0  0  0  0  0  0  0  0  0
   -2.7965   -2.8601    1.4459 H   0  0  0  0  0  0  0  0  0  0  0  0
    0.7724   -1.3745   -0.1593 N   0  0  0  0  0  0  0  0  0  0  0  0
    0.5614   -2.5964   -0.9244 C   0  0  2  0  0  0  0  0  0  0  0  0
   -0.3735   -3.4587   -0.1308 C   0  0  0  0  0  0  0  0  0  0  0  0
   -1.1298   -4.2263   -0.7144 O   0  0  0  0  0  0  0  0  0  0  0  0
    1.9458   -3.2230   -1.0432 C   0  0  0  0  0  0  0  0  0  0  0  0
    2.2521   -1.7403   -0.8458 C   0  0  0  0  0  0  0  0  0  0  0  0
    1.5408   -0.3981   -0.9273 C   0  0  0  0  0  0  0  0  0  0  0  0
    0.1027   -2.3787   -1.8936 H   0  0  0  0  0  0  0  0  0  0  0  0
    2.0691   -3.6740   -2.0351 H   0  0  0  0  0  0  0  0  0  0  0  0
    2.1474   -3.9863   -0.2855 H   0  0  0  0  0  0  0  0  0  0  0  0
    2.5528   -1.5477    0.1905 H   0  0  0  0  0  0  0  0  0  0  0  0
    3.0524   -1.3926   -1.5053 H   0  0  0  0  0  0  0  0  0  0  0  0
    2.1327    0.4188   -0.5056 H   0  0  0  0  0  0  0  0  0  0  0  0
    1.2759   -0.1509   -1.9611 H   0  0  0  0  0  0  0  0  0  0  0  0
   -0.3360   -3.3445    1.1919 N   0  0  0  0  0  0  0  0  0  0  0  0
   -0.7780   -3.2501    2.5648 C   0  0  2  0  0  0  0  0  0  0  0  0
   -1.8856   -2.2069    2.6316 C   0  0  0  0  0  0  0  0  0  0  0  0
   -2.0241   -1.3209    1.7908 O   0  0  0  0  0  0  0  0  0  0  0  0
    0.3705   -2.8838    3.4919 C   0  0  0  0  0  0  0  0  0  0  0  0
   -0.3944   -4.2451    0.7261 H   0  0  0  0  0  0  0  0  0  0  0  0
   -1.1831   -4.2315    2.8348 H   0  0  0  0  0  0  0  0  0  0  0  0
    0.7892   -1.9035    3.2367 H   0  0  0  0  0  0  0  0  0  0  0  0
    0.0401   -2.8407    4.5350 H   0  0  0  0  0  0  0  0  0  0  0  0
    1.1789   -3.6194    3.4204 H   0  0  0  0  0  0  0  0  0  0  0  0
   -2.6748   -2.3554    3.7635 N   0  0  0  0  0  0  0  0  0  0  0  0
   -3.7843   -1.4799    4.0607 C   0  0  0  0  0  0  0  0  0  0  0  0
   -2.4994   -3.1299    4.3969 H   0  0  0  0  0  0  0  0  0  0  0  0
   -3.4394   -0.6540    4.7002 H   0  0  0  0  0  0  0  0  0  0  0  0
   -4.1910   -1.0724    3.1233 H   0  0  0  0  0  0  0  0  0  0  0  0
   -4.5682   -2.0464    4.5847 H   0  0  0  0  0  0  0  0  0  0  0  0
 18 19  1  0  0  0  0
 19 31  1  0  0  0  0
 19 20  2  0  0  0  0
  8  9  1  0  0  0  0
  9 17  1  0  0  0  0
  9 10  2  0  0  0  0
  1  3  1  0  0  0  0
  1  7  1  0  0  0  0
  1  2  2  0  0  0  0
 32 33  1  0  0  0  0
 33 41  1  0  0  0  0
 33 34  2  0  0  0  0
 21 22  1  0  0  0  0
 22 23  1  0  0  0  0
 18 21  1  0  0  0  0
 17 23  1  0  0  0  0
 17 18  1  0  0  0  0
  8 11  1  0  0  0  0
 32 35  1  0  0  0  0
 41 42  1  0  0  0  0
  7  8  1  0  0  0  0
 31 32  1  0  0  0  0
 22 27  1  0  0  0  0
 22 28  1  0  0  0  0
 21 25  1  0  0  0  0
 21 26  1  0  0  0  0
 23 29  1  0  0  0  0
 23 30  1  0  0  0  0
 18 24  1  0  0  0  0
  3  4  1  0  0  0  0
  3  5  1  0  0  0  0
  3  6  1  0  0  0  0
 11 14  1  0  0  0  0
 11 15  1  0  0  0  0
 11 16  1  0  0  0  0
 35 38  1  0  0  0  0
 35 39  1  0  0  0  0
 35 40  1  0  0  0  0
 42 44  1  0  0  0  0
 42 45  1  0  0  0  0
 42 46  1  0  0  0  0
  8 13  1  0  0  0  0
 32 37  1  0  0  0  0
 31 36  1  0  0  0  0
 41 43  1  0  0  0  0
  7 12  1  0  0  0  0
M  END
$$$$

  -OEChem-05262214473D

 46 46  0     1  0  0  0  0  0999 V2000
   -0.6012   -3.2995    3.8205 C   0  0  0  0  0  0  0  0  0  0  0  0
   -0.6574   -4.4683    3.4568 O   0  0  0  0  0  0  0  0  0  0  0  0
   -0.4935   -2.9859    5.2760 C   0  0  0  0  0  0  0  0  0  0  0  0
   -1.4789   -2.8689    5.7550 H   0  0  0  0  0  0  0  0  0  0  0  0
    0.0123   -3.7847    5.8419 H   0  0  0  0  0  0  0  0  0  0  0  0
    0.0585   -2.0642    5.5199 H   0  0  0  0  0  0  0  0  0  0  0  0
   -0.6261   -2.1849    2.9917 N   0  0  0  0  0  0  0  0  0  0  0  0
   -0.7237   -2.2601    1.5650 C   0  0  2  0  0  0  0  0  0  0  0  0
    0.1695   -1.1513    1.0687 C   0  0  0  0  0  0  0  0  0  0  0  0
    0.3193   -0.1267    1.7365 O   0  0  0  0  0  0  0  0  0  0  0  0
   -2.1397   -2.0663    1.0750 C   0  0  0  0  0  0  0  0  0  0  0  0
   -0.5717   -1.2606    3.4238 H   0  0  0  0  0  0  0  0  0  0  0  0
   -0.3076   -3.2111    1.2363 H   0  0  0  0  0  0  0  0  0  0  0  0
   -2.5584   -1.1089    1.4061 H   0  0  0  0  0  0  0  0  0  0  0  0
   -2.1682   -2.0790   -0.0197 H   0  0  0  0  0  0  0  0  0  0  0  0
   -2.7965   -2.8601    1.4459 H   0  0  0  0  0  0  0  0  0  0  0  0
    0.7724   -1.3745   -0.1593 N   0  0  0  0  0  0  0  0  0  0  0  0
    0.5614   -2.5964   -0.9244 C   0  0  2  0  0  0  0  0  0  0  0  0
   -0.3735   -3.4587   -0.1308 C   0  0  0  0  0  0  0  0  0  0  0  0
   -0.9248   -4.4098   -0.6723 O   0  0  0  0  0  0  0  0  0  0  0  0
    1.9458   -3.2230   -1.0432 C   0  0  0  0  0  0  0  0  0  0  0  0
    2.2521   -1.7403   -0.8458 C   0  0  0  0  0  0  0  0  0  0  0  0
    1.5408   -0.3981   -0.9273 C   0  0  0  0  0  0  0  0  0  0  0  0
    0.1027   -2.3787   -1.8936 H   0  0  0  0  0  0  0  0  0  0  0  0
    2.0691   -3.6740   -2.0351 H   0  0  0  0  0  0  0  0  0  0  0  0
    2.1474   -3.9863   -0.2855 H   0  0  0  0  0  0  0  0  0  0  0  0
    2.5528   -1.5477    0.1905 H   0  0  0  0  0  0  0  0  0  0  0  0
    3.0524   -1.3926   -1.5053 H   0  0  0  0  0  0  0  0  0  0  0  0
    2.1327    0.4188   -0.5056 H   0  0  0  0  0  0  0  0  0  0  0  0
    1.2759   -0.1509   -1.9611 H   0  0  0  0  0  0  0  0  0  0  0  0
   -0.5629   -3.1418    1.1450 N   0  0  0  0  0  0  0  0  0  0  0  0
   -1.2272   -2.9082    2.4072 C   0  0  2  0  0  0  0  0  0  0  0  0
   -2.4526   -2.0439    2.1407 C   0  0  0  0  0  0  0  0  0  0  0  0
   -2.5642   -1.3258    1.1493 O   0  0  0  0  0  0  0  0  0  0  0  0
   -0.2968   -2.2387    3.4066 C   0  0  0  0  0  0  0  0  0  0  0  0
   -0.4331   -4.1009    0.8373 H   0  0  0  0  0  0  0  0  0  0  0  0
   -1.5447   -3.8868    2.7834 H   0  0  0  0  0  0  0  0  0  0  0  0
    0.0317   -1.2568    3.0470 H   0  0  0  0  0  0  0  0  0  0  0  0
   -0.7927   -2.0883    4.3713 H   0  0  0  0  0  0  0  0  0  0  0  0
    0.5980   -2.8477    3.5745 H   0  0  0  0  0  0  0  0  0  0  0  0
   -3.3881   -2.1358    3.1618 N   0  0  0  0  0  0  0  0  0  0  0  0
   -4.6314   -1.4010    3.1485 C   0  0  0  0  0  0  0  0  0  0  0  0
   -3.2211   -2.7708    3.9368 H   0  0  0  0  0  0  0  0  0  0  0  0
   -4.4991   -0.4459    3.6780 H   0  0  0  0  0  0  0  0  0  0  0  0
   -4.9303   -1.2050    2.1082 H   0  0  0  0  0  0  0  0  0  0  0  0
   -5.4121   -1.9924    3.6491 H   0  0  0  0  0  0  0  0  0  0  0  0
 18 19  1  0  0  0  0
 19 31  1  0  0  0  0
 19 20  2  0  0  0  0
  8  9  1  0  0  0  0
  9 17  1  0  0  0  0
  9 10  2  0  0  0  0
  1  3  1  0  0  0  0
  1  7  1  0  0  0  0
  1  2  2  0  0  0  0
 32 33  1  0  0  0  0
 33 41  1  0  0  0  0
 33 34  2  0  0  0  0
 21 22  1  0  0  0  0
 22 23  1  0  0  0  0
 18 21  1  0  0  0  0
 17 23  1  0  0  0  0
 17 18  1  0  0  0  0
  8 11  1  0  0  0  0
 32 35  1  0  0  0  0
 41 42  1  0  0  0  0
  7  8  1  0  0  0  0
 31 32  1  0  0  0  0
 22 27  1  0  0  0  0
 22 28  1  0  0  0  0
 21 25  1  0  0  0  0
 21 26  1  0  0  0  0
 23 29  1  0  0  0  0
 23 30  1  0  0  0  0
 18 24  1  0  0  0  0
  3  4  1  0  0  0  0
  3  5  1  0  0  0  0
  3  6  1  0  0  0  0
 11 14  1  0  0  0  0
 11 15  1  0  0  0  0
 11 16  1  0  0  0  0
 35 38  1  0  0  0  0
 35 39  1  0  0  0  0
 35 40  1  0  0  0  0
 42 44  1  0  0  0  0
 42 45  1  0  0  0  0
 42 46  1  0  0  0  0
  8 13  1  0  0  0  0
 32 37  1  0  0  0  0
 31 36  1  0  0  0  0
 41 43  1  0  0  0  0
  7 12  1  0  0  0  0
M  END
$$$$

  -OEChem-05262214473D

 46 46  0     1  0  0  0  0  0999 V2000
   -0.6012   -3.2995    3.8205 C   0  0  0  0  0  0  0  0  0  0  0  0
   -0.6574   -4.4683    3.4568 O   0  0  0  0  0  0  0  0  0  0  0  0
   -0.4935   -2.9859    5.2760 C   0  0  0  0  0  0  0  0  0  0  0  0
   -1.4789   -2.8689    5.7550 H   0  0  0  0  0  0  0  0  0  0  0  0
    0.0123   -3.7847    5.8419 H   0  0  0  0  0  0  0  0  0  0  0  0
    0.0585   -2.0642    5.5199 H   0  0  0  0  0  0  0  0  0  0  0  0
   -0.6261   -2.1849    2.9917 N   0  0  0  0  0  0  0  0  0  0  0  0
   -0.7237   -2.2601    1.5650 C   0  0  2  0  0  0  0  0  0  0  0  0
    0.1695   -1.1513    1.0687 C   0  0  0  0  0  0  0  0  0  0  0  0
    0.3193   -0.1267    1.7365 O   0  0  0  0  0  0  0  0  0  0  0  0
   -2.1397   -2.0663    1.0750 C   0  0  0  0  0  0  0  0  0  0  0  0
   -0.5717   -1.2606    3.4238 H   0  0  0  0  0  0  0  0  0  0  0  0
   -0.3076   -3.2111    1.2363 H   0  0  0  0  0  0  0  0  0  0  0  0
   -2.5584   -1.1089    1.4061 H   0  0  0  0  0  0  0  0  0  0  0  0
   -2.1682   -2.0790   -0.0197 H   0  0  0  0  0  0  0  0  0  0  0  0
   -2.7965   -2.8601    1.4459 H   0  0  0  0  0  0  0  0  0  0  0  0
    0.7724   -1.3745   -0.1593 N   0  0  0  0  0  0  0  0  0  0  0  0
    0.5614   -2.5964   -0.9244 C   0  0  2  0  0  0  0  0  0  0  0  0
   -0.3735   -3.4587   -0.1308 C   0  0  0  0  0  0  0  0  0  0  0  0
   -0.7080   -4.5522   -0.5715 O   0  0  0  0  0  0  0  0  0  0  0  0
    1.9458   -3.2230   -1.0432 C   0  0  0  0  0  0  0  0  0  0  0  0
    2.2521   -1.7403   -0.8458 C   0  0  0  0  0  0  0  0  0  0  0  0
    1.5408   -0.3981   -0.9273 C   0  0  0  0  0  0  0  0  0  0  0  0
    0.1027   -2.3787   -1.8936 H   0  0  0  0  0  0  0  0  0  0  0  0
    2.0691   -3.6740   -2.0351 H   0  0  0  0  0  0  0  0  0  0  0  0
    2.1474   -3.9863   -0.2855 H   0  0  0  0  0  0  0  0  0  0  0  0
    2.5528   -1.5477    0.1905 H   0  0  0  0  0  0  0  0  0  0  0  0
    3.0524   -1.3926   -1.5053 H   0  0  0  0  0  0  0  0  0  0  0  0
    2.1327    0.4188   -0.5056 H   0  0  0  0  0  0  0  0  0  0  0  0
    1.2759   -0.1509   -1.9611 H   0  0  0  0  0  0  0  0  0  0  0  0
   -0.8028   -2.9846    1.0332 N   0  0  0  0  0  0  0  0  0  0  0  0
   -1.6846   -2.6648    2.1329 C   0  0  2  0  0  0  0  0  0  0  0  0
   -2.9496   -2.0433    1.5558 C   0  0  0  0  0  0  0  0  0  0  0  0
   -2.9897   -1.5080    0.4500 O   0  0  0  0  0  0  0  0  0  0  0  0
   -1.0171   -1.7208    3.1209 C   0  0  0  0  0  0  0  0  0  0  0  0
   -0.5067   -3.9489    0.9156 H   0  0  0  0  0  0  0  0  0  0  0  0
   -1.9335   -3.6117    2.6243 H   0  0  0  0  0  0  0  0  0  0  0  0
   -0.7603   -0.7666    2.6465 H   0  0  0  0  0  0  0  0  0  0  0  0
   -1.6759   -1.5022    3.9677 H   0  0  0  0  0  0  0  0  0  0  0  0
   -0.0918   -2.1570    3.5124 H   0  0  0  0  0  0  0  0  0  0  0  0
   -4.0176   -2.1186    2.4389 N   0  0  0  0  0  0  0  0  0  0  0  0
   -5.3246   -1.5880    2.1286 C   0  0  0  0  0  0  0  0  0  0  0  0
   -3.8990   -2.5971    3.3269 H   0  0  0  0  0  0  0  0  0  0  0  0
   -5.3990   -0.5550    2.4992 H   0  0  0  0  0  0  0  0  0  0  0  0
   -5.4752   -1.5982    1.0390 H   0  0  0  0  0  0  0  0  0  0  0  0
   -6.0955   -2.2069    2.6111 H   0  0  0  0  0  0  0  0  0  0  0  0
 18 19  1  0  0  0  0
 19 31  1  0  0  0  0
 19 20  2  0  0  0  0
  8  9  1  0  0  0  0
  9 17  1  0  0  0  0
  9 10  2  0  0  0  0
  1  3  1  0  0  0  0
  1  7  1  0  0  0  0
  1  2  2  0  0  0  0
 32 33  1  0  0  0  0
 33 41  1  0  0  0  0
 33 34  2  0  0  0  0
 21 22  1  0  0  0  0
 22 23  1  0  0  0  0
 18 21  1  0  0  0  0
 17 23  1  0  0  0  0
 17 18  1  0  0  0  0
  8 11  1  0  0  0  0
 32 35  1  0  0  0  0
 41 42  1  0  0  0  0
  7  8  1  0  0  0  0
 31 32  1  0  0  0  0
 22 27  1  0  0  0  0
 22 28  1  0  0  0  0
 21 25  1  0  0  0  0
 21 26  1  0  0  0  0
 23 29  1  0  0  0  0
 23 30  1  0  0  0  0
 18 24  1  0  0  0  0
  3  4  1  0  0  0  0
  3  5  1  0  0  0  0
  3  6  1  0  0  0  0
 11 14  1  0  0  0  0
 11 15  1  0  0  0  0
 11 16  1  0  0  0  0
 35 38  1  0  0  0  0
 35 39  1  0  0  0  0
 35 40  1  0  0  0  0
 42 44  1  0  0  0  0
 42 45  1  0  0  0  0
 42 46  1  0  0  0  0
  8 13  1  0  0  0  0
 32 37  1  0  0  0  0
 31 36  1  0  0  0  0
 41 43  1  0  0  0  0
  7 12  1  0  0  0  0
M  END
$$$$

  -OEChem-05262214473D

 46 46  0     1  0  0  0  0  0999 V2000
   -0.6012   -3.2995    3.8205 C   0  0  0  0  0  0  0  0  0  0  0  0
   -0.6574   -4.4683    3.4568 O   0  0  0  0  0  0  0  0  0  0  0  0
   -0.4935   -2.9859    5.2760 C   0  0  0  0  0  0  0  0  0  0  0  0
   -1.4789   -2.8689    5.7550 H   0  0  0  0  0  0  0  0  0  0  0  0
    0.0123   -3.7847    5.8419 H   0  0  0  0  0  0  0  0  0  0  0  0
    0.0585   -2.0642    5.5199 H   0  0  0  0  0  0  0  0  0  0  0  0
   -0.6261   -2.1849    2.9917 N   0  0  0  0  0  0  0  0  0  0  0  0
   -0.7237   -2.2601    1.5650 C   0  0  2  0  0  0  0  0  0  0  0  0
    0.1695   -1.1513    1.0687 C   0  0  0  0  0  0  0  0  0  0  0  0
    0.3193   -0.1267    1.7365 O   0  0  0  0  0  0  0  0  0  0  0  0
   -2.1397   -2.0663    1.0750 C   0  0  0  0  0  0  0  0  0  0  0  0
   -0.5717   -1.2606    3.4238 H   0  0  0  0  0  0  0  0  0  0  0  0
   -0.3076   -3.2111    1.2363 H   0  0  0  0  0  0  0  0  0  0  0  0
   -2.5584   -1.1089    1.4061 H   0  0  0  0  0  0  0  0  0  0  0  0
   -2.1682   -2.0790   -0.0197 H   0  0  0  0  0  0  0  0  0  0  0  0
   -2.7965   -2.8601    1.4459 H   0  0  0  0  0  0  0  0  0  0  0  0
    0.7724   -1.3745   -0.1593 N   0  0  0  0  0  0  0  0  0  0  0  0
    0.5614   -2.5964   -0.9244 C   0  0  2  0  0  0  0  0  0  0  0  0
   -0.3735   -3.4587   -0.1308 C   0  0  0  0  0  0  0  0  0  0  0  0
   -0.4940   -4.6437   -0.4189 O   0  0  0  0  0  0  0  0  0  0  0  0
    1.9458   -3.2230   -1.0432 C   0  0  0  0  0  0  0  0  0  0  0  0
    2.2521   -1.7403   -0.8458 C   0  0  0  0  0  0  0  0  0  0  0  0
    1.5408   -0.3981   -0.9273 C   0  0  0  0  0  0  0  0  0  0  0  0
    0.1027   -2.3787   -1.8936 H   0  0  0  0  0  0  0  0  0  0  0  0
    2.0691   -3.6740   -2.0351 H   0  0  0  0  0  0  0  0  0  0  0  0
    2.1474   -3.9863   -0.2855 H   0  0  0  0  0  0  0  0  0  0  0  0
    2.5528   -1.5477    0.1905 H   0  0  0  0  0  0  0  0  0  0  0  0
    3.0524   -1.3926   -1.5053 H   0  0  0  0  0  0  0  0  0  0  0  0
    2.1327    0.4188   -0.5056 H   0  0  0  0  0  0  0  0  0  0  0  0
    1.2759   -0.1509   -1.9611 H   0  0  0  0  0  0  0  0  0  0  0  0
   -1.0394   -2.8836    0.8642 N   0  0  0  0  0  0  0  0  0  0  0  0
   -2.1188   -2.5367    1.7605 C   0  0  2  0  0  0  0  0  0  0  0  0
   -3.3426   -2.2053    0.9168 C   0  0  0  0  0  0  0  0  0  0  0  0
   -3.2717   -1.8552   -0.2594 O   0  0  0  0  0  0  0  0  0  0  0  0
   -1.7412   -1.3654    2.6540 C   0  0  0  0  0  0  0  0  0  0  0  0
   -0.6103   -3.7996    0.9558 H   0  0  0  0  0  0  0  0  0  0  0  0
   -2.3231   -3.4249    2.3683 H   0  0  0  0  0  0  0  0  0  0  0  0
   -1.5329   -0.4662    2.0627 H   0  0  0  0  0  0  0  0  0  0  0  0
   -2.5492   -1.1222    3.3519 H   0  0  0  0  0  0  0  0  0  0  0  0
   -0.8434   -1.5944    3.2382 H   0  0  0  0  0  0  0  0  0  0  0  0
   -4.5205   -2.3049    1.6441 N   0  0  0  0  0  0  0  0  0  0  0  0
   -5.8168   -2.0283    1.0704 C   0  0  0  0  0  0  0  0  0  0  0  0
   -4.4868   -2.6206    2.6089 H   0  0  0  0  0  0  0  0  0  0  0  0
   -6.0778   -0.9739    1.2443 H   0  0  0  0  0  0  0  0  0  0  0  0
   -5.7884   -2.2253   -0.0114 H   0  0  0  0  0  0  0  0  0  0  0  0
   -6.5716   -2.6752    1.5413 H   0  0  0  0  0  0  0  0  0  0  0  0
 18 19  1  0  0  0  0
 19 31  1  0  0  0  0
 19 20  2  0  0  0  0
  8  9  1  0  0  0  0
  9 17  1  0  0  0  0
  9 10  2  0  0  0  0
  1  3  1  0  0  0  0
  1  7  1  0  0  0  0
  1  2  2  0  0  0  0
 32 33  1  0  0  0  0
 33 41  1  0  0  0  0
 33 34  2  0  0  0  0
 21 22  1  0  0  0  0
 22 23  1  0  0  0  0
 18 21  1  0  0  0  0
 17 23  1  0  0  0  0
 17 18  1  0  0  0  0
  8 11  1  0  0  0  0
 32 35  1  0  0  0  0
 41 42  1  0  0  0  0
  7  8  1  0  0  0  0
 31 32  1  0  0  0  0
 22 27  1  0  0  0  0
 22 28  1  0  0  0  0
 21 25  1  0  0  0  0
 21 26  1  0  0  0  0
 23 29  1  0  0  0  0
 23 30  1  0  0  0  0
 18 24  1  0  0  0  0
  3  4  1  0  0  0  0
  3  5  1  0  0  0  0
  3  6  1  0  0  0  0
 11 14  1  0  0  0  0
 11 15  1  0  0  0  0
 11 16  1  0  0  0  0
 35 38  1  0  0  0  0
 35 39  1  0  0  0  0
 35 40  1  0  0  0  0
 42 44  1  0  0  0  0
 42 45  1  0  0  0  0
 42 46  1  0  0  0  0
  8 13  1  0  0  0  0
 32 37  1  0  0  0  0
 31 36  1  0  0  0  0
 41 43  1  0  0  0  0
  7 12  1  0  0  0  0
M  END
$$$$

  -OEChem-05262214473D

 46 46  0     1  0  0  0  0  0999 V2000
   -0.6012   -3.2995    3.8205 C   0  0  0  0  0  0  0  0  0  0  0  0
   -0.6574   -4.4683    3.4568 O   0  0  0  0  0  0  0  0  0  0  0  0
   -0.4935   -2.9859    5.2760 C   0  0  0  0  0  0  0  0  0  0  0  0
   -1.4789   -2.8689    5.7550 H   0  0  0  0  0  0  0  0  0  0  0  0
    0.0123   -3.7847    5.8419 H   0  0  0  0  0  0  0  0  0  0  0  0
    0.0585   -2.0642    5.5199 H   0  0  0  0  0  0  0  0  0  0  0  0
   -0.6261   -2.1849    2.9917 N   0  0  0  0  0  0  0  0  0  0  0  0
   -0.7237   -2.2601    1.5650 C   0  0  2  0  0  0  0  0  0  0  0  0
    0.1695   -1.1513    1.0687 C   0  0  0  0  0  0  0  0  0  0  0  0
    0.3193   -0.1267    1.7365 O   0  0  0  0  0  0  0  0  0  0  0  0
   -2.1397   -2.0663    1.0750 C   0  0  0  0  0  0  0  0  0  0  0  0
   -0.5717   -1.2606    3.4238 H   0  0  0  0  0  0  0  0  0  0  0  0
   -0.3076   -3.2111    1.2363 H   0  0  0  0  0  0  0  0  0  0  0  0
   -2.5584   -1.1089    1.4061 H   0  0  0  0  0  0  0  0  0  0  0  0
   -2.1682   -2.0790   -0.0197 H   0  0  0  0  0  0  0  0  0  0  0  0
   -2.7965   -2.8601    1.4459 H   0  0  0  0  0  0  0  0  0  0  0  0
    0.7724   -1.3745   -0.1593 N   0  0  0  0  0  0  0  0  0  0  0  0
    0.5614   -2.5964   -0.9244 C   0  0  2  0  0  0  0  0  0  0  0  0
   -0.3735   -3.4587   -0.1308 C   0  0  0  0  0  0  0  0  0  0  0  0
   -0.2975   -4.6782   -0.2249 O   0  0  0  0  0  0  0  0  0  0  0  0
    1.9458   -3.2230   -1.0432 C   0  0  0  0  0  0  0  0  0  0  0  0
    2.2521   -1.7403   -0.8458 C   0  0  0  0  0  0  0  0  0  0  0  0
    1.5408   -0.3981   -0.9273 C   0  0  0  0  0  0  0  0  0  0  0  0
    0.1027   -2.3787   -1.8936 H   0  0  0  0  0  0  0  0  0  0  0  0
    2.0691   -3.6740   -2.0351 H   0  0  0  0  0  0  0  0  0  0  0  0
    2.1474   -3.9863   -0.2855 H   0  0  0  0  0  0  0  0  0  0  0  0
    2.5528   -1.5477    0.1905 H   0  0  0  0  0  0  0  0  0  0  0  0
    3.0524   -1.3926   -1.5053 H   0  0  0  0  0  0  0  0  0  0  0  0
    2.1327    0.4188   -0.5056 H   0  0  0  0  0  0  0  0  0  0  0  0
    1.2759   -0.1509   -1.9611 H   0  0  0  0  0  0  0  0  0  0  0  0
   -1.2566   -2.8459    0.6493 N   0  0  0  0  0  0  0  0  0  0  0  0
   -2.5004   -2.5325    1.3155 C   0  0  2  0  0  0  0  0  0  0  0  0
   -3.6050   -2.5188    0.2672 C   0  0  0  0  0  0  0  0  0  0  0  0
   -3.3909   -2.3436   -0.9306 O   0  0  0  0  0  0  0  0  0  0  0  0
   -2.4199   -1.1966    2.0379 C   0  0  0  0  0  0  0  0  0  0  0  0
   -0.7369   -3.6630    0.9551 H   0  0  0  0  0  0  0  0  0  0  0  0
   -2.6869   -3.3391    2.0329 H   0  0  0  0  0  0  0  0  0  0  0  0
   -2.2334   -0.3762    1.3353 H   0  0  0  0  0  0  0  0  0  0  0  0
   -3.3531   -0.9741    2.5657 H   0  0  0  0  0  0  0  0  0  0  0  0
   -1.6057   -1.1982    2.7706 H   0  0  0  0  0  0  0  0  0  0  0  0
   -4.8623   -2.6820    0.8316 N   0  0  0  0  0  0  0  0  0  0  0  0
   -6.0743   -2.6918    0.0461 C   0  0  0  0  0  0  0  0  0  0  0  0
   -4.9444   -2.8398    1.8317 H   0  0  0  0  0  0  0  0  0  0  0  0
   -6.4893   -1.6742   -0.0014 H   0  0  0  0  0  0  0  0  0  0  0  0
   -5.8487   -3.0435   -0.9714 H   0  0  0  0  0  0  0  0  0  0  0  0
   -6.8080   -3.3655    0.5127 H   0  0  0  0  0  0  0  0  0  0  0  0
 18 19  1  0  0  0  0
 19 31  1  0  0  0  0
 19 20  2  0  0  0  0
  8  9  1  0  0  0  0
  9 17  1  0  0  0  0
  9 10  2  0  0  0  0
  1  3  1  0  0  0  0
  1  7  1  0  0  0  0
  1  2  2  0  0  0  0
 32 33  1  0  0  0  0
 33 41  1  0  0  0  0
 33 34  2  0  0  0  0
 21 22  1  0  0  0  0
 22 23  1  0  0  0  0
 18 21  1  0  0  0  0
 17 23  1  0  0  0  0
 17 18  1  0  0  0  0
  8 11  1  0  0  0  0
 32 35  1  0  0  0  0
 41 42  1  0  0  0  0
  7  8  1  0  0  0  0
 31 32  1  0  0  0  0
 22 27  1  0  0  0  0
 22 28  1  0  0  0  0
 21 25  1  0  0  0  0
 21 26  1  0  0  0  0
 23 29  1  0  0  0  0
 23 30  1  0  0  0  0
 18 24  1  0  0  0  0
  3  4  1  0  0  0  0
  3  5  1  0  0  0  0
  3  6  1  0  0  0  0
 11 14  1  0  0  0  0
 11 15  1  0  0  0  0
 11 16  1  0  0  0  0
 35 38  1  0  0  0  0
 35 39  1  0  0  0  0
 35 40  1  0  0  0  0
 42 44  1  0  0  0  0
 42 45  1  0  0  0  0
 42 46  1  0  0  0  0
  8 13  1  0  0  0  0
 32 37  1  0  0  0  0
 31 36  1  0  0  0  0
 41 43  1  0  0  0  0
  7 12  1  0  0  0  0
M  END
$$$$

  -OEChem-05262214473D

 46 46  0     1  0  0  0  0  0999 V2000
   -0.6012   -3.2995    3.8205 C   0  0  0  0  0  0  0  0  0  0  0  0
   -0.6574   -4.4683    3.4568 O   0  0  0  0  0  0  0  0  0  0  0  0
   -0.4935   -2.9859    5.2760 C   0  0  0  0  0  0  0  0  0  0  0  0
   -1.4789   -2.8689    5.7550 H   0  0  0  0  0  0  0  0  0  0  0  0
    0.0123   -3.7847    5.8419 H   0  0  0  0  0  0  0  0  0  0  0  0
    0.0585   -2.0642    5.5199 H   0  0  0  0  0  0  0  0  0  0  0  0
   -0.6261   -2.1849    2.9917 N   0  0  0  0  0  0  0  0  0  0  0  0
   -0.7237   -2.2601    1.5650 C   0  0  2  0  0  0  0  0  0  0  0  0
    0.1695   -1.1513    1.0687 C   0  0  0  0  0  0  0  0  0  0  0  0
    0.3193   -0.1267    1.7365 O   0  0  0  0  0  0  0  0  0  0  0  0
   -2.1397   -2.0663    1.0750 C   0  0  0  0  0  0  0  0  0  0  0  0
   -0.5717   -1.2606    3.4238 H   0  0  0  0  0  0  0  0  0  0  0  0
   -0.3076   -3.2111    1.2363 H   0  0  0  0  0  0  0  0  0  0  0  0
   -2.5584   -1.1089    1.4061 H   0  0  0  0  0  0  0  0  0  0  0  0
   -2.1682   -2.0790   -0.0197 H   0  0  0  0  0  0  0  0  0  0  0  0
   -2.7965   -2.8601    1.4459 H   0  0  0  0  0  0  0  0  0  0  0  0
    0.7724   -1.3745   -0.1593 N   0  0  0  0  0  0  0  0  0  0  0  0
    0.5614   -2.5964   -0.9244 C   0  0  2  0  0  0  0  0  0  0  0  0
   -0.3735   -3.4587   -0.1308 C   0  0  0  0  0  0  0  0  0  0  0  0
   -0.1318   -4.6532   -0.0026 O   0  0  0  0  0  0  0  0  0  0  0  0
    1.9458   -3.2230   -1.0432 C   0  0  0  0  0  0  0  0  0  0  0  0
    2.2521   -1.7403   -0.8458 C   0  0  0  0  0  0  0  0  0  0  0  0
    1.5408   -0.3981   -0.9273 C   0  0  0  0  0  0  0  0  0  0  0  0
    0.1027   -2.3787   -1.8936 H   0  0  0  0  0  0  0  0  0  0  0  0
    2.0691   -3.6740   -2.0351 H   0  0  0  0  0  0  0  0  0  0  0  0
    2.1474   -3.9863   -0.2855 H   0  0  0  0  0  0  0  0  0  0  0  0
    2.5528   -1.5477    0.1905 H   0  0  0  0  0  0  0  0  0  0  0  0
    3.0524   -1.3926   -1.5053 H   0  0  0  0  0  0  0  0  0  0  0  0
    2.1327    0.4188   -0.5056 H   0  0  0  0  0  0  0  0  0  0  0  0
    1.2759   -0.1509   -1.9611 H   0  0  0  0  0  0  0  0  0  0  0  0
   -1.4396   -2.8738    0.4034 N   0  0  0  0  0  0  0  0  0  0  0  0
   -2.8032   -2.6526    0.8283 C   0  0  2  0  0  0  0  0  0  0  0  0
   -3.7187   -2.9623   -0.3488 C   0  0  0  0  0  0  0  0  0  0  0  0
   -3.3391   -2.9402   -1.5178 O   0  0  0  0  0  0  0  0  0  0  0  0
   -3.0068   -1.2261    1.3145 C   0  0  0  0  0  0  0  0  0  0  0  0
   -0.8777   -3.5486    0.9136 H   0  0  0  0  0  0  0  0  0  0  0  0
   -3.0001   -3.3603    1.6409 H   0  0  0  0  0  0  0  0  0  0  0  0
   -2.8141   -0.5026    0.5139 H   0  0  0  0  0  0  0  0  0  0  0  0
   -4.0329   -1.0682    1.6626 H   0  0  0  0  0  0  0  0  0  0  0  0
   -2.3267   -0.9954    2.1416 H   0  0  0  0  0  0  0  0  0  0  0  0
   -5.0199   -3.2242    0.0568 N   0  0  0  0  0  0  0  0  0  0  0  0
   -6.0796   -3.5333   -0.8745 C   0  0  0  0  0  0  0  0  0  0  0  0
   -5.2407   -3.2396    1.0482 H   0  0  0  0  0  0  0  0  0  0  0  0
   -6.6054   -2.6080   -1.1528 H   0  0  0  0  0  0  0  0  0  0  0  0
   -5.6519   -3.9970   -1.7757 H   0  0  0  0  0  0  0  0  0  0  0  0
   -6.7887   -4.2307   -0.4046 H   0  0  0  0  0  0  0  0  0  0  0  0
 18 19  1  0  0  0  0
 19 31  1  0  0  0  0
 19 20  2  0  0  0  0
  8  9  1  0  0  0  0
  9 17  1  0  0  0  0
  9 10  2  0  0  0  0
  1  3  1  0  0  0  0
  1  7  1  0  0  0  0
  1  2  2  0  0  0  0
 32 33  1  0  0  0  0
 33 41  1  0  0  0  0
 33 34  2  0  0  0  0
 21 22  1  0  0  0  0
 22 23  1  0  0  0  0
 18 21  1  0  0  0  0
 17 23  1  0  0  0  0
 17 18  1  0  0  0  0
  8 11  1  0  0  0  0
 32 35  1  0  0  0  0
 41 42  1  0  0  0  0
  7  8  1  0  0  0  0
 31 32  1  0  0  0  0
 22 27  1  0  0  0  0
 22 28  1  0  0  0  0
 21 25  1  0  0  0  0
 21 26  1  0  0  0  0
 23 29  1  0  0  0  0
 23 30  1  0  0  0  0
 18 24  1  0  0  0  0
  3  4  1  0  0  0  0
  3  5  1  0  0  0  0
  3  6  1  0  0  0  0
 11 14  1  0  0  0  0
 11 15  1  0  0  0  0
 11 16  1  0  0  0  0
 35 38  1  0  0  0  0
 35 39  1  0  0  0  0
 35 40  1  0  0  0  0
 42 44  1  0  0  0  0
 42 45  1  0  0  0  0
 42 46  1  0  0  0  0
  8 13  1  0  0  0  0
 32 37  1  0  0  0  0
 31 36  1  0  0  0  0
 41 43  1  0  0  0  0
  7 12  1  0  0  0  0
M  END
$$$$

  -OEChem-05262214473D

 46 46  0     1  0  0  0  0  0999 V2000
   -0.6012   -3.2995    3.8205 C   0  0  0  0  0  0  0  0  0  0  0  0
   -0.6574   -4.4683    3.4568 O   0  0  0  0  0  0  0  0  0  0  0  0
   -0.4935   -2.9859    5.2760 C   0  0  0  0  0  0  0  0  0  0  0  0
   -1.4789   -2.8689    5.7550 H   0  0  0  0  0  0  0  0  0  0  0  0
    0.0123   -3.7847    5.8419 H   0  0  0  0  0  0  0  0  0  0  0  0
    0.0585   -2.0642    5.5199 H   0  0  0  0  0  0  0  0  0  0  0  0
   -0.6261   -2.1849    2.9917 N   0  0  0  0  0  0  0  0  0  0  0  0
   -0.7237   -2.2601    1.5650 C   0  0  2  0  0  0  0  0  0  0  0  0
    0.1695   -1.1513    1.0687 C   0  0  0  0  0  0  0  0  0  0  0  0
    0.3193   -0.1267    1.7365 O   0  0  0  0  0  0  0  0  0  0  0  0
   -2.1397   -2.0663    1.0750 C   0  0  0  0  0  0  0  0  0  0  0  0
   -0.5717   -1.2606    3.4238 H   0  0  0  0  0  0  0  0  0  0  0  0
   -0.3076   -3.2111    1.2363 H   0  0  0  0  0  0  0  0  0  0  0  0
   -2.5584   -1.1089    1.4061 H   0  0  0  0  0  0  0  0  0  0  0  0
   -2.1682   -2.0790   -0.0197 H   0  0  0  0  0  0  0  0  0  0  0  0
   -2.7965   -2.8601    1.4459 H   0  0  0  0  0  0  0  0  0  0  0  0
    0.7724   -1.3745   -0.1593 N   0  0  0  0  0  0  0  0  0  0  0  0
    0.5614   -2.5964   -0.9244 C   0  0  2  0  0  0  0  0  0  0  0  0
   -0.3735   -3.4587   -0.1308 C   0  0  0  0  0  0  0  0  0  0  0  0
   -0.0083   -4.5706    0.2327 O   0  0  0  0  0  0  0  0  0  0  0  0
    1.9458   -3.2230   -1.0432 C   0  0  0  0  0  0  0  0  0  0  0  0
    2.2521   -1.7403   -0.8458 C   0  0  0  0  0  0  0  0  0  0  0  0
    1.5408   -0.3981   -0.9273 C   0  0  0  0  0  0  0  0  0  0  0  0
    0.1027   -2.3787   -1.8936 H   0  0  0  0  0  0  0  0  0  0  0  0
    2.0691   -3.6740   -2.0351 H   0  0  0  0  0  0  0  0  0  0  0  0
    2.1474   -3.9863   -0.2855 H   0  0  0  0  0  0  0  0  0  0  0  0
    2.5528   -1.5477    0.1905 H   0  0  0  0  0  0  0  0  0  0  0  0
    3.0524   -1.3926   -1.5053 H   0  0  0  0  0  0  0  0  0  0  0  0
    2.1327    0.4188   -0.5056 H   0  0  0  0  0  0  0  0  0  0  0  0
    1.2759   -0.1509   -1.9611 H   0  0  0  0  0  0  0  0  0  0  0  0
   -1.5759   -2.9655    0.1431 N   0  0  0  0  0  0  0  0  0  0  0  0
   -3.0068   -2.8887    0.3319 C   0  0  2  0  0  0  0  0  0  0  0  0
   -3.6761   -3.5058   -0.8891 C   0  0  0  0  0  0  0  0  0  0  0  0
   -3.1200   -3.6040   -1.9810 O   0  0  0  0  0  0  0  0  0  0  0  0
   -3.4620   -1.4517    0.5331 C   0  0  0  0  0  0  0  0  0  0  0  0
   -1.0232   -3.4640    0.8340 H   0  0  0  0  0  0  0  0  0  0  0  0
   -3.2414   -3.4869    1.2190 H   0  0  0  0  0  0  0  0  0  0  0  0
   -3.2354   -0.8369   -0.3456 H   0  0  0  0  0  0  0  0  0  0  0  0
   -4.5422   -1.3979    0.7044 H   0  0  0  0  0  0  0  0  0  0  0  0
   -2.9573   -0.9999    1.3939 H   0  0  0  0  0  0  0  0  0  0  0  0
   -4.9824   -3.8946   -0.6275 N   0  0  0  0  0  0  0  0  0  0  0  0
   -5.8324   -4.4954   -1.6288 C   0  0  0  0  0  0  0  0  0  0  0  0
   -5.3555   -3.7929    0.3118 H   0  0  0  0  0  0  0  0  0  0  0  0
   -6.4181   -3.7117   -2.1315 H   0  0  0  0  0  0  0  0  0  0  0  0
   -5.2114   -5.0209   -2.3693 H   0  0  0  0  0  0  0  0  0  0  0  0
   -6.5150   -5.2118   -1.1482 H   0  0  0  0  0  0  0  0  0  0  0  0
 18 19  1  0  0  0  0
 19 31  1  0  0  0  0
 19 20  2  0  0  0  0
  8  9  1  0  0  0  0
  9 17  1  0  0  0  0
  9 10  2  0  0  0  0
  1  3  1  0  0  0  0
  1  7  1  0  0  0  0
  1  2  2  0  0  0  0
 32 33  1  0  0  0  0
 33 41  1  0  0  0  0
 33 34  2  0  0  0  0
 21 22  1  0  0  0  0
 22 23  1  0  0  0  0
 18 21  1  0  0  0  0
 17 23  1  0  0  0  0
 17 18  1  0  0  0  0
  8 11  1  0  0  0  0
 32 35  1  0  0  0  0
 41 42  1  0  0  0  0
  7  8  1  0  0  0  0
 31 32  1  0  0  0  0
 22 27  1  0  0  0  0
 22 28  1  0  0  0  0
 21 25  1  0  0  0  0
 21 26  1  0  0  0  0
 23 29  1  0  0  0  0
 23 30  1  0  0  0  0
 18 24  1  0  0  0  0
  3  4  1  0  0  0  0
  3  5  1  0  0  0  0
  3  6  1  0  0  0  0
 11 14  1  0  0  0  0
 11 15  1  0  0  0  0
 11 16  1  0  0  0  0
 35 38  1  0  0  0  0
 35 39  1  0  0  0  0
 35 40  1  0  0  0  0
 42 44  1  0  0  0  0
 42 45  1  0  0  0  0
 42 46  1  0  0  0  0
  8 13  1  0  0  0  0
 32 37  1  0  0  0  0
 31 36  1  0  0  0  0
 41 43  1  0  0  0  0
  7 12  1  0  0  0  0
M  END
$$$$

  -OEChem-05262214473D

 46 46  0     1  0  0  0  0  0999 V2000
   -0.6012   -3.2995    3.8205 C   0  0  0  0  0  0  0  0  0  0  0  0
   -0.6574   -4.4683    3.4568 O   0  0  0  0  0  0  0  0  0  0  0  0
   -0.4935   -2.9859    5.2760 C   0  0  0  0  0  0  0  0  0  0  0  0
   -1.4789   -2.8689    5.7550 H   0  0  0  0  0  0  0  0  0  0  0  0
    0.0123   -3.7847    5.8419 H   0  0  0  0  0  0  0  0  0  0  0  0
    0.0585   -2.0642    5.5199 H   0  0  0  0  0  0  0  0  0  0  0  0
   -0.6261   -2.1849    2.9917 N   0  0  0  0  0  0  0  0  0  0  0  0
   -0.7237   -2.2601    1.5650 C   0  0  2  0  0  0  0  0  0  0  0  0
    0.1695   -1.1513    1.0687 C   0  0  0  0  0  0  0  0  0  0  0  0
    0.3193   -0.1267    1.7365 O   0  0  0  0  0  0  0  0  0  0  0  0
   -2.1397   -2.0663    1.0750 C   0  0  0  0  0  0  0  0  0  0  0  0
   -0.5717   -1.2606    3.4238 H   0  0  0  0  0  0  0  0  0  0  0  0
   -0.3076   -3.2111    1.2363 H   0  0  0  0  0  0  0  0  0  0  0  0
   -2.5584   -1.1089    1.4061 H   0  0  0  0  0  0  0  0  0  0  0  0
   -2.1682   -2.0790   -0.0197 H   0  0  0  0  0  0  0  0  0  0  0  0
   -2.7965   -2.8601    1.4459 H   0  0  0  0  0  0  0  0  0  0  0  0
    0.7724   -1.3745   -0.1593 N   0  0  0  0  0  0  0  0  0  0  0  0
    0.5614   -2.5964   -0.9244 C   0  0  2  0  0  0  0  0  0  0  0  0
   -0.3735   -3.4587   -0.1308 C   0  0  0  0  0  0  0  0  0  0  0  0
    0.0646   -4.4358    0.4650 O   0  0  0  0  0  0  0  0  0  0  0  0
    1.9458   -3.2230   -1.0432 C   0  0  0  0  0  0  0  0  0  0  0  0
    2.2521   -1.7403   -0.8458 C   0  0  0  0  0  0  0  0  0  0  0  0
    1.5408   -0.3981   -0.9273 C   0  0  0  0  0  0  0  0  0  0  0  0
    0.1027   -2.3787   -1.8936 H   0  0  0  0  0  0  0  0  0  0  0  0
    2.0691   -3.6740   -2.0351 H   0  0  0  0  0  0  0  0  0  0  0  0
    2.1474   -3.9863   -0.2855 H   0  0  0  0  0  0  0  0  0  0  0  0
    2.5528   -1.5477    0.1905 H   0  0  0  0  0  0  0  0  0  0  0  0
    3.0524   -1.3926   -1.5053 H   0  0  0  0  0  0  0  0  0  0  0  0
    2.1327    0.4188   -0.5056 H   0  0  0  0  0  0  0  0  0  0  0  0
    1.2759   -0.1509   -1.9611 H   0  0  0  0  0  0  0  0  0  0  0  0
   -1.6563   -3.1149   -0.1138 N   0  0  0  0  0  0  0  0  0  0  0  0
   -3.0972   -3.2248   -0.1398 C   0  0  2  0  0  0  0  0  0  0  0  0
   -3.4800   -4.1121   -1.3170 C   0  0  0  0  0  0  0  0  0  0  0  0
   -2.7484   -4.2900   -2.2886 O   0  0  0  0  0  0  0  0  0  0  0  0
   -3.7544   -1.8581   -0.2530 C   0  0  0  0  0  0  0  0  0  0  0  0
   -1.1635   -3.4151    0.7219 H   0  0  0  0  0  0  0  0  0  0  0  0
   -3.3943   -3.7104    0.7961 H   0  0  0  0  0  0  0  0  0  0  0  0
   -3.4686   -1.3562   -1.1846 H   0  0  0  0  0  0  0  0  0  0  0  0
   -4.8463   -1.9409   -0.2438 H   0  0  0  0  0  0  0  0  0  0  0  0
   -3.4545   -1.2113    0.5785 H   0  0  0  0  0  0  0  0  0  0  0  0
   -4.7525   -4.6475   -1.1748 N   0  0  0  0  0  0  0  0  0  0  0  0
   -5.3495   -5.5127   -2.1652 C   0  0  0  0  0  0  0  0  0  0  0  0
   -5.2809   -4.4619   -0.3273 H   0  0  0  0  0  0  0  0  0  0  0  0
   -5.9403   -4.9102   -2.8709 H   0  0  0  0  0  0  0  0  0  0  0  0
   -4.5573   -6.0453   -2.7119 H   0  0  0  0  0  0  0  0  0  0  0  0
   -6.0054   -6.2420   -1.6673 H   0  0  0  0  0  0  0  0  0  0  0  0
 18 19  1  0  0  0  0
 19 31  1  0  0  0  0
 19 20  2  0  0  0  0
  8  9  1  0  0  0  0
  9 17  1  0  0  0  0
  9 10  2  0  0  0  0
  1  3  1  0  0  0  0
  1  7  1  0  0  0  0
  1  2  2  0  0  0  0
 32 33  1  0  0  0  0
 33 41  1  0  0  0  0
 33 34  2  0  0  0  0
 21 22  1  0  0  0  0
 22 23  1  0  0  0  0
 18 21  1  0  0  0  0
 17 23  1  0  0  0  0
 17 18  1  0  0  0  0
  8 11  1  0  0  0  0
 32 35  1  0  0  0  0
 41 42  1  0  0  0  0
  7  8  1  0  0  0  0
 31 32  1  0  0  0  0
 22 27  1  0  0  0  0
 22 28  1  0  0  0  0
 21 25  1  0  0  0  0
 21 26  1  0  0  0  0
 23 29  1  0  0  0  0
 23 30  1  0  0  0  0
 18 24  1  0  0  0  0
  3  4  1  0  0  0  0
  3  5  1  0  0  0  0
  3  6  1  0  0  0  0
 11 14  1  0  0  0  0
 11 15  1  0  0  0  0
 11 16  1  0  0  0  0
 35 38  1  0  0  0  0
 35 39  1  0  0  0  0
 35 40  1  0  0  0  0
 42 44  1  0  0  0  0
 42 45  1  0  0  0  0
 42 46  1  0  0  0  0
  8 13  1  0  0  0  0
 32 37  1  0  0  0  0
 31 36  1  0  0  0  0
 41 43  1  0  0  0  0
  7 12  1  0  0  0  0
M  END
$$$$

  -OEChem-05262214473D

 46 46  0     1  0  0  0  0  0999 V2000
   -0.6012   -3.2995    3.8205 C   0  0  0  0  0  0  0  0  0  0  0  0
   -0.6574   -4.4683    3.4568 O   0  0  0  0  0  0  0  0  0  0  0  0
   -0.4935   -2.9859    5.2760 C   0  0  0  0  0  0  0  0  0  0  0  0
   -1.4789   -2.8689    5.7550 H   0  0  0  0  0  0  0  0  0  0  0  0
    0.0123   -3.7847    5.8419 H   0  0  0  0  0  0  0  0  0  0  0  0
    0.0585   -2.0642    5.5199 H   0  0  0  0  0  0  0  0  0  0  0  0
   -0.6261   -2.1849    2.9917 N   0  0  0  0  0  0  0  0  0  0  0  0
   -0.7237   -2.2601    1.5650 C   0  0  2  0  0  0  0  0  0  0  0  0
    0.1695   -1.1513    1.0687 C   0  0  0  0  0  0  0  0  0  0  0  0
    0.3193   -0.1267    1.7365 O   0  0  0  0  0  0  0  0  0  0  0  0
   -2.1397   -2.0663    1.0750 C   0  0  0  0  0  0  0  0  0  0  0  0
   -0.5717   -1.2606    3.4238 H   0  0  0  0  0  0  0  0  0  0  0  0
   -0.3076   -3.2111    1.2363 H   0  0  0  0  0  0  0  0  0  0  0  0
   -2.5584   -1.1089    1.4061 H   0  0  0  0  0  0  0  0  0  0  0  0
   -2.1682   -2.0790   -0.0197 H   0  0  0  0  0  0  0  0  0  0  0  0
   -2.7965   -2.8601    1.4459 H   0  0  0  0  0  0  0  0  0  0  0  0
    0.7724   -1.3745   -0.1593 N   0  0  0  0  0  0  0  0  0  0  0  0
    0.5614   -2.5964   -0.9244 C   0  0  2  0  0  0  0  0  0  0  0  0
   -0.3735   -3.4587   -0.1308 C   0  0  0  0  0  0  0  0  0  0  0  0
    0.0820   -4.2582    0.6786 O   0  0  0  0  0  0  0  0  0  0  0  0
    1.9458   -3.2230   -1.0432 C   0  0  0  0  0  0  0  0  0  0  0  0
    2.2521   -1.7403   -0.8458 C   0  0  0  0  0  0  0  0  0  0  0  0
    1.5408   -0.3981   -0.9273 C   0  0  0  0  0  0  0  0  0  0  0  0
    0.1027   -2.3787   -1.8936 H   0  0  0  0  0  0  0  0  0  0  0  0
    2.0691   -3.6740   -2.0351 H   0  0  0  0  0  0  0  0  0  0  0  0
    2.1474   -3.9863   -0.2855 H   0  0  0  0  0  0  0  0  0  0  0  0
    2.5528   -1.5477    0.1905 H   0  0  0  0  0  0  0  0  0  0  0  0
    3.0524   -1.3926   -1.5053 H   0  0  0  0  0  0  0  0  0  0  0  0
    2.1327    0.4188   -0.5056 H   0  0  0  0  0  0  0  0  0  0  0  0
    1.2759   -0.1509   -1.9611 H   0  0  0  0  0  0  0  0  0  0  0  0
   -1.6752   -3.3116   -0.3499 N   0  0  0  0  0  0  0  0  0  0  0  0
   -3.0682   -3.6379   -0.5546 C   0  0  2  0  0  0  0  0  0  0  0  0
   -3.1439   -4.7399   -1.6032 C   0  0  0  0  0  0  0  0  0  0  0  0
   -2.2497   -4.9514   -2.4198 O   0  0  0  0  0  0  0  0  0  0  0  0
   -3.8642   -2.4176   -0.9903 C   0  0  0  0  0  0  0  0  0  0  0  0
   -1.2890   -3.4053    0.5847 H   0  0  0  0  0  0  0  0  0  0  0  0
   -3.4484   -4.0155    0.4009 H   0  0  0  0  0  0  0  0  0  0  0  0
   -3.4977   -2.0252   -1.9459 H   0  0  0  0  0  0  0  0  0  0  0  0
   -4.9244   -2.6600   -1.1174 H   0  0  0  0  0  0  0  0  0  0  0  0
   -3.7843   -1.6152   -0.2490 H   0  0  0  0  0  0  0  0  0  0  0  0
   -4.3459   -5.4315   -1.5476 N   0  0  0  0  0  0  0  0  0  0  0  0
   -4.6638   -6.5157   -2.4473 C   0  0  0  0  0  0  0  0  0  0  0  0
   -5.0221   -5.2011   -0.8255 H   0  0  0  0  0  0  0  0  0  0  0  0
   -5.2045   -6.1217   -3.3205 H   0  0  0  0  0  0  0  0  0  0  0  0
   -3.7342   -7.0005   -2.7800 H   0  0  0  0  0  0  0  0  0  0  0  0
   -5.2948   -7.2510   -1.9266 H   0  0  0  0  0  0  0  0  0  0  0  0
 18 19  1  0  0  0  0
 19 31  1  0  0  0  0
 19 20  2  0  0  0  0
  8  9  1  0  0  0  0
  9 17  1  0  0  0  0
  9 10  2  0  0  0  0
  1  3  1  0  0  0  0
  1  7  1  0  0  0  0
  1  2  2  0  0  0  0
 32 33  1  0  0  0  0
 33 41  1  0  0  0  0
 33 34  2  0  0  0  0
 21 22  1  0  0  0  0
 22 23  1  0  0  0  0
 18 21  1  0  0  0  0
 17 23  1  0  0  0  0
 17 18  1  0  0  0  0
  8 11  1  0  0  0  0
 32 35  1  0  0  0  0
 41 42  1  0  0  0  0
  7  8  1  0  0  0  0
 31 32  1  0  0  0  0
 22 27  1  0  0  0  0
 22 28  1  0  0  0  0
 21 25  1  0  0  0  0
 21 26  1  0  0  0  0
 23 29  1  0  0  0  0
 23 30  1  0  0  0  0
 18 24  1  0  0  0  0
  3  4  1  0  0  0  0
  3  5  1  0  0  0  0
  3  6  1  0  0  0  0
 11 14  1  0  0  0  0
 11 15  1  0  0  0  0
 11 16  1  0  0  0  0
 35 38  1  0  0  0  0
 35 39  1  0  0  0  0
 35 40  1  0  0  0  0
 42 44  1  0  0  0  0
 42 45  1  0  0  0  0
 42 46  1  0  0  0  0
  8 13  1  0  0  0  0
 32 37  1  0  0  0  0
 31 36  1  0  0  0  0
 41 43  1  0  0  0  0
  7 12  1  0  0  0  0
M  END
$$$$

  -OEChem-05262214473D

 46 46  0     1  0  0  0  0  0999 V2000
   -0.6012   -3.2995    3.8205 C   0  0  0  0  0  0  0  0  0  0  0  0
   -0.6574   -4.4683    3.4568 O   0  0  0  0  0  0  0  0  0  0  0  0
   -0.4935   -2.9859    5.2760 C   0  0  0  0  0  0  0  0  0  0  0  0
   -1.4789   -2.8689    5.7550 H   0  0  0  0  0  0  0  0  0  0  0  0
    0.0123   -3.7847    5.8419 H   0  0  0  0  0  0  0  0  0  0  0  0
    0.0585   -2.0642    5.5199 H   0  0  0  0  0  0  0  0  0  0  0  0
   -0.6261   -2.1849    2.9917 N   0  0  0  0  0  0  0  0  0  0  0  0
   -0.7237   -2.2601    1.5650 C   0  0  2  0  0  0  0  0  0  0  0  0
    0.1695   -1.1513    1.0687 C   0  0  0  0  0  0  0  0  0  0  0  0
    0.3193   -0.1267    1.7365 O   0  0  0  0  0  0  0  0  0  0  0  0
   -2.1397   -2.0663    1.0750 C   0  0  0  0  0  0  0  0  0  0  0  0
   -0.5717   -1.2606    3.4238 H   0  0  0  0  0  0  0  0  0  0  0  0
   -0.3076   -3.2111    1.2363 H   0  0  0  0  0  0  0  0  0  0  0  0
   -2.5584   -1.1089    1.4061 H   0  0  0  0  0  0  0  0  0  0  0  0
   -2.1682   -2.0790   -0.0197 H   0  0  0  0  0  0  0  0  0  0  0  0
   -2.7965   -2.8601    1.4459 H   0  0  0  0  0  0  0  0  0  0  0  0
    0.7724   -1.3745   -0.1593 N   0  0  0  0  0  0  0  0  0  0  0  0
    0.5614   -2.5964   -0.9244 C   0  0  2  0  0  0  0  0  0  0  0  0
   -0.3735   -3.4587   -0.1308 C   0  0  0  0  0  0  0  0  0  0  0  0
    0.0427   -4.0497    0.8588 O   0  0  0  0  0  0  0  0  0  0  0  0
    1.9458   -3.2230   -1.0432 C   0  0  0  0  0  0  0  0  0  0  0  0
    2.2521   -1.7403   -0.8458 C   0  0  0  0  0  0  0  0  0  0  0  0
    1.5408   -0.3981   -0.9273 C   0  0  0  0  0  0  0  0  0  0  0  0
    0.1027   -2.3787   -1.8936 H   0  0  0  0  0  0  0  0  0  0  0  0
    2.0691   -3.6740   -2.0351 H   0  0  0  0  0  0  0  0  0  0  0  0
    2.1474   -3.9863   -0.2855 H   0  0  0  0  0  0  0  0  0  0  0  0
    2.5528   -1.5477    0.1905 H   0  0  0  0  0  0  0  0  0  0  0  0
    3.0524   -1.3926   -1.5053 H   0  0  0  0  0  0  0  0  0  0  0  0
    2.1327    0.4188   -0.5056 H   0  0  0  0  0  0  0  0  0  0  0  0
    1.2759   -0.1509   -1.9611 H   0  0  0  0  0  0  0  0  0  0  0  0
   -1.6314   -3.5423   -0.5489 N   0  0  0  0  0  0  0  0  0  0  0  0
   -2.9219   -4.1000   -0.8843 C   0  0  2  0  0  0  0  0  0  0  0  0
   -2.6906   -5.3465   -1.7282 C   0  0  0  0  0  0  0  0  0  0  0  0
   -1.6579   -5.5430   -2.3654 O   0  0  0  0  0  0  0  0  0  0  0  0
   -3.7838   -3.0920   -1.6285 C   0  0  0  0  0  0  0  0  0  0  0  0
   -1.3912   -3.4350    0.4320 H   0  0  0  0  0  0  0  0  0  0  0  0
   -3.4000   -4.3813    0.0603 H   0  0  0  0  0  0  0  0  0  0  0  0
   -3.3209   -2.7982   -2.5776 H   0  0  0  0  0  0  0  0  0  0  0  0
   -4.7714   -3.5064   -1.8567 H   0  0  0  0  0  0  0  0  0  0  0  0
   -3.9244   -2.1840   -1.0322 H   0  0  0  0  0  0  0  0  0  0  0  0
   -3.7901   -6.1933   -1.7207 N   0  0  0  0  0  0  0  0  0  0  0  0
   -3.8221   -7.4361   -2.4558 C   0  0  0  0  0  0  0  0  0  0  0  0
   -4.5966   -5.9600   -1.1490 H   0  0  0  0  0  0  0  0  0  0  0  0
   -4.2609   -7.2637   -3.4497 H   0  0  0  0  0  0  0  0  0  0  0  0
   -2.7980   -7.8214   -2.5692 H   0  0  0  0  0  0  0  0  0  0  0  0
   -4.4316   -8.1702   -1.9084 H   0  0  0  0  0  0  0  0  0  0  0  0
 18 19  1  0  0  0  0
 19 31  1  0  0  0  0
 19 20  2  0  0  0  0
  8  9  1  0  0  0  0
  9 17  1  0  0  0  0
  9 10  2  0  0  0  0
  1  3  1  0  0  0  0
  1  7  1  0  0  0  0
  1  2  2  0  0  0  0
 32 33  1  0  0  0  0
 33 41  1  0  0  0  0
 33 34  2  0  0  0  0
 21 22  1  0  0  0  0
 22 23  1  0  0  0  0
 18 21  1  0  0  0  0
 17 23  1  0  0  0  0
 17 18  1  0  0  0  0
  8 11  1  0  0  0  0
 32 35  1  0  0  0  0
 41 42  1  0  0  0  0
  7  8  1  0  0  0  0
 31 32  1  0  0  0  0
 22 27  1  0  0  0  0
 22 28  1  0  0  0  0
 21 25  1  0  0  0  0
 21 26  1  0  0  0  0
 23 29  1  0  0  0  0
 23 30  1  0  0  0  0
 18 24  1  0  0  0  0
  3  4  1  0  0  0  0
  3  5  1  0  0  0  0
  3  6  1  0  0  0  0
 11 14  1  0  0  0  0
 11 15  1  0  0  0  0
 11 16  1  0  0  0  0
 35 38  1  0  0  0  0
 35 39  1  0  0  0  0
 35 40  1  0  0  0  0
 42 44  1  0  0  0  0
 42 45  1  0  0  0  0
 42 46  1  0  0  0  0
  8 13  1  0  0  0  0
 32 37  1  0  0  0  0
 31 36  1  0  0  0  0
 41 43  1  0  0  0  0
  7 12  1  0  0  0  0
M  END
$$$$

  -OEChem-05262214473D

 46 46  0     1  0  0  0  0  0999 V2000
   -0.6012   -3.2995    3.8205 C   0  0  0  0  0  0  0  0  0  0  0  0
   -0.6574   -4.4683    3.4568 O   0  0  0  0  0  0  0  0  0  0  0  0
   -0.4935   -2.9859    5.2760 C   0  0  0  0  0  0  0  0  0  0  0  0
   -1.4789   -2.8689    5.7550 H   0  0  0  0  0  0  0  0  0  0  0  0
    0.0123   -3.7847    5.8419 H   0  0  0  0  0  0  0  0  0  0  0  0
    0.0585   -2.0642    5.5199 H   0  0  0  0  0  0  0  0  0  0  0  0
   -0.6261   -2.1849    2.9917 N   0  0  0  0  0  0  0  0  0  0  0  0
   -0.7237   -2.2601    1.5650 C   0  0  2  0  0  0  0  0  0  0  0  0
    0.1695   -1.1513    1.0687 C   0  0  0  0  0  0  0  0  0  0  0  0
    0.3193   -0.1267    1.7365 O   0  0  0  0  0  0  0  0  0  0  0  0
   -2.1397   -2.0663    1.0750 C   0  0  0  0  0  0  0  0  0  0  0  0
   -0.5717   -1.2606    3.4238 H   0  0  0  0  0  0  0  0  0  0  0  0
   -0.3076   -3.2111    1.2363 H   0  0  0  0  0  0  0  0  0  0  0  0
   -2.5584   -1.1089    1.4061 H   0  0  0  0  0  0  0  0  0  0  0  0
   -2.1682   -2.0790   -0.0197 H   0  0  0  0  0  0  0  0  0  0  0  0
   -2.7965   -2.8601    1.4459 H   0  0  0  0  0  0  0  0  0  0  0  0
    0.7724   -1.3745   -0.1593 N   0  0  0  0  0  0  0  0  0  0  0  0
    0.5614   -2.5964   -0.9244 C   0  0  2  0  0  0  0  0  0  0  0  0
   -0.3735   -3.4587   -0.1308 C   0  0  0  0  0  0  0  0  0  0  0  0
   -0.0507   -3.8247    0.9933 O   0  0  0  0  0  0  0  0  0  0  0  0
    1.9458   -3.2230   -1.0432 C   0  0  0  0  0  0  0  0  0  0  0  0
    2.2521   -1.7403   -0.8458 C   0  0  0  0  0  0  0  0  0  0  0  0
    1.5408   -0.3981   -0.9273 C   0  0  0  0  0  0  0  0  0  0  0  0
    0.1027   -2.3787   -1.8936 H   0  0  0  0  0  0  0  0  0  0  0  0
    2.0691   -3.6740   -2.0351 H   0  0  0  0  0  0  0  0  0  0  0  0
    2.1474   -3.9863   -0.2855 H   0  0  0  0  0  0  0  0  0  0  0  0
    2.5528   -1.5477    0.1905 H   0  0  0  0  0  0  0  0  0  0  0  0
    3.0524   -1.3926   -1.5053 H   0  0  0  0  0  0  0  0  0  0  0  0
    2.1327    0.4188   -0.5056 H   0  0  0  0  0  0  0  0  0  0  0  0
    1.2759   -0.1509   -1.9611 H   0  0  0  0  0  0  0  0  0  0  0  0
   -1.5278   -3.7912   -0.6974 N   0  0  0  0  0  0  0  0  0  0  0  0
   -2.6681   -4.5795   -1.1064 C   0  0  2  0  0  0  0  0  0  0  0  0
   -2.1509   -5.8905   -1.6837 C   0  0  0  0  0  0  0  0  0  0  0  0
   -1.0132   -6.0247   -2.1293 O   0  0  0  0  0  0  0  0  0  0  0  0
   -3.5187   -3.8355   -2.1241 C   0  0  0  0  0  0  0  0  0  0  0  0
   -1.4631   -3.5024    0.2741 H   0  0  0  0  0  0  0  0  0  0  0  0
   -3.2525   -4.7831   -0.2024 H   0  0  0  0  0  0  0  0  0  0  0  0
   -2.9502   -3.6227   -3.0367 H   0  0  0  0  0  0  0  0  0  0  0  0
   -4.3975   -4.4223   -2.4114 H   0  0  0  0  0  0  0  0  0  0  0  0
   -3.8652   -2.8792   -1.7178 H   0  0  0  0  0  0  0  0  0  0  0  0
   -3.1231   -6.8810   -1.6821 N   0  0  0  0  0  0  0  0  0  0  0  0
   -2.8817   -8.2112   -2.1902 C   0  0  0  0  0  0  0  0  0  0  0  0
   -4.0335   -6.6869   -1.2755 H   0  0  0  0  0  0  0  0  0  0  0  0
   -3.1737   -8.2583   -3.2496 H   0  0  0  0  0  0  0  0  0  0  0  0
   -1.8127   -8.4520   -2.0936 H   0  0  0  0  0  0  0  0  0  0  0  0
   -3.4745   -8.9369   -1.6140 H   0  0  0  0  0  0  0  0  0  0  0  0
 18 19  1  0  0  0  0
 19 31  1  0  0  0  0
 19 20  2  0  0  0  0
  8  9  1  0  0  0  0
  9 17  1  0  0  0  0
  9 10  2  0  0  0  0
  1  3  1  0  0  0  0
  1  7  1  0  0  0  0
  1  2  2  0  0  0  0
 32 33  1  0  0  0  0
 33 41  1  0  0  0  0
 33 34  2  0  0  0  0
 21 22  1  0  0  0  0
 22 23  1  0  0  0  0
 18 21  1  0  0  0  0
 17 23  1  0  0  0  0
 17 18  1  0  0  0  0
  8 11  1  0  0  0  0
 32 35  1  0  0  0  0
 41 42  1  0  0  0  0
  7  8  1  0  0  0  0
 31 32  1  0  0  0  0
 22 27  1  0  0  0  0
 22 28  1  0  0  0  0
 21 25  1  0  0  0  0
 21 26  1  0  0  0  0
 23 29  1  0  0  0  0
 23 30  1  0  0  0  0
 18 24  1  0  0  0  0
  3  4  1  0  0  0  0
  3  5  1  0  0  0  0
  3  6  1  0  0  0  0
 11 14  1  0  0  0  0
 11 15  1  0  0  0  0
 11 16  1  0  0  0  0
 35 38  1  0  0  0  0
 35 39  1  0  0  0  0
 35 40  1  0  0  0  0
 42 44  1  0  0  0  0
 42 45  1  0  0  0  0
 42 46  1  0  0  0  0
  8 13  1  0  0  0  0
 32 37  1  0  0  0  0
 31 36  1  0  0  0  0
 41 43  1  0  0  0  0
  7 12  1  0  0  0  0
M  END
$$$$

  -OEChem-05262214473D

 46 46  0     1  0  0  0  0  0999 V2000
   -0.6012   -3.2995    3.8205 C   0  0  0  0  0  0  0  0  0  0  0  0
   -0.6574   -4.4683    3.4568 O   0  0  0  0  0  0  0  0  0  0  0  0
   -0.4935   -2.9859    5.2760 C   0  0  0  0  0  0  0  0  0  0  0  0
   -1.4789   -2.8689    5.7550 H   0  0  0  0  0  0  0  0  0  0  0  0
    0.0123   -3.7847    5.8419 H   0  0  0  0  0  0  0  0  0  0  0  0
    0.0585   -2.0642    5.5199 H   0  0  0  0  0  0  0  0  0  0  0  0
   -0.6261   -2.1849    2.9917 N   0  0  0  0  0  0  0  0  0  0  0  0
   -0.7237   -2.2601    1.5650 C   0  0  2  0  0  0  0  0  0  0  0  0
    0.1695   -1.1513    1.0687 C   0  0  0  0  0  0  0  0  0  0  0  0
    0.3193   -0.1267    1.7365 O   0  0  0  0  0  0  0  0  0  0  0  0
   -2.1397   -2.0663    1.0750 C   0  0  0  0  0  0  0  0  0  0  0  0
   -0.5717   -1.2606    3.4238 H   0  0  0  0  0  0  0  0  0  0  0  0
   -0.3076   -3.2111    1.2363 H   0  0  0  0  0  0  0  0  0  0  0  0
   -2.5584   -1.1089    1.4061 H   0  0  0  0  0  0  0  0  0  0  0  0
   -2.1682   -2.0790   -0.0197 H   0  0  0  0  0  0  0  0  0  0  0  0
   -2.7965   -2.8601    1.4459 H   0  0  0  0  0  0  0  0  0  0  0  0
    0.7724   -1.3745   -0.1593 N   0  0  0  0  0  0  0  0  0  0  0  0
    0.5614   -2.5964   -0.9244 C   0  0  2  0  0  0  0  0  0  0  0  0
   -0.3735   -3.4587   -0.1308 C   0  0  0  0  0  0  0  0  0  0  0  0
   -0.1917   -3.5984    1.0730 O   0  0  0  0  0  0  0  0  0  0  0  0
    1.9458   -3.2230   -1.0432 C   0  0  0  0  0  0  0  0  0  0  0  0
    2.2521   -1.7403   -0.8458 C   0  0  0  0  0  0  0  0  0  0  0  0
    1.5408   -0.3981   -0.9273 C   0  0  0  0  0  0  0  0  0  0  0  0
    0.1027   -2.3787   -1.8936 H   0  0  0  0  0  0  0  0  0  0  0  0
    2.0691   -3.6740   -2.0351 H   0  0  0  0  0  0  0  0  0  0  0  0
    2.1474   -3.9863   -0.2855 H   0  0  0  0  0  0  0  0  0  0  0  0
    2.5528   -1.5477    0.1905 H   0  0  0  0  0  0  0  0  0  0  0  0
    3.0524   -1.3926   -1.5053 H   0  0  0  0  0  0  0  0  0  0  0  0
    2.1327    0.4188   -0.5056 H   0  0  0  0  0  0  0  0  0  0  0  0
    1.2759   -0.1509   -1.9611 H   0  0  0  0  0  0  0  0  0  0  0  0
   -1.3715   -4.0415   -0.7853 N   0  0  0  0  0  0  0  0  0  0  0  0
   -2.3243   -5.0437   -1.2057 C   0  0  2  0  0  0  0  0  0  0  0  0
   -1.5618   -6.3348   -1.4724 C   0  0  0  0  0  0  0  0  0  0  0  0
   -0.3597   -6.3635   -1.7276 O   0  0  0  0  0  0  0  0  0  0  0  0
   -3.0871   -4.5974   -2.4433 C   0  0  0  0  0  0  0  0  0  0  0  0
   -1.4998   -3.6029    0.1217 H   0  0  0  0  0  0  0  0  0  0  0  0
   -3.0158   -5.1933   -0.3694 H   0  0  0  0  0  0  0  0  0  0  0  0
   -2.4108   -4.4424   -3.2919 H   0  0  0  0  0  0  0  0  0  0  0  0
   -3.8283   -5.3452   -2.7438 H   0  0  0  0  0  0  0  0  0  0  0  0
   -3.6107   -3.6531   -2.2589 H   0  0  0  0  0  0  0  0  0  0  0  0
   -2.3904   -7.4476   -1.4346 N   0  0  0  0  0  0  0  0  0  0  0  0
   -1.9066   -8.7882   -1.6685 C   0  0  0  0  0  0  0  0  0  0  0  0
   -3.3712   -7.3324   -1.1966 H   0  0  0  0  0  0  0  0  0  0  0  0
   -2.0171   -9.0378   -2.7341 H   0  0  0  0  0  0  0  0  0  0  0  0
   -0.8453   -8.8494   -1.3858 H   0  0  0  0  0  0  0  0  0  0  0  0
   -2.4888   -9.4987   -1.0633 H   0  0  0  0  0  0  0  0  0  0  0  0
 18 19  1  0  0  0  0
 19 31  1  0  0  0  0
 19 20  2  0  0  0  0
  8  9  1  0  0  0  0
  9 17  1  0  0  0  0
  9 10  2  0  0  0  0
  1  3  1  0  0  0  0
  1  7  1  0  0  0  0
  1  2  2  0  0  0  0
 32 33  1  0  0  0  0
 33 41  1  0  0  0  0
 33 34  2  0  0  0  0
 21 22  1  0  0  0  0
 22 23  1  0  0  0  0
 18 21  1  0  0  0  0
 17 23  1  0  0  0  0
 17 18  1  0  0  0  0
  8 11  1  0  0  0  0
 32 35  1  0  0  0  0
 41 42  1  0  0  0  0
  7  8  1  0  0  0  0
 31 32  1  0  0  0  0
 22 27  1  0  0  0  0
 22 28  1  0  0  0  0
 21 25  1  0  0  0  0
 21 26  1  0  0  0  0
 23 29  1  0  0  0  0
 23 30  1  0  0  0  0
 18 24  1  0  0  0  0
  3  4  1  0  0  0  0
  3  5  1  0  0  0  0
  3  6  1  0  0  0  0
 11 14  1  0  0  0  0
 11 15  1  0  0  0  0
 11 16  1  0  0  0  0
 35 38  1  0  0  0  0
 35 39  1  0  0  0  0
 35 40  1  0  0  0  0
 42 44  1  0  0  0  0
 42 45  1  0  0  0  0
 42 46  1  0  0  0  0
  8 13  1  0  0  0  0
 32 37  1  0  0  0  0
 31 36  1  0  0  0  0
 41 43  1  0  0  0  0
  7 12  1  0  0  0  0
M  END
$$$$

  -OEChem-05262214473D

 46 46  0     1  0  0  0  0  0999 V2000
   -0.6012   -3.2995    3.8205 C   0  0  0  0  0  0  0  0  0  0  0  0
   -0.6574   -4.4683    3.4568 O   0  0  0  0  0  0  0  0  0  0  0  0
   -0.4935   -2.9859    5.2760 C   0  0  0  0  0  0  0  0  0  0  0  0
   -1.4789   -2.8689    5.7550 H   0  0  0  0  0  0  0  0  0  0  0  0
    0.0123   -3.7847    5.8419 H   0  0  0  0  0  0  0  0  0  0  0  0
    0.0585   -2.0642    5.5199 H   0  0  0  0  0  0  0  0  0  0  0  0
   -0.6261   -2.1849    2.9917 N   0  0  0  0  0  0  0  0  0  0  0  0
   -0.7237   -2.2601    1.5650 C   0  0  2  0  0  0  0  0  0  0  0  0
    0.1695   -1.1513    1.0687 C   0  0  0  0  0  0  0  0  0  0  0  0
    0.3193   -0.1267    1.7365 O   0  0  0  0  0  0  0  0  0  0  0  0
   -2.1397   -2.0663    1.0750 C   0  0  0  0  0  0  0  0  0  0  0  0
   -0.5717   -1.2606    3.4238 H   0  0  0  0  0  0  0  0  0  0  0  0
   -0.3076   -3.2111    1.2363 H   0  0  0  0  0  0  0  0  0  0  0  0
   -2.5584   -1.1089    1.4061 H   0  0  0  0  0  0  0  0  0  0  0  0
   -2.1682   -2.0790   -0.0197 H   0  0  0  0  0  0  0  0  0  0  0  0
   -2.7965   -2.8601    1.4459 H   0  0  0  0  0  0  0  0  0  0  0  0
    0.7724   -1.3745   -0.1593 N   0  0  0  0  0  0  0  0  0  0  0  0
    0.5614   -2.5964   -0.9244 C   0  0  2  0  0  0  0  0  0  0  0  0
   -0.3735   -3.4587   -0.1308 C   0  0  0  0  0  0  0  0  0  0  0  0
   -0.3708   -3.3863    1.0925 O   0  0  0  0  0  0  0  0  0  0  0  0
    1.9458   -3.2230   -1.0432 C   0  0  0  0  0  0  0  0  0  0  0  0
    2.2521   -1.7403   -0.8458 C   0  0  0  0  0  0  0  0  0  0  0  0
    1.5408   -0.3981   -0.9273 C   0  0  0  0  0  0  0  0  0  0  0  0
    0.1027   -2.3787   -1.8936 H   0  0  0  0  0  0  0  0  0  0  0  0
    2.0691   -3.6740   -2.0351 H   0  0  0  0  0  0  0  0  0  0  0  0
    2.1474   -3.9863   -0.2855 H   0  0  0  0  0  0  0  0  0  0  0  0
    2.5528   -1.5477    0.1905 H   0  0  0  0  0  0  0  0  0  0  0  0
    3.0524   -1.3926   -1.5053 H   0  0  0  0  0  0  0  0  0  0  0  0
    2.1327    0.4188   -0.5056 H   0  0  0  0  0  0  0  0  0  0  0  0
    1.2759   -0.1509   -1.9611 H   0  0  0  0  0  0  0  0  0  0  0  0
   -1.1732   -4.2760   -0.8065 N   0  0  0  0  0  0  0  0  0  0  0  0
   -1.9138   -5.4611   -1.1756 C   0  0  2  0  0  0  0  0  0  0  0  0
   -0.9634   -6.6492   -1.1090 C   0  0  0  0  0  0  0  0  0  0  0  0
    0.2582   -6.5364   -1.1875 O   0  0  0  0  0  0  0  0  0  0  0  0
   -2.5182   -5.3256   -2.5645 C   0  0  0  0  0  0  0  0  0  0  0  0
   -1.4988   -3.7296   -0.0147 H   0  0  0  0  0  0  0  0  0  0  0  0
   -2.7061   -5.5841   -0.4292 H   0  0  0  0  0  0  0  0  0  0  0  0
   -1.7394   -5.2014   -3.3258 H   0  0  0  0  0  0  0  0  0  0  0  0
   -3.1025   -6.2124   -2.8311 H   0  0  0  0  0  0  0  0  0  0  0  0
   -3.1783   -4.4532   -2.6189 H   0  0  0  0  0  0  0  0  0  0  0  0
   -1.6419   -7.8545   -0.9950 N   0  0  0  0  0  0  0  0  0  0  0  0
   -0.9635   -9.1277   -0.9262 C   0  0  0  0  0  0  0  0  0  0  0  0
   -2.6547   -7.8524   -0.9176 H   0  0  0  0  0  0  0  0  0  0  0  0
   -0.8699   -9.5490   -1.9380 H   0  0  0  0  0  0  0  0  0  0  0  0
    0.0381   -8.9864   -0.4939 H   0  0  0  0  0  0  0  0  0  0  0  0
   -1.5418   -9.8175   -0.2940 H   0  0  0  0  0  0  0  0  0  0  0  0
 18 19  1  0  0  0  0
 19 31  1  0  0  0  0
 19 20  2  0  0  0  0
  8  9  1  0  0  0  0
  9 17  1  0  0  0  0
  9 10  2  0  0  0  0
  1  3  1  0  0  0  0
  1  7  1  0  0  0  0
  1  2  2  0  0  0  0
 32 33  1  0  0  0  0
 33 41  1  0  0  0  0
 33 34  2  0  0  0  0
 21 22  1  0  0  0  0
 22 23  1  0  0  0  0
 18 21  1  0  0  0  0
 17 23  1  0  0  0  0
 17 18  1  0  0  0  0
  8 11  1  0  0  0  0
 32 35  1  0  0  0  0
 41 42  1  0  0  0  0
  7  8  1  0  0  0  0
 31 32  1  0  0  0  0
 22 27  1  0  0  0  0
 22 28  1  0  0  0  0
 21 25  1  0  0  0  0
 21 26  1  0  0  0  0
 23 29  1  0  0  0  0
 23 30  1  0  0  0  0
 18 24  1  0  0  0  0
  3  4  1  0  0  0  0
  3  5  1  0  0  0  0
  3  6  1  0  0  0  0
 11 14  1  0  0  0  0
 11 15  1  0  0  0  0
 11 16  1  0  0  0  0
 35 38  1  0  0  0  0
 35 39  1  0  0  0  0
 35 40  1  0  0  0  0
 42 44  1  0  0  0  0
 42 45  1  0  0  0  0
 42 46  1  0  0  0  0
  8 13  1  0  0  0  0
 32 37  1  0  0  0  0
 31 36  1  0  0  0  0
 41 43  1  0  0  0  0
  7 12  1  0  0  0  0
M  END
$$$$

  -OEChem-05262214473D

 46 46  0     1  0  0  0  0  0999 V2000
   -0.6012   -3.2995    3.8205 C   0  0  0  0  0  0  0  0  0  0  0  0
   -0.6574   -4.4683    3.4568 O   0  0  0  0  0  0  0  0  0  0  0  0
   -0.4935   -2.9859    5.2760 C   0  0  0  0  0  0  0  0  0  0  0  0
   -1.4789   -2.8689    5.7550 H   0  0  0  0  0  0  0  0  0  0  0  0
    0.0123   -3.7847    5.8419 H   0  0  0  0  0  0  0  0  0  0  0  0
    0.0585   -2.0642    5.5199 H   0  0  0  0  0  0  0  0  0  0  0  0
   -0.6261   -2.1849    2.9917 N   0  0  0  0  0  0  0  0  0  0  0  0
   -0.7237   -2.2601    1.5650 C   0  0  2  0  0  0  0  0  0  0  0  0
    0.1695   -1.1513    1.0687 C   0  0  0  0  0  0  0  0  0  0  0  0
    0.3193   -0.1267    1.7365 O   0  0  0  0  0  0  0  0  0  0  0  0
   -2.1397   -2.0663    1.0750 C   0  0  0  0  0  0  0  0  0  0  0  0
   -0.5717   -1.2606    3.4238 H   0  0  0  0  0  0  0  0  0  0  0  0
   -0.3076   -3.2111    1.2363 H   0  0  0  0  0  0  0  0  0  0  0  0
   -2.5584   -1.1089    1.4061 H   0  0  0  0  0  0  0  0  0  0  0  0
   -2.1682   -2.0790   -0.0197 H   0  0  0  0  0  0  0  0  0  0  0  0
   -2.7965   -2.8601    1.4459 H   0  0  0  0  0  0  0  0  0  0  0  0
    0.7724   -1.3745   -0.1593 N   0  0  0  0  0  0  0  0  0  0  0  0
    0.5614   -2.5964   -0.9244 C   0  0  2  0  0  0  0  0  0  0  0  0
   -0.3735   -3.4587   -0.1308 C   0  0  0  0  0  0  0  0  0  0  0  0
   -0.5758   -3.2028    1.0504 O   0  0  0  0  0  0  0  0  0  0  0  0
    1.9458   -3.2230   -1.0432 C   0  0  0  0  0  0  0  0  0  0  0  0
    2.2521   -1.7403   -0.8458 C   0  0  0  0  0  0  0  0  0  0  0  0
    1.5408   -0.3981   -0.9273 C   0  0  0  0  0  0  0  0  0  0  0  0
    0.1027   -2.3787   -1.8936 H   0  0  0  0  0  0  0  0  0  0  0  0
    2.0691   -3.6740   -2.0351 H   0  0  0  0  0  0  0  0  0  0  0  0
    2.1474   -3.9863   -0.2855 H   0  0  0  0  0  0  0  0  0  0  0  0
    2.5528   -1.5477    0.1905 H   0  0  0  0  0  0  0  0  0  0  0  0
    3.0524   -1.3926   -1.5053 H   0  0  0  0  0  0  0  0  0  0  0  0
    2.1327    0.4188   -0.5056 H   0  0  0  0  0  0  0  0  0  0  0  0
    1.2759   -0.1509   -1.9611 H   0  0  0  0  0  0  0  0  0  0  0  0
   -0.9464   -4.4787   -0.7596 N   0  0  0  0  0  0  0  0  0  0  0  0
   -1.4645   -5.8031   -1.0180 C   0  0  2  0  0  0  0  0  0  0  0  0
   -0.3963   -6.8123   -0.6181 C   0  0  0  0  0  0  0  0  0  0  0  0
    0.7983   -6.5315   -0.5460 O   0  0  0  0  0  0  0  0  0  0  0  0
   -1.8509   -5.9707   -2.4793 C   0  0  0  0  0  0  0  0  0  0  0  0
   -1.4601   -3.8738   -0.1259 H   0  0  0  0  0  0  0  0  0  0  0  0
   -2.3445   -5.9288   -0.3778 H   0  0  0  0  0  0  0  0  0  0  0  0
   -0.9819   -5.8480   -3.1361 H   0  0  0  0  0  0  0  0  0  0  0  0
   -2.2697   -6.9648   -2.6674 H   0  0  0  0  0  0  0  0  0  0  0  0
   -2.5974   -5.2249   -2.7730 H   0  0  0  0  0  0  0  0  0  0  0  0
   -0.9286   -8.0741   -0.3932 N   0  0  0  0  0  0  0  0  0  0  0  0
   -0.1164   -9.2066   -0.0141 C   0  0  0  0  0  0  0  0  0  0  0  0
   -1.9330   -8.2115   -0.4575 H   0  0  0  0  0  0  0  0  0  0  0  0
    0.1898   -9.7572   -0.9158 H   0  0  0  0  0  0  0  0  0  0  0  0
    0.7775   -8.8538    0.5212 H   0  0  0  0  0  0  0  0  0  0  0  0
   -0.6978   -9.8715    0.6415 H   0  0  0  0  0  0  0  0  0  0  0  0
 18 19  1  0  0  0  0
 19 31  1  0  0  0  0
 19 20  2  0  0  0  0
  8  9  1  0  0  0  0
  9 17  1  0  0  0  0
  9 10  2  0  0  0  0
  1  3  1  0  0  0  0
  1  7  1  0  0  0  0
  1  2  2  0  0  0  0
 32 33  1  0  0  0  0
 33 41  1  0  0  0  0
 33 34  2  0  0  0  0
 21 22  1  0  0  0  0
 22 23  1  0  0  0  0
 18 21  1  0  0  0  0
 17 23  1  0  0  0  0
 17 18  1  0  0  0  0
  8 11  1  0  0  0  0
 32 35  1  0  0  0  0
 41 42  1  0  0  0  0
  7  8  1  0  0  0  0
 31 32  1  0  0  0  0
 22 27  1  0  0  0  0
 22 28  1  0  0  0  0
 21 25  1  0  0  0  0
 21 26  1  0  0  0  0
 23 29  1  0  0  0  0
 23 30  1  0  0  0  0
 18 24  1  0  0  0  0
  3  4  1  0  0  0  0
  3  5  1  0  0  0  0
  3  6  1  0  0  0  0
 11 14  1  0  0  0  0
 11 15  1  0  0  0  0
 11 16  1  0  0  0  0
 35 38  1  0  0  0  0
 35 39  1  0  0  0  0
 35 40  1  0  0  0  0
 42 44  1  0  0  0  0
 42 45  1  0  0  0  0
 42 46  1  0  0  0  0
  8 13  1  0  0  0  0
 32 37  1  0  0  0  0
 31 36  1  0  0  0  0
 41 43  1  0  0  0  0
  7 12  1  0  0  0  0
M  END
$$$$

  -OEChem-05262214473D

 46 46  0     1  0  0  0  0  0999 V2000
   -0.6012   -3.2995    3.8205 C   0  0  0  0  0  0  0  0  0  0  0  0
   -0.6574   -4.4683    3.4568 O   0  0  0  0  0  0  0  0  0  0  0  0
   -0.4935   -2.9859    5.2760 C   0  0  0  0  0  0  0  0  0  0  0  0
   -1.4789   -2.8689    5.7550 H   0  0  0  0  0  0  0  0  0  0  0  0
    0.0123   -3.7847    5.8419 H   0  0  0  0  0  0  0  0  0  0  0  0
    0.0585   -2.0642    5.5199 H   0  0  0  0  0  0  0  0  0  0  0  0
   -0.6261   -2.1849    2.9917 N   0  0  0  0  0  0  0  0  0  0  0  0
   -0.7237   -2.2601    1.5650 C   0  0  2  0  0  0  0  0  0  0  0  0
    0.1695   -1.1513    1.0687 C   0  0  0  0  0  0  0  0  0  0  0  0
    0.3193   -0.1267    1.7365 O   0  0  0  0  0  0  0  0  0  0  0  0
   -2.1397   -2.0663    1.0750 C   0  0  0  0  0  0  0  0  0  0  0  0
   -0.5717   -1.2606    3.4238 H   0  0  0  0  0  0  0  0  0  0  0  0
   -0.3076   -3.2111    1.2363 H   0  0  0  0  0  0  0  0  0  0  0  0
   -2.5584   -1.1089    1.4061 H   0  0  0  0  0  0  0  0  0  0  0  0
   -2.1682   -2.0790   -0.0197 H   0  0  0  0  0  0  0  0  0  0  0  0
   -2.7965   -2.8601    1.4459 H   0  0  0  0  0  0  0  0  0  0  0  0
    0.7724   -1.3745   -0.1593 N   0  0  0  0  0  0  0  0  0  0  0  0
    0.5614   -2.5964   -0.9244 C   0  0  2  0  0  0  0  0  0  0  0  0
   -0.3735   -3.4587   -0.1308 C   0  0  0  0  0  0  0  0  0  0  0  0
   -0.7927   -3.0604    0.9496 O   0  0  0  0  0  0  0  0  0  0  0  0
    1.9458   -3.2230   -1.0432 C   0  0  0  0  0  0  0  0  0  0  0  0
    2.2521   -1.7403   -0.8458 C   0  0  0  0  0  0  0  0  0  0  0  0
    1.5408   -0.3981   -0.9273 C   0  0  0  0  0  0  0  0  0  0  0  0
    0.1027   -2.3787   -1.8936 H   0  0  0  0  0  0  0  0  0  0  0  0
    2.0691   -3.6740   -2.0351 H   0  0  0  0  0  0  0  0  0  0  0  0
    2.1474   -3.9863   -0.2855 H   0  0  0  0  0  0  0  0  0  0  0  0
    2.5528   -1.5477    0.1905 H   0  0  0  0  0  0  0  0  0  0  0  0
    3.0524   -1.3926   -1.5053 H   0  0  0  0  0  0  0  0  0  0  0  0
    2.1327    0.4188   -0.5056 H   0  0  0  0  0  0  0  0  0  0  0  0
    1.2759   -0.1509   -1.9611 H   0  0  0  0  0  0  0  0  0  0  0  0
   -0.7065   -4.6360   -0.6478 N   0  0  0  0  0  0  0  0  0  0  0  0
   -1.0072   -6.0464   -0.7437 C   0  0  2  0  0  0  0  0  0  0  0  0
    0.1007   -6.8128   -0.0332 C   0  0  0  0  0  0  0  0  0  0  0  0
    1.2238   -6.3493    0.1533 O   0  0  0  0  0  0  0  0  0  0  0  0
   -1.1306   -6.4886   -2.1935 C   0  0  0  0  0  0  0  0  0  0  0  0
   -1.3865   -4.0257   -0.2043 H   0  0  0  0  0  0  0  0  0  0  0  0
   -1.9557   -6.2040   -0.2187 H   0  0  0  0  0  0  0  0  0  0  0  0
   -0.1899   -6.3383   -2.7357 H   0  0  0  0  0  0  0  0  0  0  0  0
   -1.3866   -7.5509   -2.2639 H   0  0  0  0  0  0  0  0  0  0  0  0
   -1.9076   -5.9156   -2.7109 H   0  0  0  0  0  0  0  0  0  0  0  0
   -0.2991   -8.0914    0.3296 N   0  0  0  0  0  0  0  0  0  0  0  0
    0.5768   -9.0196    1.0058 C   0  0  0  0  0  0  0  0  0  0  0  0
   -1.2551   -8.3852    0.1524 H   0  0  0  0  0  0  0  0  0  0  0  0
    1.0898   -9.6481    0.2629 H   0  0  0  0  0  0  0  0  0  0  0  0
    1.3223   -8.4606    1.5904 H   0  0  0  0  0  0  0  0  0  0  0  0
   -0.0145   -9.6571    1.6796 H   0  0  0  0  0  0  0  0  0  0  0  0
 18 19  1  0  0  0  0
 19 31  1  0  0  0  0
 19 20  2  0  0  0  0
  8  9  1  0  0  0  0
  9 17  1  0  0  0  0
  9 10  2  0  0  0  0
  1  3  1  0  0  0  0
  1  7  1  0  0  0  0
  1  2  2  0  0  0  0
 32 33  1  0  0  0  0
 33 41  1  0  0  0  0
 33 34  2  0  0  0  0
 21 22  1  0  0  0  0
 22 23  1  0  0  0  0
 18 21  1  0  0  0  0
 17 23  1  0  0  0  0
 17 18  1  0  0  0  0
  8 11  1  0  0  0  0
 32 35  1  0  0  0  0
 41 42  1  0  0  0  0
  7  8  1  0  0  0  0
 31 32  1  0  0  0  0
 22 27  1  0  0  0  0
 22 28  1  0  0  0  0
 21 25  1  0  0  0  0
 21 26  1  0  0  0  0
 23 29  1  0  0  0  0
 23 30  1  0  0  0  0
 18 24  1  0  0  0  0
  3  4  1  0  0  0  0
  3  5  1  0  0  0  0
  3  6  1  0  0  0  0
 11 14  1  0  0  0  0
 11 15  1  0  0  0  0
 11 16  1  0  0  0  0
 35 38  1  0  0  0  0
 35 39  1  0  0  0  0
 35 40  1  0  0  0  0
 42 44  1  0  0  0  0
 42 45  1  0  0  0  0
 42 46  1  0  0  0  0
  8 13  1  0  0  0  0
 32 37  1  0  0  0  0
 31 36  1  0  0  0  0
 41 43  1  0  0  0  0
  7 12  1  0  0  0  0
M  END
$$$$

  -OEChem-05262214473D

 46 46  0     1  0  0  0  0  0999 V2000
   -0.6012   -3.2995    3.8205 C   0  0  0  0  0  0  0  0  0  0  0  0
   -0.6574   -4.4683    3.4568 O   0  0  0  0  0  0  0  0  0  0  0  0
   -0.4935   -2.9859    5.2760 C   0  0  0  0  0  0  0  0  0  0  0  0
   -1.4789   -2.8689    5.7550 H   0  0  0  0  0  0  0  0  0  0  0  0
    0.0123   -3.7847    5.8419 H   0  0  0  0  0  0  0  0  0  0  0  0
    0.0585   -2.0642    5.5199 H   0  0  0  0  0  0  0  0  0  0  0  0
   -0.6261   -2.1849    2.9917 N   0  0  0  0  0  0  0  0  0  0  0  0
   -0.7237   -2.2601    1.5650 C   0  0  2  0  0  0  0  0  0  0  0  0
    0.1695   -1.1513    1.0687 C   0  0  0  0  0  0  0  0  0  0  0  0
    0.3193   -0.1267    1.7365 O   0  0  0  0  0  0  0  0  0  0  0  0
   -2.1397   -2.0663    1.0750 C   0  0  0  0  0  0  0  0  0  0  0  0
   -0.5717   -1.2606    3.4238 H   0  0  0  0  0  0  0  0  0  0  0  0
   -0.3076   -3.2111    1.2363 H   0  0  0  0  0  0  0  0  0  0  0  0
   -2.5584   -1.1089    1.4061 H   0  0  0  0  0  0  0  0  0  0  0  0
   -2.1682   -2.0790   -0.0197 H   0  0  0  0  0  0  0  0  0  0  0  0
   -2.7965   -2.8601    1.4459 H   0  0  0  0  0  0  0  0  0  0  0  0
    0.7724   -1.3745   -0.1593 N   0  0  0  0  0  0  0  0  0  0  0  0
    0.5614   -2.5964   -0.9244 C   0  0  2  0  0  0  0  0  0  0  0  0
   -0.3735   -3.4587   -0.1308 C   0  0  0  0  0  0  0  0  0  0  0  0
   -1.0067   -2.9688    0.7970 O   0  0  0  0  0  0  0  0  0  0  0  0
    1.9458   -3.2230   -1.0432 C   0  0  0  0  0  0  0  0  0  0  0  0
    2.2521   -1.7403   -0.8458 C   0  0  0  0  0  0  0  0  0  0  0  0
    1.5408   -0.3981   -0.9273 C   0  0  0  0  0  0  0  0  0  0  0  0
    0.1027   -2.3787   -1.8936 H   0  0  0  0  0  0  0  0  0  0  0  0
    2.0691   -3.6740   -2.0351 H   0  0  0  0  0  0  0  0  0  0  0  0
    2.1474   -3.9863   -0.2855 H   0  0  0  0  0  0  0  0  0  0  0  0
    2.5528   -1.5477    0.1905 H   0  0  0  0  0  0  0  0  0  0  0  0
    3.0524   -1.3926   -1.5053 H   0  0  0  0  0  0  0  0  0  0  0  0
    2.1327    0.4188   -0.5056 H   0  0  0  0  0  0  0  0  0  0  0  0
    1.2759   -0.1509   -1.9611 H   0  0  0  0  0  0  0  0  0  0  0  0
   -0.4699   -4.7369   -0.4787 N   0  0  0  0  0  0  0  0  0  0  0  0
   -0.5730   -6.1745   -0.3713 C   0  0  2  0  0  0  0  0  0  0  0  0
    0.4937   -6.6508    0.6058 C   0  0  0  0  0  0  0  0  0  0  0  0
    1.5058   -6.0021    0.8627 O   0  0  0  0  0  0  0  0  0  0  0  0
   -0.4065   -6.8440   -1.7266 C   0  0  0  0  0  0  0  0  0  0  0  0
   -1.2829   -4.1751   -0.2445 H   0  0  0  0  0  0  0  0  0  0  0  0
   -1.5661   -6.3908    0.0373 H   0  0  0  0  0  0  0  0  0  0  0  0
    0.5827   -6.6386   -2.1518 H   0  0  0  0  0  0  0  0  0  0  0  0
   -0.5133   -7.9309   -1.6480 H   0  0  0  0  0  0  0  0  0  0  0  0
   -1.1560   -6.4782   -2.4367 H   0  0  0  0  0  0  0  0  0  0  0  0
    0.2037   -7.9051    1.1244 N   0  0  0  0  0  0  0  0  0  0  0  0
    1.0690   -8.5793    2.0640 C   0  0  0  0  0  0  0  0  0  0  0  0
   -0.6673   -8.3617    0.8704 H   0  0  0  0  0  0  0  0  0  0  0  0
    1.7686   -9.2291    1.5179 H   0  0  0  0  0  0  0  0  0  0  0  0
    1.6356   -7.8335    2.6408 H   0  0  0  0  0  0  0  0  0  0  0  0
    0.4616   -9.1887    2.7494 H   0  0  0  0  0  0  0  0  0  0  0  0
 18 19  1  0  0  0  0
 19 31  1  0  0  0  0
 19 20  2  0  0  0  0
  8  9  1  0  0  0  0
  9 17  1  0  0  0  0
  9 10  2  0  0  0  0
  1  3  1  0  0  0  0
  1  7  1  0  0  0  0
  1  2  2  0  0  0  0
 32 33  1  0  0  0  0
 33 41  1  0  0  0  0
 33 34  2  0  0  0  0
 21 22  1  0  0  0  0
 22 23  1  0  0  0  0
 18 21  1  0  0  0  0
 17 23  1  0  0  0  0
 17 18  1  0  0  0  0
  8 11  1  0  0  0  0
 32 35  1  0  0  0  0
 41 42  1  0  0  0  0
  7  8  1  0  0  0  0
 31 32  1  0  0  0  0
 22 27  1  0  0  0  0
 22 28  1  0  0  0  0
 21 25  1  0  0  0  0
 21 26  1  0  0  0  0
 23 29  1  0  0  0  0
 23 30  1  0  0  0  0
 18 24  1  0  0  0  0
  3  4  1  0  0  0  0
  3  5  1  0  0  0  0
  3  6  1  0  0  0  0
 11 14  1  0  0  0  0
 11 15  1  0  0  0  0
 11 16  1  0  0  0  0
 35 38  1  0  0  0  0
 35 39  1  0  0  0  0
 35 40  1  0  0  0  0
 42 44  1  0  0  0  0
 42 45  1  0  0  0  0
 42 46  1  0  0  0  0
  8 13  1  0  0  0  0
 32 37  1  0  0  0  0
 31 36  1  0  0  0  0
 41 43  1  0  0  0  0
  7 12  1  0  0  0  0
M  END
$$$$

  -OEChem-05262214473D

 46 46  0     1  0  0  0  0  0999 V2000
   -0.6012   -3.2995    3.8205 C   0  0  0  0  0  0  0  0  0  0  0  0
   -0.6574   -4.4683    3.4568 O   0  0  0  0  0  0  0  0  0  0  0  0
   -0.4935   -2.9859    5.2760 C   0  0  0  0  0  0  0  0  0  0  0  0
   -1.4789   -2.8689    5.7550 H   0  0  0  0  0  0  0  0  0  0  0  0
    0.0123   -3.7847    5.8419 H   0  0  0  0  0  0  0  0  0  0  0  0
    0.0585   -2.0642    5.5199 H   0  0  0  0  0  0  0  0  0  0  0  0
   -0.6261   -2.1849    2.9917 N   0  0  0  0  0  0  0  0  0  0  0  0
   -0.7237   -2.2601    1.5650 C   0  0  2  0  0  0  0  0  0  0  0  0
    0.1695   -1.1513    1.0687 C   0  0  0  0  0  0  0  0  0  0  0  0
    0.3193   -0.1267    1.7365 O   0  0  0  0  0  0  0  0  0  0  0  0
   -2.1397   -2.0663    1.0750 C   0  0  0  0  0  0  0  0  0  0  0  0
   -0.5717   -1.2606    3.4238 H   0  0  0  0  0  0  0  0  0  0  0  0
   -0.3076   -3.2111    1.2363 H   0  0  0  0  0  0  0  0  0  0  0  0
   -2.5584   -1.1089    1.4061 H   0  0  0  0  0  0  0  0  0  0  0  0
   -2.1682   -2.0790   -0.0197 H   0  0  0  0  0  0  0  0  0  0  0  0
   -2.7965   -2.8601    1.4459 H   0  0  0  0  0  0  0  0  0  0  0  0
    0.7724   -1.3745   -0.1593 N   0  0  0  0  0  0  0  0  0  0  0  0
    0.5614   -2.5964   -0.9244 C   0  0  2  0  0  0  0  0  0  0  0  0
   -0.3735   -3.4587   -0.1308 C   0  0  0  0  0  0  0  0  0  0  0  0
   -1.2032   -2.9344    0.6030 O   0  0  0  0  0  0  0  0  0  0  0  0
    1.9458   -3.2230   -1.0432 C   0  0  0  0  0  0  0  0  0  0  0  0
    2.2521   -1.7403   -0.8458 C   0  0  0  0  0  0  0  0  0  0  0  0
    1.5408   -0.3981   -0.9273 C   0  0  0  0  0  0  0  0  0  0  0  0
    0.1027   -2.3787   -1.8936 H   0  0  0  0  0  0  0  0  0  0  0  0
    2.0691   -3.6740   -2.0351 H   0  0  0  0  0  0  0  0  0  0  0  0
    2.1474   -3.9863   -0.2855 H   0  0  0  0  0  0  0  0  0  0  0  0
    2.5528   -1.5477    0.1905 H   0  0  0  0  0  0  0  0  0  0  0  0
    3.0524   -1.3926   -1.5053 H   0  0  0  0  0  0  0  0  0  0  0  0
    2.1327    0.4188   -0.5056 H   0  0  0  0  0  0  0  0  0  0  0  0
    1.2759   -0.1509   -1.9611 H   0  0  0  0  0  0  0  0  0  0  0  0
   -0.2527   -4.7747   -0.2639 N   0  0  0  0  0  0  0  0  0  0  0  0
   -0.1914   -6.1787    0.0737 C   0  0  2  0  0  0  0  0  0  0  0  0
    0.7560   -6.3374    1.2554 C   0  0  0  0  0  0  0  0  0  0  0  0
    1.6249   -5.5136    1.5339 O   0  0  0  0  0  0  0  0  0  0  0  0
    0.2722   -7.0127   -1.1105 C   0  0  0  0  0  0  0  0  0  0  0  0
   -1.1563   -4.3116   -0.2438 H   0  0  0  0  0  0  0  0  0  0  0  0
   -1.2023   -6.4765    0.3727 H   0  0  0  0  0  0  0  0  0  0  0  0
    1.2832   -6.7287   -1.4244 H   0  0  0  0  0  0  0  0  0  0  0  0
    0.2907   -8.0790   -0.8618 H   0  0  0  0  0  0  0  0  0  0  0  0
   -0.3937   -6.8743   -1.9692 H   0  0  0  0  0  0  0  0  0  0  0  0
    0.5456   -7.5280    1.9369 N   0  0  0  0  0  0  0  0  0  0  0  0
    1.3265   -7.9158    3.0883 C   0  0  0  0  0  0  0  0  0  0  0  0
   -0.2097   -8.1425    1.6476 H   0  0  0  0  0  0  0  0  0  0  0  0
    2.1801   -8.5289    2.7635 H   0  0  0  0  0  0  0  0  0  0  0  0
    1.6959   -7.0153    3.6008 H   0  0  0  0  0  0  0  0  0  0  0  0
    0.6981   -8.4985    3.7780 H   0  0  0  0  0  0  0  0  0  0  0  0
 18 19  1  0  0  0  0
 19 31  1  0  0  0  0
 19 20  2  0  0  0  0
  8  9  1  0  0  0  0
  9 17  1  0  0  0  0
  9 10  2  0  0  0  0
  1  3  1  0  0  0  0
  1  7  1  0  0  0  0
  1  2  2  0  0  0  0
 32 33  1  0  0  0  0
 33 41  1  0  0  0  0
 33 34  2  0  0  0  0
 21 22  1  0  0  0  0
 22 23  1  0  0  0  0
 18 21  1  0  0  0  0
 17 23  1  0  0  0  0
 17 18  1  0  0  0  0
  8 11  1  0  0  0  0
 32 35  1  0  0  0  0
 41 42  1  0  0  0  0
  7  8  1  0  0  0  0
 31 32  1  0  0  0  0
 22 27  1  0  0  0  0
 22 28  1  0  0  0  0
 21 25  1  0  0  0  0
 21 26  1  0  0  0  0
 23 29  1  0  0  0  0
 23 30  1  0  0  0  0
 18 24  1  0  0  0  0
  3  4  1  0  0  0  0
  3  5  1  0  0  0  0
  3  6  1  0  0  0  0
 11 14  1  0  0  0  0
 11 15  1  0  0  0  0
 11 16  1  0  0  0  0
 35 38  1  0  0  0  0
 35 39  1  0  0  0  0
 35 40  1  0  0  0  0
 42 44  1  0  0  0  0
 42 45  1  0  0  0  0
 42 46  1  0  0  0  0
  8 13  1  0  0  0  0
 32 37  1  0  0  0  0
 31 36  1  0  0  0  0
 41 43  1  0  0  0  0
  7 12  1  0  0  0  0
M  END
$$$$

  -OEChem-05262214473D

 46 46  0     1  0  0  0  0  0999 V2000
   -0.6012   -3.2995    3.8205 C   0  0  0  0  0  0  0  0  0  0  0  0
   -0.6574   -4.4683    3.4568 O   0  0  0  0  0  0  0  0  0  0  0  0
   -0.4935   -2.9859    5.2760 C   0  0  0  0  0  0  0  0  0  0  0  0
   -1.4789   -2.8689    5.7550 H   0  0  0  0  0  0  0  0  0  0  0  0
    0.0123   -3.7847    5.8419 H   0  0  0  0  0  0  0  0  0  0  0  0
    0.0585   -2.0642    5.5199 H   0  0  0  0  0  0  0  0  0  0  0  0
   -0.6261   -2.1849    2.9917 N   0  0  0  0  0  0  0  0  0  0  0  0
   -0.7237   -2.2601    1.5650 C   0  0  2  0  0  0  0  0  0  0  0  0
    0.1695   -1.1513    1.0687 C   0  0  0  0  0  0  0  0  0  0  0  0
    0.3193   -0.1267    1.7365 O   0  0  0  0  0  0  0  0  0  0  0  0
   -2.1397   -2.0663    1.0750 C   0  0  0  0  0  0  0  0  0  0  0  0
   -0.5717   -1.2606    3.4238 H   0  0  0  0  0  0  0  0  0  0  0  0
   -0.3076   -3.2111    1.2363 H   0  0  0  0  0  0  0  0  0  0  0  0
   -2.5584   -1.1089    1.4061 H   0  0  0  0  0  0  0  0  0  0  0  0
   -2.1682   -2.0790   -0.0197 H   0  0  0  0  0  0  0  0  0  0  0  0
   -2.7965   -2.8601    1.4459 H   0  0  0  0  0  0  0  0  0  0  0  0
    0.7724   -1.3745   -0.1593 N   0  0  0  0  0  0  0  0  0  0  0  0
    0.5614   -2.5964   -0.9244 C   0  0  2  0  0  0  0  0  0  0  0  0
   -0.3735   -3.4587   -0.1308 C   0  0  0  0  0  0  0  0  0  0  0  0
   -1.3688   -2.9593    0.3807 O   0  0  0  0  0  0  0  0  0  0  0  0
    1.9458   -3.2230   -1.0432 C   0  0  0  0  0  0  0  0  0  0  0  0
    2.2521   -1.7403   -0.8458 C   0  0  0  0  0  0  0  0  0  0  0  0
    1.5408   -0.3981   -0.9273 C   0  0  0  0  0  0  0  0  0  0  0  0
    0.1027   -2.3787   -1.8936 H   0  0  0  0  0  0  0  0  0  0  0  0
    2.0691   -3.6740   -2.0351 H   0  0  0  0  0  0  0  0  0  0  0  0
    2.1474   -3.9863   -0.2855 H   0  0  0  0  0  0  0  0  0  0  0  0
    2.5528   -1.5477    0.1905 H   0  0  0  0  0  0  0  0  0  0  0  0
    3.0524   -1.3926   -1.5053 H   0  0  0  0  0  0  0  0  0  0  0  0
    2.1327    0.4188   -0.5056 H   0  0  0  0  0  0  0  0  0  0  0  0
    1.2759   -0.1509   -1.9611 H   0  0  0  0  0  0  0  0  0  0  0  0
   -0.0697   -4.7467   -0.0179 N   0  0  0  0  0  0  0  0  0  0  0  0
    0.1115   -6.0586    0.5610 C   0  0  2  0  0  0  0  0  0  0  0  0
    0.8698   -5.8938    1.8714 C   0  0  0  0  0  0  0  0  0  0  0  0
    1.5732   -4.9171    2.1211 O   0  0  0  0  0  0  0  0  0  0  0  0
    0.8591   -6.9833   -0.3871 C   0  0  0  0  0  0  0  0  0  0  0  0
   -1.0155   -4.4261   -0.2023 H   0  0  0  0  0  0  0  0  0  0  0  0
   -0.8891   -6.4553    0.7647 H   0  0  0  0  0  0  0  0  0  0  0  0
    1.8639   -6.6023   -0.6030 H   0  0  0  0  0  0  0  0  0  0  0  0
    0.9704   -7.9849    0.0412 H   0  0  0  0  0  0  0  0  0  0  0  0
    0.3273   -7.0771   -1.3401 H   0  0  0  0  0  0  0  0  0  0  0  0
    0.7032   -6.9858    2.7117 N   0  0  0  0  0  0  0  0  0  0  0  0
    1.3318   -7.0743    4.0090 C   0  0  0  0  0  0  0  0  0  0  0  0
    0.0866   -7.7427    2.4311 H   0  0  0  0  0  0  0  0  0  0  0  0
    2.2961   -7.5951    3.9149 H   0  0  0  0  0  0  0  0  0  0  0  0
    1.4991   -6.0618    4.4051 H   0  0  0  0  0  0  0  0  0  0  0  0
    0.6788   -7.6333    4.6953 H   0  0  0  0  0  0  0  0  0  0  0  0
 18 19  1  0  0  0  0
 19 31  1  0  0  0  0
 19 20  2  0  0  0  0
  8  9  1  0  0  0  0
  9 17  1  0  0  0  0
  9 10  2  0  0  0  0
  1  3  1  0  0  0  0
  1  7  1  0  0  0  0
  1  2  2  0  0  0  0
 32 33  1  0  0  0  0
 33 41  1  0  0  0  0
 33 34  2  0  0  0  0
 21 22  1  0  0  0  0
 22 23  1  0  0  0  0
 18 21  1  0  0  0  0
 17 23  1  0  0  0  0
 17 18  1  0  0  0  0
  8 11  1  0  0  0  0
 32 35  1  0  0  0  0
 41 42  1  0  0  0  0
  7  8  1  0  0  0  0
 31 32  1  0  0  0  0
 22 27  1  0  0  0  0
 22 28  1  0  0  0  0
 21 25  1  0  0  0  0
 21 26  1  0  0  0  0
 23 29  1  0  0  0  0
 23 30  1  0  0  0  0
 18 24  1  0  0  0  0
  3  4  1  0  0  0  0
  3  5  1  0  0  0  0
  3  6  1  0  0  0  0
 11 14  1  0  0  0  0
 11 15  1  0  0  0  0
 11 16  1  0  0  0  0
 35 38  1  0  0  0  0
 35 39  1  0  0  0  0
 35 40  1  0  0  0  0
 42 44  1  0  0  0  0
 42 45  1  0  0  0  0
 42 46  1  0  0  0  0
  8 13  1  0  0  0  0
 32 37  1  0  0  0  0
 31 36  1  0  0  0  0
 41 43  1  0  0  0  0
  7 12  1  0  0  0  0
M  END
$$$$

  -OEChem-05262214473D

 46 46  0     1  0  0  0  0  0999 V2000
   -0.6012   -3.2995    3.8205 C   0  0  0  0  0  0  0  0  0  0  0  0
   -0.6574   -4.4683    3.4568 O   0  0  0  0  0  0  0  0  0  0  0  0
   -0.4935   -2.9859    5.2760 C   0  0  0  0  0  0  0  0  0  0  0  0
   -1.4789   -2.8689    5.7550 H   0  0  0  0  0  0  0  0  0  0  0  0
    0.0123   -3.7847    5.8419 H   0  0  0  0  0  0  0  0  0  0  0  0
    0.0585   -2.0642    5.5199 H   0  0  0  0  0  0  0  0  0  0  0  0
   -0.6261   -2.1849    2.9917 N   0  0  0  0  0  0  0  0  0  0  0  0
   -0.7237   -2.2601    1.5650 C   0  0  2  0  0  0  0  0  0  0  0  0
    0.1695   -1.1513    1.0687 C   0  0  0  0  0  0  0  0  0  0  0  0
    0.3193   -0.1267    1.7365 O   0  0  0  0  0  0  0  0  0  0  0  0
   -2.1397   -2.0663    1.0750 C   0  0  0  0  0  0  0  0  0  0  0  0
   -0.5717   -1.2606    3.4238 H   0  0  0  0  0  0  0  0  0  0  0  0
   -0.3076   -3.2111    1.2363 H   0  0  0  0  0  0  0  0  0  0  0  0
   -2.5584   -1.1089    1.4061 H   0  0  0  0  0  0  0  0  0  0  0  0
   -2.1682   -2.0790   -0.0197 H   0  0  0  0  0  0  0  0  0  0  0  0
   -2.7965   -2.8601    1.4459 H   0  0  0  0  0  0  0  0  0  0  0  0
    0.7724   -1.3745   -0.1593 N   0  0  0  0  0  0  0  0  0  0  0  0
    0.5614   -2.5964   -0.9244 C   0  0  2  0  0  0  0  0  0  0  0  0
   -0.3735   -3.4587   -0.1308 C   0  0  0  0  0  0  0  0  0  0  0  0
   -1.4923   -3.0420    0.1454 O   0  0  0  0  0  0  0  0  0  0  0  0
    1.9458   -3.2230   -1.0432 C   0  0  0  0  0  0  0  0  0  0  0  0
    2.2521   -1.7403   -0.8458 C   0  0  0  0  0  0  0  0  0  0  0  0
    1.5408   -0.3981   -0.9273 C   0  0  0  0  0  0  0  0  0  0  0  0
    0.1027   -2.3787   -1.8936 H   0  0  0  0  0  0  0  0  0  0  0  0
    2.0691   -3.6740   -2.0351 H   0  0  0  0  0  0  0  0  0  0  0  0
    2.1474   -3.9863   -0.2855 H   0  0  0  0  0  0  0  0  0  0  0  0
    2.5528   -1.5477    0.1905 H   0  0  0  0  0  0  0  0  0  0  0  0
    3.0524   -1.3926   -1.5053 H   0  0  0  0  0  0  0  0  0  0  0  0
    2.1327    0.4188   -0.5056 H   0  0  0  0  0  0  0  0  0  0  0  0
    1.2759   -0.1509   -1.9611 H   0  0  0  0  0  0  0  0  0  0  0  0
    0.0666   -4.6550    0.2424 N   0  0  0  0  0  0  0  0  0  0  0  0
    0.3150   -5.8225    1.0574 C   0  0  2  0  0  0  0  0  0  0  0  0
    0.8272   -5.3504    2.4117 C   0  0  0  0  0  0  0  0  0  0  0  0
    1.3540   -4.2533    2.5843 O   0  0  0  0  0  0  0  0  0  0  0  0
    1.3143   -6.7577    0.3943 C   0  0  0  0  0  0  0  0  0  0  0  0
   -0.8700   -4.5106   -0.1227 H   0  0  0  0  0  0  0  0  0  0  0  0
   -0.6478   -6.3287    1.1866 H   0  0  0  0  0  0  0  0  0  0  0  0
    2.2852   -6.2680    0.2565 H   0  0  0  0  0  0  0  0  0  0  0  0
    1.4797   -7.6552    0.9995 H   0  0  0  0  0  0  0  0  0  0  0  0
    0.9579   -7.0727   -0.5924 H   0  0  0  0  0  0  0  0  0  0  0  0
    0.6657   -6.3154    3.3960 N   0  0  0  0  0  0  0  0  0  0  0  0
    1.0846   -6.1122    4.7632 C   0  0  0  0  0  0  0  0  0  0  0  0
    0.2014   -7.1894    3.1675 H   0  0  0  0  0  0  0  0  0  0  0  0
    2.1089   -6.4913    4.8937 H   0  0  0  0  0  0  0  0  0  0  0  0
    1.0586   -5.0380    4.9987 H   0  0  0  0  0  0  0  0  0  0  0  0
    0.4050   -6.6522    5.4389 H   0  0  0  0  0  0  0  0  0  0  0  0
 18 19  1  0  0  0  0
 19 31  1  0  0  0  0
 19 20  2  0  0  0  0
  8  9  1  0  0  0  0
  9 17  1  0  0  0  0
  9 10  2  0  0  0  0
  1  3  1  0  0  0  0
  1  7  1  0  0  0  0
  1  2  2  0  0  0  0
 32 33  1  0  0  0  0
 33 41  1  0  0  0  0
 33 34  2  0  0  0  0
 21 22  1  0  0  0  0
 22 23  1  0  0  0  0
 18 21  1  0  0  0  0
 17 23  1  0  0  0  0
 17 18  1  0  0  0  0
  8 11  1  0  0  0  0
 32 35  1  0  0  0  0
 41 42  1  0  0  0  0
  7  8  1  0  0  0  0
 31 32  1  0  0  0  0
 22 27  1  0  0  0  0
 22 28  1  0  0  0  0
 21 25  1  0  0  0  0
 21 26  1  0  0  0  0
 23 29  1  0  0  0  0
 23 30  1  0  0  0  0
 18 24  1  0  0  0  0
  3  4  1  0  0  0  0
  3  5  1  0  0  0  0
  3  6  1  0  0  0  0
 11 14  1  0  0  0  0
 11 15  1  0  0  0  0
 11 16  1  0  0  0  0
 35 38  1  0  0  0  0
 35 39  1  0  0  0  0
 35 40  1  0  0  0  0
 42 44  1  0  0  0  0
 42 45  1  0  0  0  0
 42 46  1  0  0  0  0
  8 13  1  0  0  0  0
 32 37  1  0  0  0  0
 31 36  1  0  0  0  0
 41 43  1  0  0  0  0
  7 12  1  0  0  0  0
M  END
$$$$

  -OEChem-05262214473D

 46 46  0     1  0  0  0  0  0999 V2000
   -0.6012   -3.2995    3.8205 C   0  0  0  0  0  0  0  0  0  0  0  0
   -0.6574   -4.4683    3.4568 O   0  0  0  0  0  0  0  0  0  0  0  0
   -0.4935   -2.9859    5.2760 C   0  0  0  0  0  0  0  0  0  0  0  0
   -1.4789   -2.8689    5.7550 H   0  0  0  0  0  0  0  0  0  0  0  0
    0.0123   -3.7847    5.8419 H   0  0  0  0  0  0  0  0  0  0  0  0
    0.0585   -2.0642    5.5199 H   0  0  0  0  0  0  0  0  0  0  0  0
   -0.6261   -2.1849    2.9917 N   0  0  0  0  0  0  0  0  0  0  0  0
   -0.7237   -2.2601    1.5650 C   0  0  2  0  0  0  0  0  0  0  0  0
    0.1695   -1.1513    1.0687 C   0  0  0  0  0  0  0  0  0  0  0  0
    0.3193   -0.1267    1.7365 O   0  0  0  0  0  0  0  0  0  0  0  0
   -2.1397   -2.0663    1.0750 C   0  0  0  0  0  0  0  0  0  0  0  0
   -0.5717   -1.2606    3.4238 H   0  0  0  0  0  0  0  0  0  0  0  0
   -0.3076   -3.2111    1.2363 H   0  0  0  0  0  0  0  0  0  0  0  0
   -2.5584   -1.1089    1.4061 H   0  0  0  0  0  0  0  0  0  0  0  0
   -2.1682   -2.0790   -0.0197 H   0  0  0  0  0  0  0  0  0  0  0  0
   -2.7965   -2.8601    1.4459 H   0  0  0  0  0  0  0  0  0  0  0  0
    0.7724   -1.3745   -0.1593 N   0  0  0  0  0  0  0  0  0  0  0  0
    0.5614   -2.5964   -0.9244 C   0  0  2  0  0  0  0  0  0  0  0  0
   -0.3735   -3.4587   -0.1308 C   0  0  0  0  0  0  0  0  0  0  0  0
   -1.5653   -3.1767   -0.0869 O   0  0  0  0  0  0  0  0  0  0  0  0
    1.9458   -3.2230   -1.0432 C   0  0  0  0  0  0  0  0  0  0  0  0
    2.2521   -1.7403   -0.8458 C   0  0  0  0  0  0  0  0  0  0  0  0
    1.5408   -0.3981   -0.9273 C   0  0  0  0  0  0  0  0  0  0  0  0
    0.1027   -2.3787   -1.8936 H   0  0  0  0  0  0  0  0  0  0  0  0
    2.0691   -3.6740   -2.0351 H   0  0  0  0  0  0  0  0  0  0  0  0
    2.1474   -3.9863   -0.2855 H   0  0  0  0  0  0  0  0  0  0  0  0
    2.5528   -1.5477    0.1905 H   0  0  0  0  0  0  0  0  0  0  0  0
    3.0524   -1.3926   -1.5053 H   0  0  0  0  0  0  0  0  0  0  0  0
    2.1327    0.4188   -0.5056 H   0  0  0  0  0  0  0  0  0  0  0  0
    1.2759   -0.1509   -1.9611 H   0  0  0  0  0  0  0  0  0  0  0  0
    0.1470   -4.5057    0.4993 N   0  0  0  0  0  0  0  0  0  0  0  0
    0.4054   -5.4864    1.5290 C   0  0  2  0  0  0  0  0  0  0  0  0
    0.6311   -4.7441    2.8395 C   0  0  0  0  0  0  0  0  0  0  0  0
    0.9825   -3.5673    2.8920 O   0  0  0  0  0  0  0  0  0  0  0  0
    1.6067   -6.3513    1.1804 C   0  0  0  0  0  0  0  0  0  0  0  0
   -0.7297   -4.5595   -0.0105 H   0  0  0  0  0  0  0  0  0  0  0  0
   -0.4949   -6.1052    1.6095 H   0  0  0  0  0  0  0  0  0  0  0  0
    2.5184   -5.7487    1.0955 H   0  0  0  0  0  0  0  0  0  0  0  0
    1.7838   -7.1122    1.9477 H   0  0  0  0  0  0  0  0  0  0  0  0
    1.4551   -6.8613    0.2230 H   0  0  0  0  0  0  0  0  0  0  0  0
    0.4358   -5.5625    3.9433 N   0  0  0  0  0  0  0  0  0  0  0  0
    0.6017   -5.0949    5.2997 C   0  0  0  0  0  0  0  0  0  0  0  0
    0.1268   -6.5204    3.8066 H   0  0  0  0  0  0  0  0  0  0  0  0
    1.6311   -5.2929    5.6330 H   0  0  0  0  0  0  0  0  0  0  0  0
    0.4045   -4.0135    5.3413 H   0  0  0  0  0  0  0  0  0  0  0  0
   -0.1045   -5.6220    5.9580 H   0  0  0  0  0  0  0  0  0  0  0  0
 18 19  1  0  0  0  0
 19 31  1  0  0  0  0
 19 20  2  0  0  0  0
  8  9  1  0  0  0  0
  9 17  1  0  0  0  0
  9 10  2  0  0  0  0
  1  3  1  0  0  0  0
  1  7  1  0  0  0  0
  1  2  2  0  0  0  0
 32 33  1  0  0  0  0
 33 41  1  0  0  0  0
 33 34  2  0  0  0  0
 21 22  1  0  0  0  0
 22 23  1  0  0  0  0
 18 21  1  0  0  0  0
 17 23  1  0  0  0  0
 17 18  1  0  0  0  0
  8 11  1  0  0  0  0
 32 35  1  0  0  0  0
 41 42  1  0  0  0  0
  7  8  1  0  0  0  0
 31 32  1  0  0  0  0
 22 27  1  0  0  0  0
 22 28  1  0  0  0  0
 21 25  1  0  0  0  0
 21 26  1  0  0  0  0
 23 29  1  0  0  0  0
 23 30  1  0  0  0  0
 18 24  1  0  0  0  0
  3  4  1  0  0  0  0
  3  5  1  0  0  0  0
  3  6  1  0  0  0  0
 11 14  1  0  0  0  0
 11 15  1  0  0  0  0
 11 16  1  0  0  0  0
 35 38  1  0  0  0  0
 35 39  1  0  0  0  0
 35 40  1  0  0  0  0
 42 44  1  0  0  0  0
 42 45  1  0  0  0  0
 42 46  1  0  0  0  0
  8 13  1  0  0  0  0
 32 37  1  0  0  0  0
 31 36  1  0  0  0  0
 41 43  1  0  0  0  0
  7 12  1  0  0  0  0
M  END
$$$$

  -OEChem-05262214473D

 46 46  0     1  0  0  0  0  0999 V2000
   -0.6012   -3.2995    3.8205 C   0  0  0  0  0  0  0  0  0  0  0  0
   -0.6574   -4.4683    3.4568 O   0  0  0  0  0  0  0  0  0  0  0  0
   -0.4935   -2.9859    5.2760 C   0  0  0  0  0  0  0  0  0  0  0  0
   -1.4789   -2.8689    5.7550 H   0  0  0  0  0  0  0  0  0  0  0  0
    0.0123   -3.7847    5.8419 H   0  0  0  0  0  0  0  0  0  0  0  0
    0.0585   -2.0642    5.5199 H   0  0  0  0  0  0  0  0  0  0  0  0
   -0.6261   -2.1849    2.9917 N   0  0  0  0  0  0  0  0  0  0  0  0
   -0.7237   -2.2601    1.5650 C   0  0  2  0  0  0  0  0  0  0  0  0
    0.1695   -1.1513    1.0687 C   0  0  0  0  0  0  0  0  0  0  0  0
    0.3193   -0.1267    1.7365 O   0  0  0  0  0  0  0  0  0  0  0  0
   -2.1397   -2.0663    1.0750 C   0  0  0  0  0  0  0  0  0  0  0  0
   -0.5717   -1.2606    3.4238 H   0  0  0  0  0  0  0  0  0  0  0  0
   -0.3076   -3.2111    1.2363 H   0  0  0  0  0  0  0  0  0  0  0  0
   -2.5584   -1.1089    1.4061 H   0  0  0  0  0  0  0  0  0  0  0  0
   -2.1682   -2.0790   -0.0197 H   0  0  0  0  0  0  0  0  0  0  0  0
   -2.7965   -2.8601    1.4459 H   0  0  0  0  0  0  0  0  0  0  0  0
    0.7724   -1.3745   -0.1593 N   0  0  0  0  0  0  0  0  0  0  0  0
    0.5614   -2.5964   -0.9244 C   0  0  2  0  0  0  0  0  0  0  0  0
   -0.3735   -3.4587   -0.1308 C   0  0  0  0  0  0  0  0  0  0  0  0
   -1.5827   -3.3544   -0.3005 O   0  0  0  0  0  0  0  0  0  0  0  0
    1.9458   -3.2230   -1.0432 C   0  0  0  0  0  0  0  0  0  0  0  0
    2.2521   -1.7403   -0.8458 C   0  0  0  0  0  0  0  0  0  0  0  0
    1.5408   -0.3981   -0.9273 C   0  0  0  0  0  0  0  0  0  0  0  0
    0.1027   -2.3787   -1.8936 H   0  0  0  0  0  0  0  0  0  0  0  0
    2.0691   -3.6740   -2.0351 H   0  0  0  0  0  0  0  0  0  0  0  0
    2.1474   -3.9863   -0.2855 H   0  0  0  0  0  0  0  0  0  0  0  0
    2.5528   -1.5477    0.1905 H   0  0  0  0  0  0  0  0  0  0  0  0
    3.0524   -1.3926   -1.5053 H   0  0  0  0  0  0  0  0  0  0  0  0
    2.1327    0.4188   -0.5056 H   0  0  0  0  0  0  0  0  0  0  0  0
    1.2759   -0.1509   -1.9611 H   0  0  0  0  0  0  0  0  0  0  0  0
    0.1659   -4.3090    0.7353 N   0  0  0  0  0  0  0  0  0  0  0  0
    0.3765   -5.0733    1.9438 C   0  0  2  0  0  0  0  0  0  0  0  0
    0.2949   -4.1162    3.1258 C   0  0  0  0  0  0  0  0  0  0  0  0
    0.4838   -2.9059    3.0231 O   0  0  0  0  0  0  0  0  0  0  0  0
    1.7165   -5.7918    1.9177 C   0  0  0  0  0  0  0  0  0  0  0  0
   -0.6042   -4.5694    0.1266 H   0  0  0  0  0  0  0  0  0  0  0  0
   -0.4408   -5.8002    2.0047 H   0  0  0  0  0  0  0  0  0  0  0  0
    2.5475   -5.0797    1.8568 H   0  0  0  0  0  0  0  0  0  0  0  0
    1.8620   -6.3931    2.8212 H   0  0  0  0  0  0  0  0  0  0  0  0
    1.7849   -6.4574    1.0505 H   0  0  0  0  0  0  0  0  0  0  0  0
    0.0291   -4.7784    4.3161 N   0  0  0  0  0  0  0  0  0  0  0  0
   -0.0840   -4.0919    5.5818 C   0  0  0  0  0  0  0  0  0  0  0  0
   -0.1320   -5.7813    4.3048 H   0  0  0  0  0  0  0  0  0  0  0  0
    0.8953   -4.0814    6.0826 H   0  0  0  0  0  0  0  0  0  0  0  0
   -0.4187   -3.0583    5.4095 H   0  0  0  0  0  0  0  0  0  0  0  0
   -0.8152   -4.6129    6.2173 H   0  0  0  0  0  0  0  0  0  0  0  0
 18 19  1  0  0  0  0
 19 31  1  0  0  0  0
 19 20  2  0  0  0  0
  8  9  1  0  0  0  0
  9 17  1  0  0  0  0
  9 10  2  0  0  0  0
  1  3  1  0  0  0  0
  1  7  1  0  0  0  0
  1  2  2  0  0  0  0
 32 33  1  0  0  0  0
 33 41  1  0  0  0  0
 33 34  2  0  0  0  0
 21 22  1  0  0  0  0
 22 23  1  0  0  0  0
 18 21  1  0  0  0  0
 17 23  1  0  0  0  0
 17 18  1  0  0  0  0
  8 11  1  0  0  0  0
 32 35  1  0  0  0  0
 41 42  1  0  0  0  0
  7  8  1  0  0  0  0
 31 32  1  0  0  0  0
 22 27  1  0  0  0  0
 22 28  1  0  0  0  0
 21 25  1  0  0  0  0
 21 26  1  0  0  0  0
 23 29  1  0  0  0  0
 23 30  1  0  0  0  0
 18 24  1  0  0  0  0
  3  4  1  0  0  0  0
  3  5  1  0  0  0  0
  3  6  1  0  0  0  0
 11 14  1  0  0  0  0
 11 15  1  0  0  0  0
 11 16  1  0  0  0  0
 35 38  1  0  0  0  0
 35 39  1  0  0  0  0
 35 40  1  0  0  0  0
 42 44  1  0  0  0  0
 42 45  1  0  0  0  0
 42 46  1  0  0  0  0
  8 13  1  0  0  0  0
 32 37  1  0  0  0  0
 31 36  1  0  0  0  0
 41 43  1  0  0  0  0
  7 12  1  0  0  0  0
M  END
$$$$

  -OEChem-05262214473D

 46 46  0     1  0  0  0  0  0999 V2000
   -0.6012   -3.2995    3.8205 C   0  0  0  0  0  0  0  0  0  0  0  0
   -0.6574   -4.4683    3.4568 O   0  0  0  0  0  0  0  0  0  0  0  0
   -0.4935   -2.9859    5.2760 C   0  0  0  0  0  0  0  0  0  0  0  0
   -1.4789   -2.8689    5.7550 H   0  0  0  0  0  0  0  0  0  0  0  0
    0.0123   -3.7847    5.8419 H   0  0  0  0  0  0  0  0  0  0  0  0
    0.0585   -2.0642    5.5199 H   0  0  0  0  0  0  0  0  0  0  0  0
   -0.6261   -2.1849    2.9917 N   0  0  0  0  0  0  0  0  0  0  0  0
   -0.7237   -2.2601    1.5650 C   0  0  2  0  0  0  0  0  0  0  0  0
    0.1695   -1.1513    1.0687 C   0  0  0  0  0  0  0  0  0  0  0  0
    0.3193   -0.1267    1.7365 O   0  0  0  0  0  0  0  0  0  0  0  0
   -2.1397   -2.0663    1.0750 C   0  0  0  0  0  0  0  0  0  0  0  0
   -0.5717   -1.2606    3.4238 H   0  0  0  0  0  0  0  0  0  0  0  0
   -0.3076   -3.2111    1.2363 H   0  0  0  0  0  0  0  0  0  0  0  0
   -2.5584   -1.1089    1.4061 H   0  0  0  0  0  0  0  0  0  0  0  0
   -2.1682   -2.0790   -0.0197 H   0  0  0  0  0  0  0  0  0  0  0  0
   -2.7965   -2.8601    1.4459 H   0  0  0  0  0  0  0  0  0  0  0  0
    0.7724   -1.3745   -0.1593 N   0  0  0  0  0  0  0  0  0  0  0  0
    0.5614   -2.5964   -0.9244 C   0  0  2  0  0  0  0  0  0  0  0  0
   -0.3735   -3.4587   -0.1308 C   0  0  0  0  0  0  0  0  0  0  0  0
   -1.5433   -3.5628   -0.4806 O   0  0  0  0  0  0  0  0  0  0  0  0
    1.9458   -3.2230   -1.0432 C   0  0  0  0  0  0  0  0  0  0  0  0
    2.2521   -1.7403   -0.8458 C   0  0  0  0  0  0  0  0  0  0  0  0
    1.5408   -0.3981   -0.9273 C   0  0  0  0  0  0  0  0  0  0  0  0
    0.1027   -2.3787   -1.8936 H   0  0  0  0  0  0  0  0  0  0  0  0
    2.0691   -3.6740   -2.0351 H   0  0  0  0  0  0  0  0  0  0  0  0
    2.1474   -3.9863   -0.2855 H   0  0  0  0  0  0  0  0  0  0  0  0
    2.5528   -1.5477    0.1905 H   0  0  0  0  0  0  0  0  0  0  0  0
    3.0524   -1.3926   -1.5053 H   0  0  0  0  0  0  0  0  0  0  0  0
    2.1327    0.4188   -0.5056 H   0  0  0  0  0  0  0  0  0  0  0  0
    1.2759   -0.1509   -1.9611 H   0  0  0  0  0  0  0  0  0  0  0  0
    0.1221   -4.0783    0.9344 N   0  0  0  0  0  0  0  0  0  0  0  0
    0.2301   -4.6112    2.2735 C   0  0  2  0  0  0  0  0  0  0  0  0
   -0.1584   -3.5096    3.2508 C   0  0  0  0  0  0  0  0  0  0  0  0
   -0.1081   -2.3142    2.9688 O   0  0  0  0  0  0  0  0  0  0  0  0
    1.6361   -5.1174    2.5559 C   0  0  0  0  0  0  0  0  0  0  0  0
   -0.5020   -4.5396    0.2793 H   0  0  0  0  0  0  0  0  0  0  0  0
   -0.4892   -5.4343    2.3453 H   0  0  0  0  0  0  0  0  0  0  0  0
    2.3707   -4.3066    2.4885 H   0  0  0  0  0  0  0  0  0  0  0  0
    1.7089   -5.5467    3.5606 H   0  0  0  0  0  0  0  0  0  0  0  0
    1.9251   -5.8885    1.8337 H   0  0  0  0  0  0  0  0  0  0  0  0
   -0.5266   -4.0166    4.4892 N   0  0  0  0  0  0  0  0  0  0  0  0
   -0.9257   -3.1715    5.5903 C   0  0  0  0  0  0  0  0  0  0  0  0
   -0.5575   -5.0223    4.6283 H   0  0  0  0  0  0  0  0  0  0  0  0
   -0.0483   -2.9394    6.2118 H   0  0  0  0  0  0  0  0  0  0  0  0
   -1.3548   -2.2374    5.1986 H   0  0  0  0  0  0  0  0  0  0  0  0
   -1.6784   -3.6938    6.1991 H   0  0  0  0  0  0  0  0  0  0  0  0
 18 19  1  0  0  0  0
 19 31  1  0  0  0  0
 19 20  2  0  0  0  0
  8  9  1  0  0  0  0
  9 17  1  0  0  0  0
  9 10  2  0  0  0  0
  1  3  1  0  0  0  0
  1  7  1  0  0  0  0
  1  2  2  0  0  0  0
 32 33  1  0  0  0  0
 33 41  1  0  0  0  0
 33 34  2  0  0  0  0
 21 22  1  0  0  0  0
 22 23  1  0  0  0  0
 18 21  1  0  0  0  0
 17 23  1  0  0  0  0
 17 18  1  0  0  0  0
  8 11  1  0  0  0  0
 32 35  1  0  0  0  0
 41 42  1  0  0  0  0
  7  8  1  0  0  0  0
 31 32  1  0  0  0  0
 22 27  1  0  0  0  0
 22 28  1  0  0  0  0
 21 25  1  0  0  0  0
 21 26  1  0  0  0  0
 23 29  1  0  0  0  0
 23 30  1  0  0  0  0
 18 24  1  0  0  0  0
  3  4  1  0  0  0  0
  3  5  1  0  0  0  0
  3  6  1  0  0  0  0
 11 14  1  0  0  0  0
 11 15  1  0  0  0  0
 11 16  1  0  0  0  0
 35 38  1  0  0  0  0
 35 39  1  0  0  0  0
 35 40  1  0  0  0  0
 42 44  1  0  0  0  0
 42 45  1  0  0  0  0
 42 46  1  0  0  0  0
  8 13  1  0  0  0  0
 32 37  1  0  0  0  0
 31 36  1  0  0  0  0
 41 43  1  0  0  0  0
  7 12  1  0  0  0  0
M  END
$$$$

  -OEChem-05262214473D

 46 46  0     1  0  0  0  0  0999 V2000
   -0.6012   -3.2995    3.8205 C   0  0  0  0  0  0  0  0  0  0  0  0
   -0.6574   -4.4683    3.4568 O   0  0  0  0  0  0  0  0  0  0  0  0
   -0.4935   -2.9859    5.2760 C   0  0  0  0  0  0  0  0  0  0  0  0
   -1.4789   -2.8689    5.7550 H   0  0  0  0  0  0  0  0  0  0  0  0
    0.0123   -3.7847    5.8419 H   0  0  0  0  0  0  0  0  0  0  0  0
    0.0585   -2.0642    5.5199 H   0  0  0  0  0  0  0  0  0  0  0  0
   -0.6261   -2.1849    2.9917 N   0  0  0  0  0  0  0  0  0  0  0  0
   -0.7237   -2.2601    1.5650 C   0  0  2  0  0  0  0  0  0  0  0  0
    0.1695   -1.1513    1.0687 C   0  0  0  0  0  0  0  0  0  0  0  0
    0.3193   -0.1267    1.7365 O   0  0  0  0  0  0  0  0  0  0  0  0
   -2.1397   -2.0663    1.0750 C   0  0  0  0  0  0  0  0  0  0  0  0
   -0.5717   -1.2606    3.4238 H   0  0  0  0  0  0  0  0  0  0  0  0
   -0.3076   -3.2111    1.2363 H   0  0  0  0  0  0  0  0  0  0  0  0
   -2.5584   -1.1089    1.4061 H   0  0  0  0  0  0  0  0  0  0  0  0
   -2.1682   -2.0790   -0.0197 H   0  0  0  0  0  0  0  0  0  0  0  0
   -2.7965   -2.8601    1.4459 H   0  0  0  0  0  0  0  0  0  0  0  0
    0.7724   -1.3745   -0.1593 N   0  0  0  0  0  0  0  0  0  0  0  0
    0.5614   -2.5964   -0.9244 C   0  0  2  0  0  0  0  0  0  0  0  0
   -0.3735   -3.4587   -0.1308 C   0  0  0  0  0  0  0  0  0  0  0  0
   -1.4500   -3.7879   -0.6152 O   0  0  0  0  0  0  0  0  0  0  0  0
    1.9458   -3.2230   -1.0432 C   0  0  0  0  0  0  0  0  0  0  0  0
    2.2521   -1.7403   -0.8458 C   0  0  0  0  0  0  0  0  0  0  0  0
    1.5408   -0.3981   -0.9273 C   0  0  0  0  0  0  0  0  0  0  0  0
    0.1027   -2.3787   -1.8936 H   0  0  0  0  0  0  0  0  0  0  0  0
    2.0691   -3.6740   -2.0351 H   0  0  0  0  0  0  0  0  0  0  0  0
    2.1474   -3.9863   -0.2855 H   0  0  0  0  0  0  0  0  0  0  0  0
    2.5528   -1.5477    0.1905 H   0  0  0  0  0  0  0  0  0  0  0  0
    3.0524   -1.3926   -1.5053 H   0  0  0  0  0  0  0  0  0  0  0  0
    2.1327    0.4188   -0.5056 H   0  0  0  0  0  0  0  0  0  0  0  0
    1.2759   -0.1509   -1.9611 H   0  0  0  0  0  0  0  0  0  0  0  0
    0.0185   -3.8293    1.0829 N   0  0  0  0  0  0  0  0  0  0  0  0
   -0.0236   -4.1317    2.4956 C   0  0  2  0  0  0  0  0  0  0  0  0
   -0.6980   -2.9656    3.2062 C   0  0  0  0  0  0  0  0  0  0  0  0
   -0.7527   -1.8326    2.7327 O   0  0  0  0  0  0  0  0  0  0  0  0
    1.3710   -4.3739    3.0515 C   0  0  0  0  0  0  0  0  0  0  0  0
   -0.4301   -4.4722    0.4373 H   0  0  0  0  0  0  0  0  0  0  0  0
   -0.6367   -5.0325    2.6080 H   0  0  0  0  0  0  0  0  0  0  0  0
    2.0000   -3.4822    2.9476 H   0  0  0  0  0  0  0  0  0  0  0  0
    1.3350   -4.6308    4.1153 H   0  0  0  0  0  0  0  0  0  0  0  0
    1.8658   -5.1934    2.5192 H   0  0  0  0  0  0  0  0  0  0  0  0
   -1.1936   -3.3290    4.4506 N   0  0  0  0  0  0  0  0  0  0  0  0
   -1.8661   -2.3964    5.3246 C   0  0  0  0  0  0  0  0  0  0  0  0
   -1.1206   -4.2954    4.7548 H   0  0  0  0  0  0  0  0  0  0  0  0
   -1.1355   -1.9448    6.0118 H   0  0  0  0  0  0  0  0  0  0  0  0
   -2.3402   -1.6068    4.7230 H   0  0  0  0  0  0  0  0  0  0  0  0
   -2.6355   -2.9271    5.9047 H   0  0  0  0  0  0  0  0  0  0  0  0
 18 19  1  0  0  0  0
 19 31  1  0  0  0  0
 19 20  2  0  0  0  0
  8  9  1  0  0  0  0
  9 17  1  0  0  0  0
  9 10  2  0  0  0  0
  1  3  1  0  0  0  0
  1  7  1  0  0  0  0
  1  2  2  0  0  0  0
 32 33  1  0  0  0  0
 33 41  1  0  0  0  0
 33 34  2  0  0  0  0
 21 22  1  0  0  0  0
 22 23  1  0  0  0  0
 18 21  1  0  0  0  0
 17 23  1  0  0  0  0
 17 18  1  0  0  0  0
  8 11  1  0  0  0  0
 32 35  1  0  0  0  0
 41 42  1  0  0  0  0
  7  8  1  0  0  0  0
 31 32  1  0  0  0  0
 22 27  1  0  0  0  0
 22 28  1  0  0  0  0
 21 25  1  0  0  0  0
 21 26  1  0  0  0  0
 23 29  1  0  0  0  0
 23 30  1  0  0  0  0
 18 24  1  0  0  0  0
  3  4  1  0  0  0  0
  3  5  1  0  0  0  0
  3  6  1  0  0  0  0
 11 14  1  0  0  0  0
 11 15  1  0  0  0  0
 11 16  1  0  0  0  0
 35 38  1  0  0  0  0
 35 39  1  0  0  0  0
 35 40  1  0  0  0  0
 42 44  1  0  0  0  0
 42 45  1  0  0  0  0
 42 46  1  0  0  0  0
  8 13  1  0  0  0  0
 32 37  1  0  0  0  0
 31 36  1  0  0  0  0
 41 43  1  0  0  0  0
  7 12  1  0  0  0  0
M  END
$$$$

  -OEChem-05262214473D

 46 46  0     1  0  0  0  0  0999 V2000
   -0.6012   -3.2995    3.8205 C   0  0  0  0  0  0  0  0  0  0  0  0
   -0.6574   -4.4683    3.4568 O   0  0  0  0  0  0  0  0  0  0  0  0
   -0.4935   -2.9859    5.2760 C   0  0  0  0  0  0  0  0  0  0  0  0
   -1.4789   -2.8689    5.7550 H   0  0  0  0  0  0  0  0  0  0  0  0
    0.0123   -3.7847    5.8419 H   0  0  0  0  0  0  0  0  0  0  0  0
    0.0585   -2.0642    5.5199 H   0  0  0  0  0  0  0  0  0  0  0  0
   -0.6261   -2.1849    2.9917 N   0  0  0  0  0  0  0  0  0  0  0  0
   -0.7237   -2.2601    1.5650 C   0  0  2  0  0  0  0  0  0  0  0  0
    0.1695   -1.1513    1.0687 C   0  0  0  0  0  0  0  0  0  0  0  0
    0.3193   -0.1267    1.7365 O   0  0  0  0  0  0  0  0  0  0  0  0
   -2.1397   -2.0663    1.0750 C   0  0  0  0  0  0  0  0  0  0  0  0
   -0.5717   -1.2606    3.4238 H   0  0  0  0  0  0  0  0  0  0  0  0
   -0.3076   -3.2111    1.2363 H   0  0  0  0  0  0  0  0  0  0  0  0
   -2.5584   -1.1089    1.4061 H   0  0  0  0  0  0  0  0  0  0  0  0
   -2.1682   -2.0790   -0.0197 H   0  0  0  0  0  0  0  0  0  0  0  0
   -2.7965   -2.8601    1.4459 H   0  0  0  0  0  0  0  0  0  0  0  0
    0.7724   -1.3745   -0.1593 N   0  0  0  0  0  0  0  0  0  0  0  0
    0.5614   -2.5964   -0.9244 C   0  0  2  0  0  0  0  0  0  0  0  0
   -0.3735   -3.4587   -0.1308 C   0  0  0  0  0  0  0  0  0  0  0  0
   -1.3089   -4.0142   -0.6949 O   0  0  0  0  0  0  0  0  0  0  0  0
    1.9458   -3.2230   -1.0432 C   0  0  0  0  0  0  0  0  0  0  0  0
    2.2521   -1.7403   -0.8458 C   0  0  0  0  0  0  0  0  0  0  0  0
    1.5408   -0.3981   -0.9273 C   0  0  0  0  0  0  0  0  0  0  0  0
    0.1027   -2.3787   -1.8936 H   0  0  0  0  0  0  0  0  0  0  0  0
    2.0691   -3.6740   -2.0351 H   0  0  0  0  0  0  0  0  0  0  0  0
    2.1474   -3.9863   -0.2855 H   0  0  0  0  0  0  0  0  0  0  0  0
    2.5528   -1.5477    0.1905 H   0  0  0  0  0  0  0  0  0  0  0  0
    3.0524   -1.3926   -1.5053 H   0  0  0  0  0  0  0  0  0  0  0  0
    2.1327    0.4188   -0.5056 H   0  0  0  0  0  0  0  0  0  0  0  0
    1.2759   -0.1509   -1.9611 H   0  0  0  0  0  0  0  0  0  0  0  0
   -0.1377   -3.5790    1.1707 N   0  0  0  0  0  0  0  0  0  0  0  0
   -0.3675   -3.6675    2.5949 C   0  0  2  0  0  0  0  0  0  0  0  0
   -1.2871   -2.5213    2.9950 C   0  0  0  0  0  0  0  0  0  0  0  0
   -1.4063   -1.4938    2.3309 O   0  0  0  0  0  0  0  0  0  0  0  0
    0.9393   -3.6120    3.3707 C   0  0  0  0  0  0  0  0  0  0  0  0
   -0.3934   -4.3717    0.5896 H   0  0  0  0  0  0  0  0  0  0  0  0
   -0.8734   -4.6223    2.7750 H   0  0  0  0  0  0  0  0  0  0  0  0
    1.4606   -2.6625    3.2028 H   0  0  0  0  0  0  0  0  0  0  0  0
    0.7658   -3.7079    4.4476 H   0  0  0  0  0  0  0  0  0  0  0  0
    1.6113   -4.4194    3.0604 H   0  0  0  0  0  0  0  0  0  0  0  0
   -1.9263   -2.7624    4.2031 N   0  0  0  0  0  0  0  0  0  0  0  0
   -2.8412   -1.8194    4.8029 C   0  0  0  0  0  0  0  0  0  0  0  0
   -1.7829   -3.6499    4.6759 H   0  0  0  0  0  0  0  0  0  0  0  0
   -2.2921   -1.1653    5.4962 H   0  0  0  0  0  0  0  0  0  0  0  0
   -3.3075   -1.2094    4.0152 H   0  0  0  0  0  0  0  0  0  0  0  0
   -3.6211   -2.3652    5.3540 H   0  0  0  0  0  0  0  0  0  0  0  0
 18 19  1  0  0  0  0
 19 31  1  0  0  0  0
 19 20  2  0  0  0  0
  8  9  1  0  0  0  0
  9 17  1  0  0  0  0
  9 10  2  0  0  0  0
  1  3  1  0  0  0  0
  1  7  1  0  0  0  0
  1  2  2  0  0  0  0
 32 33  1  0  0  0  0
 33 41  1  0  0  0  0
 33 34  2  0  0  0  0
 21 22  1  0  0  0  0
 22 23  1  0  0  0  0
 18 21  1  0  0  0  0
 17 23  1  0  0  0  0
 17 18  1  0  0  0  0
  8 11  1  0  0  0  0
 32 35  1  0  0  0  0
 41 42  1  0  0  0  0
  7  8  1  0  0  0  0
 31 32  1  0  0  0  0
 22 27  1  0  0  0  0
 22 28  1  0  0  0  0
 21 25  1  0  0  0  0
 21 26  1  0  0  0  0
 23 29  1  0  0  0  0
 23 30  1  0  0  0  0
 18 24  1  0  0  0  0
  3  4  1  0  0  0  0
  3  5  1  0  0  0  0
  3  6  1  0  0  0  0
 11 14  1  0  0  0  0
 11 15  1  0  0  0  0
 11 16  1  0  0  0  0
 35 38  1  0  0  0  0
 35 39  1  0  0  0  0
 35 40  1  0  0  0  0
 42 44  1  0  0  0  0
 42 45  1  0  0  0  0
 42 46  1  0  0  0  0
  8 13  1  0  0  0  0
 32 37  1  0  0  0  0
 31 36  1  0  0  0  0
 41 43  1  0  0  0  0
  7 12  1  0  0  0  0
M  END
$$$$

  -OEChem-05262214473D

 46 46  0     1  0  0  0  0  0999 V2000
   -0.6012   -3.2995    3.8205 C   0  0  0  0  0  0  0  0  0  0  0  0
   -0.6574   -4.4683    3.4568 O   0  0  0  0  0  0  0  0  0  0  0  0
   -0.4935   -2.9859    5.2760 C   0  0  0  0  0  0  0  0  0  0  0  0
   -1.4789   -2.8689    5.7550 H   0  0  0  0  0  0  0  0  0  0  0  0
    0.0123   -3.7847    5.8419 H   0  0  0  0  0  0  0  0  0  0  0  0
    0.0585   -2.0642    5.5199 H   0  0  0  0  0  0  0  0  0  0  0  0
   -0.6261   -2.1849    2.9917 N   0  0  0  0  0  0  0  0  0  0  0  0
   -0.7237   -2.2601    1.5650 C   0  0  2  0  0  0  0  0  0  0  0  0
    0.1695   -1.1513    1.0687 C   0  0  0  0  0  0  0  0  0  0  0  0
    0.3193   -0.1267    1.7365 O   0  0  0  0  0  0  0  0  0  0  0  0
   -2.1397   -2.0663    1.0750 C   0  0  0  0  0  0  0  0  0  0  0  0
   -0.5717   -1.2606    3.4238 H   0  0  0  0  0  0  0  0  0  0  0  0
   -0.3076   -3.2111    1.2363 H   0  0  0  0  0  0  0  0  0  0  0  0
   -2.5584   -1.1089    1.4061 H   0  0  0  0  0  0  0  0  0  0  0  0
   -2.1682   -2.0790   -0.0197 H   0  0  0  0  0  0  0  0  0  0  0  0
   -2.7965   -2.8601    1.4459 H   0  0  0  0  0  0  0  0  0  0  0  0
    0.7724   -1.3745   -0.1593 N   0  0  0  0  0  0  0  0  0  0  0  0
    0.5614   -2.5964   -0.9244 C   0  0  2  0  0  0  0  0  0  0  0  0
   -0.3735   -3.4587   -0.1308 C   0  0  0  0  0  0  0  0  0  0  0  0
   -1.1298   -4.2263   -0.7144 O   0  0  0  0  0  0  0  0  0  0  0  0
    1.9458   -3.2230   -1.0432 C   0  0  0  0  0  0  0  0  0  0  0  0
    2.2521   -1.7403   -0.8458 C   0  0  0  0  0  0  0  0  0  0  0  0
    1.5408   -0.3981   -0.9273 C   0  0  0  0  0  0  0  0  0  0  0  0
    0.1027   -2.3787   -1.8936 H   0  0  0  0  0  0  0  0  0  0  0  0
    2.0691   -3.6740   -2.0351 H   0  0  0  0  0  0  0  0  0  0  0  0
    2.1474   -3.9863   -0.2855 H   0  0  0  0  0  0  0  0  0  0  0  0
    2.5528   -1.5477    0.1905 H   0  0  0  0  0  0  0  0  0  0  0  0
    3.0524   -1.3926   -1.5053 H   0  0  0  0  0  0  0  0  0  0  0  0
    2.1327    0.4188   -0.5056 H   0  0  0  0  0  0  0  0  0  0  0  0
    1.2759   -0.1509   -1.9611 H   0  0  0  0  0  0  0  0  0  0  0  0
   -0.3360   -3.3445    1.1919 N   0  0  0  0  0  0  0  0  0  0  0  0
   -0.7780   -3.2501    2.5648 C   0  0  2  0  0  0  0  0  0  0  0  0
   -1.8856   -2.2069    2.6316 C   0  0  0  0  0  0  0  0  0  0  0  0
   -2.0241   -1.3209    1.7908 O   0  0  0  0  0  0  0  0  0  0  0  0
    0.3705   -2.8838    3.4919 C   0  0  0  0  0  0  0  0  0  0  0  0
   -0.3944   -4.2451    0.7261 H   0  0  0  0  0  0  0  0  0  0  0  0
   -1.1831   -4.2315    2.8348 H   0  0  0  0  0  0  0  0  0  0  0  0
    0.7892   -1.9035    3.2367 H   0  0  0  0  0  0  0  0  0  0  0  0
    0.0401   -2.8407    4.5350 H   0  0  0  0  0  0  0  0  0  0  0  0
    1.1789   -3.6194    3.4204 H   0  0  0  0  0  0  0  0  0  0  0  0
   -2.6748   -2.3554    3.7635 N   0  0  0  0  0  0  0  0  0  0  0  0
   -3.7843   -1.4799    4.0607 C   0  0  0  0  0  0  0  0  0  0  0  0
   -2.4994   -3.1299    4.3969 H   0  0  0  0  0  0  0  0  0  0  0  0
   -3.4394   -0.6540    4.7002 H   0  0  0  0  0  0  0  0  0  0  0  0
   -4.1910   -1.0724    3.1233 H   0  0  0  0  0  0  0  0  0  0  0  0
   -4.5682   -2.0464    4.5847 H   0  0  0  0  0  0  0  0  0  0  0  0
 18 19  1  0  0  0  0
 19 31  1  0  0  0  0
 19 20  2  0  0  0  0
  8  9  1  0  0  0  0
  9 17  1  0  0  0  0
  9 10  2  0  0  0  0
  1  3  1  0  0  0  0
  1  7  1  0  0  0  0
  1  2  2  0  0  0  0
 32 33  1  0  0  0  0
 33 41  1  0  0  0  0
 33 34  2  0  0  0  0
 21 22  1  0  0  0  0
 22 23  1  0  0  0  0
 18 21  1  0  0  0  0
 17 23  1  0  0  0  0
 17 18  1  0  0  0  0
  8 11  1  0  0  0  0
 32 35  1  0  0  0  0
 41 42  1  0  0  0  0
  7  8  1  0  0  0  0
 31 32  1  0  0  0  0
 22 27  1  0  0  0  0
 22 28  1  0  0  0  0
 21 25  1  0  0  0  0
 21 26  1  0  0  0  0
 23 29  1  0  0  0  0
 23 30  1  0  0  0  0
 18 24  1  0  0  0  0
  3  4  1  0  0  0  0
  3  5  1  0  0  0  0
  3  6  1  0  0  0  0
 11 14  1  0  0  0  0
 11 15  1  0  0  0  0
 11 16  1  0  0  0  0
 35 38  1  0  0  0  0
 35 39  1  0  0  0  0
 35 40  1  0  0  0  0
 42 44  1  0  0  0  0
 42 45  1  0  0  0  0
 42 46  1  0  0  0  0
  8 13  1  0  0  0  0
 32 37  1  0  0  0  0
 31 36  1  0  0  0  0
 41 43  1  0  0  0  0
  7 12  1  0  0  0  0
M  END
$$$$

  -OEChem-05262214473D

 46 46  0     1  0  0  0  0  0999 V2000
   -0.6012   -3.2995    3.8205 C   0  0  0  0  0  0  0  0  0  0  0  0
   -0.6574   -4.4683    3.4568 O   0  0  0  0  0  0  0  0  0  0  0  0
   -0.4935   -2.9859    5.2760 C   0  0  0  0  0  0  0  0  0  0  0  0
   -1.4789   -2.8689    5.7550 H   0  0  0  0  0  0  0  0  0  0  0  0
    0.0123   -3.7847    5.8419 H   0  0  0  0  0  0  0  0  0  0  0  0
    0.0585   -2.0642    5.5199 H   0  0  0  0  0  0  0  0  0  0  0  0
   -0.6261   -2.1849    2.9917 N   0  0  0  0  0  0  0  0  0  0  0  0
   -0.7237   -2.2601    1.5650 C   0  0  2  0  0  0  0  0  0  0  0  0
    0.1695   -1.1513    1.0687 C   0  0  0  0  0  0  0  0  0  0  0  0
    0.3193   -0.1267    1.7365 O   0  0  0  0  0  0  0  0  0  0  0  0
   -2.1397   -2.0663    1.0750 C   0  0  0  0  0  0  0  0  0  0  0  0
   -0.5717   -1.2606    3.4238 H   0  0  0  0  0  0  0  0  0  0  0  0
   -0.3076   -3.2111    1.2363 H   0  0  0  0  0  0  0  0  0  0  0  0
   -2.5584   -1.1089    1.4061 H   0  0  0  0  0  0  0  0  0  0  0  0
   -2.1682   -2.0790   -0.0197 H   0  0  0  0  0  0  0  0  0  0  0  0
   -2.7965   -2.8601    1.4459 H   0  0  0  0  0  0  0  0  0  0  0  0
    0.7724   -1.3745   -0.1593 N   0  0  0  0  0  0  0  0  0  0  0  0
    0.5614   -2.5964   -0.9244 C   0  0  2  0  0  0  0  0  0  0  0  0
   -0.3735   -3.4587   -0.1308 C   0  0  0  0  0  0  0  0  0  0  0  0
   -0.9248   -4.4098   -0.6723 O   0  0  0  0  0  0  0  0  0  0  0  0
    1.9458   -3.2230   -1.0432 C   0  0  0  0  0  0  0  0  0  0  0  0
    2.2521   -1.7403   -0.8458 C   0  0  0  0  0  0  0  0  0  0  0  0
    1.5408   -0.3981   -0.9273 C   0  0  0  0  0  0  0  0  0  0  0  0
    0.1027   -2.3787   -1.8936 H   0  0  0  0  0  0  0  0  0  0  0  0
    2.0691   -3.6740   -2.0351 H   0  0  0  0  0  0  0  0  0  0  0  0
    2.1474   -3.9863   -0.2855 H   0  0  0  0  0  0  0  0  0  0  0  0
    2.5528   -1.5477    0.1905 H   0  0  0  0  0  0  0  0  0  0  0  0
    3.0524   -1.3926   -1.5053 H   0  0  0  0  0  0  0  0  0  0  0  0
    2.1327    0.4188   -0.5056 H   0  0  0  0  0  0  0  0  0  0  0  0
    1.2759   -0.1509   -1.9611 H   0  0  0  0  0  0  0  0  0  0  0  0
   -0.5629   -3.1418    1.1450 N   0  0  0  0  0  0  0  0  0  0  0  0
   -1.2272   -2.9082    2.4072 C   0  0  2  0  0  0  0  0  0  0  0  0
   -2.4526   -2.0439    2.1407 C   0  0  0  0  0  0  0  0  0  0  0  0
   -2.5642   -1.3258    1.1493 O   0  0  0  0  0  0  0  0  0  0  0  0
   -0.2968   -2.2387    3.4066 C   0  0  0  0  0  0  0  0  0  0  0  0
   -0.4331   -4.1009    0.8373 H   0  0  0  0  0  0  0  0  0  0  0  0
   -1.5447   -3.8868    2.7834 H   0  0  0  0  0  0  0  0  0  0  0  0
    0.0317   -1.2568    3.0470 H   0  0  0  0  0  0  0  0  0  0  0  0
   -0.7927   -2.0883    4.3713 H   0  0  0  0  0  0  0  0  0  0  0  0
    0.5980   -2.8477    3.5745 H   0  0  0  0  0  0  0  0  0  0  0  0
   -3.3881   -2.1358    3.1618 N   0  0  0  0  0  0  0  0  0  0  0  0
   -4.6314   -1.4010    3.1485 C   0  0  0  0  0  0  0  0  0  0  0  0
   -3.2211   -2.7708    3.9368 H   0  0  0  0  0  0  0  0  0  0  0  0
   -4.4991   -0.4459    3.6780 H   0  0  0  0  0  0  0  0  0  0  0  0
   -4.9303   -1.2050    2.1082 H   0  0  0  0  0  0  0  0  0  0  0  0
   -5.4121   -1.9924    3.6491 H   0  0  0  0  0  0  0  0  0  0  0  0
 18 19  1  0  0  0  0
 19 31  1  0  0  0  0
 19 20  2  0  0  0  0
  8  9  1  0  0  0  0
  9 17  1  0  0  0  0
  9 10  2  0  0  0  0
  1  3  1  0  0  0  0
  1  7  1  0  0  0  0
  1  2  2  0  0  0  0
 32 33  1  0  0  0  0
 33 41  1  0  0  0  0
 33 34  2  0  0  0  0
 21 22  1  0  0  0  0
 22 23  1  0  0  0  0
 18 21  1  0  0  0  0
 17 23  1  0  0  0  0
 17 18  1  0  0  0  0
  8 11  1  0  0  0  0
 32 35  1  0  0  0  0
 41 42  1  0  0  0  0
  7  8  1  0  0  0  0
 31 32  1  0  0  0  0
 22 27  1  0  0  0  0
 22 28  1  0  0  0  0
 21 25  1  0  0  0  0
 21 26  1  0  0  0  0
 23 29  1  0  0  0  0
 23 30  1  0  0  0  0
 18 24  1  0  0  0  0
  3  4  1  0  0  0  0
  3  5  1  0  0  0  0
  3  6  1  0  0  0  0
 11 14  1  0  0  0  0
 11 15  1  0  0  0  0
 11 16  1  0  0  0  0
 35 38  1  0  0  0  0
 35 39  1  0  0  0  0
 35 40  1  0  0  0  0
 42 44  1  0  0  0  0
 42 45  1  0  0  0  0
 42 46  1  0  0  0  0
  8 13  1  0  0  0  0
 32 37  1  0  0  0  0
 31 36  1  0  0  0  0
 41 43  1  0  0  0  0
  7 12  1  0  0  0  0
M  END
$$$$

  -OEChem-05262214473D

 46 46  0     1  0  0  0  0  0999 V2000
   -0.6012   -3.2995    3.8205 C   0  0  0  0  0  0  0  0  0  0  0  0
   -0.6574   -4.4683    3.4568 O   0  0  0  0  0  0  0  0  0  0  0  0
   -0.4935   -2.9859    5.2760 C   0  0  0  0  0  0  0  0  0  0  0  0
   -1.4789   -2.8689    5.7550 H   0  0  0  0  0  0  0  0  0  0  0  0
    0.0123   -3.7847    5.8419 H   0  0  0  0  0  0  0  0  0  0  0  0
    0.0585   -2.0642    5.5199 H   0  0  0  0  0  0  0  0  0  0  0  0
   -0.6261   -2.1849    2.9917 N   0  0  0  0  0  0  0  0  0  0  0  0
   -0.7237   -2.2601    1.5650 C   0  0  2  0  0  0  0  0  0  0  0  0
    0.1695   -1.1513    1.0687 C   0  0  0  0  0  0  0  0  0  0  0  0
    0.3193   -0.1267    1.7365 O   0  0  0  0  0  0  0  0  0  0  0  0
   -2.1397   -2.0663    1.0750 C   0  0  0  0  0  0  0  0  0  0  0  0
   -0.5717   -1.2606    3.4238 H   0  0  0  0  0  0  0  0  0  0  0  0
   -0.3076   -3.2111    1.2363 H   0  0  0  0  0  0  0  0  0  0  0  0
   -2.5584   -1.1089    1.4061 H   0  0  0  0  0  0  0  0  0  0  0  0
   -2.1682   -2.0790   -0.0197 H   0  0  0  0  0  0  0  0  0  0  0  0
   -2.7965   -2.8601    1.4459 H   0  0  0  0  0  0  0  0  0  0  0  0
    0.7724   -1.3745   -0.1593 N   0  0  0  0  0  0  0  0  0  0  0  0
    0.5614   -2.5964   -0.9244 C   0  0  2  0  0  0  0  0  0  0  0  0
   -0.3735   -3.4587   -0.1308 C   0  0  0  0  0  0  0  0  0  0  0  0
   -0.7080   -4.5522   -0.5715 O   0  0  0  0  0  0  0  0  0  0  0  0
    1.9458   -3.2230   -1.0432 C   0  0  0  0  0  0  0  0  0  0  0  0
    2.2521   -1.7403   -0.8458 C   0  0  0  0  0  0  0  0  0  0  0  0
    1.5408   -0.3981   -0.9273 C   0  0  0  0  0  0  0  0  0  0  0  0
    0.1027   -2.3787   -1.8936 H   0  0  0  0  0  0  0  0  0  0  0  0
    2.0691   -3.6740   -2.0351 H   0  0  0  0  0  0  0  0  0  0  0  0
    2.1474   -3.9863   -0.2855 H   0  0  0  0  0  0  0  0  0  0  0  0
    2.5528   -1.5477    0.1905 H   0  0  0  0  0  0  0  0  0  0  0  0
    3.0524   -1.3926   -1.5053 H   0  0  0  0  0  0  0  0  0  0  0  0
    2.1327    0.4188   -0.5056 H   0  0  0  0  0  0  0  0  0  0  0  0
    1.2759   -0.1509   -1.9611 H   0  0  0  0  0  0  0  0  0  0  0  0
   -0.8028   -2.9846    1.0332 N   0  0  0  0  0  0  0  0  0  0  0  0
   -1.6846   -2.6648    2.1329 C   0  0  2  0  0  0  0  0  0  0  0  0
   -2.9496   -2.0433    1.5558 C   0  0  0  0  0  0  0  0  0  0  0  0
   -2.9897   -1.5080    0.4500 O   0  0  0  0  0  0  0  0  0  0  0  0
   -1.0171   -1.7208    3.1209 C   0  0  0  0  0  0  0  0  0  0  0  0
   -0.5067   -3.9489    0.9156 H   0  0  0  0  0  0  0  0  0  0  0  0
   -1.9335   -3.6117    2.6243 H   0  0  0  0  0  0  0  0  0  0  0  0
   -0.7603   -0.7666    2.6465 H   0  0  0  0  0  0  0  0  0  0  0  0
   -1.6759   -1.5022    3.9677 H   0  0  0  0  0  0  0  0  0  0  0  0
   -0.0918   -2.1570    3.5124 H   0  0  0  0  0  0  0  0  0  0  0  0
   -4.0176   -2.1186    2.4389 N   0  0  0  0  0  0  0  0  0  0  0  0
   -5.3246   -1.5880    2.1286 C   0  0  0  0  0  0  0  0  0  0  0  0
   -3.8990   -2.5971    3.3270 H   0  0  0  0  0  0  0  0  0  0  0  0
   -5.3990   -0.5550    2.4992 H   0  0  0  0  0  0  0  0  0  0  0  0
   -5.4752   -1.5982    1.0390 H   0  0  0  0  0  0  0  0  0  0  0  0
   -6.0955   -2.2069    2.6111 H   0  0  0  0  0  0  0  0  0  0  0  0
 18 19  1  0  0  0  0
 19 31  1  0  0  0  0
 19 20  2  0  0  0  0
  8  9  1  0  0  0  0
  9 17  1  0  0  0  0
  9 10  2  0  0  0  0
  1  3  1  0  0  0  0
  1  7  1  0  0  0  0
  1  2  2  0  0  0  0
 32 33  1  0  0  0  0
 33 41  1  0  0  0  0
 33 34  2  0  0  0  0
 21 22  1  0  0  0  0
 22 23  1  0  0  0  0
 18 21  1  0  0  0  0
 17 23  1  0  0  0  0
 17 18  1  0  0  0  0
  8 11  1  0  0  0  0
 32 35  1  0  0  0  0
 41 42  1  0  0  0  0
  7  8  1  0  0  0  0
 31 32  1  0  0  0  0
 22 27  1  0  0  0  0
 22 28  1  0  0  0  0
 21 25  1  0  0  0  0
 21 26  1  0  0  0  0
 23 29  1  0  0  0  0
 23 30  1  0  0  0  0
 18 24  1  0  0  0  0
  3  4  1  0  0  0  0
  3  5  1  0  0  0  0
  3  6  1  0  0  0  0
 11 14  1  0  0  0  0
 11 15  1  0  0  0  0
 11 16  1  0  0  0  0
 35 38  1  0  0  0  0
 35 39  1  0  0  0  0
 35 40  1  0  0  0  0
 42 44  1  0  0  0  0
 42 45  1  0  0  0  0
 42 46  1  0  0  0  0
  8 13  1  0  0  0  0
 32 37  1  0  0  0  0
 31 36  1  0  0  0  0
 41 43  1  0  0  0  0
  7 12  1  0  0  0  0
M  END
$$$$

  -OEChem-05262214473D

 46 46  0     1  0  0  0  0  0999 V2000
   -0.6012   -3.2995    3.8205 C   0  0  0  0  0  0  0  0  0  0  0  0
   -0.6574   -4.4683    3.4568 O   0  0  0  0  0  0  0  0  0  0  0  0
   -0.4935   -2.9859    5.2760 C   0  0  0  0  0  0  0  0  0  0  0  0
   -1.4789   -2.8689    5.7550 H   0  0  0  0  0  0  0  0  0  0  0  0
    0.0123   -3.7847    5.8419 H   0  0  0  0  0  0  0  0  0  0  0  0
    0.0585   -2.0642    5.5199 H   0  0  0  0  0  0  0  0  0  0  0  0
   -0.6261   -2.1849    2.9917 N   0  0  0  0  0  0  0  0  0  0  0  0
   -0.7237   -2.2601    1.5650 C   0  0  2  0  0  0  0  0  0  0  0  0
    0.1695   -1.1513    1.0687 C   0  0  0  0  0  0  0  0  0  0  0  0
    0.3193   -0.1267    1.7365 O   0  0  0  0  0  0  0  0  0  0  0  0
   -2.1397   -2.0663    1.0750 C   0  0  0  0  0  0  0  0  0  0  0  0
   -0.5717   -1.2606    3.4238 H   0  0  0  0  0  0  0  0  0  0  0  0
   -0.3076   -3.2111    1.2363 H   0  0  0  0  0  0  0  0  0  0  0  0
   -2.5584   -1.1089    1.4061 H   0  0  0  0  0  0  0  0  0  0  0  0
   -2.1682   -2.0790   -0.0197 H   0  0  0  0  0  0  0  0  0  0  0  0
   -2.7965   -2.8601    1.4459 H   0  0  0  0  0  0  0  0  0  0  0  0
    0.7724   -1.3745   -0.1593 N   0  0  0  0  0  0  0  0  0  0  0  0
    0.5614   -2.5964   -0.9244 C   0  0  2  0  0  0  0  0  0  0  0  0
   -0.3735   -3.4587   -0.1308 C   0  0  0  0  0  0  0  0  0  0  0  0
   -0.4940   -4.6437   -0.4189 O   0  0  0  0  0  0  0  0  0  0  0  0
    1.9458   -3.2230   -1.0432 C   0  0  0  0  0  0  0  0  0  0  0  0
    2.2521   -1.7403   -0.8458 C   0  0  0  0  0  0  0  0  0  0  0  0
    1.5408   -0.3981   -0.9273 C   0  0  0  0  0  0  0  0  0  0  0  0
    0.1027   -2.3787   -1.8936 H   0  0  0  0  0  0  0  0  0  0  0  0
    2.0691   -3.6740   -2.0351 H   0  0  0  0  0  0  0  0  0  0  0  0
    2.1474   -3.9863   -0.2855 H   0  0  0  0  0  0  0  0  0  0  0  0
    2.5528   -1.5477    0.1905 H   0  0  0  0  0  0  0  0  0  0  0  0
    3.0524   -1.3926   -1.5053 H   0  0  0  0  0  0  0  0  0  0  0  0
    2.1327    0.4188   -0.5056 H   0  0  0  0  0  0  0  0  0  0  0  0
    1.2759   -0.1509   -1.9611 H   0  0  0  0  0  0  0  0  0  0  0  0
   -1.0394   -2.8836    0.8642 N   0  0  0  0  0  0  0  0  0  0  0  0
   -2.1188   -2.5367    1.7605 C   0  0  2  0  0  0  0  0  0  0  0  0
   -3.3426   -2.2053    0.9168 C   0  0  0  0  0  0  0  0  0  0  0  0
   -3.2717   -1.8552   -0.2594 O   0  0  0  0  0  0  0  0  0  0  0  0
   -1.7412   -1.3654    2.6540 C   0  0  0  0  0  0  0  0  0  0  0  0
   -0.6103   -3.7996    0.9558 H   0  0  0  0  0  0  0  0  0  0  0  0
   -2.3231   -3.4249    2.3683 H   0  0  0  0  0  0  0  0  0  0  0  0
   -1.5329   -0.4662    2.0627 H   0  0  0  0  0  0  0  0  0  0  0  0
   -2.5492   -1.1222    3.3519 H   0  0  0  0  0  0  0  0  0  0  0  0
   -0.8434   -1.5944    3.2382 H   0  0  0  0  0  0  0  0  0  0  0  0
   -4.5205   -2.3049    1.6441 N   0  0  0  0  0  0  0  0  0  0  0  0
   -5.8168   -2.0283    1.0704 C   0  0  0  0  0  0  0  0  0  0  0  0
   -4.4868   -2.6206    2.6089 H   0  0  0  0  0  0  0  0  0  0  0  0
   -6.0778   -0.9739    1.2443 H   0  0  0  0  0  0  0  0  0  0  0  0
   -5.7884   -2.2253   -0.0114 H   0  0  0  0  0  0  0  0  0  0  0  0
   -6.5716   -2.6752    1.5413 H   0  0  0  0  0  0  0  0  0  0  0  0
 18 19  1  0  0  0  0
 19 31  1  0  0  0  0
 19 20  2  0  0  0  0
  8  9  1  0  0  0  0
  9 17  1  0  0  0  0
  9 10  2  0  0  0  0
  1  3  1  0  0  0  0
  1  7  1  0  0  0  0
  1  2  2  0  0  0  0
 32 33  1  0  0  0  0
 33 41  1  0  0  0  0
 33 34  2  0  0  0  0
 21 22  1  0  0  0  0
 22 23  1  0  0  0  0
 18 21  1  0  0  0  0
 17 23  1  0  0  0  0
 17 18  1  0  0  0  0
  8 11  1  0  0  0  0
 32 35  1  0  0  0  0
 41 42  1  0  0  0  0
  7  8  1  0  0  0  0
 31 32  1  0  0  0  0
 22 27  1  0  0  0  0
 22 28  1  0  0  0  0
 21 25  1  0  0  0  0
 21 26  1  0  0  0  0
 23 29  1  0  0  0  0
 23 30  1  0  0  0  0
 18 24  1  0  0  0  0
  3  4  1  0  0  0  0
  3  5  1  0  0  0  0
  3  6  1  0  0  0  0
 11 14  1  0  0  0  0
 11 15  1  0  0  0  0
 11 16  1  0  0  0  0
 35 38  1  0  0  0  0
 35 39  1  0  0  0  0
 35 40  1  0  0  0  0
 42 44  1  0  0  0  0
 42 45  1  0  0  0  0
 42 46  1  0  0  0  0
  8 13  1  0  0  0  0
 32 37  1  0  0  0  0
 31 36  1  0  0  0  0
 41 43  1  0  0  0  0
  7 12  1  0  0  0  0
M  END
$$$$

  -OEChem-05262214473D

 46 46  0     1  0  0  0  0  0999 V2000
   -0.6012   -3.2995    3.8205 C   0  0  0  0  0  0  0  0  0  0  0  0
   -0.6574   -4.4683    3.4568 O   0  0  0  0  0  0  0  0  0  0  0  0
   -0.4935   -2.9859    5.2760 C   0  0  0  0  0  0  0  0  0  0  0  0
   -1.4789   -2.8689    5.7550 H   0  0  0  0  0  0  0  0  0  0  0  0
    0.0123   -3.7847    5.8419 H   0  0  0  0  0  0  0  0  0  0  0  0
    0.0585   -2.0642    5.5199 H   0  0  0  0  0  0  0  0  0  0  0  0
   -0.6261   -2.1849    2.9917 N   0  0  0  0  0  0  0  0  0  0  0  0
   -0.7237   -2.2601    1.5650 C   0  0  2  0  0  0  0  0  0  0  0  0
    0.1695   -1.1513    1.0687 C   0  0  0  0  0  0  0  0  0  0  0  0
    0.3193   -0.1267    1.7365 O   0  0  0  0  0  0  0  0  0  0  0  0
   -2.1397   -2.0663    1.0750 C   0  0  0  0  0  0  0  0  0  0  0  0
   -0.5717   -1.2606    3.4238 H   0  0  0  0  0  0  0  0  0  0  0  0
   -0.3076   -3.2111    1.2363 H   0  0  0  0  0  0  0  0  0  0  0  0
   -2.5584   -1.1089    1.4061 H   0  0  0  0  0  0  0  0  0  0  0  0
   -2.1682   -2.0790   -0.0197 H   0  0  0  0  0  0  0  0  0  0  0  0
   -2.7965   -2.8601    1.4459 H   0  0  0  0  0  0  0  0  0  0  0  0
    0.7724   -1.3745   -0.1593 N   0  0  0  0  0  0  0  0  0  0  0  0
    0.5614   -2.5964   -0.9244 C   0  0  2  0  0  0  0  0  0  0  0  0
   -0.3735   -3.4587   -0.1308 C   0  0  0  0  0  0  0  0  0  0  0  0
   -0.2975   -4.6782   -0.2249 O   0  0  0  0  0  0  0  0  0  0  0  0
    1.9458   -3.2230   -1.0432 C   0  0  0  0  0  0  0  0  0  0  0  0
    2.2521   -1.7403   -0.8458 C   0  0  0  0  0  0  0  0  0  0  0  0
    1.5408   -0.3981   -0.9273 C   0  0  0  0  0  0  0  0  0  0  0  0
    0.1027   -2.3787   -1.8936 H   0  0  0  0  0  0  0  0  0  0  0  0
    2.0691   -3.6740   -2.0351 H   0  0  0  0  0  0  0  0  0  0  0  0
    2.1474   -3.9863   -0.2855 H   0  0  0  0  0  0  0  0  0  0  0  0
    2.5528   -1.5477    0.1905 H   0  0  0  0  0  0  0  0  0  0  0  0
    3.0524   -1.3926   -1.5053 H   0  0  0  0  0  0  0  0  0  0  0  0
    2.1327    0.4188   -0.5056 H   0  0  0  0  0  0  0  0  0  0  0  0
    1.2759   -0.1509   -1.9611 H   0  0  0  0  0  0  0  0  0  0  0  0
   -1.2566   -2.8459    0.6493 N   0  0  0  0  0  0  0  0  0  0  0  0
   -2.5004   -2.5325    1.3155 C   0  0  2  0  0  0  0  0  0  0  0  0
   -3.6050   -2.5188    0.2672 C   0  0  0  0  0  0  0  0  0  0  0  0
   -3.3909   -2.3436   -0.9306 O   0  0  0  0  0  0  0  0  0  0  0  0
   -2.4199   -1.1966    2.0379 C   0  0  0  0  0  0  0  0  0  0  0  0
   -0.7369   -3.6630    0.9551 H   0  0  0  0  0  0  0  0  0  0  0  0
   -2.6869   -3.3391    2.0329 H   0  0  0  0  0  0  0  0  0  0  0  0
   -2.2334   -0.3762    1.3353 H   0  0  0  0  0  0  0  0  0  0  0  0
   -3.3531   -0.9741    2.5657 H   0  0  0  0  0  0  0  0  0  0  0  0
   -1.6057   -1.1982    2.7706 H   0  0  0  0  0  0  0  0  0  0  0  0
   -4.8623   -2.6820    0.8316 N   0  0  0  0  0  0  0  0  0  0  0  0
   -6.0743   -2.6918    0.0461 C   0  0  0  0  0  0  0  0  0  0  0  0
   -4.9444   -2.8398    1.8317 H   0  0  0  0  0  0  0  0  0  0  0  0
   -6.4893   -1.6742   -0.0014 H   0  0  0  0  0  0  0  0  0  0  0  0
   -5.8487   -3.0435   -0.9714 H   0  0  0  0  0  0  0  0  0  0  0  0
   -6.8080   -3.3655    0.5127 H   0  0  0  0  0  0  0  0  0  0  0  0
 18 19  1  0  0  0  0
 19 31  1  0  0  0  0
 19 20  2  0  0  0  0
  8  9  1  0  0  0  0
  9 17  1  0  0  0  0
  9 10  2  0  0  0  0
  1  3  1  0  0  0  0
  1  7  1  0  0  0  0
  1  2  2  0  0  0  0
 32 33  1  0  0  0  0
 33 41  1  0  0  0  0
 33 34  2  0  0  0  0
 21 22  1  0  0  0  0
 22 23  1  0  0  0  0
 18 21  1  0  0  0  0
 17 23  1  0  0  0  0
 17 18  1  0  0  0  0
  8 11  1  0  0  0  0
 32 35  1  0  0  0  0
 41 42  1  0  0  0  0
  7  8  1  0  0  0  0
 31 32  1  0  0  0  0
 22 27  1  0  0  0  0
 22 28  1  0  0  0  0
 21 25  1  0  0  0  0
 21 26  1  0  0  0  0
 23 29  1  0  0  0  0
 23 30  1  0  0  0  0
 18 24  1  0  0  0  0
  3  4  1  0  0  0  0
  3  5  1  0  0  0  0
  3  6  1  0  0  0  0
 11 14  1  0  0  0  0
 11 15  1  0  0  0  0
 11 16  1  0  0  0  0
 35 38  1  0  0  0  0
 35 39  1  0  0  0  0
 35 40  1  0  0  0  0
 42 44  1  0  0  0  0
 42 45  1  0  0  0  0
 42 46  1  0  0  0  0
  8 13  1  0  0  0  0
 32 37  1  0  0  0  0
 31 36  1  0  0  0  0
 41 43  1  0  0  0  0
  7 12  1  0  0  0  0
M  END
$$$$

  -OEChem-05262214473D

 46 46  0     1  0  0  0  0  0999 V2000
   -0.6012   -3.2995    3.8205 C   0  0  0  0  0  0  0  0  0  0  0  0
   -0.6574   -4.4683    3.4568 O   0  0  0  0  0  0  0  0  0  0  0  0
   -0.4935   -2.9859    5.2760 C   0  0  0  0  0  0  0  0  0  0  0  0
   -1.4789   -2.8689    5.7550 H   0  0  0  0  0  0  0  0  0  0  0  0
    0.0123   -3.7847    5.8419 H   0  0  0  0  0  0  0  0  0  0  0  0
    0.0585   -2.0642    5.5199 H   0  0  0  0  0  0  0  0  0  0  0  0
   -0.6261   -2.1849    2.9917 N   0  0  0  0  0  0  0  0  0  0  0  0
   -0.7237   -2.2601    1.5650 C   0  0  2  0  0  0  0  0  0  0  0  0
    0.1695   -1.1513    1.0687 C   0  0  0  0  0  0  0  0  0  0  0  0
    0.3193   -0.1267    1.7365 O   0  0  0  0  0  0  0  0  0  0  0  0
   -2.1397   -2.0663    1.0750 C   0  0  0  0  0  0  0  0  0  0  0  0
   -0.5717   -1.2606    3.4238 H   0  0  0  0  0  0  0  0  0  0  0  0
   -0.3076   -3.2111    1.2363 H   0  0  0  0  0  0  0  0  0  0  0  0
   -2.5584   -1.1089    1.4061 H   0  0  0  0  0  0  0  0  0  0  0  0
   -2.1682   -2.0790   -0.0197 H   0  0  0  0  0  0  0  0  0  0  0  0
   -2.7965   -2.8601    1.4459 H   0  0  0  0  0  0  0  0  0  0  0  0
    0.7724   -1.3745   -0.1593 N   0  0  0  0  0  0  0  0  0  0  0  0
    0.5614   -2.5964   -0.9244 C   0  0  2  0  0  0  0  0  0  0  0  0
   -0.3735   -3.4587   -0.1308 C   0  0  0  0  0  0  0  0  0  0  0  0
   -0.1318   -4.6532   -0.0026 O   0  0  0  0  0  0  0  0  0  0  0  0
    1.9458   -3.2230   -1.0432 C   0  0  0  0  0  0  0  0  0  0  0  0
    2.2521   -1.7403   -0.8458 C   0  0  0  0  0  0  0  0  0  0  0  0
    1.5408   -0.3981   -0.9273 C   0  0  0  0  0  0  0  0  0  0  0  0
    0.1027   -2.3787   -1.8936 H   0  0  0  0  0  0  0  0  0  0  0  0
    2.0691   -3.6740   -2.0351 H   0  0  0  0  0  0  0  0  0  0  0  0
    2.1474   -3.9863   -0.2855 H   0  0  0  0  0  0  0  0  0  0  0  0
    2.5528   -1.5477    0.1905 H   0  0  0  0  0  0  0  0  0  0  0  0
    3.0524   -1.3926   -1.5053 H   0  0  0  0  0  0  0  0  0  0  0  0
    2.1327    0.4188   -0.5056 H   0  0  0  0  0  0  0  0  0  0  0  0
    1.2759   -0.1509   -1.9611 H   0  0  0  0  0  0  0  0  0  0  0  0
   -1.4396   -2.8738    0.4034 N   0  0  0  0  0  0  0  0  0  0  0  0
   -2.8032   -2.6526    0.8283 C   0  0  2  0  0  0  0  0  0  0  0  0
   -3.7187   -2.9623   -0.3488 C   0  0  0  0  0  0  0  0  0  0  0  0
   -3.3391   -2.9402   -1.5178 O   0  0  0  0  0  0  0  0  0  0  0  0
   -3.0068   -1.2261    1.3145 C   0  0  0  0  0  0  0  0  0  0  0  0
   -0.8777   -3.5486    0.9136 H   0  0  0  0  0  0  0  0  0  0  0  0
   -3.0001   -3.3603    1.6409 H   0  0  0  0  0  0  0  0  0  0  0  0
   -2.8141   -0.5026    0.5139 H   0  0  0  0  0  0  0  0  0  0  0  0
   -4.0329   -1.0682    1.6626 H   0  0  0  0  0  0  0  0  0  0  0  0
   -2.3267   -0.9954    2.1416 H   0  0  0  0  0  0  0  0  0  0  0  0
   -5.0199   -3.2242    0.0568 N   0  0  0  0  0  0  0  0  0  0  0  0
   -6.0796   -3.5333   -0.8745 C   0  0  0  0  0  0  0  0  0  0  0  0
   -5.2407   -3.2396    1.0482 H   0  0  0  0  0  0  0  0  0  0  0  0
   -6.6054   -2.6080   -1.1528 H   0  0  0  0  0  0  0  0  0  0  0  0
   -5.6519   -3.9970   -1.7757 H   0  0  0  0  0  0  0  0  0  0  0  0
   -6.7887   -4.2307   -0.4046 H   0  0  0  0  0  0  0  0  0  0  0  0
 18 19  1  0  0  0  0
 19 31  1  0  0  0  0
 19 20  2  0  0  0  0
  8  9  1  0  0  0  0
  9 17  1  0  0  0  0
  9 10  2  0  0  0  0
  1  3  1  0  0  0  0
  1  7  1  0  0  0  0
  1  2  2  0  0  0  0
 32 33  1  0  0  0  0
 33 41  1  0  0  0  0
 33 34  2  0  0  0  0
 21 22  1  0  0  0  0
 22 23  1  0  0  0  0
 18 21  1  0  0  0  0
 17 23  1  0  0  0  0
 17 18  1  0  0  0  0
  8 11  1  0  0  0  0
 32 35  1  0  0  0  0
 41 42  1  0  0  0  0
  7  8  1  0  0  0  0
 31 32  1  0  0  0  0
 22 27  1  0  0  0  0
 22 28  1  0  0  0  0
 21 25  1  0  0  0  0
 21 26  1  0  0  0  0
 23 29  1  0  0  0  0
 23 30  1  0  0  0  0
 18 24  1  0  0  0  0
  3  4  1  0  0  0  0
  3  5  1  0  0  0  0
  3  6  1  0  0  0  0
 11 14  1  0  0  0  0
 11 15  1  0  0  0  0
 11 16  1  0  0  0  0
 35 38  1  0  0  0  0
 35 39  1  0  0  0  0
 35 40  1  0  0  0  0
 42 44  1  0  0  0  0
 42 45  1  0  0  0  0
 42 46  1  0  0  0  0
  8 13  1  0  0  0  0
 32 37  1  0  0  0  0
 31 36  1  0  0  0  0
 41 43  1  0  0  0  0
  7 12  1  0  0  0  0
M  END
$$$$

  -OEChem-05262214473D

 46 46  0     1  0  0  0  0  0999 V2000
   -0.6012   -3.2995    3.8205 C   0  0  0  0  0  0  0  0  0  0  0  0
   -0.6574   -4.4683    3.4568 O   0  0  0  0  0  0  0  0  0  0  0  0
   -0.4935   -2.9859    5.2760 C   0  0  0  0  0  0  0  0  0  0  0  0
   -1.4789   -2.8689    5.7550 H   0  0  0  0  0  0  0  0  0  0  0  0
    0.0123   -3.7847    5.8419 H   0  0  0  0  0  0  0  0  0  0  0  0
    0.0585   -2.0642    5.5199 H   0  0  0  0  0  0  0  0  0  0  0  0
   -0.6261   -2.1849    2.9917 N   0  0  0  0  0  0  0  0  0  0  0  0
   -0.7237   -2.2601    1.5650 C   0  0  2  0  0  0  0  0  0  0  0  0
    0.1695   -1.1513    1.0687 C   0  0  0  0  0  0  0  0  0  0  0  0
    0.3193   -0.1267    1.7365 O   0  0  0  0  0  0  0  0  0  0  0  0
   -2.1397   -2.0663    1.0750 C   0  0  0  0  0  0  0  0  0  0  0  0
   -0.5717   -1.2606    3.4238 H   0  0  0  0  0  0  0  0  0  0  0  0
   -0.3076   -3.2111    1.2363 H   0  0  0  0  0  0  0  0  0  0  0  0
   -2.5584   -1.1089    1.4061 H   0  0  0  0  0  0  0  0  0  0  0  0
   -2.1682   -2.0790   -0.0197 H   0  0  0  0  0  0  0  0  0  0  0  0
   -2.7965   -2.8601    1.4459 H   0  0  0  0  0  0  0  0  0  0  0  0
    0.7724   -1.3745   -0.1593 N   0  0  0  0  0  0  0  0  0  0  0  0
    0.5614   -2.5964   -0.9244 C   0  0  2  0  0  0  0  0  0  0  0  0
   -0.3735   -3.4587   -0.1308 C   0  0  0  0  0  0  0  0  0  0  0  0
   -0.0083   -4.5706    0.2327 O   0  0  0  0  0  0  0  0  0  0  0  0
    1.9458   -3.2230   -1.0432 C   0  0  0  0  0  0  0  0  0  0  0  0
    2.2521   -1.7403   -0.8458 C   0  0  0  0  0  0  0  0  0  0  0  0
    1.5408   -0.3981   -0.9273 C   0  0  0  0  0  0  0  0  0  0  0  0
    0.1027   -2.3787   -1.8936 H   0  0  0  0  0  0  0  0  0  0  0  0
    2.0691   -3.6740   -2.0351 H   0  0  0  0  0  0  0  0  0  0  0  0
    2.1474   -3.9863   -0.2855 H   0  0  0  0  0  0  0  0  0  0  0  0
    2.5528   -1.5477    0.1905 H   0  0  0  0  0  0  0  0  0  0  0  0
    3.0524   -1.3926   -1.5053 H   0  0  0  0  0  0  0  0  0  0  0  0
    2.1327    0.4188   -0.5056 H   0  0  0  0  0  0  0  0  0  0  0  0
    1.2759   -0.1509   -1.9611 H   0  0  0  0  0  0  0  0  0  0  0  0
   -1.5759   -2.9655    0.1431 N   0  0  0  0  0  0  0  0  0  0  0  0
   -3.0068   -2.8887    0.3319 C   0  0  2  0  0  0  0  0  0  0  0  0
   -3.6761   -3.5058   -0.8891 C   0  0  0  0  0  0  0  0  0  0  0  0
   -3.1200   -3.6040   -1.9810 O   0  0  0  0  0  0  0  0  0  0  0  0
   -3.4620   -1.4517    0.5331 C   0  0  0  0  0  0  0  0  0  0  0  0
   -1.0232   -3.4640    0.8340 H   0  0  0  0  0  0  0  0  0  0  0  0
   -3.2414   -3.4869    1.2190 H   0  0  0  0  0  0  0  0  0  0  0  0
   -3.2354   -0.8369   -0.3456 H   0  0  0  0  0  0  0  0  0  0  0  0
   -4.5422   -1.3979    0.7044 H   0  0  0  0  0  0  0  0  0  0  0  0
   -2.9573   -0.9999    1.3939 H   0  0  0  0  0  0  0  0  0  0  0  0
   -4.9824   -3.8946   -0.6275 N   0  0  0  0  0  0  0  0  0  0  0  0
   -5.8324   -4.4954   -1.6288 C   0  0  0  0  0  0  0  0  0  0  0  0
   -5.3555   -3.7929    0.3118 H   0  0  0  0  0  0  0  0  0  0  0  0
   -6.4181   -3.7117   -2.1315 H   0  0  0  0  0  0  0  0  0  0  0  0
   -5.2115   -5.0209   -2.3693 H   0  0  0  0  0  0  0  0  0  0  0  0
   -6.5150   -5.2118   -1.1482 H   0  0  0  0  0  0  0  0  0  0  0  0
 18 19  1  0  0  0  0
 19 31  1  0  0  0  0
 19 20  2  0  0  0  0
  8  9  1  0  0  0  0
  9 17  1  0  0  0  0
  9 10  2  0  0  0  0
  1  3  1  0  0  0  0
  1  7  1  0  0  0  0
  1  2  2  0  0  0  0
 32 33  1  0  0  0  0
 33 41  1  0  0  0  0
 33 34  2  0  0  0  0
 21 22  1  0  0  0  0
 22 23  1  0  0  0  0
 18 21  1  0  0  0  0
 17 23  1  0  0  0  0
 17 18  1  0  0  0  0
  8 11  1  0  0  0  0
 32 35  1  0  0  0  0
 41 42  1  0  0  0  0
  7  8  1  0  0  0  0
 31 32  1  0  0  0  0
 22 27  1  0  0  0  0
 22 28  1  0  0  0  0
 21 25  1  0  0  0  0
 21 26  1  0  0  0  0
 23 29  1  0  0  0  0
 23 30  1  0  0  0  0
 18 24  1  0  0  0  0
  3  4  1  0  0  0  0
  3  5  1  0  0  0  0
  3  6  1  0  0  0  0
 11 14  1  0  0  0  0
 11 15  1  0  0  0  0
 11 16  1  0  0  0  0
 35 38  1  0  0  0  0
 35 39  1  0  0  0  0
 35 40  1  0  0  0  0
 42 44  1  0  0  0  0
 42 45  1  0  0  0  0
 42 46  1  0  0  0  0
  8 13  1  0  0  0  0
 32 37  1  0  0  0  0
 31 36  1  0  0  0  0
 41 43  1  0  0  0  0
  7 12  1  0  0  0  0
M  END
$$$$

  -OEChem-05262214473D

 46 46  0     1  0  0  0  0  0999 V2000
   -0.6012   -3.2995    3.8205 C   0  0  0  0  0  0  0  0  0  0  0  0
   -0.6574   -4.4683    3.4568 O   0  0  0  0  0  0  0  0  0  0  0  0
   -0.4935   -2.9859    5.2760 C   0  0  0  0  0  0  0  0  0  0  0  0
   -1.4789   -2.8689    5.7550 H   0  0  0  0  0  0  0  0  0  0  0  0
    0.0123   -3.7847    5.8419 H   0  0  0  0  0  0  0  0  0  0  0  0
    0.0585   -2.0642    5.5199 H   0  0  0  0  0  0  0  0  0  0  0  0
   -0.6261   -2.1849    2.9917 N   0  0  0  0  0  0  0  0  0  0  0  0
   -0.7237   -2.2601    1.5650 C   0  0  2  0  0  0  0  0  0  0  0  0
    0.1695   -1.1513    1.0687 C   0  0  0  0  0  0  0  0  0  0  0  0
    0.3193   -0.1267    1.7365 O   0  0  0  0  0  0  0  0  0  0  0  0
   -2.1397   -2.0663    1.0750 C   0  0  0  0  0  0  0  0  0  0  0  0
   -0.5717   -1.2606    3.4238 H   0  0  0  0  0  0  0  0  0  0  0  0
   -0.3076   -3.2111    1.2363 H   0  0  0  0  0  0  0  0  0  0  0  0
   -2.5584   -1.1089    1.4061 H   0  0  0  0  0  0  0  0  0  0  0  0
   -2.1682   -2.0790   -0.0197 H   0  0  0  0  0  0  0  0  0  0  0  0
   -2.7965   -2.8601    1.4459 H   0  0  0  0  0  0  0  0  0  0  0  0
    0.7724   -1.3745   -0.1593 N   0  0  0  0  0  0  0  0  0  0  0  0
    0.5614   -2.5964   -0.9244 C   0  0  2  0  0  0  0  0  0  0  0  0
   -0.3735   -3.4587   -0.1308 C   0  0  0  0  0  0  0  0  0  0  0  0
    0.0646   -4.4358    0.4650 O   0  0  0  0  0  0  0  0  0  0  0  0
    1.9458   -3.2230   -1.0432 C   0  0  0  0  0  0  0  0  0  0  0  0
    2.2521   -1.7403   -0.8458 C   0  0  0  0  0  0  0  0  0  0  0  0
    1.5408   -0.3981   -0.9273 C   0  0  0  0  0  0  0  0  0  0  0  0
    0.1027   -2.3787   -1.8936 H   0  0  0  0  0  0  0  0  0  0  0  0
    2.0691   -3.6740   -2.0351 H   0  0  0  0  0  0  0  0  0  0  0  0
    2.1474   -3.9863   -0.2855 H   0  0  0  0  0  0  0  0  0  0  0  0
    2.5528   -1.5477    0.1905 H   0  0  0  0  0  0  0  0  0  0  0  0
    3.0524   -1.3926   -1.5053 H   0  0  0  0  0  0  0  0  0  0  0  0
    2.1327    0.4188   -0.5056 H   0  0  0  0  0  0  0  0  0  0  0  0
    1.2759   -0.1509   -1.9611 H   0  0  0  0  0  0  0  0  0  0  0  0
   -1.6563   -3.1149   -0.1138 N   0  0  0  0  0  0  0  0  0  0  0  0
   -3.0972   -3.2248   -0.1398 C   0  0  2  0  0  0  0  0  0  0  0  0
   -3.4800   -4.1121   -1.3170 C   0  0  0  0  0  0  0  0  0  0  0  0
   -2.7484   -4.2900   -2.2886 O   0  0  0  0  0  0  0  0  0  0  0  0
   -3.7544   -1.8581   -0.2530 C   0  0  0  0  0  0  0  0  0  0  0  0
   -1.1635   -3.4151    0.7219 H   0  0  0  0  0  0  0  0  0  0  0  0
   -3.3943   -3.7104    0.7961 H   0  0  0  0  0  0  0  0  0  0  0  0
   -3.4686   -1.3562   -1.1846 H   0  0  0  0  0  0  0  0  0  0  0  0
   -4.8463   -1.9409   -0.2438 H   0  0  0  0  0  0  0  0  0  0  0  0
   -3.4545   -1.2113    0.5785 H   0  0  0  0  0  0  0  0  0  0  0  0
   -4.7525   -4.6475   -1.1748 N   0  0  0  0  0  0  0  0  0  0  0  0
   -5.3495   -5.5127   -2.1652 C   0  0  0  0  0  0  0  0  0  0  0  0
   -5.2809   -4.4619   -0.3273 H   0  0  0  0  0  0  0  0  0  0  0  0
   -5.9403   -4.9102   -2.8709 H   0  0  0  0  0  0  0  0  0  0  0  0
   -4.5573   -6.0453   -2.7119 H   0  0  0  0  0  0  0  0  0  0  0  0
   -6.0054   -6.2420   -1.6673 H   0  0  0  0  0  0  0  0  0  0  0  0
 18 19  1  0  0  0  0
 19 31  1  0  0  0  0
 19 20  2  0  0  0  0
  8  9  1  0  0  0  0
  9 17  1  0  0  0  0
  9 10  2  0  0  0  0
  1  3  1  0  0  0  0
  1  7  1  0  0  0  0
  1  2  2  0  0  0  0
 32 33  1  0  0  0  0
 33 41  1  0  0  0  0
 33 34  2  0  0  0  0
 21 22  1  0  0  0  0
 22 23  1  0  0  0  0
 18 21  1  0  0  0  0
 17 23  1  0  0  0  0
 17 18  1  0  0  0  0
  8 11  1  0  0  0  0
 32 35  1  0  0  0  0
 41 42  1  0  0  0  0
  7  8  1  0  0  0  0
 31 32  1  0  0  0  0
 22 27  1  0  0  0  0
 22 28  1  0  0  0  0
 21 25  1  0  0  0  0
 21 26  1  0  0  0  0
 23 29  1  0  0  0  0
 23 30  1  0  0  0  0
 18 24  1  0  0  0  0
  3  4  1  0  0  0  0
  3  5  1  0  0  0  0
  3  6  1  0  0  0  0
 11 14  1  0  0  0  0
 11 15  1  0  0  0  0
 11 16  1  0  0  0  0
 35 38  1  0  0  0  0
 35 39  1  0  0  0  0
 35 40  1  0  0  0  0
 42 44  1  0  0  0  0
 42 45  1  0  0  0  0
 42 46  1  0  0  0  0
  8 13  1  0  0  0  0
 32 37  1  0  0  0  0
 31 36  1  0  0  0  0
 41 43  1  0  0  0  0
  7 12  1  0  0  0  0
M  END
$$$$

  -OEChem-05262214473D

 46 46  0     1  0  0  0  0  0999 V2000
   -0.6012   -3.2995    3.8205 C   0  0  0  0  0  0  0  0  0  0  0  0
   -0.6574   -4.4683    3.4568 O   0  0  0  0  0  0  0  0  0  0  0  0
   -0.4935   -2.9859    5.2760 C   0  0  0  0  0  0  0  0  0  0  0  0
   -1.4789   -2.8689    5.7550 H   0  0  0  0  0  0  0  0  0  0  0  0
    0.0123   -3.7847    5.8419 H   0  0  0  0  0  0  0  0  0  0  0  0
    0.0585   -2.0642    5.5199 H   0  0  0  0  0  0  0  0  0  0  0  0
   -0.6261   -2.1849    2.9917 N   0  0  0  0  0  0  0  0  0  0  0  0
   -0.7237   -2.2601    1.5650 C   0  0  2  0  0  0  0  0  0  0  0  0
    0.1695   -1.1513    1.0687 C   0  0  0  0  0  0  0  0  0  0  0  0
    0.3193   -0.1267    1.7365 O   0  0  0  0  0  0  0  0  0  0  0  0
   -2.1397   -2.0663    1.0750 C   0  0  0  0  0  0  0  0  0  0  0  0
   -0.5717   -1.2606    3.4238 H   0  0  0  0  0  0  0  0  0  0  0  0
   -0.3076   -3.2111    1.2363 H   0  0  0  0  0  0  0  0  0  0  0  0
   -2.5584   -1.1089    1.4061 H   0  0  0  0  0  0  0  0  0  0  0  0
   -2.1682   -2.0790   -0.0197 H   0  0  0  0  0  0  0  0  0  0  0  0
   -2.7965   -2.8601    1.4459 H   0  0  0  0  0  0  0  0  0  0  0  0
    0.7724   -1.3745   -0.1593 N   0  0  0  0  0  0  0  0  0  0  0  0
    0.5614   -2.5964   -0.9244 C   0  0  2  0  0  0  0  0  0  0  0  0
   -0.3735   -3.4587   -0.1308 C   0  0  0  0  0  0  0  0  0  0  0  0
    0.0820   -4.2582    0.6786 O   0  0  0  0  0  0  0  0  0  0  0  0
    1.9458   -3.2230   -1.0432 C   0  0  0  0  0  0  0  0  0  0  0  0
    2.2521   -1.7403   -0.8458 C   0  0  0  0  0  0  0  0  0  0  0  0
    1.5408   -0.3981   -0.9273 C   0  0  0  0  0  0  0  0  0  0  0  0
    0.1027   -2.3787   -1.8936 H   0  0  0  0  0  0  0  0  0  0  0  0
    2.0691   -3.6740   -2.0351 H   0  0  0  0  0  0  0  0  0  0  0  0
    2.1474   -3.9863   -0.2855 H   0  0  0  0  0  0  0  0  0  0  0  0
    2.5528   -1.5477    0.1905 H   0  0  0  0  0  0  0  0  0  0  0  0
    3.0524   -1.3926   -1.5053 H   0  0  0  0  0  0  0  0  0  0  0  0
    2.1327    0.4188   -0.5056 H   0  0  0  0  0  0  0  0  0  0  0  0
    1.2759   -0.1509   -1.9611 H   0  0  0  0  0  0  0  0  0  0  0  0
   -1.6752   -3.3116   -0.3499 N   0  0  0  0  0  0  0  0  0  0  0  0
   -3.0682   -3.6379   -0.5546 C   0  0  2  0  0  0  0  0  0  0  0  0
   -3.1439   -4.7399   -1.6032 C   0  0  0  0  0  0  0  0  0  0  0  0
   -2.2497   -4.9514   -2.4198 O   0  0  0  0  0  0  0  0  0  0  0  0
   -3.8642   -2.4176   -0.9903 C   0  0  0  0  0  0  0  0  0  0  0  0
   -1.2890   -3.4053    0.5847 H   0  0  0  0  0  0  0  0  0  0  0  0
   -3.4484   -4.0155    0.4009 H   0  0  0  0  0  0  0  0  0  0  0  0
   -3.4977   -2.0252   -1.9459 H   0  0  0  0  0  0  0  0  0  0  0  0
   -4.9244   -2.6600   -1.1174 H   0  0  0  0  0  0  0  0  0  0  0  0
   -3.7843   -1.6152   -0.2490 H   0  0  0  0  0  0  0  0  0  0  0  0
   -4.3459   -5.4315   -1.5476 N   0  0  0  0  0  0  0  0  0  0  0  0
   -4.6638   -6.5157   -2.4473 C   0  0  0  0  0  0  0  0  0  0  0  0
   -5.0221   -5.2011   -0.8255 H   0  0  0  0  0  0  0  0  0  0  0  0
   -5.2045   -6.1217   -3.3205 H   0  0  0  0  0  0  0  0  0  0  0  0
   -3.7342   -7.0005   -2.7800 H   0  0  0  0  0  0  0  0  0  0  0  0
   -5.2948   -7.2510   -1.9266 H   0  0  0  0  0  0  0  0  0  0  0  0
 18 19  1  0  0  0  0
 19 31  1  0  0  0  0
 19 20  2  0  0  0  0
  8  9  1  0  0  0  0
  9 17  1  0  0  0  0
  9 10  2  0  0  0  0
  1  3  1  0  0  0  0
  1  7  1  0  0  0  0
  1  2  2  0  0  0  0
 32 33  1  0  0  0  0
 33 41  1  0  0  0  0
 33 34  2  0  0  0  0
 21 22  1  0  0  0  0
 22 23  1  0  0  0  0
 18 21  1  0  0  0  0
 17 23  1  0  0  0  0
 17 18  1  0  0  0  0
  8 11  1  0  0  0  0
 32 35  1  0  0  0  0
 41 42  1  0  0  0  0
  7  8  1  0  0  0  0
 31 32  1  0  0  0  0
 22 27  1  0  0  0  0
 22 28  1  0  0  0  0
 21 25  1  0  0  0  0
 21 26  1  0  0  0  0
 23 29  1  0  0  0  0
 23 30  1  0  0  0  0
 18 24  1  0  0  0  0
  3  4  1  0  0  0  0
  3  5  1  0  0  0  0
  3  6  1  0  0  0  0
 11 14  1  0  0  0  0
 11 15  1  0  0  0  0
 11 16  1  0  0  0  0
 35 38  1  0  0  0  0
 35 39  1  0  0  0  0
 35 40  1  0  0  0  0
 42 44  1  0  0  0  0
 42 45  1  0  0  0  0
 42 46  1  0  0  0  0
  8 13  1  0  0  0  0
 32 37  1  0  0  0  0
 31 36  1  0  0  0  0
 41 43  1  0  0  0  0
  7 12  1  0  0  0  0
M  END
$$$$

  -OEChem-05262214473D

 46 46  0     1  0  0  0  0  0999 V2000
   -0.6012   -3.2995    3.8205 C   0  0  0  0  0  0  0  0  0  0  0  0
   -0.6574   -4.4683    3.4568 O   0  0  0  0  0  0  0  0  0  0  0  0
   -0.4935   -2.9859    5.2760 C   0  0  0  0  0  0  0  0  0  0  0  0
   -1.4789   -2.8689    5.7550 H   0  0  0  0  0  0  0  0  0  0  0  0
    0.0123   -3.7847    5.8419 H   0  0  0  0  0  0  0  0  0  0  0  0
    0.0585   -2.0642    5.5199 H   0  0  0  0  0  0  0  0  0  0  0  0
   -0.6261   -2.1849    2.9917 N   0  0  0  0  0  0  0  0  0  0  0  0
   -0.7237   -2.2601    1.5650 C   0  0  2  0  0  0  0  0  0  0  0  0
    0.1695   -1.1513    1.0687 C   0  0  0  0  0  0  0  0  0  0  0  0
    0.3193   -0.1267    1.7365 O   0  0  0  0  0  0  0  0  0  0  0  0
   -2.1397   -2.0663    1.0750 C   0  0  0  0  0  0  0  0  0  0  0  0
   -0.5717   -1.2606    3.4238 H   0  0  0  0  0  0  0  0  0  0  0  0
   -0.3076   -3.2111    1.2363 H   0  0  0  0  0  0  0  0  0  0  0  0
   -2.5584   -1.1089    1.4061 H   0  0  0  0  0  0  0  0  0  0  0  0
   -2.1682   -2.0790   -0.0197 H   0  0  0  0  0  0  0  0  0  0  0  0
   -2.7965   -2.8601    1.4459 H   0  0  0  0  0  0  0  0  0  0  0  0
    0.7724   -1.3745   -0.1593 N   0  0  0  0  0  0  0  0  0  0  0  0
    0.5614   -2.5964   -0.9244 C   0  0  2  0  0  0  0  0  0  0  0  0
   -0.3735   -3.4587   -0.1308 C   0  0  0  0  0  0  0  0  0  0  0  0
    0.0427   -4.0497    0.8588 O   0  0  0  0  0  0  0  0  0  0  0  0
    1.9458   -3.2230   -1.0432 C   0  0  0  0  0  0  0  0  0  0  0  0
    2.2521   -1.7403   -0.8458 C   0  0  0  0  0  0  0  0  0  0  0  0
    1.5408   -0.3981   -0.9273 C   0  0  0  0  0  0  0  0  0  0  0  0
    0.1027   -2.3787   -1.8936 H   0  0  0  0  0  0  0  0  0  0  0  0
    2.0691   -3.6740   -2.0351 H   0  0  0  0  0  0  0  0  0  0  0  0
    2.1474   -3.9863   -0.2855 H   0  0  0  0  0  0  0  0  0  0  0  0
    2.5528   -1.5477    0.1905 H   0  0  0  0  0  0  0  0  0  0  0  0
    3.0524   -1.3926   -1.5053 H   0  0  0  0  0  0  0  0  0  0  0  0
    2.1327    0.4188   -0.5056 H   0  0  0  0  0  0  0  0  0  0  0  0
    1.2759   -0.1509   -1.9611 H   0  0  0  0  0  0  0  0  0  0  0  0
   -1.6314   -3.5423   -0.5489 N   0  0  0  0  0  0  0  0  0  0  0  0
   -2.9219   -4.1000   -0.8843 C   0  0  2  0  0  0  0  0  0  0  0  0
   -2.6906   -5.3465   -1.7282 C   0  0  0  0  0  0  0  0  0  0  0  0
   -1.6579   -5.5430   -2.3654 O   0  0  0  0  0  0  0  0  0  0  0  0
   -3.7838   -3.0920   -1.6285 C   0  0  0  0  0  0  0  0  0  0  0  0
   -1.3912   -3.4350    0.4320 H   0  0  0  0  0  0  0  0  0  0  0  0
   -3.4000   -4.3813    0.0603 H   0  0  0  0  0  0  0  0  0  0  0  0
   -3.3209   -2.7982   -2.5776 H   0  0  0  0  0  0  0  0  0  0  0  0
   -4.7714   -3.5064   -1.8567 H   0  0  0  0  0  0  0  0  0  0  0  0
   -3.9244   -2.1840   -1.0322 H   0  0  0  0  0  0  0  0  0  0  0  0
   -3.7901   -6.1933   -1.7207 N   0  0  0  0  0  0  0  0  0  0  0  0
   -3.8221   -7.4361   -2.4558 C   0  0  0  0  0  0  0  0  0  0  0  0
   -4.5966   -5.9600   -1.1490 H   0  0  0  0  0  0  0  0  0  0  0  0
   -4.2609   -7.2636   -3.4497 H   0  0  0  0  0  0  0  0  0  0  0  0
   -2.7980   -7.8214   -2.5692 H   0  0  0  0  0  0  0  0  0  0  0  0
   -4.4316   -8.1702   -1.9084 H   0  0  0  0  0  0  0  0  0  0  0  0
 18 19  1  0  0  0  0
 19 31  1  0  0  0  0
 19 20  2  0  0  0  0
  8  9  1  0  0  0  0
  9 17  1  0  0  0  0
  9 10  2  0  0  0  0
  1  3  1  0  0  0  0
  1  7  1  0  0  0  0
  1  2  2  0  0  0  0
 32 33  1  0  0  0  0
 33 41  1  0  0  0  0
 33 34  2  0  0  0  0
 21 22  1  0  0  0  0
 22 23  1  0  0  0  0
 18 21  1  0  0  0  0
 17 23  1  0  0  0  0
 17 18  1  0  0  0  0
  8 11  1  0  0  0  0
 32 35  1  0  0  0  0
 41 42  1  0  0  0  0
  7  8  1  0  0  0  0
 31 32  1  0  0  0  0
 22 27  1  0  0  0  0
 22 28  1  0  0  0  0
 21 25  1  0  0  0  0
 21 26  1  0  0  0  0
 23 29  1  0  0  0  0
 23 30  1  0  0  0  0
 18 24  1  0  0  0  0
  3  4  1  0  0  0  0
  3  5  1  0  0  0  0
  3  6  1  0  0  0  0
 11 14  1  0  0  0  0
 11 15  1  0  0  0  0
 11 16  1  0  0  0  0
 35 38  1  0  0  0  0
 35 39  1  0  0  0  0
 35 40  1  0  0  0  0
 42 44  1  0  0  0  0
 42 45  1  0  0  0  0
 42 46  1  0  0  0  0
  8 13  1  0  0  0  0
 32 37  1  0  0  0  0
 31 36  1  0  0  0  0
 41 43  1  0  0  0  0
  7 12  1  0  0  0  0
M  END
$$$$

  -OEChem-05262214473D

 46 46  0     1  0  0  0  0  0999 V2000
   -0.6012   -3.2995    3.8205 C   0  0  0  0  0  0  0  0  0  0  0  0
   -0.6574   -4.4683    3.4568 O   0  0  0  0  0  0  0  0  0  0  0  0
   -0.4935   -2.9859    5.2760 C   0  0  0  0  0  0  0  0  0  0  0  0
   -1.4789   -2.8689    5.7550 H   0  0  0  0  0  0  0  0  0  0  0  0
    0.0123   -3.7847    5.8419 H   0  0  0  0  0  0  0  0  0  0  0  0
    0.0585   -2.0642    5.5199 H   0  0  0  0  0  0  0  0  0  0  0  0
   -0.6261   -2.1849    2.9917 N   0  0  0  0  0  0  0  0  0  0  0  0
   -0.7237   -2.2601    1.5650 C   0  0  2  0  0  0  0  0  0  0  0  0
    0.1695   -1.1513    1.0687 C   0  0  0  0  0  0  0  0  0  0  0  0
    0.3193   -0.1267    1.7365 O   0  0  0  0  0  0  0  0  0  0  0  0
   -2.1397   -2.0663    1.0750 C   0  0  0  0  0  0  0  0  0  0  0  0
   -0.5717   -1.2606    3.4238 H   0  0  0  0  0  0  0  0  0  0  0  0
   -0.3076   -3.2111    1.2363 H   0  0  0  0  0  0  0  0  0  0  0  0
   -2.5584   -1.1089    1.4061 H   0  0  0  0  0  0  0  0  0  0  0  0
   -2.1682   -2.0790   -0.0197 H   0  0  0  0  0  0  0  0  0  0  0  0
   -2.7965   -2.8601    1.4459 H   0  0  0  0  0  0  0  0  0  0  0  0
    0.7724   -1.3745   -0.1593 N   0  0  0  0  0  0  0  0  0  0  0  0
    0.5614   -2.5964   -0.9244 C   0  0  2  0  0  0  0  0  0  0  0  0
   -0.3735   -3.4587   -0.1308 C   0  0  0  0  0  0  0  0  0  0  0  0
   -0.0507   -3.8247    0.9933 O   0  0  0  0  0  0  0  0  0  0  0  0
    1.9458   -3.2230   -1.0432 C   0  0  0  0  0  0  0  0  0  0  0  0
    2.2521   -1.7403   -0.8458 C   0  0  0  0  0  0  0  0  0  0  0  0
    1.5408   -0.3981   -0.9273 C   0  0  0  0  0  0  0  0  0  0  0  0
    0.1027   -2.3787   -1.8936 H   0  0  0  0  0  0  0  0  0  0  0  0
    2.0691   -3.6740   -2.0351 H   0  0  0  0  0  0  0  0  0  0  0  0
    2.1474   -3.9863   -0.2855 H   0  0  0  0  0  0  0  0  0  0  0  0
    2.5528   -1.5477    0.1905 H   0  0  0  0  0  0  0  0  0  0  0  0
    3.0524   -1.3926   -1.5053 H   0  0  0  0  0  0  0  0  0  0  0  0
    2.1327    0.4188   -0.5056 H   0  0  0  0  0  0  0  0  0  0  0  0
    1.2759   -0.1509   -1.9611 H   0  0  0  0  0  0  0  0  0  0  0  0
   -1.5278   -3.7912   -0.6974 N   0  0  0  0  0  0  0  0  0  0  0  0
   -2.6681   -4.5795   -1.1064 C   0  0  2  0  0  0  0  0  0  0  0  0
   -2.1509   -5.8905   -1.6837 C   0  0  0  0  0  0  0  0  0  0  0  0
   -1.0132   -6.0247   -2.1293 O   0  0  0  0  0  0  0  0  0  0  0  0
   -3.5187   -3.8355   -2.1241 C   0  0  0  0  0  0  0  0  0  0  0  0
   -1.4631   -3.5024    0.2741 H   0  0  0  0  0  0  0  0  0  0  0  0
   -3.2525   -4.7831   -0.2024 H   0  0  0  0  0  0  0  0  0  0  0  0
   -2.9502   -3.6227   -3.0367 H   0  0  0  0  0  0  0  0  0  0  0  0
   -4.3975   -4.4223   -2.4114 H   0  0  0  0  0  0  0  0  0  0  0  0
   -3.8652   -2.8792   -1.7178 H   0  0  0  0  0  0  0  0  0  0  0  0
   -3.1231   -6.8810   -1.6821 N   0  0  0  0  0  0  0  0  0  0  0  0
   -2.8817   -8.2112   -2.1902 C   0  0  0  0  0  0  0  0  0  0  0  0
   -4.0335   -6.6869   -1.2755 H   0  0  0  0  0  0  0  0  0  0  0  0
   -3.1737   -8.2583   -3.2496 H   0  0  0  0  0  0  0  0  0  0  0  0
   -1.8127   -8.4520   -2.0936 H   0  0  0  0  0  0  0  0  0  0  0  0
   -3.4745   -8.9369   -1.6140 H   0  0  0  0  0  0  0  0  0  0  0  0
 18 19  1  0  0  0  0
 19 31  1  0  0  0  0
 19 20  2  0  0  0  0
  8  9  1  0  0  0  0
  9 17  1  0  0  0  0
  9 10  2  0  0  0  0
  1  3  1  0  0  0  0
  1  7  1  0  0  0  0
  1  2  2  0  0  0  0
 32 33  1  0  0  0  0
 33 41  1  0  0  0  0
 33 34  2  0  0  0  0
 21 22  1  0  0  0  0
 22 23  1  0  0  0  0
 18 21  1  0  0  0  0
 17 23  1  0  0  0  0
 17 18  1  0  0  0  0
  8 11  1  0  0  0  0
 32 35  1  0  0  0  0
 41 42  1  0  0  0  0
  7  8  1  0  0  0  0
 31 32  1  0  0  0  0
 22 27  1  0  0  0  0
 22 28  1  0  0  0  0
 21 25  1  0  0  0  0
 21 26  1  0  0  0  0
 23 29  1  0  0  0  0
 23 30  1  0  0  0  0
 18 24  1  0  0  0  0
  3  4  1  0  0  0  0
  3  5  1  0  0  0  0
  3  6  1  0  0  0  0
 11 14  1  0  0  0  0
 11 15  1  0  0  0  0
 11 16  1  0  0  0  0
 35 38  1  0  0  0  0
 35 39  1  0  0  0  0
 35 40  1  0  0  0  0
 42 44  1  0  0  0  0
 42 45  1  0  0  0  0
 42 46  1  0  0  0  0
  8 13  1  0  0  0  0
 32 37  1  0  0  0  0
 31 36  1  0  0  0  0
 41 43  1  0  0  0  0
  7 12  1  0  0  0  0
M  END
$$$$

  -OEChem-05262214473D

 46 46  0     1  0  0  0  0  0999 V2000
   -0.6012   -3.2995    3.8205 C   0  0  0  0  0  0  0  0  0  0  0  0
   -0.6574   -4.4683    3.4568 O   0  0  0  0  0  0  0  0  0  0  0  0
   -0.4935   -2.9859    5.2760 C   0  0  0  0  0  0  0  0  0  0  0  0
   -1.4789   -2.8689    5.7550 H   0  0  0  0  0  0  0  0  0  0  0  0
    0.0123   -3.7847    5.8419 H   0  0  0  0  0  0  0  0  0  0  0  0
    0.0585   -2.0642    5.5199 H   0  0  0  0  0  0  0  0  0  0  0  0
   -0.6261   -2.1849    2.9917 N   0  0  0  0  0  0  0  0  0  0  0  0
   -0.7237   -2.2601    1.5650 C   0  0  2  0  0  0  0  0  0  0  0  0
    0.1695   -1.1513    1.0687 C   0  0  0  0  0  0  0  0  0  0  0  0
    0.3193   -0.1267    1.7365 O   0  0  0  0  0  0  0  0  0  0  0  0
   -2.1397   -2.0663    1.0750 C   0  0  0  0  0  0  0  0  0  0  0  0
   -0.5717   -1.2606    3.4238 H   0  0  0  0  0  0  0  0  0  0  0  0
   -0.3076   -3.2111    1.2363 H   0  0  0  0  0  0  0  0  0  0  0  0
   -2.5584   -1.1089    1.4061 H   0  0  0  0  0  0  0  0  0  0  0  0
   -2.1682   -2.0790   -0.0197 H   0  0  0  0  0  0  0  0  0  0  0  0
   -2.7965   -2.8601    1.4459 H   0  0  0  0  0  0  0  0  0  0  0  0
    0.7724   -1.3745   -0.1593 N   0  0  0  0  0  0  0  0  0  0  0  0
    0.5614   -2.5964   -0.9244 C   0  0  2  0  0  0  0  0  0  0  0  0
   -0.3735   -3.4587   -0.1308 C   0  0  0  0  0  0  0  0  0  0  0  0
   -0.1917   -3.5984    1.0730 O   0  0  0  0  0  0  0  0  0  0  0  0
    1.9458   -3.2230   -1.0432 C   0  0  0  0  0  0  0  0  0  0  0  0
    2.2521   -1.7403   -0.8458 C   0  0  0  0  0  0  0  0  0  0  0  0
    1.5408   -0.3981   -0.9273 C   0  0  0  0  0  0  0  0  0  0  0  0
    0.1027   -2.3787   -1.8936 H   0  0  0  0  0  0  0  0  0  0  0  0
    2.0691   -3.6740   -2.0351 H   0  0  0  0  0  0  0  0  0  0  0  0
    2.1474   -3.9863   -0.2855 H   0  0  0  0  0  0  0  0  0  0  0  0
    2.5528   -1.5477    0.1905 H   0  0  0  0  0  0  0  0  0  0  0  0
    3.0524   -1.3926   -1.5053 H   0  0  0  0  0  0  0  0  0  0  0  0
    2.1327    0.4188   -0.5056 H   0  0  0  0  0  0  0  0  0  0  0  0
    1.2759   -0.1509   -1.9611 H   0  0  0  0  0  0  0  0  0  0  0  0
   -1.3715   -4.0415   -0.7853 N   0  0  0  0  0  0  0  0  0  0  0  0
   -2.3243   -5.0437   -1.2057 C   0  0  2  0  0  0  0  0  0  0  0  0
   -1.5618   -6.3348   -1.4724 C   0  0  0  0  0  0  0  0  0  0  0  0
   -0.3597   -6.3635   -1.7276 O   0  0  0  0  0  0  0  0  0  0  0  0
   -3.0871   -4.5974   -2.4433 C   0  0  0  0  0  0  0  0  0  0  0  0
   -1.4998   -3.6029    0.1217 H   0  0  0  0  0  0  0  0  0  0  0  0
   -3.0158   -5.1933   -0.3694 H   0  0  0  0  0  0  0  0  0  0  0  0
   -2.4108   -4.4424   -3.2919 H   0  0  0  0  0  0  0  0  0  0  0  0
   -3.8283   -5.3452   -2.7438 H   0  0  0  0  0  0  0  0  0  0  0  0
   -3.6107   -3.6531   -2.2589 H   0  0  0  0  0  0  0  0  0  0  0  0
   -2.3904   -7.4476   -1.4346 N   0  0  0  0  0  0  0  0  0  0  0  0
   -1.9066   -8.7882   -1.6685 C   0  0  0  0  0  0  0  0  0  0  0  0
   -3.3712   -7.3324   -1.1966 H   0  0  0  0  0  0  0  0  0  0  0  0
   -2.0171   -9.0378   -2.7341 H   0  0  0  0  0  0  0  0  0  0  0  0
   -0.8453   -8.8494   -1.3858 H   0  0  0  0  0  0  0  0  0  0  0  0
   -2.4888   -9.4987   -1.0633 H   0  0  0  0  0  0  0  0  0  0  0  0
 18 19  1  0  0  0  0
 19 31  1  0  0  0  0
 19 20  2  0  0  0  0
  8  9  1  0  0  0  0
  9 17  1  0  0  0  0
  9 10  2  0  0  0  0
  1  3  1  0  0  0  0
  1  7  1  0  0  0  0
  1  2  2  0  0  0  0
 32 33  1  0  0  0  0
 33 41  1  0  0  0  0
 33 34  2  0  0  0  0
 21 22  1  0  0  0  0
 22 23  1  0  0  0  0
 18 21  1  0  0  0  0
 17 23  1  0  0  0  0
 17 18  1  0  0  0  0
  8 11  1  0  0  0  0
 32 35  1  0  0  0  0
 41 42  1  0  0  0  0
  7  8  1  0  0  0  0
 31 32  1  0  0  0  0
 22 27  1  0  0  0  0
 22 28  1  0  0  0  0
 21 25  1  0  0  0  0
 21 26  1  0  0  0  0
 23 29  1  0  0  0  0
 23 30  1  0  0  0  0
 18 24  1  0  0  0  0
  3  4  1  0  0  0  0
  3  5  1  0  0  0  0
  3  6  1  0  0  0  0
 11 14  1  0  0  0  0
 11 15  1  0  0  0  0
 11 16  1  0  0  0  0
 35 38  1  0  0  0  0
 35 39  1  0  0  0  0
 35 40  1  0  0  0  0
 42 44  1  0  0  0  0
 42 45  1  0  0  0  0
 42 46  1  0  0  0  0
  8 13  1  0  0  0  0
 32 37  1  0  0  0  0
 31 36  1  0  0  0  0
 41 43  1  0  0  0  0
  7 12  1  0  0  0  0
M  END
$$$$

  -OEChem-05262214473D

 46 46  0     1  0  0  0  0  0999 V2000
   -0.6012   -3.2995    3.8205 C   0  0  0  0  0  0  0  0  0  0  0  0
   -0.6574   -4.4683    3.4568 O   0  0  0  0  0  0  0  0  0  0  0  0
   -0.4935   -2.9859    5.2760 C   0  0  0  0  0  0  0  0  0  0  0  0
   -1.4789   -2.8689    5.7550 H   0  0  0  0  0  0  0  0  0  0  0  0
    0.0123   -3.7847    5.8419 H   0  0  0  0  0  0  0  0  0  0  0  0
    0.0585   -2.0642    5.5199 H   0  0  0  0  0  0  0  0  0  0  0  0
   -0.6261   -2.1849    2.9917 N   0  0  0  0  0  0  0  0  0  0  0  0
   -0.7237   -2.2601    1.5650 C   0  0  2  0  0  0  0  0  0  0  0  0
    0.1695   -1.1513    1.0687 C   0  0  0  0  0  0  0  0  0  0  0  0
    0.3193   -0.1267    1.7365 O   0  0  0  0  0  0  0  0  0  0  0  0
   -2.1397   -2.0663    1.0750 C   0  0  0  0  0  0  0  0  0  0  0  0
   -0.5717   -1.2606    3.4238 H   0  0  0  0  0  0  0  0  0  0  0  0
   -0.3076   -3.2111    1.2363 H   0  0  0  0  0  0  0  0  0  0  0  0
   -2.5584   -1.1089    1.4061 H   0  0  0  0  0  0  0  0  0  0  0  0
   -2.1682   -2.0790   -0.0197 H   0  0  0  0  0  0  0  0  0  0  0  0
   -2.7965   -2.8601    1.4459 H   0  0  0  0  0  0  0  0  0  0  0  0
    0.7724   -1.3745   -0.1593 N   0  0  0  0  0  0  0  0  0  0  0  0
    0.5614   -2.5964   -0.9244 C   0  0  2  0  0  0  0  0  0  0  0  0
   -0.3735   -3.4587   -0.1308 C   0  0  0  0  0  0  0  0  0  0  0  0
   -0.3708   -3.3863    1.0925 O   0  0  0  0  0  0  0  0  0  0  0  0
    1.9458   -3.2230   -1.0432 C   0  0  0  0  0  0  0  0  0  0  0  0
    2.2521   -1.7403   -0.8458 C   0  0  0  0  0  0  0  0  0  0  0  0
    1.5408   -0.3981   -0.9273 C   0  0  0  0  0  0  0  0  0  0  0  0
    0.1027   -2.3787   -1.8936 H   0  0  0  0  0  0  0  0  0  0  0  0
    2.0691   -3.6740   -2.0351 H   0  0  0  0  0  0  0  0  0  0  0  0
    2.1474   -3.9863   -0.2855 H   0  0  0  0  0  0  0  0  0  0  0  0
    2.5528   -1.5477    0.1905 H   0  0  0  0  0  0  0  0  0  0  0  0
    3.0524   -1.3926   -1.5053 H   0  0  0  0  0  0  0  0  0  0  0  0
    2.1327    0.4188   -0.5056 H   0  0  0  0  0  0  0  0  0  0  0  0
    1.2759   -0.1509   -1.9611 H   0  0  0  0  0  0  0  0  0  0  0  0
   -1.1732   -4.2760   -0.8065 N   0  0  0  0  0  0  0  0  0  0  0  0
   -1.9138   -5.4611   -1.1756 C   0  0  2  0  0  0  0  0  0  0  0  0
   -0.9634   -6.6492   -1.1090 C   0  0  0  0  0  0  0  0  0  0  0  0
    0.2582   -6.5364   -1.1875 O   0  0  0  0  0  0  0  0  0  0  0  0
   -2.5182   -5.3256   -2.5645 C   0  0  0  0  0  0  0  0  0  0  0  0
   -1.4988   -3.7296   -0.0147 H   0  0  0  0  0  0  0  0  0  0  0  0
   -2.7061   -5.5841   -0.4292 H   0  0  0  0  0  0  0  0  0  0  0  0
   -1.7394   -5.2014   -3.3258 H   0  0  0  0  0  0  0  0  0  0  0  0
   -3.1025   -6.2124   -2.8311 H   0  0  0  0  0  0  0  0  0  0  0  0
   -3.1783   -4.4532   -2.6189 H   0  0  0  0  0  0  0  0  0  0  0  0
   -1.6419   -7.8545   -0.9950 N   0  0  0  0  0  0  0  0  0  0  0  0
   -0.9635   -9.1277   -0.9262 C   0  0  0  0  0  0  0  0  0  0  0  0
   -2.6547   -7.8524   -0.9176 H   0  0  0  0  0  0  0  0  0  0  0  0
   -0.8699   -9.5490   -1.9380 H   0  0  0  0  0  0  0  0  0  0  0  0
    0.0381   -8.9864   -0.4939 H   0  0  0  0  0  0  0  0  0  0  0  0
   -1.5418   -9.8175   -0.2940 H   0  0  0  0  0  0  0  0  0  0  0  0
 18 19  1  0  0  0  0
 19 31  1  0  0  0  0
 19 20  2  0  0  0  0
  8  9  1  0  0  0  0
  9 17  1  0  0  0  0
  9 10  2  0  0  0  0
  1  3  1  0  0  0  0
  1  7  1  0  0  0  0
  1  2  2  0  0  0  0
 32 33  1  0  0  0  0
 33 41  1  0  0  0  0
 33 34  2  0  0  0  0
 21 22  1  0  0  0  0
 22 23  1  0  0  0  0
 18 21  1  0  0  0  0
 17 23  1  0  0  0  0
 17 18  1  0  0  0  0
  8 11  1  0  0  0  0
 32 35  1  0  0  0  0
 41 42  1  0  0  0  0
  7  8  1  0  0  0  0
 31 32  1  0  0  0  0
 22 27  1  0  0  0  0
 22 28  1  0  0  0  0
 21 25  1  0  0  0  0
 21 26  1  0  0  0  0
 23 29  1  0  0  0  0
 23 30  1  0  0  0  0
 18 24  1  0  0  0  0
  3  4  1  0  0  0  0
  3  5  1  0  0  0  0
  3  6  1  0  0  0  0
 11 14  1  0  0  0  0
 11 15  1  0  0  0  0
 11 16  1  0  0  0  0
 35 38  1  0  0  0  0
 35 39  1  0  0  0  0
 35 40  1  0  0  0  0
 42 44  1  0  0  0  0
 42 45  1  0  0  0  0
 42 46  1  0  0  0  0
  8 13  1  0  0  0  0
 32 37  1  0  0  0  0
 31 36  1  0  0  0  0
 41 43  1  0  0  0  0
  7 12  1  0  0  0  0
M  END
$$$$

  -OEChem-05262214473D

 46 46  0     1  0  0  0  0  0999 V2000
   -0.6012   -3.2995    3.8205 C   0  0  0  0  0  0  0  0  0  0  0  0
   -0.6574   -4.4683    3.4568 O   0  0  0  0  0  0  0  0  0  0  0  0
   -0.4935   -2.9859    5.2760 C   0  0  0  0  0  0  0  0  0  0  0  0
   -1.4789   -2.8689    5.7550 H   0  0  0  0  0  0  0  0  0  0  0  0
    0.0123   -3.7847    5.8419 H   0  0  0  0  0  0  0  0  0  0  0  0
    0.0585   -2.0642    5.5199 H   0  0  0  0  0  0  0  0  0  0  0  0
   -0.6261   -2.1849    2.9917 N   0  0  0  0  0  0  0  0  0  0  0  0
   -0.7237   -2.2601    1.5650 C   0  0  2  0  0  0  0  0  0  0  0  0
    0.1695   -1.1513    1.0687 C   0  0  0  0  0  0  0  0  0  0  0  0
    0.3193   -0.1267    1.7365 O   0  0  0  0  0  0  0  0  0  0  0  0
   -2.1397   -2.0663    1.0750 C   0  0  0  0  0  0  0  0  0  0  0  0
   -0.5717   -1.2606    3.4238 H   0  0  0  0  0  0  0  0  0  0  0  0
   -0.3076   -3.2111    1.2363 H   0  0  0  0  0  0  0  0  0  0  0  0
   -2.5584   -1.1089    1.4061 H   0  0  0  0  0  0  0  0  0  0  0  0
   -2.1682   -2.0790   -0.0197 H   0  0  0  0  0  0  0  0  0  0  0  0
   -2.7965   -2.8601    1.4459 H   0  0  0  0  0  0  0  0  0  0  0  0
    0.7724   -1.3745   -0.1593 N   0  0  0  0  0  0  0  0  0  0  0  0
    0.5614   -2.5964   -0.9244 C   0  0  2  0  0  0  0  0  0  0  0  0
   -0.3735   -3.4587   -0.1308 C   0  0  0  0  0  0  0  0  0  0  0  0
   -0.5758   -3.2028    1.0504 O   0  0  0  0  0  0  0  0  0  0  0  0
    1.9458   -3.2230   -1.0432 C   0  0  0  0  0  0  0  0  0  0  0  0
    2.2521   -1.7403   -0.8458 C   0  0  0  0  0  0  0  0  0  0  0  0
    1.5408   -0.3981   -0.9273 C   0  0  0  0  0  0  0  0  0  0  0  0
    0.1027   -2.3787   -1.8936 H   0  0  0  0  0  0  0  0  0  0  0  0
    2.0691   -3.6740   -2.0351 H   0  0  0  0  0  0  0  0  0  0  0  0
    2.1474   -3.9863   -0.2855 H   0  0  0  0  0  0  0  0  0  0  0  0
    2.5528   -1.5477    0.1905 H   0  0  0  0  0  0  0  0  0  0  0  0
    3.0524   -1.3926   -1.5053 H   0  0  0  0  0  0  0  0  0  0  0  0
    2.1327    0.4188   -0.5056 H   0  0  0  0  0  0  0  0  0  0  0  0
    1.2759   -0.1509   -1.9611 H   0  0  0  0  0  0  0  0  0  0  0  0
   -0.9464   -4.4787   -0.7596 N   0  0  0  0  0  0  0  0  0  0  0  0
   -1.4645   -5.8031   -1.0180 C   0  0  2  0  0  0  0  0  0  0  0  0
   -0.3963   -6.8123   -0.6181 C   0  0  0  0  0  0  0  0  0  0  0  0
    0.7983   -6.5315   -0.5460 O   0  0  0  0  0  0  0  0  0  0  0  0
   -1.8509   -5.9707   -2.4793 C   0  0  0  0  0  0  0  0  0  0  0  0
   -1.4601   -3.8738   -0.1259 H   0  0  0  0  0  0  0  0  0  0  0  0
   -2.3445   -5.9288   -0.3778 H   0  0  0  0  0  0  0  0  0  0  0  0
   -0.9819   -5.8480   -3.1361 H   0  0  0  0  0  0  0  0  0  0  0  0
   -2.2697   -6.9648   -2.6674 H   0  0  0  0  0  0  0  0  0  0  0  0
   -2.5974   -5.2249   -2.7730 H   0  0  0  0  0  0  0  0  0  0  0  0
   -0.9286   -8.0741   -0.3932 N   0  0  0  0  0  0  0  0  0  0  0  0
   -0.1164   -9.2066   -0.0141 C   0  0  0  0  0  0  0  0  0  0  0  0
   -1.9330   -8.2115   -0.4575 H   0  0  0  0  0  0  0  0  0  0  0  0
    0.1898   -9.7572   -0.9158 H   0  0  0  0  0  0  0  0  0  0  0  0
    0.7775   -8.8538    0.5212 H   0  0  0  0  0  0  0  0  0  0  0  0
   -0.6978   -9.8715    0.6415 H   0  0  0  0  0  0  0  0  0  0  0  0
 18 19  1  0  0  0  0
 19 31  1  0  0  0  0
 19 20  2  0  0  0  0
  8  9  1  0  0  0  0
  9 17  1  0  0  0  0
  9 10  2  0  0  0  0
  1  3  1  0  0  0  0
  1  7  1  0  0  0  0
  1  2  2  0  0  0  0
 32 33  1  0  0  0  0
 33 41  1  0  0  0  0
 33 34  2  0  0  0  0
 21 22  1  0  0  0  0
 22 23  1  0  0  0  0
 18 21  1  0  0  0  0
 17 23  1  0  0  0  0
 17 18  1  0  0  0  0
  8 11  1  0  0  0  0
 32 35  1  0  0  0  0
 41 42  1  0  0  0  0
  7  8  1  0  0  0  0
 31 32  1  0  0  0  0
 22 27  1  0  0  0  0
 22 28  1  0  0  0  0
 21 25  1  0  0  0  0
 21 26  1  0  0  0  0
 23 29  1  0  0  0  0
 23 30  1  0  0  0  0
 18 24  1  0  0  0  0
  3  4  1  0  0  0  0
  3  5  1  0  0  0  0
  3  6  1  0  0  0  0
 11 14  1  0  0  0  0
 11 15  1  0  0  0  0
 11 16  1  0  0  0  0
 35 38  1  0  0  0  0
 35 39  1  0  0  0  0
 35 40  1  0  0  0  0
 42 44  1  0  0  0  0
 42 45  1  0  0  0  0
 42 46  1  0  0  0  0
  8 13  1  0  0  0  0
 32 37  1  0  0  0  0
 31 36  1  0  0  0  0
 41 43  1  0  0  0  0
  7 12  1  0  0  0  0
M  END
$$$$
