@<TRIPOS>MOLECULE
default_name
   25    24     1     0     0
SMALL
No Charge or Current Charge


@<TRIPOS>ATOM
      1 N           27.4150    25.6180    24.1140 N.4        1 NGL       0.000000
      2 H1          27.7480    25.0940    24.9150 H          1 NGL       0.000000
      3 H2          27.6580    25.0920    23.2850 H          1 NGL       0.000000
      4 H3          26.4120    25.7290    24.1730 H          1 NGL       0.000000
      5 CA          28.0920    26.9360    24.0980 C.3        1 NGL       0.000000
      6 HA          27.8190    27.4680    23.1860 H          1 NGL       0.000000
      7 CB          27.6320    27.7680    25.3060 C.3        1 NGL       0.000000
      8 HB2         26.5500    27.8790    25.2200 H          1 NGL       0.000000
      9 HB3         27.8440    27.2110    26.2210 H          1 NGL       0.000000
     10 CG          28.2590    29.1690    25.4310 C.3        1 NGL       0.000000
     11 HG2         29.3160    29.0800    25.6810 H          1 NGL       0.000000
     12 HG3         28.1640    29.6980    24.4830 H          1 NGL       0.000000
     13 CD          27.5750    30.0020    26.5140 C.2        1 NGL       0.000000
     14 OE1         26.5810    29.6110    27.0920 O.2        1 NGL       0.000000
     15 NE2         28.0700    31.1750    26.8260 N.am       1 NGL       0.000000
     16 HE21        27.5740    31.6710    27.5490 H          1 NGL       0.000000
     17 HE22        28.8940    31.5450    26.3920 H          1 NGL       0.000000
     18 C           29.5990    26.7070    24.0810 C.2        1 NGL       0.000000
     19 O           30.0150    25.6500    24.5380 O.2        1 NGL       0.000000
     20 N           30.3960    27.6370    23.5400 N.am       2 NME      -0.415700
     21 H           29.9960    28.4860    23.1670 H          2 NME       0.271900
     22 CH3         31.8530    27.5050    23.4680 C.3        2 NME      -0.149000
     23 HH31        32.1230    26.5750    22.9640 H          2 NME       0.097600
     24 HH32        32.2860    28.3430    22.9180 H          2 NME       0.097600
     25 HH33        32.2780    27.4860    24.4750 H          2 NME       0.097600
@<TRIPOS>BOND
     1    18    19 2   
     2    18    20 am  
     3    15    16 1   
     4    15    17 1   
     5    13    14 2   
     6    13    15 am  
     7    10    11 1   
     8    10    12 1   
     9    10    13 1   
    10     7     8 1   
    11     7     9 1   
    12     7    10 1   
    13     5     6 1   
    14     5     7 1   
    15     5    18 1   
    16     1     2 1   
    17     1     3 1   
    18     1     4 1   
    19     1     5 1   
    20    22    23 1   
    21    22    24 1   
    22    22    25 1   
    23    20    21 1   
    24    20    22 1   
@<TRIPOS>SUBSTRUCTURE
     1 NGL         1 TEMP              0 ****  ****    0 ROOT
