
  -OEChem-02062319033D

 43 42  0     1  0  0  0  0  0999 V2000
   -2.8661   -4.7415    2.2943 C   0  0  0  0  0  0  0  0  0  0  0  0
   -2.0233   -5.5727    2.6109 O   0  0  0  0  0  0  0  0  0  0  0  0
   -4.3078   -5.0134    2.5698 C   0  0  0  0  0  0  0  0  0  0  0  0
   -4.8057   -5.5295    1.7332 H   0  0  0  0  0  0  0  0  0  0  0  0
   -4.4526   -5.6688    3.4436 H   0  0  0  0  0  0  0  0  0  0  0  0
   -4.9255   -4.1233    2.7700 H   0  0  0  0  0  0  0  0  0  0  0  0
   -2.6241   -3.5219    1.6838 N   0  0  0  0  0  0  0  0  0  0  0  0
   -1.3070   -3.0608    1.3315 C   0  0  2  0  0  0  0  0  0  0  0  0
   -1.3931   -1.5680    1.0422 C   0  0  0  0  0  0  0  0  0  0  0  0
   -2.4385   -1.0059    0.7226 O   0  0  0  0  0  0  0  0  0  0  0  0
   -0.7590   -3.8164    0.1309 C   0  0  0  0  0  0  0  0  0  0  0  0
   -3.4188   -2.9207    1.4735 H   0  0  0  0  0  0  0  0  0  0  0  0
   -0.6690   -3.2277    2.2062 H   0  0  0  0  0  0  0  0  0  0  0  0
   -1.3852   -3.6613   -0.7553 H   0  0  0  0  0  0  0  0  0  0  0  0
    0.2542   -3.4843   -0.1182 H   0  0  0  0  0  0  0  0  0  0  0  0
   -0.7257   -4.8930    0.3300 H   0  0  0  0  0  0  0  0  0  0  0  0
   -0.1563   -0.9420    1.1402 N   0  0  0  0  0  0  0  0  0  0  0  0
    0.0241    0.4693    0.9118 C   0  0  2  0  0  0  0  0  0  0  0  0
   -0.4114    0.7991   -0.5144 C   0  0  0  0  0  0  0  0  0  0  0  0
   -1.1296    1.7580   -0.7905 O   0  0  0  0  0  0  0  0  0  0  0  0
    1.4460    0.9348    1.2352 C   0  0  0  0  0  0  0  0  0  0  0  0
    1.8853    0.7836    2.9978 S   0  0  0  0  0  0  0  0  0  0  0  0
    0.6549   -1.4874    1.4215 H   0  0  0  0  0  0  0  0  0  0  0  0
   -0.6733    0.9699    1.5950 H   0  0  0  0  0  0  0  0  0  0  0  0
    2.1791    0.3558    0.6642 H   0  0  0  0  0  0  0  0  0  0  0  0
    1.5666    1.9872    0.9564 H   0  0  0  0  0  0  0  0  0  0  0  0
    3.1286    1.2638    2.8682 H   0  0  0  0  0  0  0  0  0  0  0  0
    0.0752   -0.1163   -1.4368 N   0  0  0  0  0  0  0  0  0  0  0  0
   -0.2089   -0.0245   -2.8498 C   0  0  2  0  0  0  0  0  0  0  0  0
    0.3458   -1.2729   -3.5231 C   0  0  0  0  0  0  0  0  0  0  0  0
    1.2429   -1.9564   -3.0341 O   0  0  0  0  0  0  0  0  0  0  0  0
    0.3948    1.2332   -3.4551 C   0  0  0  0  0  0  0  0  0  0  0  0
    0.6908   -0.8615   -1.1246 H   0  0  0  0  0  0  0  0  0  0  0  0
   -1.2994   -0.0073   -2.9527 H   0  0  0  0  0  0  0  0  0  0  0  0
    1.4869    1.2339   -3.3615 H   0  0  0  0  0  0  0  0  0  0  0  0
    0.1543    1.3158   -4.5202 H   0  0  0  0  0  0  0  0  0  0  0  0
    0.0173    2.1288   -2.9498 H   0  0  0  0  0  0  0  0  0  0  0  0
   -0.2489   -1.5097   -4.7545 N   0  0  0  0  0  0  0  0  0  0  0  0
    0.1148   -2.6273   -5.5940 C   0  0  0  0  0  0  0  0  0  0  0  0
   -0.9980   -0.9019   -5.0728 H   0  0  0  0  0  0  0  0  0  0  0  0
    0.8992   -2.3165   -6.2997 H   0  0  0  0  0  0  0  0  0  0  0  0
    0.4905   -3.4495   -4.9672 H   0  0  0  0  0  0  0  0  0  0  0  0
   -0.7685   -2.9676   -6.1543 H   0  0  0  0  0  0  0  0  0  0  0  0
  1  3  1  0  0  0  0
  1  7  1  0  0  0  0
  1  2  2  0  0  0  0
 29 30  1  0  0  0  0
 30 38  1  0  0  0  0
 30 31  2  0  0  0  0
  8  9  1  0  0  0  0
  9 17  1  0  0  0  0
  9 10  2  0  0  0  0
 18 19  1  0  0  0  0
 19 28  1  0  0  0  0
 19 20  2  0  0  0  0
 29 32  1  0  0  0  0
  8 11  1  0  0  0  0
 38 39  1  0  0  0  0
 18 21  1  0  0  0  0
 21 22  1  0  0  0  0
 28 29  1  0  0  0  0
  7  8  1  0  0  0  0
 17 18  1  0  0  0  0
  3  4  1  0  0  0  0
  3  5  1  0  0  0  0
  3  6  1  0  0  0  0
 32 35  1  0  0  0  0
 32 36  1  0  0  0  0
 32 37  1  0  0  0  0
 11 14  1  0  0  0  0
 11 15  1  0  0  0  0
 11 16  1  0  0  0  0
 39 41  1  0  0  0  0
 39 42  1  0  0  0  0
 39 43  1  0  0  0  0
 21 25  1  0  0  0  0
 21 26  1  0  0  0  0
 29 34  1  0  0  0  0
  8 13  1  0  0  0  0
 18 24  1  0  0  0  0
 38 40  1  0  0  0  0
  7 12  1  0  0  0  0
 28 33  1  0  0  0  0
 17 23  1  0  0  0  0
 22 27  1  0  0  0  0
M  END
$$$$

  -OEChem-02062319033D

 43 42  0     1  0  0  0  0  0999 V2000
   -2.8661   -4.7415    2.2943 C   0  0  0  0  0  0  0  0  0  0  0  0
   -2.0233   -5.5727    2.6109 O   0  0  0  0  0  0  0  0  0  0  0  0
   -4.3078   -5.0134    2.5698 C   0  0  0  0  0  0  0  0  0  0  0  0
   -4.8057   -5.5295    1.7332 H   0  0  0  0  0  0  0  0  0  0  0  0
   -4.4526   -5.6688    3.4436 H   0  0  0  0  0  0  0  0  0  0  0  0
   -4.9255   -4.1233    2.7700 H   0  0  0  0  0  0  0  0  0  0  0  0
   -2.6241   -3.5219    1.6838 N   0  0  0  0  0  0  0  0  0  0  0  0
   -1.3070   -3.0608    1.3315 C   0  0  2  0  0  0  0  0  0  0  0  0
   -1.3931   -1.5680    1.0422 C   0  0  0  0  0  0  0  0  0  0  0  0
   -2.4385   -1.0059    0.7226 O   0  0  0  0  0  0  0  0  0  0  0  0
   -0.7590   -3.8164    0.1309 C   0  0  0  0  0  0  0  0  0  0  0  0
   -3.4188   -2.9207    1.4735 H   0  0  0  0  0  0  0  0  0  0  0  0
   -0.6690   -3.2277    2.2062 H   0  0  0  0  0  0  0  0  0  0  0  0
   -1.3852   -3.6613   -0.7553 H   0  0  0  0  0  0  0  0  0  0  0  0
    0.2542   -3.4843   -0.1182 H   0  0  0  0  0  0  0  0  0  0  0  0
   -0.7257   -4.8930    0.3300 H   0  0  0  0  0  0  0  0  0  0  0  0
   -0.1563   -0.9420    1.1402 N   0  0  0  0  0  0  0  0  0  0  0  0
   -0.0108    0.4891    1.2255 C   0  0  2  0  0  0  0  0  0  0  0  0
   -0.6141    1.1231   -0.0262 C   0  0  0  0  0  0  0  0  0  0  0  0
   -1.3643    2.0963    0.0112 O   0  0  0  0  0  0  0  0  0  0  0  0
    1.4373    0.9132    1.4829 C   0  0  0  0  0  0  0  0  0  0  0  0
    2.0834    0.3761    3.1005 S   0  0  0  0  0  0  0  0  0  0  0  0
    0.6851   -1.5112    1.1929 H   0  0  0  0  0  0  0  0  0  0  0  0
   -0.6244    0.7972    2.0812 H   0  0  0  0  0  0  0  0  0  0  0  0
    2.1001    0.5042    0.7134 H   0  0  0  0  0  0  0  0  0  0  0  0
    1.5191    2.0048    1.4434 H   0  0  0  0  0  0  0  0  0  0  0  0
    3.3004    0.9126    2.9441 H   0  0  0  0  0  0  0  0  0  0  0  0
   -0.2362    0.4595   -1.1848 N   0  0  0  0  0  0  0  0  0  0  0  0
   -0.6865    0.8636   -2.4962 C   0  0  2  0  0  0  0  0  0  0  0  0
   -0.2100   -0.1788   -3.4991 C   0  0  0  0  0  0  0  0  0  0  0  0
    0.7420   -0.9272   -3.2875 O   0  0  0  0  0  0  0  0  0  0  0  0
   -0.1648    2.2453   -2.8590 C   0  0  0  0  0  0  0  0  0  0  0  0
    0.4155   -0.3174   -1.1261 H   0  0  0  0  0  0  0  0  0  0  0  0
   -1.7816    0.8691   -2.4668 H   0  0  0  0  0  0  0  0  0  0  0  0
    0.9307    2.2594   -2.8933 H   0  0  0  0  0  0  0  0  0  0  0  0
   -0.5304    2.5621   -3.8413 H   0  0  0  0  0  0  0  0  0  0  0  0
   -0.4837    2.9886   -2.1204 H   0  0  0  0  0  0  0  0  0  0  0  0
   -0.9456   -0.1458   -4.6755 N   0  0  0  0  0  0  0  0  0  0  0  0
   -0.6790   -1.0290   -5.7867 C   0  0  0  0  0  0  0  0  0  0  0  0
   -1.7299    0.4945   -4.7566 H   0  0  0  0  0  0  0  0  0  0  0  0
    0.0146   -0.5398   -6.4864 H   0  0  0  0  0  0  0  0  0  0  0  0
   -0.2278   -1.9606   -5.4145 H   0  0  0  0  0  0  0  0  0  0  0  0
   -1.6210   -1.2597   -6.3057 H   0  0  0  0  0  0  0  0  0  0  0  0
  1  3  1  0  0  0  0
  1  7  1  0  0  0  0
  1  2  2  0  0  0  0
 29 30  1  0  0  0  0
 30 38  1  0  0  0  0
 30 31  2  0  0  0  0
  8  9  1  0  0  0  0
  9 17  1  0  0  0  0
  9 10  2  0  0  0  0
 18 19  1  0  0  0  0
 19 28  1  0  0  0  0
 19 20  2  0  0  0  0
 29 32  1  0  0  0  0
  8 11  1  0  0  0  0
 38 39  1  0  0  0  0
 18 21  1  0  0  0  0
 21 22  1  0  0  0  0
 28 29  1  0  0  0  0
  7  8  1  0  0  0  0
 17 18  1  0  0  0  0
  3  4  1  0  0  0  0
  3  5  1  0  0  0  0
  3  6  1  0  0  0  0
 32 35  1  0  0  0  0
 32 36  1  0  0  0  0
 32 37  1  0  0  0  0
 11 14  1  0  0  0  0
 11 15  1  0  0  0  0
 11 16  1  0  0  0  0
 39 41  1  0  0  0  0
 39 42  1  0  0  0  0
 39 43  1  0  0  0  0
 21 25  1  0  0  0  0
 21 26  1  0  0  0  0
 29 34  1  0  0  0  0
  8 13  1  0  0  0  0
 18 24  1  0  0  0  0
 38 40  1  0  0  0  0
  7 12  1  0  0  0  0
 28 33  1  0  0  0  0
 17 23  1  0  0  0  0
 22 27  1  0  0  0  0
M  END
$$$$

  -OEChem-02062319033D

 43 42  0     1  0  0  0  0  0999 V2000
   -2.8661   -4.7415    2.2943 C   0  0  0  0  0  0  0  0  0  0  0  0
   -2.0233   -5.5727    2.6109 O   0  0  0  0  0  0  0  0  0  0  0  0
   -4.3078   -5.0134    2.5698 C   0  0  0  0  0  0  0  0  0  0  0  0
   -4.8057   -5.5295    1.7332 H   0  0  0  0  0  0  0  0  0  0  0  0
   -4.4526   -5.6688    3.4436 H   0  0  0  0  0  0  0  0  0  0  0  0
   -4.9255   -4.1233    2.7700 H   0  0  0  0  0  0  0  0  0  0  0  0
   -2.6241   -3.5219    1.6838 N   0  0  0  0  0  0  0  0  0  0  0  0
   -1.3070   -3.0608    1.3315 C   0  0  2  0  0  0  0  0  0  0  0  0
   -1.3931   -1.5680    1.0422 C   0  0  0  0  0  0  0  0  0  0  0  0
   -2.4385   -1.0059    0.7226 O   0  0  0  0  0  0  0  0  0  0  0  0
   -0.7590   -3.8164    0.1309 C   0  0  0  0  0  0  0  0  0  0  0  0
   -3.4188   -2.9207    1.4735 H   0  0  0  0  0  0  0  0  0  0  0  0
   -0.6690   -3.2277    2.2062 H   0  0  0  0  0  0  0  0  0  0  0  0
   -1.3852   -3.6613   -0.7553 H   0  0  0  0  0  0  0  0  0  0  0  0
    0.2542   -3.4843   -0.1182 H   0  0  0  0  0  0  0  0  0  0  0  0
   -0.7257   -4.8930    0.3300 H   0  0  0  0  0  0  0  0  0  0  0  0
   -0.1563   -0.9420    1.1402 N   0  0  0  0  0  0  0  0  0  0  0  0
   -0.0083    0.4354    1.5372 C   0  0  2  0  0  0  0  0  0  0  0  0
   -0.7589    1.3198    0.5436 C   0  0  0  0  0  0  0  0  0  0  0  0
   -1.5038    2.2340    0.8909 O   0  0  0  0  0  0  0  0  0  0  0  0
    1.4581    0.8351    1.7183 C   0  0  0  0  0  0  0  0  0  0  0  0
    2.2942   -0.0376    3.0827 S   0  0  0  0  0  0  0  0  0  0  0  0
    0.6880   -1.4810    0.9631 H   0  0  0  0  0  0  0  0  0  0  0  0
   -0.5173    0.5193    2.5054 H   0  0  0  0  0  0  0  0  0  0  0  0
    2.0267    0.6348    0.8043 H   0  0  0  0  0  0  0  0  0  0  0  0
    1.5296    1.9087    1.9233 H   0  0  0  0  0  0  0  0  0  0  0  0
    3.4815    0.5590    2.9165 H   0  0  0  0  0  0  0  0  0  0  0  0
   -0.5181    0.9519   -0.7725 N   0  0  0  0  0  0  0  0  0  0  0  0
   -1.1229    1.6314   -1.8944 C   0  0  2  0  0  0  0  0  0  0  0  0
   -0.7640    0.8624   -3.1590 C   0  0  0  0  0  0  0  0  0  0  0  0
    0.2098    0.1162   -3.2368 O   0  0  0  0  0  0  0  0  0  0  0  0
   -0.6543    3.0753   -1.9848 C   0  0  0  0  0  0  0  0  0  0  0  0
    0.1394    0.2035   -0.9702 H   0  0  0  0  0  0  0  0  0  0  0  0
   -2.2067    1.5950   -1.7393 H   0  0  0  0  0  0  0  0  0  0  0  0
    0.4293    3.1319   -2.1401 H   0  0  0  0  0  0  0  0  0  0  0  0
   -1.1354    3.5971   -2.8186 H   0  0  0  0  0  0  0  0  0  0  0  0
   -0.8866    3.6189   -1.0627 H   0  0  0  0  0  0  0  0  0  0  0  0
   -1.6342    1.1407   -4.2037 N   0  0  0  0  0  0  0  0  0  0  0  0
   -1.4974    0.5447   -5.5122 C   0  0  0  0  0  0  0  0  0  0  0  0
   -2.4256    1.7572   -4.0441 H   0  0  0  0  0  0  0  0  0  0  0  0
   -0.8940    1.2032   -6.1543 H   0  0  0  0  0  0  0  0  0  0  0  0
   -1.0009   -0.4325   -5.4198 H   0  0  0  0  0  0  0  0  0  0  0  0
   -2.4933    0.4092   -5.9592 H   0  0  0  0  0  0  0  0  0  0  0  0
  1  3  1  0  0  0  0
  1  7  1  0  0  0  0
  1  2  2  0  0  0  0
 29 30  1  0  0  0  0
 30 38  1  0  0  0  0
 30 31  2  0  0  0  0
  8  9  1  0  0  0  0
  9 17  1  0  0  0  0
  9 10  2  0  0  0  0
 18 19  1  0  0  0  0
 19 28  1  0  0  0  0
 19 20  2  0  0  0  0
 29 32  1  0  0  0  0
  8 11  1  0  0  0  0
 38 39  1  0  0  0  0
 18 21  1  0  0  0  0
 21 22  1  0  0  0  0
 28 29  1  0  0  0  0
  7  8  1  0  0  0  0
 17 18  1  0  0  0  0
  3  4  1  0  0  0  0
  3  5  1  0  0  0  0
  3  6  1  0  0  0  0
 32 35  1  0  0  0  0
 32 36  1  0  0  0  0
 32 37  1  0  0  0  0
 11 14  1  0  0  0  0
 11 15  1  0  0  0  0
 11 16  1  0  0  0  0
 39 41  1  0  0  0  0
 39 42  1  0  0  0  0
 39 43  1  0  0  0  0
 21 25  1  0  0  0  0
 21 26  1  0  0  0  0
 29 34  1  0  0  0  0
  8 13  1  0  0  0  0
 18 24  1  0  0  0  0
 38 40  1  0  0  0  0
  7 12  1  0  0  0  0
 28 33  1  0  0  0  0
 17 23  1  0  0  0  0
 22 27  1  0  0  0  0
M  END
$$$$

  -OEChem-02062319033D

 43 42  0     1  0  0  0  0  0999 V2000
   -2.8661   -4.7415    2.2943 C   0  0  0  0  0  0  0  0  0  0  0  0
   -2.0233   -5.5727    2.6109 O   0  0  0  0  0  0  0  0  0  0  0  0
   -4.3078   -5.0134    2.5698 C   0  0  0  0  0  0  0  0  0  0  0  0
   -4.8057   -5.5295    1.7332 H   0  0  0  0  0  0  0  0  0  0  0  0
   -4.4526   -5.6688    3.4436 H   0  0  0  0  0  0  0  0  0  0  0  0
   -4.9255   -4.1233    2.7700 H   0  0  0  0  0  0  0  0  0  0  0  0
   -2.6241   -3.5219    1.6838 N   0  0  0  0  0  0  0  0  0  0  0  0
   -1.3070   -3.0608    1.3315 C   0  0  2  0  0  0  0  0  0  0  0  0
   -1.3931   -1.5680    1.0422 C   0  0  0  0  0  0  0  0  0  0  0  0
   -2.4385   -1.0059    0.7226 O   0  0  0  0  0  0  0  0  0  0  0  0
   -0.7590   -3.8164    0.1309 C   0  0  0  0  0  0  0  0  0  0  0  0
   -3.4188   -2.9207    1.4735 H   0  0  0  0  0  0  0  0  0  0  0  0
   -0.6690   -3.2277    2.2062 H   0  0  0  0  0  0  0  0  0  0  0  0
   -1.3852   -3.6613   -0.7553 H   0  0  0  0  0  0  0  0  0  0  0  0
    0.2542   -3.4843   -0.1182 H   0  0  0  0  0  0  0  0  0  0  0  0
   -0.7257   -4.8930    0.3300 H   0  0  0  0  0  0  0  0  0  0  0  0
   -0.1563   -0.9420    1.1402 N   0  0  0  0  0  0  0  0  0  0  0  0
    0.0315    0.3117    1.8255 C   0  0  2  0  0  0  0  0  0  0  0  0
   -0.8358    1.3759    1.1563 C   0  0  0  0  0  0  0  0  0  0  0  0
   -1.5385    2.1619    1.7886 O   0  0  0  0  0  0  0  0  0  0  0  0
    1.5072    0.7059    1.9251 C   0  0  0  0  0  0  0  0  0  0  0  0
    2.5034   -0.4293    2.9456 S   0  0  0  0  0  0  0  0  0  0  0  0
    0.6635   -1.3988    0.7477 H   0  0  0  0  0  0  0  0  0  0  0  0
   -0.3594    0.1551    2.8386 H   0  0  0  0  0  0  0  0  0  0  0  0
    1.9641    0.7387    0.9307 H   0  0  0  0  0  0  0  0  0  0  0  0
    1.5975    1.7056    2.3635 H   0  0  0  0  0  0  0  0  0  0  0  0
    3.6598    0.2272    2.7872 H   0  0  0  0  0  0  0  0  0  0  0  0
   -0.7514    1.3275   -0.2280 N   0  0  0  0  0  0  0  0  0  0  0  0
   -1.4882    2.2263   -1.0853 C   0  0  2  0  0  0  0  0  0  0  0  0
   -1.2785    1.7796   -2.5261 C   0  0  0  0  0  0  0  0  0  0  0  0
   -0.3174    1.1026   -2.8854 O   0  0  0  0  0  0  0  0  0  0  0  0
   -1.0403    3.6667   -0.8921 C   0  0  0  0  0  0  0  0  0  0  0  0
   -0.1185    0.6656   -0.6674 H   0  0  0  0  0  0  0  0  0  0  0  0
   -2.5457    2.1208   -0.8199 H   0  0  0  0  0  0  0  0  0  0  0  0
    0.0169    3.7920   -1.1532 H   0  0  0  0  0  0  0  0  0  0  0  0
   -1.6194    4.3502   -1.5219 H   0  0  0  0  0  0  0  0  0  0  0  0
   -1.1640    3.9768    0.1511 H   0  0  0  0  0  0  0  0  0  0  0  0
   -2.2679    2.2621   -3.3714 N   0  0  0  0  0  0  0  0  0  0  0  0
   -2.2846    1.9867   -4.7891 C   0  0  0  0  0  0  0  0  0  0  0  0
   -3.0375    2.8000   -2.9839 H   0  0  0  0  0  0  0  0  0  0  0  0
   -1.7648    2.7938   -5.3261 H   0  0  0  0  0  0  0  0  0  0  0  0
   -1.7762    1.0307   -4.9828 H   0  0  0  0  0  0  0  0  0  0  0  0
   -3.3259    1.9255   -5.1383 H   0  0  0  0  0  0  0  0  0  0  0  0
  1  3  1  0  0  0  0
  1  7  1  0  0  0  0
  1  2  2  0  0  0  0
 29 30  1  0  0  0  0
 30 38  1  0  0  0  0
 30 31  2  0  0  0  0
  8  9  1  0  0  0  0
  9 17  1  0  0  0  0
  9 10  2  0  0  0  0
 18 19  1  0  0  0  0
 19 28  1  0  0  0  0
 19 20  2  0  0  0  0
 29 32  1  0  0  0  0
  8 11  1  0  0  0  0
 38 39  1  0  0  0  0
 18 21  1  0  0  0  0
 21 22  1  0  0  0  0
 28 29  1  0  0  0  0
  7  8  1  0  0  0  0
 17 18  1  0  0  0  0
  3  4  1  0  0  0  0
  3  5  1  0  0  0  0
  3  6  1  0  0  0  0
 32 35  1  0  0  0  0
 32 36  1  0  0  0  0
 32 37  1  0  0  0  0
 11 14  1  0  0  0  0
 11 15  1  0  0  0  0
 11 16  1  0  0  0  0
 39 41  1  0  0  0  0
 39 42  1  0  0  0  0
 39 43  1  0  0  0  0
 21 25  1  0  0  0  0
 21 26  1  0  0  0  0
 29 34  1  0  0  0  0
  8 13  1  0  0  0  0
 18 24  1  0  0  0  0
 38 40  1  0  0  0  0
  7 12  1  0  0  0  0
 28 33  1  0  0  0  0
 17 23  1  0  0  0  0
 22 27  1  0  0  0  0
M  END
$$$$

  -OEChem-02062319033D

 43 42  0     1  0  0  0  0  0999 V2000
   -2.8661   -4.7415    2.2943 C   0  0  0  0  0  0  0  0  0  0  0  0
   -2.0233   -5.5727    2.6109 O   0  0  0  0  0  0  0  0  0  0  0  0
   -4.3078   -5.0134    2.5698 C   0  0  0  0  0  0  0  0  0  0  0  0
   -4.8057   -5.5295    1.7332 H   0  0  0  0  0  0  0  0  0  0  0  0
   -4.4526   -5.6688    3.4436 H   0  0  0  0  0  0  0  0  0  0  0  0
   -4.9255   -4.1233    2.7700 H   0  0  0  0  0  0  0  0  0  0  0  0
   -2.6241   -3.5219    1.6838 N   0  0  0  0  0  0  0  0  0  0  0  0
   -1.3070   -3.0608    1.3315 C   0  0  2  0  0  0  0  0  0  0  0  0
   -1.3931   -1.5680    1.0422 C   0  0  0  0  0  0  0  0  0  0  0  0
   -2.4385   -1.0059    0.7226 O   0  0  0  0  0  0  0  0  0  0  0  0
   -0.7590   -3.8164    0.1309 C   0  0  0  0  0  0  0  0  0  0  0  0
   -3.4188   -2.9207    1.4735 H   0  0  0  0  0  0  0  0  0  0  0  0
   -0.6690   -3.2277    2.2062 H   0  0  0  0  0  0  0  0  0  0  0  0
   -1.3852   -3.6613   -0.7553 H   0  0  0  0  0  0  0  0  0  0  0  0
    0.2542   -3.4843   -0.1182 H   0  0  0  0  0  0  0  0  0  0  0  0
   -0.7257   -4.8930    0.3300 H   0  0  0  0  0  0  0  0  0  0  0  0
   -0.1563   -0.9420    1.1402 N   0  0  0  0  0  0  0  0  0  0  0  0
    0.1057    0.1265    2.0709 C   0  0  2  0  0  0  0  0  0  0  0  0
   -0.8398    1.2876    1.7699 C   0  0  0  0  0  0  0  0  0  0  0  0
   -1.4660    1.8849    2.6431 O   0  0  0  0  0  0  0  0  0  0  0  0
    1.5810    0.5343    2.0895 C   0  0  0  0  0  0  0  0  0  0  0  0
    2.6965   -0.7722    2.6986 S   0  0  0  0  0  0  0  0  0  0  0  0
    0.6132   -1.2702    0.5614 H   0  0  0  0  0  0  0  0  0  0  0  0
   -0.1614   -0.2705    3.0582 H   0  0  0  0  0  0  0  0  0  0  0  0
    1.9165    0.8088    1.0841 H   0  0  0  0  0  0  0  0  0  0  0  0
    1.7182    1.4093    2.7340 H   0  0  0  0  0  0  0  0  0  0  0  0
    3.8229   -0.0604    2.5652 H   0  0  0  0  0  0  0  0  0  0  0  0
   -0.9201    1.5605    0.4117 N   0  0  0  0  0  0  0  0  0  0  0  0
   -1.7576    2.6080   -0.1242 C   0  0  2  0  0  0  0  0  0  0  0  0
   -1.7184    2.5104   -1.6435 C   0  0  0  0  0  0  0  0  0  0  0  0
   -0.8036    1.9649   -2.2573 O   0  0  0  0  0  0  0  0  0  0  0  0
   -1.2965    3.9793    0.3445 C   0  0  0  0  0  0  0  0  0  0  0  0
   -0.3408    1.0376   -0.2384 H   0  0  0  0  0  0  0  0  0  0  0  0
   -2.7757    2.4107    0.2289 H   0  0  0  0  0  0  0  0  0  0  0  0
   -0.2784    4.1947    0.0003 H   0  0  0  0  0  0  0  0  0  0  0  0
   -1.9495    4.7701   -0.0394 H   0  0  0  0  0  0  0  0  0  0  0  0
   -1.2970    4.0378    1.4383 H   0  0  0  0  0  0  0  0  0  0  0  0
   -2.8034    3.1420   -2.2352 N   0  0  0  0  0  0  0  0  0  0  0  0
   -2.9871    3.1986   -3.6667 C   0  0  0  0  0  0  0  0  0  0  0  0
   -3.5240    3.5519   -1.6483 H   0  0  0  0  0  0  0  0  0  0  0  0
   -2.5384    4.1234   -4.0582 H   0  0  0  0  0  0  0  0  0  0  0  0
   -2.5008    2.3292   -4.1333 H   0  0  0  0  0  0  0  0  0  0  0  0
   -4.0622    3.1859   -3.8990 H   0  0  0  0  0  0  0  0  0  0  0  0
  1  3  1  0  0  0  0
  1  7  1  0  0  0  0
  1  2  2  0  0  0  0
 29 30  1  0  0  0  0
 30 38  1  0  0  0  0
 30 31  2  0  0  0  0
  8  9  1  0  0  0  0
  9 17  1  0  0  0  0
  9 10  2  0  0  0  0
 18 19  1  0  0  0  0
 19 28  1  0  0  0  0
 19 20  2  0  0  0  0
 29 32  1  0  0  0  0
  8 11  1  0  0  0  0
 38 39  1  0  0  0  0
 18 21  1  0  0  0  0
 21 22  1  0  0  0  0
 28 29  1  0  0  0  0
  7  8  1  0  0  0  0
 17 18  1  0  0  0  0
  3  4  1  0  0  0  0
  3  5  1  0  0  0  0
  3  6  1  0  0  0  0
 32 35  1  0  0  0  0
 32 36  1  0  0  0  0
 32 37  1  0  0  0  0
 11 14  1  0  0  0  0
 11 15  1  0  0  0  0
 11 16  1  0  0  0  0
 39 41  1  0  0  0  0
 39 42  1  0  0  0  0
 39 43  1  0  0  0  0
 21 25  1  0  0  0  0
 21 26  1  0  0  0  0
 29 34  1  0  0  0  0
  8 13  1  0  0  0  0
 18 24  1  0  0  0  0
 38 40  1  0  0  0  0
  7 12  1  0  0  0  0
 28 33  1  0  0  0  0
 17 23  1  0  0  0  0
 22 27  1  0  0  0  0
M  END
$$$$

  -OEChem-02062319033D

 43 42  0     1  0  0  0  0  0999 V2000
   -2.8661   -4.7415    2.2943 C   0  0  0  0  0  0  0  0  0  0  0  0
   -2.0233   -5.5727    2.6109 O   0  0  0  0  0  0  0  0  0  0  0  0
   -4.3078   -5.0134    2.5698 C   0  0  0  0  0  0  0  0  0  0  0  0
   -4.8057   -5.5295    1.7332 H   0  0  0  0  0  0  0  0  0  0  0  0
   -4.4526   -5.6688    3.4436 H   0  0  0  0  0  0  0  0  0  0  0  0
   -4.9255   -4.1233    2.7700 H   0  0  0  0  0  0  0  0  0  0  0  0
   -2.6241   -3.5219    1.6838 N   0  0  0  0  0  0  0  0  0  0  0  0
   -1.3070   -3.0608    1.3315 C   0  0  2  0  0  0  0  0  0  0  0  0
   -1.3931   -1.5680    1.0422 C   0  0  0  0  0  0  0  0  0  0  0  0
   -2.4385   -1.0059    0.7226 O   0  0  0  0  0  0  0  0  0  0  0  0
   -0.7590   -3.8164    0.1309 C   0  0  0  0  0  0  0  0  0  0  0  0
   -3.4188   -2.9207    1.4735 H   0  0  0  0  0  0  0  0  0  0  0  0
   -0.6690   -3.2277    2.2062 H   0  0  0  0  0  0  0  0  0  0  0  0
   -1.3852   -3.6613   -0.7553 H   0  0  0  0  0  0  0  0  0  0  0  0
    0.2542   -3.4843   -0.1182 H   0  0  0  0  0  0  0  0  0  0  0  0
   -0.7257   -4.8930    0.3300 H   0  0  0  0  0  0  0  0  0  0  0  0
   -0.1563   -0.9420    1.1402 N   0  0  0  0  0  0  0  0  0  0  0  0
    0.2095   -0.1075    2.2567 C   0  0  2  0  0  0  0  0  0  0  0  0
   -0.7704    1.0609    2.3428 C   0  0  0  0  0  0  0  0  0  0  0  0
   -1.2913    1.4217    3.3963 O   0  0  0  0  0  0  0  0  0  0  0  0
    1.6746    0.3320    2.2001 C   0  0  0  0  0  0  0  0  0  0  0  0
    2.8606   -1.0430    2.3586 S   0  0  0  0  0  0  0  0  0  0  0  0
    0.5405   -1.1040    0.4170 H   0  0  0  0  0  0  0  0  0  0  0  0
    0.0633   -0.7286    3.1491 H   0  0  0  0  0  0  0  0  0  0  0  0
    1.8871    0.8403    1.2539 H   0  0  0  0  0  0  0  0  0  0  0  0
    1.8833    1.0399    3.0095 H   0  0  0  0  0  0  0  0  0  0  0  0
    3.9598   -0.2839    2.2654 H   0  0  0  0  0  0  0  0  0  0  0  0
   -1.0127    1.6352    1.1030 N   0  0  0  0  0  0  0  0  0  0  0  0
   -1.9127    2.7503    0.9235 C   0  0  2  0  0  0  0  0  0  0  0  0
   -2.0537    3.0050   -0.5714 C   0  0  0  0  0  0  0  0  0  0  0  0
   -1.2158    2.6442   -1.3953 O   0  0  0  0  0  0  0  0  0  0  0  0
   -1.4056    3.9917    1.6409 C   0  0  0  0  0  0  0  0  0  0  0  0
   -0.5123    1.2940    0.2876 H   0  0  0  0  0  0  0  0  0  0  0  0
   -2.8807    2.4450    1.3355 H   0  0  0  0  0  0  0  0  0  0  0  0
   -0.4365    4.3127    1.2417 H   0  0  0  0  0  0  0  0  0  0  0  0
   -2.1031    4.8281    1.5277 H   0  0  0  0  0  0  0  0  0  0  0  0
   -1.2764    3.7978    2.7112 H   0  0  0  0  0  0  0  0  0  0  0  0
   -3.2042    3.7204   -0.8727 N   0  0  0  0  0  0  0  0  0  0  0  0
   -3.5568    4.0978   -2.2214 C   0  0  0  0  0  0  0  0  0  0  0  0
   -3.8519    3.9616   -0.1283 H   0  0  0  0  0  0  0  0  0  0  0  0
   -3.1621    5.1016   -2.4370 H   0  0  0  0  0  0  0  0  0  0  0  0
   -3.1254    3.3745   -2.9291 H   0  0  0  0  0  0  0  0  0  0  0  0
   -4.6519    4.1044   -2.3258 H   0  0  0  0  0  0  0  0  0  0  0  0
  1  3  1  0  0  0  0
  1  7  1  0  0  0  0
  1  2  2  0  0  0  0
 29 30  1  0  0  0  0
 30 38  1  0  0  0  0
 30 31  2  0  0  0  0
  8  9  1  0  0  0  0
  9 17  1  0  0  0  0
  9 10  2  0  0  0  0
 18 19  1  0  0  0  0
 19 28  1  0  0  0  0
 19 20  2  0  0  0  0
 29 32  1  0  0  0  0
  8 11  1  0  0  0  0
 38 39  1  0  0  0  0
 18 21  1  0  0  0  0
 21 22  1  0  0  0  0
 28 29  1  0  0  0  0
  7  8  1  0  0  0  0
 17 18  1  0  0  0  0
  3  4  1  0  0  0  0
  3  5  1  0  0  0  0
  3  6  1  0  0  0  0
 32 35  1  0  0  0  0
 32 36  1  0  0  0  0
 32 37  1  0  0  0  0
 11 14  1  0  0  0  0
 11 15  1  0  0  0  0
 11 16  1  0  0  0  0
 39 41  1  0  0  0  0
 39 42  1  0  0  0  0
 39 43  1  0  0  0  0
 21 25  1  0  0  0  0
 21 26  1  0  0  0  0
 29 34  1  0  0  0  0
  8 13  1  0  0  0  0
 18 24  1  0  0  0  0
 38 40  1  0  0  0  0
  7 12  1  0  0  0  0
 28 33  1  0  0  0  0
 17 23  1  0  0  0  0
 22 27  1  0  0  0  0
M  END
$$$$

  -OEChem-02062319033D

 43 42  0     1  0  0  0  0  0999 V2000
   -2.8661   -4.7415    2.2943 C   0  0  0  0  0  0  0  0  0  0  0  0
   -2.0233   -5.5727    2.6109 O   0  0  0  0  0  0  0  0  0  0  0  0
   -4.3078   -5.0134    2.5698 C   0  0  0  0  0  0  0  0  0  0  0  0
   -4.8057   -5.5295    1.7332 H   0  0  0  0  0  0  0  0  0  0  0  0
   -4.4526   -5.6688    3.4436 H   0  0  0  0  0  0  0  0  0  0  0  0
   -4.9255   -4.1233    2.7700 H   0  0  0  0  0  0  0  0  0  0  0  0
   -2.6241   -3.5219    1.6838 N   0  0  0  0  0  0  0  0  0  0  0  0
   -1.3070   -3.0608    1.3315 C   0  0  2  0  0  0  0  0  0  0  0  0
   -1.3931   -1.5680    1.0422 C   0  0  0  0  0  0  0  0  0  0  0  0
   -2.4385   -1.0059    0.7226 O   0  0  0  0  0  0  0  0  0  0  0  0
   -0.7590   -3.8164    0.1309 C   0  0  0  0  0  0  0  0  0  0  0  0
   -3.4188   -2.9207    1.4735 H   0  0  0  0  0  0  0  0  0  0  0  0
   -0.6690   -3.2277    2.2062 H   0  0  0  0  0  0  0  0  0  0  0  0
   -1.3852   -3.6613   -0.7553 H   0  0  0  0  0  0  0  0  0  0  0  0
    0.2542   -3.4843   -0.1182 H   0  0  0  0  0  0  0  0  0  0  0  0
   -0.7257   -4.8930    0.3300 H   0  0  0  0  0  0  0  0  0  0  0  0
   -0.1563   -0.9420    1.1402 N   0  0  0  0  0  0  0  0  0  0  0  0
    0.3356   -0.3745    2.3701 C   0  0  2  0  0  0  0  0  0  0  0  0
   -0.6325    0.7112    2.8358 C   0  0  0  0  0  0  0  0  0  0  0  0
   -1.0262    0.8041    3.9967 O   0  0  0  0  0  0  0  0  0  0  0  0
    1.7816    0.1129    2.2494 C   0  0  0  0  0  0  0  0  0  0  0  0
    2.9843   -1.2233    1.9485 S   0  0  0  0  0  0  0  0  0  0  0  0
    0.4504   -0.9116    0.3243 H   0  0  0  0  0  0  0  0  0  0  0  0
    0.2993   -1.1880    3.1052 H   0  0  0  0  0  0  0  0  0  0  0  0
    1.8779    0.8311    1.4286 H   0  0  0  0  0  0  0  0  0  0  0  0
    2.0817    0.6226    3.1713 H   0  0  0  0  0  0  0  0  0  0  0  0
    4.0613   -0.4284    1.9084 H   0  0  0  0  0  0  0  0  0  0  0  0
   -1.0229    1.5464    1.7987 N   0  0  0  0  0  0  0  0  0  0  0  0
   -1.9430    2.6437    1.9864 C   0  0  2  0  0  0  0  0  0  0  0  0
   -2.2617    3.2296    0.6173 C   0  0  0  0  0  0  0  0  0  0  0  0
   -1.5259    3.0943   -0.3581 O   0  0  0  0  0  0  0  0  0  0  0  0
   -1.3600    3.7030    2.9087 C   0  0  0  0  0  0  0  0  0  0  0  0
   -0.6213    1.4174    0.8747 H   0  0  0  0  0  0  0  0  0  0  0  0
   -2.8538    2.2213    2.4245 H   0  0  0  0  0  0  0  0  0  0  0  0
   -0.4467    4.1377    2.4864 H   0  0  0  0  0  0  0  0  0  0  0  0
   -2.0699    4.5204    3.0728 H   0  0  0  0  0  0  0  0  0  0  0  0
   -1.1037    3.2732    3.8831 H   0  0  0  0  0  0  0  0  0  0  0  0
   -3.4431    3.9580    0.6235 N   0  0  0  0  0  0  0  0  0  0  0  0
   -3.9551    4.6230   -0.5519 C   0  0  0  0  0  0  0  0  0  0  0  0
   -3.9989    4.0013    1.4725 H   0  0  0  0  0  0  0  0  0  0  0  0
   -3.5933    5.6616   -0.5730 H   0  0  0  0  0  0  0  0  0  0  0  0
   -3.6074    4.0954   -1.4523 H   0  0  0  0  0  0  0  0  0  0  0  0
   -5.0548    4.6184   -0.5259 H   0  0  0  0  0  0  0  0  0  0  0  0
  1  3  1  0  0  0  0
  1  7  1  0  0  0  0
  1  2  2  0  0  0  0
 29 30  1  0  0  0  0
 30 38  1  0  0  0  0
 30 31  2  0  0  0  0
  8  9  1  0  0  0  0
  9 17  1  0  0  0  0
  9 10  2  0  0  0  0
 18 19  1  0  0  0  0
 19 28  1  0  0  0  0
 19 20  2  0  0  0  0
 29 32  1  0  0  0  0
  8 11  1  0  0  0  0
 38 39  1  0  0  0  0
 18 21  1  0  0  0  0
 21 22  1  0  0  0  0
 28 29  1  0  0  0  0
  7  8  1  0  0  0  0
 17 18  1  0  0  0  0
  3  4  1  0  0  0  0
  3  5  1  0  0  0  0
  3  6  1  0  0  0  0
 32 35  1  0  0  0  0
 32 36  1  0  0  0  0
 32 37  1  0  0  0  0
 11 14  1  0  0  0  0
 11 15  1  0  0  0  0
 11 16  1  0  0  0  0
 39 41  1  0  0  0  0
 39 42  1  0  0  0  0
 39 43  1  0  0  0  0
 21 25  1  0  0  0  0
 21 26  1  0  0  0  0
 29 34  1  0  0  0  0
  8 13  1  0  0  0  0
 18 24  1  0  0  0  0
 38 40  1  0  0  0  0
  7 12  1  0  0  0  0
 28 33  1  0  0  0  0
 17 23  1  0  0  0  0
 22 27  1  0  0  0  0
M  END
$$$$

  -OEChem-02062319033D

 43 42  0     1  0  0  0  0  0999 V2000
   -2.8661   -4.7415    2.2943 C   0  0  0  0  0  0  0  0  0  0  0  0
   -2.0233   -5.5727    2.6109 O   0  0  0  0  0  0  0  0  0  0  0  0
   -4.3078   -5.0134    2.5698 C   0  0  0  0  0  0  0  0  0  0  0  0
   -4.8057   -5.5295    1.7332 H   0  0  0  0  0  0  0  0  0  0  0  0
   -4.4526   -5.6688    3.4436 H   0  0  0  0  0  0  0  0  0  0  0  0
   -4.9255   -4.1233    2.7700 H   0  0  0  0  0  0  0  0  0  0  0  0
   -2.6241   -3.5219    1.6838 N   0  0  0  0  0  0  0  0  0  0  0  0
   -1.3070   -3.0608    1.3315 C   0  0  2  0  0  0  0  0  0  0  0  0
   -1.3931   -1.5680    1.0422 C   0  0  0  0  0  0  0  0  0  0  0  0
   -2.4385   -1.0059    0.7226 O   0  0  0  0  0  0  0  0  0  0  0  0
   -0.7590   -3.8164    0.1309 C   0  0  0  0  0  0  0  0  0  0  0  0
   -3.4188   -2.9207    1.4735 H   0  0  0  0  0  0  0  0  0  0  0  0
   -0.6690   -3.2277    2.2062 H   0  0  0  0  0  0  0  0  0  0  0  0
   -1.3852   -3.6613   -0.7553 H   0  0  0  0  0  0  0  0  0  0  0  0
    0.2542   -3.4843   -0.1182 H   0  0  0  0  0  0  0  0  0  0  0  0
   -0.7257   -4.8930    0.3300 H   0  0  0  0  0  0  0  0  0  0  0  0
   -0.1563   -0.9420    1.1402 N   0  0  0  0  0  0  0  0  0  0  0  0
    0.4755   -0.6561    2.4034 C   0  0  2  0  0  0  0  0  0  0  0  0
   -0.4354    0.2623    3.2154 C   0  0  0  0  0  0  0  0  0  0  0  0
   -0.6889    0.0740    4.4035 O   0  0  0  0  0  0  0  0  0  0  0  0
    1.8947   -0.1082    2.2341 C   0  0  0  0  0  0  0  0  0  0  0  0
    3.0594   -1.3007    1.4965 S   0  0  0  0  0  0  0  0  0  0  0  0
    0.3491   -0.7060    0.2895 H   0  0  0  0  0  0  0  0  0  0  0  0
    0.5306   -1.6172    2.9295 H   0  0  0  0  0  0  0  0  0  0  0  0
    1.8896    0.7818    1.5963 H   0  0  0  0  0  0  0  0  0  0  0  0
    2.2998    0.1859    3.2084 H   0  0  0  0  0  0  0  0  0  0  0  0
    4.1202   -0.4838    1.5185 H   0  0  0  0  0  0  0  0  0  0  0  0
   -0.9500    1.3002    2.4514 N   0  0  0  0  0  0  0  0  0  0  0  0
   -1.8464    2.2953    2.9920 C   0  0  2  0  0  0  0  0  0  0  0  0
   -2.3281    3.1690    1.8414 C   0  0  0  0  0  0  0  0  0  0  0  0
   -1.7127    3.2844    0.7835 O   0  0  0  0  0  0  0  0  0  0  0  0
   -1.1628    3.1330    4.0615 C   0  0  0  0  0  0  0  0  0  0  0  0
   -0.6604    1.3994    1.4830 H   0  0  0  0  0  0  0  0  0  0  0  0
   -2.6968    1.7548    3.4218 H   0  0  0  0  0  0  0  0  0  0  0  0
   -0.3081    3.6819    3.6496 H   0  0  0  0  0  0  0  0  0  0  0  0
   -1.8520    3.8679    4.4904 H   0  0  0  0  0  0  0  0  0  0  0  0
   -0.7907    2.4996    4.8740 H   0  0  0  0  0  0  0  0  0  0  0  0
   -3.5037    3.8385    2.1512 N   0  0  0  0  0  0  0  0  0  0  0  0
   -4.1547    4.7386    1.2282 C   0  0  0  0  0  0  0  0  0  0  0  0
   -3.9550    3.6682    3.0451 H   0  0  0  0  0  0  0  0  0  0  0  0
   -3.8028    5.7654    1.4067 H   0  0  0  0  0  0  0  0  0  0  0  0
   -3.9140    4.4428    0.1964 H   0  0  0  0  0  0  0  0  0  0  0  0
   -5.2435    4.6930    1.3781 H   0  0  0  0  0  0  0  0  0  0  0  0
  1  3  1  0  0  0  0
  1  7  1  0  0  0  0
  1  2  2  0  0  0  0
 29 30  1  0  0  0  0
 30 38  1  0  0  0  0
 30 31  2  0  0  0  0
  8  9  1  0  0  0  0
  9 17  1  0  0  0  0
  9 10  2  0  0  0  0
 18 19  1  0  0  0  0
 19 28  1  0  0  0  0
 19 20  2  0  0  0  0
 29 32  1  0  0  0  0
  8 11  1  0  0  0  0
 38 39  1  0  0  0  0
 18 21  1  0  0  0  0
 21 22  1  0  0  0  0
 28 29  1  0  0  0  0
  7  8  1  0  0  0  0
 17 18  1  0  0  0  0
  3  4  1  0  0  0  0
  3  5  1  0  0  0  0
  3  6  1  0  0  0  0
 32 35  1  0  0  0  0
 32 36  1  0  0  0  0
 32 37  1  0  0  0  0
 11 14  1  0  0  0  0
 11 15  1  0  0  0  0
 11 16  1  0  0  0  0
 39 41  1  0  0  0  0
 39 42  1  0  0  0  0
 39 43  1  0  0  0  0
 21 25  1  0  0  0  0
 21 26  1  0  0  0  0
 29 34  1  0  0  0  0
  8 13  1  0  0  0  0
 18 24  1  0  0  0  0
 38 40  1  0  0  0  0
  7 12  1  0  0  0  0
 28 33  1  0  0  0  0
 17 23  1  0  0  0  0
 22 27  1  0  0  0  0
M  END
$$$$

  -OEChem-02062319033D

 43 42  0     1  0  0  0  0  0999 V2000
   -2.8661   -4.7415    2.2943 C   0  0  0  0  0  0  0  0  0  0  0  0
   -2.0233   -5.5727    2.6109 O   0  0  0  0  0  0  0  0  0  0  0  0
   -4.3078   -5.0134    2.5698 C   0  0  0  0  0  0  0  0  0  0  0  0
   -4.8057   -5.5295    1.7332 H   0  0  0  0  0  0  0  0  0  0  0  0
   -4.4526   -5.6688    3.4436 H   0  0  0  0  0  0  0  0  0  0  0  0
   -4.9255   -4.1233    2.7700 H   0  0  0  0  0  0  0  0  0  0  0  0
   -2.6241   -3.5219    1.6838 N   0  0  0  0  0  0  0  0  0  0  0  0
   -1.3070   -3.0608    1.3315 C   0  0  2  0  0  0  0  0  0  0  0  0
   -1.3931   -1.5680    1.0422 C   0  0  0  0  0  0  0  0  0  0  0  0
   -2.4385   -1.0059    0.7226 O   0  0  0  0  0  0  0  0  0  0  0  0
   -0.7590   -3.8164    0.1309 C   0  0  0  0  0  0  0  0  0  0  0  0
   -3.4188   -2.9207    1.4735 H   0  0  0  0  0  0  0  0  0  0  0  0
   -0.6690   -3.2277    2.2062 H   0  0  0  0  0  0  0  0  0  0  0  0
   -1.3852   -3.6613   -0.7553 H   0  0  0  0  0  0  0  0  0  0  0  0
    0.2542   -3.4843   -0.1182 H   0  0  0  0  0  0  0  0  0  0  0  0
   -0.7257   -4.8930    0.3300 H   0  0  0  0  0  0  0  0  0  0  0  0
   -0.1563   -0.9420    1.1402 N   0  0  0  0  0  0  0  0  0  0  0  0
    0.6197   -0.9333    2.3544 C   0  0  2  0  0  0  0  0  0  0  0  0
   -0.1926   -0.2550    3.4557 C   0  0  0  0  0  0  0  0  0  0  0  0
   -0.3023   -0.7187    4.5890 O   0  0  0  0  0  0  0  0  0  0  0  0
    2.0062   -0.3161    2.1552 C   0  0  0  0  0  0  0  0  0  0  0  0
    3.0805   -1.2700    1.0334 S   0  0  0  0  0  0  0  0  0  0  0  0
    0.2434   -0.5012    0.3152 H   0  0  0  0  0  0  0  0  0  0  0  0
    0.7413   -1.9872    2.6340 H   0  0  0  0  0  0  0  0  0  0  0  0
    1.9213    0.6957    1.7456 H   0  0  0  0  0  0  0  0  0  0  0  0
    2.5228   -0.2405    3.1182 H   0  0  0  0  0  0  0  0  0  0  0  0
    4.1327   -0.4464    1.1222 H   0  0  0  0  0  0  0  0  0  0  0  0
   -0.7990    0.9133    3.0167 N   0  0  0  0  0  0  0  0  0  0  0  0
   -1.6294    1.7288    3.8719 C   0  0  2  0  0  0  0  0  0  0  0  0
   -2.2483    2.8273    3.0176 C   0  0  0  0  0  0  0  0  0  0  0  0
   -1.7634    3.2018    1.9519 O   0  0  0  0  0  0  0  0  0  0  0  0
   -0.8276    2.3205    5.0207 C   0  0  0  0  0  0  0  0  0  0  0  0
   -0.6269    1.2411    2.0709 H   0  0  0  0  0  0  0  0  0  0  0  0
   -2.4203    1.0774    4.2593 H   0  0  0  0  0  0  0  0  0  0  0  0
   -0.0304    2.9762    4.6520 H   0  0  0  0  0  0  0  0  0  0  0  0
   -1.4643    2.9151    5.6841 H   0  0  0  0  0  0  0  0  0  0  0  0
   -0.3587    1.5299    5.6165 H   0  0  0  0  0  0  0  0  0  0  0  0
   -3.3819    3.3700    3.6063 N   0  0  0  0  0  0  0  0  0  0  0  0
   -4.1421    4.4365    2.9975 C   0  0  0  0  0  0  0  0  0  0  0  0
   -3.7231    2.9850    4.4822 H   0  0  0  0  0  0  0  0  0  0  0  0
   -3.7762    5.4057    3.3673 H   0  0  0  0  0  0  0  0  0  0  0  0
   -4.0242    4.3930    1.9047 H   0  0  0  0  0  0  0  0  0  0  0  0
   -5.2051    4.3230    3.2564 H   0  0  0  0  0  0  0  0  0  0  0  0
  1  3  1  0  0  0  0
  1  7  1  0  0  0  0
  1  2  2  0  0  0  0
 29 30  1  0  0  0  0
 30 38  1  0  0  0  0
 30 31  2  0  0  0  0
  8  9  1  0  0  0  0
  9 17  1  0  0  0  0
  9 10  2  0  0  0  0
 18 19  1  0  0  0  0
 19 28  1  0  0  0  0
 19 20  2  0  0  0  0
 29 32  1  0  0  0  0
  8 11  1  0  0  0  0
 38 39  1  0  0  0  0
 18 21  1  0  0  0  0
 21 22  1  0  0  0  0
 28 29  1  0  0  0  0
  7  8  1  0  0  0  0
 17 18  1  0  0  0  0
  3  4  1  0  0  0  0
  3  5  1  0  0  0  0
  3  6  1  0  0  0  0
 32 35  1  0  0  0  0
 32 36  1  0  0  0  0
 32 37  1  0  0  0  0
 11 14  1  0  0  0  0
 11 15  1  0  0  0  0
 11 16  1  0  0  0  0
 39 41  1  0  0  0  0
 39 42  1  0  0  0  0
 39 43  1  0  0  0  0
 21 25  1  0  0  0  0
 21 26  1  0  0  0  0
 29 34  1  0  0  0  0
  8 13  1  0  0  0  0
 18 24  1  0  0  0  0
 38 40  1  0  0  0  0
  7 12  1  0  0  0  0
 28 33  1  0  0  0  0
 17 23  1  0  0  0  0
 22 27  1  0  0  0  0
M  END
$$$$

  -OEChem-02062319033D

 43 42  0     1  0  0  0  0  0999 V2000
   -2.8661   -4.7415    2.2943 C   0  0  0  0  0  0  0  0  0  0  0  0
   -2.0233   -5.5727    2.6109 O   0  0  0  0  0  0  0  0  0  0  0  0
   -4.3078   -5.0134    2.5698 C   0  0  0  0  0  0  0  0  0  0  0  0
   -4.8057   -5.5295    1.7332 H   0  0  0  0  0  0  0  0  0  0  0  0
   -4.4526   -5.6688    3.4436 H   0  0  0  0  0  0  0  0  0  0  0  0
   -4.9255   -4.1233    2.7700 H   0  0  0  0  0  0  0  0  0  0  0  0
   -2.6241   -3.5219    1.6838 N   0  0  0  0  0  0  0  0  0  0  0  0
   -1.3070   -3.0608    1.3315 C   0  0  2  0  0  0  0  0  0  0  0  0
   -1.3931   -1.5680    1.0422 C   0  0  0  0  0  0  0  0  0  0  0  0
   -2.4385   -1.0059    0.7226 O   0  0  0  0  0  0  0  0  0  0  0  0
   -0.7590   -3.8164    0.1309 C   0  0  0  0  0  0  0  0  0  0  0  0
   -3.4188   -2.9207    1.4735 H   0  0  0  0  0  0  0  0  0  0  0  0
   -0.6690   -3.2277    2.2062 H   0  0  0  0  0  0  0  0  0  0  0  0
   -1.3852   -3.6613   -0.7553 H   0  0  0  0  0  0  0  0  0  0  0  0
    0.2542   -3.4843   -0.1182 H   0  0  0  0  0  0  0  0  0  0  0  0
   -0.7257   -4.8930    0.3300 H   0  0  0  0  0  0  0  0  0  0  0  0
   -0.1563   -0.9420    1.1402 N   0  0  0  0  0  0  0  0  0  0  0  0
    0.7584   -1.1871    2.2264 C   0  0  2  0  0  0  0  0  0  0  0  0
    0.0795   -0.8057    3.5403 C   0  0  0  0  0  0  0  0  0  0  0  0
    0.1072   -1.5201    4.5404 O   0  0  0  0  0  0  0  0  0  0  0  0
    2.1086   -0.4968    2.0181 C   0  0  0  0  0  0  0  0  0  0  0  0
    3.0464   -1.1332    0.5906 S   0  0  0  0  0  0  0  0  0  0  0  0
    0.1406   -0.3112    0.3994 H   0  0  0  0  0  0  0  0  0  0  0  0
    0.9171   -2.2726    2.2387 H   0  0  0  0  0  0  0  0  0  0  0  0
    1.9709    0.5788    1.8663 H   0  0  0  0  0  0  0  0  0  0  0  0
    2.7354   -0.6274    2.9068 H   0  0  0  0  0  0  0  0  0  0  0  0
    4.0979   -0.3188    0.7466 H   0  0  0  0  0  0  0  0  0  0  0  0
   -0.5802    0.4122    3.4560 N   0  0  0  0  0  0  0  0  0  0  0  0
   -1.3069    0.9830    4.5660 C   0  0  2  0  0  0  0  0  0  0  0  0
   -2.0279    2.2277    4.0657 C   0  0  0  0  0  0  0  0  0  0  0  0
   -1.6747    2.8518    3.0673 O   0  0  0  0  0  0  0  0  0  0  0  0
   -0.3771    1.3208    5.7210 C   0  0  0  0  0  0  0  0  0  0  0  0
   -0.5231    0.9534    2.5984 H   0  0  0  0  0  0  0  0  0  0  0  0
   -2.0432    0.2352    4.8800 H   0  0  0  0  0  0  0  0  0  0  0  0
    0.3677    2.0687    5.4253 H   0  0  0  0  0  0  0  0  0  0  0  0
   -0.9332    1.7269    6.5723 H   0  0  0  0  0  0  0  0  0  0  0  0
    0.1628    0.4301    6.0600 H   0  0  0  0  0  0  0  0  0  0  0  0
   -3.0861    2.5845    4.8898 N   0  0  0  0  0  0  0  0  0  0  0  0
   -3.9181    3.7374    4.6354 C   0  0  0  0  0  0  0  0  0  0  0  0
   -3.3191    1.9983    5.6860 H   0  0  0  0  0  0  0  0  0  0  0  0
   -3.5153    4.6072    5.1751 H   0  0  0  0  0  0  0  0  0  0  0  0
   -3.9306    3.9494    3.5561 H   0  0  0  0  0  0  0  0  0  0  0  0
   -4.9423    3.5337    4.9810 H   0  0  0  0  0  0  0  0  0  0  0  0
  1  3  1  0  0  0  0
  1  7  1  0  0  0  0
  1  2  2  0  0  0  0
 29 30  1  0  0  0  0
 30 38  1  0  0  0  0
 30 31  2  0  0  0  0
  8  9  1  0  0  0  0
  9 17  1  0  0  0  0
  9 10  2  0  0  0  0
 18 19  1  0  0  0  0
 19 28  1  0  0  0  0
 19 20  2  0  0  0  0
 29 32  1  0  0  0  0
  8 11  1  0  0  0  0
 38 39  1  0  0  0  0
 18 21  1  0  0  0  0
 21 22  1  0  0  0  0
 28 29  1  0  0  0  0
  7  8  1  0  0  0  0
 17 18  1  0  0  0  0
  3  4  1  0  0  0  0
  3  5  1  0  0  0  0
  3  6  1  0  0  0  0
 32 35  1  0  0  0  0
 32 36  1  0  0  0  0
 32 37  1  0  0  0  0
 11 14  1  0  0  0  0
 11 15  1  0  0  0  0
 11 16  1  0  0  0  0
 39 41  1  0  0  0  0
 39 42  1  0  0  0  0
 39 43  1  0  0  0  0
 21 25  1  0  0  0  0
 21 26  1  0  0  0  0
 29 34  1  0  0  0  0
  8 13  1  0  0  0  0
 18 24  1  0  0  0  0
 38 40  1  0  0  0  0
  7 12  1  0  0  0  0
 28 33  1  0  0  0  0
 17 23  1  0  0  0  0
 22 27  1  0  0  0  0
M  END
$$$$

  -OEChem-02062319033D

 43 42  0     1  0  0  0  0  0999 V2000
   -2.8661   -4.7415    2.2943 C   0  0  0  0  0  0  0  0  0  0  0  0
   -2.0233   -5.5727    2.6109 O   0  0  0  0  0  0  0  0  0  0  0  0
   -4.3078   -5.0134    2.5698 C   0  0  0  0  0  0  0  0  0  0  0  0
   -4.8057   -5.5295    1.7332 H   0  0  0  0  0  0  0  0  0  0  0  0
   -4.4526   -5.6688    3.4436 H   0  0  0  0  0  0  0  0  0  0  0  0
   -4.9255   -4.1233    2.7700 H   0  0  0  0  0  0  0  0  0  0  0  0
   -2.6241   -3.5219    1.6838 N   0  0  0  0  0  0  0  0  0  0  0  0
   -1.3070   -3.0608    1.3315 C   0  0  2  0  0  0  0  0  0  0  0  0
   -1.3931   -1.5680    1.0422 C   0  0  0  0  0  0  0  0  0  0  0  0
   -2.4385   -1.0059    0.7226 O   0  0  0  0  0  0  0  0  0  0  0  0
   -0.7590   -3.8164    0.1309 C   0  0  0  0  0  0  0  0  0  0  0  0
   -3.4188   -2.9207    1.4735 H   0  0  0  0  0  0  0  0  0  0  0  0
   -0.6690   -3.2277    2.2062 H   0  0  0  0  0  0  0  0  0  0  0  0
   -1.3852   -3.6613   -0.7553 H   0  0  0  0  0  0  0  0  0  0  0  0
    0.2542   -3.4843   -0.1182 H   0  0  0  0  0  0  0  0  0  0  0  0
   -0.7257   -4.8930    0.3300 H   0  0  0  0  0  0  0  0  0  0  0  0
   -0.1563   -0.9420    1.1402 N   0  0  0  0  0  0  0  0  0  0  0  0
    0.8820   -1.4003    2.0282 C   0  0  2  0  0  0  0  0  0  0  0  0
    0.3621   -1.3521    3.4635 C   0  0  0  0  0  0  0  0  0  0  0  0
    0.5117   -2.2755    4.2612 O   0  0  0  0  0  0  0  0  0  0  0  0
    2.1947   -0.6378    1.8321 C   0  0  0  0  0  0  0  0  0  0  0  0
    2.9593   -0.8998    0.1984 S   0  0  0  0  0  0  0  0  0  0  0  0
    0.0476   -0.1490    0.5365 H   0  0  0  0  0  0  0  0  0  0  0  0
    1.0460   -2.4540    1.7706 H   0  0  0  0  0  0  0  0  0  0  0  0
    2.0351    0.4389    1.9501 H   0  0  0  0  0  0  0  0  0  0  0  0
    2.9233   -0.9487    2.5887 H   0  0  0  0  0  0  0  0  0  0  0  0
    4.0182   -0.1097    0.4172 H   0  0  0  0  0  0  0  0  0  0  0  0
   -0.3085   -0.1690    3.7394 N   0  0  0  0  0  0  0  0  0  0  0  0
   -0.9008    0.1086    5.0270 C   0  0  2  0  0  0  0  0  0  0  0  0
   -1.6819    1.4112    4.9143 C   0  0  0  0  0  0  0  0  0  0  0  0
   -1.4526    2.2585    4.0537 O   0  0  0  0  0  0  0  0  0  0  0  0
    0.1580    0.2021    6.1146 C   0  0  0  0  0  0  0  0  0  0  0  0
   -0.3561    0.5560    3.0296 H   0  0  0  0  0  0  0  0  0  0  0  0
   -1.5911   -0.7144    5.2416 H   0  0  0  0  0  0  0  0  0  0  0  0
    0.8589    1.0213    5.9167 H   0  0  0  0  0  0  0  0  0  0  0  0
   -0.2950    0.3842    7.0947 H   0  0  0  0  0  0  0  0  0  0  0  0
    0.7384   -0.7249    6.1741 H   0  0  0  0  0  0  0  0  0  0  0  0
   -2.6363    1.5356    5.9142 N   0  0  0  0  0  0  0  0  0  0  0  0
   -3.4979    2.6889    6.0304 C   0  0  0  0  0  0  0  0  0  0  0  0
   -2.7704    0.7754    6.5743 H   0  0  0  0  0  0  0  0  0  0  0  0
   -3.0379    3.4242    6.7070 H   0  0  0  0  0  0  0  0  0  0  0  0
   -3.6395    3.1422    5.0382 H   0  0  0  0  0  0  0  0  0  0  0  0
   -4.4729    2.3788    6.4344 H   0  0  0  0  0  0  0  0  0  0  0  0
  1  3  1  0  0  0  0
  1  7  1  0  0  0  0
  1  2  2  0  0  0  0
 29 30  1  0  0  0  0
 30 38  1  0  0  0  0
 30 31  2  0  0  0  0
  8  9  1  0  0  0  0
  9 17  1  0  0  0  0
  9 10  2  0  0  0  0
 18 19  1  0  0  0  0
 19 28  1  0  0  0  0
 19 20  2  0  0  0  0
 29 32  1  0  0  0  0
  8 11  1  0  0  0  0
 38 39  1  0  0  0  0
 18 21  1  0  0  0  0
 21 22  1  0  0  0  0
 28 29  1  0  0  0  0
  7  8  1  0  0  0  0
 17 18  1  0  0  0  0
  3  4  1  0  0  0  0
  3  5  1  0  0  0  0
  3  6  1  0  0  0  0
 32 35  1  0  0  0  0
 32 36  1  0  0  0  0
 32 37  1  0  0  0  0
 11 14  1  0  0  0  0
 11 15  1  0  0  0  0
 11 16  1  0  0  0  0
 39 41  1  0  0  0  0
 39 42  1  0  0  0  0
 39 43  1  0  0  0  0
 21 25  1  0  0  0  0
 21 26  1  0  0  0  0
 29 34  1  0  0  0  0
  8 13  1  0  0  0  0
 18 24  1  0  0  0  0
 38 40  1  0  0  0  0
  7 12  1  0  0  0  0
 28 33  1  0  0  0  0
 17 23  1  0  0  0  0
 22 27  1  0  0  0  0
M  END
$$$$

  -OEChem-02062319033D

 43 42  0     1  0  0  0  0  0999 V2000
   -2.8661   -4.7415    2.2943 C   0  0  0  0  0  0  0  0  0  0  0  0
   -2.0233   -5.5727    2.6109 O   0  0  0  0  0  0  0  0  0  0  0  0
   -4.3078   -5.0134    2.5698 C   0  0  0  0  0  0  0  0  0  0  0  0
   -4.8057   -5.5295    1.7332 H   0  0  0  0  0  0  0  0  0  0  0  0
   -4.4526   -5.6688    3.4436 H   0  0  0  0  0  0  0  0  0  0  0  0
   -4.9255   -4.1233    2.7700 H   0  0  0  0  0  0  0  0  0  0  0  0
   -2.6241   -3.5219    1.6838 N   0  0  0  0  0  0  0  0  0  0  0  0
   -1.3070   -3.0608    1.3315 C   0  0  2  0  0  0  0  0  0  0  0  0
   -1.3931   -1.5680    1.0422 C   0  0  0  0  0  0  0  0  0  0  0  0
   -2.4385   -1.0059    0.7226 O   0  0  0  0  0  0  0  0  0  0  0  0
   -0.7590   -3.8164    0.1309 C   0  0  0  0  0  0  0  0  0  0  0  0
   -3.4188   -2.9207    1.4735 H   0  0  0  0  0  0  0  0  0  0  0  0
   -0.6690   -3.2277    2.2062 H   0  0  0  0  0  0  0  0  0  0  0  0
   -1.3852   -3.6613   -0.7553 H   0  0  0  0  0  0  0  0  0  0  0  0
    0.2542   -3.4843   -0.1182 H   0  0  0  0  0  0  0  0  0  0  0  0
   -0.7257   -4.8930    0.3300 H   0  0  0  0  0  0  0  0  0  0  0  0
   -0.1563   -0.9420    1.1402 N   0  0  0  0  0  0  0  0  0  0  0  0
    0.9822   -1.5582    1.7731 C   0  0  2  0  0  0  0  0  0  0  0  0
    0.6362   -1.8570    3.2305 C   0  0  0  0  0  0  0  0  0  0  0  0
    0.8837   -2.9335    3.7703 O   0  0  0  0  0  0  0  0  0  0  0  0
    2.2588   -0.7296    1.6100 C   0  0  0  0  0  0  0  0  0  0  0  0
    2.8252   -0.5855   -0.1165 S   0  0  0  0  0  0  0  0  0  0  0  0
   -0.0292   -0.0256    0.7171 H   0  0  0  0  0  0  0  0  0  0  0  0
    1.1193   -2.5191    1.2617 H   0  0  0  0  0  0  0  0  0  0  0  0
    2.1094    0.2857    1.9914 H   0  0  0  0  0  0  0  0  0  0  0  0
    3.0735   -1.1822    2.1856 H   0  0  0  0  0  0  0  0  0  0  0  0
    3.8989    0.1668    0.1565 H   0  0  0  0  0  0  0  0  0  0  0  0
   -0.0023   -0.7907    3.8476 N   0  0  0  0  0  0  0  0  0  0  0  0
   -0.4389   -0.8347    5.2236 C   0  0  2  0  0  0  0  0  0  0  0  0
   -1.2338    0.4334    5.5055 C   0  0  0  0  0  0  0  0  0  0  0  0
   -1.1122    1.4623    4.8440 O   0  0  0  0  0  0  0  0  0  0  0  0
    0.7411   -0.9594    6.1747 C   0  0  0  0  0  0  0  0  0  0  0  0
   -0.1372    0.0757    3.3351 H   0  0  0  0  0  0  0  0  0  0  0  0
   -1.0950   -1.7067    5.3195 H   0  0  0  0  0  0  0  0  0  0  0  0
    1.4098   -0.0947    6.0929 H   0  0  0  0  0  0  0  0  0  0  0  0
    0.4069   -1.0213    7.2156 H   0  0  0  0  0  0  0  0  0  0  0  0
    1.3288   -1.8563    5.9513 H   0  0  0  0  0  0  0  0  0  0  0  0
   -2.0633    0.2947    6.6095 N   0  0  0  0  0  0  0  0  0  0  0  0
   -2.9103    1.3625    7.0874 C   0  0  0  0  0  0  0  0  0  0  0  0
   -2.1146   -0.6006    7.0867 H   0  0  0  0  0  0  0  0  0  0  0  0
   -2.3766    1.9374    7.8585 H   0  0  0  0  0  0  0  0  0  0  0  0
   -3.1708    2.0264    6.2499 H   0  0  0  0  0  0  0  0  0  0  0  0
   -3.8290    0.9371    7.5175 H   0  0  0  0  0  0  0  0  0  0  0  0
  1  3  1  0  0  0  0
  1  7  1  0  0  0  0
  1  2  2  0  0  0  0
 29 30  1  0  0  0  0
 30 38  1  0  0  0  0
 30 31  2  0  0  0  0
  8  9  1  0  0  0  0
  9 17  1  0  0  0  0
  9 10  2  0  0  0  0
 18 19  1  0  0  0  0
 19 28  1  0  0  0  0
 19 20  2  0  0  0  0
 29 32  1  0  0  0  0
  8 11  1  0  0  0  0
 38 39  1  0  0  0  0
 18 21  1  0  0  0  0
 21 22  1  0  0  0  0
 28 29  1  0  0  0  0
  7  8  1  0  0  0  0
 17 18  1  0  0  0  0
  3  4  1  0  0  0  0
  3  5  1  0  0  0  0
  3  6  1  0  0  0  0
 32 35  1  0  0  0  0
 32 36  1  0  0  0  0
 32 37  1  0  0  0  0
 11 14  1  0  0  0  0
 11 15  1  0  0  0  0
 11 16  1  0  0  0  0
 39 41  1  0  0  0  0
 39 42  1  0  0  0  0
 39 43  1  0  0  0  0
 21 25  1  0  0  0  0
 21 26  1  0  0  0  0
 29 34  1  0  0  0  0
  8 13  1  0  0  0  0
 18 24  1  0  0  0  0
 38 40  1  0  0  0  0
  7 12  1  0  0  0  0
 28 33  1  0  0  0  0
 17 23  1  0  0  0  0
 22 27  1  0  0  0  0
M  END
$$$$

  -OEChem-02062319033D

 43 42  0     1  0  0  0  0  0999 V2000
   -2.8661   -4.7415    2.2943 C   0  0  0  0  0  0  0  0  0  0  0  0
   -2.0233   -5.5727    2.6109 O   0  0  0  0  0  0  0  0  0  0  0  0
   -4.3078   -5.0134    2.5698 C   0  0  0  0  0  0  0  0  0  0  0  0
   -4.8057   -5.5295    1.7332 H   0  0  0  0  0  0  0  0  0  0  0  0
   -4.4526   -5.6688    3.4436 H   0  0  0  0  0  0  0  0  0  0  0  0
   -4.9255   -4.1233    2.7700 H   0  0  0  0  0  0  0  0  0  0  0  0
   -2.6241   -3.5219    1.6838 N   0  0  0  0  0  0  0  0  0  0  0  0
   -1.3070   -3.0608    1.3315 C   0  0  2  0  0  0  0  0  0  0  0  0
   -1.3931   -1.5680    1.0422 C   0  0  0  0  0  0  0  0  0  0  0  0
   -2.4385   -1.0059    0.7226 O   0  0  0  0  0  0  0  0  0  0  0  0
   -0.7590   -3.8164    0.1309 C   0  0  0  0  0  0  0  0  0  0  0  0
   -3.4188   -2.9207    1.4735 H   0  0  0  0  0  0  0  0  0  0  0  0
   -0.6690   -3.2277    2.2062 H   0  0  0  0  0  0  0  0  0  0  0  0
   -1.3852   -3.6613   -0.7553 H   0  0  0  0  0  0  0  0  0  0  0  0
    0.2542   -3.4843   -0.1182 H   0  0  0  0  0  0  0  0  0  0  0  0
   -0.7257   -4.8930    0.3300 H   0  0  0  0  0  0  0  0  0  0  0  0
   -0.1563   -0.9420    1.1402 N   0  0  0  0  0  0  0  0  0  0  0  0
    1.0521   -1.6503    1.4787 C   0  0  2  0  0  0  0  0  0  0  0  0
    0.8830   -2.2861    2.8571 C   0  0  0  0  0  0  0  0  0  0  0  0
    1.1978   -3.4492    3.1012 O   0  0  0  0  0  0  0  0  0  0  0  0
    2.2965   -0.7660    1.3667 C   0  0  0  0  0  0  0  0  0  0  0  0
    2.6532   -0.2119   -0.3327 S   0  0  0  0  0  0  0  0  0  0  0  0
   -0.0845    0.0505    0.9290 H   0  0  0  0  0  0  0  0  0  0  0  0
    1.1319   -2.4634    0.7466 H   0  0  0  0  0  0  0  0  0  0  0  0
    2.1887    0.1296    1.9873 H   0  0  0  0  0  0  0  0  0  0  0  0
    3.1758   -1.3123    1.7248 H   0  0  0  0  0  0  0  0  0  0  0  0
    3.7483    0.4916   -0.0177 H   0  0  0  0  0  0  0  0  0  0  0  0
    0.3174   -1.4106    3.7732 N   0  0  0  0  0  0  0  0  0  0  0  0
    0.0475   -1.7828    5.1423 C   0  0  2  0  0  0  0  0  0  0  0  0
   -0.7141   -0.6392    5.7992 C   0  0  0  0  0  0  0  0  0  0  0  0
   -0.6767    0.5173    5.3842 O   0  0  0  0  0  0  0  0  0  0  0  0
    1.3327   -2.0845    5.8973 C   0  0  0  0  0  0  0  0  0  0  0  0
    0.1186   -0.4545    3.4940 H   0  0  0  0  0  0  0  0  0  0  0  0
   -0.5886   -2.6740    5.1082 H   0  0  0  0  0  0  0  0  0  0  0  0
    1.9829   -1.2032    5.9418 H   0  0  0  0  0  0  0  0  0  0  0  0
    1.1247   -2.3941    6.9268 H   0  0  0  0  0  0  0  0  0  0  0  0
    1.8938   -2.8871    5.4066 H   0  0  0  0  0  0  0  0  0  0  0  0
   -1.4061   -1.0537    6.9286 N   0  0  0  0  0  0  0  0  0  0  0  0
   -2.1952   -0.1514    7.7343 C   0  0  0  0  0  0  0  0  0  0  0  0
   -1.3962   -2.0356    7.1883 H   0  0  0  0  0  0  0  0  0  0  0  0
   -1.5764    0.2480    8.5513 H   0  0  0  0  0  0  0  0  0  0  0  0
   -2.5564    0.6781    7.1087 H   0  0  0  0  0  0  0  0  0  0  0  0
   -3.0544   -0.6932    8.1565 H   0  0  0  0  0  0  0  0  0  0  0  0
  1  3  1  0  0  0  0
  1  7  1  0  0  0  0
  1  2  2  0  0  0  0
 29 30  1  0  0  0  0
 30 38  1  0  0  0  0
 30 31  2  0  0  0  0
  8  9  1  0  0  0  0
  9 17  1  0  0  0  0
  9 10  2  0  0  0  0
 18 19  1  0  0  0  0
 19 28  1  0  0  0  0
 19 20  2  0  0  0  0
 29 32  1  0  0  0  0
  8 11  1  0  0  0  0
 38 39  1  0  0  0  0
 18 21  1  0  0  0  0
 21 22  1  0  0  0  0
 28 29  1  0  0  0  0
  7  8  1  0  0  0  0
 17 18  1  0  0  0  0
  3  4  1  0  0  0  0
  3  5  1  0  0  0  0
  3  6  1  0  0  0  0
 32 35  1  0  0  0  0
 32 36  1  0  0  0  0
 32 37  1  0  0  0  0
 11 14  1  0  0  0  0
 11 15  1  0  0  0  0
 11 16  1  0  0  0  0
 39 41  1  0  0  0  0
 39 42  1  0  0  0  0
 39 43  1  0  0  0  0
 21 25  1  0  0  0  0
 21 26  1  0  0  0  0
 29 34  1  0  0  0  0
  8 13  1  0  0  0  0
 18 24  1  0  0  0  0
 38 40  1  0  0  0  0
  7 12  1  0  0  0  0
 28 33  1  0  0  0  0
 17 23  1  0  0  0  0
 22 27  1  0  0  0  0
M  END
$$$$

  -OEChem-02062319033D

 43 42  0     1  0  0  0  0  0999 V2000
   -2.8661   -4.7415    2.2943 C   0  0  0  0  0  0  0  0  0  0  0  0
   -2.0233   -5.5727    2.6109 O   0  0  0  0  0  0  0  0  0  0  0  0
   -4.3078   -5.0134    2.5698 C   0  0  0  0  0  0  0  0  0  0  0  0
   -4.8057   -5.5295    1.7332 H   0  0  0  0  0  0  0  0  0  0  0  0
   -4.4526   -5.6688    3.4436 H   0  0  0  0  0  0  0  0  0  0  0  0
   -4.9255   -4.1233    2.7700 H   0  0  0  0  0  0  0  0  0  0  0  0
   -2.6241   -3.5219    1.6838 N   0  0  0  0  0  0  0  0  0  0  0  0
   -1.3070   -3.0608    1.3315 C   0  0  2  0  0  0  0  0  0  0  0  0
   -1.3931   -1.5680    1.0422 C   0  0  0  0  0  0  0  0  0  0  0  0
   -2.4385   -1.0059    0.7226 O   0  0  0  0  0  0  0  0  0  0  0  0
   -0.7590   -3.8164    0.1309 C   0  0  0  0  0  0  0  0  0  0  0  0
   -3.4188   -2.9207    1.4735 H   0  0  0  0  0  0  0  0  0  0  0  0
   -0.6690   -3.2277    2.2062 H   0  0  0  0  0  0  0  0  0  0  0  0
   -1.3852   -3.6613   -0.7553 H   0  0  0  0  0  0  0  0  0  0  0  0
    0.2542   -3.4843   -0.1182 H   0  0  0  0  0  0  0  0  0  0  0  0
   -0.7257   -4.8930    0.3300 H   0  0  0  0  0  0  0  0  0  0  0  0
   -0.1563   -0.9420    1.1402 N   0  0  0  0  0  0  0  0  0  0  0  0
    1.0870   -1.6700    1.1650 C   0  0  2  0  0  0  0  0  0  0  0  0
    1.0857   -2.6100    2.3689 C   0  0  0  0  0  0  0  0  0  0  0  0
    1.4325   -3.7874    2.2995 O   0  0  0  0  0  0  0  0  0  0  0  0
    2.3052   -0.7444    1.1190 C   0  0  0  0  0  0  0  0  0  0  0  0
    2.4551    0.1957   -0.4354 S   0  0  0  0  0  0  0  0  0  0  0  0
   -0.1147    0.0743    1.1576 H   0  0  0  0  0  0  0  0  0  0  0  0
    1.0831   -2.2907    0.2604 H   0  0  0  0  0  0  0  0  0  0  0  0
    2.2678   -0.0189    1.9382 H   0  0  0  0  0  0  0  0  0  0  0  0
    3.2233   -1.3298    1.2379 H   0  0  0  0  0  0  0  0  0  0  0  0
    3.5765    0.8428   -0.0936 H   0  0  0  0  0  0  0  0  0  0  0  0
    0.6288   -1.9864    3.5212 N   0  0  0  0  0  0  0  0  0  0  0  0
    0.5251   -2.6710    4.7887 C   0  0  2  0  0  0  0  0  0  0  0  0
   -0.1584   -1.7333    5.7751 C   0  0  0  0  0  0  0  0  0  0  0  0
   -0.1758   -0.5119    5.6376 O   0  0  0  0  0  0  0  0  0  0  0  0
    1.8922   -3.0965    5.3012 C   0  0  0  0  0  0  0  0  0  0  0  0
    0.3939   -0.9986    3.4955 H   0  0  0  0  0  0  0  0  0  0  0  0
   -0.1064   -3.5505    4.6223 H   0  0  0  0  0  0  0  0  0  0  0  0
    2.5391   -2.2286    5.4737 H   0  0  0  0  0  0  0  0  0  0  0  0
    1.8094   -3.6404    6.2480 H   0  0  0  0  0  0  0  0  0  0  0  0
    2.3948   -3.7469    4.5771 H   0  0  0  0  0  0  0  0  0  0  0  0
   -0.7094   -2.4176    6.8495 N   0  0  0  0  0  0  0  0  0  0  0  0
   -1.4014   -1.7498    7.9270 C   0  0  0  0  0  0  0  0  0  0  0  0
   -0.6642   -3.4321    6.8720 H   0  0  0  0  0  0  0  0  0  0  0  0
   -0.6918   -1.5287    8.7379 H   0  0  0  0  0  0  0  0  0  0  0  0
   -1.8381   -0.8108    7.5559 H   0  0  0  0  0  0  0  0  0  0  0  0
   -2.2019   -2.4011    8.3079 H   0  0  0  0  0  0  0  0  0  0  0  0
  1  3  1  0  0  0  0
  1  7  1  0  0  0  0
  1  2  2  0  0  0  0
 29 30  1  0  0  0  0
 30 38  1  0  0  0  0
 30 31  2  0  0  0  0
  8  9  1  0  0  0  0
  9 17  1  0  0  0  0
  9 10  2  0  0  0  0
 18 19  1  0  0  0  0
 19 28  1  0  0  0  0
 19 20  2  0  0  0  0
 29 32  1  0  0  0  0
  8 11  1  0  0  0  0
 38 39  1  0  0  0  0
 18 21  1  0  0  0  0
 21 22  1  0  0  0  0
 28 29  1  0  0  0  0
  7  8  1  0  0  0  0
 17 18  1  0  0  0  0
  3  4  1  0  0  0  0
  3  5  1  0  0  0  0
  3  6  1  0  0  0  0
 32 35  1  0  0  0  0
 32 36  1  0  0  0  0
 32 37  1  0  0  0  0
 11 14  1  0  0  0  0
 11 15  1  0  0  0  0
 11 16  1  0  0  0  0
 39 41  1  0  0  0  0
 39 42  1  0  0  0  0
 39 43  1  0  0  0  0
 21 25  1  0  0  0  0
 21 26  1  0  0  0  0
 29 34  1  0  0  0  0
  8 13  1  0  0  0  0
 18 24  1  0  0  0  0
 38 40  1  0  0  0  0
  7 12  1  0  0  0  0
 28 33  1  0  0  0  0
 17 23  1  0  0  0  0
 22 27  1  0  0  0  0
M  END
$$$$

  -OEChem-02062319033D

 43 42  0     1  0  0  0  0  0999 V2000
   -2.8661   -4.7415    2.2943 C   0  0  0  0  0  0  0  0  0  0  0  0
   -2.0233   -5.5727    2.6109 O   0  0  0  0  0  0  0  0  0  0  0  0
   -4.3078   -5.0134    2.5698 C   0  0  0  0  0  0  0  0  0  0  0  0
   -4.8057   -5.5295    1.7332 H   0  0  0  0  0  0  0  0  0  0  0  0
   -4.4526   -5.6688    3.4436 H   0  0  0  0  0  0  0  0  0  0  0  0
   -4.9255   -4.1233    2.7700 H   0  0  0  0  0  0  0  0  0  0  0  0
   -2.6241   -3.5219    1.6838 N   0  0  0  0  0  0  0  0  0  0  0  0
   -1.3070   -3.0608    1.3315 C   0  0  2  0  0  0  0  0  0  0  0  0
   -1.3931   -1.5680    1.0422 C   0  0  0  0  0  0  0  0  0  0  0  0
   -2.4385   -1.0059    0.7226 O   0  0  0  0  0  0  0  0  0  0  0  0
   -0.7590   -3.8164    0.1309 C   0  0  0  0  0  0  0  0  0  0  0  0
   -3.4188   -2.9207    1.4735 H   0  0  0  0  0  0  0  0  0  0  0  0
   -0.6690   -3.2277    2.2062 H   0  0  0  0  0  0  0  0  0  0  0  0
   -1.3852   -3.6613   -0.7553 H   0  0  0  0  0  0  0  0  0  0  0  0
    0.2542   -3.4843   -0.1182 H   0  0  0  0  0  0  0  0  0  0  0  0
   -0.7257   -4.8930    0.3300 H   0  0  0  0  0  0  0  0  0  0  0  0
   -0.1563   -0.9420    1.1402 N   0  0  0  0  0  0  0  0  0  0  0  0
    1.0845   -1.6163    0.8534 C   0  0  2  0  0  0  0  0  0  0  0  0
    1.2304   -2.8067    1.7990 C   0  0  0  0  0  0  0  0  0  0  0  0
    1.5720   -3.9252    1.4198 O   0  0  0  0  0  0  0  0  0  0  0  0
    2.2843   -0.6663    0.8837 C   0  0  0  0  0  0  0  0  0  0  0  0
    2.2443    0.6094   -0.4176 S   0  0  0  0  0  0  0  0  0  0  0  0
   -0.1176    0.0441    1.3874 H   0  0  0  0  0  0  0  0  0  0  0  0
    0.9760   -2.0128   -0.1638 H   0  0  0  0  0  0  0  0  0  0  0  0
    2.3411   -0.1495    1.8473 H   0  0  0  0  0  0  0  0  0  0  0  0
    3.2128   -1.2338    0.7580 H   0  0  0  0  0  0  0  0  0  0  0  0
    3.3953    1.1964   -0.0660 H   0  0  0  0  0  0  0  0  0  0  0  0
    0.9108   -2.4788    3.1089 N   0  0  0  0  0  0  0  0  0  0  0  0
    0.9614   -3.4387    4.1868 C   0  0  2  0  0  0  0  0  0  0  0  0
    0.3956   -2.7745    5.4351 C   0  0  0  0  0  0  0  0  0  0  0  0
    0.3564   -1.5553    5.5869 O   0  0  0  0  0  0  0  0  0  0  0  0
    2.3817   -3.9265    4.4270 C   0  0  0  0  0  0  0  0  0  0  0  0
    0.6699   -1.5194    3.3396 H   0  0  0  0  0  0  0  0  0  0  0  0
    0.3187   -4.2764    3.8949 H   0  0  0  0  0  0  0  0  0  0  0  0
    3.0405   -3.1011    4.7205 H   0  0  0  0  0  0  0  0  0  0  0  0
    2.4143   -4.6753    5.2253 H   0  0  0  0  0  0  0  0  0  0  0  0
    2.7977   -4.3772    3.5195 H   0  0  0  0  0  0  0  0  0  0  0  0
   -0.0208   -3.7041    6.3777 N   0  0  0  0  0  0  0  0  0  0  0  0
   -0.5830   -3.3235    7.6525 C   0  0  0  0  0  0  0  0  0  0  0  0
    0.0314   -4.6947    6.1595 H   0  0  0  0  0  0  0  0  0  0  0  0
    0.2168   -3.2717    8.4058 H   0  0  0  0  0  0  0  0  0  0  0  0
   -1.0650   -2.3389    7.5613 H   0  0  0  0  0  0  0  0  0  0  0  0
   -1.3296   -4.0700    7.9613 H   0  0  0  0  0  0  0  0  0  0  0  0
  1  3  1  0  0  0  0
  1  7  1  0  0  0  0
  1  2  2  0  0  0  0
 29 30  1  0  0  0  0
 30 38  1  0  0  0  0
 30 31  2  0  0  0  0
  8  9  1  0  0  0  0
  9 17  1  0  0  0  0
  9 10  2  0  0  0  0
 18 19  1  0  0  0  0
 19 28  1  0  0  0  0
 19 20  2  0  0  0  0
 29 32  1  0  0  0  0
  8 11  1  0  0  0  0
 38 39  1  0  0  0  0
 18 21  1  0  0  0  0
 21 22  1  0  0  0  0
 28 29  1  0  0  0  0
  7  8  1  0  0  0  0
 17 18  1  0  0  0  0
  3  4  1  0  0  0  0
  3  5  1  0  0  0  0
  3  6  1  0  0  0  0
 32 35  1  0  0  0  0
 32 36  1  0  0  0  0
 32 37  1  0  0  0  0
 11 14  1  0  0  0  0
 11 15  1  0  0  0  0
 11 16  1  0  0  0  0
 39 41  1  0  0  0  0
 39 42  1  0  0  0  0
 39 43  1  0  0  0  0
 21 25  1  0  0  0  0
 21 26  1  0  0  0  0
 29 34  1  0  0  0  0
  8 13  1  0  0  0  0
 18 24  1  0  0  0  0
 38 40  1  0  0  0  0
  7 12  1  0  0  0  0
 28 33  1  0  0  0  0
 17 23  1  0  0  0  0
 22 27  1  0  0  0  0
M  END
$$$$

  -OEChem-02062319033D

 43 42  0     1  0  0  0  0  0999 V2000
   -2.8661   -4.7415    2.2943 C   0  0  0  0  0  0  0  0  0  0  0  0
   -2.0233   -5.5727    2.6109 O   0  0  0  0  0  0  0  0  0  0  0  0
   -4.3078   -5.0134    2.5698 C   0  0  0  0  0  0  0  0  0  0  0  0
   -4.8057   -5.5295    1.7332 H   0  0  0  0  0  0  0  0  0  0  0  0
   -4.4526   -5.6688    3.4436 H   0  0  0  0  0  0  0  0  0  0  0  0
   -4.9255   -4.1233    2.7700 H   0  0  0  0  0  0  0  0  0  0  0  0
   -2.6241   -3.5219    1.6838 N   0  0  0  0  0  0  0  0  0  0  0  0
   -1.3070   -3.0608    1.3315 C   0  0  2  0  0  0  0  0  0  0  0  0
   -1.3931   -1.5680    1.0422 C   0  0  0  0  0  0  0  0  0  0  0  0
   -2.4385   -1.0059    0.7226 O   0  0  0  0  0  0  0  0  0  0  0  0
   -0.7590   -3.8164    0.1309 C   0  0  0  0  0  0  0  0  0  0  0  0
   -3.4188   -2.9207    1.4735 H   0  0  0  0  0  0  0  0  0  0  0  0
   -0.6690   -3.2277    2.2062 H   0  0  0  0  0  0  0  0  0  0  0  0
   -1.3852   -3.6613   -0.7553 H   0  0  0  0  0  0  0  0  0  0  0  0
    0.2542   -3.4843   -0.1182 H   0  0  0  0  0  0  0  0  0  0  0  0
   -0.7257   -4.8930    0.3300 H   0  0  0  0  0  0  0  0  0  0  0  0
   -0.1563   -0.9420    1.1402 N   0  0  0  0  0  0  0  0  0  0  0  0
    1.0447   -1.4926    0.5650 C   0  0  2  0  0  0  0  0  0  0  0  0
    1.3074   -2.8628    1.1864 C   0  0  0  0  0  0  0  0  0  0  0  0
    1.6067   -3.8531    0.5221 O   0  0  0  0  0  0  0  0  0  0  0  0
    2.2353   -0.5371    0.6769 C   0  0  0  0  0  0  0  0  0  0  0  0
    2.0351    1.0010   -0.2805 S   0  0  0  0  0  0  0  0  0  0  0  0
   -0.0930   -0.0382    1.6028 H   0  0  0  0  0  0  0  0  0  0  0  0
    0.8181   -1.6486   -0.4970 H   0  0  0  0  0  0  0  0  0  0  0  0
    2.4037   -0.2534    1.7209 H   0  0  0  0  0  0  0  0  0  0  0  0
    3.1448   -1.0307    0.3178 H   0  0  0  0  0  0  0  0  0  0  0  0
    3.2171    1.5282    0.0633 H   0  0  0  0  0  0  0  0  0  0  0  0
    1.1440   -2.8544    2.5644 N   0  0  0  0  0  0  0  0  0  0  0  0
    1.3268   -4.0337    3.3778 C   0  0  2  0  0  0  0  0  0  0  0  0
    0.9101   -3.6917    4.8022 C   0  0  0  0  0  0  0  0  0  0  0  0
    0.8835   -2.5417    5.2355 O   0  0  0  0  0  0  0  0  0  0  0  0
    2.7677   -4.5180    3.3344 C   0  0  0  0  0  0  0  0  0  0  0  0
    0.9278   -1.9816    3.0368 H   0  0  0  0  0  0  0  0  0  0  0  0
    0.6577   -4.8022    2.9754 H   0  0  0  0  0  0  0  0  0  0  0  0
    3.4529   -3.7612    3.7335 H   0  0  0  0  0  0  0  0  0  0  0  0
    2.8984   -5.4284    3.9286 H   0  0  0  0  0  0  0  0  0  0  0  0
    3.0751   -4.7351    2.3057 H   0  0  0  0  0  0  0  0  0  0  0  0
    0.6129   -4.8255    5.5454 N   0  0  0  0  0  0  0  0  0  0  0  0
    0.2042   -4.7655    6.9294 C   0  0  0  0  0  0  0  0  0  0  0  0
    0.6433   -5.7376    5.0994 H   0  0  0  0  0  0  0  0  0  0  0  0
    1.0876   -4.8622    7.5776 H   0  0  0  0  0  0  0  0  0  0  0  0
   -0.2897   -3.8021    7.1243 H   0  0  0  0  0  0  0  0  0  0  0  0
   -0.4970   -5.5863    7.1405 H   0  0  0  0  0  0  0  0  0  0  0  0
  1  3  1  0  0  0  0
  1  7  1  0  0  0  0
  1  2  2  0  0  0  0
 29 30  1  0  0  0  0
 30 38  1  0  0  0  0
 30 31  2  0  0  0  0
  8  9  1  0  0  0  0
  9 17  1  0  0  0  0
  9 10  2  0  0  0  0
 18 19  1  0  0  0  0
 19 28  1  0  0  0  0
 19 20  2  0  0  0  0
 29 32  1  0  0  0  0
  8 11  1  0  0  0  0
 38 39  1  0  0  0  0
 18 21  1  0  0  0  0
 21 22  1  0  0  0  0
 28 29  1  0  0  0  0
  7  8  1  0  0  0  0
 17 18  1  0  0  0  0
  3  4  1  0  0  0  0
  3  5  1  0  0  0  0
  3  6  1  0  0  0  0
 32 35  1  0  0  0  0
 32 36  1  0  0  0  0
 32 37  1  0  0  0  0
 11 14  1  0  0  0  0
 11 15  1  0  0  0  0
 11 16  1  0  0  0  0
 39 41  1  0  0  0  0
 39 42  1  0  0  0  0
 39 43  1  0  0  0  0
 21 25  1  0  0  0  0
 21 26  1  0  0  0  0
 29 34  1  0  0  0  0
  8 13  1  0  0  0  0
 18 24  1  0  0  0  0
 38 40  1  0  0  0  0
  7 12  1  0  0  0  0
 28 33  1  0  0  0  0
 17 23  1  0  0  0  0
 22 27  1  0  0  0  0
M  END
$$$$

  -OEChem-02062319033D

 43 42  0     1  0  0  0  0  0999 V2000
   -2.8661   -4.7415    2.2943 C   0  0  0  0  0  0  0  0  0  0  0  0
   -2.0233   -5.5727    2.6109 O   0  0  0  0  0  0  0  0  0  0  0  0
   -4.3078   -5.0134    2.5698 C   0  0  0  0  0  0  0  0  0  0  0  0
   -4.8057   -5.5295    1.7332 H   0  0  0  0  0  0  0  0  0  0  0  0
   -4.4526   -5.6688    3.4436 H   0  0  0  0  0  0  0  0  0  0  0  0
   -4.9255   -4.1233    2.7700 H   0  0  0  0  0  0  0  0  0  0  0  0
   -2.6241   -3.5219    1.6838 N   0  0  0  0  0  0  0  0  0  0  0  0
   -1.3070   -3.0608    1.3315 C   0  0  2  0  0  0  0  0  0  0  0  0
   -1.3931   -1.5680    1.0422 C   0  0  0  0  0  0  0  0  0  0  0  0
   -2.4385   -1.0059    0.7226 O   0  0  0  0  0  0  0  0  0  0  0  0
   -0.7590   -3.8164    0.1309 C   0  0  0  0  0  0  0  0  0  0  0  0
   -3.4188   -2.9207    1.4735 H   0  0  0  0  0  0  0  0  0  0  0  0
   -0.6690   -3.2277    2.2062 H   0  0  0  0  0  0  0  0  0  0  0  0
   -1.3852   -3.6613   -0.7553 H   0  0  0  0  0  0  0  0  0  0  0  0
    0.2542   -3.4843   -0.1182 H   0  0  0  0  0  0  0  0  0  0  0  0
   -0.7257   -4.8930    0.3300 H   0  0  0  0  0  0  0  0  0  0  0  0
   -0.1563   -0.9420    1.1402 N   0  0  0  0  0  0  0  0  0  0  0  0
    0.9704   -1.3074    0.3197 C   0  0  2  0  0  0  0  0  0  0  0  0
    1.3114   -2.7745    0.5727 C   0  0  0  0  0  0  0  0  0  0  0  0
    1.5342   -3.5760   -0.3325 O   0  0  0  0  0  0  0  0  0  0  0  0
    2.1615   -0.3655    0.5125 C   0  0  0  0  0  0  0  0  0  0  0  0
    1.8420    1.3439   -0.0335 S   0  0  0  0  0  0  0  0  0  0  0  0
   -0.0427   -0.1667    1.7890 H   0  0  0  0  0  0  0  0  0  0  0  0
    0.6200   -1.2229   -0.7166 H   0  0  0  0  0  0  0  0  0  0  0  0
    2.4513   -0.3235    1.5675 H   0  0  0  0  0  0  0  0  0  0  0  0
    3.0242   -0.7343   -0.0527 H   0  0  0  0  0  0  0  0  0  0  0  0
    3.0540    1.8158    0.2853 H   0  0  0  0  0  0  0  0  0  0  0  0
    1.3127   -3.0874    1.9247 N   0  0  0  0  0  0  0  0  0  0  0  0
    1.5962   -4.4154    2.4166 C   0  0  2  0  0  0  0  0  0  0  0  0
    1.3500   -4.4226    3.9196 C   0  0  0  0  0  0  0  0  0  0  0  0
    1.3698   -3.4040    4.6074 O   0  0  0  0  0  0  0  0  0  0  0  0
    3.0240   -4.8305    2.0977 C   0  0  0  0  0  0  0  0  0  0  0  0
    1.1501   -2.3536    2.6078 H   0  0  0  0  0  0  0  0  0  0  0  0
    0.8876   -5.0921    1.9267 H   0  0  0  0  0  0  0  0  0  0  0  0
    3.7482   -4.1640    2.5800 H   0  0  0  0  0  0  0  0  0  0  0  0
    3.2284   -5.8483    2.4461 H   0  0  0  0  0  0  0  0  0  0  0  0
    3.2080   -4.7961    1.0185 H   0  0  0  0  0  0  0  0  0  0  0  0
    1.1484   -5.7054    4.4093 N   0  0  0  0  0  0  0  0  0  0  0  0
    0.9066   -5.9773    5.8070 C   0  0  0  0  0  0  0  0  0  0  0  0
    1.1298   -6.4895    3.7638 H   0  0  0  0  0  0  0  0  0  0  0  0
    1.8612   -6.1919    6.3098 H   0  0  0  0  0  0  0  0  0  0  0  0
    0.4349   -5.1006    6.2747 H   0  0  0  0  0  0  0  0  0  0  0  0
    0.2393   -6.8467    5.9012 H   0  0  0  0  0  0  0  0  0  0  0  0
  1  3  1  0  0  0  0
  1  7  1  0  0  0  0
  1  2  2  0  0  0  0
 29 30  1  0  0  0  0
 30 38  1  0  0  0  0
 30 31  2  0  0  0  0
  8  9  1  0  0  0  0
  9 17  1  0  0  0  0
  9 10  2  0  0  0  0
 18 19  1  0  0  0  0
 19 28  1  0  0  0  0
 19 20  2  0  0  0  0
 29 32  1  0  0  0  0
  8 11  1  0  0  0  0
 38 39  1  0  0  0  0
 18 21  1  0  0  0  0
 21 22  1  0  0  0  0
 28 29  1  0  0  0  0
  7  8  1  0  0  0  0
 17 18  1  0  0  0  0
  3  4  1  0  0  0  0
  3  5  1  0  0  0  0
  3  6  1  0  0  0  0
 32 35  1  0  0  0  0
 32 36  1  0  0  0  0
 32 37  1  0  0  0  0
 11 14  1  0  0  0  0
 11 15  1  0  0  0  0
 11 16  1  0  0  0  0
 39 41  1  0  0  0  0
 39 42  1  0  0  0  0
 39 43  1  0  0  0  0
 21 25  1  0  0  0  0
 21 26  1  0  0  0  0
 29 34  1  0  0  0  0
  8 13  1  0  0  0  0
 18 24  1  0  0  0  0
 38 40  1  0  0  0  0
  7 12  1  0  0  0  0
 28 33  1  0  0  0  0
 17 23  1  0  0  0  0
 22 27  1  0  0  0  0
M  END
$$$$

  -OEChem-02062319033D

 43 42  0     1  0  0  0  0  0999 V2000
   -2.8661   -4.7415    2.2943 C   0  0  0  0  0  0  0  0  0  0  0  0
   -2.0233   -5.5727    2.6109 O   0  0  0  0  0  0  0  0  0  0  0  0
   -4.3078   -5.0134    2.5698 C   0  0  0  0  0  0  0  0  0  0  0  0
   -4.8057   -5.5295    1.7332 H   0  0  0  0  0  0  0  0  0  0  0  0
   -4.4526   -5.6688    3.4436 H   0  0  0  0  0  0  0  0  0  0  0  0
   -4.9255   -4.1233    2.7700 H   0  0  0  0  0  0  0  0  0  0  0  0
   -2.6241   -3.5219    1.6838 N   0  0  0  0  0  0  0  0  0  0  0  0
   -1.3070   -3.0608    1.3315 C   0  0  2  0  0  0  0  0  0  0  0  0
   -1.3931   -1.5680    1.0422 C   0  0  0  0  0  0  0  0  0  0  0  0
   -2.4385   -1.0059    0.7226 O   0  0  0  0  0  0  0  0  0  0  0  0
   -0.7590   -3.8164    0.1309 C   0  0  0  0  0  0  0  0  0  0  0  0
   -3.4188   -2.9207    1.4735 H   0  0  0  0  0  0  0  0  0  0  0  0
   -0.6690   -3.2277    2.2062 H   0  0  0  0  0  0  0  0  0  0  0  0
   -1.3852   -3.6613   -0.7553 H   0  0  0  0  0  0  0  0  0  0  0  0
    0.2542   -3.4843   -0.1182 H   0  0  0  0  0  0  0  0  0  0  0  0
   -0.7257   -4.8930    0.3300 H   0  0  0  0  0  0  0  0  0  0  0  0
   -0.1563   -0.9420    1.1402 N   0  0  0  0  0  0  0  0  0  0  0  0
    0.8667   -1.0734    0.1339 C   0  0  2  0  0  0  0  0  0  0  0  0
    1.2420   -2.5478   -0.0001 C   0  0  0  0  0  0  0  0  0  0  0  0
    1.3595   -3.1129   -1.0856 O   0  0  0  0  0  0  0  0  0  0  0  0
    2.0679   -0.1633    0.4019 C   0  0  0  0  0  0  0  0  0  0  0  0
    1.6779    1.6148    0.3065 S   0  0  0  0  0  0  0  0  0  0  0  0
    0.0299   -0.3329    1.9335 H   0  0  0  0  0  0  0  0  0  0  0  0
    0.3954   -0.7648   -0.8075 H   0  0  0  0  0  0  0  0  0  0  0  0
    2.4807   -0.3550    1.3977 H   0  0  0  0  0  0  0  0  0  0  0  0
    2.8591   -0.3649   -0.3283 H   0  0  0  0  0  0  0  0  0  0  0  0
    2.9170    2.0393    0.5851 H   0  0  0  0  0  0  0  0  0  0  0  0
    1.4053   -3.1621    1.2334 N   0  0  0  0  0  0  0  0  0  0  0  0
    1.7513   -4.5577    1.3689 C   0  0  2  0  0  0  0  0  0  0  0  0
    1.6854   -4.9171    2.8474 C   0  0  0  0  0  0  0  0  0  0  0  0
    1.7820   -4.0833    3.7454 O   0  0  0  0  0  0  0  0  0  0  0  0
    3.1330   -4.8429    0.8013 C   0  0  0  0  0  0  0  0  0  0  0  0
    1.3216   -2.6100    2.0818 H   0  0  0  0  0  0  0  0  0  0  0  0
    0.9927   -5.1263    0.8201 H   0  0  0  0  0  0  0  0  0  0  0  0
    3.9063   -4.2819    1.3386 H   0  0  0  0  0  0  0  0  0  0  0  0
    3.3821   -5.9064    0.8790 H   0  0  0  0  0  0  0  0  0  0  0  0
    3.1875   -4.5561   -0.2544 H   0  0  0  0  0  0  0  0  0  0  0  0
    1.5492   -6.2838    3.0467 N   0  0  0  0  0  0  0  0  0  0  0  0
    1.4764   -6.8766    4.3618 C   0  0  0  0  0  0  0  0  0  0  0  0
    1.4577   -6.8992    2.2438 H   0  0  0  0  0  0  0  0  0  0  0  0
    2.4849   -7.1701    4.6886 H   0  0  0  0  0  0  0  0  0  0  0  0
    1.0595   -6.1459    5.0706 H   0  0  0  0  0  0  0  0  0  0  0  0
    0.8289   -7.7652    4.3280 H   0  0  0  0  0  0  0  0  0  0  0  0
  1  3  1  0  0  0  0
  1  7  1  0  0  0  0
  1  2  2  0  0  0  0
 29 30  1  0  0  0  0
 30 38  1  0  0  0  0
 30 31  2  0  0  0  0
  8  9  1  0  0  0  0
  9 17  1  0  0  0  0
  9 10  2  0  0  0  0
 18 19  1  0  0  0  0
 19 28  1  0  0  0  0
 19 20  2  0  0  0  0
 29 32  1  0  0  0  0
  8 11  1  0  0  0  0
 38 39  1  0  0  0  0
 18 21  1  0  0  0  0
 21 22  1  0  0  0  0
 28 29  1  0  0  0  0
  7  8  1  0  0  0  0
 17 18  1  0  0  0  0
  3  4  1  0  0  0  0
  3  5  1  0  0  0  0
  3  6  1  0  0  0  0
 32 35  1  0  0  0  0
 32 36  1  0  0  0  0
 32 37  1  0  0  0  0
 11 14  1  0  0  0  0
 11 15  1  0  0  0  0
 11 16  1  0  0  0  0
 39 41  1  0  0  0  0
 39 42  1  0  0  0  0
 39 43  1  0  0  0  0
 21 25  1  0  0  0  0
 21 26  1  0  0  0  0
 29 34  1  0  0  0  0
  8 13  1  0  0  0  0
 18 24  1  0  0  0  0
 38 40  1  0  0  0  0
  7 12  1  0  0  0  0
 28 33  1  0  0  0  0
 17 23  1  0  0  0  0
 22 27  1  0  0  0  0
M  END
$$$$

  -OEChem-02062319033D

 43 42  0     1  0  0  0  0  0999 V2000
   -2.8661   -4.7415    2.2943 C   0  0  0  0  0  0  0  0  0  0  0  0
   -2.0233   -5.5727    2.6109 O   0  0  0  0  0  0  0  0  0  0  0  0
   -4.3078   -5.0134    2.5698 C   0  0  0  0  0  0  0  0  0  0  0  0
   -4.8057   -5.5295    1.7332 H   0  0  0  0  0  0  0  0  0  0  0  0
   -4.4526   -5.6688    3.4436 H   0  0  0  0  0  0  0  0  0  0  0  0
   -4.9255   -4.1233    2.7700 H   0  0  0  0  0  0  0  0  0  0  0  0
   -2.6241   -3.5219    1.6838 N   0  0  0  0  0  0  0  0  0  0  0  0
   -1.3070   -3.0608    1.3315 C   0  0  2  0  0  0  0  0  0  0  0  0
   -1.3931   -1.5680    1.0422 C   0  0  0  0  0  0  0  0  0  0  0  0
   -2.4385   -1.0059    0.7226 O   0  0  0  0  0  0  0  0  0  0  0  0
   -0.7590   -3.8164    0.1309 C   0  0  0  0  0  0  0  0  0  0  0  0
   -3.4188   -2.9207    1.4735 H   0  0  0  0  0  0  0  0  0  0  0  0
   -0.6690   -3.2277    2.2062 H   0  0  0  0  0  0  0  0  0  0  0  0
   -1.3852   -3.6613   -0.7553 H   0  0  0  0  0  0  0  0  0  0  0  0
    0.2542   -3.4843   -0.1182 H   0  0  0  0  0  0  0  0  0  0  0  0
   -0.7257   -4.8930    0.3300 H   0  0  0  0  0  0  0  0  0  0  0  0
   -0.1563   -0.9420    1.1402 N   0  0  0  0  0  0  0  0  0  0  0  0
    0.7406   -0.8065    0.0205 C   0  0  2  0  0  0  0  0  0  0  0  0
    1.1041   -2.1981   -0.4931 C   0  0  0  0  0  0  0  0  0  0  0  0
    1.0944   -2.4952   -1.6860 O   0  0  0  0  0  0  0  0  0  0  0  0
    1.9609    0.0559    0.3526 C   0  0  0  0  0  0  0  0  0  0  0  0
    1.5542    1.7950    0.7166 S   0  0  0  0  0  0  0  0  0  0  0  0
    0.1200   -0.5253    2.0262 H   0  0  0  0  0  0  0  0  0  0  0  0
    0.1594   -0.3055   -0.7636 H   0  0  0  0  0  0  0  0  0  0  0  0
    2.4899   -0.3458    1.2230 H   0  0  0  0  0  0  0  0  0  0  0  0
    2.6607    0.0523   -0.4901 H   0  0  0  0  0  0  0  0  0  0  0  0
    2.8156    2.1838    0.9421 H   0  0  0  0  0  0  0  0  0  0  0  0
    1.4155   -3.0733    0.5377 N   0  0  0  0  0  0  0  0  0  0  0  0
    1.7816   -4.4510    0.3061 C   0  0  2  0  0  0  0  0  0  0  0  0
    1.8933   -5.1418    1.6588 C   0  0  0  0  0  0  0  0  0  0  0  0
    2.0921   -4.5333    2.7083 O   0  0  0  0  0  0  0  0  0  0  0  0
    3.0874   -4.5542   -0.4665 C   0  0  0  0  0  0  0  0  0  0  0  0
    1.4306   -2.7334    1.4947 H   0  0  0  0  0  0  0  0  0  0  0  0
    0.9658   -4.9026   -0.2690 H   0  0  0  0  0  0  0  0  0  0  0  0
    3.9165   -4.1070    0.0940 H   0  0  0  0  0  0  0  0  0  0  0  0
    3.3488   -5.5987   -0.6661 H   0  0  0  0  0  0  0  0  0  0  0  0
    3.0148   -4.0315   -1.4263 H   0  0  0  0  0  0  0  0  0  0  0  0
    1.7881   -6.5214    1.5506 N   0  0  0  0  0  0  0  0  0  0  0  0
    1.8746   -7.4018    2.6922 C   0  0  0  0  0  0  0  0  0  0  0  0
    1.6048   -6.9389    0.6429 H   0  0  0  0  0  0  0  0  0  0  0  0
    2.9161   -7.7301    2.8246 H   0  0  0  0  0  0  0  0  0  0  0  0
    1.5415   -6.8668    3.5938 H   0  0  0  0  0  0  0  0  0  0  0  0
    1.2319   -8.2792    2.5280 H   0  0  0  0  0  0  0  0  0  0  0  0
  1  3  1  0  0  0  0
  1  7  1  0  0  0  0
  1  2  2  0  0  0  0
 29 30  1  0  0  0  0
 30 38  1  0  0  0  0
 30 31  2  0  0  0  0
  8  9  1  0  0  0  0
  9 17  1  0  0  0  0
  9 10  2  0  0  0  0
 18 19  1  0  0  0  0
 19 28  1  0  0  0  0
 19 20  2  0  0  0  0
 29 32  1  0  0  0  0
  8 11  1  0  0  0  0
 38 39  1  0  0  0  0
 18 21  1  0  0  0  0
 21 22  1  0  0  0  0
 28 29  1  0  0  0  0
  7  8  1  0  0  0  0
 17 18  1  0  0  0  0
  3  4  1  0  0  0  0
  3  5  1  0  0  0  0
  3  6  1  0  0  0  0
 32 35  1  0  0  0  0
 32 36  1  0  0  0  0
 32 37  1  0  0  0  0
 11 14  1  0  0  0  0
 11 15  1  0  0  0  0
 11 16  1  0  0  0  0
 39 41  1  0  0  0  0
 39 42  1  0  0  0  0
 39 43  1  0  0  0  0
 21 25  1  0  0  0  0
 21 26  1  0  0  0  0
 29 34  1  0  0  0  0
  8 13  1  0  0  0  0
 18 24  1  0  0  0  0
 38 40  1  0  0  0  0
  7 12  1  0  0  0  0
 28 33  1  0  0  0  0
 17 23  1  0  0  0  0
 22 27  1  0  0  0  0
M  END
$$$$

  -OEChem-02062319033D

 43 42  0     1  0  0  0  0  0999 V2000
   -2.8661   -4.7415    2.2943 C   0  0  0  0  0  0  0  0  0  0  0  0
   -2.0233   -5.5727    2.6109 O   0  0  0  0  0  0  0  0  0  0  0  0
   -4.3078   -5.0134    2.5698 C   0  0  0  0  0  0  0  0  0  0  0  0
   -4.8057   -5.5295    1.7332 H   0  0  0  0  0  0  0  0  0  0  0  0
   -4.4526   -5.6688    3.4436 H   0  0  0  0  0  0  0  0  0  0  0  0
   -4.9255   -4.1233    2.7700 H   0  0  0  0  0  0  0  0  0  0  0  0
   -2.6241   -3.5219    1.6838 N   0  0  0  0  0  0  0  0  0  0  0  0
   -1.3070   -3.0608    1.3315 C   0  0  2  0  0  0  0  0  0  0  0  0
   -1.3931   -1.5680    1.0422 C   0  0  0  0  0  0  0  0  0  0  0  0
   -2.4385   -1.0059    0.7226 O   0  0  0  0  0  0  0  0  0  0  0  0
   -0.7590   -3.8164    0.1309 C   0  0  0  0  0  0  0  0  0  0  0  0
   -3.4188   -2.9207    1.4735 H   0  0  0  0  0  0  0  0  0  0  0  0
   -0.6690   -3.2277    2.2062 H   0  0  0  0  0  0  0  0  0  0  0  0
   -1.3852   -3.6613   -0.7553 H   0  0  0  0  0  0  0  0  0  0  0  0
    0.2542   -3.4843   -0.1182 H   0  0  0  0  0  0  0  0  0  0  0  0
   -0.7257   -4.8930    0.3300 H   0  0  0  0  0  0  0  0  0  0  0  0
   -0.1563   -0.9420    1.1402 N   0  0  0  0  0  0  0  0  0  0  0  0
    0.6006   -0.5248   -0.0128 C   0  0  2  0  0  0  0  0  0  0  0  0
    0.9070   -1.7493   -0.8727 C   0  0  0  0  0  0  0  0  0  0  0  0
    0.7571   -1.7651   -2.0928 O   0  0  0  0  0  0  0  0  0  0  0  0
    1.8477    0.2769    0.3679 C   0  0  0  0  0  0  0  0  0  0  0  0
    1.4791    1.8724    1.1686 S   0  0  0  0  0  0  0  0  0  0  0  0
    0.2213   -0.7310    2.0609 H   0  0  0  0  0  0  0  0  0  0  0  0
   -0.0719    0.1238   -0.5879 H   0  0  0  0  0  0  0  0  0  0  0  0
    2.4783   -0.2964    1.0552 H   0  0  0  0  0  0  0  0  0  0  0  0
    2.4426    0.4890   -0.5271 H   0  0  0  0  0  0  0  0  0  0  0  0
    2.7566    2.2392    1.3320 H   0  0  0  0  0  0  0  0  0  0  0  0
    1.3426   -2.8271   -0.1150 N   0  0  0  0  0  0  0  0  0  0  0  0
    1.6849   -4.1026   -0.6996 C   0  0  2  0  0  0  0  0  0  0  0  0
    1.9597   -5.0812    0.4347 C   0  0  0  0  0  0  0  0  0  0  0  0
    2.2788   -4.7235    1.5666 O   0  0  0  0  0  0  0  0  0  0  0  0
    2.8903   -3.9842   -1.6193 C   0  0  0  0  0  0  0  0  0  0  0  0
    1.4697   -2.7153    0.8865 H   0  0  0  0  0  0  0  0  0  0  0  0
    0.8088   -4.4362   -1.2662 H   0  0  0  0  0  0  0  0  0  0  0  0
    3.7779   -3.6511   -1.0692 H   0  0  0  0  0  0  0  0  0  0  0  0
    3.1309   -4.9462   -2.0837 H   0  0  0  0  0  0  0  0  0  0  0  0
    2.7018   -3.2579   -2.4172 H   0  0  0  0  0  0  0  0  0  0  0  0
    1.8487   -6.4019    0.0229 N   0  0  0  0  0  0  0  0  0  0  0  0
    2.0743   -7.5174    0.9122 C   0  0  0  0  0  0  0  0  0  0  0  0
    1.5608   -6.6058   -0.9296 H   0  0  0  0  0  0  0  0  0  0  0  0
    3.1256   -7.8338    0.8449 H   0  0  0  0  0  0  0  0  0  0  0  0
    1.8481   -7.2142    1.9451 H   0  0  0  0  0  0  0  0  0  0  0  0
    1.4206   -8.3538    0.6241 H   0  0  0  0  0  0  0  0  0  0  0  0
  1  3  1  0  0  0  0
  1  7  1  0  0  0  0
  1  2  2  0  0  0  0
 29 30  1  0  0  0  0
 30 38  1  0  0  0  0
 30 31  2  0  0  0  0
  8  9  1  0  0  0  0
  9 17  1  0  0  0  0
  9 10  2  0  0  0  0
 18 19  1  0  0  0  0
 19 28  1  0  0  0  0
 19 20  2  0  0  0  0
 29 32  1  0  0  0  0
  8 11  1  0  0  0  0
 38 39  1  0  0  0  0
 18 21  1  0  0  0  0
 21 22  1  0  0  0  0
 28 29  1  0  0  0  0
  7  8  1  0  0  0  0
 17 18  1  0  0  0  0
  3  4  1  0  0  0  0
  3  5  1  0  0  0  0
  3  6  1  0  0  0  0
 32 35  1  0  0  0  0
 32 36  1  0  0  0  0
 32 37  1  0  0  0  0
 11 14  1  0  0  0  0
 11 15  1  0  0  0  0
 11 16  1  0  0  0  0
 39 41  1  0  0  0  0
 39 42  1  0  0  0  0
 39 43  1  0  0  0  0
 21 25  1  0  0  0  0
 21 26  1  0  0  0  0
 29 34  1  0  0  0  0
  8 13  1  0  0  0  0
 18 24  1  0  0  0  0
 38 40  1  0  0  0  0
  7 12  1  0  0  0  0
 28 33  1  0  0  0  0
 17 23  1  0  0  0  0
 22 27  1  0  0  0  0
M  END
$$$$

  -OEChem-02062319033D

 43 42  0     1  0  0  0  0  0999 V2000
   -2.8661   -4.7415    2.2943 C   0  0  0  0  0  0  0  0  0  0  0  0
   -2.0233   -5.5727    2.6109 O   0  0  0  0  0  0  0  0  0  0  0  0
   -4.3078   -5.0134    2.5698 C   0  0  0  0  0  0  0  0  0  0  0  0
   -4.8057   -5.5295    1.7332 H   0  0  0  0  0  0  0  0  0  0  0  0
   -4.4526   -5.6688    3.4436 H   0  0  0  0  0  0  0  0  0  0  0  0
   -4.9255   -4.1233    2.7700 H   0  0  0  0  0  0  0  0  0  0  0  0
   -2.6241   -3.5219    1.6838 N   0  0  0  0  0  0  0  0  0  0  0  0
   -1.3070   -3.0608    1.3315 C   0  0  2  0  0  0  0  0  0  0  0  0
   -1.3931   -1.5680    1.0422 C   0  0  0  0  0  0  0  0  0  0  0  0
   -2.4385   -1.0059    0.7226 O   0  0  0  0  0  0  0  0  0  0  0  0
   -0.7590   -3.8164    0.1309 C   0  0  0  0  0  0  0  0  0  0  0  0
   -3.4188   -2.9207    1.4735 H   0  0  0  0  0  0  0  0  0  0  0  0
   -0.6690   -3.2277    2.2062 H   0  0  0  0  0  0  0  0  0  0  0  0
   -1.3852   -3.6613   -0.7553 H   0  0  0  0  0  0  0  0  0  0  0  0
    0.2542   -3.4843   -0.1182 H   0  0  0  0  0  0  0  0  0  0  0  0
   -0.7257   -4.8930    0.3300 H   0  0  0  0  0  0  0  0  0  0  0  0
   -0.1563   -0.9420    1.1402 N   0  0  0  0  0  0  0  0  0  0  0  0
    0.4564   -0.2476    0.0362 C   0  0  2  0  0  0  0  0  0  0  0  0
    0.6641   -1.2319   -1.1130 C   0  0  0  0  0  0  0  0  0  0  0  0
    0.3705   -0.9724   -2.2783 O   0  0  0  0  0  0  0  0  0  0  0  0
    1.7362    0.4849    0.4468 C   0  0  0  0  0  0  0  0  0  0  0  0
    1.4580    1.8417    1.6317 S   0  0  0  0  0  0  0  0  0  0  0  0
    0.3270   -0.9357    2.0353 H   0  0  0  0  0  0  0  0  0  0  0  0
   -0.2826    0.4937   -0.2923 H   0  0  0  0  0  0  0  0  0  0  0  0
    2.4465   -0.2104    0.9060 H   0  0  0  0  0  0  0  0  0  0  0  0
    2.2196    0.9154   -0.4369 H   0  0  0  0  0  0  0  0  0  0  0  0
    2.7441    2.2018    1.7283 H   0  0  0  0  0  0  0  0  0  0  0  0
    1.1917   -2.4403   -0.6803 N   0  0  0  0  0  0  0  0  0  0  0  0
    1.4680   -3.5362   -1.5794 C   0  0  2  0  0  0  0  0  0  0  0  0
    1.8800   -4.7394   -0.7415 C   0  0  0  0  0  0  0  0  0  0  0  0
    2.3296   -4.6408    0.3983 O   0  0  0  0  0  0  0  0  0  0  0  0
    2.5550   -3.1717   -2.5785 C   0  0  0  0  0  0  0  0  0  0  0  0
    1.4362   -2.5571    0.2986 H   0  0  0  0  0  0  0  0  0  0  0  0
    0.5323   -3.7587   -2.1037 H   0  0  0  0  0  0  0  0  0  0  0  0
    3.5002   -2.9454   -2.0716 H   0  0  0  0  0  0  0  0  0  0  0  0
    2.7433   -3.9934   -3.2774 H   0  0  0  0  0  0  0  0  0  0  0  0
    2.2698   -2.2882   -3.1597 H   0  0  0  0  0  0  0  0  0  0  0  0
    1.7269   -5.9334   -1.4323 N   0  0  0  0  0  0  0  0  0  0  0  0
    2.0616   -7.2153   -0.8571 C   0  0  0  0  0  0  0  0  0  0  0  0
    1.3289   -5.9226   -2.3668 H   0  0  0  0  0  0  0  0  0  0  0  0
    3.0990   -7.4741   -1.1157 H   0  0  0  0  0  0  0  0  0  0  0  0
    1.9583   -7.1644    0.2368 H   0  0  0  0  0  0  0  0  0  0  0  0
    1.3822   -7.9838   -1.2542 H   0  0  0  0  0  0  0  0  0  0  0  0
  1  3  1  0  0  0  0
  1  7  1  0  0  0  0
  1  2  2  0  0  0  0
 29 30  1  0  0  0  0
 30 38  1  0  0  0  0
 30 31  2  0  0  0  0
  8  9  1  0  0  0  0
  9 17  1  0  0  0  0
  9 10  2  0  0  0  0
 18 19  1  0  0  0  0
 19 28  1  0  0  0  0
 19 20  2  0  0  0  0
 29 32  1  0  0  0  0
  8 11  1  0  0  0  0
 38 39  1  0  0  0  0
 18 21  1  0  0  0  0
 21 22  1  0  0  0  0
 28 29  1  0  0  0  0
  7  8  1  0  0  0  0
 17 18  1  0  0  0  0
  3  4  1  0  0  0  0
  3  5  1  0  0  0  0
  3  6  1  0  0  0  0
 32 35  1  0  0  0  0
 32 36  1  0  0  0  0
 32 37  1  0  0  0  0
 11 14  1  0  0  0  0
 11 15  1  0  0  0  0
 11 16  1  0  0  0  0
 39 41  1  0  0  0  0
 39 42  1  0  0  0  0
 39 43  1  0  0  0  0
 21 25  1  0  0  0  0
 21 26  1  0  0  0  0
 29 34  1  0  0  0  0
  8 13  1  0  0  0  0
 18 24  1  0  0  0  0
 38 40  1  0  0  0  0
  7 12  1  0  0  0  0
 28 33  1  0  0  0  0
 17 23  1  0  0  0  0
 22 27  1  0  0  0  0
M  END
$$$$

  -OEChem-02062319033D

 43 42  0     1  0  0  0  0  0999 V2000
   -2.8661   -4.7415    2.2943 C   0  0  0  0  0  0  0  0  0  0  0  0
   -2.0233   -5.5727    2.6109 O   0  0  0  0  0  0  0  0  0  0  0  0
   -4.3078   -5.0134    2.5698 C   0  0  0  0  0  0  0  0  0  0  0  0
   -4.8057   -5.5295    1.7332 H   0  0  0  0  0  0  0  0  0  0  0  0
   -4.4526   -5.6688    3.4436 H   0  0  0  0  0  0  0  0  0  0  0  0
   -4.9255   -4.1233    2.7700 H   0  0  0  0  0  0  0  0  0  0  0  0
   -2.6241   -3.5219    1.6838 N   0  0  0  0  0  0  0  0  0  0  0  0
   -1.3070   -3.0608    1.3315 C   0  0  2  0  0  0  0  0  0  0  0  0
   -1.3931   -1.5680    1.0422 C   0  0  0  0  0  0  0  0  0  0  0  0
   -2.4385   -1.0059    0.7226 O   0  0  0  0  0  0  0  0  0  0  0  0
   -0.7590   -3.8164    0.1309 C   0  0  0  0  0  0  0  0  0  0  0  0
   -3.4188   -2.9207    1.4735 H   0  0  0  0  0  0  0  0  0  0  0  0
   -0.6690   -3.2277    2.2062 H   0  0  0  0  0  0  0  0  0  0  0  0
   -1.3852   -3.6613   -0.7553 H   0  0  0  0  0  0  0  0  0  0  0  0
    0.2542   -3.4843   -0.1182 H   0  0  0  0  0  0  0  0  0  0  0  0
   -0.7257   -4.8930    0.3300 H   0  0  0  0  0  0  0  0  0  0  0  0
   -0.1563   -0.9420    1.1402 N   0  0  0  0  0  0  0  0  0  0  0  0
    0.3178    0.0062    0.1642 C   0  0  2  0  0  0  0  0  0  0  0  0
    0.3921   -0.6813   -1.1976 C   0  0  0  0  0  0  0  0  0  0  0  0
   -0.0390   -0.1710   -2.2297 O   0  0  0  0  0  0  0  0  0  0  0  0
    1.6339    0.6655    0.5839 C   0  0  0  0  0  0  0  0  0  0  0  0
    1.4921    1.7050    2.0745 S   0  0  0  0  0  0  0  0  0  0  0  0
    0.4298   -1.1257    1.9511 H   0  0  0  0  0  0  0  0  0  0  0  0
   -0.4584    0.7791    0.1029 H   0  0  0  0  0  0  0  0  0  0  0  0
    2.3969   -0.0934    0.7853 H   0  0  0  0  0  0  0  0  0  0  0  0
    2.0069    1.3024   -0.2255 H   0  0  0  0  0  0  0  0  0  0  0  0
    2.7790    2.0742    2.1039 H   0  0  0  0  0  0  0  0  0  0  0  0
    0.9728   -1.9391   -1.1196 N   0  0  0  0  0  0  0  0  0  0  0  0
    1.1455   -2.7904   -2.2735 C   0  0  2  0  0  0  0  0  0  0  0  0
    1.6596   -4.1399   -1.7896 C   0  0  0  0  0  0  0  0  0  0  0  0
    2.2409   -4.2909   -0.7171 O   0  0  0  0  0  0  0  0  0  0  0  0
    2.1045   -2.1720   -3.2788 C   0  0  0  0  0  0  0  0  0  0  0  0
    1.3324   -2.2694   -0.2290 H   0  0  0  0  0  0  0  0  0  0  0  0
    0.1551   -2.9165   -2.7245 H   0  0  0  0  0  0  0  0  0  0  0  0
    3.1021   -2.0379   -2.8449 H   0  0  0  0  0  0  0  0  0  0  0  0
    2.2122   -2.8051   -4.1657 H   0  0  0  0  0  0  0  0  0  0  0  0
    1.7482   -1.1884   -3.6032 H   0  0  0  0  0  0  0  0  0  0  0  0
    1.4311   -5.1480   -2.7158 N   0  0  0  0  0  0  0  0  0  0  0  0
    1.8376   -6.5162   -2.4951 C   0  0  0  0  0  0  0  0  0  0  0  0
    0.9249   -4.9359   -3.5705 H   0  0  0  0  0  0  0  0  0  0  0  0
    2.8381   -6.6756   -2.9236 H   0  0  0  0  0  0  0  0  0  0  0  0
    1.8647   -6.7208   -1.4146 H   0  0  0  0  0  0  0  0  0  0  0  0
    1.1194   -7.1945   -2.9788 H   0  0  0  0  0  0  0  0  0  0  0  0
  1  3  1  0  0  0  0
  1  7  1  0  0  0  0
  1  2  2  0  0  0  0
 29 30  1  0  0  0  0
 30 38  1  0  0  0  0
 30 31  2  0  0  0  0
  8  9  1  0  0  0  0
  9 17  1  0  0  0  0
  9 10  2  0  0  0  0
 18 19  1  0  0  0  0
 19 28  1  0  0  0  0
 19 20  2  0  0  0  0
 29 32  1  0  0  0  0
  8 11  1  0  0  0  0
 38 39  1  0  0  0  0
 18 21  1  0  0  0  0
 21 22  1  0  0  0  0
 28 29  1  0  0  0  0
  7  8  1  0  0  0  0
 17 18  1  0  0  0  0
  3  4  1  0  0  0  0
  3  5  1  0  0  0  0
  3  6  1  0  0  0  0
 32 35  1  0  0  0  0
 32 36  1  0  0  0  0
 32 37  1  0  0  0  0
 11 14  1  0  0  0  0
 11 15  1  0  0  0  0
 11 16  1  0  0  0  0
 39 41  1  0  0  0  0
 39 42  1  0  0  0  0
 39 43  1  0  0  0  0
 21 25  1  0  0  0  0
 21 26  1  0  0  0  0
 29 34  1  0  0  0  0
  8 13  1  0  0  0  0
 18 24  1  0  0  0  0
 38 40  1  0  0  0  0
  7 12  1  0  0  0  0
 28 33  1  0  0  0  0
 17 23  1  0  0  0  0
 22 27  1  0  0  0  0
M  END
$$$$

  -OEChem-02062319033D

 43 42  0     1  0  0  0  0  0999 V2000
   -2.8661   -4.7415    2.2943 C   0  0  0  0  0  0  0  0  0  0  0  0
   -2.0233   -5.5727    2.6109 O   0  0  0  0  0  0  0  0  0  0  0  0
   -4.3078   -5.0134    2.5698 C   0  0  0  0  0  0  0  0  0  0  0  0
   -4.8057   -5.5295    1.7332 H   0  0  0  0  0  0  0  0  0  0  0  0
   -4.4526   -5.6688    3.4436 H   0  0  0  0  0  0  0  0  0  0  0  0
   -4.9255   -4.1233    2.7700 H   0  0  0  0  0  0  0  0  0  0  0  0
   -2.6241   -3.5219    1.6838 N   0  0  0  0  0  0  0  0  0  0  0  0
   -1.3070   -3.0608    1.3315 C   0  0  2  0  0  0  0  0  0  0  0  0
   -1.3931   -1.5680    1.0422 C   0  0  0  0  0  0  0  0  0  0  0  0
   -2.4385   -1.0059    0.7226 O   0  0  0  0  0  0  0  0  0  0  0  0
   -0.7590   -3.8164    0.1309 C   0  0  0  0  0  0  0  0  0  0  0  0
   -3.4188   -2.9207    1.4735 H   0  0  0  0  0  0  0  0  0  0  0  0
   -0.6690   -3.2277    2.2062 H   0  0  0  0  0  0  0  0  0  0  0  0
   -1.3852   -3.6613   -0.7553 H   0  0  0  0  0  0  0  0  0  0  0  0
    0.2542   -3.4843   -0.1182 H   0  0  0  0  0  0  0  0  0  0  0  0
   -0.7257   -4.8930    0.3300 H   0  0  0  0  0  0  0  0  0  0  0  0
   -0.1563   -0.9420    1.1402 N   0  0  0  0  0  0  0  0  0  0  0  0
    0.1942    0.2194    0.3624 C   0  0  2  0  0  0  0  0  0  0  0  0
    0.1094   -0.1349   -1.1208 C   0  0  0  0  0  0  0  0  0  0  0  0
   -0.4435    0.5844   -1.9505 O   0  0  0  0  0  0  0  0  0  0  0  0
    1.5478    0.8066    0.7698 C   0  0  0  0  0  0  0  0  0  0  0  0
    1.5792    1.4715    2.4667 S   0  0  0  0  0  0  0  0  0  0  0  0
    0.5228   -1.2879    1.8140 H   0  0  0  0  0  0  0  0  0  0  0  0
   -0.5873    0.9606    0.5710 H   0  0  0  0  0  0  0  0  0  0  0  0
    2.3328    0.0464    0.7015 H   0  0  0  0  0  0  0  0  0  0  0  0
    1.8191    1.6236    0.0926 H   0  0  0  0  0  0  0  0  0  0  0  0
    2.8587    1.8651    2.4333 H   0  0  0  0  0  0  0  0  0  0  0  0
    0.7011   -1.3579   -1.4030 N   0  0  0  0  0  0  0  0  0  0  0  0
    0.7394   -1.9160   -2.7345 C   0  0  2  0  0  0  0  0  0  0  0  0
    1.3135   -3.3233   -2.6382 C   0  0  0  0  0  0  0  0  0  0  0  0
    2.0188   -3.6976   -1.7036 O   0  0  0  0  0  0  0  0  0  0  0  0
    1.5694   -1.0533   -3.6724 C   0  0  0  0  0  0  0  0  0  0  0  0
    1.1654   -1.8719   -0.6602 H   0  0  0  0  0  0  0  0  0  0  0  0
   -0.2969   -1.9669   -3.0860 H   0  0  0  0  0  0  0  0  0  0  0  0
    2.6109   -0.9905   -3.3364 H   0  0  0  0  0  0  0  0  0  0  0  0
    1.5740   -1.4625   -4.6881 H   0  0  0  0  0  0  0  0  0  0  0  0
    1.1726   -0.0334   -3.7174 H   0  0  0  0  0  0  0  0  0  0  0  0
    0.9813   -4.0990   -3.7401 N   0  0  0  0  0  0  0  0  0  0  0  0
    1.4175   -5.4677   -3.8901 C   0  0  0  0  0  0  0  0  0  0  0  0
    0.3763   -3.7129   -4.4589 H   0  0  0  0  0  0  0  0  0  0  0  0
    2.3607   -5.4926   -4.4554 H   0  0  0  0  0  0  0  0  0  0  0  0
    1.5736   -5.9136   -2.8967 H   0  0  0  0  0  0  0  0  0  0  0  0
    0.6500   -6.0396   -4.4322 H   0  0  0  0  0  0  0  0  0  0  0  0
  1  3  1  0  0  0  0
  1  7  1  0  0  0  0
  1  2  2  0  0  0  0
 29 30  1  0  0  0  0
 30 38  1  0  0  0  0
 30 31  2  0  0  0  0
  8  9  1  0  0  0  0
  9 17  1  0  0  0  0
  9 10  2  0  0  0  0
 18 19  1  0  0  0  0
 19 28  1  0  0  0  0
 19 20  2  0  0  0  0
 29 32  1  0  0  0  0
  8 11  1  0  0  0  0
 38 39  1  0  0  0  0
 18 21  1  0  0  0  0
 21 22  1  0  0  0  0
 28 29  1  0  0  0  0
  7  8  1  0  0  0  0
 17 18  1  0  0  0  0
  3  4  1  0  0  0  0
  3  5  1  0  0  0  0
  3  6  1  0  0  0  0
 32 35  1  0  0  0  0
 32 36  1  0  0  0  0
 32 37  1  0  0  0  0
 11 14  1  0  0  0  0
 11 15  1  0  0  0  0
 11 16  1  0  0  0  0
 39 41  1  0  0  0  0
 39 42  1  0  0  0  0
 39 43  1  0  0  0  0
 21 25  1  0  0  0  0
 21 26  1  0  0  0  0
 29 34  1  0  0  0  0
  8 13  1  0  0  0  0
 18 24  1  0  0  0  0
 38 40  1  0  0  0  0
  7 12  1  0  0  0  0
 28 33  1  0  0  0  0
 17 23  1  0  0  0  0
 22 27  1  0  0  0  0
M  END
$$$$

  -OEChem-02062319033D

 43 42  0     1  0  0  0  0  0999 V2000
   -2.8661   -4.7415    2.2943 C   0  0  0  0  0  0  0  0  0  0  0  0
   -2.0233   -5.5727    2.6109 O   0  0  0  0  0  0  0  0  0  0  0  0
   -4.3078   -5.0134    2.5698 C   0  0  0  0  0  0  0  0  0  0  0  0
   -4.8057   -5.5295    1.7332 H   0  0  0  0  0  0  0  0  0  0  0  0
   -4.4526   -5.6688    3.4436 H   0  0  0  0  0  0  0  0  0  0  0  0
   -4.9255   -4.1233    2.7700 H   0  0  0  0  0  0  0  0  0  0  0  0
   -2.6241   -3.5219    1.6838 N   0  0  0  0  0  0  0  0  0  0  0  0
   -1.3070   -3.0608    1.3315 C   0  0  2  0  0  0  0  0  0  0  0  0
   -1.3931   -1.5680    1.0422 C   0  0  0  0  0  0  0  0  0  0  0  0
   -2.4385   -1.0059    0.7226 O   0  0  0  0  0  0  0  0  0  0  0  0
   -0.7590   -3.8164    0.1309 C   0  0  0  0  0  0  0  0  0  0  0  0
   -3.4188   -2.9207    1.4735 H   0  0  0  0  0  0  0  0  0  0  0  0
   -0.6690   -3.2277    2.2062 H   0  0  0  0  0  0  0  0  0  0  0  0
   -1.3852   -3.6613   -0.7553 H   0  0  0  0  0  0  0  0  0  0  0  0
    0.2542   -3.4843   -0.1182 H   0  0  0  0  0  0  0  0  0  0  0  0
   -0.7257   -4.8930    0.3300 H   0  0  0  0  0  0  0  0  0  0  0  0
   -0.1563   -0.9420    1.1402 N   0  0  0  0  0  0  0  0  0  0  0  0
    0.0940    0.3773    0.6175 C   0  0  2  0  0  0  0  0  0  0  0  0
   -0.1646    0.3701   -0.8878 C   0  0  0  0  0  0  0  0  0  0  0  0
   -0.8155    1.2423   -1.4596 O   0  0  0  0  0  0  0  0  0  0  0  0
    1.4837    0.8984    0.9920 C   0  0  0  0  0  0  0  0  0  0  0  0
    1.7133    1.1573    2.7816 S   0  0  0  0  0  0  0  0  0  0  0  0
    0.5996   -1.4113    1.6334 H   0  0  0  0  0  0  0  0  0  0  0  0
   -0.6606    1.0256    1.0799 H   0  0  0  0  0  0  0  0  0  0  0  0
    2.2585    0.1996    0.6602 H   0  0  0  0  0  0  0  0  0  0  0  0
    1.6689    1.8572    0.4957 H   0  0  0  0  0  0  0  0  0  0  0  0
    2.9780    1.5886    2.6940 H   0  0  0  0  0  0  0  0  0  0  0  0
    0.3949   -0.7362   -1.5112 N   0  0  0  0  0  0  0  0  0  0  0  0
    0.2775   -0.9726   -2.9311 C   0  0  2  0  0  0  0  0  0  0  0  0
    0.8654   -2.3455   -3.2295 C   0  0  0  0  0  0  0  0  0  0  0  0
    1.6784   -2.9013   -2.4938 O   0  0  0  0  0  0  0  0  0  0  0  0
    0.9863    0.1081   -3.7325 C   0  0  0  0  0  0  0  0  0  0  0  0
    0.9466   -1.3917   -0.9656 H   0  0  0  0  0  0  0  0  0  0  0  0
   -0.7930   -0.9747   -3.1639 H   0  0  0  0  0  0  0  0  0  0  0  0
    2.0600    0.1255   -3.5126 H   0  0  0  0  0  0  0  0  0  0  0  0
    0.8721   -0.0569   -4.8090 H   0  0  0  0  0  0  0  0  0  0  0  0
    0.5822    1.0980   -3.4945 H   0  0  0  0  0  0  0  0  0  0  0  0
    0.4083   -2.8581   -4.4355 N   0  0  0  0  0  0  0  0  0  0  0  0
    0.8298   -4.1413   -4.9471 C   0  0  0  0  0  0  0  0  0  0  0  0
   -0.2796   -2.3370   -4.9713 H   0  0  0  0  0  0  0  0  0  0  0  0
    1.6994   -4.0058   -5.6070 H   0  0  0  0  0  0  0  0  0  0  0  0
    1.1049   -4.7978   -4.1084 H   0  0  0  0  0  0  0  0  0  0  0  0
    0.0061   -4.5979   -5.5153 H   0  0  0  0  0  0  0  0  0  0  0  0
  1  3  1  0  0  0  0
  1  7  1  0  0  0  0
  1  2  2  0  0  0  0
 29 30  1  0  0  0  0
 30 38  1  0  0  0  0
 30 31  2  0  0  0  0
  8  9  1  0  0  0  0
  9 17  1  0  0  0  0
  9 10  2  0  0  0  0
 18 19  1  0  0  0  0
 19 28  1  0  0  0  0
 19 20  2  0  0  0  0
 29 32  1  0  0  0  0
  8 11  1  0  0  0  0
 38 39  1  0  0  0  0
 18 21  1  0  0  0  0
 21 22  1  0  0  0  0
 28 29  1  0  0  0  0
  7  8  1  0  0  0  0
 17 18  1  0  0  0  0
  3  4  1  0  0  0  0
  3  5  1  0  0  0  0
  3  6  1  0  0  0  0
 32 35  1  0  0  0  0
 32 36  1  0  0  0  0
 32 37  1  0  0  0  0
 11 14  1  0  0  0  0
 11 15  1  0  0  0  0
 11 16  1  0  0  0  0
 39 41  1  0  0  0  0
 39 42  1  0  0  0  0
 39 43  1  0  0  0  0
 21 25  1  0  0  0  0
 21 26  1  0  0  0  0
 29 34  1  0  0  0  0
  8 13  1  0  0  0  0
 18 24  1  0  0  0  0
 38 40  1  0  0  0  0
  7 12  1  0  0  0  0
 28 33  1  0  0  0  0
 17 23  1  0  0  0  0
 22 27  1  0  0  0  0
M  END
$$$$
