
  -OEChem-02062319063D

 43 42  0     1  0  0  0  0  0999 V2000
   -2.1964   -3.1924    2.8703 C   0  0  0  0  0  0  0  0  0  0  0  0
   -1.3724   -3.6545    3.6437 O   0  0  0  0  0  0  0  0  0  0  0  0
   -3.6502   -3.6154    2.9668 C   0  0  0  0  0  0  0  0  0  0  0  0
   -3.9632   -4.0886    2.0330 H   0  0  0  0  0  0  0  0  0  0  0  0
   -3.7823   -4.3288    3.7854 H   0  0  0  0  0  0  0  0  0  0  0  0
   -4.2807   -2.7429    3.1551 H   0  0  0  0  0  0  0  0  0  0  0  0
   -1.8126   -2.2734    1.9169 N   0  0  0  0  0  0  0  0  0  0  0  0
   -0.4829   -1.6521    1.8545 C   0  0  2  0  0  0  0  0  0  0  0  0
   -0.5770   -0.1460    1.5371 C   0  0  0  0  0  0  0  0  0  0  0  0
   -1.5750    0.3060    0.9889 O   0  0  0  0  0  0  0  0  0  0  0  0
    0.3326   -2.3747    0.7791 C   0  0  0  0  0  0  0  0  0  0  0  0
   -2.5540   -1.8190    1.3850 H   0  0  0  0  0  0  0  0  0  0  0  0
    0.0250   -1.7516    2.8197 H   0  0  0  0  0  0  0  0  0  0  0  0
   -0.1508   -2.2782   -0.1988 H   0  0  0  0  0  0  0  0  0  0  0  0
    1.3394   -1.9522    0.7099 H   0  0  0  0  0  0  0  0  0  0  0  0
    0.4203   -3.4383    1.0218 H   0  0  0  0  0  0  0  0  0  0  0  0
    0.4839    0.6980    1.8120 N   0  0  0  0  0  0  0  0  0  0  0  0
    0.4816    2.1475    1.5434 C   0  0  2  0  0  0  0  0  0  0  0  0
    0.2783    2.4908    0.0556 C   0  0  0  0  0  0  0  0  0  0  0  0
   -0.3387    3.4951   -0.2742 O   0  0  0  0  0  0  0  0  0  0  0  0
    1.8065    2.7538    2.0225 C   0  0  0  0  0  0  0  0  0  0  0  0
    2.1756    2.2495    3.7550 S   0  0  0  0  0  0  0  0  0  0  0  0
    1.2118    0.3356    2.4245 H   0  0  0  0  0  0  0  0  0  0  0  0
   -0.3405    2.6068    2.1036 H   0  0  0  0  0  0  0  0  0  0  0  0
    2.6242    2.4289    1.3706 H   0  0  0  0  0  0  0  0  0  0  0  0
    1.7456    3.8458    1.9619 H   0  0  0  0  0  0  0  0  0  0  0  0
    3.2898    2.9738    4.0036 H   0  0  0  0  0  0  0  0  0  0  0  0
    0.9859    1.7835   -0.8966 N   0  0  0  0  0  0  0  0  0  0  0  0
    0.6527    1.8123   -2.3236 C   0  0  2  0  0  0  0  0  0  0  0  0
    0.5871    0.3781   -2.8900 C   0  0  0  0  0  0  0  0  0  0  0  0
    1.0695   -0.5564   -2.2555 O   0  0  0  0  0  0  0  0  0  0  0  0
    1.7144    2.6408   -3.0498 C   0  0  0  0  0  0  0  0  0  0  0  0
    1.3662    0.8972   -0.5652 H   0  0  0  0  0  0  0  0  0  0  0  0
   -0.3305    2.2710   -2.4749 H   0  0  0  0  0  0  0  0  0  0  0  0
    2.7046    2.1921   -2.9220 H   0  0  0  0  0  0  0  0  0  0  0  0
    1.4920    2.6971   -4.1194 H   0  0  0  0  0  0  0  0  0  0  0  0
    1.7378    3.6587   -2.6477 H   0  0  0  0  0  0  0  0  0  0  0  0
   -0.0132    0.1323   -4.1107 N   0  0  0  0  0  0  0  0  0  0  0  0
   -0.1394   -1.2010   -4.6861 C   0  0  0  0  0  0  0  0  0  0  0  0
   -0.4446    0.9180   -4.5890 H   0  0  0  0  0  0  0  0  0  0  0  0
    0.8488   -1.6471   -4.8407 H   0  0  0  0  0  0  0  0  0  0  0  0
   -0.7202   -1.8507   -4.0229 H   0  0  0  0  0  0  0  0  0  0  0  0
   -0.6491   -1.1493   -5.6530 H   0  0  0  0  0  0  0  0  0  0  0  0
  1  2  2  0  0  0  0
  1  3  1  0  0  0  0
  1  7  1  0  0  0  0
  3  4  1  0  0  0  0
  3  5  1  0  0  0  0
  3  6  1  0  0  0  0
  7  8  1  0  0  0  0
  7 12  1  0  0  0  0
  8  9  1  0  0  0  0
  8 11  1  0  0  0  0
  8 13  1  0  0  0  0
  9 10  2  0  0  0  0
  9 17  1  0  0  0  0
 11 14  1  0  0  0  0
 11 15  1  0  0  0  0
 11 16  1  0  0  0  0
 17 18  1  0  0  0  0
 17 23  1  0  0  0  0
 18 19  1  0  0  0  0
 18 21  1  0  0  0  0
 18 24  1  0  0  0  0
 19 20  2  0  0  0  0
 19 28  1  0  0  0  0
 21 22  1  0  0  0  0
 21 25  1  0  0  0  0
 21 26  1  0  0  0  0
 22 27  1  0  0  0  0
 28 29  1  0  0  0  0
 28 33  1  0  0  0  0
 29 30  1  0  0  0  0
 29 32  1  0  0  0  0
 29 34  1  0  0  0  0
 30 31  2  0  0  0  0
 30 38  1  0  0  0  0
 32 35  1  0  0  0  0
 32 36  1  0  0  0  0
 32 37  1  0  0  0  0
 38 39  1  0  0  0  0
 38 40  1  0  0  0  0
 39 41  1  0  0  0  0
 39 42  1  0  0  0  0
 39 43  1  0  0  0  0
M  END
$$$$

  -OEChem-02062319063D

 43 42  0     1  0  0  0  0  0999 V2000
   -2.2863   -3.1955    2.5170 C   0  0  0  0  0  0  0  0  0  0  0  0
   -1.5077   -3.8013    3.2365 O   0  0  0  0  0  0  0  0  0  0  0  0
   -3.7417   -3.6178    2.4428 C   0  0  0  0  0  0  0  0  0  0  0  0
   -3.9992   -3.8903    1.4163 H   0  0  0  0  0  0  0  0  0  0  0  0
   -3.9173   -4.4809    3.0910 H   0  0  0  0  0  0  0  0  0  0  0  0
   -4.3858   -2.7969    2.7677 H   0  0  0  0  0  0  0  0  0  0  0  0
   -1.8464   -2.1189    1.7773 N   0  0  0  0  0  0  0  0  0  0  0  0
   -0.5042   -1.5324    1.8819 C   0  0  2  0  0  0  0  0  0  0  0  0
   -0.5191   -0.0199    1.5784 C   0  0  0  0  0  0  0  0  0  0  0  0
   -1.5311    0.5085    1.1332 O   0  0  0  0  0  0  0  0  0  0  0  0
    0.4226   -2.2594    0.9023 C   0  0  0  0  0  0  0  0  0  0  0  0
   -2.5500   -1.5660    1.2883 H   0  0  0  0  0  0  0  0  0  0  0  0
   -0.1249   -1.6595    2.9016 H   0  0  0  0  0  0  0  0  0  0  0  0
    0.0720   -2.1273   -0.1268 H   0  0  0  0  0  0  0  0  0  0  0  0
    1.4421   -1.8691    0.9746 H   0  0  0  0  0  0  0  0  0  0  0  0
    0.4481   -3.3300    1.1283 H   0  0  0  0  0  0  0  0  0  0  0  0
    0.5796    0.7649    1.8821 N   0  0  0  0  0  0  0  0  0  0  0  0
    0.5515    2.2384    1.9273 C   0  0  2  0  0  0  0  0  0  0  0  0
    0.1528    2.8835    0.5861 C   0  0  0  0  0  0  0  0  0  0  0  0
   -0.5027    3.9170    0.5612 O   0  0  0  0  0  0  0  0  0  0  0  0
    1.9339    2.7504    2.3497 C   0  0  0  0  0  0  0  0  0  0  0  0
    2.5055    1.9006    3.8811 S   0  0  0  0  0  0  0  0  0  0  0  0
    1.3163    0.3092    2.4175 H   0  0  0  0  0  0  0  0  0  0  0  0
   -0.1858    2.5537    2.6737 H   0  0  0  0  0  0  0  0  0  0  0  0
    2.6587    2.5759    1.5475 H   0  0  0  0  0  0  0  0  0  0  0  0
    1.8821    3.8306    2.5248 H   0  0  0  0  0  0  0  0  0  0  0  0
    3.6636    2.5554    4.1223 H   0  0  0  0  0  0  0  0  0  0  0  0
    0.7218    2.4061   -0.5780 N   0  0  0  0  0  0  0  0  0  0  0  0
    0.1639    2.6866   -1.9039 C   0  0  2  0  0  0  0  0  0  0  0  0
   -0.0180    1.3752   -2.6986 C   0  0  0  0  0  0  0  0  0  0  0  0
    0.5495    0.3493   -2.3322 O   0  0  0  0  0  0  0  0  0  0  0  0
    1.1118    3.6431   -2.6297 C   0  0  0  0  0  0  0  0  0  0  0  0
    1.1369    1.4790   -0.4835 H   0  0  0  0  0  0  0  0  0  0  0  0
   -0.8223    3.1552   -1.8127 H   0  0  0  0  0  0  0  0  0  0  0  0
    2.1008    3.1883   -2.7454 H   0  0  0  0  0  0  0  0  0  0  0  0
    0.7226    3.8908   -3.6217 H   0  0  0  0  0  0  0  0  0  0  0  0
    1.2188    4.5708   -2.0587 H   0  0  0  0  0  0  0  0  0  0  0  0
   -0.8180    1.3424   -3.8258 N   0  0  0  0  0  0  0  0  0  0  0  0
   -1.0760    0.1266   -4.5876 C   0  0  0  0  0  0  0  0  0  0  0  0
   -1.3257    2.1891   -4.0648 H   0  0  0  0  0  0  0  0  0  0  0  0
   -0.1355   -0.3231   -4.9233 H   0  0  0  0  0  0  0  0  0  0  0  0
   -1.6161   -0.6019   -3.9740 H   0  0  0  0  0  0  0  0  0  0  0  0
   -1.6820    0.3545   -5.4698 H   0  0  0  0  0  0  0  0  0  0  0  0
  1  2  2  0  0  0  0
  1  3  1  0  0  0  0
  1  7  1  0  0  0  0
  3  4  1  0  0  0  0
  3  5  1  0  0  0  0
  3  6  1  0  0  0  0
  7  8  1  0  0  0  0
  7 12  1  0  0  0  0
  8  9  1  0  0  0  0
  8 11  1  0  0  0  0
  8 13  1  0  0  0  0
  9 10  2  0  0  0  0
  9 17  1  0  0  0  0
 11 14  1  0  0  0  0
 11 15  1  0  0  0  0
 11 16  1  0  0  0  0
 17 18  1  0  0  0  0
 17 23  1  0  0  0  0
 18 19  1  0  0  0  0
 18 21  1  0  0  0  0
 18 24  1  0  0  0  0
 19 20  2  0  0  0  0
 19 28  1  0  0  0  0
 21 22  1  0  0  0  0
 21 25  1  0  0  0  0
 21 26  1  0  0  0  0
 22 27  1  0  0  0  0
 28 29  1  0  0  0  0
 28 33  1  0  0  0  0
 29 30  1  0  0  0  0
 29 32  1  0  0  0  0
 29 34  1  0  0  0  0
 30 31  2  0  0  0  0
 30 38  1  0  0  0  0
 32 35  1  0  0  0  0
 32 36  1  0  0  0  0
 32 37  1  0  0  0  0
 38 39  1  0  0  0  0
 38 40  1  0  0  0  0
 39 41  1  0  0  0  0
 39 42  1  0  0  0  0
 39 43  1  0  0  0  0
M  END
$$$$

  -OEChem-02062319063D

 43 42  0     1  0  0  0  0  0999 V2000
   -2.2838   -3.2187    2.8839 C   0  0  0  0  0  0  0  0  0  0  0  0
   -1.4275   -3.8346    3.4989 O   0  0  0  0  0  0  0  0  0  0  0  0
   -3.7487   -3.5744    3.0543 C   0  0  0  0  0  0  0  0  0  0  0  0
   -4.1628   -3.9139    2.1018 H   0  0  0  0  0  0  0  0  0  0  0  0
   -3.8592   -4.3742    3.7919 H   0  0  0  0  0  0  0  0  0  0  0  0
   -4.3084   -2.7004    3.3964 H   0  0  0  0  0  0  0  0  0  0  0  0
   -1.9218   -2.1920    2.0380 N   0  0  0  0  0  0  0  0  0  0  0  0
   -0.5568   -1.6653    1.9120 C   0  0  2  0  0  0  0  0  0  0  0  0
   -0.5534   -0.1570    1.5848 C   0  0  0  0  0  0  0  0  0  0  0  0
   -1.5948    0.3968    1.2541 O   0  0  0  0  0  0  0  0  0  0  0  0
    0.1656   -2.4505    0.8136 C   0  0  0  0  0  0  0  0  0  0  0  0
   -2.6704   -1.6215    1.6457 H   0  0  0  0  0  0  0  0  0  0  0  0
   -0.0231   -1.7957    2.8598 H   0  0  0  0  0  0  0  0  0  0  0  0
   -0.3491   -2.3292   -0.1452 H   0  0  0  0  0  0  0  0  0  0  0  0
    1.1960   -2.0996    0.7031 H   0  0  0  0  0  0  0  0  0  0  0  0
    0.1899   -3.5160    1.0636 H   0  0  0  0  0  0  0  0  0  0  0  0
    0.5648    0.6089    1.8629 N   0  0  0  0  0  0  0  0  0  0  0  0
    0.5020    2.0440    2.1983 C   0  0  2  0  0  0  0  0  0  0  0  0
   -0.1190    2.9364    1.1052 C   0  0  0  0  0  0  0  0  0  0  0  0
   -0.7569    3.9347    1.4151 O   0  0  0  0  0  0  0  0  0  0  0  0
    1.9204    2.5363    2.5073 C   0  0  0  0  0  0  0  0  0  0  0  0
    2.7253    1.4527    3.7616 S   0  0  0  0  0  0  0  0  0  0  0  0
    1.3431    0.0988    2.2771 H   0  0  0  0  0  0  0  0  0  0  0  0
   -0.1147    2.1633    3.0960 H   0  0  0  0  0  0  0  0  0  0  0  0
    2.5214    2.5413    1.5917 H   0  0  0  0  0  0  0  0  0  0  0  0
    1.8750    3.5644    2.8834 H   0  0  0  0  0  0  0  0  0  0  0  0
    3.8924    2.1072    3.9559 H   0  0  0  0  0  0  0  0  0  0  0  0
    0.2589    2.7544   -0.2108 N   0  0  0  0  0  0  0  0  0  0  0  0
   -0.3611    3.4508   -1.3418 C   0  0  2  0  0  0  0  0  0  0  0  0
   -0.4360    2.5337   -2.5812 C   0  0  0  0  0  0  0  0  0  0  0  0
    0.2209    1.4977   -2.6232 O   0  0  0  0  0  0  0  0  0  0  0  0
    0.4573    4.7094   -1.6445 C   0  0  0  0  0  0  0  0  0  0  0  0
    0.6699    1.8452   -0.4240 H   0  0  0  0  0  0  0  0  0  0  0  0
   -1.3861    3.7368   -1.0828 H   0  0  0  0  0  0  0  0  0  0  0  0
    1.4856    4.4420   -1.9074 H   0  0  0  0  0  0  0  0  0  0  0  0
    0.0165    5.2643   -2.4780 H   0  0  0  0  0  0  0  0  0  0  0  0
    0.4810    5.3650   -0.7681 H   0  0  0  0  0  0  0  0  0  0  0  0
   -1.2404    2.8687   -3.6549 N   0  0  0  0  0  0  0  0  0  0  0  0
   -1.3799    2.0326   -4.8410 C   0  0  0  0  0  0  0  0  0  0  0  0
   -1.8031    3.7107   -3.5763 H   0  0  0  0  0  0  0  0  0  0  0  0
   -0.4091    1.8929   -5.3279 H   0  0  0  0  0  0  0  0  0  0  0  0
   -1.7838    1.0507   -4.5728 H   0  0  0  0  0  0  0  0  0  0  0  0
   -2.0601    2.5025   -5.5576 H   0  0  0  0  0  0  0  0  0  0  0  0
  1  2  2  0  0  0  0
  1  3  1  0  0  0  0
  1  7  1  0  0  0  0
  3  4  1  0  0  0  0
  3  5  1  0  0  0  0
  3  6  1  0  0  0  0
  7  8  1  0  0  0  0
  7 12  1  0  0  0  0
  8  9  1  0  0  0  0
  8 11  1  0  0  0  0
  8 13  1  0  0  0  0
  9 10  2  0  0  0  0
  9 17  1  0  0  0  0
 11 14  1  0  0  0  0
 11 15  1  0  0  0  0
 11 16  1  0  0  0  0
 17 18  1  0  0  0  0
 17 23  1  0  0  0  0
 18 19  1  0  0  0  0
 18 21  1  0  0  0  0
 18 24  1  0  0  0  0
 19 20  2  0  0  0  0
 19 28  1  0  0  0  0
 21 22  1  0  0  0  0
 21 25  1  0  0  0  0
 21 26  1  0  0  0  0
 22 27  1  0  0  0  0
 28 29  1  0  0  0  0
 28 33  1  0  0  0  0
 29 30  1  0  0  0  0
 29 32  1  0  0  0  0
 29 34  1  0  0  0  0
 30 31  2  0  0  0  0
 30 38  1  0  0  0  0
 32 35  1  0  0  0  0
 32 36  1  0  0  0  0
 32 37  1  0  0  0  0
 38 39  1  0  0  0  0
 38 40  1  0  0  0  0
 39 41  1  0  0  0  0
 39 42  1  0  0  0  0
 39 43  1  0  0  0  0
M  END
$$$$

  -OEChem-02062319063D

 43 42  0     1  0  0  0  0  0999 V2000
   -2.3021   -3.1990    2.8259 C   0  0  0  0  0  0  0  0  0  0  0  0
   -1.4488   -3.8584    3.3985 O   0  0  0  0  0  0  0  0  0  0  0  0
   -3.7721   -3.5124    3.0305 C   0  0  0  0  0  0  0  0  0  0  0  0
   -4.2294   -3.7918    2.0783 H   0  0  0  0  0  0  0  0  0  0  0  0
   -3.8865   -4.3423    3.7336 H   0  0  0  0  0  0  0  0  0  0  0  0
   -4.2881   -2.6368    3.4319 H   0  0  0  0  0  0  0  0  0  0  0  0
   -1.9309   -2.1607    1.9986 N   0  0  0  0  0  0  0  0  0  0  0  0
   -0.5546   -1.6683    1.8585 C   0  0  2  0  0  0  0  0  0  0  0  0
   -0.5141   -0.1579    1.5413 C   0  0  0  0  0  0  0  0  0  0  0  0
   -1.5571    0.4322    1.2877 O   0  0  0  0  0  0  0  0  0  0  0  0
    0.1377   -2.4637    0.7475 C   0  0  0  0  0  0  0  0  0  0  0  0
   -2.6713   -1.5499    1.6537 H   0  0  0  0  0  0  0  0  0  0  0  0
   -0.0144   -1.8194    2.7996 H   0  0  0  0  0  0  0  0  0  0  0  0
   -0.3842   -2.3246   -0.2049 H   0  0  0  0  0  0  0  0  0  0  0  0
    1.1751   -2.1368    0.6282 H   0  0  0  0  0  0  0  0  0  0  0  0
    0.1399   -3.5313    0.9903 H   0  0  0  0  0  0  0  0  0  0  0  0
    0.6187    0.5736    1.8519 N   0  0  0  0  0  0  0  0  0  0  0  0
    0.5614    1.8974    2.5010 C   0  0  2  0  0  0  0  0  0  0  0  0
   -0.2021    2.9834    1.7167 C   0  0  0  0  0  0  0  0  0  0  0  0
   -0.8198    3.8526    2.3187 O   0  0  0  0  0  0  0  0  0  0  0  0
    1.9953    2.3723    2.7581 C   0  0  0  0  0  0  0  0  0  0  0  0
    2.9472    1.0818    3.6658 S   0  0  0  0  0  0  0  0  0  0  0  0
    1.4131    0.0044    2.1392 H   0  0  0  0  0  0  0  0  0  0  0  0
    0.0526    1.7888    3.4649 H   0  0  0  0  0  0  0  0  0  0  0  0
    2.4930    2.5929    1.8076 H   0  0  0  0  0  0  0  0  0  0  0  0
    1.9729    3.2959    3.3472 H   0  0  0  0  0  0  0  0  0  0  0  0
    4.1150    1.7288    3.8801 H   0  0  0  0  0  0  0  0  0  0  0  0
    0.0188    3.1211    0.3604 N   0  0  0  0  0  0  0  0  0  0  0  0
   -0.7323    4.0409   -0.4991 C   0  0  2  0  0  0  0  0  0  0  0  0
   -0.9326    3.4485   -1.9102 C   0  0  0  0  0  0  0  0  0  0  0  0
   -0.2503    2.5002   -2.2855 O   0  0  0  0  0  0  0  0  0  0  0  0
    0.0300    5.3668   -0.5742 C   0  0  0  0  0  0  0  0  0  0  0  0
    0.4075    2.2989   -0.1024 H   0  0  0  0  0  0  0  0  0  0  0  0
   -1.7257    4.2156   -0.0722 H   0  0  0  0  0  0  0  0  0  0  0  0
    1.0253    5.2111   -1.0028 H   0  0  0  0  0  0  0  0  0  0  0  0
   -0.5101    6.0861   -1.1970 H   0  0  0  0  0  0  0  0  0  0  0  0
    0.1444    5.7952    0.4266 H   0  0  0  0  0  0  0  0  0  0  0  0
   -1.8777    3.9836   -2.7663 N   0  0  0  0  0  0  0  0  0  0  0  0
   -2.1492    3.4464   -4.0942 C   0  0  0  0  0  0  0  0  0  0  0  0
   -2.4584    4.7379   -2.4120 H   0  0  0  0  0  0  0  0  0  0  0  0
   -1.2361    3.4351   -4.6989 H   0  0  0  0  0  0  0  0  0  0  0  0
   -2.5362    2.4245   -4.0216 H   0  0  0  0  0  0  0  0  0  0  0  0
   -2.8932    4.0634   -4.6072 H   0  0  0  0  0  0  0  0  0  0  0  0
  1  2  2  0  0  0  0
  1  3  1  0  0  0  0
  1  7  1  0  0  0  0
  3  4  1  0  0  0  0
  3  5  1  0  0  0  0
  3  6  1  0  0  0  0
  7  8  1  0  0  0  0
  7 12  1  0  0  0  0
  8  9  1  0  0  0  0
  8 11  1  0  0  0  0
  8 13  1  0  0  0  0
  9 10  2  0  0  0  0
  9 17  1  0  0  0  0
 11 14  1  0  0  0  0
 11 15  1  0  0  0  0
 11 16  1  0  0  0  0
 17 18  1  0  0  0  0
 17 23  1  0  0  0  0
 18 19  1  0  0  0  0
 18 21  1  0  0  0  0
 18 24  1  0  0  0  0
 19 20  2  0  0  0  0
 19 28  1  0  0  0  0
 21 22  1  0  0  0  0
 21 25  1  0  0  0  0
 21 26  1  0  0  0  0
 22 27  1  0  0  0  0
 28 29  1  0  0  0  0
 28 33  1  0  0  0  0
 29 30  1  0  0  0  0
 29 32  1  0  0  0  0
 29 34  1  0  0  0  0
 30 31  2  0  0  0  0
 30 38  1  0  0  0  0
 32 35  1  0  0  0  0
 32 36  1  0  0  0  0
 32 37  1  0  0  0  0
 38 39  1  0  0  0  0
 38 40  1  0  0  0  0
 39 41  1  0  0  0  0
 39 42  1  0  0  0  0
 39 43  1  0  0  0  0
M  END
$$$$

  -OEChem-02062319063D

 43 42  0     1  0  0  0  0  0999 V2000
   -2.3355   -3.1451    2.7829 C   0  0  0  0  0  0  0  0  0  0  0  0
   -1.4893   -3.8487    3.3120 O   0  0  0  0  0  0  0  0  0  0  0  0
   -3.8086   -3.4143    3.0250 C   0  0  0  0  0  0  0  0  0  0  0  0
   -4.3026   -3.6586    2.0813 H   0  0  0  0  0  0  0  0  0  0  0  0
   -3.9296   -4.2544    3.7146 H   0  0  0  0  0  0  0  0  0  0  0  0
   -4.2833   -2.5314    3.4603 H   0  0  0  0  0  0  0  0  0  0  0  0
   -1.9523   -2.0978    1.9723 N   0  0  0  0  0  0  0  0  0  0  0  0
   -0.5634   -1.6511    1.8035 C   0  0  2  0  0  0  0  0  0  0  0  0
   -0.4718   -0.1405    1.4970 C   0  0  0  0  0  0  0  0  0  0  0  0
   -1.5026    0.4940    1.3102 O   0  0  0  0  0  0  0  0  0  0  0  0
    0.0753   -2.4591    0.6700 C   0  0  0  0  0  0  0  0  0  0  0  0
   -2.6805   -1.4537    1.6639 H   0  0  0  0  0  0  0  0  0  0  0  0
   -0.0081   -1.8305    2.7308 H   0  0  0  0  0  0  0  0  0  0  0  0
   -0.4645   -2.2945   -0.2681 H   0  0  0  0  0  0  0  0  0  0  0  0
    1.1197   -2.1652    0.5282 H   0  0  0  0  0  0  0  0  0  0  0  0
    0.0483   -3.5283    0.9040 H   0  0  0  0  0  0  0  0  0  0  0  0
    0.6874    0.5435    1.8175 N   0  0  0  0  0  0  0  0  0  0  0  0
    0.6819    1.6856    2.7520 C   0  0  2  0  0  0  0  0  0  0  0  0
   -0.1931    2.8860    2.3364 C   0  0  0  0  0  0  0  0  0  0  0  0
   -0.7589    3.5530    3.1937 O   0  0  0  0  0  0  0  0  0  0  0  0
    2.1278    2.1544    2.9421 C   0  0  0  0  0  0  0  0  0  0  0  0
    3.1942    0.7421    3.4555 S   0  0  0  0  0  0  0  0  0  0  0  0
    1.4903   -0.0700    1.9476 H   0  0  0  0  0  0  0  0  0  0  0  0
    0.2988    1.3396    3.7185 H   0  0  0  0  0  0  0  0  0  0  0  0
    2.5082    2.5812    2.0078 H   0  0  0  0  0  0  0  0  0  0  0  0
    2.1604    2.9383    3.7069 H   0  0  0  0  0  0  0  0  0  0  0  0
    4.3783    1.3684    3.6385 H   0  0  0  0  0  0  0  0  0  0  0  0
   -0.1491    3.3435    1.0340 N   0  0  0  0  0  0  0  0  0  0  0  0
   -1.0193    4.4005    0.5092 C   0  0  2  0  0  0  0  0  0  0  0  0
   -1.3441    4.1651   -0.9813 C   0  0  0  0  0  0  0  0  0  0  0  0
   -0.6440    3.4178   -1.6571 O   0  0  0  0  0  0  0  0  0  0  0  0
   -0.3201    5.7503    0.6988 C   0  0  0  0  0  0  0  0  0  0  0  0
    0.1932    2.6690    0.3483 H   0  0  0  0  0  0  0  0  0  0  0  0
   -1.9678    4.4004    1.0572 H   0  0  0  0  0  0  0  0  0  0  0  0
    0.6334    5.7646    0.1615 H   0  0  0  0  0  0  0  0  0  0  0  0
   -0.9459    6.5641    0.3208 H   0  0  0  0  0  0  0  0  0  0  0  0
   -0.1245    5.9310    1.7604 H   0  0  0  0  0  0  0  0  0  0  0  0
   -2.4204    4.8013   -1.5726 N   0  0  0  0  0  0  0  0  0  0  0  0
   -2.8064    4.5947   -2.9634 C   0  0  0  0  0  0  0  0  0  0  0  0
   -3.0097    5.3767   -0.9783 H   0  0  0  0  0  0  0  0  0  0  0  0
   -1.9797    4.8537   -3.6338 H   0  0  0  0  0  0  0  0  0  0  0  0
   -3.0829    3.5485   -3.1326 H   0  0  0  0  0  0  0  0  0  0  0  0
   -3.6651    5.2248   -3.2153 H   0  0  0  0  0  0  0  0  0  0  0  0
  1  2  2  0  0  0  0
  1  3  1  0  0  0  0
  1  7  1  0  0  0  0
  3  4  1  0  0  0  0
  3  5  1  0  0  0  0
  3  6  1  0  0  0  0
  7  8  1  0  0  0  0
  7 12  1  0  0  0  0
  8  9  1  0  0  0  0
  8 11  1  0  0  0  0
  8 13  1  0  0  0  0
  9 10  2  0  0  0  0
  9 17  1  0  0  0  0
 11 14  1  0  0  0  0
 11 15  1  0  0  0  0
 11 16  1  0  0  0  0
 17 18  1  0  0  0  0
 17 23  1  0  0  0  0
 18 19  1  0  0  0  0
 18 21  1  0  0  0  0
 18 24  1  0  0  0  0
 19 20  2  0  0  0  0
 19 28  1  0  0  0  0
 21 22  1  0  0  0  0
 21 25  1  0  0  0  0
 21 26  1  0  0  0  0
 22 27  1  0  0  0  0
 28 29  1  0  0  0  0
 28 33  1  0  0  0  0
 29 30  1  0  0  0  0
 29 32  1  0  0  0  0
 29 34  1  0  0  0  0
 30 31  2  0  0  0  0
 30 38  1  0  0  0  0
 32 35  1  0  0  0  0
 32 36  1  0  0  0  0
 32 37  1  0  0  0  0
 38 39  1  0  0  0  0
 38 40  1  0  0  0  0
 39 41  1  0  0  0  0
 39 42  1  0  0  0  0
 39 43  1  0  0  0  0
M  END
$$$$

  -OEChem-02062319063D

 43 42  0     1  0  0  0  0  0999 V2000
   -2.3376   -3.0646    2.7980 C   0  0  0  0  0  0  0  0  0  0  0  0
   -1.4966   -3.8043    3.2840 O   0  0  0  0  0  0  0  0  0  0  0  0
   -3.8064   -3.2658    3.1189 C   0  0  0  0  0  0  0  0  0  0  0  0
   -4.3609   -3.4841    2.2030 H   0  0  0  0  0  0  0  0  0  0  0  0
   -3.9297   -4.1015    3.8134 H   0  0  0  0  0  0  0  0  0  0  0  0
   -4.2158   -2.3628    3.5784 H   0  0  0  0  0  0  0  0  0  0  0  0
   -1.9523   -2.0362    1.9649 N   0  0  0  0  0  0  0  0  0  0  0  0
   -0.5566   -1.6421    1.7341 C   0  0  2  0  0  0  0  0  0  0  0  0
   -0.4242   -0.1323    1.4381 C   0  0  0  0  0  0  0  0  0  0  0  0
   -1.4410    0.5390    1.3148 O   0  0  0  0  0  0  0  0  0  0  0  0
   -0.0028   -2.4600    0.5640 C   0  0  0  0  0  0  0  0  0  0  0  0
   -2.6664   -1.3570    1.7021 H   0  0  0  0  0  0  0  0  0  0  0  0
    0.0352   -1.8533    2.6318 H   0  0  0  0  0  0  0  0  0  0  0  0
   -0.5795   -2.2649   -0.3460 H   0  0  0  0  0  0  0  0  0  0  0  0
    1.0440   -2.2033    0.3761 H   0  0  0  0  0  0  0  0  0  0  0  0
   -0.0591   -3.5299    0.7889 H   0  0  0  0  0  0  0  0  0  0  0  0
    0.7558    0.5148    1.7556 N   0  0  0  0  0  0  0  0  0  0  0  0
    0.8254    1.4103    2.9257 C   0  0  2  0  0  0  0  0  0  0  0  0
   -0.1316    2.6203    2.9027 C   0  0  0  0  0  0  0  0  0  0  0  0
   -0.6300    3.0193    3.9477 O   0  0  0  0  0  0  0  0  0  0  0  0
    2.2686    1.9051    3.0578 C   0  0  0  0  0  0  0  0  0  0  0  0
    3.4267    0.4735    3.1287 S   0  0  0  0  0  0  0  0  0  0  0  0
    1.5644   -0.1029    1.7038 H   0  0  0  0  0  0  0  0  0  0  0  0
    0.5749    0.8318    3.8218 H   0  0  0  0  0  0  0  0  0  0  0  0
    2.5243    2.5434    2.2052 H   0  0  0  0  0  0  0  0  0  0  0  0
    2.3687    2.5054    3.9688 H   0  0  0  0  0  0  0  0  0  0  0  0
    4.6084    1.1065    3.3081 H   0  0  0  0  0  0  0  0  0  0  0  0
   -0.2629    3.3696    1.7497 N   0  0  0  0  0  0  0  0  0  0  0  0
   -1.2204    4.4691    1.5916 C   0  0  2  0  0  0  0  0  0  0  0  0
   -1.6698    4.6180    0.1222 C   0  0  0  0  0  0  0  0  0  0  0  0
   -1.0070    4.1221   -0.7829 O   0  0  0  0  0  0  0  0  0  0  0  0
   -0.5681    5.7666    2.0801 C   0  0  0  0  0  0  0  0  0  0  0  0
    0.0144    2.8940    0.8895 H   0  0  0  0  0  0  0  0  0  0  0  0
   -2.1137    4.2623    2.1905 H   0  0  0  0  0  0  0  0  0  0  0  0
    0.3249    5.9912    1.4883 H   0  0  0  0  0  0  0  0  0  0  0  0
   -1.2660    6.6043    1.9901 H   0  0  0  0  0  0  0  0  0  0  0  0
   -0.2757    5.6749    3.1308 H   0  0  0  0  0  0  0  0  0  0  0  0
   -2.8130    5.3308   -0.1908 N   0  0  0  0  0  0  0  0  0  0  0  0
   -3.3011    5.5017   -1.5541 C   0  0  0  0  0  0  0  0  0  0  0  0
   -3.3597    5.7042    0.5794 H   0  0  0  0  0  0  0  0  0  0  0  0
   -2.5409    5.9861   -2.1759 H   0  0  0  0  0  0  0  0  0  0  0  0
   -3.5516    4.5315   -1.9957 H   0  0  0  0  0  0  0  0  0  0  0  0
   -4.1991    6.1270   -1.5590 H   0  0  0  0  0  0  0  0  0  0  0  0
  1  2  2  0  0  0  0
  1  3  1  0  0  0  0
  1  7  1  0  0  0  0
  3  4  1  0  0  0  0
  3  5  1  0  0  0  0
  3  6  1  0  0  0  0
  7  8  1  0  0  0  0
  7 12  1  0  0  0  0
  8  9  1  0  0  0  0
  8 11  1  0  0  0  0
  8 13  1  0  0  0  0
  9 10  2  0  0  0  0
  9 17  1  0  0  0  0
 11 14  1  0  0  0  0
 11 15  1  0  0  0  0
 11 16  1  0  0  0  0
 17 18  1  0  0  0  0
 17 23  1  0  0  0  0
 18 19  1  0  0  0  0
 18 21  1  0  0  0  0
 18 24  1  0  0  0  0
 19 20  2  0  0  0  0
 19 28  1  0  0  0  0
 21 22  1  0  0  0  0
 21 25  1  0  0  0  0
 21 26  1  0  0  0  0
 22 27  1  0  0  0  0
 28 29  1  0  0  0  0
 28 33  1  0  0  0  0
 29 30  1  0  0  0  0
 29 32  1  0  0  0  0
 29 34  1  0  0  0  0
 30 31  2  0  0  0  0
 30 38  1  0  0  0  0
 32 35  1  0  0  0  0
 32 36  1  0  0  0  0
 32 37  1  0  0  0  0
 38 39  1  0  0  0  0
 38 40  1  0  0  0  0
 39 41  1  0  0  0  0
 39 42  1  0  0  0  0
 39 43  1  0  0  0  0
M  END
$$$$

  -OEChem-02062319063D

 43 42  0     1  0  0  0  0  0999 V2000
   -2.3662   -2.9782    2.8082 C   0  0  0  0  0  0  0  0  0  0  0  0
   -1.5383   -3.7519    3.2627 O   0  0  0  0  0  0  0  0  0  0  0  0
   -3.8317   -3.1339    3.1678 C   0  0  0  0  0  0  0  0  0  0  0  0
   -4.4201   -3.3111    2.2644 H   0  0  0  0  0  0  0  0  0  0  0  0
   -3.9650   -3.9802    3.8479 H   0  0  0  0  0  0  0  0  0  0  0  0
   -4.1943   -2.2277    3.6590 H   0  0  0  0  0  0  0  0  0  0  0  0
   -1.9675   -1.9552    1.9742 N   0  0  0  0  0  0  0  0  0  0  0  0
   -0.5652   -1.6086    1.7094 C   0  0  2  0  0  0  0  0  0  0  0  0
   -0.3895   -0.1044    1.4060 C   0  0  0  0  0  0  0  0  0  0  0  0
   -1.3825    0.6072    1.3230 O   0  0  0  0  0  0  0  0  0  0  0  0
   -0.0646   -2.4476    0.5302 C   0  0  0  0  0  0  0  0  0  0  0  0
   -2.6641   -1.2492    1.7369 H   0  0  0  0  0  0  0  0  0  0  0  0
    0.0394   -1.8382    2.5937 H   0  0  0  0  0  0  0  0  0  0  0  0
   -0.6554   -2.2372   -0.3672 H   0  0  0  0  0  0  0  0  0  0  0  0
    0.9857   -2.2257    0.3179 H   0  0  0  0  0  0  0  0  0  0  0  0
   -0.1499   -3.5146    0.7602 H   0  0  0  0  0  0  0  0  0  0  0  0
    0.8137    0.5118    1.6904 N   0  0  0  0  0  0  0  0  0  0  0  0
    1.0057    1.1243    3.0175 C   0  0  2  0  0  0  0  0  0  0  0  0
    0.0167    2.2517    3.3792 C   0  0  0  0  0  0  0  0  0  0  0  0
   -0.3723    2.3651    4.5345 O   0  0  0  0  0  0  0  0  0  0  0  0
    2.4379    1.6607    3.0882 C   0  0  0  0  0  0  0  0  0  0  0  0
    3.6375    0.3103    2.7243 S   0  0  0  0  0  0  0  0  0  0  0  0
    1.6093   -0.0741    1.4424 H   0  0  0  0  0  0  0  0  0  0  0  0
    0.8890    0.3495    3.7833 H   0  0  0  0  0  0  0  0  0  0  0  0
    2.5684    2.4742    2.3662 H   0  0  0  0  0  0  0  0  0  0  0  0
    2.6295    2.0647    4.0884 H   0  0  0  0  0  0  0  0  0  0  0  0
    4.8111    0.9673    2.8656 H   0  0  0  0  0  0  0  0  0  0  0  0
   -0.2835    3.2314    2.4534 N   0  0  0  0  0  0  0  0  0  0  0  0
   -1.2660    4.2979    2.6732 C   0  0  2  0  0  0  0  0  0  0  0  0
   -1.8704    4.7939    1.3424 C   0  0  0  0  0  0  0  0  0  0  0  0
   -1.2764    4.6134    0.2849 O   0  0  0  0  0  0  0  0  0  0  0  0
   -0.5811    5.4583    3.4034 C   0  0  0  0  0  0  0  0  0  0  0  0
   -0.1061    2.9786    1.4794 H   0  0  0  0  0  0  0  0  0  0  0  0
   -2.0871    3.9133    3.2873 H   0  0  0  0  0  0  0  0  0  0  0  0
    0.2446    5.8521    2.8022 H   0  0  0  0  0  0  0  0  0  0  0  0
   -1.2933    6.2675    3.5905 H   0  0  0  0  0  0  0  0  0  0  0  0
   -0.1820    5.1230    4.3657 H   0  0  0  0  0  0  0  0  0  0  0  0
   -3.0734    5.4765    1.3342 N   0  0  0  0  0  0  0  0  0  0  0  0
   -3.6986    5.9818    0.1179 C   0  0  0  0  0  0  0  0  0  0  0  0
   -3.5598    5.5830    2.2195 H   0  0  0  0  0  0  0  0  0  0  0  0
   -3.0178    6.6568   -0.4116 H   0  0  0  0  0  0  0  0  0  0  0  0
   -3.9637    5.1544   -0.5485 H   0  0  0  0  0  0  0  0  0  0  0  0
   -4.6100    6.5355    0.3629 H   0  0  0  0  0  0  0  0  0  0  0  0
  1  2  2  0  0  0  0
  1  3  1  0  0  0  0
  1  7  1  0  0  0  0
  3  4  1  0  0  0  0
  3  5  1  0  0  0  0
  3  6  1  0  0  0  0
  7  8  1  0  0  0  0
  7 12  1  0  0  0  0
  8  9  1  0  0  0  0
  8 11  1  0  0  0  0
  8 13  1  0  0  0  0
  9 10  2  0  0  0  0
  9 17  1  0  0  0  0
 11 14  1  0  0  0  0
 11 15  1  0  0  0  0
 11 16  1  0  0  0  0
 17 18  1  0  0  0  0
 17 23  1  0  0  0  0
 18 19  1  0  0  0  0
 18 21  1  0  0  0  0
 18 24  1  0  0  0  0
 19 20  2  0  0  0  0
 19 28  1  0  0  0  0
 21 22  1  0  0  0  0
 21 25  1  0  0  0  0
 21 26  1  0  0  0  0
 22 27  1  0  0  0  0
 28 29  1  0  0  0  0
 28 33  1  0  0  0  0
 29 30  1  0  0  0  0
 29 32  1  0  0  0  0
 29 34  1  0  0  0  0
 30 31  2  0  0  0  0
 30 38  1  0  0  0  0
 32 35  1  0  0  0  0
 32 36  1  0  0  0  0
 32 37  1  0  0  0  0
 38 39  1  0  0  0  0
 38 40  1  0  0  0  0
 39 41  1  0  0  0  0
 39 42  1  0  0  0  0
 39 43  1  0  0  0  0
M  END
$$$$

  -OEChem-02062319063D

 43 42  0     1  0  0  0  0  0999 V2000
   -2.7159   -2.8362    2.8240 C   0  0  0  0  0  0  0  0  0  0  0  0
   -2.0971   -3.3868    3.7203 O   0  0  0  0  0  0  0  0  0  0  0  0
   -4.2137   -3.0412    2.6957 C   0  0  0  0  0  0  0  0  0  0  0  0
   -4.4483   -3.4800    1.7226 H   0  0  0  0  0  0  0  0  0  0  0  0
   -4.5715   -3.7125    3.4814 H   0  0  0  0  0  0  0  0  0  0  0  0
   -4.7302   -2.0829    2.7899 H   0  0  0  0  0  0  0  0  0  0  0  0
   -2.0608   -2.0156    1.9307 N   0  0  0  0  0  0  0  0  0  0  0  0
   -0.6534   -1.6116    2.0493 C   0  0  2  0  0  0  0  0  0  0  0  0
   -0.4591   -0.1389    1.6286 C   0  0  0  0  0  0  0  0  0  0  0  0
   -1.2723    0.4221    0.9095 O   0  0  0  0  0  0  0  0  0  0  0  0
    0.1896   -2.5473    1.1778 C   0  0  0  0  0  0  0  0  0  0  0  0
   -2.6345   -1.4922    1.2707 H   0  0  0  0  0  0  0  0  0  0  0  0
   -0.3233   -1.6992    3.0899 H   0  0  0  0  0  0  0  0  0  0  0  0
   -0.1070   -2.4644    0.1274 H   0  0  0  0  0  0  0  0  0  0  0  0
    1.2517   -2.2961    1.2616 H   0  0  0  0  0  0  0  0  0  0  0  0
    0.0549   -3.5849    1.4992 H   0  0  0  0  0  0  0  0  0  0  0  0
    0.7664    0.4785    1.6453 N   0  0  0  0  0  0  0  0  0  0  0  0
    1.3338    0.8672    2.9465 C   0  0  2  0  0  0  0  0  0  0  0  0
    0.4511    1.8608    3.7292 C   0  0  0  0  0  0  0  0  0  0  0  0
    0.2863    1.7037    4.9296 O   0  0  0  0  0  0  0  0  0  0  0  0
    2.7208    1.4847    2.7327 C   0  0  0  0  0  0  0  0  0  0  0  0
    3.8518    0.2733    1.9323 S   0  0  0  0  0  0  0  0  0  0  0  0
    0.8038    1.1979    0.9277 H   0  0  0  0  0  0  0  0  0  0  0  0
    1.4544   -0.0268    3.5689 H   0  0  0  0  0  0  0  0  0  0  0  0
    2.6419    2.3815    2.1093 H   0  0  0  0  0  0  0  0  0  0  0  0
    3.1397    1.7835    3.7000 H   0  0  0  0  0  0  0  0  0  0  0  0
    4.9969    0.9877    1.8617 H   0  0  0  0  0  0  0  0  0  0  0  0
   -0.1189    2.9522    3.1015 N   0  0  0  0  0  0  0  0  0  0  0  0
   -1.0473    3.8905    3.7432 C   0  0  2  0  0  0  0  0  0  0  0  0
   -1.9338    4.5965    2.6963 C   0  0  0  0  0  0  0  0  0  0  0  0
   -1.5835    4.6316    1.5217 O   0  0  0  0  0  0  0  0  0  0  0  0
   -0.2425    4.9277    4.5340 C   0  0  0  0  0  0  0  0  0  0  0  0
   -0.0928    2.9757    2.0815 H   0  0  0  0  0  0  0  0  0  0  0  0
   -1.7076    3.3433    4.4244 H   0  0  0  0  0  0  0  0  0  0  0  0
    0.4271    5.4805    3.8670 H   0  0  0  0  0  0  0  0  0  0  0  0
   -0.9127    5.6405    5.0239 H   0  0  0  0  0  0  0  0  0  0  0  0
    0.3602    4.4380    5.3053 H   0  0  0  0  0  0  0  0  0  0  0  0
   -3.1213    5.1975    3.0711 N   0  0  0  0  0  0  0  0  0  0  0  0
   -4.0084    5.8672    2.1278 C   0  0  0  0  0  0  0  0  0  0  0  0
   -3.3953    5.1353    4.0472 H   0  0  0  0  0  0  0  0  0  0  0  0
   -3.4958    6.7109    1.6538 H   0  0  0  0  0  0  0  0  0  0  0  0
   -4.3355    5.1706    1.3485 H   0  0  0  0  0  0  0  0  0  0  0  0
   -4.8945    6.2472    2.6453 H   0  0  0  0  0  0  0  0  0  0  0  0
  1  2  2  0  0  0  0
  1  3  1  0  0  0  0
  1  7  1  0  0  0  0
  3  4  1  0  0  0  0
  3  5  1  0  0  0  0
  3  6  1  0  0  0  0
  7  8  1  0  0  0  0
  7 12  1  0  0  0  0
  8  9  1  0  0  0  0
  8 11  1  0  0  0  0
  8 13  1  0  0  0  0
  9 10  2  0  0  0  0
  9 17  1  0  0  0  0
 11 14  1  0  0  0  0
 11 15  1  0  0  0  0
 11 16  1  0  0  0  0
 17 18  1  0  0  0  0
 17 23  1  0  0  0  0
 18 19  1  0  0  0  0
 18 21  1  0  0  0  0
 18 24  1  0  0  0  0
 19 20  2  0  0  0  0
 19 28  1  0  0  0  0
 21 22  1  0  0  0  0
 21 25  1  0  0  0  0
 21 26  1  0  0  0  0
 22 27  1  0  0  0  0
 28 29  1  0  0  0  0
 28 33  1  0  0  0  0
 29 30  1  0  0  0  0
 29 32  1  0  0  0  0
 29 34  1  0  0  0  0
 30 31  2  0  0  0  0
 30 38  1  0  0  0  0
 32 35  1  0  0  0  0
 32 36  1  0  0  0  0
 32 37  1  0  0  0  0
 38 39  1  0  0  0  0
 38 40  1  0  0  0  0
 39 41  1  0  0  0  0
 39 42  1  0  0  0  0
 39 43  1  0  0  0  0
M  END
$$$$

  -OEChem-02062319063D

 43 42  0     1  0  0  0  0  0999 V2000
   -2.7535   -2.9185    2.7828 C   0  0  0  0  0  0  0  0  0  0  0  0
   -2.1239   -3.5159    3.6409 O   0  0  0  0  0  0  0  0  0  0  0  0
   -4.2480   -3.1402    2.6431 C   0  0  0  0  0  0  0  0  0  0  0  0
   -4.4756   -3.5412    1.6524 H   0  0  0  0  0  0  0  0  0  0  0  0
   -4.5960   -3.8495    3.3993 H   0  0  0  0  0  0  0  0  0  0  0  0
   -4.7794   -2.1948    2.7768 H   0  0  0  0  0  0  0  0  0  0  0  0
   -2.1133   -2.0277    1.9477 N   0  0  0  0  0  0  0  0  0  0  0  0
   -0.7114   -1.6130    2.0901 C   0  0  2  0  0  0  0  0  0  0  0  0
   -0.5187   -0.1455    1.6467 C   0  0  0  0  0  0  0  0  0  0  0  0
   -1.3630    0.4236    0.9712 O   0  0  0  0  0  0  0  0  0  0  0  0
    0.1597   -2.5573    1.2550 C   0  0  0  0  0  0  0  0  0  0  0  0
   -2.6939   -1.4730    1.3196 H   0  0  0  0  0  0  0  0  0  0  0  0
   -0.4099   -1.6808    3.1412 H   0  0  0  0  0  0  0  0  0  0  0  0
   -0.1125   -2.4938    0.1968 H   0  0  0  0  0  0  0  0  0  0  0  0
    1.2179   -2.2975    1.3589 H   0  0  0  0  0  0  0  0  0  0  0  0
    0.0257   -3.5910    1.5890 H   0  0  0  0  0  0  0  0  0  0  0  0
    0.7017    0.4846    1.6423 N   0  0  0  0  0  0  0  0  0  0  0  0
    1.4633    0.6207    2.8942 C   0  0  2  0  0  0  0  0  0  0  0  0
    0.7122    1.4117    3.9831 C   0  0  0  0  0  0  0  0  0  0  0  0
    0.7231    1.0084    5.1361 O   0  0  0  0  0  0  0  0  0  0  0  0
    2.8011    1.3125    2.6062 C   0  0  0  0  0  0  0  0  0  0  0  0
    3.7928    0.3297    1.4074 S   0  0  0  0  0  0  0  0  0  0  0  0
    0.6964    1.2913    1.0231 H   0  0  0  0  0  0  0  0  0  0  0  0
    1.6793   -0.3755    3.2962 H   0  0  0  0  0  0  0  0  0  0  0  0
    2.6280    2.3167    2.2052 H   0  0  0  0  0  0  0  0  0  0  0  0
    3.3654    1.4171    3.5396 H   0  0  0  0  0  0  0  0  0  0  0  0
    4.9224    1.0676    1.3309 H   0  0  0  0  0  0  0  0  0  0  0  0
    0.0553    2.5890    3.6806 N   0  0  0  0  0  0  0  0  0  0  0  0
   -0.7637    3.3553    4.6280 C   0  0  2  0  0  0  0  0  0  0  0  0
   -1.7988    4.2249    3.8839 C   0  0  0  0  0  0  0  0  0  0  0  0
   -1.6459    4.4695    2.6923 O   0  0  0  0  0  0  0  0  0  0  0  0
    0.1540    4.2380    5.4811 C   0  0  0  0  0  0  0  0  0  0  0  0
   -0.0593    2.8256    2.6942 H   0  0  0  0  0  0  0  0  0  0  0  0
   -1.3128    2.6663    5.2787 H   0  0  0  0  0  0  0  0  0  0  0  0
    0.7158    4.9308    4.8465 H   0  0  0  0  0  0  0  0  0  0  0  0
   -0.4321    4.8196    6.1989 H   0  0  0  0  0  0  0  0  0  0  0  0
    0.8654    3.6219    6.0398 H   0  0  0  0  0  0  0  0  0  0  0  0
   -2.9042    4.7277    4.5448 N   0  0  0  0  0  0  0  0  0  0  0  0
   -3.9342    5.5226    3.8867 C   0  0  0  0  0  0  0  0  0  0  0  0
   -3.0208    4.4841    5.5239 H   0  0  0  0  0  0  0  0  0  0  0  0
   -3.4982    6.4229    3.4413 H   0  0  0  0  0  0  0  0  0  0  0  0
   -4.4219    4.9403    3.0978 H   0  0  0  0  0  0  0  0  0  0  0  0
   -4.6954    5.8302    4.6100 H   0  0  0  0  0  0  0  0  0  0  0  0
  1  2  2  0  0  0  0
  1  3  1  0  0  0  0
  1  7  1  0  0  0  0
  3  4  1  0  0  0  0
  3  5  1  0  0  0  0
  3  6  1  0  0  0  0
  7  8  1  0  0  0  0
  7 12  1  0  0  0  0
  8  9  1  0  0  0  0
  8 11  1  0  0  0  0
  8 13  1  0  0  0  0
  9 10  2  0  0  0  0
  9 17  1  0  0  0  0
 11 14  1  0  0  0  0
 11 15  1  0  0  0  0
 11 16  1  0  0  0  0
 17 18  1  0  0  0  0
 17 23  1  0  0  0  0
 18 19  1  0  0  0  0
 18 21  1  0  0  0  0
 18 24  1  0  0  0  0
 19 20  2  0  0  0  0
 19 28  1  0  0  0  0
 21 22  1  0  0  0  0
 21 25  1  0  0  0  0
 21 26  1  0  0  0  0
 22 27  1  0  0  0  0
 28 29  1  0  0  0  0
 28 33  1  0  0  0  0
 29 30  1  0  0  0  0
 29 32  1  0  0  0  0
 29 34  1  0  0  0  0
 30 31  2  0  0  0  0
 30 38  1  0  0  0  0
 32 35  1  0  0  0  0
 32 36  1  0  0  0  0
 32 37  1  0  0  0  0
 38 39  1  0  0  0  0
 38 40  1  0  0  0  0
 39 41  1  0  0  0  0
 39 42  1  0  0  0  0
 39 43  1  0  0  0  0
M  END
$$$$

  -OEChem-02062319063D

 43 42  0     1  0  0  0  0  0999 V2000
   -2.8015   -2.9140    2.7766 C   0  0  0  0  0  0  0  0  0  0  0  0
   -2.1671   -3.5409    3.6096 O   0  0  0  0  0  0  0  0  0  0  0  0
   -4.2948   -3.1369    2.6301 C   0  0  0  0  0  0  0  0  0  0  0  0
   -4.5194   -3.5071    1.6267 H   0  0  0  0  0  0  0  0  0  0  0  0
   -4.6398   -3.8719    3.3627 H   0  0  0  0  0  0  0  0  0  0  0  0
   -4.8301   -2.1983    2.7936 H   0  0  0  0  0  0  0  0  0  0  0  0
   -2.1652   -1.9979    1.9671 N   0  0  0  0  0  0  0  0  0  0  0  0
   -0.7505   -1.6210    2.0812 C   0  0  2  0  0  0  0  0  0  0  0  0
   -0.5293   -0.1582    1.6328 C   0  0  0  0  0  0  0  0  0  0  0  0
   -1.3783    0.4375    0.9866 O   0  0  0  0  0  0  0  0  0  0  0  0
    0.0724   -2.5879    1.2233 C   0  0  0  0  0  0  0  0  0  0  0  0
   -2.7457   -1.4271    1.3536 H   0  0  0  0  0  0  0  0  0  0  0  0
   -0.4299   -1.7005    3.1256 H   0  0  0  0  0  0  0  0  0  0  0  0
   -0.2337   -2.5234    0.1743 H   0  0  0  0  0  0  0  0  0  0  0  0
    1.1387   -2.3523    1.2897 H   0  0  0  0  0  0  0  0  0  0  0  0
   -0.0734   -3.6169    1.5672 H   0  0  0  0  0  0  0  0  0  0  0  0
    0.6923    0.4719    1.6525 N   0  0  0  0  0  0  0  0  0  0  0  0
    1.6099    0.3716    2.7986 C   0  0  2  0  0  0  0  0  0  0  0  0
    1.0077    0.9055    4.1122 C   0  0  0  0  0  0  0  0  0  0  0  0
    1.1818    0.2849    5.1497 O   0  0  0  0  0  0  0  0  0  0  0  0
    2.8981    1.1431    2.4884 C   0  0  0  0  0  0  0  0  0  0  0  0
    3.7136    0.4630    0.9857 S   0  0  0  0  0  0  0  0  0  0  0  0
    0.6922    1.3378    1.1188 H   0  0  0  0  0  0  0  0  0  0  0  0
    1.8772   -0.6784    2.9586 H   0  0  0  0  0  0  0  0  0  0  0  0
    2.6750    2.2044    2.3372 H   0  0  0  0  0  0  0  0  0  0  0  0
    3.5846    1.0624    3.3384 H   0  0  0  0  0  0  0  0  0  0  0  0
    4.8205    1.2347    0.9124 H   0  0  0  0  0  0  0  0  0  0  0  0
    0.3174    2.1017    4.1435 N   0  0  0  0  0  0  0  0  0  0  0  0
   -0.3672    2.6358    5.3278 C   0  0  2  0  0  0  0  0  0  0  0  0
   -1.5384    3.5559    4.9248 C   0  0  0  0  0  0  0  0  0  0  0  0
   -1.6020    3.9977    3.7829 O   0  0  0  0  0  0  0  0  0  0  0  0
    0.6471    3.4079    6.1781 C   0  0  0  0  0  0  0  0  0  0  0  0
    0.0653    2.5236    3.2486 H   0  0  0  0  0  0  0  0  0  0  0  0
   -0.7816    1.8104    5.9167 H   0  0  0  0  0  0  0  0  0  0  0  0
    1.0711    4.2393    5.6058 H   0  0  0  0  0  0  0  0  0  0  0  0
    0.1683    3.8114    7.0753 H   0  0  0  0  0  0  0  0  0  0  0  0
    1.4628    2.7488    6.4915 H   0  0  0  0  0  0  0  0  0  0  0  0
   -2.5242    3.8836    5.8371 N   0  0  0  0  0  0  0  0  0  0  0  0
   -3.6743    4.7161    5.5047 C   0  0  0  0  0  0  0  0  0  0  0  0
   -2.4654    3.4729    6.7644 H   0  0  0  0  0  0  0  0  0  0  0  0
   -3.3471    5.6903    5.1258 H   0  0  0  0  0  0  0  0  0  0  0  0
   -4.2902    4.2302    4.7406 H   0  0  0  0  0  0  0  0  0  0  0  0
   -4.2910    4.8823    6.3933 H   0  0  0  0  0  0  0  0  0  0  0  0
  1  2  2  0  0  0  0
  1  3  1  0  0  0  0
  1  7  1  0  0  0  0
  3  4  1  0  0  0  0
  3  5  1  0  0  0  0
  3  6  1  0  0  0  0
  7  8  1  0  0  0  0
  7 12  1  0  0  0  0
  8  9  1  0  0  0  0
  8 11  1  0  0  0  0
  8 13  1  0  0  0  0
  9 10  2  0  0  0  0
  9 17  1  0  0  0  0
 11 14  1  0  0  0  0
 11 15  1  0  0  0  0
 11 16  1  0  0  0  0
 17 18  1  0  0  0  0
 17 23  1  0  0  0  0
 18 19  1  0  0  0  0
 18 21  1  0  0  0  0
 18 24  1  0  0  0  0
 19 20  2  0  0  0  0
 19 28  1  0  0  0  0
 21 22  1  0  0  0  0
 21 25  1  0  0  0  0
 21 26  1  0  0  0  0
 22 27  1  0  0  0  0
 28 29  1  0  0  0  0
 28 33  1  0  0  0  0
 29 30  1  0  0  0  0
 29 32  1  0  0  0  0
 29 34  1  0  0  0  0
 30 31  2  0  0  0  0
 30 38  1  0  0  0  0
 32 35  1  0  0  0  0
 32 36  1  0  0  0  0
 32 37  1  0  0  0  0
 38 39  1  0  0  0  0
 38 40  1  0  0  0  0
 39 41  1  0  0  0  0
 39 42  1  0  0  0  0
 39 43  1  0  0  0  0
M  END
$$$$

  -OEChem-02062319063D

 43 42  0     1  0  0  0  0  0999 V2000
   -2.8092   -2.8216    2.8604 C   0  0  0  0  0  0  0  0  0  0  0  0
   -2.1603   -3.4495    3.6815 O   0  0  0  0  0  0  0  0  0  0  0  0
   -4.3194   -2.9589    2.8184 C   0  0  0  0  0  0  0  0  0  0  0  0
   -4.6336   -3.3186    1.8355 H   0  0  0  0  0  0  0  0  0  0  0  0
   -4.6545   -3.6707    3.5781 H   0  0  0  0  0  0  0  0  0  0  0  0
   -4.7873   -1.9903    3.0112 H   0  0  0  0  0  0  0  0  0  0  0  0
   -2.1753   -1.9803    1.9718 N   0  0  0  0  0  0  0  0  0  0  0  0
   -0.7411   -1.6649    1.9953 C   0  0  2  0  0  0  0  0  0  0  0  0
   -0.4938   -0.2014    1.5629 C   0  0  0  0  0  0  0  0  0  0  0  0
   -1.3452    0.4242    0.9487 O   0  0  0  0  0  0  0  0  0  0  0  0
   -0.0289   -2.6425    1.0550 C   0  0  0  0  0  0  0  0  0  0  0  0
   -2.7633   -1.3955    1.3788 H   0  0  0  0  0  0  0  0  0  0  0  0
   -0.3480   -1.7876    3.0101 H   0  0  0  0  0  0  0  0  0  0  0  0
   -0.4118   -2.5401    0.0348 H   0  0  0  0  0  0  0  0  0  0  0  0
    1.0482   -2.4531    1.0414 H   0  0  0  0  0  0  0  0  0  0  0  0
   -0.1920   -3.6727    1.3871 H   0  0  0  0  0  0  0  0  0  0  0  0
    0.7229    0.4369    1.6304 N   0  0  0  0  0  0  0  0  0  0  0  0
    1.7716    0.1429    2.6201 C   0  0  2  0  0  0  0  0  0  0  0  0
    1.3203    0.3570    4.0767 C   0  0  0  0  0  0  0  0  0  0  0  0
    1.6438   -0.4528    4.9319 O   0  0  0  0  0  0  0  0  0  0  0  0
    2.9909    1.0296    2.3419 C   0  0  0  0  0  0  0  0  0  0  0  0
    3.6149    0.7550    0.6325 S   0  0  0  0  0  0  0  0  0  0  0  0
    0.7427    1.3327    1.1484 H   0  0  0  0  0  0  0  0  0  0  0  0
    2.0830   -0.9019    2.5193 H   0  0  0  0  0  0  0  0  0  0  0  0
    2.7266    2.0846    2.4707 H   0  0  0  0  0  0  0  0  0  0  0  0
    3.7845    0.7933    3.0594 H   0  0  0  0  0  0  0  0  0  0  0  0
    4.6738    1.5939    0.5979 H   0  0  0  0  0  0  0  0  0  0  0  0
    0.6108    1.4848    4.4407 N   0  0  0  0  0  0  0  0  0  0  0  0
    0.0636    1.7230    5.7823 C   0  0  2  0  0  0  0  0  0  0  0  0
   -1.1850    2.6275    5.7248 C   0  0  0  0  0  0  0  0  0  0  0  0
   -1.4428    3.2488    4.6997 O   0  0  0  0  0  0  0  0  0  0  0  0
    1.1500    2.3696    6.6482 C   0  0  0  0  0  0  0  0  0  0  0  0
    0.2384    2.0676    3.6896 H   0  0  0  0  0  0  0  0  0  0  0  0
   -0.2401    0.7707    6.2310 H   0  0  0  0  0  0  0  0  0  0  0  0
    1.4616    3.3266    6.2177 H   0  0  0  0  0  0  0  0  0  0  0  0
    0.7778    2.5477    7.6615 H   0  0  0  0  0  0  0  0  0  0  0  0
    2.0249    1.7153    6.7142 H   0  0  0  0  0  0  0  0  0  0  0  0
   -2.0219    2.7434    6.8192 N   0  0  0  0  0  0  0  0  0  0  0  0
   -3.2280    3.5625    6.8192 C   0  0  0  0  0  0  0  0  0  0  0  0
   -1.8014    2.1912    7.6430 H   0  0  0  0  0  0  0  0  0  0  0  0
   -2.9890    4.5992    6.5589 H   0  0  0  0  0  0  0  0  0  0  0  0
   -3.9525    3.1757    6.0950 H   0  0  0  0  0  0  0  0  0  0  0  0
   -3.6906    3.5551    7.8108 H   0  0  0  0  0  0  0  0  0  0  0  0
  1  2  2  0  0  0  0
  1  3  1  0  0  0  0
  1  7  1  0  0  0  0
  3  4  1  0  0  0  0
  3  5  1  0  0  0  0
  3  6  1  0  0  0  0
  7  8  1  0  0  0  0
  7 12  1  0  0  0  0
  8  9  1  0  0  0  0
  8 11  1  0  0  0  0
  8 13  1  0  0  0  0
  9 10  2  0  0  0  0
  9 17  1  0  0  0  0
 11 14  1  0  0  0  0
 11 15  1  0  0  0  0
 11 16  1  0  0  0  0
 17 18  1  0  0  0  0
 17 23  1  0  0  0  0
 18 19  1  0  0  0  0
 18 21  1  0  0  0  0
 18 24  1  0  0  0  0
 19 20  2  0  0  0  0
 19 28  1  0  0  0  0
 21 22  1  0  0  0  0
 21 25  1  0  0  0  0
 21 26  1  0  0  0  0
 22 27  1  0  0  0  0
 28 29  1  0  0  0  0
 28 33  1  0  0  0  0
 29 30  1  0  0  0  0
 29 32  1  0  0  0  0
 29 34  1  0  0  0  0
 30 31  2  0  0  0  0
 30 38  1  0  0  0  0
 32 35  1  0  0  0  0
 32 36  1  0  0  0  0
 32 37  1  0  0  0  0
 38 39  1  0  0  0  0
 38 40  1  0  0  0  0
 39 41  1  0  0  0  0
 39 42  1  0  0  0  0
 39 43  1  0  0  0  0
M  END
$$$$

  -OEChem-02062319063D

 43 42  0     1  0  0  0  0  0999 V2000
   -2.4585   -1.9062    3.9316 C   0  0  0  0  0  0  0  0  0  0  0  0
   -1.6700   -1.7510    4.8536 O   0  0  0  0  0  0  0  0  0  0  0  0
   -3.9487   -1.9012    4.2135 C   0  0  0  0  0  0  0  0  0  0  0  0
   -4.4105   -2.8021    3.8019 H   0  0  0  0  0  0  0  0  0  0  0  0
   -4.1302   -1.8748    5.2915 H   0  0  0  0  0  0  0  0  0  0  0  0
   -4.4099   -1.0222    3.7558 H   0  0  0  0  0  0  0  0  0  0  0  0
   -2.0150   -2.0283    2.6312 N   0  0  0  0  0  0  0  0  0  0  0  0
   -0.6345   -1.7309    2.2218 C   0  0  2  0  0  0  0  0  0  0  0  0
   -0.4864   -0.2599    1.7605 C   0  0  0  0  0  0  0  0  0  0  0  0
   -1.4373    0.3415    1.2839 O   0  0  0  0  0  0  0  0  0  0  0  0
   -0.2745   -2.6882    1.0838 C   0  0  0  0  0  0  0  0  0  0  0  0
   -2.7312   -1.9194    1.9171 H   0  0  0  0  0  0  0  0  0  0  0  0
    0.0492   -1.9176    3.0549 H   0  0  0  0  0  0  0  0  0  0  0  0
   -0.9355   -2.5308    0.2254 H   0  0  0  0  0  0  0  0  0  0  0  0
    0.7583   -2.5278    0.7599 H   0  0  0  0  0  0  0  0  0  0  0  0
   -0.3738   -3.7263    1.4166 H   0  0  0  0  0  0  0  0  0  0  0  0
    0.7026    0.4314    1.6818 N   0  0  0  0  0  0  0  0  0  0  0  0
    1.9796    0.0312    2.2931 C   0  0  2  0  0  0  0  0  0  0  0  0
    1.8875   -0.0911    3.8238 C   0  0  0  0  0  0  0  0  0  0  0  0
    2.2986   -1.1064    4.3653 O   0  0  0  0  0  0  0  0  0  0  0  0
    3.0528    1.0674    1.9398 C   0  0  0  0  0  0  0  0  0  0  0  0
    3.2223    1.2288    0.1146 S   0  0  0  0  0  0  0  0  0  0  0  0
    0.6478    1.3136    1.1766 H   0  0  0  0  0  0  0  0  0  0  0  0
    2.2909   -0.9385    1.8903 H   0  0  0  0  0  0  0  0  0  0  0  0
    2.7924    2.0407    2.3694 H   0  0  0  0  0  0  0  0  0  0  0  0
    4.0126    0.7577    2.3678 H   0  0  0  0  0  0  0  0  0  0  0  0
    4.2245    2.1314    0.0221 H   0  0  0  0  0  0  0  0  0  0  0  0
    1.2484    0.8840    4.5635 N   0  0  0  0  0  0  0  0  0  0  0  0
    0.6766    0.6358    5.8914 C   0  0  2  0  0  0  0  0  0  0  0  0
   -0.6731    1.3677    6.0319 C   0  0  0  0  0  0  0  0  0  0  0  0
   -0.7487    2.5588    5.7498 O   0  0  0  0  0  0  0  0  0  0  0  0
    1.6705    1.1077    6.9550 C   0  0  0  0  0  0  0  0  0  0  0  0
    0.8370    1.6555    4.0393 H   0  0  0  0  0  0  0  0  0  0  0  0
    0.4907   -0.4353    6.0308 H   0  0  0  0  0  0  0  0  0  0  0  0
    1.8775    2.1767    6.8415 H   0  0  0  0  0  0  0  0  0  0  0  0
    1.2648    0.9359    7.9565 H   0  0  0  0  0  0  0  0  0  0  0  0
    2.6121    0.5577    6.8636 H   0  0  0  0  0  0  0  0  0  0  0  0
   -1.8129    0.6764    6.3914 N   0  0  0  0  0  0  0  0  0  0  0  0
   -3.1380    1.2806    6.3455 C   0  0  0  0  0  0  0  0  0  0  0  0
   -1.7489   -0.3397    6.2900 H   0  0  0  0  0  0  0  0  0  0  0  0
   -3.1764    2.1718    6.9809 H   0  0  0  0  0  0  0  0  0  0  0  0
   -3.3928    1.5676    5.3199 H   0  0  0  0  0  0  0  0  0  0  0  0
   -3.8883    0.5704    6.7054 H   0  0  0  0  0  0  0  0  0  0  0  0
  1  2  2  0  0  0  0
  1  3  1  0  0  0  0
  1  7  1  0  0  0  0
  3  4  1  0  0  0  0
  3  5  1  0  0  0  0
  3  6  1  0  0  0  0
  7  8  1  0  0  0  0
  7 12  1  0  0  0  0
  8  9  1  0  0  0  0
  8 11  1  0  0  0  0
  8 13  1  0  0  0  0
  9 10  2  0  0  0  0
  9 17  1  0  0  0  0
 11 14  1  0  0  0  0
 11 15  1  0  0  0  0
 11 16  1  0  0  0  0
 17 18  1  0  0  0  0
 17 23  1  0  0  0  0
 18 19  1  0  0  0  0
 18 21  1  0  0  0  0
 18 24  1  0  0  0  0
 19 20  2  0  0  0  0
 19 28  1  0  0  0  0
 21 22  1  0  0  0  0
 21 25  1  0  0  0  0
 21 26  1  0  0  0  0
 22 27  1  0  0  0  0
 28 29  1  0  0  0  0
 28 33  1  0  0  0  0
 29 30  1  0  0  0  0
 29 32  1  0  0  0  0
 29 34  1  0  0  0  0
 30 31  2  0  0  0  0
 30 38  1  0  0  0  0
 32 35  1  0  0  0  0
 32 36  1  0  0  0  0
 32 37  1  0  0  0  0
 38 39  1  0  0  0  0
 38 40  1  0  0  0  0
 39 41  1  0  0  0  0
 39 42  1  0  0  0  0
 39 43  1  0  0  0  0
M  END
$$$$

  -OEChem-02062319063D

 43 42  0     1  0  0  0  0  0999 V2000
   -2.3292   -2.2697    3.8964 C   0  0  0  0  0  0  0  0  0  0  0  0
   -1.4703   -2.4488    4.7488 O   0  0  0  0  0  0  0  0  0  0  0  0
   -3.7904   -2.2370    4.3020 C   0  0  0  0  0  0  0  0  0  0  0  0
   -4.3647   -2.9345    3.6873 H   0  0  0  0  0  0  0  0  0  0  0  0
   -3.8987   -2.5230    5.3519 H   0  0  0  0  0  0  0  0  0  0  0  0
   -4.1912   -1.2294    4.1664 H   0  0  0  0  0  0  0  0  0  0  0  0
   -1.9904   -2.0529    2.5768 N   0  0  0  0  0  0  0  0  0  0  0  0
   -0.6230   -1.7747    2.1130 C   0  0  2  0  0  0  0  0  0  0  0  0
   -0.4752   -0.2942    1.6804 C   0  0  0  0  0  0  0  0  0  0  0  0
   -1.4475    0.3260    1.2761 O   0  0  0  0  0  0  0  0  0  0  0  0
   -0.3349   -2.7077    0.9356 C   0  0  0  0  0  0  0  0  0  0  0  0
   -2.7401   -1.6979    1.9858 H   0  0  0  0  0  0  0  0  0  0  0  0
    0.0932   -1.9930    2.9069 H   0  0  0  0  0  0  0  0  0  0  0  0
   -1.0316   -2.5148    0.1135 H   0  0  0  0  0  0  0  0  0  0  0  0
    0.6852   -2.5598    0.5691 H   0  0  0  0  0  0  0  0  0  0  0  0
   -0.4417   -3.7520    1.2462 H   0  0  0  0  0  0  0  0  0  0  0  0
    0.6963    0.4322    1.6404 N   0  0  0  0  0  0  0  0  0  0  0  0
    2.0442   -0.0408    1.9965 C   0  0  2  0  0  0  0  0  0  0  0  0
    2.1445   -0.5148    3.4558 C   0  0  0  0  0  0  0  0  0  0  0  0
    2.6118   -1.6178    3.6967 O   0  0  0  0  0  0  0  0  0  0  0  0
    3.0450    1.0988    1.7720 C   0  0  0  0  0  0  0  0  0  0  0  0
    2.9566    1.6999    0.0348 S   0  0  0  0  0  0  0  0  0  0  0  0
    0.6115    1.3201    1.1475 H   0  0  0  0  0  0  0  0  0  0  0  0
    2.3203   -0.8774    1.3460 H   0  0  0  0  0  0  0  0  0  0  0  0
    2.8322    1.9271    2.4563 H   0  0  0  0  0  0  0  0  0  0  0  0
    4.0589    0.7422    1.9839 H   0  0  0  0  0  0  0  0  0  0  0  0
    3.9126    2.6558    0.0387 H   0  0  0  0  0  0  0  0  0  0  0  0
    1.5823    0.2400    4.4656 N   0  0  0  0  0  0  0  0  0  0  0  0
    1.1486   -0.3275    5.7472 C   0  0  2  0  0  0  0  0  0  0  0  0
   -0.1478    0.3587    6.2238 C   0  0  0  0  0  0  0  0  0  0  0  0
   -0.2763    1.5707    6.0857 O   0  0  0  0  0  0  0  0  0  0  0  0
    2.2677   -0.1431    6.7743 C   0  0  0  0  0  0  0  0  0  0  0  0
    1.1086    1.0972    4.1797 H   0  0  0  0  0  0  0  0  0  0  0  0
    0.9386   -1.3970    5.6349 H   0  0  0  0  0  0  0  0  0  0  0  0
    2.4969    0.9193    6.9045 H   0  0  0  0  0  0  0  0  0  0  0  0
    1.9679   -0.5565    7.7421 H   0  0  0  0  0  0  0  0  0  0  0  0
    3.1748   -0.6581    6.4428 H   0  0  0  0  0  0  0  0  0  0  0  0
   -1.1885   -0.3827    6.7473 N   0  0  0  0  0  0  0  0  0  0  0  0
   -2.4845    0.2053    7.0603 C   0  0  0  0  0  0  0  0  0  0  0  0
   -1.1614   -1.3799    6.5229 H   0  0  0  0  0  0  0  0  0  0  0  0
   -2.3759    1.0016    7.8042 H   0  0  0  0  0  0  0  0  0  0  0  0
   -2.9428    0.6250    6.1589 H   0  0  0  0  0  0  0  0  0  0  0  0
   -3.1548   -0.5569    7.4683 H   0  0  0  0  0  0  0  0  0  0  0  0
  1  2  2  0  0  0  0
  1  3  1  0  0  0  0
  1  7  1  0  0  0  0
  3  4  1  0  0  0  0
  3  5  1  0  0  0  0
  3  6  1  0  0  0  0
  7  8  1  0  0  0  0
  7 12  1  0  0  0  0
  8  9  1  0  0  0  0
  8 11  1  0  0  0  0
  8 13  1  0  0  0  0
  9 10  2  0  0  0  0
  9 17  1  0  0  0  0
 11 14  1  0  0  0  0
 11 15  1  0  0  0  0
 11 16  1  0  0  0  0
 17 18  1  0  0  0  0
 17 23  1  0  0  0  0
 18 19  1  0  0  0  0
 18 21  1  0  0  0  0
 18 24  1  0  0  0  0
 19 20  2  0  0  0  0
 19 28  1  0  0  0  0
 21 22  1  0  0  0  0
 21 25  1  0  0  0  0
 21 26  1  0  0  0  0
 22 27  1  0  0  0  0
 28 29  1  0  0  0  0
 28 33  1  0  0  0  0
 29 30  1  0  0  0  0
 29 32  1  0  0  0  0
 29 34  1  0  0  0  0
 30 31  2  0  0  0  0
 30 38  1  0  0  0  0
 32 35  1  0  0  0  0
 32 36  1  0  0  0  0
 32 37  1  0  0  0  0
 38 39  1  0  0  0  0
 38 40  1  0  0  0  0
 39 41  1  0  0  0  0
 39 42  1  0  0  0  0
 39 43  1  0  0  0  0
M  END
$$$$

  -OEChem-02062319063D

 43 42  0     1  0  0  0  0  0999 V2000
   -2.2363   -2.6449    3.7769 C   0  0  0  0  0  0  0  0  0  0  0  0
   -1.3382   -3.0988    4.4731 O   0  0  0  0  0  0  0  0  0  0  0  0
   -3.6581   -2.6264    4.3046 C   0  0  0  0  0  0  0  0  0  0  0  0
   -4.3248   -3.1319    3.6017 H   0  0  0  0  0  0  0  0  0  0  0  0
   -3.7110   -3.1382    5.2696 H   0  0  0  0  0  0  0  0  0  0  0  0
   -3.9928   -1.5943    4.4343 H   0  0  0  0  0  0  0  0  0  0  0  0
   -1.9668   -2.1048    2.5365 N   0  0  0  0  0  0  0  0  0  0  0  0
   -0.6162   -1.8022    2.0421 C   0  0  2  0  0  0  0  0  0  0  0  0
   -0.4945   -0.3108    1.6356 C   0  0  0  0  0  0  0  0  0  0  0  0
   -1.4984    0.3252    1.3496 O   0  0  0  0  0  0  0  0  0  0  0  0
   -0.3386   -2.7157    0.8473 C   0  0  0  0  0  0  0  0  0  0  0  0
   -2.7263   -1.5833    2.1005 H   0  0  0  0  0  0  0  0  0  0  0  0
    0.1133   -2.0188    2.8213 H   0  0  0  0  0  0  0  0  0  0  0  0
   -1.0494   -2.5178    0.0389 H   0  0  0  0  0  0  0  0  0  0  0  0
    0.6751   -2.5570    0.4683 H   0  0  0  0  0  0  0  0  0  0  0  0
   -0.4318   -3.7647    1.1457 H   0  0  0  0  0  0  0  0  0  0  0  0
    0.6552    0.4533    1.6210 N   0  0  0  0  0  0  0  0  0  0  0  0
    2.0423   -0.0387    1.6883 C   0  0  2  0  0  0  0  0  0  0  0  0
    2.3491   -0.8317    2.9693 C   0  0  0  0  0  0  0  0  0  0  0  0
    2.7967   -1.9651    2.8819 O   0  0  0  0  0  0  0  0  0  0  0  0
    2.9904    1.1633    1.6073 C   0  0  0  0  0  0  0  0  0  0  0  0
    2.6689    2.1318    0.0755 S   0  0  0  0  0  0  0  0  0  0  0  0
    0.5080    1.3765    1.2142 H   0  0  0  0  0  0  0  0  0  0  0  0
    2.2361   -0.6916    0.8308 H   0  0  0  0  0  0  0  0  0  0  0  0
    2.8544    1.8090    2.4815 H   0  0  0  0  0  0  0  0  0  0  0  0
    4.0284    0.8127    1.6069 H   0  0  0  0  0  0  0  0  0  0  0  0
    3.6039    3.1032    0.1752 H   0  0  0  0  0  0  0  0  0  0  0  0
    1.9224   -0.3470    4.1897 N   0  0  0  0  0  0  0  0  0  0  0  0
    1.6169   -1.2018    5.3430 C   0  0  2  0  0  0  0  0  0  0  0  0
    0.4304   -0.6167    6.1369 C   0  0  0  0  0  0  0  0  0  0  0  0
    0.3097    0.6005    6.2314 O   0  0  0  0  0  0  0  0  0  0  0  0
    2.8605   -1.3051    6.2290 C   0  0  0  0  0  0  0  0  0  0  0  0
    1.4497    0.5576    4.1774 H   0  0  0  0  0  0  0  0  0  0  0  0
    1.3317   -2.2045    5.0052 H   0  0  0  0  0  0  0  0  0  0  0  0
    3.1629   -0.3138    6.5811 H   0  0  0  0  0  0  0  0  0  0  0  0
    2.6578   -1.9375    7.0987 H   0  0  0  0  0  0  0  0  0  0  0  0
    3.6910   -1.7448    5.6679 H   0  0  0  0  0  0  0  0  0  0  0  0
   -0.5288   -1.4411    6.6909 N   0  0  0  0  0  0  0  0  0  0  0  0
   -1.7362   -0.9196    7.3178 C   0  0  0  0  0  0  0  0  0  0  0  0
   -0.5710   -2.3835    6.2966 H   0  0  0  0  0  0  0  0  0  0  0  0
   -1.4805   -0.2534    8.1483 H   0  0  0  0  0  0  0  0  0  0  0  0
   -2.3358   -0.3624    6.5906 H   0  0  0  0  0  0  0  0  0  0  0  0
   -2.3412   -1.7422    7.7108 H   0  0  0  0  0  0  0  0  0  0  0  0
  1  2  2  0  0  0  0
  1  3  1  0  0  0  0
  1  7  1  0  0  0  0
  3  4  1  0  0  0  0
  3  5  1  0  0  0  0
  3  6  1  0  0  0  0
  7  8  1  0  0  0  0
  7 12  1  0  0  0  0
  8  9  1  0  0  0  0
  8 11  1  0  0  0  0
  8 13  1  0  0  0  0
  9 10  2  0  0  0  0
  9 17  1  0  0  0  0
 11 14  1  0  0  0  0
 11 15  1  0  0  0  0
 11 16  1  0  0  0  0
 17 18  1  0  0  0  0
 17 23  1  0  0  0  0
 18 19  1  0  0  0  0
 18 21  1  0  0  0  0
 18 24  1  0  0  0  0
 19 20  2  0  0  0  0
 19 28  1  0  0  0  0
 21 22  1  0  0  0  0
 21 25  1  0  0  0  0
 21 26  1  0  0  0  0
 22 27  1  0  0  0  0
 28 29  1  0  0  0  0
 28 33  1  0  0  0  0
 29 30  1  0  0  0  0
 29 32  1  0  0  0  0
 29 34  1  0  0  0  0
 30 31  2  0  0  0  0
 30 38  1  0  0  0  0
 32 35  1  0  0  0  0
 32 36  1  0  0  0  0
 32 37  1  0  0  0  0
 38 39  1  0  0  0  0
 38 40  1  0  0  0  0
 39 41  1  0  0  0  0
 39 42  1  0  0  0  0
 39 43  1  0  0  0  0
M  END
$$$$

  -OEChem-02062319063D

 43 42  0     1  0  0  0  0  0999 V2000
   -2.1854   -2.9600    3.5837 C   0  0  0  0  0  0  0  0  0  0  0  0
   -1.2638   -3.6364    4.0216 O   0  0  0  0  0  0  0  0  0  0  0  0
   -3.5601   -3.0580    4.2174 C   0  0  0  0  0  0  0  0  0  0  0  0
   -4.3100   -3.2747    3.4525 H   0  0  0  0  0  0  0  0  0  0  0  0
   -3.5765   -3.8587    4.9621 H   0  0  0  0  0  0  0  0  0  0  0  0
   -3.8118   -2.1142    4.7077 H   0  0  0  0  0  0  0  0  0  0  0  0
   -1.9716   -2.0770    2.5456 N   0  0  0  0  0  0  0  0  0  0  0  0
   -0.6498   -1.7644    1.9875 C   0  0  2  0  0  0  0  0  0  0  0  0
   -0.5222   -0.2701    1.5959 C   0  0  0  0  0  0  0  0  0  0  0  0
   -1.5326    0.3982    1.4331 O   0  0  0  0  0  0  0  0  0  0  0  0
   -0.4239   -2.6619    0.7681 C   0  0  0  0  0  0  0  0  0  0  0  0
   -2.7319   -1.4411    2.3055 H   0  0  0  0  0  0  0  0  0  0  0  0
    0.1031   -1.9887    2.7392 H   0  0  0  0  0  0  0  0  0  0  0  0
   -1.1776   -2.4614    0.0003 H   0  0  0  0  0  0  0  0  0  0  0  0
    0.5666   -2.4892    0.3374 H   0  0  0  0  0  0  0  0  0  0  0  0
   -0.4909   -3.7154    1.0570 H   0  0  0  0  0  0  0  0  0  0  0  0
    0.6292    0.4939    1.6078 N   0  0  0  0  0  0  0  0  0  0  0  0
    2.0007   -0.0024    1.3875 C   0  0  2  0  0  0  0  0  0  0  0  0
    2.4616   -1.0608    2.4058 C   0  0  0  0  0  0  0  0  0  0  0  0
    2.8518   -2.1500    2.0136 O   0  0  0  0  0  0  0  0  0  0  0  0
    2.9608    1.1914    1.4412 C   0  0  0  0  0  0  0  0  0  0  0  0
    2.4712    2.4617    0.2028 S   0  0  0  0  0  0  0  0  0  0  0  0
    0.4468    1.4530    1.3129 H   0  0  0  0  0  0  0  0  0  0  0  0
    2.0622   -0.4502    0.3896 H   0  0  0  0  0  0  0  0  0  0  0  0
    2.9535    1.6358    2.4425 H   0  0  0  0  0  0  0  0  0  0  0  0
    3.9810    0.8517    1.2316 H   0  0  0  0  0  0  0  0  0  0  0  0
    3.4359    3.3916    0.3836 H   0  0  0  0  0  0  0  0  0  0  0  0
    2.2158   -0.8591    3.7507 N   0  0  0  0  0  0  0  0  0  0  0  0
    2.0806   -1.9376    4.7383 C   0  0  2  0  0  0  0  0  0  0  0  0
    1.0396   -1.5433    5.8071 C   0  0  0  0  0  0  0  0  0  0  0  0
    0.9897   -0.3803    6.1943 O   0  0  0  0  0  0  0  0  0  0  0  0
    3.4437   -2.2009    5.3812 C   0  0  0  0  0  0  0  0  0  0  0  0
    1.7876    0.0316    4.0068 H   0  0  0  0  0  0  0  0  0  0  0  0
    1.7329   -2.8556    4.2519 H   0  0  0  0  0  0  0  0  0  0  0  0
    3.8152   -1.2984    5.8769 H   0  0  0  0  0  0  0  0  0  0  0  0
    3.3652   -3.0002    6.1244 H   0  0  0  0  0  0  0  0  0  0  0  0
    4.1689   -2.5063    4.6206 H   0  0  0  0  0  0  0  0  0  0  0  0
    0.1142   -2.4552    6.2755 N   0  0  0  0  0  0  0  0  0  0  0  0
   -0.9800   -2.0681    7.1566 C   0  0  0  0  0  0  0  0  0  0  0  0
   -0.0275   -3.2805    5.6885 H   0  0  0  0  0  0  0  0  0  0  0  0
   -0.5928   -1.6242    8.0797 H   0  0  0  0  0  0  0  0  0  0  0  0
   -1.6306   -1.3400    6.6614 H   0  0  0  0  0  0  0  0  0  0  0  0
   -1.5779   -2.9454    7.4213 H   0  0  0  0  0  0  0  0  0  0  0  0
  1  2  2  0  0  0  0
  1  3  1  0  0  0  0
  1  7  1  0  0  0  0
  3  4  1  0  0  0  0
  3  5  1  0  0  0  0
  3  6  1  0  0  0  0
  7  8  1  0  0  0  0
  7 12  1  0  0  0  0
  8  9  1  0  0  0  0
  8 11  1  0  0  0  0
  8 13  1  0  0  0  0
  9 10  2  0  0  0  0
  9 17  1  0  0  0  0
 11 14  1  0  0  0  0
 11 15  1  0  0  0  0
 11 16  1  0  0  0  0
 17 18  1  0  0  0  0
 17 23  1  0  0  0  0
 18 19  1  0  0  0  0
 18 21  1  0  0  0  0
 18 24  1  0  0  0  0
 19 20  2  0  0  0  0
 19 28  1  0  0  0  0
 21 22  1  0  0  0  0
 21 25  1  0  0  0  0
 21 26  1  0  0  0  0
 22 27  1  0  0  0  0
 28 29  1  0  0  0  0
 28 33  1  0  0  0  0
 29 30  1  0  0  0  0
 29 32  1  0  0  0  0
 29 34  1  0  0  0  0
 30 31  2  0  0  0  0
 30 38  1  0  0  0  0
 32 35  1  0  0  0  0
 32 36  1  0  0  0  0
 32 37  1  0  0  0  0
 38 39  1  0  0  0  0
 38 40  1  0  0  0  0
 39 41  1  0  0  0  0
 39 42  1  0  0  0  0
 39 43  1  0  0  0  0
M  END
$$$$

  -OEChem-02062319063D

 43 42  0     1  0  0  0  0  0999 V2000
   -2.1655   -3.0425    3.3665 C   0  0  0  0  0  0  0  0  0  0  0  0
   -1.2627   -3.8322    3.6092 O   0  0  0  0  0  0  0  0  0  0  0  0
   -3.4892   -3.1568    4.0984 C   0  0  0  0  0  0  0  0  0  0  0  0
   -4.2977   -3.3300    3.3838 H   0  0  0  0  0  0  0  0  0  0  0  0
   -3.4589   -3.9906    4.8057 H   0  0  0  0  0  0  0  0  0  0  0  0
   -3.6909   -2.2350    4.6496 H   0  0  0  0  0  0  0  0  0  0  0  0
   -1.9774   -2.0358    2.4425 N   0  0  0  0  0  0  0  0  0  0  0  0
   -0.6901   -1.7368    1.8048 C   0  0  2  0  0  0  0  0  0  0  0  0
   -0.5459   -0.2396    1.4381 C   0  0  0  0  0  0  0  0  0  0  0  0
   -1.5536    0.4437    1.3303 O   0  0  0  0  0  0  0  0  0  0  0  0
   -0.5660   -2.6005    0.5457 C   0  0  0  0  0  0  0  0  0  0  0  0
   -2.7165   -1.3412    2.3379 H   0  0  0  0  0  0  0  0  0  0  0  0
    0.1001   -1.9993    2.5020 H   0  0  0  0  0  0  0  0  0  0  0  0
   -1.3785   -2.3764   -0.1529 H   0  0  0  0  0  0  0  0  0  0  0  0
    0.3860   -2.4158    0.0399 H   0  0  0  0  0  0  0  0  0  0  0  0
   -0.6136   -3.6621    0.8077 H   0  0  0  0  0  0  0  0  0  0  0  0
    0.5968    0.5313    1.5347 N   0  0  0  0  0  0  0  0  0  0  0  0
    1.9413    0.1056    1.0981 C   0  0  2  0  0  0  0  0  0  0  0  0
    2.4934   -1.1452    1.8066 C   0  0  0  0  0  0  0  0  0  0  0  0
    2.8728   -2.1042    1.1521 O   0  0  0  0  0  0  0  0  0  0  0  0
    2.9106    1.2714    1.3242 C   0  0  0  0  0  0  0  0  0  0  0  0
    2.3300    2.7696    0.4266 S   0  0  0  0  0  0  0  0  0  0  0  0
    0.3798    1.5137    1.3662 H   0  0  0  0  0  0  0  0  0  0  0  0
    1.9104   -0.1146    0.0250 H   0  0  0  0  0  0  0  0  0  0  0  0
    2.9887    1.4942    2.3937 H   0  0  0  0  0  0  0  0  0  0  0  0
    3.9077    0.9947    0.9646 H   0  0  0  0  0  0  0  0  0  0  0  0
    3.3088    3.6532    0.7255 H   0  0  0  0  0  0  0  0  0  0  0  0
    2.3753   -1.2511    3.1791 N   0  0  0  0  0  0  0  0  0  0  0  0
    2.4012   -2.5136    3.9285 C   0  0  2  0  0  0  0  0  0  0  0  0
    1.5137   -2.4017    5.1871 C   0  0  0  0  0  0  0  0  0  0  0  0
    1.3237   -1.2988    5.6917 O   0  0  0  0  0  0  0  0  0  0  0  0
    3.8457   -2.8345    4.3180 C   0  0  0  0  0  0  0  0  0  0  0  0
    1.9457   -0.4600    3.6620 H   0  0  0  0  0  0  0  0  0  0  0  0
    2.0051   -3.3258    3.3091 H   0  0  0  0  0  0  0  0  0  0  0  0
    4.2623   -2.0345    4.9386 H   0  0  0  0  0  0  0  0  0  0  0  0
    3.8894   -3.7713    4.8819 H   0  0  0  0  0  0  0  0  0  0  0  0
    4.4652   -2.9412    3.4221 H   0  0  0  0  0  0  0  0  0  0  0  0
    0.9030   -3.5162    5.7283 N   0  0  0  0  0  0  0  0  0  0  0  0
   -0.0622   -3.4174    6.8154 C   0  0  0  0  0  0  0  0  0  0  0  0
    0.8219   -4.3175    5.1054 H   0  0  0  0  0  0  0  0  0  0  0  0
    0.3792   -2.9066    7.6776 H   0  0  0  0  0  0  0  0  0  0  0  0
   -0.9472   -2.8611    6.4903 H   0  0  0  0  0  0  0  0  0  0  0  0
   -0.3758   -4.4164    7.1323 H   0  0  0  0  0  0  0  0  0  0  0  0
  1  2  2  0  0  0  0
  1  3  1  0  0  0  0
  1  7  1  0  0  0  0
  3  4  1  0  0  0  0
  3  5  1  0  0  0  0
  3  6  1  0  0  0  0
  7  8  1  0  0  0  0
  7 12  1  0  0  0  0
  8  9  1  0  0  0  0
  8 11  1  0  0  0  0
  8 13  1  0  0  0  0
  9 10  2  0  0  0  0
  9 17  1  0  0  0  0
 11 14  1  0  0  0  0
 11 15  1  0  0  0  0
 11 16  1  0  0  0  0
 17 18  1  0  0  0  0
 17 23  1  0  0  0  0
 18 19  1  0  0  0  0
 18 21  1  0  0  0  0
 18 24  1  0  0  0  0
 19 20  2  0  0  0  0
 19 28  1  0  0  0  0
 21 22  1  0  0  0  0
 21 25  1  0  0  0  0
 21 26  1  0  0  0  0
 22 27  1  0  0  0  0
 28 29  1  0  0  0  0
 28 33  1  0  0  0  0
 29 30  1  0  0  0  0
 29 32  1  0  0  0  0
 29 34  1  0  0  0  0
 30 31  2  0  0  0  0
 30 38  1  0  0  0  0
 32 35  1  0  0  0  0
 32 36  1  0  0  0  0
 32 37  1  0  0  0  0
 38 39  1  0  0  0  0
 38 40  1  0  0  0  0
 39 41  1  0  0  0  0
 39 42  1  0  0  0  0
 39 43  1  0  0  0  0
M  END
$$$$

  -OEChem-02062319063D

 43 42  0     1  0  0  0  0  0999 V2000
   -2.1559   -3.0950    3.2208 C   0  0  0  0  0  0  0  0  0  0  0  0
   -1.2779   -3.9407    3.3196 O   0  0  0  0  0  0  0  0  0  0  0  0
   -3.4262   -3.2203    4.0398 C   0  0  0  0  0  0  0  0  0  0  0  0
   -4.2899   -3.3138    3.3771 H   0  0  0  0  0  0  0  0  0  0  0  0
   -3.3758   -4.1043    4.6816 H   0  0  0  0  0  0  0  0  0  0  0  0
   -3.5524   -2.3359    4.6690 H   0  0  0  0  0  0  0  0  0  0  0  0
   -1.9894   -2.0203    2.3724 N   0  0  0  0  0  0  0  0  0  0  0  0
   -0.7386   -1.7171    1.6676 C   0  0  2  0  0  0  0  0  0  0  0  0
   -0.6000   -0.2134    1.3294 C   0  0  0  0  0  0  0  0  0  0  0  0
   -1.6113    0.4715    1.2811 O   0  0  0  0  0  0  0  0  0  0  0  0
   -0.6972   -2.5489    0.3805 C   0  0  0  0  0  0  0  0  0  0  0  0
   -2.7092   -1.2982    2.3695 H   0  0  0  0  0  0  0  0  0  0  0  0
    0.0874   -1.9986    2.3155 H   0  0  0  0  0  0  0  0  0  0  0  0
    0.2089   -2.3367   -0.1927 H   0  0  0  0  0  0  0  0  0  0  0  0
   -1.5634   -2.3206   -0.2484 H   0  0  0  0  0  0  0  0  0  0  0  0
   -0.7091   -3.6176    0.6158 H   0  0  0  0  0  0  0  0  0  0  0  0
    0.5284    0.5638    1.5017 N   0  0  0  0  0  0  0  0  0  0  0  0
    1.8209    0.2781    0.8477 C   0  0  2  0  0  0  0  0  0  0  0  0
    2.4551   -1.0833    1.1913 C   0  0  0  0  0  0  0  0  0  0  0  0
    2.7832   -1.8521    0.3004 O   0  0  0  0  0  0  0  0  0  0  0  0
    2.8028    1.3916    1.2310 C   0  0  0  0  0  0  0  0  0  0  0  0
    2.1293    3.0333    0.7412 S   0  0  0  0  0  0  0  0  0  0  0  0
    0.2686    1.5504    1.4888 H   0  0  0  0  0  0  0  0  0  0  0  0
    1.6770    0.3027   -0.2385 H   0  0  0  0  0  0  0  0  0  0  0  0
    2.9832    1.3778    2.3116 H   0  0  0  0  0  0  0  0  0  0  0  0
    3.7620    1.2267    0.7280 H   0  0  0  0  0  0  0  0  0  0  0  0
    3.1191    3.8569    1.1528 H   0  0  0  0  0  0  0  0  0  0  0  0
    2.4893   -1.5015    2.5070 N   0  0  0  0  0  0  0  0  0  0  0  0
    2.6405   -2.8922    2.9525 C   0  0  2  0  0  0  0  0  0  0  0  0
    1.9847   -3.0775    4.3396 C   0  0  0  0  0  0  0  0  0  0  0  0
    1.7910   -2.0942    5.0496 O   0  0  0  0  0  0  0  0  0  0  0  0
    4.1294   -3.2429    3.0119 C   0  0  0  0  0  0  0  0  0  0  0  0
    2.1120   -0.8551    3.2027 H   0  0  0  0  0  0  0  0  0  0  0  0
    2.1358   -3.5638    2.2491 H   0  0  0  0  0  0  0  0  0  0  0  0
    4.6500   -2.5805    3.7108 H   0  0  0  0  0  0  0  0  0  0  0  0
    4.2654   -4.2767    3.3437 H   0  0  0  0  0  0  0  0  0  0  0  0
    4.5862   -3.1356    2.0232 H   0  0  0  0  0  0  0  0  0  0  0  0
    1.5865   -4.3264    4.7760 N   0  0  0  0  0  0  0  0  0  0  0  0
    0.8095   -4.5132    5.9955 C   0  0  0  0  0  0  0  0  0  0  0  0
    1.5332   -5.0524    4.0672 H   0  0  0  0  0  0  0  0  0  0  0  0
    1.3454   -4.1065    6.8596 H   0  0  0  0  0  0  0  0  0  0  0  0
   -0.1593   -4.0098    5.9134 H   0  0  0  0  0  0  0  0  0  0  0  0
    0.6329   -5.5786    6.1708 H   0  0  0  0  0  0  0  0  0  0  0  0
  1  2  2  0  0  0  0
  1  3  1  0  0  0  0
  1  7  1  0  0  0  0
  3  4  1  0  0  0  0
  3  5  1  0  0  0  0
  3  6  1  0  0  0  0
  7  8  1  0  0  0  0
  7 12  1  0  0  0  0
  8  9  1  0  0  0  0
  8 11  1  0  0  0  0
  8 13  1  0  0  0  0
  9 10  2  0  0  0  0
  9 17  1  0  0  0  0
 11 14  1  0  0  0  0
 11 15  1  0  0  0  0
 11 16  1  0  0  0  0
 17 18  1  0  0  0  0
 17 23  1  0  0  0  0
 18 19  1  0  0  0  0
 18 21  1  0  0  0  0
 18 24  1  0  0  0  0
 19 20  2  0  0  0  0
 19 28  1  0  0  0  0
 21 22  1  0  0  0  0
 21 25  1  0  0  0  0
 21 26  1  0  0  0  0
 22 27  1  0  0  0  0
 28 29  1  0  0  0  0
 28 33  1  0  0  0  0
 29 30  1  0  0  0  0
 29 32  1  0  0  0  0
 29 34  1  0  0  0  0
 30 31  2  0  0  0  0
 30 38  1  0  0  0  0
 32 35  1  0  0  0  0
 32 36  1  0  0  0  0
 32 37  1  0  0  0  0
 38 39  1  0  0  0  0
 38 40  1  0  0  0  0
 39 41  1  0  0  0  0
 39 42  1  0  0  0  0
 39 43  1  0  0  0  0
M  END
$$$$

  -OEChem-02062319063D

 43 42  0     1  0  0  0  0  0999 V2000
   -2.1657   -3.1445    3.0902 C   0  0  0  0  0  0  0  0  0  0  0  0
   -1.3164   -4.0233    3.0932 O   0  0  0  0  0  0  0  0  0  0  0  0
   -3.4156   -3.2913    3.9368 C   0  0  0  0  0  0  0  0  0  0  0  0
   -4.3001   -3.3121    3.2955 H   0  0  0  0  0  0  0  0  0  0  0  0
   -3.3739   -4.2197    4.5128 H   0  0  0  0  0  0  0  0  0  0  0  0
   -3.4966   -2.4509    4.6308 H   0  0  0  0  0  0  0  0  0  0  0  0
   -1.9909   -2.0153    2.3184 N   0  0  0  0  0  0  0  0  0  0  0  0
   -0.7669   -1.7018    1.5720 C   0  0  2  0  0  0  0  0  0  0  0  0
   -0.6475   -0.1886    1.2686 C   0  0  0  0  0  0  0  0  0  0  0  0
   -1.6662    0.4870    1.2613 O   0  0  0  0  0  0  0  0  0  0  0  0
   -0.7862   -2.4993    0.2611 C   0  0  0  0  0  0  0  0  0  0  0  0
   -2.6981   -1.2831    2.3741 H   0  0  0  0  0  0  0  0  0  0  0  0
    0.0889   -1.9982    2.1790 H   0  0  0  0  0  0  0  0  0  0  0  0
   -1.6779   -2.2493   -0.3225 H   0  0  0  0  0  0  0  0  0  0  0  0
    0.0935   -2.2779   -0.3471 H   0  0  0  0  0  0  0  0  0  0  0  0
   -0.7959   -3.5738    0.4663 H   0  0  0  0  0  0  0  0  0  0  0  0
    0.4633    0.5910    1.5145 N   0  0  0  0  0  0  0  0  0  0  0  0
    1.6674    0.5059    0.6666 C   0  0  2  0  0  0  0  0  0  0  0  0
    2.3441   -0.8765    0.6234 C   0  0  0  0  0  0  0  0  0  0  0  0
    2.5893   -1.4131   -0.4463 O   0  0  0  0  0  0  0  0  0  0  0  0
    2.6778    1.5424    1.1697 C   0  0  0  0  0  0  0  0  0  0  0  0
    1.9346    3.2263    1.1373 S   0  0  0  0  0  0  0  0  0  0  0  0
    0.1610    1.5529    1.6723 H   0  0  0  0  0  0  0  0  0  0  0  0
    1.3908    0.7629   -0.3623 H   0  0  0  0  0  0  0  0  0  0  0  0
    2.9870    1.2988    2.1918 H   0  0  0  0  0  0  0  0  0  0  0  0
    3.5699    1.5257    0.5342 H   0  0  0  0  0  0  0  0  0  0  0  0
    2.9549    3.9746    1.6137 H   0  0  0  0  0  0  0  0  0  0  0  0
    2.5359   -1.5708    1.8005 N   0  0  0  0  0  0  0  0  0  0  0  0
    2.7969   -3.0105    1.9137 C   0  0  2  0  0  0  0  0  0  0  0  0
    2.3461   -3.5199    3.3016 C   0  0  0  0  0  0  0  0  0  0  0  0
    2.1727   -2.7123    4.2101 O   0  0  0  0  0  0  0  0  0  0  0  0
    4.2915   -3.2720    1.7033 C   0  0  0  0  0  0  0  0  0  0  0  0
    2.2363   -1.1076    2.6607 H   0  0  0  0  0  0  0  0  0  0  0  0
    2.2222   -3.5505    1.1539 H   0  0  0  0  0  0  0  0  0  0  0  0
    4.8819   -2.7365    2.4535 H   0  0  0  0  0  0  0  0  0  0  0  0
    4.5088   -4.3413    1.7862 H   0  0  0  0  0  0  0  0  0  0  0  0
    4.6021   -2.9347    0.7095 H   0  0  0  0  0  0  0  0  0  0  0  0
    2.1115   -4.8634    3.5237 N   0  0  0  0  0  0  0  0  0  0  0  0
    1.5199   -5.3605    4.7607 C   0  0  0  0  0  0  0  0  0  0  0  0
    2.0935   -5.4674    2.7077 H   0  0  0  0  0  0  0  0  0  0  0  0
    2.1176   -5.0520    5.6250 H   0  0  0  0  0  0  0  0  0  0  0  0
    0.5020   -4.9753    4.8823 H   0  0  0  0  0  0  0  0  0  0  0  0
    1.4772   -6.4536    4.7452 H   0  0  0  0  0  0  0  0  0  0  0  0
  1  2  2  0  0  0  0
  1  3  1  0  0  0  0
  1  7  1  0  0  0  0
  3  4  1  0  0  0  0
  3  5  1  0  0  0  0
  3  6  1  0  0  0  0
  7  8  1  0  0  0  0
  7 12  1  0  0  0  0
  8  9  1  0  0  0  0
  8 11  1  0  0  0  0
  8 13  1  0  0  0  0
  9 10  2  0  0  0  0
  9 17  1  0  0  0  0
 11 14  1  0  0  0  0
 11 15  1  0  0  0  0
 11 16  1  0  0  0  0
 17 18  1  0  0  0  0
 17 23  1  0  0  0  0
 18 19  1  0  0  0  0
 18 21  1  0  0  0  0
 18 24  1  0  0  0  0
 19 20  2  0  0  0  0
 19 28  1  0  0  0  0
 21 22  1  0  0  0  0
 21 25  1  0  0  0  0
 21 26  1  0  0  0  0
 22 27  1  0  0  0  0
 28 29  1  0  0  0  0
 28 33  1  0  0  0  0
 29 30  1  0  0  0  0
 29 32  1  0  0  0  0
 29 34  1  0  0  0  0
 30 31  2  0  0  0  0
 30 38  1  0  0  0  0
 32 35  1  0  0  0  0
 32 36  1  0  0  0  0
 32 37  1  0  0  0  0
 38 39  1  0  0  0  0
 38 40  1  0  0  0  0
 39 41  1  0  0  0  0
 39 42  1  0  0  0  0
 39 43  1  0  0  0  0
M  END
$$$$

  -OEChem-02062319063D

 43 42  0     1  0  0  0  0  0999 V2000
   -2.1669   -3.1012    3.2043 C   0  0  0  0  0  0  0  0  0  0  0  0
   -1.2411   -3.8820    3.3534 O   0  0  0  0  0  0  0  0  0  0  0  0
   -3.5037   -3.3738    3.8672 C   0  0  0  0  0  0  0  0  0  0  0  0
   -4.2844   -3.4685    3.1085 H   0  0  0  0  0  0  0  0  0  0  0  0
   -3.4562   -4.3032    4.4419 H   0  0  0  0  0  0  0  0  0  0  0  0
   -3.7597   -2.5542    4.5434 H   0  0  0  0  0  0  0  0  0  0  0  0
   -2.0072   -1.9782    2.4194 N   0  0  0  0  0  0  0  0  0  0  0  0
   -0.7916   -1.6644    1.6578 C   0  0  2  0  0  0  0  0  0  0  0  0
   -0.7281   -0.1493    1.3519 C   0  0  0  0  0  0  0  0  0  0  0  0
   -1.5310    0.3092    0.5532 O   0  0  0  0  0  0  0  0  0  0  0  0
   -0.8243   -2.5095    0.3734 C   0  0  0  0  0  0  0  0  0  0  0  0
   -2.8359   -1.4152    2.2363 H   0  0  0  0  0  0  0  0  0  0  0  0
    0.0918   -1.9309    2.2462 H   0  0  0  0  0  0  0  0  0  0  0  0
    0.0104   -2.2595   -0.2838 H   0  0  0  0  0  0  0  0  0  0  0  0
   -1.7530   -2.3325   -0.1784 H   0  0  0  0  0  0  0  0  0  0  0  0
   -0.7632   -3.5745    0.6167 H   0  0  0  0  0  0  0  0  0  0  0  0
    0.3845    0.6363    1.6040 N   0  0  0  0  0  0  0  0  0  0  0  0
    1.4153    0.8001    0.5561 C   0  0  2  0  0  0  0  0  0  0  0  0
    2.0906   -0.5071    0.0992 C   0  0  0  0  0  0  0  0  0  0  0  0
    2.1974   -0.7847   -1.0852 O   0  0  0  0  0  0  0  0  0  0  0  0
    2.5061    1.7628    1.0495 C   0  0  0  0  0  0  0  0  0  0  0  0
    1.7915    3.3757    1.5733 S   0  0  0  0  0  0  0  0  0  0  0  0
    0.7677    0.4778    2.5306 H   0  0  0  0  0  0  0  0  0  0  0  0
    0.9382    1.2462   -0.3248 H   0  0  0  0  0  0  0  0  0  0  0  0
    3.0483    1.3189    1.8907 H   0  0  0  0  0  0  0  0  0  0  0  0
    3.2259    1.9360    0.2416 H   0  0  0  0  0  0  0  0  0  0  0  0
    2.9057    4.0775    1.8749 H   0  0  0  0  0  0  0  0  0  0  0  0
    2.5037   -1.4222    1.0472 N   0  0  0  0  0  0  0  0  0  0  0  0
    2.8689   -2.8188    0.7914 C   0  0  2  0  0  0  0  0  0  0  0  0
    2.5890   -3.6539    2.0591 C   0  0  0  0  0  0  0  0  0  0  0  0
    2.4868   -3.0759    3.1379 O   0  0  0  0  0  0  0  0  0  0  0  0
    4.3485   -2.8935    0.4060 C   0  0  0  0  0  0  0  0  0  0  0  0
    2.3736   -1.1783    2.0284 H   0  0  0  0  0  0  0  0  0  0  0  0
    2.2617   -3.2216   -0.0255 H   0  0  0  0  0  0  0  0  0  0  0  0
    4.9753   -2.4972    1.2113 H   0  0  0  0  0  0  0  0  0  0  0  0
    4.6415   -3.9303    0.2147 H   0  0  0  0  0  0  0  0  0  0  0  0
    4.5347   -2.3099   -0.5013 H   0  0  0  0  0  0  0  0  0  0  0  0
    2.4003   -5.0209    1.9886 N   0  0  0  0  0  0  0  0  0  0  0  0
    1.9502   -5.8110    3.1294 C   0  0  0  0  0  0  0  0  0  0  0  0
    2.3844   -5.4462    1.0665 H   0  0  0  0  0  0  0  0  0  0  0  0
    2.6225   -5.6734    3.9830 H   0  0  0  0  0  0  0  0  0  0  0  0
    0.9394   -5.5132    3.4269 H   0  0  0  0  0  0  0  0  0  0  0  0
    1.9365   -6.8744    2.8723 H   0  0  0  0  0  0  0  0  0  0  0  0
  1  2  2  0  0  0  0
  1  3  1  0  0  0  0
  1  7  1  0  0  0  0
  3  4  1  0  0  0  0
  3  5  1  0  0  0  0
  3  6  1  0  0  0  0
  7  8  1  0  0  0  0
  7 12  1  0  0  0  0
  8  9  1  0  0  0  0
  8 11  1  0  0  0  0
  8 13  1  0  0  0  0
  9 10  2  0  0  0  0
  9 17  1  0  0  0  0
 11 14  1  0  0  0  0
 11 15  1  0  0  0  0
 11 16  1  0  0  0  0
 17 18  1  0  0  0  0
 17 23  1  0  0  0  0
 18 19  1  0  0  0  0
 18 21  1  0  0  0  0
 18 24  1  0  0  0  0
 19 20  2  0  0  0  0
 19 28  1  0  0  0  0
 21 22  1  0  0  0  0
 21 25  1  0  0  0  0
 21 26  1  0  0  0  0
 22 27  1  0  0  0  0
 28 29  1  0  0  0  0
 28 33  1  0  0  0  0
 29 30  1  0  0  0  0
 29 32  1  0  0  0  0
 29 34  1  0  0  0  0
 30 31  2  0  0  0  0
 30 38  1  0  0  0  0
 32 35  1  0  0  0  0
 32 36  1  0  0  0  0
 32 37  1  0  0  0  0
 38 39  1  0  0  0  0
 38 40  1  0  0  0  0
 39 41  1  0  0  0  0
 39 42  1  0  0  0  0
 39 43  1  0  0  0  0
M  END
$$$$

  -OEChem-02062319063D

 43 42  0     1  0  0  0  0  0999 V2000
   -0.6252   -1.7374    3.4724 C   0  0  0  0  0  0  0  0  0  0  0  0
    0.4028   -1.1273    3.2103 O   0  0  0  0  0  0  0  0  0  0  0  0
   -1.1085   -1.8427    4.9057 C   0  0  0  0  0  0  0  0  0  0  0  0
   -1.1828   -2.8931    5.1978 H   0  0  0  0  0  0  0  0  0  0  0  0
   -0.4082   -1.3399    5.5788 H   0  0  0  0  0  0  0  0  0  0  0  0
   -2.0903   -1.3732    5.0061 H   0  0  0  0  0  0  0  0  0  0  0  0
   -1.3723   -2.2797    2.4467 N   0  0  0  0  0  0  0  0  0  0  0  0
   -0.9104   -2.4056    1.0532 C   0  0  2  0  0  0  0  0  0  0  0  0
   -0.9777   -1.0759    0.2542 C   0  0  0  0  0  0  0  0  0  0  0  0
   -1.2302   -1.1101   -0.9416 O   0  0  0  0  0  0  0  0  0  0  0  0
   -1.7457   -3.5197    0.4083 C   0  0  0  0  0  0  0  0  0  0  0  0
   -2.2062   -2.7956    2.7161 H   0  0  0  0  0  0  0  0  0  0  0  0
    0.1287   -2.7400    1.0503 H   0  0  0  0  0  0  0  0  0  0  0  0
   -1.3959   -3.7173   -0.6102 H   0  0  0  0  0  0  0  0  0  0  0  0
   -2.8007   -3.2320    0.3602 H   0  0  0  0  0  0  0  0  0  0  0  0
   -1.6568   -4.4468    0.9831 H   0  0  0  0  0  0  0  0  0  0  0  0
   -0.2705    0.0255    0.7005 N   0  0  0  0  0  0  0  0  0  0  0  0
    0.9628    0.4359    0.0009 C   0  0  2  0  0  0  0  0  0  0  0  0
    2.0679   -0.6387   -0.0162 C   0  0  0  0  0  0  0  0  0  0  0  0
    2.6761   -0.8933   -1.0478 O   0  0  0  0  0  0  0  0  0  0  0  0
    1.5264    1.6974    0.6684 C   0  0  0  0  0  0  0  0  0  0  0  0
    0.2994    3.0693    0.6539 S   0  0  0  0  0  0  0  0  0  0  0  0
   -0.1698    0.0133    1.7159 H   0  0  0  0  0  0  0  0  0  0  0  0
    0.7144    0.6759   -1.0395 H   0  0  0  0  0  0  0  0  0  0  0  0
    1.8097    1.4774    1.7029 H   0  0  0  0  0  0  0  0  0  0  0  0
    2.4276    2.0168    0.1338 H   0  0  0  0  0  0  0  0  0  0  0  0
    1.0142    4.0671    1.2175 H   0  0  0  0  0  0  0  0  0  0  0  0
    2.3835   -1.3477    1.1292 N   0  0  0  0  0  0  0  0  0  0  0  0
    3.2922   -2.5021    1.1591 C   0  0  2  0  0  0  0  0  0  0  0  0
    2.6319   -3.7686    0.5617 C   0  0  0  0  0  0  0  0  0  0  0  0
    2.3298   -4.7300    1.2592 O   0  0  0  0  0  0  0  0  0  0  0  0
    3.7341   -2.6908    2.6151 C   0  0  0  0  0  0  0  0  0  0  0  0
    1.7901   -1.1878    1.9484 H   0  0  0  0  0  0  0  0  0  0  0  0
    4.1848   -2.2860    0.5623 H   0  0  0  0  0  0  0  0  0  0  0  0
    2.8713   -2.8992    3.2562 H   0  0  0  0  0  0  0  0  0  0  0  0
    4.4345   -3.5283    2.6937 H   0  0  0  0  0  0  0  0  0  0  0  0
    4.2316   -1.7883    2.9826 H   0  0  0  0  0  0  0  0  0  0  0  0
    2.2846   -3.7780   -0.7750 N   0  0  0  0  0  0  0  0  0  0  0  0
    1.5825   -4.8724   -1.4309 C   0  0  0  0  0  0  0  0  0  0  0  0
    2.4552   -2.9116   -1.2935 H   0  0  0  0  0  0  0  0  0  0  0  0
    2.2192   -5.7621   -1.4714 H   0  0  0  0  0  0  0  0  0  0  0  0
    0.6630   -5.1206   -0.8913 H   0  0  0  0  0  0  0  0  0  0  0  0
    1.3156   -4.5887   -2.4536 H   0  0  0  0  0  0  0  0  0  0  0  0
  1  2  2  0  0  0  0
  1  3  1  0  0  0  0
  1  7  1  0  0  0  0
  3  4  1  0  0  0  0
  3  5  1  0  0  0  0
  3  6  1  0  0  0  0
  7  8  1  0  0  0  0
  7 12  1  0  0  0  0
  8  9  1  0  0  0  0
  8 11  1  0  0  0  0
  8 13  1  0  0  0  0
  9 10  2  0  0  0  0
  9 17  1  0  0  0  0
 11 14  1  0  0  0  0
 11 15  1  0  0  0  0
 11 16  1  0  0  0  0
 17 18  1  0  0  0  0
 17 23  1  0  0  0  0
 18 19  1  0  0  0  0
 18 21  1  0  0  0  0
 18 24  1  0  0  0  0
 19 20  2  0  0  0  0
 19 28  1  0  0  0  0
 21 22  1  0  0  0  0
 21 25  1  0  0  0  0
 21 26  1  0  0  0  0
 22 27  1  0  0  0  0
 28 29  1  0  0  0  0
 28 33  1  0  0  0  0
 29 30  1  0  0  0  0
 29 32  1  0  0  0  0
 29 34  1  0  0  0  0
 30 31  2  0  0  0  0
 30 38  1  0  0  0  0
 32 35  1  0  0  0  0
 32 36  1  0  0  0  0
 32 37  1  0  0  0  0
 38 39  1  0  0  0  0
 38 40  1  0  0  0  0
 39 41  1  0  0  0  0
 39 42  1  0  0  0  0
 39 43  1  0  0  0  0
M  END
$$$$

  -OEChem-02062319063D

 43 42  0     1  0  0  0  0  0999 V2000
   -2.8494   -2.7493    3.4505 C   0  0  0  0  0  0  0  0  0  0  0  0
   -2.2345   -3.0887    4.4491 O   0  0  0  0  0  0  0  0  0  0  0  0
   -4.3327   -3.0470    3.3327 C   0  0  0  0  0  0  0  0  0  0  0  0
   -4.5187   -3.6794    2.4612 H   0  0  0  0  0  0  0  0  0  0  0  0
   -4.6852   -3.5674    4.2277 H   0  0  0  0  0  0  0  0  0  0  0  0
   -4.8932   -2.1151    3.2241 H   0  0  0  0  0  0  0  0  0  0  0  0
   -2.2028   -2.0819    2.4318 N   0  0  0  0  0  0  0  0  0  0  0  0
   -0.8406   -1.5384    2.5316 C   0  0  2  0  0  0  0  0  0  0  0  0
   -0.7829   -0.0885    1.9854 C   0  0  0  0  0  0  0  0  0  0  0  0
   -1.6865    0.2648    1.2365 O   0  0  0  0  0  0  0  0  0  0  0  0
    0.0918   -2.5106    1.8156 C   0  0  0  0  0  0  0  0  0  0  0  0
   -2.7923   -1.6782    1.7040 H   0  0  0  0  0  0  0  0  0  0  0  0
   -0.5385   -1.4839    3.5831 H   0  0  0  0  0  0  0  0  0  0  0  0
   -0.1195   -2.5279    0.7421 H   0  0  0  0  0  0  0  0  0  0  0  0
    1.1326   -2.2225    1.9791 H   0  0  0  0  0  0  0  0  0  0  0  0
   -0.0404   -3.5235    2.2099 H   0  0  0  0  0  0  0  0  0  0  0  0
    0.3941    0.6380    1.8939 N   0  0  0  0  0  0  0  0  0  0  0  0
    0.9013    1.1679    0.6070 C   0  0  2  0  0  0  0  0  0  0  0  0
    1.2216    0.1706   -0.5259 C   0  0  0  0  0  0  0  0  0  0  0  0
    0.9691    0.4710   -1.6838 O   0  0  0  0  0  0  0  0  0  0  0  0
    2.1772    1.9822    0.8744 C   0  0  0  0  0  0  0  0  0  0  0  0
    1.9321    3.2176    2.2180 S   0  0  0  0  0  0  0  0  0  0  0  0
    1.0999    0.3933    2.5818 H   0  0  0  0  0  0  0  0  0  0  0  0
    0.1419    1.8544    0.2137 H   0  0  0  0  0  0  0  0  0  0  0  0
    2.9982    1.3121    1.1487 H   0  0  0  0  0  0  0  0  0  0  0  0
    2.4666    2.5052   -0.0440 H   0  0  0  0  0  0  0  0  0  0  0  0
    3.1117    3.8764    2.1892 H   0  0  0  0  0  0  0  0  0  0  0  0
    1.9242   -0.9970   -0.2919 N   0  0  0  0  0  0  0  0  0  0  0  0
    2.3549   -1.9442   -1.3311 C   0  0  2  0  0  0  0  0  0  0  0  0
    2.6932   -3.3251   -0.7322 C   0  0  0  0  0  0  0  0  0  0  0  0
    2.9437   -3.4262    0.4640 O   0  0  0  0  0  0  0  0  0  0  0  0
    3.5874   -1.3817   -2.0513 C   0  0  0  0  0  0  0  0  0  0  0  0
    2.1465   -1.2391    0.6715 H   0  0  0  0  0  0  0  0  0  0  0  0
    1.5425   -2.0820   -2.0528 H   0  0  0  0  0  0  0  0  0  0  0  0
    4.4074   -1.2284   -1.3425 H   0  0  0  0  0  0  0  0  0  0  0  0
    3.9251   -2.0727   -2.8296 H   0  0  0  0  0  0  0  0  0  0  0  0
    3.3538   -0.4235   -2.5255 H   0  0  0  0  0  0  0  0  0  0  0  0
    2.7196   -4.4539   -1.5298 N   0  0  0  0  0  0  0  0  0  0  0  0
    3.0219   -5.7863   -1.0200 C   0  0  0  0  0  0  0  0  0  0  0  0
    2.5004   -4.3420   -2.5157 H   0  0  0  0  0  0  0  0  0  0  0  0
    4.0185   -5.8067   -0.5665 H   0  0  0  0  0  0  0  0  0  0  0  0
    2.2855   -6.0843   -0.2661 H   0  0  0  0  0  0  0  0  0  0  0  0
    2.9986   -6.5178   -1.8337 H   0  0  0  0  0  0  0  0  0  0  0  0
  1  2  2  0  0  0  0
  1  3  1  0  0  0  0
  1  7  1  0  0  0  0
  3  4  1  0  0  0  0
  3  5  1  0  0  0  0
  3  6  1  0  0  0  0
  7  8  1  0  0  0  0
  7 12  1  0  0  0  0
  8  9  1  0  0  0  0
  8 11  1  0  0  0  0
  8 13  1  0  0  0  0
  9 10  2  0  0  0  0
  9 17  1  0  0  0  0
 11 14  1  0  0  0  0
 11 15  1  0  0  0  0
 11 16  1  0  0  0  0
 17 18  1  0  0  0  0
 17 23  1  0  0  0  0
 18 19  1  0  0  0  0
 18 21  1  0  0  0  0
 18 24  1  0  0  0  0
 19 20  2  0  0  0  0
 19 28  1  0  0  0  0
 21 22  1  0  0  0  0
 21 25  1  0  0  0  0
 21 26  1  0  0  0  0
 22 27  1  0  0  0  0
 28 29  1  0  0  0  0
 28 33  1  0  0  0  0
 29 30  1  0  0  0  0
 29 32  1  0  0  0  0
 29 34  1  0  0  0  0
 30 31  2  0  0  0  0
 30 38  1  0  0  0  0
 32 35  1  0  0  0  0
 32 36  1  0  0  0  0
 32 37  1  0  0  0  0
 38 39  1  0  0  0  0
 38 40  1  0  0  0  0
 39 41  1  0  0  0  0
 39 42  1  0  0  0  0
 39 43  1  0  0  0  0
M  END
$$$$

  -OEChem-02062319063D

 43 42  0     1  0  0  0  0  0999 V2000
   -2.5688   -2.9735    3.3500 C   0  0  0  0  0  0  0  0  0  0  0  0
   -1.8477   -3.3782    4.2483 O   0  0  0  0  0  0  0  0  0  0  0  0
   -4.0356   -3.3594    3.3188 C   0  0  0  0  0  0  0  0  0  0  0  0
   -4.2662   -3.8736    2.3827 H   0  0  0  0  0  0  0  0  0  0  0  0
   -4.2679   -4.0262    4.1539 H   0  0  0  0  0  0  0  0  0  0  0  0
   -4.6581   -2.4648    3.3979 H   0  0  0  0  0  0  0  0  0  0  0  0
   -2.0560   -2.1534    2.3676 N   0  0  0  0  0  0  0  0  0  0  0  0
   -0.7107   -1.5639    2.3982 C   0  0  2  0  0  0  0  0  0  0  0  0
   -0.7317   -0.0988    1.9038 C   0  0  0  0  0  0  0  0  0  0  0  0
   -1.6749    0.2719    1.2150 O   0  0  0  0  0  0  0  0  0  0  0  0
    0.2066   -2.4471    1.5522 C   0  0  0  0  0  0  0  0  0  0  0  0
   -2.7229   -1.7278    1.7240 H   0  0  0  0  0  0  0  0  0  0  0  0
   -0.3357   -1.5473    3.4271 H   0  0  0  0  0  0  0  0  0  0  0  0
   -0.1072   -2.4347    0.5037 H   0  0  0  0  0  0  0  0  0  0  0  0
    1.2402   -2.0980    1.6189 H   0  0  0  0  0  0  0  0  0  0  0  0
    0.1751   -3.4810    1.9106 H   0  0  0  0  0  0  0  0  0  0  0  0
    0.4228    0.6640    1.8693 N   0  0  0  0  0  0  0  0  0  0  0  0
    0.7797    1.5168    0.7166 C   0  0  2  0  0  0  0  0  0  0  0  0
    0.9552    0.7883   -0.6311 C   0  0  0  0  0  0  0  0  0  0  0  0
    0.6031    1.3311   -1.6689 O   0  0  0  0  0  0  0  0  0  0  0  0
    2.0879    2.2610    1.0232 C   0  0  0  0  0  0  0  0  0  0  0  0
    2.0117    3.1242    2.6480 S   0  0  0  0  0  0  0  0  0  0  0  0
    1.1798    0.3594    2.4743 H   0  0  0  0  0  0  0  0  0  0  0  0
   -0.0158    2.2592    0.5835 H   0  0  0  0  0  0  0  0  0  0  0  0
    2.9262    1.5567    1.0297 H   0  0  0  0  0  0  0  0  0  0  0  0
    2.2763    2.9949    0.2318 H   0  0  0  0  0  0  0  0  0  0  0  0
    3.1902    3.7855    2.6505 H   0  0  0  0  0  0  0  0  0  0  0  0
    1.6710   -0.3920   -0.7122 N   0  0  0  0  0  0  0  0  0  0  0  0
    1.9361   -1.1300   -1.9542 C   0  0  2  0  0  0  0  0  0  0  0  0
    2.2610   -2.6097   -1.6652 C   0  0  0  0  0  0  0  0  0  0  0  0
    2.6321   -2.9461   -0.5457 O   0  0  0  0  0  0  0  0  0  0  0  0
    3.1091   -0.4736   -2.6924 C   0  0  0  0  0  0  0  0  0  0  0  0
    1.9484   -0.8418    0.1580 H   0  0  0  0  0  0  0  0  0  0  0  0
    1.0446   -1.1006   -2.5899 H   0  0  0  0  0  0  0  0  0  0  0  0
    4.0075   -0.4811   -2.0670 H   0  0  0  0  0  0  0  0  0  0  0  0
    3.3263   -1.0110   -3.6204 H   0  0  0  0  0  0  0  0  0  0  0  0
    2.8710    0.5638   -2.9468 H   0  0  0  0  0  0  0  0  0  0  0  0
    2.1284   -3.5670   -2.6532 N   0  0  0  0  0  0  0  0  0  0  0  0
    2.3949   -4.9834   -2.4340 C   0  0  0  0  0  0  0  0  0  0  0  0
    1.8035   -3.2621   -3.5663 H   0  0  0  0  0  0  0  0  0  0  0  0
    3.4386   -5.1365   -2.1399 H   0  0  0  0  0  0  0  0  0  0  0  0
    1.7454   -5.3780   -1.6456 H   0  0  0  0  0  0  0  0  0  0  0  0
    2.2078   -5.5501   -3.3510 H   0  0  0  0  0  0  0  0  0  0  0  0
  1  2  2  0  0  0  0
  1  3  1  0  0  0  0
  1  7  1  0  0  0  0
  3  4  1  0  0  0  0
  3  5  1  0  0  0  0
  3  6  1  0  0  0  0
  7  8  1  0  0  0  0
  7 12  1  0  0  0  0
  8  9  1  0  0  0  0
  8 11  1  0  0  0  0
  8 13  1  0  0  0  0
  9 10  2  0  0  0  0
  9 17  1  0  0  0  0
 11 14  1  0  0  0  0
 11 15  1  0  0  0  0
 11 16  1  0  0  0  0
 17 18  1  0  0  0  0
 17 23  1  0  0  0  0
 18 19  1  0  0  0  0
 18 21  1  0  0  0  0
 18 24  1  0  0  0  0
 19 20  2  0  0  0  0
 19 28  1  0  0  0  0
 21 22  1  0  0  0  0
 21 25  1  0  0  0  0
 21 26  1  0  0  0  0
 22 27  1  0  0  0  0
 28 29  1  0  0  0  0
 28 33  1  0  0  0  0
 29 30  1  0  0  0  0
 29 32  1  0  0  0  0
 29 34  1  0  0  0  0
 30 31  2  0  0  0  0
 30 38  1  0  0  0  0
 32 35  1  0  0  0  0
 32 36  1  0  0  0  0
 32 37  1  0  0  0  0
 38 39  1  0  0  0  0
 38 40  1  0  0  0  0
 39 41  1  0  0  0  0
 39 42  1  0  0  0  0
 39 43  1  0  0  0  0
M  END
$$$$

  -OEChem-02062319063D

 43 42  0     1  0  0  0  0  0999 V2000
   -2.3983   -3.0924    3.2626 C   0  0  0  0  0  0  0  0  0  0  0  0
   -1.6201   -3.5162    4.1024 O   0  0  0  0  0  0  0  0  0  0  0  0
   -3.8525   -3.5241    3.2847 C   0  0  0  0  0  0  0  0  0  0  0  0
   -4.1071   -4.0232    2.3466 H   0  0  0  0  0  0  0  0  0  0  0  0
   -4.0273   -4.2178    4.1120 H   0  0  0  0  0  0  0  0  0  0  0  0
   -4.4995   -2.6526    3.4127 H   0  0  0  0  0  0  0  0  0  0  0  0
   -1.9612   -2.2113    2.2968 N   0  0  0  0  0  0  0  0  0  0  0  0
   -0.6261   -1.6003    2.2716 C   0  0  2  0  0  0  0  0  0  0  0  0
   -0.6953   -0.1268    1.8159 C   0  0  0  0  0  0  0  0  0  0  0  0
   -1.6641    0.2577    1.1720 O   0  0  0  0  0  0  0  0  0  0  0  0
    0.2558   -2.4330    1.3380 C   0  0  0  0  0  0  0  0  0  0  0  0
   -2.6688   -1.7856    1.6986 H   0  0  0  0  0  0  0  0  0  0  0  0
   -0.1919   -1.6081    3.2773 H   0  0  0  0  0  0  0  0  0  0  0  0
   -0.1418   -2.4151    0.3183 H   0  0  0  0  0  0  0  0  0  0  0  0
    1.2783   -2.0449    1.3222 H   0  0  0  0  0  0  0  0  0  0  0  0
    0.2909   -3.4730    1.6780 H   0  0  0  0  0  0  0  0  0  0  0  0
    0.4309    0.6747    1.8466 N   0  0  0  0  0  0  0  0  0  0  0  0
    0.6628    1.7963    0.9173 C   0  0  2  0  0  0  0  0  0  0  0  0
    0.7075    1.3957   -0.5704 C   0  0  0  0  0  0  0  0  0  0  0  0
    0.2823    2.1605   -1.4255 O   0  0  0  0  0  0  0  0  0  0  0  0
    1.9867    2.4864    1.2748 C   0  0  0  0  0  0  0  0  0  0  0  0
    2.0654    2.8985    3.0680 S   0  0  0  0  0  0  0  0  0  0  0  0
    1.2040    0.3712    2.4329 H   0  0  0  0  0  0  0  0  0  0  0  0
   -0.1520    2.5195    1.0384 H   0  0  0  0  0  0  0  0  0  0  0  0
    2.8290    1.8350    1.0188 H   0  0  0  0  0  0  0  0  0  0  0  0
    2.0838    3.4046    0.6846 H   0  0  0  0  0  0  0  0  0  0  0  0
    3.2236    3.5922    3.1269 H   0  0  0  0  0  0  0  0  0  0  0  0
    1.4246    0.2832   -0.9697 N   0  0  0  0  0  0  0  0  0  0  0  0
    1.5014   -0.2007   -2.3533 C   0  0  2  0  0  0  0  0  0  0  0  0
    1.7277   -1.7261   -2.4003 C   0  0  0  0  0  0  0  0  0  0  0  0
    2.0852   -2.3236   -1.3901 O   0  0  0  0  0  0  0  0  0  0  0  0
    2.6422    0.5296   -3.0697 C   0  0  0  0  0  0  0  0  0  0  0  0
    1.7041   -0.3731   -0.2425 H   0  0  0  0  0  0  0  0  0  0  0  0
    0.5567    0.0094   -2.8663 H   0  0  0  0  0  0  0  0  0  0  0  0
    3.5960    0.3306   -2.5710 H   0  0  0  0  0  0  0  0  0  0  0  0
    2.7166    0.1992   -4.1100 H   0  0  0  0  0  0  0  0  0  0  0  0
    2.4653    1.6098   -3.0655 H   0  0  0  0  0  0  0  0  0  0  0  0
    1.5248   -2.4327   -3.5710 N   0  0  0  0  0  0  0  0  0  0  0  0
    1.7033   -3.8759   -3.6761 C   0  0  0  0  0  0  0  0  0  0  0  0
    1.2100   -1.9145   -4.3863 H   0  0  0  0  0  0  0  0  0  0  0  0
    2.7301   -4.1555   -3.4177 H   0  0  0  0  0  0  0  0  0  0  0  0
    1.0159   -4.3974   -3.0018 H   0  0  0  0  0  0  0  0  0  0  0  0
    1.5028   -4.2085   -4.6991 H   0  0  0  0  0  0  0  0  0  0  0  0
  1  2  2  0  0  0  0
  1  3  1  0  0  0  0
  1  7  1  0  0  0  0
  3  4  1  0  0  0  0
  3  5  1  0  0  0  0
  3  6  1  0  0  0  0
  7  8  1  0  0  0  0
  7 12  1  0  0  0  0
  8  9  1  0  0  0  0
  8 11  1  0  0  0  0
  8 13  1  0  0  0  0
  9 10  2  0  0  0  0
  9 17  1  0  0  0  0
 11 14  1  0  0  0  0
 11 15  1  0  0  0  0
 11 16  1  0  0  0  0
 17 18  1  0  0  0  0
 17 23  1  0  0  0  0
 18 19  1  0  0  0  0
 18 21  1  0  0  0  0
 18 24  1  0  0  0  0
 19 20  2  0  0  0  0
 19 28  1  0  0  0  0
 21 22  1  0  0  0  0
 21 25  1  0  0  0  0
 21 26  1  0  0  0  0
 22 27  1  0  0  0  0
 28 29  1  0  0  0  0
 28 33  1  0  0  0  0
 29 30  1  0  0  0  0
 29 32  1  0  0  0  0
 29 34  1  0  0  0  0
 30 31  2  0  0  0  0
 30 38  1  0  0  0  0
 32 35  1  0  0  0  0
 32 36  1  0  0  0  0
 32 37  1  0  0  0  0
 38 39  1  0  0  0  0
 38 40  1  0  0  0  0
 39 41  1  0  0  0  0
 39 42  1  0  0  0  0
 39 43  1  0  0  0  0
M  END
$$$$

  -OEChem-02062319063D

 43 42  0     1  0  0  0  0  0999 V2000
   -2.2706   -3.1657    3.1357 C   0  0  0  0  0  0  0  0  0  0  0  0
   -1.4402   -3.6084    3.9135 O   0  0  0  0  0  0  0  0  0  0  0  0
   -3.7188   -3.6059    3.2357 C   0  0  0  0  0  0  0  0  0  0  0  0
   -4.0085   -4.1432    2.3293 H   0  0  0  0  0  0  0  0  0  0  0  0
   -3.8525   -4.2669    4.0966 H   0  0  0  0  0  0  0  0  0  0  0  0
   -4.3668   -2.7345    3.3577 H   0  0  0  0  0  0  0  0  0  0  0  0
   -1.8969   -2.2576    2.1683 N   0  0  0  0  0  0  0  0  0  0  0  0
   -0.5645   -1.6479    2.0712 C   0  0  2  0  0  0  0  0  0  0  0  0
   -0.6552   -0.1581    1.6817 C   0  0  0  0  0  0  0  0  0  0  0  0
   -1.6399    0.2577    1.0834 O   0  0  0  0  0  0  0  0  0  0  0  0
    0.2400   -2.4333    1.0315 C   0  0  0  0  0  0  0  0  0  0  0  0
   -2.6396   -1.8250    1.6202 H   0  0  0  0  0  0  0  0  0  0  0  0
   -0.0540   -1.7021    3.0389 H   0  0  0  0  0  0  0  0  0  0  0  0
   -0.2503   -2.3888    0.0534 H   0  0  0  0  0  0  0  0  0  0  0  0
    1.2495   -2.0235    0.9321 H   0  0  0  0  0  0  0  0  0  0  0  0
    0.3233   -3.4827    1.3318 H   0  0  0  0  0  0  0  0  0  0  0  0
    0.4410    0.6728    1.8214 N   0  0  0  0  0  0  0  0  0  0  0  0
    0.5601    2.0046    1.2008 C   0  0  2  0  0  0  0  0  0  0  0  0
    0.4805    1.9795   -0.3378 C   0  0  0  0  0  0  0  0  0  0  0  0
   -0.0305    2.9091   -0.9480 O   0  0  0  0  0  0  0  0  0  0  0  0
    1.8946    2.6381    1.6161 C   0  0  0  0  0  0  0  0  0  0  0  0
    2.1182    2.5798    3.4434 S   0  0  0  0  0  0  0  0  0  0  0  0
    1.1895    0.3621    2.4366 H   0  0  0  0  0  0  0  0  0  0  0  0
   -0.2593    2.6348    1.5647 H   0  0  0  0  0  0  0  0  0  0  0  0
    2.7244    2.1097    1.1352 H   0  0  0  0  0  0  0  0  0  0  0  0
    1.9208    3.6791    1.2756 H   0  0  0  0  0  0  0  0  0  0  0  0
    3.2696    3.2737    3.5867 H   0  0  0  0  0  0  0  0  0  0  0  0
    1.1930    1.0259   -1.0393 N   0  0  0  0  0  0  0  0  0  0  0  0
    1.0635    0.8101   -2.4840 C   0  0  2  0  0  0  0  0  0  0  0  0
    1.1697   -0.6909   -2.8266 C   0  0  0  0  0  0  0  0  0  0  0  0
    1.5580   -1.4885   -1.9780 O   0  0  0  0  0  0  0  0  0  0  0  0
    2.1584    1.6101   -3.1956 C   0  0  0  0  0  0  0  0  0  0  0  0
    1.5034    0.2194   -0.4987 H   0  0  0  0  0  0  0  0  0  0  0  0
    0.0811    1.1557   -2.8244 H   0  0  0  0  0  0  0  0  0  0  0  0
    3.1494    1.2714   -2.8766 H   0  0  0  0  0  0  0  0  0  0  0  0
    2.0799    1.4886   -4.2801 H   0  0  0  0  0  0  0  0  0  0  0  0
    2.0616    2.6749   -2.9607 H   0  0  0  0  0  0  0  0  0  0  0  0
    0.8241   -1.1518   -4.0833 N   0  0  0  0  0  0  0  0  0  0  0  0
    0.8975   -2.5558   -4.4692 C   0  0  0  0  0  0  0  0  0  0  0  0
    0.4834   -0.4722   -4.7575 H   0  0  0  0  0  0  0  0  0  0  0  0
    1.9224   -2.9280   -4.3682 H   0  0  0  0  0  0  0  0  0  0  0  0
    0.2387   -3.1620   -3.8385 H   0  0  0  0  0  0  0  0  0  0  0  0
    0.5875   -2.6784   -5.5114 H   0  0  0  0  0  0  0  0  0  0  0  0
  1  2  2  0  0  0  0
  1  3  1  0  0  0  0
  1  7  1  0  0  0  0
  3  4  1  0  0  0  0
  3  5  1  0  0  0  0
  3  6  1  0  0  0  0
  7  8  1  0  0  0  0
  7 12  1  0  0  0  0
  8  9  1  0  0  0  0
  8 11  1  0  0  0  0
  8 13  1  0  0  0  0
  9 10  2  0  0  0  0
  9 17  1  0  0  0  0
 11 14  1  0  0  0  0
 11 15  1  0  0  0  0
 11 16  1  0  0  0  0
 17 18  1  0  0  0  0
 17 23  1  0  0  0  0
 18 19  1  0  0  0  0
 18 21  1  0  0  0  0
 18 24  1  0  0  0  0
 19 20  2  0  0  0  0
 19 28  1  0  0  0  0
 21 22  1  0  0  0  0
 21 25  1  0  0  0  0
 21 26  1  0  0  0  0
 22 27  1  0  0  0  0
 28 29  1  0  0  0  0
 28 33  1  0  0  0  0
 29 30  1  0  0  0  0
 29 32  1  0  0  0  0
 29 34  1  0  0  0  0
 30 31  2  0  0  0  0
 30 38  1  0  0  0  0
 32 35  1  0  0  0  0
 32 36  1  0  0  0  0
 32 37  1  0  0  0  0
 38 39  1  0  0  0  0
 38 40  1  0  0  0  0
 39 41  1  0  0  0  0
 39 42  1  0  0  0  0
 39 43  1  0  0  0  0
M  END
$$$$
