
  -OEChem-05262214473D

 49 48  0     1  0  0  0  0  0999 V2000
   -0.0561   -5.3799    2.6949 C   0  0  0  0  0  0  0  0  0  0  0  0
    0.7325   -5.0736    3.5815 O   0  0  0  0  0  0  0  0  0  0  0  0
   -1.0067   -6.5099    2.9135 C   0  0  0  0  0  0  0  0  0  0  0  0
   -0.5910   -7.4777    2.5899 H   0  0  0  0  0  0  0  0  0  0  0  0
   -1.2629   -6.6440    3.9767 H   0  0  0  0  0  0  0  0  0  0  0  0
   -1.9729   -6.4206    2.3918 H   0  0  0  0  0  0  0  0  0  0  0  0
   -0.1735   -4.7694    1.4571 N   0  0  0  0  0  0  0  0  0  0  0  0
    0.6439   -3.6603    1.0409 C   0  0  2  0  0  0  0  0  0  0  0  0
   -0.2788   -2.5625    0.5280 C   0  0  0  0  0  0  0  0  0  0  0  0
   -1.4197   -2.7791    0.1251 O   0  0  0  0  0  0  0  0  0  0  0  0
    1.6395   -4.0779   -0.0301 C   0  0  0  0  0  0  0  0  0  0  0  0
   -0.8741   -5.1235    0.8083 H   0  0  0  0  0  0  0  0  0  0  0  0
    1.1738   -3.3062    1.9318 H   0  0  0  0  0  0  0  0  0  0  0  0
    1.1270   -4.4358   -0.9305 H   0  0  0  0  0  0  0  0  0  0  0  0
    2.2797   -3.2400   -0.3251 H   0  0  0  0  0  0  0  0  0  0  0  0
    2.2827   -4.8880    0.3303 H   0  0  0  0  0  0  0  0  0  0  0  0
    0.3351   -1.3153    0.5316 N   0  0  0  0  0  0  0  0  0  0  0  0
   -0.3268   -0.1184    0.0807 C   0  0  2  0  0  0  0  0  0  0  0  0
    0.6348    1.0574    0.2231 C   0  0  0  0  0  0  0  0  0  0  0  0
    1.7688    0.9422    0.6836 O   0  0  0  0  0  0  0  0  0  0  0  0
   -1.6606    0.1128    0.8041 C   0  0  0  0  0  0  0  0  0  0  0  0
   -2.7199   -0.9472    0.4927 C   0  0  0  0  0  0  0  0  0  0  0  0
   -3.1090   -0.9569   -1.2828 S   0  0  0  0  0  0  0  0  0  0  0  0
   -3.9463    0.6418   -1.3747 C   0  0  0  0  0  0  0  0  0  0  0  0
    1.2790   -1.2290    0.9021 H   0  0  0  0  0  0  0  0  0  0  0  0
   -0.5219   -0.2691   -0.9880 H   0  0  0  0  0  0  0  0  0  0  0  0
   -2.0416    1.1026    0.5188 H   0  0  0  0  0  0  0  0  0  0  0  0
   -1.4805    0.1401    1.8864 H   0  0  0  0  0  0  0  0  0  0  0  0
   -3.6471   -0.7471    1.0380 H   0  0  0  0  0  0  0  0  0  0  0  0
   -2.3704   -1.9465    0.7684 H   0  0  0  0  0  0  0  0  0  0  0  0
   -4.2715    0.8327   -2.4003 H   0  0  0  0  0  0  0  0  0  0  0  0
   -3.2639    1.4365   -1.0634 H   0  0  0  0  0  0  0  0  0  0  0  0
   -4.8190    0.6420   -0.7171 H   0  0  0  0  0  0  0  0  0  0  0  0
    0.0673    2.2531   -0.1932 N   0  0  0  0  0  0  0  0  0  0  0  0
    0.7767    3.5100   -0.1428 C   0  0  2  0  0  0  0  0  0  0  0  0
   -0.2067    4.5879    0.2935 C   0  0  0  0  0  0  0  0  0  0  0  0
   -1.4240    4.4778    0.1630 O   0  0  0  0  0  0  0  0  0  0  0  0
    1.3947    3.8510   -1.4899 C   0  0  0  0  0  0  0  0  0  0  0  0
   -0.8687    2.2521   -0.5875 H   0  0  0  0  0  0  0  0  0  0  0  0
    1.5600    3.4009    0.6152 H   0  0  0  0  0  0  0  0  0  0  0  0
    0.6251    3.9642   -2.2622 H   0  0  0  0  0  0  0  0  0  0  0  0
    1.9561    4.7899   -1.4426 H   0  0  0  0  0  0  0  0  0  0  0  0
    2.0791    3.0605   -1.8161 H   0  0  0  0  0  0  0  0  0  0  0  0
    0.4373    5.7054    0.8061 N   0  0  0  0  0  0  0  0  0  0  0  0
   -0.2766    6.8693    1.2766 C   0  0  0  0  0  0  0  0  0  0  0  0
    1.4492    5.7022    0.8946 H   0  0  0  0  0  0  0  0  0  0  0  0
   -0.3746    7.5962    0.4568 H   0  0  0  0  0  0  0  0  0  0  0  0
   -1.2770    6.5705    1.6230 H   0  0  0  0  0  0  0  0  0  0  0  0
    0.2778    7.3278    2.1087 H   0  0  0  0  0  0  0  0  0  0  0  0
  1  3  1  0  0  0  0
  1  7  1  0  0  0  0
  1  2  2  0  0  0  0
 35 36  1  0  0  0  0
 36 44  1  0  0  0  0
 36 37  2  0  0  0  0
  8  9  1  0  0  0  0
  9 17  1  0  0  0  0
  9 10  2  0  0  0  0
 18 19  1  0  0  0  0
 19 34  1  0  0  0  0
 19 20  2  0  0  0  0
 35 38  1  0  0  0  0
  8 11  1  0  0  0  0
 44 45  1  0  0  0  0
 23 24  1  0  0  0  0
 21 22  1  0  0  0  0
 18 21  1  0  0  0  0
 22 23  1  0  0  0  0
 34 35  1  0  0  0  0
  7  8  1  0  0  0  0
 17 18  1  0  0  0  0
  3  4  1  0  0  0  0
  3  5  1  0  0  0  0
  3  6  1  0  0  0  0
 38 41  1  0  0  0  0
 38 42  1  0  0  0  0
 38 43  1  0  0  0  0
 11 14  1  0  0  0  0
 11 15  1  0  0  0  0
 11 16  1  0  0  0  0
 45 47  1  0  0  0  0
 45 48  1  0  0  0  0
 45 49  1  0  0  0  0
 24 31  1  0  0  0  0
 24 32  1  0  0  0  0
 24 33  1  0  0  0  0
 21 27  1  0  0  0  0
 21 28  1  0  0  0  0
 22 29  1  0  0  0  0
 22 30  1  0  0  0  0
 35 40  1  0  0  0  0
  8 13  1  0  0  0  0
 18 26  1  0  0  0  0
 44 46  1  0  0  0  0
  7 12  1  0  0  0  0
 34 39  1  0  0  0  0
 17 25  1  0  0  0  0
M  END
$$$$

  -OEChem-05262214473D

 49 48  0     1  0  0  0  0  0999 V2000
   -0.0561   -5.3799    2.6949 C   0  0  0  0  0  0  0  0  0  0  0  0
    0.7325   -5.0736    3.5815 O   0  0  0  0  0  0  0  0  0  0  0  0
   -1.0067   -6.5099    2.9135 C   0  0  0  0  0  0  0  0  0  0  0  0
   -0.5910   -7.4777    2.5899 H   0  0  0  0  0  0  0  0  0  0  0  0
   -1.2629   -6.6440    3.9767 H   0  0  0  0  0  0  0  0  0  0  0  0
   -1.9729   -6.4206    2.3918 H   0  0  0  0  0  0  0  0  0  0  0  0
   -0.1735   -4.7694    1.4571 N   0  0  0  0  0  0  0  0  0  0  0  0
    0.6439   -3.6603    1.0409 C   0  0  2  0  0  0  0  0  0  0  0  0
   -0.2788   -2.5625    0.5280 C   0  0  0  0  0  0  0  0  0  0  0  0
   -1.4197   -2.7791    0.1251 O   0  0  0  0  0  0  0  0  0  0  0  0
    1.6395   -4.0779   -0.0301 C   0  0  0  0  0  0  0  0  0  0  0  0
   -0.8741   -5.1235    0.8083 H   0  0  0  0  0  0  0  0  0  0  0  0
    1.1738   -3.3062    1.9318 H   0  0  0  0  0  0  0  0  0  0  0  0
    1.1270   -4.4358   -0.9305 H   0  0  0  0  0  0  0  0  0  0  0  0
    2.2797   -3.2400   -0.3251 H   0  0  0  0  0  0  0  0  0  0  0  0
    2.2827   -4.8880    0.3303 H   0  0  0  0  0  0  0  0  0  0  0  0
    0.3351   -1.3153    0.5316 N   0  0  0  0  0  0  0  0  0  0  0  0
   -0.3268   -0.1184    0.0807 C   0  0  2  0  0  0  0  0  0  0  0  0
    0.6348    1.0574    0.2231 C   0  0  0  0  0  0  0  0  0  0  0  0
    1.8391    0.9159    0.4250 O   0  0  0  0  0  0  0  0  0  0  0  0
   -1.6606    0.1128    0.8041 C   0  0  0  0  0  0  0  0  0  0  0  0
   -2.7199   -0.9472    0.4927 C   0  0  0  0  0  0  0  0  0  0  0  0
   -3.1090   -0.9569   -1.2828 S   0  0  0  0  0  0  0  0  0  0  0  0
   -3.9463    0.6418   -1.3747 C   0  0  0  0  0  0  0  0  0  0  0  0
    1.2790   -1.2290    0.9021 H   0  0  0  0  0  0  0  0  0  0  0  0
   -0.5219   -0.2691   -0.9880 H   0  0  0  0  0  0  0  0  0  0  0  0
   -2.0416    1.1026    0.5188 H   0  0  0  0  0  0  0  0  0  0  0  0
   -1.4805    0.1401    1.8864 H   0  0  0  0  0  0  0  0  0  0  0  0
   -3.6471   -0.7471    1.0380 H   0  0  0  0  0  0  0  0  0  0  0  0
   -2.3704   -1.9465    0.7684 H   0  0  0  0  0  0  0  0  0  0  0  0
   -4.2715    0.8327   -2.4003 H   0  0  0  0  0  0  0  0  0  0  0  0
   -3.2639    1.4365   -1.0634 H   0  0  0  0  0  0  0  0  0  0  0  0
   -4.8190    0.6420   -0.7171 H   0  0  0  0  0  0  0  0  0  0  0  0
   -0.0140    2.2804    0.1309 N   0  0  0  0  0  0  0  0  0  0  0  0
    0.6815    3.5406    0.2476 C   0  0  2  0  0  0  0  0  0  0  0  0
   -0.2020    4.4935    1.0419 C   0  0  0  0  0  0  0  0  0  0  0  0
   -1.4198    4.3564    1.1380 O   0  0  0  0  0  0  0  0  0  0  0  0
    1.0127    4.1186   -1.1195 C   0  0  0  0  0  0  0  0  0  0  0  0
   -1.0102    2.3046   -0.0654 H   0  0  0  0  0  0  0  0  0  0  0  0
    1.6022    3.3431    0.8074 H   0  0  0  0  0  0  0  0  0  0  0  0
    0.1025    4.3230   -1.6950 H   0  0  0  0  0  0  0  0  0  0  0  0
    1.5650    5.0597   -1.0292 H   0  0  0  0  0  0  0  0  0  0  0  0
    1.6234    3.4192   -1.7007 H   0  0  0  0  0  0  0  0  0  0  0  0
    0.5235    5.5393    1.5951 N   0  0  0  0  0  0  0  0  0  0  0  0
   -0.0898    6.5825    2.3834 C   0  0  0  0  0  0  0  0  0  0  0  0
    1.5325    5.5631    1.4802 H   0  0  0  0  0  0  0  0  0  0  0  0
   -0.3565    7.4271    1.7310 H   0  0  0  0  0  0  0  0  0  0  0  0
   -0.9976    6.1915    2.8662 H   0  0  0  0  0  0  0  0  0  0  0  0
    0.6174    6.9236    3.1539 H   0  0  0  0  0  0  0  0  0  0  0  0
  1  3  1  0  0  0  0
  1  7  1  0  0  0  0
  1  2  2  0  0  0  0
 35 36  1  0  0  0  0
 36 44  1  0  0  0  0
 36 37  2  0  0  0  0
  8  9  1  0  0  0  0
  9 17  1  0  0  0  0
  9 10  2  0  0  0  0
 18 19  1  0  0  0  0
 19 34  1  0  0  0  0
 19 20  2  0  0  0  0
 35 38  1  0  0  0  0
  8 11  1  0  0  0  0
 44 45  1  0  0  0  0
 23 24  1  0  0  0  0
 21 22  1  0  0  0  0
 18 21  1  0  0  0  0
 22 23  1  0  0  0  0
 34 35  1  0  0  0  0
  7  8  1  0  0  0  0
 17 18  1  0  0  0  0
  3  4  1  0  0  0  0
  3  5  1  0  0  0  0
  3  6  1  0  0  0  0
 38 41  1  0  0  0  0
 38 42  1  0  0  0  0
 38 43  1  0  0  0  0
 11 14  1  0  0  0  0
 11 15  1  0  0  0  0
 11 16  1  0  0  0  0
 45 47  1  0  0  0  0
 45 48  1  0  0  0  0
 45 49  1  0  0  0  0
 24 31  1  0  0  0  0
 24 32  1  0  0  0  0
 24 33  1  0  0  0  0
 21 27  1  0  0  0  0
 21 28  1  0  0  0  0
 22 29  1  0  0  0  0
 22 30  1  0  0  0  0
 35 40  1  0  0  0  0
  8 13  1  0  0  0  0
 18 26  1  0  0  0  0
 44 46  1  0  0  0  0
  7 12  1  0  0  0  0
 34 39  1  0  0  0  0
 17 25  1  0  0  0  0
M  END
$$$$

  -OEChem-05262214473D

 49 48  0     1  0  0  0  0  0999 V2000
   -0.0561   -5.3799    2.6949 C   0  0  0  0  0  0  0  0  0  0  0  0
    0.7325   -5.0736    3.5815 O   0  0  0  0  0  0  0  0  0  0  0  0
   -1.0067   -6.5099    2.9135 C   0  0  0  0  0  0  0  0  0  0  0  0
   -0.5910   -7.4777    2.5899 H   0  0  0  0  0  0  0  0  0  0  0  0
   -1.2629   -6.6440    3.9767 H   0  0  0  0  0  0  0  0  0  0  0  0
   -1.9729   -6.4206    2.3918 H   0  0  0  0  0  0  0  0  0  0  0  0
   -0.1735   -4.7694    1.4571 N   0  0  0  0  0  0  0  0  0  0  0  0
    0.6439   -3.6603    1.0409 C   0  0  2  0  0  0  0  0  0  0  0  0
   -0.2788   -2.5625    0.5280 C   0  0  0  0  0  0  0  0  0  0  0  0
   -1.4197   -2.7791    0.1251 O   0  0  0  0  0  0  0  0  0  0  0  0
    1.6395   -4.0779   -0.0301 C   0  0  0  0  0  0  0  0  0  0  0  0
   -0.8741   -5.1235    0.8083 H   0  0  0  0  0  0  0  0  0  0  0  0
    1.1738   -3.3062    1.9318 H   0  0  0  0  0  0  0  0  0  0  0  0
    1.1270   -4.4358   -0.9305 H   0  0  0  0  0  0  0  0  0  0  0  0
    2.2797   -3.2400   -0.3251 H   0  0  0  0  0  0  0  0  0  0  0  0
    2.2827   -4.8880    0.3303 H   0  0  0  0  0  0  0  0  0  0  0  0
    0.3351   -1.3153    0.5316 N   0  0  0  0  0  0  0  0  0  0  0  0
   -0.3268   -0.1184    0.0807 C   0  0  2  0  0  0  0  0  0  0  0  0
    0.6348    1.0574    0.2231 C   0  0  0  0  0  0  0  0  0  0  0  0
    1.8562    0.9345    0.1570 O   0  0  0  0  0  0  0  0  0  0  0  0
   -1.6606    0.1128    0.8041 C   0  0  0  0  0  0  0  0  0  0  0  0
   -2.7199   -0.9472    0.4927 C   0  0  0  0  0  0  0  0  0  0  0  0
   -3.1090   -0.9569   -1.2828 S   0  0  0  0  0  0  0  0  0  0  0  0
   -3.9463    0.6418   -1.3747 C   0  0  0  0  0  0  0  0  0  0  0  0
    1.2790   -1.2290    0.9021 H   0  0  0  0  0  0  0  0  0  0  0  0
   -0.5219   -0.2691   -0.9880 H   0  0  0  0  0  0  0  0  0  0  0  0
   -2.0416    1.1026    0.5188 H   0  0  0  0  0  0  0  0  0  0  0  0
   -1.4805    0.1401    1.8864 H   0  0  0  0  0  0  0  0  0  0  0  0
   -3.6471   -0.7471    1.0380 H   0  0  0  0  0  0  0  0  0  0  0  0
   -2.3704   -1.9465    0.7684 H   0  0  0  0  0  0  0  0  0  0  0  0
   -4.2715    0.8327   -2.4003 H   0  0  0  0  0  0  0  0  0  0  0  0
   -3.2639    1.4365   -1.0634 H   0  0  0  0  0  0  0  0  0  0  0  0
   -4.8190    0.6420   -0.7171 H   0  0  0  0  0  0  0  0  0  0  0  0
   -0.0285    2.2519    0.4646 N   0  0  0  0  0  0  0  0  0  0  0  0
    0.6666    3.5042    0.6488 C   0  0  2  0  0  0  0  0  0  0  0  0
   -0.0460    4.2803    1.7485 C   0  0  0  0  0  0  0  0  0  0  0  0
   -1.2184    4.0801    2.0591 O   0  0  0  0  0  0  0  0  0  0  0  0
    0.7112    4.3073   -0.6419 C   0  0  0  0  0  0  0  0  0  0  0  0
   -1.0441    2.2668    0.4757 H   0  0  0  0  0  0  0  0  0  0  0  0
    1.6827    3.2570    0.9751 H   0  0  0  0  0  0  0  0  0  0  0  0
   -0.2978    4.5644   -0.9844 H   0  0  0  0  0  0  0  0  0  0  0  0
    1.2632    5.2435   -0.5078 H   0  0  0  0  0  0  0  0  0  0  0  0
    1.1975    3.7359   -1.4398 H   0  0  0  0  0  0  0  0  0  0  0  0
    0.7682    5.2523    2.3129 N   0  0  0  0  0  0  0  0  0  0  0  0
    0.3183    6.1295    3.3684 C   0  0  0  0  0  0  0  0  0  0  0  0
    1.7331    5.3353    2.0066 H   0  0  0  0  0  0  0  0  0  0  0  0
   -0.0807    7.0563    2.9306 H   0  0  0  0  0  0  0  0  0  0  0  0
   -0.4705    5.6293    3.9494 H   0  0  0  0  0  0  0  0  0  0  0  0
    1.1636    6.3707    4.0297 H   0  0  0  0  0  0  0  0  0  0  0  0
  1  3  1  0  0  0  0
  1  7  1  0  0  0  0
  1  2  2  0  0  0  0
 35 36  1  0  0  0  0
 36 44  1  0  0  0  0
 36 37  2  0  0  0  0
  8  9  1  0  0  0  0
  9 17  1  0  0  0  0
  9 10  2  0  0  0  0
 18 19  1  0  0  0  0
 19 34  1  0  0  0  0
 19 20  2  0  0  0  0
 35 38  1  0  0  0  0
  8 11  1  0  0  0  0
 44 45  1  0  0  0  0
 23 24  1  0  0  0  0
 21 22  1  0  0  0  0
 18 21  1  0  0  0  0
 22 23  1  0  0  0  0
 34 35  1  0  0  0  0
  7  8  1  0  0  0  0
 17 18  1  0  0  0  0
  3  4  1  0  0  0  0
  3  5  1  0  0  0  0
  3  6  1  0  0  0  0
 38 41  1  0  0  0  0
 38 42  1  0  0  0  0
 38 43  1  0  0  0  0
 11 14  1  0  0  0  0
 11 15  1  0  0  0  0
 11 16  1  0  0  0  0
 45 47  1  0  0  0  0
 45 48  1  0  0  0  0
 45 49  1  0  0  0  0
 24 31  1  0  0  0  0
 24 32  1  0  0  0  0
 24 33  1  0  0  0  0
 21 27  1  0  0  0  0
 21 28  1  0  0  0  0
 22 29  1  0  0  0  0
 22 30  1  0  0  0  0
 35 40  1  0  0  0  0
  8 13  1  0  0  0  0
 18 26  1  0  0  0  0
 44 46  1  0  0  0  0
  7 12  1  0  0  0  0
 34 39  1  0  0  0  0
 17 25  1  0  0  0  0
M  END
$$$$

  -OEChem-05262214473D

 49 48  0     1  0  0  0  0  0999 V2000
   -0.0561   -5.3799    2.6949 C   0  0  0  0  0  0  0  0  0  0  0  0
    0.7325   -5.0736    3.5815 O   0  0  0  0  0  0  0  0  0  0  0  0
   -1.0067   -6.5099    2.9135 C   0  0  0  0  0  0  0  0  0  0  0  0
   -0.5910   -7.4777    2.5899 H   0  0  0  0  0  0  0  0  0  0  0  0
   -1.2629   -6.6440    3.9767 H   0  0  0  0  0  0  0  0  0  0  0  0
   -1.9729   -6.4206    2.3918 H   0  0  0  0  0  0  0  0  0  0  0  0
   -0.1735   -4.7694    1.4571 N   0  0  0  0  0  0  0  0  0  0  0  0
    0.6439   -3.6603    1.0409 C   0  0  2  0  0  0  0  0  0  0  0  0
   -0.2788   -2.5625    0.5280 C   0  0  0  0  0  0  0  0  0  0  0  0
   -1.4197   -2.7791    0.1251 O   0  0  0  0  0  0  0  0  0  0  0  0
    1.6395   -4.0779   -0.0301 C   0  0  0  0  0  0  0  0  0  0  0  0
   -0.8741   -5.1235    0.8083 H   0  0  0  0  0  0  0  0  0  0  0  0
    1.1738   -3.3062    1.9318 H   0  0  0  0  0  0  0  0  0  0  0  0
    1.1270   -4.4358   -0.9305 H   0  0  0  0  0  0  0  0  0  0  0  0
    2.2797   -3.2400   -0.3251 H   0  0  0  0  0  0  0  0  0  0  0  0
    2.2827   -4.8880    0.3303 H   0  0  0  0  0  0  0  0  0  0  0  0
    0.3351   -1.3153    0.5316 N   0  0  0  0  0  0  0  0  0  0  0  0
   -0.3268   -0.1184    0.0807 C   0  0  2  0  0  0  0  0  0  0  0  0
    0.6348    1.0574    0.2231 C   0  0  0  0  0  0  0  0  0  0  0  0
    1.8187    0.9965   -0.1023 O   0  0  0  0  0  0  0  0  0  0  0  0
   -1.6606    0.1128    0.8041 C   0  0  0  0  0  0  0  0  0  0  0  0
   -2.7199   -0.9472    0.4927 C   0  0  0  0  0  0  0  0  0  0  0  0
   -3.1090   -0.9569   -1.2828 S   0  0  0  0  0  0  0  0  0  0  0  0
   -3.9463    0.6418   -1.3747 C   0  0  0  0  0  0  0  0  0  0  0  0
    1.2790   -1.2290    0.9021 H   0  0  0  0  0  0  0  0  0  0  0  0
   -0.5219   -0.2691   -0.9880 H   0  0  0  0  0  0  0  0  0  0  0  0
   -2.0416    1.1026    0.5188 H   0  0  0  0  0  0  0  0  0  0  0  0
   -1.4805    0.1401    1.8864 H   0  0  0  0  0  0  0  0  0  0  0  0
   -3.6471   -0.7471    1.0380 H   0  0  0  0  0  0  0  0  0  0  0  0
   -2.3704   -1.9465    0.7684 H   0  0  0  0  0  0  0  0  0  0  0  0
   -4.2715    0.8327   -2.4003 H   0  0  0  0  0  0  0  0  0  0  0  0
   -3.2639    1.4365   -1.0634 H   0  0  0  0  0  0  0  0  0  0  0  0
   -4.8190    0.6420   -0.7171 H   0  0  0  0  0  0  0  0  0  0  0  0
    0.0247    2.1695    0.7853 N   0  0  0  0  0  0  0  0  0  0  0  0
    0.7331    3.4033    1.0333 C   0  0  2  0  0  0  0  0  0  0  0  0
    0.2508    3.9629    2.3651 C   0  0  0  0  0  0  0  0  0  0  0  0
   -0.8334    3.6678    2.8636 O   0  0  0  0  0  0  0  0  0  0  0  0
    0.5107    4.4045   -0.0896 C   0  0  0  0  0  0  0  0  0  0  0  0
   -0.9679    2.1411    0.9989 H   0  0  0  0  0  0  0  0  0  0  0  0
    1.7960    3.1483    1.1070 H   0  0  0  0  0  0  0  0  0  0  0  0
   -0.5486    4.6719   -0.1787 H   0  0  0  0  0  0  0  0  0  0  0  0
    1.0712    5.3286    0.0860 H   0  0  0  0  0  0  0  0  0  0  0  0
    0.8306    3.9890   -1.0512 H   0  0  0  0  0  0  0  0  0  0  0  0
    1.1546    4.8639    2.9106 N   0  0  0  0  0  0  0  0  0  0  0  0
    0.9200    5.5410    4.1646 C   0  0  0  0  0  0  0  0  0  0  0  0
    2.0374    5.0343    2.4379 H   0  0  0  0  0  0  0  0  0  0  0  0
    0.4339    6.5091    3.9738 H   0  0  0  0  0  0  0  0  0  0  0  0
    0.2682    4.9222    4.7989 H   0  0  0  0  0  0  0  0  0  0  0  0
    1.8793    5.7071    4.6765 H   0  0  0  0  0  0  0  0  0  0  0  0
  1  3  1  0  0  0  0
  1  7  1  0  0  0  0
  1  2  2  0  0  0  0
 35 36  1  0  0  0  0
 36 44  1  0  0  0  0
 36 37  2  0  0  0  0
  8  9  1  0  0  0  0
  9 17  1  0  0  0  0
  9 10  2  0  0  0  0
 18 19  1  0  0  0  0
 19 34  1  0  0  0  0
 19 20  2  0  0  0  0
 35 38  1  0  0  0  0
  8 11  1  0  0  0  0
 44 45  1  0  0  0  0
 23 24  1  0  0  0  0
 21 22  1  0  0  0  0
 18 21  1  0  0  0  0
 22 23  1  0  0  0  0
 34 35  1  0  0  0  0
  7  8  1  0  0  0  0
 17 18  1  0  0  0  0
  3  4  1  0  0  0  0
  3  5  1  0  0  0  0
  3  6  1  0  0  0  0
 38 41  1  0  0  0  0
 38 42  1  0  0  0  0
 38 43  1  0  0  0  0
 11 14  1  0  0  0  0
 11 15  1  0  0  0  0
 11 16  1  0  0  0  0
 45 47  1  0  0  0  0
 45 48  1  0  0  0  0
 45 49  1  0  0  0  0
 24 31  1  0  0  0  0
 24 32  1  0  0  0  0
 24 33  1  0  0  0  0
 21 27  1  0  0  0  0
 21 28  1  0  0  0  0
 22 29  1  0  0  0  0
 22 30  1  0  0  0  0
 35 40  1  0  0  0  0
  8 13  1  0  0  0  0
 18 26  1  0  0  0  0
 44 46  1  0  0  0  0
  7 12  1  0  0  0  0
 34 39  1  0  0  0  0
 17 25  1  0  0  0  0
M  END
$$$$

  -OEChem-05262214473D

 49 48  0     1  0  0  0  0  0999 V2000
   -0.0561   -5.3799    2.6949 C   0  0  0  0  0  0  0  0  0  0  0  0
    0.7325   -5.0736    3.5815 O   0  0  0  0  0  0  0  0  0  0  0  0
   -1.0067   -6.5099    2.9135 C   0  0  0  0  0  0  0  0  0  0  0  0
   -0.5910   -7.4777    2.5899 H   0  0  0  0  0  0  0  0  0  0  0  0
   -1.2629   -6.6440    3.9767 H   0  0  0  0  0  0  0  0  0  0  0  0
   -1.9729   -6.4206    2.3918 H   0  0  0  0  0  0  0  0  0  0  0  0
   -0.1735   -4.7694    1.4571 N   0  0  0  0  0  0  0  0  0  0  0  0
    0.6439   -3.6603    1.0409 C   0  0  2  0  0  0  0  0  0  0  0  0
   -0.2788   -2.5625    0.5280 C   0  0  0  0  0  0  0  0  0  0  0  0
   -1.4197   -2.7791    0.1251 O   0  0  0  0  0  0  0  0  0  0  0  0
    1.6395   -4.0779   -0.0301 C   0  0  0  0  0  0  0  0  0  0  0  0
   -0.8741   -5.1235    0.8083 H   0  0  0  0  0  0  0  0  0  0  0  0
    1.1738   -3.3062    1.9318 H   0  0  0  0  0  0  0  0  0  0  0  0
    1.1270   -4.4358   -0.9305 H   0  0  0  0  0  0  0  0  0  0  0  0
    2.2797   -3.2400   -0.3251 H   0  0  0  0  0  0  0  0  0  0  0  0
    2.2827   -4.8880    0.3303 H   0  0  0  0  0  0  0  0  0  0  0  0
    0.3351   -1.3153    0.5316 N   0  0  0  0  0  0  0  0  0  0  0  0
   -0.3268   -0.1184    0.0807 C   0  0  2  0  0  0  0  0  0  0  0  0
    0.6348    1.0574    0.2231 C   0  0  0  0  0  0  0  0  0  0  0  0
    1.7293    1.0978   -0.3352 O   0  0  0  0  0  0  0  0  0  0  0  0
   -1.6606    0.1128    0.8041 C   0  0  0  0  0  0  0  0  0  0  0  0
   -2.7199   -0.9472    0.4927 C   0  0  0  0  0  0  0  0  0  0  0  0
   -3.1090   -0.9569   -1.2828 S   0  0  0  0  0  0  0  0  0  0  0  0
   -3.9463    0.6418   -1.3747 C   0  0  0  0  0  0  0  0  0  0  0  0
    1.2790   -1.2290    0.9021 H   0  0  0  0  0  0  0  0  0  0  0  0
   -0.5219   -0.2691   -0.9880 H   0  0  0  0  0  0  0  0  0  0  0  0
   -2.0416    1.1026    0.5188 H   0  0  0  0  0  0  0  0  0  0  0  0
   -1.4805    0.1401    1.8864 H   0  0  0  0  0  0  0  0  0  0  0  0
   -3.6471   -0.7471    1.0380 H   0  0  0  0  0  0  0  0  0  0  0  0
   -2.3704   -1.9465    0.7684 H   0  0  0  0  0  0  0  0  0  0  0  0
   -4.2715    0.8327   -2.4003 H   0  0  0  0  0  0  0  0  0  0  0  0
   -3.2639    1.4365   -1.0634 H   0  0  0  0  0  0  0  0  0  0  0  0
   -4.8190    0.6420   -0.7171 H   0  0  0  0  0  0  0  0  0  0  0  0
    0.1420    2.0390    1.0709 N   0  0  0  0  0  0  0  0  0  0  0  0
    0.8765    3.2446    1.3750 C   0  0  2  0  0  0  0  0  0  0  0  0
    0.6682    3.5629    2.8497 C   0  0  0  0  0  0  0  0  0  0  0  0
   -0.2911    3.1476    3.4966 O   0  0  0  0  0  0  0  0  0  0  0  0
    0.4248    4.4033    0.4998 C   0  0  0  0  0  0  0  0  0  0  0  0
   -0.7869    1.9362    1.4687 H   0  0  0  0  0  0  0  0  0  0  0  0
    1.9343    3.0246    1.1941 H   0  0  0  0  0  0  0  0  0  0  0  0
   -0.6327    4.6383    0.6671 H   0  0  0  0  0  0  0  0  0  0  0  0
    1.0022    5.3093    0.7117 H   0  0  0  0  0  0  0  0  0  0  0  0
    0.5476    4.1612   -0.5614 H   0  0  0  0  0  0  0  0  0  0  0  0
    1.6565    4.4006    3.3475 N   0  0  0  0  0  0  0  0  0  0  0  0
    1.6742    4.8572    4.7176 C   0  0  0  0  0  0  0  0  0  0  0  0
    2.4246    4.6804    2.7447 H   0  0  0  0  0  0  0  0  0  0  0  0
    1.1523    5.8228    4.7896 H   0  0  0  0  0  0  0  0  0  0  0  0
    1.1683    4.1186    5.3567 H   0  0  0  0  0  0  0  0  0  0  0  0
    2.7157    4.9778    5.0503 H   0  0  0  0  0  0  0  0  0  0  0  0
  1  3  1  0  0  0  0
  1  7  1  0  0  0  0
  1  2  2  0  0  0  0
 35 36  1  0  0  0  0
 36 44  1  0  0  0  0
 36 37  2  0  0  0  0
  8  9  1  0  0  0  0
  9 17  1  0  0  0  0
  9 10  2  0  0  0  0
 18 19  1  0  0  0  0
 19 34  1  0  0  0  0
 19 20  2  0  0  0  0
 35 38  1  0  0  0  0
  8 11  1  0  0  0  0
 44 45  1  0  0  0  0
 23 24  1  0  0  0  0
 21 22  1  0  0  0  0
 18 21  1  0  0  0  0
 22 23  1  0  0  0  0
 34 35  1  0  0  0  0
  7  8  1  0  0  0  0
 17 18  1  0  0  0  0
  3  4  1  0  0  0  0
  3  5  1  0  0  0  0
  3  6  1  0  0  0  0
 38 41  1  0  0  0  0
 38 42  1  0  0  0  0
 38 43  1  0  0  0  0
 11 14  1  0  0  0  0
 11 15  1  0  0  0  0
 11 16  1  0  0  0  0
 45 47  1  0  0  0  0
 45 48  1  0  0  0  0
 45 49  1  0  0  0  0
 24 31  1  0  0  0  0
 24 32  1  0  0  0  0
 24 33  1  0  0  0  0
 21 27  1  0  0  0  0
 21 28  1  0  0  0  0
 22 29  1  0  0  0  0
 22 30  1  0  0  0  0
 35 40  1  0  0  0  0
  8 13  1  0  0  0  0
 18 26  1  0  0  0  0
 44 46  1  0  0  0  0
  7 12  1  0  0  0  0
 34 39  1  0  0  0  0
 17 25  1  0  0  0  0
M  END
$$$$

  -OEChem-05262214473D

 49 48  0     1  0  0  0  0  0999 V2000
   -0.0561   -5.3799    2.6949 C   0  0  0  0  0  0  0  0  0  0  0  0
    0.7325   -5.0736    3.5815 O   0  0  0  0  0  0  0  0  0  0  0  0
   -1.0067   -6.5099    2.9135 C   0  0  0  0  0  0  0  0  0  0  0  0
   -0.5910   -7.4777    2.5899 H   0  0  0  0  0  0  0  0  0  0  0  0
   -1.2629   -6.6440    3.9767 H   0  0  0  0  0  0  0  0  0  0  0  0
   -1.9729   -6.4206    2.3918 H   0  0  0  0  0  0  0  0  0  0  0  0
   -0.1735   -4.7694    1.4571 N   0  0  0  0  0  0  0  0  0  0  0  0
    0.6439   -3.6603    1.0409 C   0  0  2  0  0  0  0  0  0  0  0  0
   -0.2788   -2.5625    0.5280 C   0  0  0  0  0  0  0  0  0  0  0  0
   -1.4197   -2.7791    0.1251 O   0  0  0  0  0  0  0  0  0  0  0  0
    1.6395   -4.0779   -0.0301 C   0  0  0  0  0  0  0  0  0  0  0  0
   -0.8741   -5.1235    0.8083 H   0  0  0  0  0  0  0  0  0  0  0  0
    1.1738   -3.3062    1.9318 H   0  0  0  0  0  0  0  0  0  0  0  0
    1.1270   -4.4358   -0.9305 H   0  0  0  0  0  0  0  0  0  0  0  0
    2.2797   -3.2400   -0.3251 H   0  0  0  0  0  0  0  0  0  0  0  0
    2.2827   -4.8880    0.3303 H   0  0  0  0  0  0  0  0  0  0  0  0
    0.3351   -1.3153    0.5316 N   0  0  0  0  0  0  0  0  0  0  0  0
   -0.3268   -0.1184    0.0807 C   0  0  2  0  0  0  0  0  0  0  0  0
    0.6348    1.0574    0.2231 C   0  0  0  0  0  0  0  0  0  0  0  0
    1.5940    1.2315   -0.5258 O   0  0  0  0  0  0  0  0  0  0  0  0
   -1.6606    0.1128    0.8041 C   0  0  0  0  0  0  0  0  0  0  0  0
   -2.7199   -0.9472    0.4927 C   0  0  0  0  0  0  0  0  0  0  0  0
   -3.1090   -0.9569   -1.2828 S   0  0  0  0  0  0  0  0  0  0  0  0
   -3.9463    0.6418   -1.3747 C   0  0  0  0  0  0  0  0  0  0  0  0
    1.2790   -1.2290    0.9021 H   0  0  0  0  0  0  0  0  0  0  0  0
   -0.5219   -0.2691   -0.9880 H   0  0  0  0  0  0  0  0  0  0  0  0
   -2.0416    1.1026    0.5188 H   0  0  0  0  0  0  0  0  0  0  0  0
   -1.4805    0.1401    1.8864 H   0  0  0  0  0  0  0  0  0  0  0  0
   -3.6471   -0.7471    1.0380 H   0  0  0  0  0  0  0  0  0  0  0  0
   -2.3704   -1.9465    0.7684 H   0  0  0  0  0  0  0  0  0  0  0  0
   -4.2715    0.8327   -2.4003 H   0  0  0  0  0  0  0  0  0  0  0  0
   -3.2639    1.4365   -1.0634 H   0  0  0  0  0  0  0  0  0  0  0  0
   -4.8190    0.6420   -0.7171 H   0  0  0  0  0  0  0  0  0  0  0  0
    0.3155    1.8691    1.3021 N   0  0  0  0  0  0  0  0  0  0  0  0
    1.0870    3.0391    1.6505 C   0  0  2  0  0  0  0  0  0  0  0  0
    1.1777    3.1075    3.1693 C   0  0  0  0  0  0  0  0  0  0  0  0
    0.3716    2.5550    3.9149 O   0  0  0  0  0  0  0  0  0  0  0  0
    0.4594    4.3040    1.0859 C   0  0  0  0  0  0  0  0  0  0  0  0
   -0.5134    1.6660    1.8529 H   0  0  0  0  0  0  0  0  0  0  0  0
    2.0883    2.8943    1.2305 H   0  0  0  0  0  0  0  0  0  0  0  0
   -0.5444    4.4658    1.4954 H   0  0  0  0  0  0  0  0  0  0  0  0
    1.0608    5.1869    1.3267 H   0  0  0  0  0  0  0  0  0  0  0  0
    0.3677    4.2407   -0.0037 H   0  0  0  0  0  0  0  0  0  0  0  0
    2.2396    3.8938    3.5938 N   0  0  0  0  0  0  0  0  0  0  0  0
    2.5295    4.1247    4.9897 C   0  0  0  0  0  0  0  0  0  0  0  0
    2.8684    4.2980    2.9060 H   0  0  0  0  0  0  0  0  0  0  0  0
    2.0255    5.0442    5.3222 H   0  0  0  0  0  0  0  0  0  0  0  0
    2.1684    3.2730    5.5848 H   0  0  0  0  0  0  0  0  0  0  0  0
    3.6158    4.2325    5.1255 H   0  0  0  0  0  0  0  0  0  0  0  0
  1  3  1  0  0  0  0
  1  7  1  0  0  0  0
  1  2  2  0  0  0  0
 35 36  1  0  0  0  0
 36 44  1  0  0  0  0
 36 37  2  0  0  0  0
  8  9  1  0  0  0  0
  9 17  1  0  0  0  0
  9 10  2  0  0  0  0
 18 19  1  0  0  0  0
 19 34  1  0  0  0  0
 19 20  2  0  0  0  0
 35 38  1  0  0  0  0
  8 11  1  0  0  0  0
 44 45  1  0  0  0  0
 23 24  1  0  0  0  0
 21 22  1  0  0  0  0
 18 21  1  0  0  0  0
 22 23  1  0  0  0  0
 34 35  1  0  0  0  0
  7  8  1  0  0  0  0
 17 18  1  0  0  0  0
  3  4  1  0  0  0  0
  3  5  1  0  0  0  0
  3  6  1  0  0  0  0
 38 41  1  0  0  0  0
 38 42  1  0  0  0  0
 38 43  1  0  0  0  0
 11 14  1  0  0  0  0
 11 15  1  0  0  0  0
 11 16  1  0  0  0  0
 45 47  1  0  0  0  0
 45 48  1  0  0  0  0
 45 49  1  0  0  0  0
 24 31  1  0  0  0  0
 24 32  1  0  0  0  0
 24 33  1  0  0  0  0
 21 27  1  0  0  0  0
 21 28  1  0  0  0  0
 22 29  1  0  0  0  0
 22 30  1  0  0  0  0
 35 40  1  0  0  0  0
  8 13  1  0  0  0  0
 18 26  1  0  0  0  0
 44 46  1  0  0  0  0
  7 12  1  0  0  0  0
 34 39  1  0  0  0  0
 17 25  1  0  0  0  0
M  END
$$$$

  -OEChem-05262214473D

 49 48  0     1  0  0  0  0  0999 V2000
   -0.0561   -5.3799    2.6949 C   0  0  0  0  0  0  0  0  0  0  0  0
    0.7325   -5.0736    3.5815 O   0  0  0  0  0  0  0  0  0  0  0  0
   -1.0067   -6.5099    2.9135 C   0  0  0  0  0  0  0  0  0  0  0  0
   -0.5910   -7.4777    2.5899 H   0  0  0  0  0  0  0  0  0  0  0  0
   -1.2629   -6.6440    3.9767 H   0  0  0  0  0  0  0  0  0  0  0  0
   -1.9729   -6.4206    2.3918 H   0  0  0  0  0  0  0  0  0  0  0  0
   -0.1735   -4.7694    1.4571 N   0  0  0  0  0  0  0  0  0  0  0  0
    0.6439   -3.6603    1.0409 C   0  0  2  0  0  0  0  0  0  0  0  0
   -0.2788   -2.5625    0.5280 C   0  0  0  0  0  0  0  0  0  0  0  0
   -1.4197   -2.7791    0.1251 O   0  0  0  0  0  0  0  0  0  0  0  0
    1.6395   -4.0779   -0.0301 C   0  0  0  0  0  0  0  0  0  0  0  0
   -0.8741   -5.1235    0.8083 H   0  0  0  0  0  0  0  0  0  0  0  0
    1.1738   -3.3062    1.9318 H   0  0  0  0  0  0  0  0  0  0  0  0
    1.1270   -4.4358   -0.9305 H   0  0  0  0  0  0  0  0  0  0  0  0
    2.2797   -3.2400   -0.3251 H   0  0  0  0  0  0  0  0  0  0  0  0
    2.2827   -4.8880    0.3303 H   0  0  0  0  0  0  0  0  0  0  0  0
    0.3351   -1.3153    0.5316 N   0  0  0  0  0  0  0  0  0  0  0  0
   -0.3268   -0.1184    0.0807 C   0  0  2  0  0  0  0  0  0  0  0  0
    0.6348    1.0574    0.2231 C   0  0  0  0  0  0  0  0  0  0  0  0
    1.4221    1.3885   -0.6611 O   0  0  0  0  0  0  0  0  0  0  0  0
   -1.6606    0.1128    0.8041 C   0  0  0  0  0  0  0  0  0  0  0  0
   -2.7199   -0.9472    0.4927 C   0  0  0  0  0  0  0  0  0  0  0  0
   -3.1090   -0.9569   -1.2828 S   0  0  0  0  0  0  0  0  0  0  0  0
   -3.9463    0.6418   -1.3747 C   0  0  0  0  0  0  0  0  0  0  0  0
    1.2790   -1.2290    0.9021 H   0  0  0  0  0  0  0  0  0  0  0  0
   -0.5219   -0.2691   -0.9880 H   0  0  0  0  0  0  0  0  0  0  0  0
   -2.0416    1.1026    0.5188 H   0  0  0  0  0  0  0  0  0  0  0  0
   -1.4805    0.1401    1.8864 H   0  0  0  0  0  0  0  0  0  0  0  0
   -3.6471   -0.7471    1.0380 H   0  0  0  0  0  0  0  0  0  0  0  0
   -2.3704   -1.9465    0.7684 H   0  0  0  0  0  0  0  0  0  0  0  0
   -4.2715    0.8327   -2.4003 H   0  0  0  0  0  0  0  0  0  0  0  0
   -3.2639    1.4365   -1.0634 H   0  0  0  0  0  0  0  0  0  0  0  0
   -4.8190    0.6420   -0.7171 H   0  0  0  0  0  0  0  0  0  0  0  0
    0.5333    1.6715    1.4631 N   0  0  0  0  0  0  0  0  0  0  0  0
    1.3503    2.8007    1.8412 C   0  0  2  0  0  0  0  0  0  0  0  0
    1.7445    2.6278    3.3020 C   0  0  0  0  0  0  0  0  0  0  0  0
    1.1094    1.9303    4.0902 O   0  0  0  0  0  0  0  0  0  0  0  0
    0.6122    4.1133    1.6290 C   0  0  0  0  0  0  0  0  0  0  0  0
   -0.1661    1.3490    2.1253 H   0  0  0  0  0  0  0  0  0  0  0  0
    2.2475    2.7662    1.2136 H   0  0  0  0  0  0  0  0  0  0  0  0
   -0.2897    4.1663    2.2496 H   0  0  0  0  0  0  0  0  0  0  0  0
    1.2430    4.9697    1.8891 H   0  0  0  0  0  0  0  0  0  0  0  0
    0.3033    4.2223    0.5838 H   0  0  0  0  0  0  0  0  0  0  0  0
    2.8642    3.3783    3.6327 N   0  0  0  0  0  0  0  0  0  0  0  0
    3.4277    3.3934    4.9625 C   0  0  0  0  0  0  0  0  0  0  0  0
    3.3384    3.9129    2.9109 H   0  0  0  0  0  0  0  0  0  0  0  0
    2.9940    4.2262    5.5356 H   0  0  0  0  0  0  0  0  0  0  0  0
    3.2003    2.4432    5.4678 H   0  0  0  0  0  0  0  0  0  0  0  0
    4.5182    3.5222    4.8971 H   0  0  0  0  0  0  0  0  0  0  0  0
  1  3  1  0  0  0  0
  1  7  1  0  0  0  0
  1  2  2  0  0  0  0
 35 36  1  0  0  0  0
 36 44  1  0  0  0  0
 36 37  2  0  0  0  0
  8  9  1  0  0  0  0
  9 17  1  0  0  0  0
  9 10  2  0  0  0  0
 18 19  1  0  0  0  0
 19 34  1  0  0  0  0
 19 20  2  0  0  0  0
 35 38  1  0  0  0  0
  8 11  1  0  0  0  0
 44 45  1  0  0  0  0
 23 24  1  0  0  0  0
 21 22  1  0  0  0  0
 18 21  1  0  0  0  0
 22 23  1  0  0  0  0
 34 35  1  0  0  0  0
  7  8  1  0  0  0  0
 17 18  1  0  0  0  0
  3  4  1  0  0  0  0
  3  5  1  0  0  0  0
  3  6  1  0  0  0  0
 38 41  1  0  0  0  0
 38 42  1  0  0  0  0
 38 43  1  0  0  0  0
 11 14  1  0  0  0  0
 11 15  1  0  0  0  0
 11 16  1  0  0  0  0
 45 47  1  0  0  0  0
 45 48  1  0  0  0  0
 45 49  1  0  0  0  0
 24 31  1  0  0  0  0
 24 32  1  0  0  0  0
 24 33  1  0  0  0  0
 21 27  1  0  0  0  0
 21 28  1  0  0  0  0
 22 29  1  0  0  0  0
 22 30  1  0  0  0  0
 35 40  1  0  0  0  0
  8 13  1  0  0  0  0
 18 26  1  0  0  0  0
 44 46  1  0  0  0  0
  7 12  1  0  0  0  0
 34 39  1  0  0  0  0
 17 25  1  0  0  0  0
M  END
$$$$

  -OEChem-05262214473D

 49 48  0     1  0  0  0  0  0999 V2000
   -0.0561   -5.3799    2.6949 C   0  0  0  0  0  0  0  0  0  0  0  0
    0.7325   -5.0736    3.5815 O   0  0  0  0  0  0  0  0  0  0  0  0
   -1.0067   -6.5099    2.9135 C   0  0  0  0  0  0  0  0  0  0  0  0
   -0.5910   -7.4777    2.5899 H   0  0  0  0  0  0  0  0  0  0  0  0
   -1.2629   -6.6440    3.9767 H   0  0  0  0  0  0  0  0  0  0  0  0
   -1.9729   -6.4206    2.3918 H   0  0  0  0  0  0  0  0  0  0  0  0
   -0.1735   -4.7694    1.4571 N   0  0  0  0  0  0  0  0  0  0  0  0
    0.6439   -3.6603    1.0409 C   0  0  2  0  0  0  0  0  0  0  0  0
   -0.2788   -2.5625    0.5280 C   0  0  0  0  0  0  0  0  0  0  0  0
   -1.4197   -2.7791    0.1251 O   0  0  0  0  0  0  0  0  0  0  0  0
    1.6395   -4.0779   -0.0301 C   0  0  0  0  0  0  0  0  0  0  0  0
   -0.8741   -5.1235    0.8083 H   0  0  0  0  0  0  0  0  0  0  0  0
    1.1738   -3.3062    1.9318 H   0  0  0  0  0  0  0  0  0  0  0  0
    1.1270   -4.4358   -0.9305 H   0  0  0  0  0  0  0  0  0  0  0  0
    2.2797   -3.2400   -0.3251 H   0  0  0  0  0  0  0  0  0  0  0  0
    2.2827   -4.8880    0.3303 H   0  0  0  0  0  0  0  0  0  0  0  0
    0.3351   -1.3153    0.5316 N   0  0  0  0  0  0  0  0  0  0  0  0
   -0.3268   -0.1184    0.0807 C   0  0  2  0  0  0  0  0  0  0  0  0
    0.6348    1.0574    0.2231 C   0  0  0  0  0  0  0  0  0  0  0  0
    1.2253    1.5580   -0.7319 O   0  0  0  0  0  0  0  0  0  0  0  0
   -1.6606    0.1128    0.8041 C   0  0  0  0  0  0  0  0  0  0  0  0
   -2.7199   -0.9472    0.4927 C   0  0  0  0  0  0  0  0  0  0  0  0
   -3.1090   -0.9569   -1.2828 S   0  0  0  0  0  0  0  0  0  0  0  0
   -3.9463    0.6418   -1.3747 C   0  0  0  0  0  0  0  0  0  0  0  0
    1.2790   -1.2290    0.9021 H   0  0  0  0  0  0  0  0  0  0  0  0
   -0.5219   -0.2691   -0.9880 H   0  0  0  0  0  0  0  0  0  0  0  0
   -2.0416    1.1026    0.5188 H   0  0  0  0  0  0  0  0  0  0  0  0
   -1.4805    0.1401    1.8864 H   0  0  0  0  0  0  0  0  0  0  0  0
   -3.6471   -0.7471    1.0380 H   0  0  0  0  0  0  0  0  0  0  0  0
   -2.3704   -1.9465    0.7684 H   0  0  0  0  0  0  0  0  0  0  0  0
   -4.2715    0.8327   -2.4003 H   0  0  0  0  0  0  0  0  0  0  0  0
   -3.2639    1.4365   -1.0634 H   0  0  0  0  0  0  0  0  0  0  0  0
   -4.8190    0.6420   -0.7171 H   0  0  0  0  0  0  0  0  0  0  0  0
    0.7806    1.4596    1.5430 N   0  0  0  0  0  0  0  0  0  0  0  0
    1.6483    2.5457    1.9339 C   0  0  2  0  0  0  0  0  0  0  0  0
    2.3302    2.1565    3.2390 C   0  0  0  0  0  0  0  0  0  0  0  0
    1.8722    1.3161    4.0104 O   0  0  0  0  0  0  0  0  0  0  0  0
    0.8727    3.8442    2.0921 C   0  0  0  0  0  0  0  0  0  0  0  0
    0.2314    1.0067    2.2675 H   0  0  0  0  0  0  0  0  0  0  0  0
    2.4009    2.6490    1.1446 H   0  0  0  0  0  0  0  0  0  0  0  0
    0.1139    3.7600    2.8786 H   0  0  0  0  0  0  0  0  0  0  0  0
    1.5365    4.6727    2.3606 H   0  0  0  0  0  0  0  0  0  0  0  0
    0.3588    4.1070    1.1612 H   0  0  0  0  0  0  0  0  0  0  0  0
    3.4878    2.8890    3.4617 N   0  0  0  0  0  0  0  0  0  0  0  0
    4.3074    2.7132    4.6377 C   0  0  0  0  0  0  0  0  0  0  0  0
    3.8027    3.5515    2.7591 H   0  0  0  0  0  0  0  0  0  0  0  0
    3.9918    3.4247    5.4150 H   0  0  0  0  0  0  0  0  0  0  0  0
    4.1938    1.6857    5.0135 H   0  0  0  0  0  0  0  0  0  0  0  0
    5.3614    2.8951    4.3805 H   0  0  0  0  0  0  0  0  0  0  0  0
  1  3  1  0  0  0  0
  1  7  1  0  0  0  0
  1  2  2  0  0  0  0
 35 36  1  0  0  0  0
 36 44  1  0  0  0  0
 36 37  2  0  0  0  0
  8  9  1  0  0  0  0
  9 17  1  0  0  0  0
  9 10  2  0  0  0  0
 18 19  1  0  0  0  0
 19 34  1  0  0  0  0
 19 20  2  0  0  0  0
 35 38  1  0  0  0  0
  8 11  1  0  0  0  0
 44 45  1  0  0  0  0
 23 24  1  0  0  0  0
 21 22  1  0  0  0  0
 18 21  1  0  0  0  0
 22 23  1  0  0  0  0
 34 35  1  0  0  0  0
  7  8  1  0  0  0  0
 17 18  1  0  0  0  0
  3  4  1  0  0  0  0
  3  5  1  0  0  0  0
  3  6  1  0  0  0  0
 38 41  1  0  0  0  0
 38 42  1  0  0  0  0
 38 43  1  0  0  0  0
 11 14  1  0  0  0  0
 11 15  1  0  0  0  0
 11 16  1  0  0  0  0
 45 47  1  0  0  0  0
 45 48  1  0  0  0  0
 45 49  1  0  0  0  0
 24 31  1  0  0  0  0
 24 32  1  0  0  0  0
 24 33  1  0  0  0  0
 21 27  1  0  0  0  0
 21 28  1  0  0  0  0
 22 29  1  0  0  0  0
 22 30  1  0  0  0  0
 35 40  1  0  0  0  0
  8 13  1  0  0  0  0
 18 26  1  0  0  0  0
 44 46  1  0  0  0  0
  7 12  1  0  0  0  0
 34 39  1  0  0  0  0
 17 25  1  0  0  0  0
M  END
$$$$

  -OEChem-05262214473D

 49 48  0     1  0  0  0  0  0999 V2000
   -0.0561   -5.3799    2.6949 C   0  0  0  0  0  0  0  0  0  0  0  0
    0.7325   -5.0736    3.5815 O   0  0  0  0  0  0  0  0  0  0  0  0
   -1.0067   -6.5099    2.9135 C   0  0  0  0  0  0  0  0  0  0  0  0
   -0.5910   -7.4777    2.5899 H   0  0  0  0  0  0  0  0  0  0  0  0
   -1.2629   -6.6440    3.9767 H   0  0  0  0  0  0  0  0  0  0  0  0
   -1.9729   -6.4206    2.3918 H   0  0  0  0  0  0  0  0  0  0  0  0
   -0.1735   -4.7694    1.4571 N   0  0  0  0  0  0  0  0  0  0  0  0
    0.6439   -3.6603    1.0409 C   0  0  2  0  0  0  0  0  0  0  0  0
   -0.2788   -2.5625    0.5280 C   0  0  0  0  0  0  0  0  0  0  0  0
   -1.4197   -2.7791    0.1251 O   0  0  0  0  0  0  0  0  0  0  0  0
    1.6395   -4.0779   -0.0301 C   0  0  0  0  0  0  0  0  0  0  0  0
   -0.8741   -5.1235    0.8083 H   0  0  0  0  0  0  0  0  0  0  0  0
    1.1738   -3.3062    1.9318 H   0  0  0  0  0  0  0  0  0  0  0  0
    1.1270   -4.4358   -0.9305 H   0  0  0  0  0  0  0  0  0  0  0  0
    2.2797   -3.2400   -0.3251 H   0  0  0  0  0  0  0  0  0  0  0  0
    2.2827   -4.8880    0.3303 H   0  0  0  0  0  0  0  0  0  0  0  0
    0.3351   -1.3153    0.5316 N   0  0  0  0  0  0  0  0  0  0  0  0
   -0.3268   -0.1184    0.0807 C   0  0  2  0  0  0  0  0  0  0  0  0
    0.6348    1.0574    0.2231 C   0  0  0  0  0  0  0  0  0  0  0  0
    1.0170    1.7286   -0.7333 O   0  0  0  0  0  0  0  0  0  0  0  0
   -1.6606    0.1128    0.8041 C   0  0  0  0  0  0  0  0  0  0  0  0
   -2.7199   -0.9472    0.4927 C   0  0  0  0  0  0  0  0  0  0  0  0
   -3.1090   -0.9569   -1.2828 S   0  0  0  0  0  0  0  0  0  0  0  0
   -3.9463    0.6418   -1.3747 C   0  0  0  0  0  0  0  0  0  0  0  0
    1.2790   -1.2290    0.9021 H   0  0  0  0  0  0  0  0  0  0  0  0
   -0.5219   -0.2691   -0.9880 H   0  0  0  0  0  0  0  0  0  0  0  0
   -2.0416    1.1026    0.5188 H   0  0  0  0  0  0  0  0  0  0  0  0
   -1.4805    0.1401    1.8864 H   0  0  0  0  0  0  0  0  0  0  0  0
   -3.6471   -0.7471    1.0380 H   0  0  0  0  0  0  0  0  0  0  0  0
   -2.3704   -1.9465    0.7684 H   0  0  0  0  0  0  0  0  0  0  0  0
   -4.2715    0.8327   -2.4003 H   0  0  0  0  0  0  0  0  0  0  0  0
   -3.2639    1.4365   -1.0634 H   0  0  0  0  0  0  0  0  0  0  0  0
   -4.8190    0.6420   -0.7171 H   0  0  0  0  0  0  0  0  0  0  0  0
    1.0404    1.2479    1.5362 N   0  0  0  0  0  0  0  0  0  0  0  0
    1.9609    2.2914    1.9224 C   0  0  2  0  0  0  0  0  0  0  0  0
    2.8946    1.7257    2.9843 C   0  0  0  0  0  0  0  0  0  0  0  0
    2.6079    0.7543    3.6810 O   0  0  0  0  0  0  0  0  0  0  0  0
    1.2232    3.5150    2.4434 C   0  0  0  0  0  0  0  0  0  0  0  0
    0.6520    0.6625    2.2697 H   0  0  0  0  0  0  0  0  0  0  0  0
    2.5382    2.5508    1.0283 H   0  0  0  0  0  0  0  0  0  0  0  0
    0.6391    3.2747    3.3392 H   0  0  0  0  0  0  0  0  0  0  0  0
    1.9212    4.3159    2.7090 H   0  0  0  0  0  0  0  0  0  0  0  0
    0.5303    3.9028    1.6890 H   0  0  0  0  0  0  0  0  0  0  0  0
    4.0677    2.4594    3.0922 N   0  0  0  0  0  0  0  0  0  0  0  0
    5.1089    2.1304    4.0376 C   0  0  0  0  0  0  0  0  0  0  0  0
    4.2297    3.2385    2.4609 H   0  0  0  0  0  0  0  0  0  0  0  0
    4.9509    2.6943    4.9687 H   0  0  0  0  0  0  0  0  0  0  0  0
    5.0811    1.0520    4.2530 H   0  0  0  0  0  0  0  0  0  0  0  0
    6.0880    2.3940    3.6110 H   0  0  0  0  0  0  0  0  0  0  0  0
  1  3  1  0  0  0  0
  1  7  1  0  0  0  0
  1  2  2  0  0  0  0
 35 36  1  0  0  0  0
 36 44  1  0  0  0  0
 36 37  2  0  0  0  0
  8  9  1  0  0  0  0
  9 17  1  0  0  0  0
  9 10  2  0  0  0  0
 18 19  1  0  0  0  0
 19 34  1  0  0  0  0
 19 20  2  0  0  0  0
 35 38  1  0  0  0  0
  8 11  1  0  0  0  0
 44 45  1  0  0  0  0
 23 24  1  0  0  0  0
 21 22  1  0  0  0  0
 18 21  1  0  0  0  0
 22 23  1  0  0  0  0
 34 35  1  0  0  0  0
  7  8  1  0  0  0  0
 17 18  1  0  0  0  0
  3  4  1  0  0  0  0
  3  5  1  0  0  0  0
  3  6  1  0  0  0  0
 38 41  1  0  0  0  0
 38 42  1  0  0  0  0
 38 43  1  0  0  0  0
 11 14  1  0  0  0  0
 11 15  1  0  0  0  0
 11 16  1  0  0  0  0
 45 47  1  0  0  0  0
 45 48  1  0  0  0  0
 45 49  1  0  0  0  0
 24 31  1  0  0  0  0
 24 32  1  0  0  0  0
 24 33  1  0  0  0  0
 21 27  1  0  0  0  0
 21 28  1  0  0  0  0
 22 29  1  0  0  0  0
 22 30  1  0  0  0  0
 35 40  1  0  0  0  0
  8 13  1  0  0  0  0
 18 26  1  0  0  0  0
 44 46  1  0  0  0  0
  7 12  1  0  0  0  0
 34 39  1  0  0  0  0
 17 25  1  0  0  0  0
M  END
$$$$

  -OEChem-05262214473D

 49 48  0     1  0  0  0  0  0999 V2000
   -0.0561   -5.3799    2.6949 C   0  0  0  0  0  0  0  0  0  0  0  0
    0.7325   -5.0736    3.5815 O   0  0  0  0  0  0  0  0  0  0  0  0
   -1.0067   -6.5099    2.9135 C   0  0  0  0  0  0  0  0  0  0  0  0
   -0.5910   -7.4777    2.5899 H   0  0  0  0  0  0  0  0  0  0  0  0
   -1.2629   -6.6440    3.9767 H   0  0  0  0  0  0  0  0  0  0  0  0
   -1.9729   -6.4206    2.3918 H   0  0  0  0  0  0  0  0  0  0  0  0
   -0.1735   -4.7694    1.4571 N   0  0  0  0  0  0  0  0  0  0  0  0
    0.6439   -3.6603    1.0409 C   0  0  2  0  0  0  0  0  0  0  0  0
   -0.2788   -2.5625    0.5280 C   0  0  0  0  0  0  0  0  0  0  0  0
   -1.4197   -2.7791    0.1251 O   0  0  0  0  0  0  0  0  0  0  0  0
    1.6395   -4.0779   -0.0301 C   0  0  0  0  0  0  0  0  0  0  0  0
   -0.8741   -5.1235    0.8083 H   0  0  0  0  0  0  0  0  0  0  0  0
    1.1738   -3.3062    1.9318 H   0  0  0  0  0  0  0  0  0  0  0  0
    1.1270   -4.4358   -0.9305 H   0  0  0  0  0  0  0  0  0  0  0  0
    2.2797   -3.2400   -0.3251 H   0  0  0  0  0  0  0  0  0  0  0  0
    2.2827   -4.8880    0.3303 H   0  0  0  0  0  0  0  0  0  0  0  0
    0.3351   -1.3153    0.5316 N   0  0  0  0  0  0  0  0  0  0  0  0
   -0.3268   -0.1184    0.0807 C   0  0  2  0  0  0  0  0  0  0  0  0
    0.6348    1.0574    0.2231 C   0  0  0  0  0  0  0  0  0  0  0  0
    0.8113    1.8885   -0.6653 O   0  0  0  0  0  0  0  0  0  0  0  0
   -1.6606    0.1128    0.8041 C   0  0  0  0  0  0  0  0  0  0  0  0
   -2.7199   -0.9472    0.4927 C   0  0  0  0  0  0  0  0  0  0  0  0
   -3.1090   -0.9569   -1.2828 S   0  0  0  0  0  0  0  0  0  0  0  0
   -3.9463    0.6418   -1.3747 C   0  0  0  0  0  0  0  0  0  0  0  0
    1.2790   -1.2290    0.9021 H   0  0  0  0  0  0  0  0  0  0  0  0
   -0.5219   -0.2691   -0.9880 H   0  0  0  0  0  0  0  0  0  0  0  0
   -2.0416    1.1026    0.5188 H   0  0  0  0  0  0  0  0  0  0  0  0
   -1.4805    0.1401    1.8864 H   0  0  0  0  0  0  0  0  0  0  0  0
   -3.6471   -0.7471    1.0380 H   0  0  0  0  0  0  0  0  0  0  0  0
   -2.3704   -1.9465    0.7684 H   0  0  0  0  0  0  0  0  0  0  0  0
   -4.2715    0.8327   -2.4003 H   0  0  0  0  0  0  0  0  0  0  0  0
   -3.2639    1.4365   -1.0634 H   0  0  0  0  0  0  0  0  0  0  0  0
   -4.8190    0.6420   -0.7171 H   0  0  0  0  0  0  0  0  0  0  0  0
    1.2952    1.0507    1.4433 N   0  0  0  0  0  0  0  0  0  0  0  0
    2.2667    2.0553    1.8075 C   0  0  2  0  0  0  0  0  0  0  0  0
    3.3995    1.3647    2.5555 C   0  0  0  0  0  0  0  0  0  0  0  0
    3.2663    0.2832    3.1244 O   0  0  0  0  0  0  0  0  0  0  0  0
    1.6398    3.1482    2.6592 C   0  0  0  0  0  0  0  0  0  0  0  0
    1.0670    0.3397    2.1318 H   0  0  0  0  0  0  0  0  0  0  0  0
    2.6500    2.4782    0.8725 H   0  0  0  0  0  0  0  0  0  0  0  0
    1.2500    2.7434    3.6003 H   0  0  0  0  0  0  0  0  0  0  0  0
    2.3709    3.9237    2.9106 H   0  0  0  0  0  0  0  0  0  0  0  0
    0.8061    3.6237    2.1313 H   0  0  0  0  0  0  0  0  0  0  0  0
    4.5647    2.1187    2.5495 N   0  0  0  0  0  0  0  0  0  0  0  0
    5.7774    1.6847    3.2029 C   0  0  0  0  0  0  0  0  0  0  0  0
    4.5902    2.9950    2.0366 H   0  0  0  0  0  0  0  0  0  0  0  0
    5.8060    2.0848    4.2272 H   0  0  0  0  0  0  0  0  0  0  0  0
    5.8017    0.5855    3.2380 H   0  0  0  0  0  0  0  0  0  0  0  0
    6.6484    2.0530    2.6411 H   0  0  0  0  0  0  0  0  0  0  0  0
  1  3  1  0  0  0  0
  1  7  1  0  0  0  0
  1  2  2  0  0  0  0
 35 36  1  0  0  0  0
 36 44  1  0  0  0  0
 36 37  2  0  0  0  0
  8  9  1  0  0  0  0
  9 17  1  0  0  0  0
  9 10  2  0  0  0  0
 18 19  1  0  0  0  0
 19 34  1  0  0  0  0
 19 20  2  0  0  0  0
 35 38  1  0  0  0  0
  8 11  1  0  0  0  0
 44 45  1  0  0  0  0
 23 24  1  0  0  0  0
 21 22  1  0  0  0  0
 18 21  1  0  0  0  0
 22 23  1  0  0  0  0
 34 35  1  0  0  0  0
  7  8  1  0  0  0  0
 17 18  1  0  0  0  0
  3  4  1  0  0  0  0
  3  5  1  0  0  0  0
  3  6  1  0  0  0  0
 38 41  1  0  0  0  0
 38 42  1  0  0  0  0
 38 43  1  0  0  0  0
 11 14  1  0  0  0  0
 11 15  1  0  0  0  0
 11 16  1  0  0  0  0
 45 47  1  0  0  0  0
 45 48  1  0  0  0  0
 45 49  1  0  0  0  0
 24 31  1  0  0  0  0
 24 32  1  0  0  0  0
 24 33  1  0  0  0  0
 21 27  1  0  0  0  0
 21 28  1  0  0  0  0
 22 29  1  0  0  0  0
 22 30  1  0  0  0  0
 35 40  1  0  0  0  0
  8 13  1  0  0  0  0
 18 26  1  0  0  0  0
 44 46  1  0  0  0  0
  7 12  1  0  0  0  0
 34 39  1  0  0  0  0
 17 25  1  0  0  0  0
M  END
$$$$

  -OEChem-05262214473D

 49 48  0     1  0  0  0  0  0999 V2000
   -0.0561   -5.3799    2.6949 C   0  0  0  0  0  0  0  0  0  0  0  0
    0.7325   -5.0736    3.5815 O   0  0  0  0  0  0  0  0  0  0  0  0
   -1.0067   -6.5099    2.9135 C   0  0  0  0  0  0  0  0  0  0  0  0
   -0.5910   -7.4777    2.5899 H   0  0  0  0  0  0  0  0  0  0  0  0
   -1.2629   -6.6440    3.9767 H   0  0  0  0  0  0  0  0  0  0  0  0
   -1.9729   -6.4206    2.3918 H   0  0  0  0  0  0  0  0  0  0  0  0
   -0.1735   -4.7694    1.4571 N   0  0  0  0  0  0  0  0  0  0  0  0
    0.6439   -3.6603    1.0409 C   0  0  2  0  0  0  0  0  0  0  0  0
   -0.2788   -2.5625    0.5280 C   0  0  0  0  0  0  0  0  0  0  0  0
   -1.4197   -2.7791    0.1251 O   0  0  0  0  0  0  0  0  0  0  0  0
    1.6395   -4.0779   -0.0301 C   0  0  0  0  0  0  0  0  0  0  0  0
   -0.8741   -5.1235    0.8083 H   0  0  0  0  0  0  0  0  0  0  0  0
    1.1738   -3.3062    1.9318 H   0  0  0  0  0  0  0  0  0  0  0  0
    1.1270   -4.4358   -0.9305 H   0  0  0  0  0  0  0  0  0  0  0  0
    2.2797   -3.2400   -0.3251 H   0  0  0  0  0  0  0  0  0  0  0  0
    2.2827   -4.8880    0.3303 H   0  0  0  0  0  0  0  0  0  0  0  0
    0.3351   -1.3153    0.5316 N   0  0  0  0  0  0  0  0  0  0  0  0
   -0.3268   -0.1184    0.0807 C   0  0  2  0  0  0  0  0  0  0  0  0
    0.6348    1.0574    0.2231 C   0  0  0  0  0  0  0  0  0  0  0  0
    0.6224    2.0270   -0.5325 O   0  0  0  0  0  0  0  0  0  0  0  0
   -1.6606    0.1128    0.8041 C   0  0  0  0  0  0  0  0  0  0  0  0
   -2.7199   -0.9472    0.4927 C   0  0  0  0  0  0  0  0  0  0  0  0
   -3.1090   -0.9569   -1.2828 S   0  0  0  0  0  0  0  0  0  0  0  0
   -3.9463    0.6418   -1.3747 C   0  0  0  0  0  0  0  0  0  0  0  0
    1.2790   -1.2290    0.9021 H   0  0  0  0  0  0  0  0  0  0  0  0
   -0.5219   -0.2691   -0.9880 H   0  0  0  0  0  0  0  0  0  0  0  0
   -2.0416    1.1026    0.5188 H   0  0  0  0  0  0  0  0  0  0  0  0
   -1.4805    0.1401    1.8864 H   0  0  0  0  0  0  0  0  0  0  0  0
   -3.6471   -0.7471    1.0380 H   0  0  0  0  0  0  0  0  0  0  0  0
   -2.3704   -1.9465    0.7684 H   0  0  0  0  0  0  0  0  0  0  0  0
   -4.2715    0.8327   -2.4003 H   0  0  0  0  0  0  0  0  0  0  0  0
   -3.2639    1.4365   -1.0634 H   0  0  0  0  0  0  0  0  0  0  0  0
   -4.8190    0.6420   -0.7171 H   0  0  0  0  0  0  0  0  0  0  0  0
    1.5276    0.8816    1.2706 N   0  0  0  0  0  0  0  0  0  0  0  0
    2.5448    1.8533    1.5970 C   0  0  2  0  0  0  0  0  0  0  0  0
    3.8103    1.0982    1.9816 C   0  0  0  0  0  0  0  0  0  0  0  0
    3.8027   -0.0652    2.3785 O   0  0  0  0  0  0  0  0  0  0  0  0
    2.0941    2.7687    2.7247 C   0  0  0  0  0  0  0  0  0  0  0  0
    1.4481    0.0605    1.8632 H   0  0  0  0  0  0  0  0  0  0  0  0
    2.7287    2.4362    0.6879 H   0  0  0  0  0  0  0  0  0  0  0  0
    1.9050    2.2024    3.6439 H   0  0  0  0  0  0  0  0  0  0  0  0
    2.8549    3.5228    2.9516 H   0  0  0  0  0  0  0  0  0  0  0  0
    1.1676    3.2885    2.4580 H   0  0  0  0  0  0  0  0  0  0  0  0
    4.9446    1.8901    1.8707 N   0  0  0  0  0  0  0  0  0  0  0  0
    6.2674    1.4065    2.1907 C   0  0  0  0  0  0  0  0  0  0  0  0
    4.8596    2.8378    1.5152 H   0  0  0  0  0  0  0  0  0  0  0  0
    6.4987    1.6376    3.2409 H   0  0  0  0  0  0  0  0  0  0  0  0
    6.3066    0.3179    2.0377 H   0  0  0  0  0  0  0  0  0  0  0  0
    7.0045    1.8955    1.5368 H   0  0  0  0  0  0  0  0  0  0  0  0
  1  3  1  0  0  0  0
  1  7  1  0  0  0  0
  1  2  2  0  0  0  0
 35 36  1  0  0  0  0
 36 44  1  0  0  0  0
 36 37  2  0  0  0  0
  8  9  1  0  0  0  0
  9 17  1  0  0  0  0
  9 10  2  0  0  0  0
 18 19  1  0  0  0  0
 19 34  1  0  0  0  0
 19 20  2  0  0  0  0
 35 38  1  0  0  0  0
  8 11  1  0  0  0  0
 44 45  1  0  0  0  0
 23 24  1  0  0  0  0
 21 22  1  0  0  0  0
 18 21  1  0  0  0  0
 22 23  1  0  0  0  0
 34 35  1  0  0  0  0
  7  8  1  0  0  0  0
 17 18  1  0  0  0  0
  3  4  1  0  0  0  0
  3  5  1  0  0  0  0
  3  6  1  0  0  0  0
 38 41  1  0  0  0  0
 38 42  1  0  0  0  0
 38 43  1  0  0  0  0
 11 14  1  0  0  0  0
 11 15  1  0  0  0  0
 11 16  1  0  0  0  0
 45 47  1  0  0  0  0
 45 48  1  0  0  0  0
 45 49  1  0  0  0  0
 24 31  1  0  0  0  0
 24 32  1  0  0  0  0
 24 33  1  0  0  0  0
 21 27  1  0  0  0  0
 21 28  1  0  0  0  0
 22 29  1  0  0  0  0
 22 30  1  0  0  0  0
 35 40  1  0  0  0  0
  8 13  1  0  0  0  0
 18 26  1  0  0  0  0
 44 46  1  0  0  0  0
  7 12  1  0  0  0  0
 34 39  1  0  0  0  0
 17 25  1  0  0  0  0
M  END
$$$$

  -OEChem-05262214473D

 49 48  0     1  0  0  0  0  0999 V2000
   -0.0561   -5.3799    2.6949 C   0  0  0  0  0  0  0  0  0  0  0  0
    0.7325   -5.0736    3.5815 O   0  0  0  0  0  0  0  0  0  0  0  0
   -1.0067   -6.5099    2.9135 C   0  0  0  0  0  0  0  0  0  0  0  0
   -0.5910   -7.4777    2.5899 H   0  0  0  0  0  0  0  0  0  0  0  0
   -1.2629   -6.6440    3.9767 H   0  0  0  0  0  0  0  0  0  0  0  0
   -1.9729   -6.4206    2.3918 H   0  0  0  0  0  0  0  0  0  0  0  0
   -0.1735   -4.7694    1.4571 N   0  0  0  0  0  0  0  0  0  0  0  0
    0.6439   -3.6603    1.0409 C   0  0  2  0  0  0  0  0  0  0  0  0
   -0.2788   -2.5625    0.5280 C   0  0  0  0  0  0  0  0  0  0  0  0
   -1.4197   -2.7791    0.1251 O   0  0  0  0  0  0  0  0  0  0  0  0
    1.6395   -4.0779   -0.0301 C   0  0  0  0  0  0  0  0  0  0  0  0
   -0.8741   -5.1235    0.8083 H   0  0  0  0  0  0  0  0  0  0  0  0
    1.1738   -3.3062    1.9318 H   0  0  0  0  0  0  0  0  0  0  0  0
    1.1270   -4.4358   -0.9305 H   0  0  0  0  0  0  0  0  0  0  0  0
    2.2797   -3.2400   -0.3251 H   0  0  0  0  0  0  0  0  0  0  0  0
    2.2827   -4.8880    0.3303 H   0  0  0  0  0  0  0  0  0  0  0  0
    0.3351   -1.3153    0.5316 N   0  0  0  0  0  0  0  0  0  0  0  0
   -0.3268   -0.1184    0.0807 C   0  0  2  0  0  0  0  0  0  0  0  0
    0.6348    1.0574    0.2231 C   0  0  0  0  0  0  0  0  0  0  0  0
    0.4631    2.1345   -0.3440 O   0  0  0  0  0  0  0  0  0  0  0  0
   -1.6606    0.1128    0.8041 C   0  0  0  0  0  0  0  0  0  0  0  0
   -2.7199   -0.9472    0.4927 C   0  0  0  0  0  0  0  0  0  0  0  0
   -3.1090   -0.9569   -1.2828 S   0  0  0  0  0  0  0  0  0  0  0  0
   -3.9463    0.6418   -1.3747 C   0  0  0  0  0  0  0  0  0  0  0  0
    1.2790   -1.2290    0.9021 H   0  0  0  0  0  0  0  0  0  0  0  0
   -0.5219   -0.2691   -0.9880 H   0  0  0  0  0  0  0  0  0  0  0  0
   -2.0416    1.1026    0.5188 H   0  0  0  0  0  0  0  0  0  0  0  0
   -1.4805    0.1401    1.8864 H   0  0  0  0  0  0  0  0  0  0  0  0
   -3.6471   -0.7471    1.0380 H   0  0  0  0  0  0  0  0  0  0  0  0
   -2.3704   -1.9465    0.7684 H   0  0  0  0  0  0  0  0  0  0  0  0
   -4.2715    0.8327   -2.4003 H   0  0  0  0  0  0  0  0  0  0  0  0
   -3.2639    1.4365   -1.0634 H   0  0  0  0  0  0  0  0  0  0  0  0
   -4.8190    0.6420   -0.7171 H   0  0  0  0  0  0  0  0  0  0  0  0
    1.7216    0.7521    1.0298 N   0  0  0  0  0  0  0  0  0  0  0  0
    2.7764    1.6992    1.3052 C   0  0  2  0  0  0  0  0  0  0  0  0
    4.0991    0.9443    1.3020 C   0  0  0  0  0  0  0  0  0  0  0  0
    4.1805   -0.2671    1.4943 O   0  0  0  0  0  0  0  0  0  0  0  0
    2.5551    2.4024    2.6354 C   0  0  0  0  0  0  0  0  0  0  0  0
    1.7694   -0.1561    1.4821 H   0  0  0  0  0  0  0  0  0  0  0  0
    2.7689    2.4277    0.4871 H   0  0  0  0  0  0  0  0  0  0  0  0
    2.5594    1.6886    3.4672 H   0  0  0  0  0  0  0  0  0  0  0  0
    3.3403    3.1406    2.8293 H   0  0  0  0  0  0  0  0  0  0  0  0
    1.5900    2.9202    2.6467 H   0  0  0  0  0  0  0  0  0  0  0  0
    5.1817    1.7893    1.1019 N   0  0  0  0  0  0  0  0  0  0  0  0
    6.5455    1.3148    1.0698 C   0  0  0  0  0  0  0  0  0  0  0  0
    5.0196    2.7775    0.9321 H   0  0  0  0  0  0  0  0  0  0  0  0
    6.9819    1.3834    2.0772 H   0  0  0  0  0  0  0  0  0  0  0  0
    6.5614    0.2674    0.7340 H   0  0  0  0  0  0  0  0  0  0  0  0
    7.1320    1.9320    0.3734 H   0  0  0  0  0  0  0  0  0  0  0  0
  1  3  1  0  0  0  0
  1  7  1  0  0  0  0
  1  2  2  0  0  0  0
 35 36  1  0  0  0  0
 36 44  1  0  0  0  0
 36 37  2  0  0  0  0
  8  9  1  0  0  0  0
  9 17  1  0  0  0  0
  9 10  2  0  0  0  0
 18 19  1  0  0  0  0
 19 34  1  0  0  0  0
 19 20  2  0  0  0  0
 35 38  1  0  0  0  0
  8 11  1  0  0  0  0
 44 45  1  0  0  0  0
 23 24  1  0  0  0  0
 21 22  1  0  0  0  0
 18 21  1  0  0  0  0
 22 23  1  0  0  0  0
 34 35  1  0  0  0  0
  7  8  1  0  0  0  0
 17 18  1  0  0  0  0
  3  4  1  0  0  0  0
  3  5  1  0  0  0  0
  3  6  1  0  0  0  0
 38 41  1  0  0  0  0
 38 42  1  0  0  0  0
 38 43  1  0  0  0  0
 11 14  1  0  0  0  0
 11 15  1  0  0  0  0
 11 16  1  0  0  0  0
 45 47  1  0  0  0  0
 45 48  1  0  0  0  0
 45 49  1  0  0  0  0
 24 31  1  0  0  0  0
 24 32  1  0  0  0  0
 24 33  1  0  0  0  0
 21 27  1  0  0  0  0
 21 28  1  0  0  0  0
 22 29  1  0  0  0  0
 22 30  1  0  0  0  0
 35 40  1  0  0  0  0
  8 13  1  0  0  0  0
 18 26  1  0  0  0  0
 44 46  1  0  0  0  0
  7 12  1  0  0  0  0
 34 39  1  0  0  0  0
 17 25  1  0  0  0  0
M  END
$$$$

  -OEChem-05262214473D

 49 48  0     1  0  0  0  0  0999 V2000
   -0.0561   -5.3799    2.6949 C   0  0  0  0  0  0  0  0  0  0  0  0
    0.7325   -5.0736    3.5815 O   0  0  0  0  0  0  0  0  0  0  0  0
   -1.0067   -6.5099    2.9135 C   0  0  0  0  0  0  0  0  0  0  0  0
   -0.5910   -7.4777    2.5899 H   0  0  0  0  0  0  0  0  0  0  0  0
   -1.2629   -6.6440    3.9767 H   0  0  0  0  0  0  0  0  0  0  0  0
   -1.9729   -6.4206    2.3918 H   0  0  0  0  0  0  0  0  0  0  0  0
   -0.1735   -4.7694    1.4571 N   0  0  0  0  0  0  0  0  0  0  0  0
    0.6439   -3.6603    1.0409 C   0  0  2  0  0  0  0  0  0  0  0  0
   -0.2788   -2.5625    0.5280 C   0  0  0  0  0  0  0  0  0  0  0  0
   -1.4197   -2.7791    0.1251 O   0  0  0  0  0  0  0  0  0  0  0  0
    1.6395   -4.0779   -0.0301 C   0  0  0  0  0  0  0  0  0  0  0  0
   -0.8741   -5.1235    0.8083 H   0  0  0  0  0  0  0  0  0  0  0  0
    1.1738   -3.3062    1.9318 H   0  0  0  0  0  0  0  0  0  0  0  0
    1.1270   -4.4358   -0.9305 H   0  0  0  0  0  0  0  0  0  0  0  0
    2.2797   -3.2400   -0.3251 H   0  0  0  0  0  0  0  0  0  0  0  0
    2.2827   -4.8880    0.3303 H   0  0  0  0  0  0  0  0  0  0  0  0
    0.3351   -1.3153    0.5316 N   0  0  0  0  0  0  0  0  0  0  0  0
   -0.3268   -0.1184    0.0807 C   0  0  2  0  0  0  0  0  0  0  0  0
    0.6348    1.0574    0.2231 C   0  0  0  0  0  0  0  0  0  0  0  0
    0.3442    2.2037   -0.1126 O   0  0  0  0  0  0  0  0  0  0  0  0
   -1.6606    0.1128    0.8041 C   0  0  0  0  0  0  0  0  0  0  0  0
   -2.7199   -0.9472    0.4927 C   0  0  0  0  0  0  0  0  0  0  0  0
   -3.1090   -0.9569   -1.2828 S   0  0  0  0  0  0  0  0  0  0  0  0
   -3.9463    0.6418   -1.3747 C   0  0  0  0  0  0  0  0  0  0  0  0
    1.2790   -1.2290    0.9021 H   0  0  0  0  0  0  0  0  0  0  0  0
   -0.5219   -0.2691   -0.9880 H   0  0  0  0  0  0  0  0  0  0  0  0
   -2.0416    1.1026    0.5188 H   0  0  0  0  0  0  0  0  0  0  0  0
   -1.4805    0.1401    1.8864 H   0  0  0  0  0  0  0  0  0  0  0  0
   -3.6471   -0.7471    1.0380 H   0  0  0  0  0  0  0  0  0  0  0  0
   -2.3704   -1.9465    0.7684 H   0  0  0  0  0  0  0  0  0  0  0  0
   -4.2715    0.8327   -2.4003 H   0  0  0  0  0  0  0  0  0  0  0  0
   -3.2639    1.4365   -1.0634 H   0  0  0  0  0  0  0  0  0  0  0  0
   -4.8190    0.6420   -0.7171 H   0  0  0  0  0  0  0  0  0  0  0  0
    1.8641    0.6709    0.7374 N   0  0  0  0  0  0  0  0  0  0  0  0
    2.9455    1.6036    0.9521 C   0  0  2  0  0  0  0  0  0  0  0  0
    4.2461    0.9135    0.5627 C   0  0  0  0  0  0  0  0  0  0  0  0
    4.3738   -0.3087    0.5319 O   0  0  0  0  0  0  0  0  0  0  0  0
    2.9915    2.0744    2.3974 C   0  0  0  0  0  0  0  0  0  0  0  0
    2.0090   -0.2954    1.0146 H   0  0  0  0  0  0  0  0  0  0  0  0
    2.7678    2.4531    0.2836 H   0  0  0  0  0  0  0  0  0  0  0  0
    3.1687    1.2369    3.0821 H   0  0  0  0  0  0  0  0  0  0  0  0
    3.7940    2.8031    2.5520 H   0  0  0  0  0  0  0  0  0  0  0  0
    2.0445    2.5438    2.6847 H   0  0  0  0  0  0  0  0  0  0  0  0
    5.2598    1.8230    0.2955 N   0  0  0  0  0  0  0  0  0  0  0  0
    6.5927    1.4157   -0.0834 C   0  0  0  0  0  0  0  0  0  0  0  0
    5.0594    2.8183    0.3271 H   0  0  0  0  0  0  0  0  0  0  0  0
    7.2227    1.3393    0.8152 H   0  0  0  0  0  0  0  0  0  0  0  0
    6.5486    0.4375   -0.5844 H   0  0  0  0  0  0  0  0  0  0  0  0
    7.0222    2.1602   -0.7698 H   0  0  0  0  0  0  0  0  0  0  0  0
  1  3  1  0  0  0  0
  1  7  1  0  0  0  0
  1  2  2  0  0  0  0
 35 36  1  0  0  0  0
 36 44  1  0  0  0  0
 36 37  2  0  0  0  0
  8  9  1  0  0  0  0
  9 17  1  0  0  0  0
  9 10  2  0  0  0  0
 18 19  1  0  0  0  0
 19 34  1  0  0  0  0
 19 20  2  0  0  0  0
 35 38  1  0  0  0  0
  8 11  1  0  0  0  0
 44 45  1  0  0  0  0
 23 24  1  0  0  0  0
 21 22  1  0  0  0  0
 18 21  1  0  0  0  0
 22 23  1  0  0  0  0
 34 35  1  0  0  0  0
  7  8  1  0  0  0  0
 17 18  1  0  0  0  0
  3  4  1  0  0  0  0
  3  5  1  0  0  0  0
  3  6  1  0  0  0  0
 38 41  1  0  0  0  0
 38 42  1  0  0  0  0
 38 43  1  0  0  0  0
 11 14  1  0  0  0  0
 11 15  1  0  0  0  0
 11 16  1  0  0  0  0
 45 47  1  0  0  0  0
 45 48  1  0  0  0  0
 45 49  1  0  0  0  0
 24 31  1  0  0  0  0
 24 32  1  0  0  0  0
 24 33  1  0  0  0  0
 21 27  1  0  0  0  0
 21 28  1  0  0  0  0
 22 29  1  0  0  0  0
 22 30  1  0  0  0  0
 35 40  1  0  0  0  0
  8 13  1  0  0  0  0
 18 26  1  0  0  0  0
 44 46  1  0  0  0  0
  7 12  1  0  0  0  0
 34 39  1  0  0  0  0
 17 25  1  0  0  0  0
M  END
$$$$

  -OEChem-05262214473D

 49 48  0     1  0  0  0  0  0999 V2000
   -0.0561   -5.3799    2.6949 C   0  0  0  0  0  0  0  0  0  0  0  0
    0.7325   -5.0736    3.5815 O   0  0  0  0  0  0  0  0  0  0  0  0
   -1.0067   -6.5099    2.9135 C   0  0  0  0  0  0  0  0  0  0  0  0
   -0.5910   -7.4777    2.5899 H   0  0  0  0  0  0  0  0  0  0  0  0
   -1.2629   -6.6440    3.9767 H   0  0  0  0  0  0  0  0  0  0  0  0
   -1.9729   -6.4206    2.3918 H   0  0  0  0  0  0  0  0  0  0  0  0
   -0.1735   -4.7694    1.4571 N   0  0  0  0  0  0  0  0  0  0  0  0
    0.6439   -3.6603    1.0409 C   0  0  2  0  0  0  0  0  0  0  0  0
   -0.2788   -2.5625    0.5280 C   0  0  0  0  0  0  0  0  0  0  0  0
   -1.4197   -2.7791    0.1251 O   0  0  0  0  0  0  0  0  0  0  0  0
    1.6395   -4.0779   -0.0301 C   0  0  0  0  0  0  0  0  0  0  0  0
   -0.8741   -5.1235    0.8083 H   0  0  0  0  0  0  0  0  0  0  0  0
    1.1738   -3.3062    1.9318 H   0  0  0  0  0  0  0  0  0  0  0  0
    1.1270   -4.4358   -0.9305 H   0  0  0  0  0  0  0  0  0  0  0  0
    2.2797   -3.2400   -0.3251 H   0  0  0  0  0  0  0  0  0  0  0  0
    2.2827   -4.8880    0.3303 H   0  0  0  0  0  0  0  0  0  0  0  0
    0.3351   -1.3153    0.5316 N   0  0  0  0  0  0  0  0  0  0  0  0
   -0.3268   -0.1184    0.0807 C   0  0  2  0  0  0  0  0  0  0  0  0
    0.6348    1.0574    0.2231 C   0  0  0  0  0  0  0  0  0  0  0  0
    0.2738    2.2300    0.1460 O   0  0  0  0  0  0  0  0  0  0  0  0
   -1.6606    0.1128    0.8041 C   0  0  0  0  0  0  0  0  0  0  0  0
   -2.7199   -0.9472    0.4927 C   0  0  0  0  0  0  0  0  0  0  0  0
   -3.1090   -0.9569   -1.2828 S   0  0  0  0  0  0  0  0  0  0  0  0
   -3.9463    0.6418   -1.3747 C   0  0  0  0  0  0  0  0  0  0  0  0
    1.2790   -1.2290    0.9021 H   0  0  0  0  0  0  0  0  0  0  0  0
   -0.5219   -0.2691   -0.9880 H   0  0  0  0  0  0  0  0  0  0  0  0
   -2.0416    1.1026    0.5188 H   0  0  0  0  0  0  0  0  0  0  0  0
   -1.4805    0.1401    1.8864 H   0  0  0  0  0  0  0  0  0  0  0  0
   -3.6471   -0.7471    1.0380 H   0  0  0  0  0  0  0  0  0  0  0  0
   -2.3704   -1.9465    0.7684 H   0  0  0  0  0  0  0  0  0  0  0  0
   -4.2715    0.8327   -2.4003 H   0  0  0  0  0  0  0  0  0  0  0  0
   -3.2639    1.4365   -1.0634 H   0  0  0  0  0  0  0  0  0  0  0  0
   -4.8190    0.6420   -0.7171 H   0  0  0  0  0  0  0  0  0  0  0  0
    1.9455    0.6437    0.4133 N   0  0  0  0  0  0  0  0  0  0  0  0
    3.0408    1.5730    0.5616 C   0  0  2  0  0  0  0  0  0  0  0  0
    4.2415    1.0079   -0.1857 C   0  0  0  0  0  0  0  0  0  0  0  0
    4.3696   -0.1872   -0.4431 O   0  0  0  0  0  0  0  0  0  0  0  0
    3.3735    1.8068    2.0270 C   0  0  0  0  0  0  0  0  0  0  0  0
    2.1505   -0.3480    0.4925 H   0  0  0  0  0  0  0  0  0  0  0  0
    2.7256    2.5109    0.0915 H   0  0  0  0  0  0  0  0  0  0  0  0
    3.6913    0.8781    2.5149 H   0  0  0  0  0  0  0  0  0  0  0  0
    4.1851    2.5333    2.1386 H   0  0  0  0  0  0  0  0  0  0  0  0
    2.5002    2.1851    2.5693 H   0  0  0  0  0  0  0  0  0  0  0  0
    5.1736    1.9890   -0.4935 N   0  0  0  0  0  0  0  0  0  0  0  0
    6.4059    1.7025   -1.1902 C   0  0  0  0  0  0  0  0  0  0  0  0
    4.9761    2.9573   -0.2585 H   0  0  0  0  0  0  0  0  0  0  0  0
    7.2045    1.5084   -0.4591 H   0  0  0  0  0  0  0  0  0  0  0  0
    6.2692    0.8165   -1.8276 H   0  0  0  0  0  0  0  0  0  0  0  0
    6.6826    2.5645   -1.8150 H   0  0  0  0  0  0  0  0  0  0  0  0
  1  3  1  0  0  0  0
  1  7  1  0  0  0  0
  1  2  2  0  0  0  0
 35 36  1  0  0  0  0
 36 44  1  0  0  0  0
 36 37  2  0  0  0  0
  8  9  1  0  0  0  0
  9 17  1  0  0  0  0
  9 10  2  0  0  0  0
 18 19  1  0  0  0  0
 19 34  1  0  0  0  0
 19 20  2  0  0  0  0
 35 38  1  0  0  0  0
  8 11  1  0  0  0  0
 44 45  1  0  0  0  0
 23 24  1  0  0  0  0
 21 22  1  0  0  0  0
 18 21  1  0  0  0  0
 22 23  1  0  0  0  0
 34 35  1  0  0  0  0
  7  8  1  0  0  0  0
 17 18  1  0  0  0  0
  3  4  1  0  0  0  0
  3  5  1  0  0  0  0
  3  6  1  0  0  0  0
 38 41  1  0  0  0  0
 38 42  1  0  0  0  0
 38 43  1  0  0  0  0
 11 14  1  0  0  0  0
 11 15  1  0  0  0  0
 11 16  1  0  0  0  0
 45 47  1  0  0  0  0
 45 48  1  0  0  0  0
 45 49  1  0  0  0  0
 24 31  1  0  0  0  0
 24 32  1  0  0  0  0
 24 33  1  0  0  0  0
 21 27  1  0  0  0  0
 21 28  1  0  0  0  0
 22 29  1  0  0  0  0
 22 30  1  0  0  0  0
 35 40  1  0  0  0  0
  8 13  1  0  0  0  0
 18 26  1  0  0  0  0
 44 46  1  0  0  0  0
  7 12  1  0  0  0  0
 34 39  1  0  0  0  0
 17 25  1  0  0  0  0
M  END
$$$$

  -OEChem-05262214473D

 49 48  0     1  0  0  0  0  0999 V2000
   -0.0561   -5.3799    2.6949 C   0  0  0  0  0  0  0  0  0  0  0  0
    0.7325   -5.0736    3.5815 O   0  0  0  0  0  0  0  0  0  0  0  0
   -1.0067   -6.5099    2.9135 C   0  0  0  0  0  0  0  0  0  0  0  0
   -0.5910   -7.4777    2.5899 H   0  0  0  0  0  0  0  0  0  0  0  0
   -1.2629   -6.6440    3.9767 H   0  0  0  0  0  0  0  0  0  0  0  0
   -1.9729   -6.4206    2.3918 H   0  0  0  0  0  0  0  0  0  0  0  0
   -0.1735   -4.7694    1.4571 N   0  0  0  0  0  0  0  0  0  0  0  0
    0.6439   -3.6603    1.0409 C   0  0  2  0  0  0  0  0  0  0  0  0
   -0.2788   -2.5625    0.5280 C   0  0  0  0  0  0  0  0  0  0  0  0
   -1.4197   -2.7791    0.1251 O   0  0  0  0  0  0  0  0  0  0  0  0
    1.6395   -4.0779   -0.0301 C   0  0  0  0  0  0  0  0  0  0  0  0
   -0.8741   -5.1235    0.8083 H   0  0  0  0  0  0  0  0  0  0  0  0
    1.1738   -3.3062    1.9318 H   0  0  0  0  0  0  0  0  0  0  0  0
    1.1270   -4.4358   -0.9305 H   0  0  0  0  0  0  0  0  0  0  0  0
    2.2797   -3.2400   -0.3251 H   0  0  0  0  0  0  0  0  0  0  0  0
    2.2827   -4.8880    0.3303 H   0  0  0  0  0  0  0  0  0  0  0  0
    0.3351   -1.3153    0.5316 N   0  0  0  0  0  0  0  0  0  0  0  0
   -0.3268   -0.1184    0.0807 C   0  0  2  0  0  0  0  0  0  0  0  0
    0.6348    1.0574    0.2231 C   0  0  0  0  0  0  0  0  0  0  0  0
    0.2568    2.2115    0.4140 O   0  0  0  0  0  0  0  0  0  0  0  0
   -1.6606    0.1128    0.8041 C   0  0  0  0  0  0  0  0  0  0  0  0
   -2.7199   -0.9472    0.4927 C   0  0  0  0  0  0  0  0  0  0  0  0
   -3.1090   -0.9569   -1.2828 S   0  0  0  0  0  0  0  0  0  0  0  0
   -3.9463    0.6418   -1.3747 C   0  0  0  0  0  0  0  0  0  0  0  0
    1.2790   -1.2290    0.9021 H   0  0  0  0  0  0  0  0  0  0  0  0
   -0.5219   -0.2691   -0.9880 H   0  0  0  0  0  0  0  0  0  0  0  0
   -2.0416    1.1026    0.5188 H   0  0  0  0  0  0  0  0  0  0  0  0
   -1.4805    0.1401    1.8864 H   0  0  0  0  0  0  0  0  0  0  0  0
   -3.6471   -0.7471    1.0380 H   0  0  0  0  0  0  0  0  0  0  0  0
   -2.3704   -1.9465    0.7684 H   0  0  0  0  0  0  0  0  0  0  0  0
   -4.2715    0.8327   -2.4003 H   0  0  0  0  0  0  0  0  0  0  0  0
   -3.2639    1.4365   -1.0634 H   0  0  0  0  0  0  0  0  0  0  0  0
   -4.8190    0.6420   -0.7171 H   0  0  0  0  0  0  0  0  0  0  0  0
    1.9600    0.6722    0.0795 N   0  0  0  0  0  0  0  0  0  0  0  0
    3.0557    1.6094    0.1605 C   0  0  2  0  0  0  0  0  0  0  0  0
    4.0854    1.2211   -0.8923 C   0  0  0  0  0  0  0  0  0  0  0  0
    4.1682    0.0891   -1.3642 O   0  0  0  0  0  0  0  0  0  0  0  0
    3.6750    1.6180    1.5494 C   0  0  0  0  0  0  0  0  0  0  0  0
    2.1843   -0.3101   -0.0487 H   0  0  0  0  0  0  0  0  0  0  0  0
    2.6452    2.5971   -0.0762 H   0  0  0  0  0  0  0  0  0  0  0  0
    4.0917    0.6368    1.8042 H   0  0  0  0  0  0  0  0  0  0  0  0
    4.4869    2.3496    1.6172 H   0  0  0  0  0  0  0  0  0  0  0  0
    2.9260    1.8684    2.3085 H   0  0  0  0  0  0  0  0  0  0  0  0
    4.9290    2.2760   -1.2113 N   0  0  0  0  0  0  0  0  0  0  0  0
    5.9978    2.1556   -2.1752 C   0  0  0  0  0  0  0  0  0  0  0  0
    4.7755    3.1851   -0.7849 H   0  0  0  0  0  0  0  0  0  0  0  0
    6.9287    1.8792   -1.6586 H   0  0  0  0  0  0  0  0  0  0  0  0
    5.7421    1.3787   -2.9108 H   0  0  0  0  0  0  0  0  0  0  0  0
    6.1364    3.1174   -2.6908 H   0  0  0  0  0  0  0  0  0  0  0  0
  1  3  1  0  0  0  0
  1  7  1  0  0  0  0
  1  2  2  0  0  0  0
 35 36  1  0  0  0  0
 36 44  1  0  0  0  0
 36 37  2  0  0  0  0
  8  9  1  0  0  0  0
  9 17  1  0  0  0  0
  9 10  2  0  0  0  0
 18 19  1  0  0  0  0
 19 34  1  0  0  0  0
 19 20  2  0  0  0  0
 35 38  1  0  0  0  0
  8 11  1  0  0  0  0
 44 45  1  0  0  0  0
 23 24  1  0  0  0  0
 21 22  1  0  0  0  0
 18 21  1  0  0  0  0
 22 23  1  0  0  0  0
 34 35  1  0  0  0  0
  7  8  1  0  0  0  0
 17 18  1  0  0  0  0
  3  4  1  0  0  0  0
  3  5  1  0  0  0  0
  3  6  1  0  0  0  0
 38 41  1  0  0  0  0
 38 42  1  0  0  0  0
 38 43  1  0  0  0  0
 11 14  1  0  0  0  0
 11 15  1  0  0  0  0
 11 16  1  0  0  0  0
 45 47  1  0  0  0  0
 45 48  1  0  0  0  0
 45 49  1  0  0  0  0
 24 31  1  0  0  0  0
 24 32  1  0  0  0  0
 24 33  1  0  0  0  0
 21 27  1  0  0  0  0
 21 28  1  0  0  0  0
 22 29  1  0  0  0  0
 22 30  1  0  0  0  0
 35 40  1  0  0  0  0
  8 13  1  0  0  0  0
 18 26  1  0  0  0  0
 44 46  1  0  0  0  0
  7 12  1  0  0  0  0
 34 39  1  0  0  0  0
 17 25  1  0  0  0  0
M  END
$$$$

  -OEChem-05262214473D

 49 48  0     1  0  0  0  0  0999 V2000
   -0.0561   -5.3799    2.6949 C   0  0  0  0  0  0  0  0  0  0  0  0
    0.7325   -5.0736    3.5815 O   0  0  0  0  0  0  0  0  0  0  0  0
   -1.0067   -6.5099    2.9135 C   0  0  0  0  0  0  0  0  0  0  0  0
   -0.5910   -7.4777    2.5899 H   0  0  0  0  0  0  0  0  0  0  0  0
   -1.2629   -6.6440    3.9767 H   0  0  0  0  0  0  0  0  0  0  0  0
   -1.9729   -6.4206    2.3918 H   0  0  0  0  0  0  0  0  0  0  0  0
   -0.1735   -4.7694    1.4571 N   0  0  0  0  0  0  0  0  0  0  0  0
    0.6439   -3.6603    1.0409 C   0  0  2  0  0  0  0  0  0  0  0  0
   -0.2788   -2.5625    0.5280 C   0  0  0  0  0  0  0  0  0  0  0  0
   -1.4197   -2.7791    0.1251 O   0  0  0  0  0  0  0  0  0  0  0  0
    1.6395   -4.0779   -0.0301 C   0  0  0  0  0  0  0  0  0  0  0  0
   -0.8741   -5.1235    0.8083 H   0  0  0  0  0  0  0  0  0  0  0  0
    1.1738   -3.3062    1.9318 H   0  0  0  0  0  0  0  0  0  0  0  0
    1.1270   -4.4358   -0.9305 H   0  0  0  0  0  0  0  0  0  0  0  0
    2.2797   -3.2400   -0.3251 H   0  0  0  0  0  0  0  0  0  0  0  0
    2.2827   -4.8880    0.3303 H   0  0  0  0  0  0  0  0  0  0  0  0
    0.3351   -1.3153    0.5316 N   0  0  0  0  0  0  0  0  0  0  0  0
   -0.3268   -0.1184    0.0807 C   0  0  2  0  0  0  0  0  0  0  0  0
    0.6348    1.0574    0.2231 C   0  0  0  0  0  0  0  0  0  0  0  0
    0.2942    2.1494    0.6733 O   0  0  0  0  0  0  0  0  0  0  0  0
   -1.6606    0.1128    0.8041 C   0  0  0  0  0  0  0  0  0  0  0  0
   -2.7199   -0.9472    0.4927 C   0  0  0  0  0  0  0  0  0  0  0  0
   -3.1090   -0.9569   -1.2828 S   0  0  0  0  0  0  0  0  0  0  0  0
   -3.9463    0.6418   -1.3747 C   0  0  0  0  0  0  0  0  0  0  0  0
    1.2790   -1.2290    0.9021 H   0  0  0  0  0  0  0  0  0  0  0  0
   -0.5219   -0.2691   -0.9880 H   0  0  0  0  0  0  0  0  0  0  0  0
   -2.0416    1.1026    0.5188 H   0  0  0  0  0  0  0  0  0  0  0  0
   -1.4805    0.1401    1.8864 H   0  0  0  0  0  0  0  0  0  0  0  0
   -3.6471   -0.7471    1.0380 H   0  0  0  0  0  0  0  0  0  0  0  0
   -2.3704   -1.9465    0.7684 H   0  0  0  0  0  0  0  0  0  0  0  0
   -4.2715    0.8327   -2.4003 H   0  0  0  0  0  0  0  0  0  0  0  0
   -3.2639    1.4365   -1.0634 H   0  0  0  0  0  0  0  0  0  0  0  0
   -4.8190    0.6420   -0.7171 H   0  0  0  0  0  0  0  0  0  0  0  0
    1.9068    0.7545   -0.2411 N   0  0  0  0  0  0  0  0  0  0  0  0
    2.9891    1.7104   -0.2241 C   0  0  2  0  0  0  0  0  0  0  0  0
    3.7886    1.5385   -1.5089 C   0  0  0  0  0  0  0  0  0  0  0  0
    3.7832    0.5013   -2.1687 O   0  0  0  0  0  0  0  0  0  0  0  0
    3.8755    1.5209    0.9971 C   0  0  0  0  0  0  0  0  0  0  0  0
    2.1081   -0.1845   -0.5719 H   0  0  0  0  0  0  0  0  0  0  0  0
    2.5319    2.7057   -0.2081 H   0  0  0  0  0  0  0  0  0  0  0  0
    4.3424    0.5292    0.9985 H   0  0  0  0  0  0  0  0  0  0  0  0
    4.6789    2.2645    1.0235 H   0  0  0  0  0  0  0  0  0  0  0  0
    3.2930    1.6153    1.9199 H   0  0  0  0  0  0  0  0  0  0  0  0
    4.5426    2.6644   -1.8090 N   0  0  0  0  0  0  0  0  0  0  0  0
    5.3961    2.7441   -2.9714 C   0  0  0  0  0  0  0  0  0  0  0  0
    4.4712    3.4862   -1.2162 H   0  0  0  0  0  0  0  0  0  0  0  0
    6.4141    2.4264   -2.7019 H   0  0  0  0  0  0  0  0  0  0  0  0
    5.0034    2.0857   -3.7603 H   0  0  0  0  0  0  0  0  0  0  0  0
    5.4207    3.7810   -3.3377 H   0  0  0  0  0  0  0  0  0  0  0  0
  1  3  1  0  0  0  0
  1  7  1  0  0  0  0
  1  2  2  0  0  0  0
 35 36  1  0  0  0  0
 36 44  1  0  0  0  0
 36 37  2  0  0  0  0
  8  9  1  0  0  0  0
  9 17  1  0  0  0  0
  9 10  2  0  0  0  0
 18 19  1  0  0  0  0
 19 34  1  0  0  0  0
 19 20  2  0  0  0  0
 35 38  1  0  0  0  0
  8 11  1  0  0  0  0
 44 45  1  0  0  0  0
 23 24  1  0  0  0  0
 21 22  1  0  0  0  0
 18 21  1  0  0  0  0
 22 23  1  0  0  0  0
 34 35  1  0  0  0  0
  7  8  1  0  0  0  0
 17 18  1  0  0  0  0
  3  4  1  0  0  0  0
  3  5  1  0  0  0  0
  3  6  1  0  0  0  0
 38 41  1  0  0  0  0
 38 42  1  0  0  0  0
 38 43  1  0  0  0  0
 11 14  1  0  0  0  0
 11 15  1  0  0  0  0
 11 16  1  0  0  0  0
 45 47  1  0  0  0  0
 45 48  1  0  0  0  0
 45 49  1  0  0  0  0
 24 31  1  0  0  0  0
 24 32  1  0  0  0  0
 24 33  1  0  0  0  0
 21 27  1  0  0  0  0
 21 28  1  0  0  0  0
 22 29  1  0  0  0  0
 22 30  1  0  0  0  0
 35 40  1  0  0  0  0
  8 13  1  0  0  0  0
 18 26  1  0  0  0  0
 44 46  1  0  0  0  0
  7 12  1  0  0  0  0
 34 39  1  0  0  0  0
 17 25  1  0  0  0  0
M  END
$$$$

  -OEChem-05262214473D

 49 48  0     1  0  0  0  0  0999 V2000
   -0.0561   -5.3799    2.6949 C   0  0  0  0  0  0  0  0  0  0  0  0
    0.7325   -5.0736    3.5815 O   0  0  0  0  0  0  0  0  0  0  0  0
   -1.0067   -6.5099    2.9135 C   0  0  0  0  0  0  0  0  0  0  0  0
   -0.5910   -7.4777    2.5899 H   0  0  0  0  0  0  0  0  0  0  0  0
   -1.2629   -6.6440    3.9767 H   0  0  0  0  0  0  0  0  0  0  0  0
   -1.9729   -6.4206    2.3918 H   0  0  0  0  0  0  0  0  0  0  0  0
   -0.1735   -4.7694    1.4571 N   0  0  0  0  0  0  0  0  0  0  0  0
    0.6439   -3.6603    1.0409 C   0  0  2  0  0  0  0  0  0  0  0  0
   -0.2788   -2.5625    0.5280 C   0  0  0  0  0  0  0  0  0  0  0  0
   -1.4197   -2.7791    0.1251 O   0  0  0  0  0  0  0  0  0  0  0  0
    1.6395   -4.0779   -0.0301 C   0  0  0  0  0  0  0  0  0  0  0  0
   -0.8741   -5.1235    0.8083 H   0  0  0  0  0  0  0  0  0  0  0  0
    1.1738   -3.3062    1.9318 H   0  0  0  0  0  0  0  0  0  0  0  0
    1.1270   -4.4358   -0.9305 H   0  0  0  0  0  0  0  0  0  0  0  0
    2.2797   -3.2400   -0.3251 H   0  0  0  0  0  0  0  0  0  0  0  0
    2.2827   -4.8880    0.3303 H   0  0  0  0  0  0  0  0  0  0  0  0
    0.3351   -1.3153    0.5316 N   0  0  0  0  0  0  0  0  0  0  0  0
   -0.3268   -0.1184    0.0807 C   0  0  2  0  0  0  0  0  0  0  0  0
    0.6348    1.0574    0.2231 C   0  0  0  0  0  0  0  0  0  0  0  0
    0.3836    2.0481    0.9062 O   0  0  0  0  0  0  0  0  0  0  0  0
   -1.6606    0.1128    0.8041 C   0  0  0  0  0  0  0  0  0  0  0  0
   -2.7199   -0.9472    0.4927 C   0  0  0  0  0  0  0  0  0  0  0  0
   -3.1090   -0.9569   -1.2828 S   0  0  0  0  0  0  0  0  0  0  0  0
   -3.9463    0.6418   -1.3747 C   0  0  0  0  0  0  0  0  0  0  0  0
    1.2790   -1.2290    0.9021 H   0  0  0  0  0  0  0  0  0  0  0  0
   -0.5219   -0.2691   -0.9880 H   0  0  0  0  0  0  0  0  0  0  0  0
   -2.0416    1.1026    0.5188 H   0  0  0  0  0  0  0  0  0  0  0  0
   -1.4805    0.1401    1.8864 H   0  0  0  0  0  0  0  0  0  0  0  0
   -3.6471   -0.7471    1.0380 H   0  0  0  0  0  0  0  0  0  0  0  0
   -2.3704   -1.9465    0.7684 H   0  0  0  0  0  0  0  0  0  0  0  0
   -4.2715    0.8327   -2.4003 H   0  0  0  0  0  0  0  0  0  0  0  0
   -3.2639    1.4365   -1.0634 H   0  0  0  0  0  0  0  0  0  0  0  0
   -4.8190    0.6420   -0.7171 H   0  0  0  0  0  0  0  0  0  0  0  0
    1.7894    0.8851   -0.5268 N   0  0  0  0  0  0  0  0  0  0  0  0
    2.8457    1.8690   -0.5657 C   0  0  2  0  0  0  0  0  0  0  0  0
    3.3712    1.9386   -1.9935 C   0  0  0  0  0  0  0  0  0  0  0  0
    3.2409    1.0215   -2.8017 O   0  0  0  0  0  0  0  0  0  0  0  0
    3.9614    1.5220    0.4078 C   0  0  0  0  0  0  0  0  0  0  0  0
    1.9272    0.0204   -1.0416 H   0  0  0  0  0  0  0  0  0  0  0  0
    2.3935    2.8294   -0.2952 H   0  0  0  0  0  0  0  0  0  0  0  0
    4.4265    0.5628    0.1528 H   0  0  0  0  0  0  0  0  0  0  0  0
    4.7479    2.2838    0.3977 H   0  0  0  0  0  0  0  0  0  0  0  0
    3.5760    1.4432    1.4301 H   0  0  0  0  0  0  0  0  0  0  0  0
    4.0407    3.1278   -2.2459 N   0  0  0  0  0  0  0  0  0  0  0  0
    4.6419    3.4279   -3.5244 C   0  0  0  0  0  0  0  0  0  0  0  0
    4.0840    3.8400   -1.5229 H   0  0  0  0  0  0  0  0  0  0  0  0
    5.6957    3.1127   -3.5176 H   0  0  0  0  0  0  0  0  0  0  0  0
    4.1033    2.8894   -4.3181 H   0  0  0  0  0  0  0  0  0  0  0  0
    4.5843    4.5103   -3.7114 H   0  0  0  0  0  0  0  0  0  0  0  0
  1  3  1  0  0  0  0
  1  7  1  0  0  0  0
  1  2  2  0  0  0  0
 35 36  1  0  0  0  0
 36 44  1  0  0  0  0
 36 37  2  0  0  0  0
  8  9  1  0  0  0  0
  9 17  1  0  0  0  0
  9 10  2  0  0  0  0
 18 19  1  0  0  0  0
 19 34  1  0  0  0  0
 19 20  2  0  0  0  0
 35 38  1  0  0  0  0
  8 11  1  0  0  0  0
 44 45  1  0  0  0  0
 23 24  1  0  0  0  0
 21 22  1  0  0  0  0
 18 21  1  0  0  0  0
 22 23  1  0  0  0  0
 34 35  1  0  0  0  0
  7  8  1  0  0  0  0
 17 18  1  0  0  0  0
  3  4  1  0  0  0  0
  3  5  1  0  0  0  0
  3  6  1  0  0  0  0
 38 41  1  0  0  0  0
 38 42  1  0  0  0  0
 38 43  1  0  0  0  0
 11 14  1  0  0  0  0
 11 15  1  0  0  0  0
 11 16  1  0  0  0  0
 45 47  1  0  0  0  0
 45 48  1  0  0  0  0
 45 49  1  0  0  0  0
 24 31  1  0  0  0  0
 24 32  1  0  0  0  0
 24 33  1  0  0  0  0
 21 27  1  0  0  0  0
 21 28  1  0  0  0  0
 22 29  1  0  0  0  0
 22 30  1  0  0  0  0
 35 40  1  0  0  0  0
  8 13  1  0  0  0  0
 18 26  1  0  0  0  0
 44 46  1  0  0  0  0
  7 12  1  0  0  0  0
 34 39  1  0  0  0  0
 17 25  1  0  0  0  0
M  END
$$$$

  -OEChem-05262214473D

 49 48  0     1  0  0  0  0  0999 V2000
   -0.0561   -5.3799    2.6949 C   0  0  0  0  0  0  0  0  0  0  0  0
    0.7325   -5.0736    3.5815 O   0  0  0  0  0  0  0  0  0  0  0  0
   -1.0067   -6.5099    2.9135 C   0  0  0  0  0  0  0  0  0  0  0  0
   -0.5910   -7.4777    2.5899 H   0  0  0  0  0  0  0  0  0  0  0  0
   -1.2629   -6.6440    3.9767 H   0  0  0  0  0  0  0  0  0  0  0  0
   -1.9729   -6.4206    2.3918 H   0  0  0  0  0  0  0  0  0  0  0  0
   -0.1735   -4.7694    1.4571 N   0  0  0  0  0  0  0  0  0  0  0  0
    0.6439   -3.6603    1.0409 C   0  0  2  0  0  0  0  0  0  0  0  0
   -0.2788   -2.5625    0.5280 C   0  0  0  0  0  0  0  0  0  0  0  0
   -1.4197   -2.7791    0.1251 O   0  0  0  0  0  0  0  0  0  0  0  0
    1.6395   -4.0779   -0.0301 C   0  0  0  0  0  0  0  0  0  0  0  0
   -0.8741   -5.1235    0.8083 H   0  0  0  0  0  0  0  0  0  0  0  0
    1.1738   -3.3062    1.9318 H   0  0  0  0  0  0  0  0  0  0  0  0
    1.1270   -4.4358   -0.9305 H   0  0  0  0  0  0  0  0  0  0  0  0
    2.2797   -3.2400   -0.3251 H   0  0  0  0  0  0  0  0  0  0  0  0
    2.2827   -4.8880    0.3303 H   0  0  0  0  0  0  0  0  0  0  0  0
    0.3351   -1.3153    0.5316 N   0  0  0  0  0  0  0  0  0  0  0  0
   -0.3268   -0.1184    0.0807 C   0  0  2  0  0  0  0  0  0  0  0  0
    0.6348    1.0574    0.2231 C   0  0  0  0  0  0  0  0  0  0  0  0
    0.5189    1.9144    1.0968 O   0  0  0  0  0  0  0  0  0  0  0  0
   -1.6606    0.1128    0.8041 C   0  0  0  0  0  0  0  0  0  0  0  0
   -2.7199   -0.9472    0.4927 C   0  0  0  0  0  0  0  0  0  0  0  0
   -3.1090   -0.9569   -1.2828 S   0  0  0  0  0  0  0  0  0  0  0  0
   -3.9463    0.6418   -1.3747 C   0  0  0  0  0  0  0  0  0  0  0  0
    1.2790   -1.2290    0.9021 H   0  0  0  0  0  0  0  0  0  0  0  0
   -0.5219   -0.2691   -0.9880 H   0  0  0  0  0  0  0  0  0  0  0  0
   -2.0416    1.1026    0.5188 H   0  0  0  0  0  0  0  0  0  0  0  0
   -1.4805    0.1401    1.8864 H   0  0  0  0  0  0  0  0  0  0  0  0
   -3.6471   -0.7471    1.0380 H   0  0  0  0  0  0  0  0  0  0  0  0
   -2.3704   -1.9465    0.7684 H   0  0  0  0  0  0  0  0  0  0  0  0
   -4.2715    0.8327   -2.4003 H   0  0  0  0  0  0  0  0  0  0  0  0
   -3.2639    1.4365   -1.0634 H   0  0  0  0  0  0  0  0  0  0  0  0
   -4.8190    0.6420   -0.7171 H   0  0  0  0  0  0  0  0  0  0  0  0
    1.6160    1.0549   -0.7580 N   0  0  0  0  0  0  0  0  0  0  0  0
    2.6353    2.0745   -0.8413 C   0  0  2  0  0  0  0  0  0  0  0  0
    2.8618    2.3939   -2.3131 C   0  0  0  0  0  0  0  0  0  0  0  0
    2.5782    1.6141   -3.2201 O   0  0  0  0  0  0  0  0  0  0  0  0
    3.9267    1.6213   -0.1784 C   0  0  0  0  0  0  0  0  0  0  0  0
    1.6537    0.2906   -1.4258 H   0  0  0  0  0  0  0  0  0  0  0  0
    2.2395    2.9598   -0.3316 H   0  0  0  0  0  0  0  0  0  0  0  0
    4.3383    0.7353   -0.6755 H   0  0  0  0  0  0  0  0  0  0  0  0
    4.6893    2.4062   -0.2173 H   0  0  0  0  0  0  0  0  0  0  0  0
    3.7559    1.3636    0.8724 H   0  0  0  0  0  0  0  0  0  0  0  0
    3.4576    3.6345   -2.4922 N   0  0  0  0  0  0  0  0  0  0  0  0
    3.7866    4.1604   -3.7965 C   0  0  0  0  0  0  0  0  0  0  0  0
    3.6402    4.2225   -1.6843 H   0  0  0  0  0  0  0  0  0  0  0  0
    4.8225    3.8913   -4.0503 H   0  0  0  0  0  0  0  0  0  0  0  0
    3.1032    3.7350   -4.5462 H   0  0  0  0  0  0  0  0  0  0  0  0
    3.6842    5.2556   -3.7867 H   0  0  0  0  0  0  0  0  0  0  0  0
  1  3  1  0  0  0  0
  1  7  1  0  0  0  0
  1  2  2  0  0  0  0
 35 36  1  0  0  0  0
 36 44  1  0  0  0  0
 36 37  2  0  0  0  0
  8  9  1  0  0  0  0
  9 17  1  0  0  0  0
  9 10  2  0  0  0  0
 18 19  1  0  0  0  0
 19 34  1  0  0  0  0
 19 20  2  0  0  0  0
 35 38  1  0  0  0  0
  8 11  1  0  0  0  0
 44 45  1  0  0  0  0
 23 24  1  0  0  0  0
 21 22  1  0  0  0  0
 18 21  1  0  0  0  0
 22 23  1  0  0  0  0
 34 35  1  0  0  0  0
  7  8  1  0  0  0  0
 17 18  1  0  0  0  0
  3  4  1  0  0  0  0
  3  5  1  0  0  0  0
  3  6  1  0  0  0  0
 38 41  1  0  0  0  0
 38 42  1  0  0  0  0
 38 43  1  0  0  0  0
 11 14  1  0  0  0  0
 11 15  1  0  0  0  0
 11 16  1  0  0  0  0
 45 47  1  0  0  0  0
 45 48  1  0  0  0  0
 45 49  1  0  0  0  0
 24 31  1  0  0  0  0
 24 32  1  0  0  0  0
 24 33  1  0  0  0  0
 21 27  1  0  0  0  0
 21 28  1  0  0  0  0
 22 29  1  0  0  0  0
 22 30  1  0  0  0  0
 35 40  1  0  0  0  0
  8 13  1  0  0  0  0
 18 26  1  0  0  0  0
 44 46  1  0  0  0  0
  7 12  1  0  0  0  0
 34 39  1  0  0  0  0
 17 25  1  0  0  0  0
M  END
$$$$

  -OEChem-05262214473D

 49 48  0     1  0  0  0  0  0999 V2000
   -0.0561   -5.3799    2.6949 C   0  0  0  0  0  0  0  0  0  0  0  0
    0.7325   -5.0736    3.5815 O   0  0  0  0  0  0  0  0  0  0  0  0
   -1.0067   -6.5099    2.9135 C   0  0  0  0  0  0  0  0  0  0  0  0
   -0.5910   -7.4777    2.5899 H   0  0  0  0  0  0  0  0  0  0  0  0
   -1.2629   -6.6440    3.9767 H   0  0  0  0  0  0  0  0  0  0  0  0
   -1.9729   -6.4206    2.3918 H   0  0  0  0  0  0  0  0  0  0  0  0
   -0.1735   -4.7694    1.4571 N   0  0  0  0  0  0  0  0  0  0  0  0
    0.6439   -3.6603    1.0409 C   0  0  2  0  0  0  0  0  0  0  0  0
   -0.2788   -2.5625    0.5280 C   0  0  0  0  0  0  0  0  0  0  0  0
   -1.4197   -2.7791    0.1251 O   0  0  0  0  0  0  0  0  0  0  0  0
    1.6395   -4.0779   -0.0301 C   0  0  0  0  0  0  0  0  0  0  0  0
   -0.8741   -5.1235    0.8083 H   0  0  0  0  0  0  0  0  0  0  0  0
    1.1738   -3.3062    1.9318 H   0  0  0  0  0  0  0  0  0  0  0  0
    1.1270   -4.4358   -0.9305 H   0  0  0  0  0  0  0  0  0  0  0  0
    2.2797   -3.2400   -0.3251 H   0  0  0  0  0  0  0  0  0  0  0  0
    2.2827   -4.8880    0.3303 H   0  0  0  0  0  0  0  0  0  0  0  0
    0.3351   -1.3153    0.5316 N   0  0  0  0  0  0  0  0  0  0  0  0
   -0.3268   -0.1184    0.0807 C   0  0  2  0  0  0  0  0  0  0  0  0
    0.6348    1.0574    0.2231 C   0  0  0  0  0  0  0  0  0  0  0  0
    0.6908    1.7574    1.2321 O   0  0  0  0  0  0  0  0  0  0  0  0
   -1.6606    0.1128    0.8041 C   0  0  0  0  0  0  0  0  0  0  0  0
   -2.7199   -0.9472    0.4927 C   0  0  0  0  0  0  0  0  0  0  0  0
   -3.1090   -0.9569   -1.2828 S   0  0  0  0  0  0  0  0  0  0  0  0
   -3.9463    0.6418   -1.3747 C   0  0  0  0  0  0  0  0  0  0  0  0
    1.2790   -1.2290    0.9021 H   0  0  0  0  0  0  0  0  0  0  0  0
   -0.5219   -0.2691   -0.9880 H   0  0  0  0  0  0  0  0  0  0  0  0
   -2.0416    1.1026    0.5188 H   0  0  0  0  0  0  0  0  0  0  0  0
   -1.4805    0.1401    1.8864 H   0  0  0  0  0  0  0  0  0  0  0  0
   -3.6471   -0.7471    1.0380 H   0  0  0  0  0  0  0  0  0  0  0  0
   -2.3704   -1.9465    0.7684 H   0  0  0  0  0  0  0  0  0  0  0  0
   -4.2715    0.8327   -2.4003 H   0  0  0  0  0  0  0  0  0  0  0  0
   -3.2639    1.4365   -1.0634 H   0  0  0  0  0  0  0  0  0  0  0  0
   -4.8190    0.6420   -0.7171 H   0  0  0  0  0  0  0  0  0  0  0  0
    1.3982    1.2526   -0.9190 N   0  0  0  0  0  0  0  0  0  0  0  0
    2.3720    2.3129   -1.0319 C   0  0  2  0  0  0  0  0  0  0  0  0
    2.2949    2.8736   -2.4458 C   0  0  0  0  0  0  0  0  0  0  0  0
    1.8404    2.2388   -3.3953 O   0  0  0  0  0  0  0  0  0  0  0  0
    3.7739    1.8120   -0.7215 C   0  0  0  0  0  0  0  0  0  0  0  0
    1.3064    0.6077   -1.6983 H   0  0  0  0  0  0  0  0  0  0  0  0
    2.0803    3.0879   -0.3147 H   0  0  0  0  0  0  0  0  0  0  0  0
    4.0836    1.0349   -1.4298 H   0  0  0  0  0  0  0  0  0  0  0  0
    4.5071    2.6233   -0.7797 H   0  0  0  0  0  0  0  0  0  0  0  0
    3.8203    1.3821    0.2848 H   0  0  0  0  0  0  0  0  0  0  0  0
    2.8330    4.1501   -2.5311 N   0  0  0  0  0  0  0  0  0  0  0  0
    2.8884    4.8916   -3.7693 C   0  0  0  0  0  0  0  0  0  0  0  0
    3.1701    4.6075   -1.6892 H   0  0  0  0  0  0  0  0  0  0  0  0
    3.8540    4.7093   -4.2636 H   0  0  0  0  0  0  0  0  0  0  0  0
    2.0713    4.5648   -4.4292 H   0  0  0  0  0  0  0  0  0  0  0  0
    2.7818    5.9659   -3.5582 H   0  0  0  0  0  0  0  0  0  0  0  0
  1  3  1  0  0  0  0
  1  7  1  0  0  0  0
  1  2  2  0  0  0  0
 35 36  1  0  0  0  0
 36 44  1  0  0  0  0
 36 37  2  0  0  0  0
  8  9  1  0  0  0  0
  9 17  1  0  0  0  0
  9 10  2  0  0  0  0
 18 19  1  0  0  0  0
 19 34  1  0  0  0  0
 19 20  2  0  0  0  0
 35 38  1  0  0  0  0
  8 11  1  0  0  0  0
 44 45  1  0  0  0  0
 23 24  1  0  0  0  0
 21 22  1  0  0  0  0
 18 21  1  0  0  0  0
 22 23  1  0  0  0  0
 34 35  1  0  0  0  0
  7  8  1  0  0  0  0
 17 18  1  0  0  0  0
  3  4  1  0  0  0  0
  3  5  1  0  0  0  0
  3  6  1  0  0  0  0
 38 41  1  0  0  0  0
 38 42  1  0  0  0  0
 38 43  1  0  0  0  0
 11 14  1  0  0  0  0
 11 15  1  0  0  0  0
 11 16  1  0  0  0  0
 45 47  1  0  0  0  0
 45 48  1  0  0  0  0
 45 49  1  0  0  0  0
 24 31  1  0  0  0  0
 24 32  1  0  0  0  0
 24 33  1  0  0  0  0
 21 27  1  0  0  0  0
 21 28  1  0  0  0  0
 22 29  1  0  0  0  0
 22 30  1  0  0  0  0
 35 40  1  0  0  0  0
  8 13  1  0  0  0  0
 18 26  1  0  0  0  0
 44 46  1  0  0  0  0
  7 12  1  0  0  0  0
 34 39  1  0  0  0  0
 17 25  1  0  0  0  0
M  END
$$$$

  -OEChem-05262214473D

 49 48  0     1  0  0  0  0  0999 V2000
   -0.0561   -5.3799    2.6949 C   0  0  0  0  0  0  0  0  0  0  0  0
    0.7325   -5.0736    3.5815 O   0  0  0  0  0  0  0  0  0  0  0  0
   -1.0067   -6.5099    2.9135 C   0  0  0  0  0  0  0  0  0  0  0  0
   -0.5910   -7.4777    2.5899 H   0  0  0  0  0  0  0  0  0  0  0  0
   -1.2629   -6.6440    3.9767 H   0  0  0  0  0  0  0  0  0  0  0  0
   -1.9729   -6.4206    2.3918 H   0  0  0  0  0  0  0  0  0  0  0  0
   -0.1735   -4.7694    1.4571 N   0  0  0  0  0  0  0  0  0  0  0  0
    0.6439   -3.6603    1.0409 C   0  0  2  0  0  0  0  0  0  0  0  0
   -0.2788   -2.5625    0.5280 C   0  0  0  0  0  0  0  0  0  0  0  0
   -1.4197   -2.7791    0.1251 O   0  0  0  0  0  0  0  0  0  0  0  0
    1.6395   -4.0779   -0.0301 C   0  0  0  0  0  0  0  0  0  0  0  0
   -0.8741   -5.1235    0.8083 H   0  0  0  0  0  0  0  0  0  0  0  0
    1.1738   -3.3062    1.9318 H   0  0  0  0  0  0  0  0  0  0  0  0
    1.1270   -4.4358   -0.9305 H   0  0  0  0  0  0  0  0  0  0  0  0
    2.2797   -3.2400   -0.3251 H   0  0  0  0  0  0  0  0  0  0  0  0
    2.2827   -4.8880    0.3303 H   0  0  0  0  0  0  0  0  0  0  0  0
    0.3351   -1.3153    0.5316 N   0  0  0  0  0  0  0  0  0  0  0  0
   -0.3268   -0.1184    0.0807 C   0  0  2  0  0  0  0  0  0  0  0  0
    0.6348    1.0574    0.2231 C   0  0  0  0  0  0  0  0  0  0  0  0
    0.8876    1.5879    1.3029 O   0  0  0  0  0  0  0  0  0  0  0  0
   -1.6606    0.1128    0.8041 C   0  0  0  0  0  0  0  0  0  0  0  0
   -2.7199   -0.9472    0.4927 C   0  0  0  0  0  0  0  0  0  0  0  0
   -3.1090   -0.9569   -1.2828 S   0  0  0  0  0  0  0  0  0  0  0  0
   -3.9463    0.6418   -1.3747 C   0  0  0  0  0  0  0  0  0  0  0  0
    1.2790   -1.2290    0.9021 H   0  0  0  0  0  0  0  0  0  0  0  0
   -0.5219   -0.2691   -0.9880 H   0  0  0  0  0  0  0  0  0  0  0  0
   -2.0416    1.1026    0.5188 H   0  0  0  0  0  0  0  0  0  0  0  0
   -1.4805    0.1401    1.8864 H   0  0  0  0  0  0  0  0  0  0  0  0
   -3.6471   -0.7471    1.0380 H   0  0  0  0  0  0  0  0  0  0  0  0
   -2.3704   -1.9465    0.7684 H   0  0  0  0  0  0  0  0  0  0  0  0
   -4.2715    0.8327   -2.4003 H   0  0  0  0  0  0  0  0  0  0  0  0
   -3.2639    1.4365   -1.0634 H   0  0  0  0  0  0  0  0  0  0  0  0
   -4.8190    0.6420   -0.7171 H   0  0  0  0  0  0  0  0  0  0  0  0
    1.1509    1.4644   -0.9988 N   0  0  0  0  0  0  0  0  0  0  0  0
    2.0739    2.5679   -1.1247 C   0  0  2  0  0  0  0  0  0  0  0  0
    1.7093    3.3449   -2.3828 C   0  0  0  0  0  0  0  0  0  0  0  0
    1.0776    2.8530   -3.3155 O   0  0  0  0  0  0  0  0  0  0  0  0
    3.5134    2.0812   -1.1845 C   0  0  0  0  0  0  0  0  0  0  0  0
    0.9089    0.9500   -1.8405 H   0  0  0  0  0  0  0  0  0  0  0  0
    1.9269    3.2050   -0.2458 H   0  0  0  0  0  0  0  0  0  0  0  0
    3.6799    1.4412   -2.0587 H   0  0  0  0  0  0  0  0  0  0  0  0
    4.2136    2.9204   -1.2512 H   0  0  0  0  0  0  0  0  0  0  0  0
    3.7648    1.4973   -0.2925 H   0  0  0  0  0  0  0  0  0  0  0  0
    2.2094    4.6393   -2.3601 N   0  0  0  0  0  0  0  0  0  0  0  0
    2.0087    5.5719   -3.4445 C   0  0  0  0  0  0  0  0  0  0  0  0
    2.7058    4.9689   -1.5374 H   0  0  0  0  0  0  0  0  0  0  0  0
    2.8562    5.5107   -4.1430 H   0  0  0  0  0  0  0  0  0  0  0  0
    1.0778    5.3223   -3.9749 H   0  0  0  0  0  0  0  0  0  0  0  0
    1.9386    6.5930   -3.0416 H   0  0  0  0  0  0  0  0  0  0  0  0
  1  3  1  0  0  0  0
  1  7  1  0  0  0  0
  1  2  2  0  0  0  0
 35 36  1  0  0  0  0
 36 44  1  0  0  0  0
 36 37  2  0  0  0  0
  8  9  1  0  0  0  0
  9 17  1  0  0  0  0
  9 10  2  0  0  0  0
 18 19  1  0  0  0  0
 19 34  1  0  0  0  0
 19 20  2  0  0  0  0
 35 38  1  0  0  0  0
  8 11  1  0  0  0  0
 44 45  1  0  0  0  0
 23 24  1  0  0  0  0
 21 22  1  0  0  0  0
 18 21  1  0  0  0  0
 22 23  1  0  0  0  0
 34 35  1  0  0  0  0
  7  8  1  0  0  0  0
 17 18  1  0  0  0  0
  3  4  1  0  0  0  0
  3  5  1  0  0  0  0
  3  6  1  0  0  0  0
 38 41  1  0  0  0  0
 38 42  1  0  0  0  0
 38 43  1  0  0  0  0
 11 14  1  0  0  0  0
 11 15  1  0  0  0  0
 11 16  1  0  0  0  0
 45 47  1  0  0  0  0
 45 48  1  0  0  0  0
 45 49  1  0  0  0  0
 24 31  1  0  0  0  0
 24 32  1  0  0  0  0
 24 33  1  0  0  0  0
 21 27  1  0  0  0  0
 21 28  1  0  0  0  0
 22 29  1  0  0  0  0
 22 30  1  0  0  0  0
 35 40  1  0  0  0  0
  8 13  1  0  0  0  0
 18 26  1  0  0  0  0
 44 46  1  0  0  0  0
  7 12  1  0  0  0  0
 34 39  1  0  0  0  0
 17 25  1  0  0  0  0
M  END
$$$$

  -OEChem-05262214473D

 49 48  0     1  0  0  0  0  0999 V2000
   -0.0561   -5.3799    2.6949 C   0  0  0  0  0  0  0  0  0  0  0  0
    0.7325   -5.0736    3.5815 O   0  0  0  0  0  0  0  0  0  0  0  0
   -1.0067   -6.5099    2.9135 C   0  0  0  0  0  0  0  0  0  0  0  0
   -0.5910   -7.4777    2.5899 H   0  0  0  0  0  0  0  0  0  0  0  0
   -1.2629   -6.6440    3.9767 H   0  0  0  0  0  0  0  0  0  0  0  0
   -1.9729   -6.4206    2.3918 H   0  0  0  0  0  0  0  0  0  0  0  0
   -0.1735   -4.7694    1.4571 N   0  0  0  0  0  0  0  0  0  0  0  0
    0.6439   -3.6603    1.0409 C   0  0  2  0  0  0  0  0  0  0  0  0
   -0.2788   -2.5625    0.5280 C   0  0  0  0  0  0  0  0  0  0  0  0
   -1.4197   -2.7791    0.1251 O   0  0  0  0  0  0  0  0  0  0  0  0
    1.6395   -4.0779   -0.0301 C   0  0  0  0  0  0  0  0  0  0  0  0
   -0.8741   -5.1235    0.8083 H   0  0  0  0  0  0  0  0  0  0  0  0
    1.1738   -3.3062    1.9318 H   0  0  0  0  0  0  0  0  0  0  0  0
    1.1270   -4.4358   -0.9305 H   0  0  0  0  0  0  0  0  0  0  0  0
    2.2797   -3.2400   -0.3251 H   0  0  0  0  0  0  0  0  0  0  0  0
    2.2827   -4.8880    0.3303 H   0  0  0  0  0  0  0  0  0  0  0  0
    0.3351   -1.3153    0.5316 N   0  0  0  0  0  0  0  0  0  0  0  0
   -0.3268   -0.1184    0.0807 C   0  0  2  0  0  0  0  0  0  0  0  0
    0.6348    1.0574    0.2231 C   0  0  0  0  0  0  0  0  0  0  0  0
    1.0959    1.4173    1.3043 O   0  0  0  0  0  0  0  0  0  0  0  0
   -1.6606    0.1128    0.8041 C   0  0  0  0  0  0  0  0  0  0  0  0
   -2.7199   -0.9472    0.4927 C   0  0  0  0  0  0  0  0  0  0  0  0
   -3.1090   -0.9569   -1.2828 S   0  0  0  0  0  0  0  0  0  0  0  0
   -3.9463    0.6418   -1.3747 C   0  0  0  0  0  0  0  0  0  0  0  0
    1.2790   -1.2290    0.9021 H   0  0  0  0  0  0  0  0  0  0  0  0
   -0.5219   -0.2691   -0.9880 H   0  0  0  0  0  0  0  0  0  0  0  0
   -2.0416    1.1026    0.5188 H   0  0  0  0  0  0  0  0  0  0  0  0
   -1.4805    0.1401    1.8864 H   0  0  0  0  0  0  0  0  0  0  0  0
   -3.6471   -0.7471    1.0380 H   0  0  0  0  0  0  0  0  0  0  0  0
   -2.3704   -1.9465    0.7684 H   0  0  0  0  0  0  0  0  0  0  0  0
   -4.2715    0.8327   -2.4003 H   0  0  0  0  0  0  0  0  0  0  0  0
   -3.2639    1.4365   -1.0634 H   0  0  0  0  0  0  0  0  0  0  0  0
   -4.8190    0.6420   -0.7171 H   0  0  0  0  0  0  0  0  0  0  0  0
    0.8910    1.6762   -0.9921 N   0  0  0  0  0  0  0  0  0  0  0  0
    1.7614    2.8222   -1.1132 C   0  0  2  0  0  0  0  0  0  0  0  0
    1.1448    3.7758   -2.1281 C   0  0  0  0  0  0  0  0  0  0  0  0
    0.3419    3.4148   -2.9861 O   0  0  0  0  0  0  0  0  0  0  0  0
    3.1629    2.4104   -1.5359 C   0  0  0  0  0  0  0  0  0  0  0  0
    0.4883    1.2942   -1.8427 H   0  0  0  0  0  0  0  0  0  0  0  0
    1.7896    3.3033   -0.1294 H   0  0  0  0  0  0  0  0  0  0  0  0
    3.1548    1.9265   -2.5194 H   0  0  0  0  0  0  0  0  0  0  0  0
    3.8289    3.2772   -1.5996 H   0  0  0  0  0  0  0  0  0  0  0  0
    3.5933    1.7015   -0.8203 H   0  0  0  0  0  0  0  0  0  0  0  0
    1.6294    5.0690   -1.9906 N   0  0  0  0  0  0  0  0  0  0  0  0
    1.2072    6.1547   -2.8444 C   0  0  0  0  0  0  0  0  0  0  0  0
    2.2789    5.2819   -1.2392 H   0  0  0  0  0  0  0  0  0  0  0  0
    1.8971    6.2411   -3.6968 H   0  0  0  0  0  0  0  0  0  0  0  0
    0.1905    5.9559   -3.2144 H   0  0  0  0  0  0  0  0  0  0  0  0
    1.2120    7.0941   -2.2722 H   0  0  0  0  0  0  0  0  0  0  0  0
  1  3  1  0  0  0  0
  1  7  1  0  0  0  0
  1  2  2  0  0  0  0
 35 36  1  0  0  0  0
 36 44  1  0  0  0  0
 36 37  2  0  0  0  0
  8  9  1  0  0  0  0
  9 17  1  0  0  0  0
  9 10  2  0  0  0  0
 18 19  1  0  0  0  0
 19 34  1  0  0  0  0
 19 20  2  0  0  0  0
 35 38  1  0  0  0  0
  8 11  1  0  0  0  0
 44 45  1  0  0  0  0
 23 24  1  0  0  0  0
 21 22  1  0  0  0  0
 18 21  1  0  0  0  0
 22 23  1  0  0  0  0
 34 35  1  0  0  0  0
  7  8  1  0  0  0  0
 17 18  1  0  0  0  0
  3  4  1  0  0  0  0
  3  5  1  0  0  0  0
  3  6  1  0  0  0  0
 38 41  1  0  0  0  0
 38 42  1  0  0  0  0
 38 43  1  0  0  0  0
 11 14  1  0  0  0  0
 11 15  1  0  0  0  0
 11 16  1  0  0  0  0
 45 47  1  0  0  0  0
 45 48  1  0  0  0  0
 45 49  1  0  0  0  0
 24 31  1  0  0  0  0
 24 32  1  0  0  0  0
 24 33  1  0  0  0  0
 21 27  1  0  0  0  0
 21 28  1  0  0  0  0
 22 29  1  0  0  0  0
 22 30  1  0  0  0  0
 35 40  1  0  0  0  0
  8 13  1  0  0  0  0
 18 26  1  0  0  0  0
 44 46  1  0  0  0  0
  7 12  1  0  0  0  0
 34 39  1  0  0  0  0
 17 25  1  0  0  0  0
M  END
$$$$

  -OEChem-05262214473D

 49 48  0     1  0  0  0  0  0999 V2000
   -0.0561   -5.3799    2.6949 C   0  0  0  0  0  0  0  0  0  0  0  0
    0.7325   -5.0736    3.5815 O   0  0  0  0  0  0  0  0  0  0  0  0
   -1.0067   -6.5099    2.9135 C   0  0  0  0  0  0  0  0  0  0  0  0
   -0.5910   -7.4777    2.5899 H   0  0  0  0  0  0  0  0  0  0  0  0
   -1.2629   -6.6440    3.9767 H   0  0  0  0  0  0  0  0  0  0  0  0
   -1.9729   -6.4206    2.3918 H   0  0  0  0  0  0  0  0  0  0  0  0
   -0.1735   -4.7694    1.4571 N   0  0  0  0  0  0  0  0  0  0  0  0
    0.6439   -3.6603    1.0409 C   0  0  2  0  0  0  0  0  0  0  0  0
   -0.2788   -2.5625    0.5280 C   0  0  0  0  0  0  0  0  0  0  0  0
   -1.4197   -2.7791    0.1251 O   0  0  0  0  0  0  0  0  0  0  0  0
    1.6395   -4.0779   -0.0301 C   0  0  0  0  0  0  0  0  0  0  0  0
   -0.8741   -5.1235    0.8083 H   0  0  0  0  0  0  0  0  0  0  0  0
    1.1738   -3.3062    1.9318 H   0  0  0  0  0  0  0  0  0  0  0  0
    1.1270   -4.4358   -0.9305 H   0  0  0  0  0  0  0  0  0  0  0  0
    2.2797   -3.2400   -0.3251 H   0  0  0  0  0  0  0  0  0  0  0  0
    2.2827   -4.8880    0.3303 H   0  0  0  0  0  0  0  0  0  0  0  0
    0.3351   -1.3153    0.5316 N   0  0  0  0  0  0  0  0  0  0  0  0
   -0.3268   -0.1184    0.0807 C   0  0  2  0  0  0  0  0  0  0  0  0
    0.6348    1.0574    0.2231 C   0  0  0  0  0  0  0  0  0  0  0  0
    1.3016    1.2574    1.2363 O   0  0  0  0  0  0  0  0  0  0  0  0
   -1.6606    0.1128    0.8041 C   0  0  0  0  0  0  0  0  0  0  0  0
   -2.7199   -0.9472    0.4927 C   0  0  0  0  0  0  0  0  0  0  0  0
   -3.1090   -0.9569   -1.2828 S   0  0  0  0  0  0  0  0  0  0  0  0
   -3.9463    0.6418   -1.3747 C   0  0  0  0  0  0  0  0  0  0  0  0
    1.2790   -1.2290    0.9021 H   0  0  0  0  0  0  0  0  0  0  0  0
   -0.5219   -0.2691   -0.9880 H   0  0  0  0  0  0  0  0  0  0  0  0
   -2.0416    1.1026    0.5188 H   0  0  0  0  0  0  0  0  0  0  0  0
   -1.4805    0.1401    1.8864 H   0  0  0  0  0  0  0  0  0  0  0  0
   -3.6471   -0.7471    1.0380 H   0  0  0  0  0  0  0  0  0  0  0  0
   -2.3704   -1.9465    0.7684 H   0  0  0  0  0  0  0  0  0  0  0  0
   -4.2715    0.8327   -2.4003 H   0  0  0  0  0  0  0  0  0  0  0  0
   -3.2639    1.4365   -1.0634 H   0  0  0  0  0  0  0  0  0  0  0  0
   -4.8190    0.6420   -0.7171 H   0  0  0  0  0  0  0  0  0  0  0  0
    0.6363    1.8733   -0.8992 N   0  0  0  0  0  0  0  0  0  0  0  0
    1.4556    3.0583   -0.9983 C   0  0  2  0  0  0  0  0  0  0  0  0
    0.6400    4.1367   -1.6993 C   0  0  0  0  0  0  0  0  0  0  0  0
   -0.3165    3.8859   -2.4295 O   0  0  0  0  0  0  0  0  0  0  0  0
    2.7464    2.7772   -1.7517 C   0  0  0  0  0  0  0  0  0  0  0  0
    0.0733    1.6169   -1.7048 H   0  0  0  0  0  0  0  0  0  0  0  0
    1.6778    3.3758    0.0263 H   0  0  0  0  0  0  0  0  0  0  0  0
    2.5439    2.4577   -2.7805 H   0  0  0  0  0  0  0  0  0  0  0  0
    3.3793    3.6694   -1.8012 H   0  0  0  0  0  0  0  0  0  0  0  0
    3.3175    1.9806   -1.2626 H   0  0  0  0  0  0  0  0  0  0  0  0
    1.1325    5.4097   -1.4479 N   0  0  0  0  0  0  0  0  0  0  0  0
    0.5387    6.6004   -2.0097 C   0  0  0  0  0  0  0  0  0  0  0  0
    1.9184    5.5254   -0.8149 H   0  0  0  0  0  0  0  0  0  0  0  0
    1.0420    6.8507   -2.9552 H   0  0  0  0  0  0  0  0  0  0  0  0
   -0.5301    6.4225   -2.1994 H   0  0  0  0  0  0  0  0  0  0  0  0
    0.6516    7.4351   -1.3022 H   0  0  0  0  0  0  0  0  0  0  0  0
  1  3  1  0  0  0  0
  1  7  1  0  0  0  0
  1  2  2  0  0  0  0
 35 36  1  0  0  0  0
 36 44  1  0  0  0  0
 36 37  2  0  0  0  0
  8  9  1  0  0  0  0
  9 17  1  0  0  0  0
  9 10  2  0  0  0  0
 18 19  1  0  0  0  0
 19 34  1  0  0  0  0
 19 20  2  0  0  0  0
 35 38  1  0  0  0  0
  8 11  1  0  0  0  0
 44 45  1  0  0  0  0
 23 24  1  0  0  0  0
 21 22  1  0  0  0  0
 18 21  1  0  0  0  0
 22 23  1  0  0  0  0
 34 35  1  0  0  0  0
  7  8  1  0  0  0  0
 17 18  1  0  0  0  0
  3  4  1  0  0  0  0
  3  5  1  0  0  0  0
  3  6  1  0  0  0  0
 38 41  1  0  0  0  0
 38 42  1  0  0  0  0
 38 43  1  0  0  0  0
 11 14  1  0  0  0  0
 11 15  1  0  0  0  0
 11 16  1  0  0  0  0
 45 47  1  0  0  0  0
 45 48  1  0  0  0  0
 45 49  1  0  0  0  0
 24 31  1  0  0  0  0
 24 32  1  0  0  0  0
 24 33  1  0  0  0  0
 21 27  1  0  0  0  0
 21 28  1  0  0  0  0
 22 29  1  0  0  0  0
 22 30  1  0  0  0  0
 35 40  1  0  0  0  0
  8 13  1  0  0  0  0
 18 26  1  0  0  0  0
 44 46  1  0  0  0  0
  7 12  1  0  0  0  0
 34 39  1  0  0  0  0
 17 25  1  0  0  0  0
M  END
$$$$

  -OEChem-05262214473D

 49 48  0     1  0  0  0  0  0999 V2000
   -0.0561   -5.3799    2.6949 C   0  0  0  0  0  0  0  0  0  0  0  0
    0.7325   -5.0736    3.5815 O   0  0  0  0  0  0  0  0  0  0  0  0
   -1.0067   -6.5099    2.9135 C   0  0  0  0  0  0  0  0  0  0  0  0
   -0.5910   -7.4777    2.5899 H   0  0  0  0  0  0  0  0  0  0  0  0
   -1.2629   -6.6440    3.9767 H   0  0  0  0  0  0  0  0  0  0  0  0
   -1.9729   -6.4206    2.3918 H   0  0  0  0  0  0  0  0  0  0  0  0
   -0.1735   -4.7694    1.4571 N   0  0  0  0  0  0  0  0  0  0  0  0
    0.6439   -3.6603    1.0409 C   0  0  2  0  0  0  0  0  0  0  0  0
   -0.2788   -2.5625    0.5280 C   0  0  0  0  0  0  0  0  0  0  0  0
   -1.4197   -2.7791    0.1251 O   0  0  0  0  0  0  0  0  0  0  0  0
    1.6395   -4.0779   -0.0301 C   0  0  0  0  0  0  0  0  0  0  0  0
   -0.8741   -5.1235    0.8083 H   0  0  0  0  0  0  0  0  0  0  0  0
    1.1738   -3.3062    1.9318 H   0  0  0  0  0  0  0  0  0  0  0  0
    1.1270   -4.4358   -0.9305 H   0  0  0  0  0  0  0  0  0  0  0  0
    2.2797   -3.2400   -0.3251 H   0  0  0  0  0  0  0  0  0  0  0  0
    2.2827   -4.8880    0.3303 H   0  0  0  0  0  0  0  0  0  0  0  0
    0.3351   -1.3153    0.5316 N   0  0  0  0  0  0  0  0  0  0  0  0
   -0.3268   -0.1184    0.0807 C   0  0  2  0  0  0  0  0  0  0  0  0
    0.6348    1.0574    0.2231 C   0  0  0  0  0  0  0  0  0  0  0  0
    1.4905    1.1189    1.1036 O   0  0  0  0  0  0  0  0  0  0  0  0
   -1.6606    0.1128    0.8041 C   0  0  0  0  0  0  0  0  0  0  0  0
   -2.7199   -0.9472    0.4927 C   0  0  0  0  0  0  0  0  0  0  0  0
   -3.1090   -0.9569   -1.2828 S   0  0  0  0  0  0  0  0  0  0  0  0
   -3.9463    0.6418   -1.3747 C   0  0  0  0  0  0  0  0  0  0  0  0
    1.2790   -1.2290    0.9021 H   0  0  0  0  0  0  0  0  0  0  0  0
   -0.5219   -0.2691   -0.9880 H   0  0  0  0  0  0  0  0  0  0  0  0
   -2.0416    1.1026    0.5188 H   0  0  0  0  0  0  0  0  0  0  0  0
   -1.4805    0.1401    1.8864 H   0  0  0  0  0  0  0  0  0  0  0  0
   -3.6471   -0.7471    1.0380 H   0  0  0  0  0  0  0  0  0  0  0  0
   -2.3704   -1.9465    0.7684 H   0  0  0  0  0  0  0  0  0  0  0  0
   -4.2715    0.8327   -2.4003 H   0  0  0  0  0  0  0  0  0  0  0  0
   -3.2639    1.4365   -1.0634 H   0  0  0  0  0  0  0  0  0  0  0  0
   -4.8190    0.6420   -0.7171 H   0  0  0  0  0  0  0  0  0  0  0  0
    0.4039    2.0424   -0.7264 N   0  0  0  0  0  0  0  0  0  0  0  0
    1.1775    3.2603   -0.7878 C   0  0  2  0  0  0  0  0  0  0  0  0
    0.2292    4.4032   -1.1254 C   0  0  0  0  0  0  0  0  0  0  0  0
   -0.8529    4.2343   -1.6836 O   0  0  0  0  0  0  0  0  0  0  0  0
    2.2921    3.1567   -1.8171 C   0  0  0  0  0  0  0  0  0  0  0  0
   -0.3078    1.8961   -1.4361 H   0  0  0  0  0  0  0  0  0  0  0  0
    1.5991    3.4178    0.2110 H   0  0  0  0  0  0  0  0  0  0  0  0
    1.8889    2.9987   -2.8241 H   0  0  0  0  0  0  0  0  0  0  0  0
    2.8952    4.0702   -1.8422 H   0  0  0  0  0  0  0  0  0  0  0  0
    2.9560    2.3158   -1.5893 H   0  0  0  0  0  0  0  0  0  0  0  0
    0.7526    5.6382   -0.7691 N   0  0  0  0  0  0  0  0  0  0  0  0
    0.0487    6.8786   -0.9975 C   0  0  0  0  0  0  0  0  0  0  0  0
    1.6490    5.6826   -0.2934 H   0  0  0  0  0  0  0  0  0  0  0  0
    0.3493    7.2978   -1.9690 H   0  0  0  0  0  0  0  0  0  0  0  0
   -1.0350    6.6901   -0.9991 H   0  0  0  0  0  0  0  0  0  0  0  0
    0.2955    7.5926   -0.1979 H   0  0  0  0  0  0  0  0  0  0  0  0
  1  3  1  0  0  0  0
  1  7  1  0  0  0  0
  1  2  2  0  0  0  0
 35 36  1  0  0  0  0
 36 44  1  0  0  0  0
 36 37  2  0  0  0  0
  8  9  1  0  0  0  0
  9 17  1  0  0  0  0
  9 10  2  0  0  0  0
 18 19  1  0  0  0  0
 19 34  1  0  0  0  0
 19 20  2  0  0  0  0
 35 38  1  0  0  0  0
  8 11  1  0  0  0  0
 44 45  1  0  0  0  0
 23 24  1  0  0  0  0
 21 22  1  0  0  0  0
 18 21  1  0  0  0  0
 22 23  1  0  0  0  0
 34 35  1  0  0  0  0
  7  8  1  0  0  0  0
 17 18  1  0  0  0  0
  3  4  1  0  0  0  0
  3  5  1  0  0  0  0
  3  6  1  0  0  0  0
 38 41  1  0  0  0  0
 38 42  1  0  0  0  0
 38 43  1  0  0  0  0
 11 14  1  0  0  0  0
 11 15  1  0  0  0  0
 11 16  1  0  0  0  0
 45 47  1  0  0  0  0
 45 48  1  0  0  0  0
 45 49  1  0  0  0  0
 24 31  1  0  0  0  0
 24 32  1  0  0  0  0
 24 33  1  0  0  0  0
 21 27  1  0  0  0  0
 21 28  1  0  0  0  0
 22 29  1  0  0  0  0
 22 30  1  0  0  0  0
 35 40  1  0  0  0  0
  8 13  1  0  0  0  0
 18 26  1  0  0  0  0
 44 46  1  0  0  0  0
  7 12  1  0  0  0  0
 34 39  1  0  0  0  0
 17 25  1  0  0  0  0
M  END
$$$$

  -OEChem-05262214473D

 49 48  0     1  0  0  0  0  0999 V2000
   -0.0561   -5.3799    2.6949 C   0  0  0  0  0  0  0  0  0  0  0  0
    0.7325   -5.0736    3.5815 O   0  0  0  0  0  0  0  0  0  0  0  0
   -1.0067   -6.5099    2.9135 C   0  0  0  0  0  0  0  0  0  0  0  0
   -0.5910   -7.4777    2.5899 H   0  0  0  0  0  0  0  0  0  0  0  0
   -1.2629   -6.6440    3.9767 H   0  0  0  0  0  0  0  0  0  0  0  0
   -1.9729   -6.4206    2.3918 H   0  0  0  0  0  0  0  0  0  0  0  0
   -0.1735   -4.7694    1.4571 N   0  0  0  0  0  0  0  0  0  0  0  0
    0.6439   -3.6603    1.0409 C   0  0  2  0  0  0  0  0  0  0  0  0
   -0.2788   -2.5625    0.5280 C   0  0  0  0  0  0  0  0  0  0  0  0
   -1.4197   -2.7791    0.1251 O   0  0  0  0  0  0  0  0  0  0  0  0
    1.6395   -4.0779   -0.0301 C   0  0  0  0  0  0  0  0  0  0  0  0
   -0.8741   -5.1235    0.8083 H   0  0  0  0  0  0  0  0  0  0  0  0
    1.1738   -3.3062    1.9318 H   0  0  0  0  0  0  0  0  0  0  0  0
    1.1270   -4.4358   -0.9305 H   0  0  0  0  0  0  0  0  0  0  0  0
    2.2797   -3.2400   -0.3251 H   0  0  0  0  0  0  0  0  0  0  0  0
    2.2827   -4.8880    0.3303 H   0  0  0  0  0  0  0  0  0  0  0  0
    0.3351   -1.3153    0.5316 N   0  0  0  0  0  0  0  0  0  0  0  0
   -0.3268   -0.1184    0.0807 C   0  0  2  0  0  0  0  0  0  0  0  0
    0.6348    1.0574    0.2231 C   0  0  0  0  0  0  0  0  0  0  0  0
    1.6499    1.0114    0.9150 O   0  0  0  0  0  0  0  0  0  0  0  0
   -1.6606    0.1128    0.8041 C   0  0  0  0  0  0  0  0  0  0  0  0
   -2.7199   -0.9472    0.4927 C   0  0  0  0  0  0  0  0  0  0  0  0
   -3.1090   -0.9569   -1.2828 S   0  0  0  0  0  0  0  0  0  0  0  0
   -3.9463    0.6418   -1.3747 C   0  0  0  0  0  0  0  0  0  0  0  0
    1.2790   -1.2290    0.9021 H   0  0  0  0  0  0  0  0  0  0  0  0
   -0.5219   -0.2691   -0.9880 H   0  0  0  0  0  0  0  0  0  0  0  0
   -2.0416    1.1026    0.5188 H   0  0  0  0  0  0  0  0  0  0  0  0
   -1.4805    0.1401    1.8864 H   0  0  0  0  0  0  0  0  0  0  0  0
   -3.6471   -0.7471    1.0380 H   0  0  0  0  0  0  0  0  0  0  0  0
   -2.3704   -1.9465    0.7684 H   0  0  0  0  0  0  0  0  0  0  0  0
   -4.2715    0.8327   -2.4003 H   0  0  0  0  0  0  0  0  0  0  0  0
   -3.2639    1.4365   -1.0634 H   0  0  0  0  0  0  0  0  0  0  0  0
   -4.8190    0.6420   -0.7171 H   0  0  0  0  0  0  0  0  0  0  0  0
    0.2099    2.1720   -0.4857 N   0  0  0  0  0  0  0  0  0  0  0  0
    0.9459    3.4144   -0.4960 C   0  0  2  0  0  0  0  0  0  0  0  0
   -0.0596    4.5571   -0.4458 C   0  0  0  0  0  0  0  0  0  0  0  0
   -1.2307    4.4362   -0.7994 O   0  0  0  0  0  0  0  0  0  0  0  0
    1.8310    3.5229   -1.7279 C   0  0  0  0  0  0  0  0  0  0  0  0
   -0.6291    2.1128   -1.0551 H   0  0  0  0  0  0  0  0  0  0  0  0
    1.5589    3.4264    0.4118 H   0  0  0  0  0  0  0  0  0  0  0  0
    1.2344    3.5126   -2.6473 H   0  0  0  0  0  0  0  0  0  0  0  0
    2.4098    4.4524   -1.7199 H   0  0  0  0  0  0  0  0  0  0  0  0
    2.5336    2.6841   -1.7781 H   0  0  0  0  0  0  0  0  0  0  0  0
    0.5155    5.7391   -0.0003 N   0  0  0  0  0  0  0  0  0  0  0  0
   -0.2294    6.9703    0.1234 C   0  0  0  0  0  0  0  0  0  0  0  0
    1.4889    5.7429    0.2896 H   0  0  0  0  0  0  0  0  0  0  0  0
   -0.1339    7.5521   -0.8052 H   0  0  0  0  0  0  0  0  0  0  0  0
   -1.2898    6.7406    0.3046 H   0  0  0  0  0  0  0  0  0  0  0  0
    0.1680    7.5560    0.9655 H   0  0  0  0  0  0  0  0  0  0  0  0
  1  3  1  0  0  0  0
  1  7  1  0  0  0  0
  1  2  2  0  0  0  0
 35 36  1  0  0  0  0
 36 44  1  0  0  0  0
 36 37  2  0  0  0  0
  8  9  1  0  0  0  0
  9 17  1  0  0  0  0
  9 10  2  0  0  0  0
 18 19  1  0  0  0  0
 19 34  1  0  0  0  0
 19 20  2  0  0  0  0
 35 38  1  0  0  0  0
  8 11  1  0  0  0  0
 44 45  1  0  0  0  0
 23 24  1  0  0  0  0
 21 22  1  0  0  0  0
 18 21  1  0  0  0  0
 22 23  1  0  0  0  0
 34 35  1  0  0  0  0
  7  8  1  0  0  0  0
 17 18  1  0  0  0  0
  3  4  1  0  0  0  0
  3  5  1  0  0  0  0
  3  6  1  0  0  0  0
 38 41  1  0  0  0  0
 38 42  1  0  0  0  0
 38 43  1  0  0  0  0
 11 14  1  0  0  0  0
 11 15  1  0  0  0  0
 11 16  1  0  0  0  0
 45 47  1  0  0  0  0
 45 48  1  0  0  0  0
 45 49  1  0  0  0  0
 24 31  1  0  0  0  0
 24 32  1  0  0  0  0
 24 33  1  0  0  0  0
 21 27  1  0  0  0  0
 21 28  1  0  0  0  0
 22 29  1  0  0  0  0
 22 30  1  0  0  0  0
 35 40  1  0  0  0  0
  8 13  1  0  0  0  0
 18 26  1  0  0  0  0
 44 46  1  0  0  0  0
  7 12  1  0  0  0  0
 34 39  1  0  0  0  0
 17 25  1  0  0  0  0
M  END
$$$$

  -OEChem-05262214473D

 49 48  0     1  0  0  0  0  0999 V2000
   -0.0561   -5.3799    2.6949 C   0  0  0  0  0  0  0  0  0  0  0  0
    0.7325   -5.0736    3.5815 O   0  0  0  0  0  0  0  0  0  0  0  0
   -1.0067   -6.5099    2.9135 C   0  0  0  0  0  0  0  0  0  0  0  0
   -0.5910   -7.4777    2.5899 H   0  0  0  0  0  0  0  0  0  0  0  0
   -1.2629   -6.6440    3.9767 H   0  0  0  0  0  0  0  0  0  0  0  0
   -1.9729   -6.4206    2.3918 H   0  0  0  0  0  0  0  0  0  0  0  0
   -0.1735   -4.7694    1.4571 N   0  0  0  0  0  0  0  0  0  0  0  0
    0.6439   -3.6603    1.0409 C   0  0  2  0  0  0  0  0  0  0  0  0
   -0.2788   -2.5625    0.5280 C   0  0  0  0  0  0  0  0  0  0  0  0
   -1.4197   -2.7791    0.1251 O   0  0  0  0  0  0  0  0  0  0  0  0
    1.6395   -4.0779   -0.0301 C   0  0  0  0  0  0  0  0  0  0  0  0
   -0.8741   -5.1235    0.8083 H   0  0  0  0  0  0  0  0  0  0  0  0
    1.1738   -3.3062    1.9318 H   0  0  0  0  0  0  0  0  0  0  0  0
    1.1270   -4.4358   -0.9305 H   0  0  0  0  0  0  0  0  0  0  0  0
    2.2797   -3.2400   -0.3251 H   0  0  0  0  0  0  0  0  0  0  0  0
    2.2827   -4.8880    0.3303 H   0  0  0  0  0  0  0  0  0  0  0  0
    0.3351   -1.3153    0.5316 N   0  0  0  0  0  0  0  0  0  0  0  0
   -0.3268   -0.1184    0.0807 C   0  0  2  0  0  0  0  0  0  0  0  0
    0.7202    0.9703   -0.1337 C   0  0  0  0  0  0  0  0  0  0  0  0
    1.9172    0.8003    0.0890 O   0  0  0  0  0  0  0  0  0  0  0  0
   -1.4499    0.3154    1.0327 C   0  0  0  0  0  0  0  0  0  0  0  0
   -2.6214   -0.6680    1.0890 C   0  0  0  0  0  0  0  0  0  0  0  0
   -3.3912   -0.8366   -0.5489 S   0  0  0  0  0  0  0  0  0  0  0  0
   -4.1176    0.8139   -0.6663 C   0  0  0  0  0  0  0  0  0  0  0  0
    1.2790   -1.2290    0.9021 H   0  0  0  0  0  0  0  0  0  0  0  0
   -0.7621   -0.3668   -0.8949 H   0  0  0  0  0  0  0  0  0  0  0  0
   -1.8161    1.2992    0.7097 H   0  0  0  0  0  0  0  0  0  0  0  0
   -1.0347    0.4447    2.0404 H   0  0  0  0  0  0  0  0  0  0  0  0
   -3.3900   -0.3228    1.7869 H   0  0  0  0  0  0  0  0  0  0  0  0
   -2.2885   -1.6593    1.4105 H   0  0  0  0  0  0  0  0  0  0  0  0
   -4.6467    0.9205   -1.6164 H   0  0  0  0  0  0  0  0  0  0  0  0
   -3.3309    1.5704   -0.6096 H   0  0  0  0  0  0  0  0  0  0  0  0
   -4.8221    0.9686    0.1545 H   0  0  0  0  0  0  0  0  0  0  0  0
    0.1577    2.1609   -0.5708 N   0  0  0  0  0  0  0  0  0  0  0  0
    0.9446    3.3434   -0.8317 C   0  0  2  0  0  0  0  0  0  0  0  0
    0.1569    4.5505   -0.3399 C   0  0  0  0  0  0  0  0  0  0  0  0
   -1.0639    4.5417   -0.1964 O   0  0  0  0  0  0  0  0  0  0  0  0
    1.2728    3.4744   -2.3109 C   0  0  0  0  0  0  0  0  0  0  0  0
   -0.8400    2.2045   -0.7561 H   0  0  0  0  0  0  0  0  0  0  0  0
    1.8662    3.2452   -0.2476 H   0  0  0  0  0  0  0  0  0  0  0  0
    0.3617    3.5738   -2.9122 H   0  0  0  0  0  0  0  0  0  0  0  0
    1.8934    4.3558   -2.5031 H   0  0  0  0  0  0  0  0  0  0  0  0
    1.8133    2.5919   -2.6698 H   0  0  0  0  0  0  0  0  0  0  0  0
    0.9724    5.6520   -0.1213 N   0  0  0  0  0  0  0  0  0  0  0  0
    0.4603    6.9226    0.3361 C   0  0  0  0  0  0  0  0  0  0  0  0
    1.9764    5.5634   -0.2477 H   0  0  0  0  0  0  0  0  0  0  0  0
    0.2340    7.5608   -0.5308 H   0  0  0  0  0  0  0  0  0  0  0  0
   -0.4572    6.7592    0.9203 H   0  0  0  0  0  0  0  0  0  0  0  0
    1.2141    7.4158    0.9675 H   0  0  0  0  0  0  0  0  0  0  0  0
  1  3  1  0  0  0  0
  1  7  1  0  0  0  0
  1  2  2  0  0  0  0
 35 36  1  0  0  0  0
 36 44  1  0  0  0  0
 36 37  2  0  0  0  0
  8  9  1  0  0  0  0
  9 17  1  0  0  0  0
  9 10  2  0  0  0  0
 18 19  1  0  0  0  0
 19 34  1  0  0  0  0
 19 20  2  0  0  0  0
 35 38  1  0  0  0  0
  8 11  1  0  0  0  0
 44 45  1  0  0  0  0
 23 24  1  0  0  0  0
 21 22  1  0  0  0  0
 18 21  1  0  0  0  0
 22 23  1  0  0  0  0
 34 35  1  0  0  0  0
  7  8  1  0  0  0  0
 17 18  1  0  0  0  0
  3  4  1  0  0  0  0
  3  5  1  0  0  0  0
  3  6  1  0  0  0  0
 38 41  1  0  0  0  0
 38 42  1  0  0  0  0
 38 43  1  0  0  0  0
 11 14  1  0  0  0  0
 11 15  1  0  0  0  0
 11 16  1  0  0  0  0
 45 47  1  0  0  0  0
 45 48  1  0  0  0  0
 45 49  1  0  0  0  0
 24 31  1  0  0  0  0
 24 32  1  0  0  0  0
 24 33  1  0  0  0  0
 21 27  1  0  0  0  0
 21 28  1  0  0  0  0
 22 29  1  0  0  0  0
 22 30  1  0  0  0  0
 35 40  1  0  0  0  0
  8 13  1  0  0  0  0
 18 26  1  0  0  0  0
 44 46  1  0  0  0  0
  7 12  1  0  0  0  0
 34 39  1  0  0  0  0
 17 25  1  0  0  0  0
M  END
$$$$

  -OEChem-05262214473D

 49 48  0     1  0  0  0  0  0999 V2000
   -0.0561   -5.3799    2.6949 C   0  0  0  0  0  0  0  0  0  0  0  0
    0.7325   -5.0736    3.5815 O   0  0  0  0  0  0  0  0  0  0  0  0
   -1.0067   -6.5099    2.9135 C   0  0  0  0  0  0  0  0  0  0  0  0
   -0.5910   -7.4777    2.5899 H   0  0  0  0  0  0  0  0  0  0  0  0
   -1.2629   -6.6440    3.9767 H   0  0  0  0  0  0  0  0  0  0  0  0
   -1.9729   -6.4206    2.3918 H   0  0  0  0  0  0  0  0  0  0  0  0
   -0.1735   -4.7694    1.4571 N   0  0  0  0  0  0  0  0  0  0  0  0
    0.6439   -3.6603    1.0409 C   0  0  2  0  0  0  0  0  0  0  0  0
   -0.2788   -2.5625    0.5280 C   0  0  0  0  0  0  0  0  0  0  0  0
   -1.4197   -2.7791    0.1251 O   0  0  0  0  0  0  0  0  0  0  0  0
    1.6395   -4.0779   -0.0301 C   0  0  0  0  0  0  0  0  0  0  0  0
   -0.8741   -5.1235    0.8083 H   0  0  0  0  0  0  0  0  0  0  0  0
    1.1738   -3.3062    1.9318 H   0  0  0  0  0  0  0  0  0  0  0  0
    1.1270   -4.4358   -0.9305 H   0  0  0  0  0  0  0  0  0  0  0  0
    2.2797   -3.2400   -0.3251 H   0  0  0  0  0  0  0  0  0  0  0  0
    2.2827   -4.8880    0.3303 H   0  0  0  0  0  0  0  0  0  0  0  0
    0.3351   -1.3153    0.5316 N   0  0  0  0  0  0  0  0  0  0  0  0
   -0.3268   -0.1184    0.0807 C   0  0  2  0  0  0  0  0  0  0  0  0
    0.7202    0.9703   -0.1337 C   0  0  0  0  0  0  0  0  0  0  0  0
    1.9270    0.7393   -0.1730 O   0  0  0  0  0  0  0  0  0  0  0  0
   -1.4499    0.3154    1.0327 C   0  0  0  0  0  0  0  0  0  0  0  0
   -2.6214   -0.6680    1.0890 C   0  0  0  0  0  0  0  0  0  0  0  0
   -3.3912   -0.8366   -0.5489 S   0  0  0  0  0  0  0  0  0  0  0  0
   -4.1176    0.8139   -0.6663 C   0  0  0  0  0  0  0  0  0  0  0  0
    1.2790   -1.2290    0.9021 H   0  0  0  0  0  0  0  0  0  0  0  0
   -0.7621   -0.3668   -0.8949 H   0  0  0  0  0  0  0  0  0  0  0  0
   -1.8161    1.2992    0.7097 H   0  0  0  0  0  0  0  0  0  0  0  0
   -1.0347    0.4447    2.0404 H   0  0  0  0  0  0  0  0  0  0  0  0
   -3.3900   -0.3228    1.7869 H   0  0  0  0  0  0  0  0  0  0  0  0
   -2.2885   -1.6593    1.4105 H   0  0  0  0  0  0  0  0  0  0  0  0
   -4.6467    0.9205   -1.6164 H   0  0  0  0  0  0  0  0  0  0  0  0
   -3.3309    1.5704   -0.6096 H   0  0  0  0  0  0  0  0  0  0  0  0
   -4.8221    0.9686    0.1545 H   0  0  0  0  0  0  0  0  0  0  0  0
    0.1518    2.2312   -0.2430 N   0  0  0  0  0  0  0  0  0  0  0  0
    0.9399    3.4256   -0.4372 C   0  0  2  0  0  0  0  0  0  0  0  0
    0.3197    4.5390    0.3966 C   0  0  0  0  0  0  0  0  0  0  0  0
   -0.8535    4.5284    0.7633 O   0  0  0  0  0  0  0  0  0  0  0  0
    1.0008    3.8158   -1.9058 C   0  0  0  0  0  0  0  0  0  0  0  0
   -0.8592    2.3273   -0.2270 H   0  0  0  0  0  0  0  0  0  0  0  0
    1.9456    3.2052   -0.0629 H   0  0  0  0  0  0  0  0  0  0  0  0
    0.0023    4.0403   -2.2984 H   0  0  0  0  0  0  0  0  0  0  0  0
    1.6221    4.7051   -2.0546 H   0  0  0  0  0  0  0  0  0  0  0  0
    1.4196    3.0024   -2.5081 H   0  0  0  0  0  0  0  0  0  0  0  0
    1.2186    5.5665    0.6466 N   0  0  0  0  0  0  0  0  0  0  0  0
    0.8661    6.7432    1.4063 C   0  0  0  0  0  0  0  0  0  0  0  0
    2.1768    5.4825    0.3201 H   0  0  0  0  0  0  0  0  0  0  0  0
    0.5205    7.5321    0.7220 H   0  0  0  0  0  0  0  0  0  0  0  0
    0.0624    6.4947    2.1150 H   0  0  0  0  0  0  0  0  0  0  0  0
    1.7470    7.0989    1.9608 H   0  0  0  0  0  0  0  0  0  0  0  0
  1  3  1  0  0  0  0
  1  7  1  0  0  0  0
  1  2  2  0  0  0  0
 35 36  1  0  0  0  0
 36 44  1  0  0  0  0
 36 37  2  0  0  0  0
  8  9  1  0  0  0  0
  9 17  1  0  0  0  0
  9 10  2  0  0  0  0
 18 19  1  0  0  0  0
 19 34  1  0  0  0  0
 19 20  2  0  0  0  0
 35 38  1  0  0  0  0
  8 11  1  0  0  0  0
 44 45  1  0  0  0  0
 23 24  1  0  0  0  0
 21 22  1  0  0  0  0
 18 21  1  0  0  0  0
 22 23  1  0  0  0  0
 34 35  1  0  0  0  0
  7  8  1  0  0  0  0
 17 18  1  0  0  0  0
  3  4  1  0  0  0  0
  3  5  1  0  0  0  0
  3  6  1  0  0  0  0
 38 41  1  0  0  0  0
 38 42  1  0  0  0  0
 38 43  1  0  0  0  0
 11 14  1  0  0  0  0
 11 15  1  0  0  0  0
 11 16  1  0  0  0  0
 45 47  1  0  0  0  0
 45 48  1  0  0  0  0
 45 49  1  0  0  0  0
 24 31  1  0  0  0  0
 24 32  1  0  0  0  0
 24 33  1  0  0  0  0
 21 27  1  0  0  0  0
 21 28  1  0  0  0  0
 22 29  1  0  0  0  0
 22 30  1  0  0  0  0
 35 40  1  0  0  0  0
  8 13  1  0  0  0  0
 18 26  1  0  0  0  0
 44 46  1  0  0  0  0
  7 12  1  0  0  0  0
 34 39  1  0  0  0  0
 17 25  1  0  0  0  0
M  END
$$$$

  -OEChem-05262214473D

 49 48  0     1  0  0  0  0  0999 V2000
   -0.0561   -5.3799    2.6949 C   0  0  0  0  0  0  0  0  0  0  0  0
    0.7325   -5.0736    3.5815 O   0  0  0  0  0  0  0  0  0  0  0  0
   -1.0067   -6.5099    2.9135 C   0  0  0  0  0  0  0  0  0  0  0  0
   -0.5910   -7.4777    2.5899 H   0  0  0  0  0  0  0  0  0  0  0  0
   -1.2629   -6.6440    3.9767 H   0  0  0  0  0  0  0  0  0  0  0  0
   -1.9729   -6.4206    2.3918 H   0  0  0  0  0  0  0  0  0  0  0  0
   -0.1735   -4.7694    1.4571 N   0  0  0  0  0  0  0  0  0  0  0  0
    0.6439   -3.6603    1.0409 C   0  0  2  0  0  0  0  0  0  0  0  0
   -0.2788   -2.5625    0.5280 C   0  0  0  0  0  0  0  0  0  0  0  0
   -1.4197   -2.7791    0.1251 O   0  0  0  0  0  0  0  0  0  0  0  0
    1.6395   -4.0779   -0.0301 C   0  0  0  0  0  0  0  0  0  0  0  0
   -0.8741   -5.1235    0.8083 H   0  0  0  0  0  0  0  0  0  0  0  0
    1.1738   -3.3062    1.9318 H   0  0  0  0  0  0  0  0  0  0  0  0
    1.1270   -4.4358   -0.9305 H   0  0  0  0  0  0  0  0  0  0  0  0
    2.2797   -3.2400   -0.3251 H   0  0  0  0  0  0  0  0  0  0  0  0
    2.2827   -4.8880    0.3303 H   0  0  0  0  0  0  0  0  0  0  0  0
    0.3351   -1.3153    0.5316 N   0  0  0  0  0  0  0  0  0  0  0  0
   -0.3268   -0.1184    0.0807 C   0  0  2  0  0  0  0  0  0  0  0  0
    0.7202    0.9703   -0.1337 C   0  0  0  0  0  0  0  0  0  0  0  0
    1.8859    0.7265   -0.4388 O   0  0  0  0  0  0  0  0  0  0  0  0
   -1.4499    0.3154    1.0327 C   0  0  0  0  0  0  0  0  0  0  0  0
   -2.6214   -0.6680    1.0890 C   0  0  0  0  0  0  0  0  0  0  0  0
   -3.3912   -0.8366   -0.5489 S   0  0  0  0  0  0  0  0  0  0  0  0
   -4.1176    0.8139   -0.6663 C   0  0  0  0  0  0  0  0  0  0  0  0
    1.2790   -1.2290    0.9021 H   0  0  0  0  0  0  0  0  0  0  0  0
   -0.7621   -0.3668   -0.8949 H   0  0  0  0  0  0  0  0  0  0  0  0
   -1.8161    1.2992    0.7097 H   0  0  0  0  0  0  0  0  0  0  0  0
   -1.0347    0.4447    2.0404 H   0  0  0  0  0  0  0  0  0  0  0  0
   -3.3900   -0.3228    1.7869 H   0  0  0  0  0  0  0  0  0  0  0  0
   -2.2885   -1.6593    1.4105 H   0  0  0  0  0  0  0  0  0  0  0  0
   -4.6467    0.9205   -1.6164 H   0  0  0  0  0  0  0  0  0  0  0  0
   -3.3309    1.5704   -0.6096 H   0  0  0  0  0  0  0  0  0  0  0  0
   -4.8221    0.9686    0.1545 H   0  0  0  0  0  0  0  0  0  0  0  0
    0.2091    2.2411    0.0871 N   0  0  0  0  0  0  0  0  0  0  0  0
    1.0112    3.4352   -0.0406 C   0  0  2  0  0  0  0  0  0  0  0  0
    0.6125    4.3912    1.0759 C   0  0  0  0  0  0  0  0  0  0  0  0
   -0.4736    4.3375    1.6490 O   0  0  0  0  0  0  0  0  0  0  0  0
    0.8253    4.0835   -1.4036 C   0  0  0  0  0  0  0  0  0  0  0  0
   -0.7757    2.3526    0.3094 H   0  0  0  0  0  0  0  0  0  0  0  0
    2.0550    3.1309    0.0938 H   0  0  0  0  0  0  0  0  0  0  0  0
   -0.2145    4.3951   -1.5563 H   0  0  0  0  0  0  0  0  0  0  0  0
    1.4556    4.9726   -1.5093 H   0  0  0  0  0  0  0  0  0  0  0  0
    1.0841    3.3845   -2.2062 H   0  0  0  0  0  0  0  0  0  0  0  0
    1.5951    5.3385    1.3276 N   0  0  0  0  0  0  0  0  0  0  0  0
    1.4492    6.3649    2.3331 C   0  0  0  0  0  0  0  0  0  0  0  0
    2.4724    5.2962    0.8173 H   0  0  0  0  0  0  0  0  0  0  0  0
    1.0276    7.2713    1.8742 H   0  0  0  0  0  0  0  0  0  0  0  0
    0.7754    6.0081    3.1260 H   0  0  0  0  0  0  0  0  0  0  0  0
    2.4337    6.5970    2.7656 H   0  0  0  0  0  0  0  0  0  0  0  0
  1  3  1  0  0  0  0
  1  7  1  0  0  0  0
  1  2  2  0  0  0  0
 35 36  1  0  0  0  0
 36 44  1  0  0  0  0
 36 37  2  0  0  0  0
  8  9  1  0  0  0  0
  9 17  1  0  0  0  0
  9 10  2  0  0  0  0
 18 19  1  0  0  0  0
 19 34  1  0  0  0  0
 19 20  2  0  0  0  0
 35 38  1  0  0  0  0
  8 11  1  0  0  0  0
 44 45  1  0  0  0  0
 23 24  1  0  0  0  0
 21 22  1  0  0  0  0
 18 21  1  0  0  0  0
 22 23  1  0  0  0  0
 34 35  1  0  0  0  0
  7  8  1  0  0  0  0
 17 18  1  0  0  0  0
  3  4  1  0  0  0  0
  3  5  1  0  0  0  0
  3  6  1  0  0  0  0
 38 41  1  0  0  0  0
 38 42  1  0  0  0  0
 38 43  1  0  0  0  0
 11 14  1  0  0  0  0
 11 15  1  0  0  0  0
 11 16  1  0  0  0  0
 45 47  1  0  0  0  0
 45 48  1  0  0  0  0
 45 49  1  0  0  0  0
 24 31  1  0  0  0  0
 24 32  1  0  0  0  0
 24 33  1  0  0  0  0
 21 27  1  0  0  0  0
 21 28  1  0  0  0  0
 22 29  1  0  0  0  0
 22 30  1  0  0  0  0
 35 40  1  0  0  0  0
  8 13  1  0  0  0  0
 18 26  1  0  0  0  0
 44 46  1  0  0  0  0
  7 12  1  0  0  0  0
 34 39  1  0  0  0  0
 17 25  1  0  0  0  0
M  END
$$$$

  -OEChem-05262214473D

 49 48  0     1  0  0  0  0  0999 V2000
   -0.0561   -5.3799    2.6949 C   0  0  0  0  0  0  0  0  0  0  0  0
    0.7325   -5.0736    3.5815 O   0  0  0  0  0  0  0  0  0  0  0  0
   -1.0067   -6.5099    2.9135 C   0  0  0  0  0  0  0  0  0  0  0  0
   -0.5910   -7.4777    2.5899 H   0  0  0  0  0  0  0  0  0  0  0  0
   -1.2629   -6.6440    3.9767 H   0  0  0  0  0  0  0  0  0  0  0  0
   -1.9729   -6.4206    2.3918 H   0  0  0  0  0  0  0  0  0  0  0  0
   -0.1735   -4.7694    1.4571 N   0  0  0  0  0  0  0  0  0  0  0  0
    0.6439   -3.6603    1.0409 C   0  0  2  0  0  0  0  0  0  0  0  0
   -0.2788   -2.5625    0.5280 C   0  0  0  0  0  0  0  0  0  0  0  0
   -1.4197   -2.7791    0.1251 O   0  0  0  0  0  0  0  0  0  0  0  0
    1.6395   -4.0779   -0.0301 C   0  0  0  0  0  0  0  0  0  0  0  0
   -0.8741   -5.1235    0.8083 H   0  0  0  0  0  0  0  0  0  0  0  0
    1.1738   -3.3062    1.9318 H   0  0  0  0  0  0  0  0  0  0  0  0
    1.1270   -4.4358   -0.9305 H   0  0  0  0  0  0  0  0  0  0  0  0
    2.2797   -3.2400   -0.3251 H   0  0  0  0  0  0  0  0  0  0  0  0
    2.2827   -4.8880    0.3303 H   0  0  0  0  0  0  0  0  0  0  0  0
    0.3351   -1.3153    0.5316 N   0  0  0  0  0  0  0  0  0  0  0  0
   -0.3268   -0.1184    0.0807 C   0  0  2  0  0  0  0  0  0  0  0  0
    0.7202    0.9703   -0.1337 C   0  0  0  0  0  0  0  0  0  0  0  0
    1.7966    0.7628   -0.6902 O   0  0  0  0  0  0  0  0  0  0  0  0
   -1.4499    0.3154    1.0327 C   0  0  0  0  0  0  0  0  0  0  0  0
   -2.6214   -0.6680    1.0890 C   0  0  0  0  0  0  0  0  0  0  0  0
   -3.3912   -0.8366   -0.5489 S   0  0  0  0  0  0  0  0  0  0  0  0
   -4.1176    0.8139   -0.6663 C   0  0  0  0  0  0  0  0  0  0  0  0
    1.2790   -1.2290    0.9021 H   0  0  0  0  0  0  0  0  0  0  0  0
   -0.7621   -0.3668   -0.8949 H   0  0  0  0  0  0  0  0  0  0  0  0
   -1.8161    1.2992    0.7097 H   0  0  0  0  0  0  0  0  0  0  0  0
   -1.0347    0.4447    2.0404 H   0  0  0  0  0  0  0  0  0  0  0  0
   -3.3900   -0.3228    1.7869 H   0  0  0  0  0  0  0  0  0  0  0  0
   -2.2885   -1.6593    1.4105 H   0  0  0  0  0  0  0  0  0  0  0  0
   -4.6467    0.9205   -1.6164 H   0  0  0  0  0  0  0  0  0  0  0  0
   -3.3309    1.5704   -0.6096 H   0  0  0  0  0  0  0  0  0  0  0  0
   -4.8221    0.9686    0.1545 H   0  0  0  0  0  0  0  0  0  0  0  0
    0.3258    2.1899    0.3973 N   0  0  0  0  0  0  0  0  0  0  0  0
    1.1537    3.3714    0.3311 C   0  0  2  0  0  0  0  0  0  0  0  0
    1.0154    4.1171    1.6518 C   0  0  0  0  0  0  0  0  0  0  0  0
    0.0500    3.9819    2.4006 O   0  0  0  0  0  0  0  0  0  0  0  0
    0.7583    4.2593   -0.8385 C   0  0  0  0  0  0  0  0  0  0  0  0
   -0.5950    2.2787    0.8166 H   0  0  0  0  0  0  0  0  0  0  0  0
    2.1869    3.0273    0.2117 H   0  0  0  0  0  0  0  0  0  0  0  0
   -0.2739    4.6137   -0.7364 H   0  0  0  0  0  0  0  0  0  0  0  0
    1.4053    5.1403   -0.9043 H   0  0  0  0  0  0  0  0  0  0  0  0
    0.8298    3.7122   -1.7848 H   0  0  0  0  0  0  0  0  0  0  0  0
    2.0762    4.9836    1.8753 N   0  0  0  0  0  0  0  0  0  0  0  0
    2.1699    5.8137    3.0536 C   0  0  0  0  0  0  0  0  0  0  0  0
    2.8429    5.0171    1.2098 H   0  0  0  0  0  0  0  0  0  0  0  0
    1.7207    6.7964    2.8471 H   0  0  0  0  0  0  0  0  0  0  0  0
    1.6330    5.3326    3.8845 H   0  0  0  0  0  0  0  0  0  0  0  0
    3.2273    5.9442    3.3269 H   0  0  0  0  0  0  0  0  0  0  0  0
  1  3  1  0  0  0  0
  1  7  1  0  0  0  0
  1  2  2  0  0  0  0
 35 36  1  0  0  0  0
 36 44  1  0  0  0  0
 36 37  2  0  0  0  0
  8  9  1  0  0  0  0
  9 17  1  0  0  0  0
  9 10  2  0  0  0  0
 18 19  1  0  0  0  0
 19 34  1  0  0  0  0
 19 20  2  0  0  0  0
 35 38  1  0  0  0  0
  8 11  1  0  0  0  0
 44 45  1  0  0  0  0
 23 24  1  0  0  0  0
 21 22  1  0  0  0  0
 18 21  1  0  0  0  0
 22 23  1  0  0  0  0
 34 35  1  0  0  0  0
  7  8  1  0  0  0  0
 17 18  1  0  0  0  0
  3  4  1  0  0  0  0
  3  5  1  0  0  0  0
  3  6  1  0  0  0  0
 38 41  1  0  0  0  0
 38 42  1  0  0  0  0
 38 43  1  0  0  0  0
 11 14  1  0  0  0  0
 11 15  1  0  0  0  0
 11 16  1  0  0  0  0
 45 47  1  0  0  0  0
 45 48  1  0  0  0  0
 45 49  1  0  0  0  0
 24 31  1  0  0  0  0
 24 32  1  0  0  0  0
 24 33  1  0  0  0  0
 21 27  1  0  0  0  0
 21 28  1  0  0  0  0
 22 29  1  0  0  0  0
 22 30  1  0  0  0  0
 35 40  1  0  0  0  0
  8 13  1  0  0  0  0
 18 26  1  0  0  0  0
 44 46  1  0  0  0  0
  7 12  1  0  0  0  0
 34 39  1  0  0  0  0
 17 25  1  0  0  0  0
M  END
$$$$

  -OEChem-05262214473D

 49 48  0     1  0  0  0  0  0999 V2000
   -0.0561   -5.3799    2.6949 C   0  0  0  0  0  0  0  0  0  0  0  0
    0.7325   -5.0736    3.5815 O   0  0  0  0  0  0  0  0  0  0  0  0
   -1.0067   -6.5099    2.9135 C   0  0  0  0  0  0  0  0  0  0  0  0
   -0.5910   -7.4777    2.5899 H   0  0  0  0  0  0  0  0  0  0  0  0
   -1.2629   -6.6440    3.9767 H   0  0  0  0  0  0  0  0  0  0  0  0
   -1.9729   -6.4206    2.3918 H   0  0  0  0  0  0  0  0  0  0  0  0
   -0.1735   -4.7694    1.4571 N   0  0  0  0  0  0  0  0  0  0  0  0
    0.6439   -3.6603    1.0409 C   0  0  2  0  0  0  0  0  0  0  0  0
   -0.2788   -2.5625    0.5280 C   0  0  0  0  0  0  0  0  0  0  0  0
   -1.4197   -2.7791    0.1251 O   0  0  0  0  0  0  0  0  0  0  0  0
    1.6395   -4.0779   -0.0301 C   0  0  0  0  0  0  0  0  0  0  0  0
   -0.8741   -5.1235    0.8083 H   0  0  0  0  0  0  0  0  0  0  0  0
    1.1738   -3.3062    1.9318 H   0  0  0  0  0  0  0  0  0  0  0  0
    1.1270   -4.4358   -0.9305 H   0  0  0  0  0  0  0  0  0  0  0  0
    2.2797   -3.2400   -0.3251 H   0  0  0  0  0  0  0  0  0  0  0  0
    2.2827   -4.8880    0.3303 H   0  0  0  0  0  0  0  0  0  0  0  0
    0.3351   -1.3153    0.5316 N   0  0  0  0  0  0  0  0  0  0  0  0
   -0.3268   -0.1184    0.0807 C   0  0  2  0  0  0  0  0  0  0  0  0
    0.7202    0.9703   -0.1337 C   0  0  0  0  0  0  0  0  0  0  0  0
    1.6652    0.8459   -0.9101 O   0  0  0  0  0  0  0  0  0  0  0  0
   -1.4499    0.3154    1.0327 C   0  0  0  0  0  0  0  0  0  0  0  0
   -2.6214   -0.6680    1.0890 C   0  0  0  0  0  0  0  0  0  0  0  0
   -3.3912   -0.8366   -0.5489 S   0  0  0  0  0  0  0  0  0  0  0  0
   -4.1176    0.8139   -0.6663 C   0  0  0  0  0  0  0  0  0  0  0  0
    1.2790   -1.2290    0.9021 H   0  0  0  0  0  0  0  0  0  0  0  0
   -0.7621   -0.3668   -0.8949 H   0  0  0  0  0  0  0  0  0  0  0  0
   -1.8161    1.2992    0.7097 H   0  0  0  0  0  0  0  0  0  0  0  0
   -1.0347    0.4447    2.0404 H   0  0  0  0  0  0  0  0  0  0  0  0
   -3.3900   -0.3228    1.7869 H   0  0  0  0  0  0  0  0  0  0  0  0
   -2.2885   -1.6593    1.4105 H   0  0  0  0  0  0  0  0  0  0  0  0
   -4.6467    0.9205   -1.6164 H   0  0  0  0  0  0  0  0  0  0  0  0
   -3.3309    1.5704   -0.6096 H   0  0  0  0  0  0  0  0  0  0  0  0
   -4.8221    0.9686    0.1545 H   0  0  0  0  0  0  0  0  0  0  0  0
    0.4940    2.0812    0.6661 N   0  0  0  0  0  0  0  0  0  0  0  0
    1.3576    3.2385    0.6524 C   0  0  2  0  0  0  0  0  0  0  0  0
    1.5010    3.7354    2.0849 C   0  0  0  0  0  0  0  0  0  0  0  0
    0.6816    3.4859    2.9666 O   0  0  0  0  0  0  0  0  0  0  0  0
    0.8043    4.3311   -0.2491 C   0  0  0  0  0  0  0  0  0  0  0  0
   -0.3294    2.1106    1.2601 H   0  0  0  0  0  0  0  0  0  0  0  0
    2.3322    2.9015    0.2828 H   0  0  0  0  0  0  0  0  0  0  0  0
   -0.1720    4.6815    0.1053 H   0  0  0  0  0  0  0  0  0  0  0  0
    1.4744    5.1966   -0.2808 H   0  0  0  0  0  0  0  0  0  0  0  0
    0.6738    3.9631   -1.2725 H   0  0  0  0  0  0  0  0  0  0  0  0
    2.6292    4.5261    2.2525 N   0  0  0  0  0  0  0  0  0  0  0  0
    2.9789    5.1271    3.5184 C   0  0  0  0  0  0  0  0  0  0  0  0
    3.2631    4.6644    1.4710 H   0  0  0  0  0  0  0  0  0  0  0  0
    2.5526    6.1395    3.5745 H   0  0  0  0  0  0  0  0  0  0  0  0
    2.5770    4.5142    4.3387 H   0  0  0  0  0  0  0  0  0  0  0  0
    4.0739    5.1851    3.6066 H   0  0  0  0  0  0  0  0  0  0  0  0
  1  3  1  0  0  0  0
  1  7  1  0  0  0  0
  1  2  2  0  0  0  0
 35 36  1  0  0  0  0
 36 44  1  0  0  0  0
 36 37  2  0  0  0  0
  8  9  1  0  0  0  0
  9 17  1  0  0  0  0
  9 10  2  0  0  0  0
 18 19  1  0  0  0  0
 19 34  1  0  0  0  0
 19 20  2  0  0  0  0
 35 38  1  0  0  0  0
  8 11  1  0  0  0  0
 44 45  1  0  0  0  0
 23 24  1  0  0  0  0
 21 22  1  0  0  0  0
 18 21  1  0  0  0  0
 22 23  1  0  0  0  0
 34 35  1  0  0  0  0
  7  8  1  0  0  0  0
 17 18  1  0  0  0  0
  3  4  1  0  0  0  0
  3  5  1  0  0  0  0
  3  6  1  0  0  0  0
 38 41  1  0  0  0  0
 38 42  1  0  0  0  0
 38 43  1  0  0  0  0
 11 14  1  0  0  0  0
 11 15  1  0  0  0  0
 11 16  1  0  0  0  0
 45 47  1  0  0  0  0
 45 48  1  0  0  0  0
 45 49  1  0  0  0  0
 24 31  1  0  0  0  0
 24 32  1  0  0  0  0
 24 33  1  0  0  0  0
 21 27  1  0  0  0  0
 21 28  1  0  0  0  0
 22 29  1  0  0  0  0
 22 30  1  0  0  0  0
 35 40  1  0  0  0  0
  8 13  1  0  0  0  0
 18 26  1  0  0  0  0
 44 46  1  0  0  0  0
  7 12  1  0  0  0  0
 34 39  1  0  0  0  0
 17 25  1  0  0  0  0
M  END
$$$$

  -OEChem-05262214473D

 49 48  0     1  0  0  0  0  0999 V2000
   -0.0561   -5.3799    2.6949 C   0  0  0  0  0  0  0  0  0  0  0  0
    0.7325   -5.0736    3.5815 O   0  0  0  0  0  0  0  0  0  0  0  0
   -1.0067   -6.5099    2.9135 C   0  0  0  0  0  0  0  0  0  0  0  0
   -0.5910   -7.4777    2.5899 H   0  0  0  0  0  0  0  0  0  0  0  0
   -1.2629   -6.6440    3.9767 H   0  0  0  0  0  0  0  0  0  0  0  0
   -1.9729   -6.4206    2.3918 H   0  0  0  0  0  0  0  0  0  0  0  0
   -0.1735   -4.7694    1.4571 N   0  0  0  0  0  0  0  0  0  0  0  0
    0.6439   -3.6603    1.0409 C   0  0  2  0  0  0  0  0  0  0  0  0
   -0.2788   -2.5625    0.5280 C   0  0  0  0  0  0  0  0  0  0  0  0
   -1.4197   -2.7791    0.1251 O   0  0  0  0  0  0  0  0  0  0  0  0
    1.6395   -4.0779   -0.0301 C   0  0  0  0  0  0  0  0  0  0  0  0
   -0.8741   -5.1235    0.8083 H   0  0  0  0  0  0  0  0  0  0  0  0
    1.1738   -3.3062    1.9318 H   0  0  0  0  0  0  0  0  0  0  0  0
    1.1270   -4.4358   -0.9305 H   0  0  0  0  0  0  0  0  0  0  0  0
    2.2797   -3.2400   -0.3251 H   0  0  0  0  0  0  0  0  0  0  0  0
    2.2827   -4.8880    0.3303 H   0  0  0  0  0  0  0  0  0  0  0  0
    0.3351   -1.3153    0.5316 N   0  0  0  0  0  0  0  0  0  0  0  0
   -0.3268   -0.1184    0.0807 C   0  0  2  0  0  0  0  0  0  0  0  0
    0.7202    0.9703   -0.1337 C   0  0  0  0  0  0  0  0  0  0  0  0
    1.5008    0.9699   -1.0835 O   0  0  0  0  0  0  0  0  0  0  0  0
   -1.4499    0.3154    1.0327 C   0  0  0  0  0  0  0  0  0  0  0  0
   -2.6214   -0.6680    1.0890 C   0  0  0  0  0  0  0  0  0  0  0  0
   -3.3912   -0.8366   -0.5489 S   0  0  0  0  0  0  0  0  0  0  0  0
   -4.1176    0.8139   -0.6663 C   0  0  0  0  0  0  0  0  0  0  0  0
    1.2790   -1.2290    0.9021 H   0  0  0  0  0  0  0  0  0  0  0  0
   -0.7621   -0.3668   -0.8949 H   0  0  0  0  0  0  0  0  0  0  0  0
   -1.8161    1.2992    0.7097 H   0  0  0  0  0  0  0  0  0  0  0  0
   -1.0347    0.4447    2.0404 H   0  0  0  0  0  0  0  0  0  0  0  0
   -3.3900   -0.3228    1.7869 H   0  0  0  0  0  0  0  0  0  0  0  0
   -2.2885   -1.6593    1.4105 H   0  0  0  0  0  0  0  0  0  0  0  0
   -4.6467    0.9205   -1.6164 H   0  0  0  0  0  0  0  0  0  0  0  0
   -3.3309    1.5704   -0.6096 H   0  0  0  0  0  0  0  0  0  0  0  0
   -4.8221    0.9686    0.1545 H   0  0  0  0  0  0  0  0  0  0  0  0
    0.7021    1.9222    0.8755 N   0  0  0  0  0  0  0  0  0  0  0  0
    1.6091    3.0457    0.9015 C   0  0  2  0  0  0  0  0  0  0  0  0
    2.0361    3.2721    2.3457 C   0  0  0  0  0  0  0  0  0  0  0  0
    1.3782    2.8833    3.3086 O   0  0  0  0  0  0  0  0  0  0  0  0
    0.9602    4.2942    0.3245 C   0  0  0  0  0  0  0  0  0  0  0  0
    0.0028    1.8599    1.6095 H   0  0  0  0  0  0  0  0  0  0  0  0
    2.4812    2.7620    0.3024 H   0  0  0  0  0  0  0  0  0  0  0  0
    0.0844    4.5937    0.9116 H   0  0  0  0  0  0  0  0  0  0  0  0
    1.6584    5.1377    0.3186 H   0  0  0  0  0  0  0  0  0  0  0  0
    0.6269    4.1202   -0.7043 H   0  0  0  0  0  0  0  0  0  0  0  0
    3.2164    3.9970    2.4335 N   0  0  0  0  0  0  0  0  0  0  0  0
    3.8213    4.3518    3.6961 C   0  0  0  0  0  0  0  0  0  0  0  0
    3.7044    4.2620    1.5830 H   0  0  0  0  0  0  0  0  0  0  0  0
    3.4666    5.3456    4.0068 H   0  0  0  0  0  0  0  0  0  0  0  0
    3.5429    3.6086    4.4577 H   0  0  0  0  0  0  0  0  0  0  0  0
    4.9156    4.3713    3.5856 H   0  0  0  0  0  0  0  0  0  0  0  0
  1  3  1  0  0  0  0
  1  7  1  0  0  0  0
  1  2  2  0  0  0  0
 35 36  1  0  0  0  0
 36 44  1  0  0  0  0
 36 37  2  0  0  0  0
  8  9  1  0  0  0  0
  9 17  1  0  0  0  0
  9 10  2  0  0  0  0
 18 19  1  0  0  0  0
 19 34  1  0  0  0  0
 19 20  2  0  0  0  0
 35 38  1  0  0  0  0
  8 11  1  0  0  0  0
 44 45  1  0  0  0  0
 23 24  1  0  0  0  0
 21 22  1  0  0  0  0
 18 21  1  0  0  0  0
 22 23  1  0  0  0  0
 34 35  1  0  0  0  0
  7  8  1  0  0  0  0
 17 18  1  0  0  0  0
  3  4  1  0  0  0  0
  3  5  1  0  0  0  0
  3  6  1  0  0  0  0
 38 41  1  0  0  0  0
 38 42  1  0  0  0  0
 38 43  1  0  0  0  0
 11 14  1  0  0  0  0
 11 15  1  0  0  0  0
 11 16  1  0  0  0  0
 45 47  1  0  0  0  0
 45 48  1  0  0  0  0
 45 49  1  0  0  0  0
 24 31  1  0  0  0  0
 24 32  1  0  0  0  0
 24 33  1  0  0  0  0
 21 27  1  0  0  0  0
 21 28  1  0  0  0  0
 22 29  1  0  0  0  0
 22 30  1  0  0  0  0
 35 40  1  0  0  0  0
  8 13  1  0  0  0  0
 18 26  1  0  0  0  0
 44 46  1  0  0  0  0
  7 12  1  0  0  0  0
 34 39  1  0  0  0  0
 17 25  1  0  0  0  0
M  END
$$$$

  -OEChem-05262214473D

 49 48  0     1  0  0  0  0  0999 V2000
   -0.0561   -5.3799    2.6949 C   0  0  0  0  0  0  0  0  0  0  0  0
    0.7325   -5.0736    3.5815 O   0  0  0  0  0  0  0  0  0  0  0  0
   -1.0067   -6.5099    2.9135 C   0  0  0  0  0  0  0  0  0  0  0  0
   -0.5910   -7.4777    2.5899 H   0  0  0  0  0  0  0  0  0  0  0  0
   -1.2629   -6.6440    3.9767 H   0  0  0  0  0  0  0  0  0  0  0  0
   -1.9729   -6.4206    2.3918 H   0  0  0  0  0  0  0  0  0  0  0  0
   -0.1735   -4.7694    1.4571 N   0  0  0  0  0  0  0  0  0  0  0  0
    0.6439   -3.6603    1.0409 C   0  0  2  0  0  0  0  0  0  0  0  0
   -0.2788   -2.5625    0.5280 C   0  0  0  0  0  0  0  0  0  0  0  0
   -1.4197   -2.7791    0.1251 O   0  0  0  0  0  0  0  0  0  0  0  0
    1.6395   -4.0779   -0.0301 C   0  0  0  0  0  0  0  0  0  0  0  0
   -0.8741   -5.1235    0.8083 H   0  0  0  0  0  0  0  0  0  0  0  0
    1.1738   -3.3062    1.9318 H   0  0  0  0  0  0  0  0  0  0  0  0
    1.1270   -4.4358   -0.9305 H   0  0  0  0  0  0  0  0  0  0  0  0
    2.2797   -3.2400   -0.3251 H   0  0  0  0  0  0  0  0  0  0  0  0
    2.2827   -4.8880    0.3303 H   0  0  0  0  0  0  0  0  0  0  0  0
    0.3351   -1.3153    0.5316 N   0  0  0  0  0  0  0  0  0  0  0  0
   -0.3268   -0.1184    0.0807 C   0  0  2  0  0  0  0  0  0  0  0  0
    0.7202    0.9703   -0.1337 C   0  0  0  0  0  0  0  0  0  0  0  0
    1.3144    1.1265   -1.1985 O   0  0  0  0  0  0  0  0  0  0  0  0
   -1.4499    0.3154    1.0327 C   0  0  0  0  0  0  0  0  0  0  0  0
   -2.6214   -0.6680    1.0890 C   0  0  0  0  0  0  0  0  0  0  0  0
   -3.3912   -0.8366   -0.5489 S   0  0  0  0  0  0  0  0  0  0  0  0
   -4.1176    0.8139   -0.6663 C   0  0  0  0  0  0  0  0  0  0  0  0
    1.2790   -1.2290    0.9021 H   0  0  0  0  0  0  0  0  0  0  0  0
   -0.7621   -0.3668   -0.8949 H   0  0  0  0  0  0  0  0  0  0  0  0
   -1.8161    1.2992    0.7097 H   0  0  0  0  0  0  0  0  0  0  0  0
   -1.0347    0.4447    2.0404 H   0  0  0  0  0  0  0  0  0  0  0  0
   -3.3900   -0.3228    1.7869 H   0  0  0  0  0  0  0  0  0  0  0  0
   -2.2885   -1.6593    1.4105 H   0  0  0  0  0  0  0  0  0  0  0  0
   -4.6467    0.9205   -1.6164 H   0  0  0  0  0  0  0  0  0  0  0  0
   -3.3309    1.5704   -0.6096 H   0  0  0  0  0  0  0  0  0  0  0  0
   -4.8221    0.9686    0.1545 H   0  0  0  0  0  0  0  0  0  0  0  0
    0.9360    1.7239    1.0111 N   0  0  0  0  0  0  0  0  0  0  0  0
    1.8910    2.8061    1.0614 C   0  0  2  0  0  0  0  0  0  0  0  0
    2.5844    2.7587    2.4166 C   0  0  0  0  0  0  0  0  0  0  0  0
    2.0923    2.2151    3.4032 O   0  0  0  0  0  0  0  0  0  0  0  0
    1.2154    4.1509    0.8432 C   0  0  0  0  0  0  0  0  0  0  0  0
    0.3792    1.5435    1.8411 H   0  0  0  0  0  0  0  0  0  0  0  0
    2.6237    2.6184    0.2689 H   0  0  0  0  0  0  0  0  0  0  0  0
    0.4778    4.3564    1.6275 H   0  0  0  0  0  0  0  0  0  0  0  0
    1.9447    4.9676    0.8532 H   0  0  0  0  0  0  0  0  0  0  0  0
    0.6923    4.1727   -0.1189 H   0  0  0  0  0  0  0  0  0  0  0  0
    3.7977    3.4324    2.4058 N   0  0  0  0  0  0  0  0  0  0  0  0
    4.6396    3.5408    3.5744 C   0  0  0  0  0  0  0  0  0  0  0  0
    4.1367    3.8374    1.5382 H   0  0  0  0  0  0  0  0  0  0  0  0
    4.4003    4.4687    4.1145 H   0  0  0  0  0  0  0  0  0  0  0  0
    4.4649    2.6776    4.2334 H   0  0  0  0  0  0  0  0  0  0  0  0
    5.6952    3.5584    3.2652 H   0  0  0  0  0  0  0  0  0  0  0  0
  1  3  1  0  0  0  0
  1  7  1  0  0  0  0
  1  2  2  0  0  0  0
 35 36  1  0  0  0  0
 36 44  1  0  0  0  0
 36 37  2  0  0  0  0
  8  9  1  0  0  0  0
  9 17  1  0  0  0  0
  9 10  2  0  0  0  0
 18 19  1  0  0  0  0
 19 34  1  0  0  0  0
 19 20  2  0  0  0  0
 35 38  1  0  0  0  0
  8 11  1  0  0  0  0
 44 45  1  0  0  0  0
 23 24  1  0  0  0  0
 21 22  1  0  0  0  0
 18 21  1  0  0  0  0
 22 23  1  0  0  0  0
 34 35  1  0  0  0  0
  7  8  1  0  0  0  0
 17 18  1  0  0  0  0
  3  4  1  0  0  0  0
  3  5  1  0  0  0  0
  3  6  1  0  0  0  0
 38 41  1  0  0  0  0
 38 42  1  0  0  0  0
 38 43  1  0  0  0  0
 11 14  1  0  0  0  0
 11 15  1  0  0  0  0
 11 16  1  0  0  0  0
 45 47  1  0  0  0  0
 45 48  1  0  0  0  0
 45 49  1  0  0  0  0
 24 31  1  0  0  0  0
 24 32  1  0  0  0  0
 24 33  1  0  0  0  0
 21 27  1  0  0  0  0
 21 28  1  0  0  0  0
 22 29  1  0  0  0  0
 22 30  1  0  0  0  0
 35 40  1  0  0  0  0
  8 13  1  0  0  0  0
 18 26  1  0  0  0  0
 44 46  1  0  0  0  0
  7 12  1  0  0  0  0
 34 39  1  0  0  0  0
 17 25  1  0  0  0  0
M  END
$$$$

  -OEChem-05262214473D

 49 48  0     1  0  0  0  0  0999 V2000
   -0.0561   -5.3799    2.6949 C   0  0  0  0  0  0  0  0  0  0  0  0
    0.7325   -5.0736    3.5815 O   0  0  0  0  0  0  0  0  0  0  0  0
   -1.0067   -6.5099    2.9135 C   0  0  0  0  0  0  0  0  0  0  0  0
   -0.5910   -7.4777    2.5899 H   0  0  0  0  0  0  0  0  0  0  0  0
   -1.2629   -6.6440    3.9767 H   0  0  0  0  0  0  0  0  0  0  0  0
   -1.9729   -6.4206    2.3918 H   0  0  0  0  0  0  0  0  0  0  0  0
   -0.1735   -4.7694    1.4571 N   0  0  0  0  0  0  0  0  0  0  0  0
    0.6439   -3.6603    1.0409 C   0  0  2  0  0  0  0  0  0  0  0  0
   -0.2788   -2.5625    0.5280 C   0  0  0  0  0  0  0  0  0  0  0  0
   -1.4197   -2.7791    0.1251 O   0  0  0  0  0  0  0  0  0  0  0  0
    1.6395   -4.0779   -0.0301 C   0  0  0  0  0  0  0  0  0  0  0  0
   -0.8741   -5.1235    0.8083 H   0  0  0  0  0  0  0  0  0  0  0  0
    1.1738   -3.3062    1.9318 H   0  0  0  0  0  0  0  0  0  0  0  0
    1.1270   -4.4358   -0.9305 H   0  0  0  0  0  0  0  0  0  0  0  0
    2.2797   -3.2400   -0.3251 H   0  0  0  0  0  0  0  0  0  0  0  0
    2.2827   -4.8880    0.3303 H   0  0  0  0  0  0  0  0  0  0  0  0
    0.3351   -1.3153    0.5316 N   0  0  0  0  0  0  0  0  0  0  0  0
   -0.3268   -0.1184    0.0807 C   0  0  2  0  0  0  0  0  0  0  0  0
    0.7202    0.9703   -0.1337 C   0  0  0  0  0  0  0  0  0  0  0  0
    1.1188    1.3049   -1.2474 O   0  0  0  0  0  0  0  0  0  0  0  0
   -1.4499    0.3154    1.0327 C   0  0  0  0  0  0  0  0  0  0  0  0
   -2.6214   -0.6680    1.0890 C   0  0  0  0  0  0  0  0  0  0  0  0
   -3.3912   -0.8366   -0.5489 S   0  0  0  0  0  0  0  0  0  0  0  0
   -4.1176    0.8139   -0.6663 C   0  0  0  0  0  0  0  0  0  0  0  0
    1.2790   -1.2290    0.9021 H   0  0  0  0  0  0  0  0  0  0  0  0
   -0.7621   -0.3668   -0.8949 H   0  0  0  0  0  0  0  0  0  0  0  0
   -1.8161    1.2992    0.7097 H   0  0  0  0  0  0  0  0  0  0  0  0
   -1.0347    0.4447    2.0404 H   0  0  0  0  0  0  0  0  0  0  0  0
   -3.3900   -0.3228    1.7869 H   0  0  0  0  0  0  0  0  0  0  0  0
   -2.2885   -1.6593    1.4105 H   0  0  0  0  0  0  0  0  0  0  0  0
   -4.6467    0.9205   -1.6164 H   0  0  0  0  0  0  0  0  0  0  0  0
   -3.3309    1.5704   -0.6096 H   0  0  0  0  0  0  0  0  0  0  0  0
   -4.8221    0.9686    0.1545 H   0  0  0  0  0  0  0  0  0  0  0  0
    1.1798    1.4998    1.0636 N   0  0  0  0  0  0  0  0  0  0  0  0
    2.1841    2.5359    1.1212 C   0  0  2  0  0  0  0  0  0  0  0  0
    3.1083    2.2304    2.2926 C   0  0  0  0  0  0  0  0  0  0  0  0
    2.7752    1.5269    3.2440 O   0  0  0  0  0  0  0  0  0  0  0  0
    1.5525    3.9111    1.2716 C   0  0  0  0  0  0  0  0  0  0  0  0
    0.7740    1.1831    1.9391 H   0  0  0  0  0  0  0  0  0  0  0  0
    2.7499    2.4804    0.1848 H   0  0  0  0  0  0  0  0  0  0  0  0
    0.9814    3.9857    2.2042 H   0  0  0  0  0  0  0  0  0  0  0  0
    2.3138    4.6979    1.2864 H   0  0  0  0  0  0  0  0  0  0  0  0
    0.8654    4.1170    0.4437 H   0  0  0  0  0  0  0  0  0  0  0  0
    4.3336    2.8708    2.1715 N   0  0  0  0  0  0  0  0  0  0  0  0
    5.3781    2.7493    3.1616 C   0  0  0  0  0  0  0  0  0  0  0  0
    4.5306    3.4194    1.3396 H   0  0  0  0  0  0  0  0  0  0  0  0
    5.2903    3.5686    3.8903 H   0  0  0  0  0  0  0  0  0  0  0  0
    5.2802    1.7846    3.6811 H   0  0  0  0  0  0  0  0  0  0  0  0
    6.3594    2.8018    2.6675 H   0  0  0  0  0  0  0  0  0  0  0  0
  1  3  1  0  0  0  0
  1  7  1  0  0  0  0
  1  2  2  0  0  0  0
 35 36  1  0  0  0  0
 36 44  1  0  0  0  0
 36 37  2  0  0  0  0
  8  9  1  0  0  0  0
  9 17  1  0  0  0  0
  9 10  2  0  0  0  0
 18 19  1  0  0  0  0
 19 34  1  0  0  0  0
 19 20  2  0  0  0  0
 35 38  1  0  0  0  0
  8 11  1  0  0  0  0
 44 45  1  0  0  0  0
 23 24  1  0  0  0  0
 21 22  1  0  0  0  0
 18 21  1  0  0  0  0
 22 23  1  0  0  0  0
 34 35  1  0  0  0  0
  7  8  1  0  0  0  0
 17 18  1  0  0  0  0
  3  4  1  0  0  0  0
  3  5  1  0  0  0  0
  3  6  1  0  0  0  0
 38 41  1  0  0  0  0
 38 42  1  0  0  0  0
 38 43  1  0  0  0  0
 11 14  1  0  0  0  0
 11 15  1  0  0  0  0
 11 16  1  0  0  0  0
 45 47  1  0  0  0  0
 45 48  1  0  0  0  0
 45 49  1  0  0  0  0
 24 31  1  0  0  0  0
 24 32  1  0  0  0  0
 24 33  1  0  0  0  0
 21 27  1  0  0  0  0
 21 28  1  0  0  0  0
 22 29  1  0  0  0  0
 22 30  1  0  0  0  0
 35 40  1  0  0  0  0
  8 13  1  0  0  0  0
 18 26  1  0  0  0  0
 44 46  1  0  0  0  0
  7 12  1  0  0  0  0
 34 39  1  0  0  0  0
 17 25  1  0  0  0  0
M  END
$$$$

  -OEChem-05262214473D

 49 48  0     1  0  0  0  0  0999 V2000
   -0.0561   -5.3799    2.6949 C   0  0  0  0  0  0  0  0  0  0  0  0
    0.7325   -5.0736    3.5815 O   0  0  0  0  0  0  0  0  0  0  0  0
   -1.0067   -6.5099    2.9135 C   0  0  0  0  0  0  0  0  0  0  0  0
   -0.5910   -7.4777    2.5899 H   0  0  0  0  0  0  0  0  0  0  0  0
   -1.2629   -6.6440    3.9767 H   0  0  0  0  0  0  0  0  0  0  0  0
   -1.9729   -6.4206    2.3918 H   0  0  0  0  0  0  0  0  0  0  0  0
   -0.1735   -4.7694    1.4571 N   0  0  0  0  0  0  0  0  0  0  0  0
    0.6439   -3.6603    1.0409 C   0  0  2  0  0  0  0  0  0  0  0  0
   -0.2788   -2.5625    0.5280 C   0  0  0  0  0  0  0  0  0  0  0  0
   -1.4197   -2.7791    0.1251 O   0  0  0  0  0  0  0  0  0  0  0  0
    1.6395   -4.0779   -0.0301 C   0  0  0  0  0  0  0  0  0  0  0  0
   -0.8741   -5.1235    0.8083 H   0  0  0  0  0  0  0  0  0  0  0  0
    1.1738   -3.3062    1.9318 H   0  0  0  0  0  0  0  0  0  0  0  0
    1.1270   -4.4358   -0.9305 H   0  0  0  0  0  0  0  0  0  0  0  0
    2.2797   -3.2400   -0.3251 H   0  0  0  0  0  0  0  0  0  0  0  0
    2.2827   -4.8880    0.3303 H   0  0  0  0  0  0  0  0  0  0  0  0
    0.3351   -1.3153    0.5316 N   0  0  0  0  0  0  0  0  0  0  0  0
   -0.3268   -0.1184    0.0807 C   0  0  2  0  0  0  0  0  0  0  0  0
    0.7202    0.9703   -0.1337 C   0  0  0  0  0  0  0  0  0  0  0  0
    0.9274    1.4931   -1.2268 O   0  0  0  0  0  0  0  0  0  0  0  0
   -1.4499    0.3154    1.0327 C   0  0  0  0  0  0  0  0  0  0  0  0
   -2.6214   -0.6680    1.0890 C   0  0  0  0  0  0  0  0  0  0  0  0
   -3.3912   -0.8366   -0.5489 S   0  0  0  0  0  0  0  0  0  0  0  0
   -4.1176    0.8139   -0.6663 C   0  0  0  0  0  0  0  0  0  0  0  0
    1.2790   -1.2290    0.9021 H   0  0  0  0  0  0  0  0  0  0  0  0
   -0.7621   -0.3668   -0.8949 H   0  0  0  0  0  0  0  0  0  0  0  0
   -1.8161    1.2992    0.7097 H   0  0  0  0  0  0  0  0  0  0  0  0
   -1.0347    0.4447    2.0404 H   0  0  0  0  0  0  0  0  0  0  0  0
   -3.3900   -0.3228    1.7869 H   0  0  0  0  0  0  0  0  0  0  0  0
   -2.2885   -1.6593    1.4105 H   0  0  0  0  0  0  0  0  0  0  0  0
   -4.6467    0.9205   -1.6164 H   0  0  0  0  0  0  0  0  0  0  0  0
   -3.3309    1.5704   -0.6096 H   0  0  0  0  0  0  0  0  0  0  0  0
   -4.8221    0.9686    0.1545 H   0  0  0  0  0  0  0  0  0  0  0  0
    1.4168    1.2651    1.0294 N   0  0  0  0  0  0  0  0  0  0  0  0
    2.4685    2.2537    1.0769 C   0  0  2  0  0  0  0  0  0  0  0  0
    3.5723    1.7230    1.9822 C   0  0  0  0  0  0  0  0  0  0  0  0
    3.3804    0.8655    2.8419 O   0  0  0  0  0  0  0  0  0  0  0  0
    1.9485    3.5911    1.5805 C   0  0  0  0  0  0  0  0  0  0  0  0
    1.1604    0.8032    1.8969 H   0  0  0  0  0  0  0  0  0  0  0  0
    2.8512    2.3575    0.0558 H   0  0  0  0  0  0  0  0  0  0  0  0
    1.5608    3.5068    2.6023 H   0  0  0  0  0  0  0  0  0  0  0  0
    2.7406    4.3471    1.5889 H   0  0  0  0  0  0  0  0  0  0  0  0
    1.1345    3.9569    0.9454 H   0  0  0  0  0  0  0  0  0  0  0  0
    4.7875    2.3505    1.7464 N   0  0  0  0  0  0  0  0  0  0  0  0
    5.9863    2.0312    2.4859 C   0  0  0  0  0  0  0  0  0  0  0  0
    4.8592    3.0367    1.0009 H   0  0  0  0  0  0  0  0  0  0  0  0
    6.0758    2.7065    3.3496 H   0  0  0  0  0  0  0  0  0  0  0  0
    5.9333    0.9905    2.8384 H   0  0  0  0  0  0  0  0  0  0  0  0
    6.8631    2.1529    1.8330 H   0  0  0  0  0  0  0  0  0  0  0  0
  1  3  1  0  0  0  0
  1  7  1  0  0  0  0
  1  2  2  0  0  0  0
 35 36  1  0  0  0  0
 36 44  1  0  0  0  0
 36 37  2  0  0  0  0
  8  9  1  0  0  0  0
  9 17  1  0  0  0  0
  9 10  2  0  0  0  0
 18 19  1  0  0  0  0
 19 34  1  0  0  0  0
 19 20  2  0  0  0  0
 35 38  1  0  0  0  0
  8 11  1  0  0  0  0
 44 45  1  0  0  0  0
 23 24  1  0  0  0  0
 21 22  1  0  0  0  0
 18 21  1  0  0  0  0
 22 23  1  0  0  0  0
 34 35  1  0  0  0  0
  7  8  1  0  0  0  0
 17 18  1  0  0  0  0
  3  4  1  0  0  0  0
  3  5  1  0  0  0  0
  3  6  1  0  0  0  0
 38 41  1  0  0  0  0
 38 42  1  0  0  0  0
 38 43  1  0  0  0  0
 11 14  1  0  0  0  0
 11 15  1  0  0  0  0
 11 16  1  0  0  0  0
 45 47  1  0  0  0  0
 45 48  1  0  0  0  0
 45 49  1  0  0  0  0
 24 31  1  0  0  0  0
 24 32  1  0  0  0  0
 24 33  1  0  0  0  0
 21 27  1  0  0  0  0
 21 28  1  0  0  0  0
 22 29  1  0  0  0  0
 22 30  1  0  0  0  0
 35 40  1  0  0  0  0
  8 13  1  0  0  0  0
 18 26  1  0  0  0  0
 44 46  1  0  0  0  0
  7 12  1  0  0  0  0
 34 39  1  0  0  0  0
 17 25  1  0  0  0  0
M  END
$$$$

  -OEChem-05262214473D

 49 48  0     1  0  0  0  0  0999 V2000
   -0.0561   -5.3799    2.6949 C   0  0  0  0  0  0  0  0  0  0  0  0
    0.7325   -5.0736    3.5815 O   0  0  0  0  0  0  0  0  0  0  0  0
   -1.0067   -6.5099    2.9135 C   0  0  0  0  0  0  0  0  0  0  0  0
   -0.5910   -7.4777    2.5899 H   0  0  0  0  0  0  0  0  0  0  0  0
   -1.2629   -6.6440    3.9767 H   0  0  0  0  0  0  0  0  0  0  0  0
   -1.9729   -6.4206    2.3918 H   0  0  0  0  0  0  0  0  0  0  0  0
   -0.1735   -4.7694    1.4571 N   0  0  0  0  0  0  0  0  0  0  0  0
    0.6439   -3.6603    1.0409 C   0  0  2  0  0  0  0  0  0  0  0  0
   -0.2788   -2.5625    0.5280 C   0  0  0  0  0  0  0  0  0  0  0  0
   -1.4197   -2.7791    0.1251 O   0  0  0  0  0  0  0  0  0  0  0  0
    1.6395   -4.0779   -0.0301 C   0  0  0  0  0  0  0  0  0  0  0  0
   -0.8741   -5.1235    0.8083 H   0  0  0  0  0  0  0  0  0  0  0  0
    1.1738   -3.3062    1.9318 H   0  0  0  0  0  0  0  0  0  0  0  0
    1.1270   -4.4358   -0.9305 H   0  0  0  0  0  0  0  0  0  0  0  0
    2.2797   -3.2400   -0.3251 H   0  0  0  0  0  0  0  0  0  0  0  0
    2.2827   -4.8880    0.3303 H   0  0  0  0  0  0  0  0  0  0  0  0
    0.3351   -1.3153    0.5316 N   0  0  0  0  0  0  0  0  0  0  0  0
   -0.3268   -0.1184    0.0807 C   0  0  2  0  0  0  0  0  0  0  0  0
    0.7202    0.9703   -0.1337 C   0  0  0  0  0  0  0  0  0  0  0  0
    0.7531    1.6782   -1.1382 O   0  0  0  0  0  0  0  0  0  0  0  0
   -1.4499    0.3154    1.0327 C   0  0  0  0  0  0  0  0  0  0  0  0
   -2.6214   -0.6680    1.0890 C   0  0  0  0  0  0  0  0  0  0  0  0
   -3.3912   -0.8366   -0.5489 S   0  0  0  0  0  0  0  0  0  0  0  0
   -4.1176    0.8139   -0.6663 C   0  0  0  0  0  0  0  0  0  0  0  0
    1.2790   -1.2290    0.9021 H   0  0  0  0  0  0  0  0  0  0  0  0
   -0.7621   -0.3668   -0.8949 H   0  0  0  0  0  0  0  0  0  0  0  0
   -1.8161    1.2992    0.7097 H   0  0  0  0  0  0  0  0  0  0  0  0
   -1.0347    0.4447    2.0404 H   0  0  0  0  0  0  0  0  0  0  0  0
   -3.3900   -0.3228    1.7869 H   0  0  0  0  0  0  0  0  0  0  0  0
   -2.2885   -1.6593    1.4105 H   0  0  0  0  0  0  0  0  0  0  0  0
   -4.6467    0.9205   -1.6164 H   0  0  0  0  0  0  0  0  0  0  0  0
   -3.3309    1.5704   -0.6096 H   0  0  0  0  0  0  0  0  0  0  0  0
   -4.8221    0.9686    0.1545 H   0  0  0  0  0  0  0  0  0  0  0  0
    1.6309    1.0359    0.9110 N   0  0  0  0  0  0  0  0  0  0  0  0
    2.7247    1.9786    0.9314 C   0  0  2  0  0  0  0  0  0  0  0  0
    3.9446    1.2711    1.5065 C   0  0  0  0  0  0  0  0  0  0  0  0
    3.8667    0.2762    2.2242 O   0  0  0  0  0  0  0  0  0  0  0  0
    2.3764    3.2127    1.7490 C   0  0  0  0  0  0  0  0  0  0  0  0
    1.5119    0.4297    1.7172 H   0  0  0  0  0  0  0  0  0  0  0  0
    2.9208    2.2581   -0.1095 H   0  0  0  0  0  0  0  0  0  0  0  0
    2.1766    2.9525    2.7949 H   0  0  0  0  0  0  0  0  0  0  0  0
    3.1958    3.9389    1.7399 H   0  0  0  0  0  0  0  0  0  0  0  0
    1.4813    3.7035    1.3518 H   0  0  0  0  0  0  0  0  0  0  0  0
    5.1285    1.9069    1.1595 N   0  0  0  0  0  0  0  0  0  0  0  0
    6.4229    1.4354    1.5934 C   0  0  0  0  0  0  0  0  0  0  0  0
    5.1001    2.7152    0.5450 H   0  0  0  0  0  0  0  0  0  0  0  0
    6.7033    1.9414    2.5290 H   0  0  0  0  0  0  0  0  0  0  0  0
    6.3795    0.3494    1.7627 H   0  0  0  0  0  0  0  0  0  0  0  0
    7.1719    1.6561    0.8186 H   0  0  0  0  0  0  0  0  0  0  0  0
  1  3  1  0  0  0  0
  1  7  1  0  0  0  0
  1  2  2  0  0  0  0
 35 36  1  0  0  0  0
 36 44  1  0  0  0  0
 36 37  2  0  0  0  0
  8  9  1  0  0  0  0
  9 17  1  0  0  0  0
  9 10  2  0  0  0  0
 18 19  1  0  0  0  0
 19 34  1  0  0  0  0
 19 20  2  0  0  0  0
 35 38  1  0  0  0  0
  8 11  1  0  0  0  0
 44 45  1  0  0  0  0
 23 24  1  0  0  0  0
 21 22  1  0  0  0  0
 18 21  1  0  0  0  0
 22 23  1  0  0  0  0
 34 35  1  0  0  0  0
  7  8  1  0  0  0  0
 17 18  1  0  0  0  0
  3  4  1  0  0  0  0
  3  5  1  0  0  0  0
  3  6  1  0  0  0  0
 38 41  1  0  0  0  0
 38 42  1  0  0  0  0
 38 43  1  0  0  0  0
 11 14  1  0  0  0  0
 11 15  1  0  0  0  0
 11 16  1  0  0  0  0
 45 47  1  0  0  0  0
 45 48  1  0  0  0  0
 45 49  1  0  0  0  0
 24 31  1  0  0  0  0
 24 32  1  0  0  0  0
 24 33  1  0  0  0  0
 21 27  1  0  0  0  0
 21 28  1  0  0  0  0
 22 29  1  0  0  0  0
 22 30  1  0  0  0  0
 35 40  1  0  0  0  0
  8 13  1  0  0  0  0
 18 26  1  0  0  0  0
 44 46  1  0  0  0  0
  7 12  1  0  0  0  0
 34 39  1  0  0  0  0
 17 25  1  0  0  0  0
M  END
$$$$

  -OEChem-05262214473D

 49 48  0     1  0  0  0  0  0999 V2000
   -0.0561   -5.3799    2.6949 C   0  0  0  0  0  0  0  0  0  0  0  0
    0.7325   -5.0736    3.5815 O   0  0  0  0  0  0  0  0  0  0  0  0
   -1.0067   -6.5099    2.9135 C   0  0  0  0  0  0  0  0  0  0  0  0
   -0.5910   -7.4777    2.5899 H   0  0  0  0  0  0  0  0  0  0  0  0
   -1.2629   -6.6440    3.9767 H   0  0  0  0  0  0  0  0  0  0  0  0
   -1.9729   -6.4206    2.3918 H   0  0  0  0  0  0  0  0  0  0  0  0
   -0.1735   -4.7694    1.4571 N   0  0  0  0  0  0  0  0  0  0  0  0
    0.6439   -3.6603    1.0409 C   0  0  2  0  0  0  0  0  0  0  0  0
   -0.2788   -2.5625    0.5280 C   0  0  0  0  0  0  0  0  0  0  0  0
   -1.4197   -2.7791    0.1251 O   0  0  0  0  0  0  0  0  0  0  0  0
    1.6395   -4.0779   -0.0301 C   0  0  0  0  0  0  0  0  0  0  0  0
   -0.8741   -5.1235    0.8083 H   0  0  0  0  0  0  0  0  0  0  0  0
    1.1738   -3.3062    1.9318 H   0  0  0  0  0  0  0  0  0  0  0  0
    1.1270   -4.4358   -0.9305 H   0  0  0  0  0  0  0  0  0  0  0  0
    2.2797   -3.2400   -0.3251 H   0  0  0  0  0  0  0  0  0  0  0  0
    2.2827   -4.8880    0.3303 H   0  0  0  0  0  0  0  0  0  0  0  0
    0.3351   -1.3153    0.5316 N   0  0  0  0  0  0  0  0  0  0  0  0
   -0.3268   -0.1184    0.0807 C   0  0  2  0  0  0  0  0  0  0  0  0
    0.7202    0.9703   -0.1337 C   0  0  0  0  0  0  0  0  0  0  0  0
    0.6079    1.8476   -0.9875 O   0  0  0  0  0  0  0  0  0  0  0  0
   -1.4499    0.3154    1.0327 C   0  0  0  0  0  0  0  0  0  0  0  0
   -2.6214   -0.6680    1.0890 C   0  0  0  0  0  0  0  0  0  0  0  0
   -3.3912   -0.8366   -0.5489 S   0  0  0  0  0  0  0  0  0  0  0  0
   -4.1176    0.8139   -0.6663 C   0  0  0  0  0  0  0  0  0  0  0  0
    1.2790   -1.2290    0.9021 H   0  0  0  0  0  0  0  0  0  0  0  0
   -0.7621   -0.3668   -0.8949 H   0  0  0  0  0  0  0  0  0  0  0  0
   -1.8161    1.2992    0.7097 H   0  0  0  0  0  0  0  0  0  0  0  0
   -1.0347    0.4447    2.0404 H   0  0  0  0  0  0  0  0  0  0  0  0
   -3.3900   -0.3228    1.7869 H   0  0  0  0  0  0  0  0  0  0  0  0
   -2.2885   -1.6593    1.4105 H   0  0  0  0  0  0  0  0  0  0  0  0
   -4.6467    0.9205   -1.6164 H   0  0  0  0  0  0  0  0  0  0  0  0
   -3.3309    1.5704   -0.6096 H   0  0  0  0  0  0  0  0  0  0  0  0
   -4.8221    0.9686    0.1545 H   0  0  0  0  0  0  0  0  0  0  0  0
    1.8075    0.8277    0.7164 N   0  0  0  0  0  0  0  0  0  0  0  0
    2.9353    1.7294    0.6947 C   0  0  2  0  0  0  0  0  0  0  0  0
    4.2000    0.9056    0.8981 C   0  0  0  0  0  0  0  0  0  0  0  0
    4.2009   -0.2011    1.4331 O   0  0  0  0  0  0  0  0  0  0  0  0
    2.8071    2.8017    1.7655 C   0  0  0  0  0  0  0  0  0  0  0  0
    1.8047    0.0880    1.4124 H   0  0  0  0  0  0  0  0  0  0  0  0
    2.9539    2.1888   -0.2996 H   0  0  0  0  0  0  0  0  0  0  0  0
    2.7868    2.3604    2.7686 H   0  0  0  0  0  0  0  0  0  0  0  0
    3.6486    3.5013    1.7292 H   0  0  0  0  0  0  0  0  0  0  0  0
    1.8821    3.3738    1.6353 H   0  0  0  0  0  0  0  0  0  0  0  0
    5.3333    1.5703    0.4509 N   0  0  0  0  0  0  0  0  0  0  0  0
    6.6581    1.0026    0.5448 C   0  0  0  0  0  0  0  0  0  0  0  0
    5.2368    2.4768    0.0030 H   0  0  0  0  0  0  0  0  0  0  0  0
    7.1300    1.3252    1.4846 H   0  0  0  0  0  0  0  0  0  0  0  0
    6.5886   -0.0950    0.5274 H   0  0  0  0  0  0  0  0  0  0  0  0
    7.2648    1.3451   -0.3065 H   0  0  0  0  0  0  0  0  0  0  0  0
  1  3  1  0  0  0  0
  1  7  1  0  0  0  0
  1  2  2  0  0  0  0
 35 36  1  0  0  0  0
 36 44  1  0  0  0  0
 36 37  2  0  0  0  0
  8  9  1  0  0  0  0
  9 17  1  0  0  0  0
  9 10  2  0  0  0  0
 18 19  1  0  0  0  0
 19 34  1  0  0  0  0
 19 20  2  0  0  0  0
 35 38  1  0  0  0  0
  8 11  1  0  0  0  0
 44 45  1  0  0  0  0
 23 24  1  0  0  0  0
 21 22  1  0  0  0  0
 18 21  1  0  0  0  0
 22 23  1  0  0  0  0
 34 35  1  0  0  0  0
  7  8  1  0  0  0  0
 17 18  1  0  0  0  0
  3  4  1  0  0  0  0
  3  5  1  0  0  0  0
  3  6  1  0  0  0  0
 38 41  1  0  0  0  0
 38 42  1  0  0  0  0
 38 43  1  0  0  0  0
 11 14  1  0  0  0  0
 11 15  1  0  0  0  0
 11 16  1  0  0  0  0
 45 47  1  0  0  0  0
 45 48  1  0  0  0  0
 45 49  1  0  0  0  0
 24 31  1  0  0  0  0
 24 32  1  0  0  0  0
 24 33  1  0  0  0  0
 21 27  1  0  0  0  0
 21 28  1  0  0  0  0
 22 29  1  0  0  0  0
 22 30  1  0  0  0  0
 35 40  1  0  0  0  0
  8 13  1  0  0  0  0
 18 26  1  0  0  0  0
 44 46  1  0  0  0  0
  7 12  1  0  0  0  0
 34 39  1  0  0  0  0
 17 25  1  0  0  0  0
M  END
$$$$

  -OEChem-05262214473D

 49 48  0     1  0  0  0  0  0999 V2000
   -0.0561   -5.3799    2.6949 C   0  0  0  0  0  0  0  0  0  0  0  0
    0.7325   -5.0736    3.5815 O   0  0  0  0  0  0  0  0  0  0  0  0
   -1.0067   -6.5099    2.9135 C   0  0  0  0  0  0  0  0  0  0  0  0
   -0.5910   -7.4777    2.5899 H   0  0  0  0  0  0  0  0  0  0  0  0
   -1.2629   -6.6440    3.9767 H   0  0  0  0  0  0  0  0  0  0  0  0
   -1.9729   -6.4206    2.3918 H   0  0  0  0  0  0  0  0  0  0  0  0
   -0.1735   -4.7694    1.4571 N   0  0  0  0  0  0  0  0  0  0  0  0
    0.6439   -3.6603    1.0409 C   0  0  2  0  0  0  0  0  0  0  0  0
   -0.2788   -2.5625    0.5280 C   0  0  0  0  0  0  0  0  0  0  0  0
   -1.4197   -2.7791    0.1251 O   0  0  0  0  0  0  0  0  0  0  0  0
    1.6395   -4.0779   -0.0301 C   0  0  0  0  0  0  0  0  0  0  0  0
   -0.8741   -5.1235    0.8083 H   0  0  0  0  0  0  0  0  0  0  0  0
    1.1738   -3.3062    1.9318 H   0  0  0  0  0  0  0  0  0  0  0  0
    1.1270   -4.4358   -0.9305 H   0  0  0  0  0  0  0  0  0  0  0  0
    2.2797   -3.2400   -0.3251 H   0  0  0  0  0  0  0  0  0  0  0  0
    2.2827   -4.8880    0.3303 H   0  0  0  0  0  0  0  0  0  0  0  0
    0.3351   -1.3153    0.5316 N   0  0  0  0  0  0  0  0  0  0  0  0
   -0.3268   -0.1184    0.0807 C   0  0  2  0  0  0  0  0  0  0  0  0
    0.7202    0.9703   -0.1337 C   0  0  0  0  0  0  0  0  0  0  0  0
    0.5016    1.9897   -0.7850 O   0  0  0  0  0  0  0  0  0  0  0  0
   -1.4499    0.3154    1.0327 C   0  0  0  0  0  0  0  0  0  0  0  0
   -2.6214   -0.6680    1.0890 C   0  0  0  0  0  0  0  0  0  0  0  0
   -3.3912   -0.8366   -0.5489 S   0  0  0  0  0  0  0  0  0  0  0  0
   -4.1176    0.8139   -0.6663 C   0  0  0  0  0  0  0  0  0  0  0  0
    1.2790   -1.2290    0.9021 H   0  0  0  0  0  0  0  0  0  0  0  0
   -0.7621   -0.3668   -0.8949 H   0  0  0  0  0  0  0  0  0  0  0  0
   -1.8161    1.2992    0.7097 H   0  0  0  0  0  0  0  0  0  0  0  0
   -1.0347    0.4447    2.0404 H   0  0  0  0  0  0  0  0  0  0  0  0
   -3.3900   -0.3228    1.7869 H   0  0  0  0  0  0  0  0  0  0  0  0
   -2.2885   -1.6593    1.4105 H   0  0  0  0  0  0  0  0  0  0  0  0
   -4.6467    0.9205   -1.6164 H   0  0  0  0  0  0  0  0  0  0  0  0
   -3.3309    1.5704   -0.6096 H   0  0  0  0  0  0  0  0  0  0  0  0
   -4.8221    0.9686    0.1545 H   0  0  0  0  0  0  0  0  0  0  0  0
    1.9346    0.6548    0.4588 N   0  0  0  0  0  0  0  0  0  0  0  0
    3.0860    1.5231    0.3830 C   0  0  2  0  0  0  0  0  0  0  0  0
    4.3211    0.6514    0.1982 C   0  0  0  0  0  0  0  0  0  0  0  0
    4.3602   -0.5338    0.5224 O   0  0  0  0  0  0  0  0  0  0  0  0
    3.2112    2.3861    1.6288 C   0  0  0  0  0  0  0  0  0  0  0  0
    2.0188   -0.1986    1.0032 H   0  0  0  0  0  0  0  0  0  0  0  0
    2.9482    2.1545   -0.5016 H   0  0  0  0  0  0  0  0  0  0  0  0
    3.3498    1.7710    2.5254 H   0  0  0  0  0  0  0  0  0  0  0  0
    4.0681    3.0640    1.5574 H   0  0  0  0  0  0  0  0  0  0  0  0
    2.3096    2.9904    1.7765 H   0  0  0  0  0  0  0  0  0  0  0  0
    5.3881    1.3636   -0.3313 N   0  0  0  0  0  0  0  0  0  0  0  0
    6.6759    0.7623   -0.5884 C   0  0  0  0  0  0  0  0  0  0  0  0
    5.2602    2.3379   -0.5881 H   0  0  0  0  0  0  0  0  0  0  0  0
    7.3269    0.9000    0.2875 H   0  0  0  0  0  0  0  0  0  0  0  0
    6.5462   -0.3125   -0.7834 H   0  0  0  0  0  0  0  0  0  0  0  0
    7.1354    1.2412   -1.4656 H   0  0  0  0  0  0  0  0  0  0  0  0
  1  3  1  0  0  0  0
  1  7  1  0  0  0  0
  1  2  2  0  0  0  0
 35 36  1  0  0  0  0
 36 44  1  0  0  0  0
 36 37  2  0  0  0  0
  8  9  1  0  0  0  0
  9 17  1  0  0  0  0
  9 10  2  0  0  0  0
 18 19  1  0  0  0  0
 19 34  1  0  0  0  0
 19 20  2  0  0  0  0
 35 38  1  0  0  0  0
  8 11  1  0  0  0  0
 44 45  1  0  0  0  0
 23 24  1  0  0  0  0
 21 22  1  0  0  0  0
 18 21  1  0  0  0  0
 22 23  1  0  0  0  0
 34 35  1  0  0  0  0
  7  8  1  0  0  0  0
 17 18  1  0  0  0  0
  3  4  1  0  0  0  0
  3  5  1  0  0  0  0
  3  6  1  0  0  0  0
 38 41  1  0  0  0  0
 38 42  1  0  0  0  0
 38 43  1  0  0  0  0
 11 14  1  0  0  0  0
 11 15  1  0  0  0  0
 11 16  1  0  0  0  0
 45 47  1  0  0  0  0
 45 48  1  0  0  0  0
 45 49  1  0  0  0  0
 24 31  1  0  0  0  0
 24 32  1  0  0  0  0
 24 33  1  0  0  0  0
 21 27  1  0  0  0  0
 21 28  1  0  0  0  0
 22 29  1  0  0  0  0
 22 30  1  0  0  0  0
 35 40  1  0  0  0  0
  8 13  1  0  0  0  0
 18 26  1  0  0  0  0
 44 46  1  0  0  0  0
  7 12  1  0  0  0  0
 34 39  1  0  0  0  0
 17 25  1  0  0  0  0
M  END
$$$$

  -OEChem-05262214473D

 49 48  0     1  0  0  0  0  0999 V2000
   -0.0561   -5.3799    2.6949 C   0  0  0  0  0  0  0  0  0  0  0  0
    0.7325   -5.0736    3.5815 O   0  0  0  0  0  0  0  0  0  0  0  0
   -1.0067   -6.5099    2.9135 C   0  0  0  0  0  0  0  0  0  0  0  0
   -0.5910   -7.4777    2.5899 H   0  0  0  0  0  0  0  0  0  0  0  0
   -1.2629   -6.6440    3.9767 H   0  0  0  0  0  0  0  0  0  0  0  0
   -1.9729   -6.4206    2.3918 H   0  0  0  0  0  0  0  0  0  0  0  0
   -0.1735   -4.7694    1.4571 N   0  0  0  0  0  0  0  0  0  0  0  0
    0.6439   -3.6603    1.0409 C   0  0  2  0  0  0  0  0  0  0  0  0
   -0.2788   -2.5625    0.5280 C   0  0  0  0  0  0  0  0  0  0  0  0
   -1.4197   -2.7791    0.1251 O   0  0  0  0  0  0  0  0  0  0  0  0
    1.6395   -4.0779   -0.0301 C   0  0  0  0  0  0  0  0  0  0  0  0
   -0.8741   -5.1235    0.8083 H   0  0  0  0  0  0  0  0  0  0  0  0
    1.1738   -3.3062    1.9318 H   0  0  0  0  0  0  0  0  0  0  0  0
    1.1270   -4.4358   -0.9305 H   0  0  0  0  0  0  0  0  0  0  0  0
    2.2797   -3.2400   -0.3251 H   0  0  0  0  0  0  0  0  0  0  0  0
    2.2827   -4.8880    0.3303 H   0  0  0  0  0  0  0  0  0  0  0  0
    0.3351   -1.3153    0.5316 N   0  0  0  0  0  0  0  0  0  0  0  0
   -0.3268   -0.1184    0.0807 C   0  0  2  0  0  0  0  0  0  0  0  0
    0.7202    0.9703   -0.1337 C   0  0  0  0  0  0  0  0  0  0  0  0
    0.4415    2.0949   -0.5445 O   0  0  0  0  0  0  0  0  0  0  0  0
   -1.4499    0.3154    1.0327 C   0  0  0  0  0  0  0  0  0  0  0  0
   -2.6214   -0.6680    1.0890 C   0  0  0  0  0  0  0  0  0  0  0  0
   -3.3912   -0.8366   -0.5489 S   0  0  0  0  0  0  0  0  0  0  0  0
   -4.1176    0.8139   -0.6663 C   0  0  0  0  0  0  0  0  0  0  0  0
    1.2790   -1.2290    0.9021 H   0  0  0  0  0  0  0  0  0  0  0  0
   -0.7621   -0.3668   -0.8949 H   0  0  0  0  0  0  0  0  0  0  0  0
   -1.8161    1.2992    0.7097 H   0  0  0  0  0  0  0  0  0  0  0  0
   -1.0347    0.4447    2.0404 H   0  0  0  0  0  0  0  0  0  0  0  0
   -3.3900   -0.3228    1.7869 H   0  0  0  0  0  0  0  0  0  0  0  0
   -2.2885   -1.6593    1.4105 H   0  0  0  0  0  0  0  0  0  0  0  0
   -4.6467    0.9205   -1.6164 H   0  0  0  0  0  0  0  0  0  0  0  0
   -3.3309    1.5704   -0.6096 H   0  0  0  0  0  0  0  0  0  0  0  0
   -4.8221    0.9686    0.1545 H   0  0  0  0  0  0  0  0  0  0  0  0
    2.0034    0.5289    0.1558 N   0  0  0  0  0  0  0  0  0  0  0  0
    3.1664    1.3737    0.0173 C   0  0  2  0  0  0  0  0  0  0  0  0
    4.2994    0.5257   -0.5453 C   0  0  0  0  0  0  0  0  0  0  0  0
    4.3338   -0.6991   -0.4458 O   0  0  0  0  0  0  0  0  0  0  0  0
    3.5611    1.9943    1.3484 C   0  0  0  0  0  0  0  0  0  0  0  0
    2.1396   -0.4104    0.5175 H   0  0  0  0  0  0  0  0  0  0  0  0
    2.9042    2.1574   -0.7018 H   0  0  0  0  0  0  0  0  0  0  0  0
    3.8273    1.2243    2.0818 H   0  0  0  0  0  0  0  0  0  0  0  0
    4.4257    2.6569    1.2364 H   0  0  0  0  0  0  0  0  0  0  0  0
    2.7347    2.5795    1.7659 H   0  0  0  0  0  0  0  0  0  0  0  0
    5.2890    1.3008   -1.1336 N   0  0  0  0  0  0  0  0  0  0  0  0
    6.4750    0.7308   -1.7290 C   0  0  0  0  0  0  0  0  0  0  0  0
    5.1685    2.3079   -1.1880 H   0  0  0  0  0  0  0  0  0  0  0  0
    7.2805    0.6948   -0.9807 H   0  0  0  0  0  0  0  0  0  0  0  0
    6.2553   -0.2882   -2.0803 H   0  0  0  0  0  0  0  0  0  0  0  0
    6.7926    1.3515   -2.5798 H   0  0  0  0  0  0  0  0  0  0  0  0
  1  3  1  0  0  0  0
  1  7  1  0  0  0  0
  1  2  2  0  0  0  0
 35 36  1  0  0  0  0
 36 44  1  0  0  0  0
 36 37  2  0  0  0  0
  8  9  1  0  0  0  0
  9 17  1  0  0  0  0
  9 10  2  0  0  0  0
 18 19  1  0  0  0  0
 19 34  1  0  0  0  0
 19 20  2  0  0  0  0
 35 38  1  0  0  0  0
  8 11  1  0  0  0  0
 44 45  1  0  0  0  0
 23 24  1  0  0  0  0
 21 22  1  0  0  0  0
 18 21  1  0  0  0  0
 22 23  1  0  0  0  0
 34 35  1  0  0  0  0
  7  8  1  0  0  0  0
 17 18  1  0  0  0  0
  3  4  1  0  0  0  0
  3  5  1  0  0  0  0
  3  6  1  0  0  0  0
 38 41  1  0  0  0  0
 38 42  1  0  0  0  0
 38 43  1  0  0  0  0
 11 14  1  0  0  0  0
 11 15  1  0  0  0  0
 11 16  1  0  0  0  0
 45 47  1  0  0  0  0
 45 48  1  0  0  0  0
 45 49  1  0  0  0  0
 24 31  1  0  0  0  0
 24 32  1  0  0  0  0
 24 33  1  0  0  0  0
 21 27  1  0  0  0  0
 21 28  1  0  0  0  0
 22 29  1  0  0  0  0
 22 30  1  0  0  0  0
 35 40  1  0  0  0  0
  8 13  1  0  0  0  0
 18 26  1  0  0  0  0
 44 46  1  0  0  0  0
  7 12  1  0  0  0  0
 34 39  1  0  0  0  0
 17 25  1  0  0  0  0
M  END
$$$$

  -OEChem-05262214473D

 49 48  0     1  0  0  0  0  0999 V2000
   -0.0561   -5.3799    2.6949 C   0  0  0  0  0  0  0  0  0  0  0  0
    0.7325   -5.0736    3.5815 O   0  0  0  0  0  0  0  0  0  0  0  0
   -1.0067   -6.5099    2.9135 C   0  0  0  0  0  0  0  0  0  0  0  0
   -0.5910   -7.4777    2.5899 H   0  0  0  0  0  0  0  0  0  0  0  0
   -1.2629   -6.6440    3.9767 H   0  0  0  0  0  0  0  0  0  0  0  0
   -1.9729   -6.4206    2.3918 H   0  0  0  0  0  0  0  0  0  0  0  0
   -0.1735   -4.7694    1.4571 N   0  0  0  0  0  0  0  0  0  0  0  0
    0.6439   -3.6603    1.0409 C   0  0  2  0  0  0  0  0  0  0  0  0
   -0.2788   -2.5625    0.5280 C   0  0  0  0  0  0  0  0  0  0  0  0
   -1.4197   -2.7791    0.1251 O   0  0  0  0  0  0  0  0  0  0  0  0
    1.6395   -4.0779   -0.0301 C   0  0  0  0  0  0  0  0  0  0  0  0
   -0.8741   -5.1235    0.8083 H   0  0  0  0  0  0  0  0  0  0  0  0
    1.1738   -3.3062    1.9318 H   0  0  0  0  0  0  0  0  0  0  0  0
    1.1270   -4.4358   -0.9305 H   0  0  0  0  0  0  0  0  0  0  0  0
    2.2797   -3.2400   -0.3251 H   0  0  0  0  0  0  0  0  0  0  0  0
    2.2827   -4.8880    0.3303 H   0  0  0  0  0  0  0  0  0  0  0  0
    0.3351   -1.3153    0.5316 N   0  0  0  0  0  0  0  0  0  0  0  0
   -0.3268   -0.1184    0.0807 C   0  0  2  0  0  0  0  0  0  0  0  0
    0.7202    0.9703   -0.1337 C   0  0  0  0  0  0  0  0  0  0  0  0
    0.4317    2.1559   -0.2825 O   0  0  0  0  0  0  0  0  0  0  0  0
   -1.4499    0.3154    1.0327 C   0  0  0  0  0  0  0  0  0  0  0  0
   -2.6214   -0.6680    1.0890 C   0  0  0  0  0  0  0  0  0  0  0  0
   -3.3912   -0.8366   -0.5489 S   0  0  0  0  0  0  0  0  0  0  0  0
   -4.1176    0.8139   -0.6663 C   0  0  0  0  0  0  0  0  0  0  0  0
    1.2790   -1.2290    0.9021 H   0  0  0  0  0  0  0  0  0  0  0  0
   -0.7621   -0.3668   -0.8949 H   0  0  0  0  0  0  0  0  0  0  0  0
   -1.8161    1.2992    0.7097 H   0  0  0  0  0  0  0  0  0  0  0  0
   -1.0347    0.4447    2.0404 H   0  0  0  0  0  0  0  0  0  0  0  0
   -3.3900   -0.3228    1.7869 H   0  0  0  0  0  0  0  0  0  0  0  0
   -2.2885   -1.6593    1.4105 H   0  0  0  0  0  0  0  0  0  0  0  0
   -4.6467    0.9205   -1.6164 H   0  0  0  0  0  0  0  0  0  0  0  0
   -3.3309    1.5704   -0.6096 H   0  0  0  0  0  0  0  0  0  0  0  0
   -4.8221    0.9686    0.1545 H   0  0  0  0  0  0  0  0  0  0  0  0
    2.0094    0.4586   -0.1720 N   0  0  0  0  0  0  0  0  0  0  0  0
    3.1711    1.2914   -0.3773 C   0  0  2  0  0  0  0  0  0  0  0  0
    4.1367    0.5371   -1.2818 C   0  0  0  0  0  0  0  0  0  0  0  0
    4.1235   -0.6858   -1.4054 O   0  0  0  0  0  0  0  0  0  0  0  0
    3.8331    1.6528    0.9433 C   0  0  0  0  0  0  0  0  0  0  0  0
    2.1589   -0.5332   -0.0116 H   0  0  0  0  0  0  0  0  0  0  0  0
    2.8248    2.1974   -0.8865 H   0  0  0  0  0  0  0  0  0  0  0  0
    4.1866    0.7578    1.4680 H   0  0  0  0  0  0  0  0  0  0  0  0
    4.6969    2.3076    0.7880 H   0  0  0  0  0  0  0  0  0  0  0  0
    3.1284    2.1690    1.6042 H   0  0  0  0  0  0  0  0  0  0  0  0
    5.0428    1.3863   -1.9014 N   0  0  0  0  0  0  0  0  0  0  0  0
    6.0692    0.9103   -2.7991 C   0  0  0  0  0  0  0  0  0  0  0  0
    4.9681    2.3888   -1.7559 H   0  0  0  0  0  0  0  0  0  0  0  0
    6.9940    0.7236   -2.2335 H   0  0  0  0  0  0  0  0  0  0  0  0
    5.7356   -0.0237   -3.2749 H   0  0  0  0  0  0  0  0  0  0  0  0
    6.2596    1.6684   -3.5731 H   0  0  0  0  0  0  0  0  0  0  0  0
  1  3  1  0  0  0  0
  1  7  1  0  0  0  0
  1  2  2  0  0  0  0
 35 36  1  0  0  0  0
 36 44  1  0  0  0  0
 36 37  2  0  0  0  0
  8  9  1  0  0  0  0
  9 17  1  0  0  0  0
  9 10  2  0  0  0  0
 18 19  1  0  0  0  0
 19 34  1  0  0  0  0
 19 20  2  0  0  0  0
 35 38  1  0  0  0  0
  8 11  1  0  0  0  0
 44 45  1  0  0  0  0
 23 24  1  0  0  0  0
 21 22  1  0  0  0  0
 18 21  1  0  0  0  0
 22 23  1  0  0  0  0
 34 35  1  0  0  0  0
  7  8  1  0  0  0  0
 17 18  1  0  0  0  0
  3  4  1  0  0  0  0
  3  5  1  0  0  0  0
  3  6  1  0  0  0  0
 38 41  1  0  0  0  0
 38 42  1  0  0  0  0
 38 43  1  0  0  0  0
 11 14  1  0  0  0  0
 11 15  1  0  0  0  0
 11 16  1  0  0  0  0
 45 47  1  0  0  0  0
 45 48  1  0  0  0  0
 45 49  1  0  0  0  0
 24 31  1  0  0  0  0
 24 32  1  0  0  0  0
 24 33  1  0  0  0  0
 21 27  1  0  0  0  0
 21 28  1  0  0  0  0
 22 29  1  0  0  0  0
 22 30  1  0  0  0  0
 35 40  1  0  0  0  0
  8 13  1  0  0  0  0
 18 26  1  0  0  0  0
 44 46  1  0  0  0  0
  7 12  1  0  0  0  0
 34 39  1  0  0  0  0
 17 25  1  0  0  0  0
M  END
$$$$

  -OEChem-05262214473D

 49 48  0     1  0  0  0  0  0999 V2000
   -0.0561   -5.3799    2.6949 C   0  0  0  0  0  0  0  0  0  0  0  0
    0.7325   -5.0736    3.5815 O   0  0  0  0  0  0  0  0  0  0  0  0
   -1.0067   -6.5099    2.9135 C   0  0  0  0  0  0  0  0  0  0  0  0
   -0.5910   -7.4777    2.5899 H   0  0  0  0  0  0  0  0  0  0  0  0
   -1.2629   -6.6440    3.9767 H   0  0  0  0  0  0  0  0  0  0  0  0
   -1.9729   -6.4206    2.3918 H   0  0  0  0  0  0  0  0  0  0  0  0
   -0.1735   -4.7694    1.4571 N   0  0  0  0  0  0  0  0  0  0  0  0
    0.6439   -3.6603    1.0409 C   0  0  2  0  0  0  0  0  0  0  0  0
   -0.2788   -2.5625    0.5280 C   0  0  0  0  0  0  0  0  0  0  0  0
   -1.4197   -2.7791    0.1251 O   0  0  0  0  0  0  0  0  0  0  0  0
    1.6395   -4.0779   -0.0301 C   0  0  0  0  0  0  0  0  0  0  0  0
   -0.8741   -5.1235    0.8083 H   0  0  0  0  0  0  0  0  0  0  0  0
    1.1738   -3.3062    1.9318 H   0  0  0  0  0  0  0  0  0  0  0  0
    1.1270   -4.4358   -0.9305 H   0  0  0  0  0  0  0  0  0  0  0  0
    2.2797   -3.2400   -0.3251 H   0  0  0  0  0  0  0  0  0  0  0  0
    2.2827   -4.8880    0.3303 H   0  0  0  0  0  0  0  0  0  0  0  0
    0.3351   -1.3153    0.5316 N   0  0  0  0  0  0  0  0  0  0  0  0
   -0.3268   -0.1184    0.0807 C   0  0  2  0  0  0  0  0  0  0  0  0
    0.7202    0.9703   -0.1337 C   0  0  0  0  0  0  0  0  0  0  0  0
    0.4728    2.1687   -0.0167 O   0  0  0  0  0  0  0  0  0  0  0  0
   -1.4499    0.3154    1.0327 C   0  0  0  0  0  0  0  0  0  0  0  0
   -2.6214   -0.6680    1.0890 C   0  0  0  0  0  0  0  0  0  0  0  0
   -3.3912   -0.8366   -0.5489 S   0  0  0  0  0  0  0  0  0  0  0  0
   -4.1176    0.8139   -0.6663 C   0  0  0  0  0  0  0  0  0  0  0  0
    1.2790   -1.2290    0.9021 H   0  0  0  0  0  0  0  0  0  0  0  0
   -0.7621   -0.3668   -0.8949 H   0  0  0  0  0  0  0  0  0  0  0  0
   -1.8161    1.2992    0.7097 H   0  0  0  0  0  0  0  0  0  0  0  0
   -1.0347    0.4447    2.0404 H   0  0  0  0  0  0  0  0  0  0  0  0
   -3.3900   -0.3228    1.7869 H   0  0  0  0  0  0  0  0  0  0  0  0
   -2.2885   -1.6593    1.4105 H   0  0  0  0  0  0  0  0  0  0  0  0
   -4.6467    0.9205   -1.6164 H   0  0  0  0  0  0  0  0  0  0  0  0
   -3.3309    1.5704   -0.6096 H   0  0  0  0  0  0  0  0  0  0  0  0
   -4.8221    0.9686    0.1545 H   0  0  0  0  0  0  0  0  0  0  0  0
    1.9520    0.4487   -0.5022 N   0  0  0  0  0  0  0  0  0  0  0  0
    3.0998    1.2819   -0.7739 C   0  0  2  0  0  0  0  0  0  0  0  0
    3.8439    0.6849   -1.9611 C   0  0  0  0  0  0  0  0  0  0  0  0
    3.7436   -0.4949   -2.2912 O   0  0  0  0  0  0  0  0  0  0  0  0
    4.0086    1.3851    0.4411 C   0  0  0  0  0  0  0  0  0  0  0  0
    2.0753   -0.5585   -0.5480 H   0  0  0  0  0  0  0  0  0  0  0  0
    2.7154    2.2717   -1.0432 H   0  0  0  0  0  0  0  0  0  0  0  0
    4.4034    0.4031    0.7259 H   0  0  0  0  0  0  0  0  0  0  0  0
    4.8634    2.0401    0.2427 H   0  0  0  0  0  0  0  0  0  0  0  0
    3.4639    1.7868    1.3023 H   0  0  0  0  0  0  0  0  0  0  0  0
    4.6663    1.6143   -2.5824 N   0  0  0  0  0  0  0  0  0  0  0  0
    5.4861    1.2885   -3.7260 C   0  0  0  0  0  0  0  0  0  0  0  0
    4.6725    2.5752   -2.2531 H   0  0  0  0  0  0  0  0  0  0  0  0
    6.4869    0.9843   -3.3857 H   0  0  0  0  0  0  0  0  0  0  0  0
    5.0227    0.4629   -4.2859 H   0  0  0  0  0  0  0  0  0  0  0  0
    5.5729    2.1703   -4.3778 H   0  0  0  0  0  0  0  0  0  0  0  0
  1  3  1  0  0  0  0
  1  7  1  0  0  0  0
  1  2  2  0  0  0  0
 35 36  1  0  0  0  0
 36 44  1  0  0  0  0
 36 37  2  0  0  0  0
  8  9  1  0  0  0  0
  9 17  1  0  0  0  0
  9 10  2  0  0  0  0
 18 19  1  0  0  0  0
 19 34  1  0  0  0  0
 19 20  2  0  0  0  0
 35 38  1  0  0  0  0
  8 11  1  0  0  0  0
 44 45  1  0  0  0  0
 23 24  1  0  0  0  0
 21 22  1  0  0  0  0
 18 21  1  0  0  0  0
 22 23  1  0  0  0  0
 34 35  1  0  0  0  0
  7  8  1  0  0  0  0
 17 18  1  0  0  0  0
  3  4  1  0  0  0  0
  3  5  1  0  0  0  0
  3  6  1  0  0  0  0
 38 41  1  0  0  0  0
 38 42  1  0  0  0  0
 38 43  1  0  0  0  0
 11 14  1  0  0  0  0
 11 15  1  0  0  0  0
 11 16  1  0  0  0  0
 45 47  1  0  0  0  0
 45 48  1  0  0  0  0
 45 49  1  0  0  0  0
 24 31  1  0  0  0  0
 24 32  1  0  0  0  0
 24 33  1  0  0  0  0
 21 27  1  0  0  0  0
 21 28  1  0  0  0  0
 22 29  1  0  0  0  0
 22 30  1  0  0  0  0
 35 40  1  0  0  0  0
  8 13  1  0  0  0  0
 18 26  1  0  0  0  0
 44 46  1  0  0  0  0
  7 12  1  0  0  0  0
 34 39  1  0  0  0  0
 17 25  1  0  0  0  0
M  END
$$$$

  -OEChem-05262214473D

 49 48  0     1  0  0  0  0  0999 V2000
   -0.0561   -5.3799    2.6949 C   0  0  0  0  0  0  0  0  0  0  0  0
    0.7325   -5.0736    3.5815 O   0  0  0  0  0  0  0  0  0  0  0  0
   -1.0067   -6.5099    2.9135 C   0  0  0  0  0  0  0  0  0  0  0  0
   -0.5910   -7.4777    2.5899 H   0  0  0  0  0  0  0  0  0  0  0  0
   -1.2629   -6.6440    3.9767 H   0  0  0  0  0  0  0  0  0  0  0  0
   -1.9729   -6.4206    2.3918 H   0  0  0  0  0  0  0  0  0  0  0  0
   -0.1735   -4.7694    1.4571 N   0  0  0  0  0  0  0  0  0  0  0  0
    0.6439   -3.6603    1.0409 C   0  0  2  0  0  0  0  0  0  0  0  0
   -0.2788   -2.5625    0.5280 C   0  0  0  0  0  0  0  0  0  0  0  0
   -1.4197   -2.7791    0.1251 O   0  0  0  0  0  0  0  0  0  0  0  0
    1.6395   -4.0779   -0.0301 C   0  0  0  0  0  0  0  0  0  0  0  0
   -0.8741   -5.1235    0.8083 H   0  0  0  0  0  0  0  0  0  0  0  0
    1.1738   -3.3062    1.9318 H   0  0  0  0  0  0  0  0  0  0  0  0
    1.1270   -4.4358   -0.9305 H   0  0  0  0  0  0  0  0  0  0  0  0
    2.2797   -3.2400   -0.3251 H   0  0  0  0  0  0  0  0  0  0  0  0
    2.2827   -4.8880    0.3303 H   0  0  0  0  0  0  0  0  0  0  0  0
    0.3351   -1.3153    0.5316 N   0  0  0  0  0  0  0  0  0  0  0  0
   -0.3268   -0.1184    0.0807 C   0  0  2  0  0  0  0  0  0  0  0  0
    0.7202    0.9703   -0.1337 C   0  0  0  0  0  0  0  0  0  0  0  0
    0.5621    2.1324    0.2347 O   0  0  0  0  0  0  0  0  0  0  0  0
   -1.4499    0.3154    1.0327 C   0  0  0  0  0  0  0  0  0  0  0  0
   -2.6214   -0.6680    1.0890 C   0  0  0  0  0  0  0  0  0  0  0  0
   -3.3912   -0.8366   -0.5489 S   0  0  0  0  0  0  0  0  0  0  0  0
   -4.1176    0.8139   -0.6663 C   0  0  0  0  0  0  0  0  0  0  0  0
    1.2790   -1.2290    0.9021 H   0  0  0  0  0  0  0  0  0  0  0  0
   -0.7621   -0.3668   -0.8949 H   0  0  0  0  0  0  0  0  0  0  0  0
   -1.8161    1.2992    0.7097 H   0  0  0  0  0  0  0  0  0  0  0  0
   -1.0347    0.4447    2.0404 H   0  0  0  0  0  0  0  0  0  0  0  0
   -3.3900   -0.3228    1.7869 H   0  0  0  0  0  0  0  0  0  0  0  0
   -2.2885   -1.6593    1.4105 H   0  0  0  0  0  0  0  0  0  0  0  0
   -4.6467    0.9205   -1.6164 H   0  0  0  0  0  0  0  0  0  0  0  0
   -3.3309    1.5704   -0.6096 H   0  0  0  0  0  0  0  0  0  0  0  0
   -4.8221    0.9686    0.1545 H   0  0  0  0  0  0  0  0  0  0  0  0
    1.8353    0.4998   -0.8123 N   0  0  0  0  0  0  0  0  0  0  0  0
    2.9573    1.3457   -1.1455 C   0  0  2  0  0  0  0  0  0  0  0  0
    3.4410    0.9590   -2.5369 C   0  0  0  0  0  0  0  0  0  0  0  0
    3.2200   -0.1393   -3.0427 O   0  0  0  0  0  0  0  0  0  0  0  0
    4.0756    1.2093   -0.1240 C   0  0  0  0  0  0  0  0  0  0  0  0
    1.8946   -0.4846   -1.0552 H   0  0  0  0  0  0  0  0  0  0  0  0
    2.5835    2.3753   -1.1611 H   0  0  0  0  0  0  0  0  0  0  0  0
    4.4629    0.1844   -0.0939 H   0  0  0  0  0  0  0  0  0  0  0  0
    4.9138    1.8725   -0.3623 H   0  0  0  0  0  0  0  0  0  0  0  0
    3.7182    1.4592    0.8809 H   0  0  0  0  0  0  0  0  0  0  0  0
    4.1852    1.9691   -3.1302 N   0  0  0  0  0  0  0  0  0  0  0  0
    4.7655    1.8397   -4.4464 C   0  0  0  0  0  0  0  0  0  0  0  0
    4.3020    2.8542   -2.6456 H   0  0  0  0  0  0  0  0  0  0  0  0
    5.7938    1.4593   -4.3586 H   0  0  0  0  0  0  0  0  0  0  0  0
    4.1650    1.1384   -5.0444 H   0  0  0  0  0  0  0  0  0  0  0  0
    4.7793    2.8231   -4.9392 H   0  0  0  0  0  0  0  0  0  0  0  0
  1  3  1  0  0  0  0
  1  7  1  0  0  0  0
  1  2  2  0  0  0  0
 35 36  1  0  0  0  0
 36 44  1  0  0  0  0
 36 37  2  0  0  0  0
  8  9  1  0  0  0  0
  9 17  1  0  0  0  0
  9 10  2  0  0  0  0
 18 19  1  0  0  0  0
 19 34  1  0  0  0  0
 19 20  2  0  0  0  0
 35 38  1  0  0  0  0
  8 11  1  0  0  0  0
 44 45  1  0  0  0  0
 23 24  1  0  0  0  0
 21 22  1  0  0  0  0
 18 21  1  0  0  0  0
 22 23  1  0  0  0  0
 34 35  1  0  0  0  0
  7  8  1  0  0  0  0
 17 18  1  0  0  0  0
  3  4  1  0  0  0  0
  3  5  1  0  0  0  0
  3  6  1  0  0  0  0
 38 41  1  0  0  0  0
 38 42  1  0  0  0  0
 38 43  1  0  0  0  0
 11 14  1  0  0  0  0
 11 15  1  0  0  0  0
 11 16  1  0  0  0  0
 45 47  1  0  0  0  0
 45 48  1  0  0  0  0
 45 49  1  0  0  0  0
 24 31  1  0  0  0  0
 24 32  1  0  0  0  0
 24 33  1  0  0  0  0
 21 27  1  0  0  0  0
 21 28  1  0  0  0  0
 22 29  1  0  0  0  0
 22 30  1  0  0  0  0
 35 40  1  0  0  0  0
  8 13  1  0  0  0  0
 18 26  1  0  0  0  0
 44 46  1  0  0  0  0
  7 12  1  0  0  0  0
 34 39  1  0  0  0  0
 17 25  1  0  0  0  0
M  END
$$$$

  -OEChem-05262214473D

 49 48  0     1  0  0  0  0  0999 V2000
   -0.0561   -5.3799    2.6949 C   0  0  0  0  0  0  0  0  0  0  0  0
    0.7325   -5.0736    3.5815 O   0  0  0  0  0  0  0  0  0  0  0  0
   -1.0067   -6.5099    2.9135 C   0  0  0  0  0  0  0  0  0  0  0  0
   -0.5910   -7.4777    2.5899 H   0  0  0  0  0  0  0  0  0  0  0  0
   -1.2629   -6.6440    3.9767 H   0  0  0  0  0  0  0  0  0  0  0  0
   -1.9729   -6.4206    2.3918 H   0  0  0  0  0  0  0  0  0  0  0  0
   -0.1735   -4.7694    1.4571 N   0  0  0  0  0  0  0  0  0  0  0  0
    0.6439   -3.6603    1.0409 C   0  0  2  0  0  0  0  0  0  0  0  0
   -0.2788   -2.5625    0.5280 C   0  0  0  0  0  0  0  0  0  0  0  0
   -1.4197   -2.7791    0.1251 O   0  0  0  0  0  0  0  0  0  0  0  0
    1.6395   -4.0779   -0.0301 C   0  0  0  0  0  0  0  0  0  0  0  0
   -0.8741   -5.1235    0.8083 H   0  0  0  0  0  0  0  0  0  0  0  0
    1.1738   -3.3062    1.9318 H   0  0  0  0  0  0  0  0  0  0  0  0
    1.1270   -4.4358   -0.9305 H   0  0  0  0  0  0  0  0  0  0  0  0
    2.2797   -3.2400   -0.3251 H   0  0  0  0  0  0  0  0  0  0  0  0
    2.2827   -4.8880    0.3303 H   0  0  0  0  0  0  0  0  0  0  0  0
    0.3351   -1.3153    0.5316 N   0  0  0  0  0  0  0  0  0  0  0  0
   -0.3268   -0.1184    0.0807 C   0  0  2  0  0  0  0  0  0  0  0  0
    0.7202    0.9703   -0.1337 C   0  0  0  0  0  0  0  0  0  0  0  0
    0.6935    2.0493    0.4546 O   0  0  0  0  0  0  0  0  0  0  0  0
   -1.4499    0.3154    1.0327 C   0  0  0  0  0  0  0  0  0  0  0  0
   -2.6214   -0.6680    1.0890 C   0  0  0  0  0  0  0  0  0  0  0  0
   -3.3912   -0.8366   -0.5489 S   0  0  0  0  0  0  0  0  0  0  0  0
   -4.1176    0.8139   -0.6663 C   0  0  0  0  0  0  0  0  0  0  0  0
    1.2790   -1.2290    0.9021 H   0  0  0  0  0  0  0  0  0  0  0  0
   -0.7621   -0.3668   -0.8949 H   0  0  0  0  0  0  0  0  0  0  0  0
   -1.8161    1.2992    0.7097 H   0  0  0  0  0  0  0  0  0  0  0  0
   -1.0347    0.4447    2.0404 H   0  0  0  0  0  0  0  0  0  0  0  0
   -3.3900   -0.3228    1.7869 H   0  0  0  0  0  0  0  0  0  0  0  0
   -2.2885   -1.6593    1.4105 H   0  0  0  0  0  0  0  0  0  0  0  0
   -4.6467    0.9205   -1.6164 H   0  0  0  0  0  0  0  0  0  0  0  0
   -3.3309    1.5704   -0.6096 H   0  0  0  0  0  0  0  0  0  0  0  0
   -4.8221    0.9686    0.1545 H   0  0  0  0  0  0  0  0  0  0  0  0
    1.6672    0.6086   -1.0812 N   0  0  0  0  0  0  0  0  0  0  0  0
    2.7534    1.4786   -1.4668 C   0  0  2  0  0  0  0  0  0  0  0  0
    2.9554    1.3408   -2.9700 C   0  0  0  0  0  0  0  0  0  0  0  0
    2.5883    0.3567   -3.6087 O   0  0  0  0  0  0  0  0  0  0  0  0
    4.0296    1.1375   -0.7134 C   0  0  0  0  0  0  0  0  0  0  0  0
    1.6291   -0.3166   -1.4987 H   0  0  0  0  0  0  0  0  0  0  0  0
    2.4382    2.5011   -1.2323 H   0  0  0  0  0  0  0  0  0  0  0  0
    4.3610    0.1166   -0.9357 H   0  0  0  0  0  0  0  0  0  0  0  0
    4.8446    1.8162   -0.9858 H   0  0  0  0  0  0  0  0  0  0  0  0
    3.8742    1.2082    0.3686 H   0  0  0  0  0  0  0  0  0  0  0  0
    3.6322    2.4267   -3.5074 N   0  0  0  0  0  0  0  0  0  0  0  0
    3.9564    2.5264   -4.9113 C   0  0  0  0  0  0  0  0  0  0  0  0
    3.8818    3.2069   -2.9068 H   0  0  0  0  0  0  0  0  0  0  0  0
    4.9619    2.1161   -5.0860 H   0  0  0  0  0  0  0  0  0  0  0  0
    3.2210    1.9568   -5.4986 H   0  0  0  0  0  0  0  0  0  0  0  0
    3.9328    3.5822   -5.2189 H   0  0  0  0  0  0  0  0  0  0  0  0
  1  3  1  0  0  0  0
  1  7  1  0  0  0  0
  1  2  2  0  0  0  0
 35 36  1  0  0  0  0
 36 44  1  0  0  0  0
 36 37  2  0  0  0  0
  8  9  1  0  0  0  0
  9 17  1  0  0  0  0
  9 10  2  0  0  0  0
 18 19  1  0  0  0  0
 19 34  1  0  0  0  0
 19 20  2  0  0  0  0
 35 38  1  0  0  0  0
  8 11  1  0  0  0  0
 44 45  1  0  0  0  0
 23 24  1  0  0  0  0
 21 22  1  0  0  0  0
 18 21  1  0  0  0  0
 22 23  1  0  0  0  0
 34 35  1  0  0  0  0
  7  8  1  0  0  0  0
 17 18  1  0  0  0  0
  3  4  1  0  0  0  0
  3  5  1  0  0  0  0
  3  6  1  0  0  0  0
 38 41  1  0  0  0  0
 38 42  1  0  0  0  0
 38 43  1  0  0  0  0
 11 14  1  0  0  0  0
 11 15  1  0  0  0  0
 11 16  1  0  0  0  0
 45 47  1  0  0  0  0
 45 48  1  0  0  0  0
 45 49  1  0  0  0  0
 24 31  1  0  0  0  0
 24 32  1  0  0  0  0
 24 33  1  0  0  0  0
 21 27  1  0  0  0  0
 21 28  1  0  0  0  0
 22 29  1  0  0  0  0
 22 30  1  0  0  0  0
 35 40  1  0  0  0  0
  8 13  1  0  0  0  0
 18 26  1  0  0  0  0
 44 46  1  0  0  0  0
  7 12  1  0  0  0  0
 34 39  1  0  0  0  0
 17 25  1  0  0  0  0
M  END
$$$$

  -OEChem-05262214473D

 49 48  0     1  0  0  0  0  0999 V2000
   -0.0561   -5.3799    2.6949 C   0  0  0  0  0  0  0  0  0  0  0  0
    0.7325   -5.0736    3.5815 O   0  0  0  0  0  0  0  0  0  0  0  0
   -1.0067   -6.5099    2.9135 C   0  0  0  0  0  0  0  0  0  0  0  0
   -0.5910   -7.4777    2.5899 H   0  0  0  0  0  0  0  0  0  0  0  0
   -1.2629   -6.6440    3.9767 H   0  0  0  0  0  0  0  0  0  0  0  0
   -1.9729   -6.4206    2.3918 H   0  0  0  0  0  0  0  0  0  0  0  0
   -0.1735   -4.7694    1.4571 N   0  0  0  0  0  0  0  0  0  0  0  0
    0.6439   -3.6603    1.0409 C   0  0  2  0  0  0  0  0  0  0  0  0
   -0.2788   -2.5625    0.5280 C   0  0  0  0  0  0  0  0  0  0  0  0
   -1.4197   -2.7791    0.1251 O   0  0  0  0  0  0  0  0  0  0  0  0
    1.6395   -4.0779   -0.0301 C   0  0  0  0  0  0  0  0  0  0  0  0
   -0.8741   -5.1235    0.8083 H   0  0  0  0  0  0  0  0  0  0  0  0
    1.1738   -3.3062    1.9318 H   0  0  0  0  0  0  0  0  0  0  0  0
    1.1270   -4.4358   -0.9305 H   0  0  0  0  0  0  0  0  0  0  0  0
    2.2797   -3.2400   -0.3251 H   0  0  0  0  0  0  0  0  0  0  0  0
    2.2827   -4.8880    0.3303 H   0  0  0  0  0  0  0  0  0  0  0  0
    0.3351   -1.3153    0.5316 N   0  0  0  0  0  0  0  0  0  0  0  0
   -0.3268   -0.1184    0.0807 C   0  0  2  0  0  0  0  0  0  0  0  0
    0.7202    0.9703   -0.1337 C   0  0  0  0  0  0  0  0  0  0  0  0
    0.8580    1.9253    0.6280 O   0  0  0  0  0  0  0  0  0  0  0  0
   -1.4499    0.3154    1.0327 C   0  0  0  0  0  0  0  0  0  0  0  0
   -2.6214   -0.6680    1.0890 C   0  0  0  0  0  0  0  0  0  0  0  0
   -3.3912   -0.8366   -0.5489 S   0  0  0  0  0  0  0  0  0  0  0  0
   -4.1176    0.8139   -0.6663 C   0  0  0  0  0  0  0  0  0  0  0  0
    1.2790   -1.2290    0.9021 H   0  0  0  0  0  0  0  0  0  0  0  0
   -0.7621   -0.3668   -0.8949 H   0  0  0  0  0  0  0  0  0  0  0  0
   -1.8161    1.2992    0.7097 H   0  0  0  0  0  0  0  0  0  0  0  0
   -1.0347    0.4447    2.0404 H   0  0  0  0  0  0  0  0  0  0  0  0
   -3.3900   -0.3228    1.7869 H   0  0  0  0  0  0  0  0  0  0  0  0
   -2.2885   -1.6593    1.4105 H   0  0  0  0  0  0  0  0  0  0  0  0
   -4.6467    0.9205   -1.6164 H   0  0  0  0  0  0  0  0  0  0  0  0
   -3.3309    1.5704   -0.6096 H   0  0  0  0  0  0  0  0  0  0  0  0
   -4.8221    0.9686    0.1545 H   0  0  0  0  0  0  0  0  0  0  0  0
    1.4590    0.7675   -1.2906 N   0  0  0  0  0  0  0  0  0  0  0  0
    2.5019    1.6714   -1.7159 C   0  0  2  0  0  0  0  0  0  0  0  0
    2.4203    1.8041   -3.2309 C   0  0  0  0  0  0  0  0  0  0  0  0
    1.8917    0.9593   -3.9507 O   0  0  0  0  0  0  0  0  0  0  0  0
    3.8737    1.1745   -1.2869 C   0  0  0  0  0  0  0  0  0  0  0  0
    1.2968   -0.0658   -1.8481 H   0  0  0  0  0  0  0  0  0  0  0  0
    2.2892    2.6406   -1.2518 H   0  0  0  0  0  0  0  0  0  0  0  0
    4.1046    0.2044   -1.7420 H   0  0  0  0  0  0  0  0  0  0  0  0
    4.6606    1.8751   -1.5852 H   0  0  0  0  0  0  0  0  0  0  0  0
    3.9211    1.0512   -0.1996 H   0  0  0  0  0  0  0  0  0  0  0  0
    3.0450    2.9558   -3.6883 N   0  0  0  0  0  0  0  0  0  0  0  0
    3.1140    3.3016   -5.0889 C   0  0  0  0  0  0  0  0  0  0  0  0
    3.4405    3.6093   -3.0188 H   0  0  0  0  0  0  0  0  0  0  0  0
    4.0480    2.9100   -5.5183 H   0  0  0  0  0  0  0  0  0  0  0  0
    2.2551    2.8624   -5.6176 H   0  0  0  0  0  0  0  0  0  0  0  0
    3.0910    4.3960   -5.1979 H   0  0  0  0  0  0  0  0  0  0  0  0
  1  3  1  0  0  0  0
  1  7  1  0  0  0  0
  1  2  2  0  0  0  0
 35 36  1  0  0  0  0
 36 44  1  0  0  0  0
 36 37  2  0  0  0  0
  8  9  1  0  0  0  0
  9 17  1  0  0  0  0
  9 10  2  0  0  0  0
 18 19  1  0  0  0  0
 19 34  1  0  0  0  0
 19 20  2  0  0  0  0
 35 38  1  0  0  0  0
  8 11  1  0  0  0  0
 44 45  1  0  0  0  0
 23 24  1  0  0  0  0
 21 22  1  0  0  0  0
 18 21  1  0  0  0  0
 22 23  1  0  0  0  0
 34 35  1  0  0  0  0
  7  8  1  0  0  0  0
 17 18  1  0  0  0  0
  3  4  1  0  0  0  0
  3  5  1  0  0  0  0
  3  6  1  0  0  0  0
 38 41  1  0  0  0  0
 38 42  1  0  0  0  0
 38 43  1  0  0  0  0
 11 14  1  0  0  0  0
 11 15  1  0  0  0  0
 11 16  1  0  0  0  0
 45 47  1  0  0  0  0
 45 48  1  0  0  0  0
 45 49  1  0  0  0  0
 24 31  1  0  0  0  0
 24 32  1  0  0  0  0
 24 33  1  0  0  0  0
 21 27  1  0  0  0  0
 21 28  1  0  0  0  0
 22 29  1  0  0  0  0
 22 30  1  0  0  0  0
 35 40  1  0  0  0  0
  8 13  1  0  0  0  0
 18 26  1  0  0  0  0
 44 46  1  0  0  0  0
  7 12  1  0  0  0  0
 34 39  1  0  0  0  0
 17 25  1  0  0  0  0
M  END
$$$$

  -OEChem-05262214473D

 49 48  0     1  0  0  0  0  0999 V2000
   -0.0561   -5.3799    2.6949 C   0  0  0  0  0  0  0  0  0  0  0  0
    0.7325   -5.0736    3.5815 O   0  0  0  0  0  0  0  0  0  0  0  0
   -1.0067   -6.5099    2.9135 C   0  0  0  0  0  0  0  0  0  0  0  0
   -0.5910   -7.4777    2.5899 H   0  0  0  0  0  0  0  0  0  0  0  0
   -1.2629   -6.6440    3.9767 H   0  0  0  0  0  0  0  0  0  0  0  0
   -1.9729   -6.4206    2.3918 H   0  0  0  0  0  0  0  0  0  0  0  0
   -0.1735   -4.7694    1.4571 N   0  0  0  0  0  0  0  0  0  0  0  0
    0.6439   -3.6603    1.0409 C   0  0  2  0  0  0  0  0  0  0  0  0
   -0.2788   -2.5625    0.5280 C   0  0  0  0  0  0  0  0  0  0  0  0
   -1.4197   -2.7791    0.1251 O   0  0  0  0  0  0  0  0  0  0  0  0
    1.6395   -4.0779   -0.0301 C   0  0  0  0  0  0  0  0  0  0  0  0
   -0.8741   -5.1235    0.8083 H   0  0  0  0  0  0  0  0  0  0  0  0
    1.1738   -3.3062    1.9318 H   0  0  0  0  0  0  0  0  0  0  0  0
    1.1270   -4.4358   -0.9305 H   0  0  0  0  0  0  0  0  0  0  0  0
    2.2797   -3.2400   -0.3251 H   0  0  0  0  0  0  0  0  0  0  0  0
    2.2827   -4.8880    0.3303 H   0  0  0  0  0  0  0  0  0  0  0  0
    0.3351   -1.3153    0.5316 N   0  0  0  0  0  0  0  0  0  0  0  0
   -0.3268   -0.1184    0.0807 C   0  0  2  0  0  0  0  0  0  0  0  0
    0.7202    0.9703   -0.1337 C   0  0  0  0  0  0  0  0  0  0  0  0
    1.0443    1.7687    0.7430 O   0  0  0  0  0  0  0  0  0  0  0  0
   -1.4499    0.3154    1.0327 C   0  0  0  0  0  0  0  0  0  0  0  0
   -2.6214   -0.6680    1.0890 C   0  0  0  0  0  0  0  0  0  0  0  0
   -3.3912   -0.8366   -0.5489 S   0  0  0  0  0  0  0  0  0  0  0  0
   -4.1176    0.8139   -0.6663 C   0  0  0  0  0  0  0  0  0  0  0  0
    1.2790   -1.2290    0.9021 H   0  0  0  0  0  0  0  0  0  0  0  0
   -0.7621   -0.3668   -0.8949 H   0  0  0  0  0  0  0  0  0  0  0  0
   -1.8161    1.2992    0.7097 H   0  0  0  0  0  0  0  0  0  0  0  0
   -1.0347    0.4447    2.0404 H   0  0  0  0  0  0  0  0  0  0  0  0
   -3.3900   -0.3228    1.7869 H   0  0  0  0  0  0  0  0  0  0  0  0
   -2.2885   -1.6593    1.4105 H   0  0  0  0  0  0  0  0  0  0  0  0
   -4.6467    0.9205   -1.6164 H   0  0  0  0  0  0  0  0  0  0  0  0
   -3.3309    1.5704   -0.6096 H   0  0  0  0  0  0  0  0  0  0  0  0
   -4.8221    0.9686    0.1545 H   0  0  0  0  0  0  0  0  0  0  0  0
    1.2251    0.9658   -1.4261 N   0  0  0  0  0  0  0  0  0  0  0  0
    2.2200    1.9110   -1.8758 C   0  0  2  0  0  0  0  0  0  0  0  0
    1.8720    2.3174   -3.3017 C   0  0  0  0  0  0  0  0  0  0  0  0
    1.1776    1.6275   -4.0453 O   0  0  0  0  0  0  0  0  0  0  0  0
    3.6185    1.3177   -1.8056 C   0  0  0  0  0  0  0  0  0  0  0  0
    0.9204    0.2506   -2.0797 H   0  0  0  0  0  0  0  0  0  0  0  0
    2.1467    2.7842   -1.2184 H   0  0  0  0  0  0  0  0  0  0  0  0
    3.7112    0.4417   -2.4579 H   0  0  0  0  0  0  0  0  0  0  0  0
    4.3743    2.0451   -2.1198 H   0  0  0  0  0  0  0  0  0  0  0  0
    3.8558    0.9987   -0.7850 H   0  0  0  0  0  0  0  0  0  0  0  0
    2.4637    3.5204   -3.6607 N   0  0  0  0  0  0  0  0  0  0  0  0
    2.2957    4.1126   -4.9672 C   0  0  0  0  0  0  0  0  0  0  0  0
    3.0081    4.0340   -2.9740 H   0  0  0  0  0  0  0  0  0  0  0  0
    3.1142    3.7869   -5.6260 H   0  0  0  0  0  0  0  0  0  0  0  0
    1.3331    3.7934   -5.3933 H   0  0  0  0  0  0  0  0  0  0  0  0
    2.3115    5.2089   -4.8775 H   0  0  0  0  0  0  0  0  0  0  0  0
  1  3  1  0  0  0  0
  1  7  1  0  0  0  0
  1  2  2  0  0  0  0
 35 36  1  0  0  0  0
 36 44  1  0  0  0  0
 36 37  2  0  0  0  0
  8  9  1  0  0  0  0
  9 17  1  0  0  0  0
  9 10  2  0  0  0  0
 18 19  1  0  0  0  0
 19 34  1  0  0  0  0
 19 20  2  0  0  0  0
 35 38  1  0  0  0  0
  8 11  1  0  0  0  0
 44 45  1  0  0  0  0
 23 24  1  0  0  0  0
 21 22  1  0  0  0  0
 18 21  1  0  0  0  0
 22 23  1  0  0  0  0
 34 35  1  0  0  0  0
  7  8  1  0  0  0  0
 17 18  1  0  0  0  0
  3  4  1  0  0  0  0
  3  5  1  0  0  0  0
  3  6  1  0  0  0  0
 38 41  1  0  0  0  0
 38 42  1  0  0  0  0
 38 43  1  0  0  0  0
 11 14  1  0  0  0  0
 11 15  1  0  0  0  0
 11 16  1  0  0  0  0
 45 47  1  0  0  0  0
 45 48  1  0  0  0  0
 45 49  1  0  0  0  0
 24 31  1  0  0  0  0
 24 32  1  0  0  0  0
 24 33  1  0  0  0  0
 21 27  1  0  0  0  0
 21 28  1  0  0  0  0
 22 29  1  0  0  0  0
 22 30  1  0  0  0  0
 35 40  1  0  0  0  0
  8 13  1  0  0  0  0
 18 26  1  0  0  0  0
 44 46  1  0  0  0  0
  7 12  1  0  0  0  0
 34 39  1  0  0  0  0
 17 25  1  0  0  0  0
M  END
$$$$

  -OEChem-05262214473D

 49 48  0     1  0  0  0  0  0999 V2000
   -0.0561   -5.3799    2.6949 C   0  0  0  0  0  0  0  0  0  0  0  0
    0.7325   -5.0736    3.5815 O   0  0  0  0  0  0  0  0  0  0  0  0
   -1.0067   -6.5099    2.9135 C   0  0  0  0  0  0  0  0  0  0  0  0
   -0.5910   -7.4777    2.5899 H   0  0  0  0  0  0  0  0  0  0  0  0
   -1.2629   -6.6440    3.9767 H   0  0  0  0  0  0  0  0  0  0  0  0
   -1.9729   -6.4206    2.3918 H   0  0  0  0  0  0  0  0  0  0  0  0
   -0.1735   -4.7694    1.4571 N   0  0  0  0  0  0  0  0  0  0  0  0
    0.6439   -3.6603    1.0409 C   0  0  2  0  0  0  0  0  0  0  0  0
   -0.2788   -2.5625    0.5280 C   0  0  0  0  0  0  0  0  0  0  0  0
   -1.4197   -2.7791    0.1251 O   0  0  0  0  0  0  0  0  0  0  0  0
    1.6395   -4.0779   -0.0301 C   0  0  0  0  0  0  0  0  0  0  0  0
   -0.8741   -5.1235    0.8083 H   0  0  0  0  0  0  0  0  0  0  0  0
    1.1738   -3.3062    1.9318 H   0  0  0  0  0  0  0  0  0  0  0  0
    1.1270   -4.4358   -0.9305 H   0  0  0  0  0  0  0  0  0  0  0  0
    2.2797   -3.2400   -0.3251 H   0  0  0  0  0  0  0  0  0  0  0  0
    2.2827   -4.8880    0.3303 H   0  0  0  0  0  0  0  0  0  0  0  0
    0.3351   -1.3153    0.5316 N   0  0  0  0  0  0  0  0  0  0  0  0
   -0.3268   -0.1184    0.0807 C   0  0  2  0  0  0  0  0  0  0  0  0
    0.7202    0.9703   -0.1337 C   0  0  0  0  0  0  0  0  0  0  0  0
    1.2399    1.5902    0.7919 O   0  0  0  0  0  0  0  0  0  0  0  0
   -1.4499    0.3154    1.0327 C   0  0  0  0  0  0  0  0  0  0  0  0
   -2.6214   -0.6680    1.0890 C   0  0  0  0  0  0  0  0  0  0  0  0
   -3.3912   -0.8366   -0.5489 S   0  0  0  0  0  0  0  0  0  0  0  0
   -4.1176    0.8139   -0.6663 C   0  0  0  0  0  0  0  0  0  0  0  0
    1.2790   -1.2290    0.9021 H   0  0  0  0  0  0  0  0  0  0  0  0
   -0.7621   -0.3668   -0.8949 H   0  0  0  0  0  0  0  0  0  0  0  0
   -1.8161    1.2992    0.7097 H   0  0  0  0  0  0  0  0  0  0  0  0
   -1.0347    0.4447    2.0404 H   0  0  0  0  0  0  0  0  0  0  0  0
   -3.3900   -0.3228    1.7869 H   0  0  0  0  0  0  0  0  0  0  0  0
   -2.2885   -1.6593    1.4105 H   0  0  0  0  0  0  0  0  0  0  0  0
   -4.6467    0.9205   -1.6164 H   0  0  0  0  0  0  0  0  0  0  0  0
   -3.3309    1.5704   -0.6096 H   0  0  0  0  0  0  0  0  0  0  0  0
   -4.8221    0.9686    0.1545 H   0  0  0  0  0  0  0  0  0  0  0  0
    0.9813    1.1899   -1.4786 N   0  0  0  0  0  0  0  0  0  0  0  0
    1.9269    2.1812   -1.9356 C   0  0  2  0  0  0  0  0  0  0  0  0
    1.3481    2.8458   -3.1777 C   0  0  0  0  0  0  0  0  0  0  0  0
    0.4947    2.3157   -3.8862 O   0  0  0  0  0  0  0  0  0  0  0  0
    3.2814    1.5576   -2.2340 C   0  0  0  0  0  0  0  0  0  0  0  0
    0.5256    0.6110   -2.1778 H   0  0  0  0  0  0  0  0  0  0  0  0
    2.0205    2.9221   -1.1343 H   0  0  0  0  0  0  0  0  0  0  0  0
    3.2076    0.8124   -3.0346 H   0  0  0  0  0  0  0  0  0  0  0  0
    4.0052    2.3148   -2.5531 H   0  0  0  0  0  0  0  0  0  0  0  0
    3.6826    1.0544   -1.3476 H   0  0  0  0  0  0  0  0  0  0  0  0
    1.9278    4.0820   -3.4263 N   0  0  0  0  0  0  0  0  0  0  0  0
    1.5573    4.9042   -4.5545 C   0  0  0  0  0  0  0  0  0  0  0  0
    2.6143    4.4519   -2.7754 H   0  0  0  0  0  0  0  0  0  0  0  0
    2.2242    4.6871   -5.4018 H   0  0  0  0  0  0  0  0  0  0  0  0
    0.5178    4.6864   -4.8410 H   0  0  0  0  0  0  0  0  0  0  0  0
    1.6472    5.9655   -4.2798 H   0  0  0  0  0  0  0  0  0  0  0  0
  1  3  1  0  0  0  0
  1  7  1  0  0  0  0
  1  2  2  0  0  0  0
 35 36  1  0  0  0  0
 36 44  1  0  0  0  0
 36 37  2  0  0  0  0
  8  9  1  0  0  0  0
  9 17  1  0  0  0  0
  9 10  2  0  0  0  0
 18 19  1  0  0  0  0
 19 34  1  0  0  0  0
 19 20  2  0  0  0  0
 35 38  1  0  0  0  0
  8 11  1  0  0  0  0
 44 45  1  0  0  0  0
 23 24  1  0  0  0  0
 21 22  1  0  0  0  0
 18 21  1  0  0  0  0
 22 23  1  0  0  0  0
 34 35  1  0  0  0  0
  7  8  1  0  0  0  0
 17 18  1  0  0  0  0
  3  4  1  0  0  0  0
  3  5  1  0  0  0  0
  3  6  1  0  0  0  0
 38 41  1  0  0  0  0
 38 42  1  0  0  0  0
 38 43  1  0  0  0  0
 11 14  1  0  0  0  0
 11 15  1  0  0  0  0
 11 16  1  0  0  0  0
 45 47  1  0  0  0  0
 45 48  1  0  0  0  0
 45 49  1  0  0  0  0
 24 31  1  0  0  0  0
 24 32  1  0  0  0  0
 24 33  1  0  0  0  0
 21 27  1  0  0  0  0
 21 28  1  0  0  0  0
 22 29  1  0  0  0  0
 22 30  1  0  0  0  0
 35 40  1  0  0  0  0
  8 13  1  0  0  0  0
 18 26  1  0  0  0  0
 44 46  1  0  0  0  0
  7 12  1  0  0  0  0
 34 39  1  0  0  0  0
 17 25  1  0  0  0  0
M  END
$$$$

  -OEChem-05262214473D

 49 48  0     1  0  0  0  0  0999 V2000
   -0.0561   -5.3799    2.6949 C   0  0  0  0  0  0  0  0  0  0  0  0
    0.7325   -5.0736    3.5815 O   0  0  0  0  0  0  0  0  0  0  0  0
   -1.0067   -6.5099    2.9135 C   0  0  0  0  0  0  0  0  0  0  0  0
   -0.5910   -7.4777    2.5899 H   0  0  0  0  0  0  0  0  0  0  0  0
   -1.2629   -6.6440    3.9767 H   0  0  0  0  0  0  0  0  0  0  0  0
   -1.9729   -6.4206    2.3918 H   0  0  0  0  0  0  0  0  0  0  0  0
   -0.1735   -4.7694    1.4571 N   0  0  0  0  0  0  0  0  0  0  0  0
    0.6439   -3.6603    1.0409 C   0  0  2  0  0  0  0  0  0  0  0  0
   -0.2788   -2.5625    0.5280 C   0  0  0  0  0  0  0  0  0  0  0  0
   -1.4197   -2.7791    0.1251 O   0  0  0  0  0  0  0  0  0  0  0  0
    1.6395   -4.0779   -0.0301 C   0  0  0  0  0  0  0  0  0  0  0  0
   -0.8741   -5.1235    0.8083 H   0  0  0  0  0  0  0  0  0  0  0  0
    1.1738   -3.3062    1.9318 H   0  0  0  0  0  0  0  0  0  0  0  0
    1.1270   -4.4358   -0.9305 H   0  0  0  0  0  0  0  0  0  0  0  0
    2.2797   -3.2400   -0.3251 H   0  0  0  0  0  0  0  0  0  0  0  0
    2.2827   -4.8880    0.3303 H   0  0  0  0  0  0  0  0  0  0  0  0
    0.3351   -1.3153    0.5316 N   0  0  0  0  0  0  0  0  0  0  0  0
   -0.3268   -0.1184    0.0807 C   0  0  2  0  0  0  0  0  0  0  0  0
    0.7202    0.9703   -0.1337 C   0  0  0  0  0  0  0  0  0  0  0  0
    1.4313    1.4020    0.7713 O   0  0  0  0  0  0  0  0  0  0  0  0
   -1.4499    0.3154    1.0327 C   0  0  0  0  0  0  0  0  0  0  0  0
   -2.6214   -0.6680    1.0890 C   0  0  0  0  0  0  0  0  0  0  0  0
   -3.3912   -0.8366   -0.5489 S   0  0  0  0  0  0  0  0  0  0  0  0
   -4.1176    0.8139   -0.6663 C   0  0  0  0  0  0  0  0  0  0  0  0
    1.2790   -1.2290    0.9021 H   0  0  0  0  0  0  0  0  0  0  0  0
   -0.7621   -0.3668   -0.8949 H   0  0  0  0  0  0  0  0  0  0  0  0
   -1.8161    1.2992    0.7097 H   0  0  0  0  0  0  0  0  0  0  0  0
   -1.0347    0.4447    2.0404 H   0  0  0  0  0  0  0  0  0  0  0  0
   -3.3900   -0.3228    1.7869 H   0  0  0  0  0  0  0  0  0  0  0  0
   -2.2885   -1.6593    1.4105 H   0  0  0  0  0  0  0  0  0  0  0  0
   -4.6467    0.9205   -1.6164 H   0  0  0  0  0  0  0  0  0  0  0  0
   -3.3309    1.5704   -0.6096 H   0  0  0  0  0  0  0  0  0  0  0  0
   -4.8221    0.9686    0.1545 H   0  0  0  0  0  0  0  0  0  0  0  0
    0.7443    1.4246   -1.4445 N   0  0  0  0  0  0  0  0  0  0  0  0
    1.6425    2.4634   -1.8913 C   0  0  2  0  0  0  0  0  0  0  0  0
    0.8841    3.3532   -2.8673 C   0  0  0  0  0  0  0  0  0  0  0  0
   -0.1105    2.9770   -3.4840 O   0  0  0  0  0  0  0  0  0  0  0  0
    2.8854    1.8776   -2.5430 C   0  0  0  0  0  0  0  0  0  0  0  0
    0.1393    0.9909   -2.1355 H   0  0  0  0  0  0  0  0  0  0  0  0
    1.9191    3.0450   -1.0052 H   0  0  0  0  0  0  0  0  0  0  0  0
    2.6282    1.2913   -3.4327 H   0  0  0  0  0  0  0  0  0  0  0  0
    3.5785    2.6656   -2.8555 H   0  0  0  0  0  0  0  0  0  0  0  0
    3.4135    1.2144   -1.8493 H   0  0  0  0  0  0  0  0  0  0  0  0
    1.4739    4.6023   -3.0012 N   0  0  0  0  0  0  0  0  0  0  0  0
    0.9490    5.6223   -3.8788 C   0  0  0  0  0  0  0  0  0  0  0  0
    2.2857    4.8347   -2.4367 H   0  0  0  0  0  0  0  0  0  0  0  0
    1.4387    5.5491   -4.8610 H   0  0  0  0  0  0  0  0  0  0  0  0
   -0.1352    5.4805   -3.9983 H   0  0  0  0  0  0  0  0  0  0  0  0
    1.1435    6.6144   -3.4453 H   0  0  0  0  0  0  0  0  0  0  0  0
  1  3  1  0  0  0  0
  1  7  1  0  0  0  0
  1  2  2  0  0  0  0
 35 36  1  0  0  0  0
 36 44  1  0  0  0  0
 36 37  2  0  0  0  0
  8  9  1  0  0  0  0
  9 17  1  0  0  0  0
  9 10  2  0  0  0  0
 18 19  1  0  0  0  0
 19 34  1  0  0  0  0
 19 20  2  0  0  0  0
 35 38  1  0  0  0  0
  8 11  1  0  0  0  0
 44 45  1  0  0  0  0
 23 24  1  0  0  0  0
 21 22  1  0  0  0  0
 18 21  1  0  0  0  0
 22 23  1  0  0  0  0
 34 35  1  0  0  0  0
  7  8  1  0  0  0  0
 17 18  1  0  0  0  0
  3  4  1  0  0  0  0
  3  5  1  0  0  0  0
  3  6  1  0  0  0  0
 38 41  1  0  0  0  0
 38 42  1  0  0  0  0
 38 43  1  0  0  0  0
 11 14  1  0  0  0  0
 11 15  1  0  0  0  0
 11 16  1  0  0  0  0
 45 47  1  0  0  0  0
 45 48  1  0  0  0  0
 45 49  1  0  0  0  0
 24 31  1  0  0  0  0
 24 32  1  0  0  0  0
 24 33  1  0  0  0  0
 21 27  1  0  0  0  0
 21 28  1  0  0  0  0
 22 29  1  0  0  0  0
 22 30  1  0  0  0  0
 35 40  1  0  0  0  0
  8 13  1  0  0  0  0
 18 26  1  0  0  0  0
 44 46  1  0  0  0  0
  7 12  1  0  0  0  0
 34 39  1  0  0  0  0
 17 25  1  0  0  0  0
M  END
$$$$

  -OEChem-05262214473D

 49 48  0     1  0  0  0  0  0999 V2000
   -0.0561   -5.3799    2.6949 C   0  0  0  0  0  0  0  0  0  0  0  0
    0.7325   -5.0736    3.5815 O   0  0  0  0  0  0  0  0  0  0  0  0
   -1.0067   -6.5099    2.9135 C   0  0  0  0  0  0  0  0  0  0  0  0
   -0.5910   -7.4777    2.5899 H   0  0  0  0  0  0  0  0  0  0  0  0
   -1.2629   -6.6440    3.9767 H   0  0  0  0  0  0  0  0  0  0  0  0
   -1.9729   -6.4206    2.3918 H   0  0  0  0  0  0  0  0  0  0  0  0
   -0.1735   -4.7694    1.4571 N   0  0  0  0  0  0  0  0  0  0  0  0
    0.6439   -3.6603    1.0409 C   0  0  2  0  0  0  0  0  0  0  0  0
   -0.2788   -2.5625    0.5280 C   0  0  0  0  0  0  0  0  0  0  0  0
   -1.4197   -2.7791    0.1251 O   0  0  0  0  0  0  0  0  0  0  0  0
    1.6395   -4.0779   -0.0301 C   0  0  0  0  0  0  0  0  0  0  0  0
   -0.8741   -5.1235    0.8083 H   0  0  0  0  0  0  0  0  0  0  0  0
    1.1738   -3.3062    1.9318 H   0  0  0  0  0  0  0  0  0  0  0  0
    1.1270   -4.4358   -0.9305 H   0  0  0  0  0  0  0  0  0  0  0  0
    2.2797   -3.2400   -0.3251 H   0  0  0  0  0  0  0  0  0  0  0  0
    2.2827   -4.8880    0.3303 H   0  0  0  0  0  0  0  0  0  0  0  0
    0.3351   -1.3153    0.5316 N   0  0  0  0  0  0  0  0  0  0  0  0
   -0.3268   -0.1184    0.0807 C   0  0  2  0  0  0  0  0  0  0  0  0
    0.7202    0.9703   -0.1337 C   0  0  0  0  0  0  0  0  0  0  0  0
    1.6056    1.2170    0.6827 O   0  0  0  0  0  0  0  0  0  0  0  0
   -1.4499    0.3154    1.0327 C   0  0  0  0  0  0  0  0  0  0  0  0
   -2.6214   -0.6680    1.0890 C   0  0  0  0  0  0  0  0  0  0  0  0
   -3.3912   -0.8366   -0.5489 S   0  0  0  0  0  0  0  0  0  0  0  0
   -4.1176    0.8139   -0.6663 C   0  0  0  0  0  0  0  0  0  0  0  0
    1.2790   -1.2290    0.9021 H   0  0  0  0  0  0  0  0  0  0  0  0
   -0.7621   -0.3668   -0.8949 H   0  0  0  0  0  0  0  0  0  0  0  0
   -1.8161    1.2992    0.7097 H   0  0  0  0  0  0  0  0  0  0  0  0
   -1.0347    0.4447    2.0404 H   0  0  0  0  0  0  0  0  0  0  0  0
   -3.3900   -0.3228    1.7869 H   0  0  0  0  0  0  0  0  0  0  0  0
   -2.2885   -1.6593    1.4105 H   0  0  0  0  0  0  0  0  0  0  0  0
   -4.6467    0.9205   -1.6164 H   0  0  0  0  0  0  0  0  0  0  0  0
   -3.3309    1.5704   -0.6096 H   0  0  0  0  0  0  0  0  0  0  0  0
   -4.8221    0.9686    0.1545 H   0  0  0  0  0  0  0  0  0  0  0  0
    0.5302    1.6539   -1.3261 N   0  0  0  0  0  0  0  0  0  0  0  0
    1.3863    2.7385   -1.7459 C   0  0  2  0  0  0  0  0  0  0  0  0
    0.5118    3.8050   -2.3917 C   0  0  0  0  0  0  0  0  0  0  0  0
   -0.5968    3.5664   -2.8664 O   0  0  0  0  0  0  0  0  0  0  0  0
    2.4575    2.2560   -2.7115 C   0  0  0  0  0  0  0  0  0  0  0  0
   -0.2123    1.3644   -1.9558 H   0  0  0  0  0  0  0  0  0  0  0  0
    1.8496    3.1445   -0.8400 H   0  0  0  0  0  0  0  0  0  0  0  0
    2.0124    1.8456   -3.6252 H   0  0  0  0  0  0  0  0  0  0  0  0
    3.1232    3.0738   -3.0065 H   0  0  0  0  0  0  0  0  0  0  0  0
    3.0667    1.4679   -2.2557 H   0  0  0  0  0  0  0  0  0  0  0  0
    1.1329    5.0459   -2.4143 N   0  0  0  0  0  0  0  0  0  0  0  0
    0.5124    6.2180   -2.9862 C   0  0  0  0  0  0  0  0  0  0  0  0
    2.0448    5.1562   -1.9807 H   0  0  0  0  0  0  0  0  0  0  0  0
    0.8112    6.3143   -4.0405 H   0  0  0  0  0  0  0  0  0  0  0  0
   -0.5815    6.1216   -2.9226 H   0  0  0  0  0  0  0  0  0  0  0  0
    0.8347    7.1112   -2.4309 H   0  0  0  0  0  0  0  0  0  0  0  0
  1  3  1  0  0  0  0
  1  7  1  0  0  0  0
  1  2  2  0  0  0  0
 35 36  1  0  0  0  0
 36 44  1  0  0  0  0
 36 37  2  0  0  0  0
  8  9  1  0  0  0  0
  9 17  1  0  0  0  0
  9 10  2  0  0  0  0
 18 19  1  0  0  0  0
 19 34  1  0  0  0  0
 19 20  2  0  0  0  0
 35 38  1  0  0  0  0
  8 11  1  0  0  0  0
 44 45  1  0  0  0  0
 23 24  1  0  0  0  0
 21 22  1  0  0  0  0
 18 21  1  0  0  0  0
 22 23  1  0  0  0  0
 34 35  1  0  0  0  0
  7  8  1  0  0  0  0
 17 18  1  0  0  0  0
  3  4  1  0  0  0  0
  3  5  1  0  0  0  0
  3  6  1  0  0  0  0
 38 41  1  0  0  0  0
 38 42  1  0  0  0  0
 38 43  1  0  0  0  0
 11 14  1  0  0  0  0
 11 15  1  0  0  0  0
 11 16  1  0  0  0  0
 45 47  1  0  0  0  0
 45 48  1  0  0  0  0
 45 49  1  0  0  0  0
 24 31  1  0  0  0  0
 24 32  1  0  0  0  0
 24 33  1  0  0  0  0
 21 27  1  0  0  0  0
 21 28  1  0  0  0  0
 22 29  1  0  0  0  0
 22 30  1  0  0  0  0
 35 40  1  0  0  0  0
  8 13  1  0  0  0  0
 18 26  1  0  0  0  0
 44 46  1  0  0  0  0
  7 12  1  0  0  0  0
 34 39  1  0  0  0  0
 17 25  1  0  0  0  0
M  END
$$$$

  -OEChem-05262214473D

 49 48  0     1  0  0  0  0  0999 V2000
   -0.0561   -5.3799    2.6949 C   0  0  0  0  0  0  0  0  0  0  0  0
    0.7325   -5.0736    3.5815 O   0  0  0  0  0  0  0  0  0  0  0  0
   -1.0067   -6.5099    2.9135 C   0  0  0  0  0  0  0  0  0  0  0  0
   -0.5910   -7.4777    2.5899 H   0  0  0  0  0  0  0  0  0  0  0  0
   -1.2629   -6.6440    3.9767 H   0  0  0  0  0  0  0  0  0  0  0  0
   -1.9729   -6.4206    2.3918 H   0  0  0  0  0  0  0  0  0  0  0  0
   -0.1735   -4.7694    1.4571 N   0  0  0  0  0  0  0  0  0  0  0  0
    0.6439   -3.6603    1.0409 C   0  0  2  0  0  0  0  0  0  0  0  0
   -0.2788   -2.5625    0.5280 C   0  0  0  0  0  0  0  0  0  0  0  0
   -1.4197   -2.7791    0.1251 O   0  0  0  0  0  0  0  0  0  0  0  0
    1.6395   -4.0779   -0.0301 C   0  0  0  0  0  0  0  0  0  0  0  0
   -0.8741   -5.1235    0.8083 H   0  0  0  0  0  0  0  0  0  0  0  0
    1.1738   -3.3062    1.9318 H   0  0  0  0  0  0  0  0  0  0  0  0
    1.1270   -4.4358   -0.9305 H   0  0  0  0  0  0  0  0  0  0  0  0
    2.2797   -3.2400   -0.3251 H   0  0  0  0  0  0  0  0  0  0  0  0
    2.2827   -4.8880    0.3303 H   0  0  0  0  0  0  0  0  0  0  0  0
    0.3351   -1.3153    0.5316 N   0  0  0  0  0  0  0  0  0  0  0  0
   -0.3268   -0.1184    0.0807 C   0  0  2  0  0  0  0  0  0  0  0  0
    0.7202    0.9703   -0.1337 C   0  0  0  0  0  0  0  0  0  0  0  0
    1.7508    1.0476    0.5319 O   0  0  0  0  0  0  0  0  0  0  0  0
   -1.4499    0.3154    1.0327 C   0  0  0  0  0  0  0  0  0  0  0  0
   -2.6214   -0.6680    1.0890 C   0  0  0  0  0  0  0  0  0  0  0  0
   -3.3912   -0.8366   -0.5489 S   0  0  0  0  0  0  0  0  0  0  0  0
   -4.1176    0.8139   -0.6663 C   0  0  0  0  0  0  0  0  0  0  0  0
    1.2790   -1.2290    0.9021 H   0  0  0  0  0  0  0  0  0  0  0  0
   -0.7621   -0.3668   -0.8949 H   0  0  0  0  0  0  0  0  0  0  0  0
   -1.8161    1.2992    0.7097 H   0  0  0  0  0  0  0  0  0  0  0  0
   -1.0347    0.4447    2.0404 H   0  0  0  0  0  0  0  0  0  0  0  0
   -3.3900   -0.3228    1.7869 H   0  0  0  0  0  0  0  0  0  0  0  0
   -2.2885   -1.6593    1.4105 H   0  0  0  0  0  0  0  0  0  0  0  0
   -4.6467    0.9205   -1.6164 H   0  0  0  0  0  0  0  0  0  0  0  0
   -3.3309    1.5704   -0.6096 H   0  0  0  0  0  0  0  0  0  0  0  0
   -4.8221    0.9686    0.1545 H   0  0  0  0  0  0  0  0  0  0  0  0
    0.3536    1.8621   -1.1314 N   0  0  0  0  0  0  0  0  0  0  0  0
    1.1757    2.9877   -1.5092 C   0  0  2  0  0  0  0  0  0  0  0  0
    0.2564    4.1705   -1.7832 C   0  0  0  0  0  0  0  0  0  0  0  0
   -0.9310    4.0437   -2.0752 O   0  0  0  0  0  0  0  0  0  0  0  0
    2.0268    2.6669   -2.7279 C   0  0  0  0  0  0  0  0  0  0  0  0
   -0.5051    1.7061   -1.6510 H   0  0  0  0  0  0  0  0  0  0  0  0
    1.8165    3.2138   -0.6499 H   0  0  0  0  0  0  0  0  0  0  0  0
    1.4022    2.4377   -3.5990 H   0  0  0  0  0  0  0  0  0  0  0  0
    2.6704    3.5114   -2.9958 H   0  0  0  0  0  0  0  0  0  0  0  0
    2.6659    1.7976   -2.5392 H   0  0  0  0  0  0  0  0  0  0  0  0
    0.9281    5.3825   -1.7057 N   0  0  0  0  0  0  0  0  0  0  0  0
    0.2772    6.6508   -1.9376 C   0  0  0  0  0  0  0  0  0  0  0  0
    1.9081    5.3945   -1.4388 H   0  0  0  0  0  0  0  0  0  0  0  0
    0.3845    6.9305   -2.9961 H   0  0  0  0  0  0  0  0  0  0  0  0
   -0.7905    6.5661   -1.6873 H   0  0  0  0  0  0  0  0  0  0  0  0
    0.7418    7.4222   -1.3058 H   0  0  0  0  0  0  0  0  0  0  0  0
  1  3  1  0  0  0  0
  1  7  1  0  0  0  0
  1  2  2  0  0  0  0
 35 36  1  0  0  0  0
 36 44  1  0  0  0  0
 36 37  2  0  0  0  0
  8  9  1  0  0  0  0
  9 17  1  0  0  0  0
  9 10  2  0  0  0  0
 18 19  1  0  0  0  0
 19 34  1  0  0  0  0
 19 20  2  0  0  0  0
 35 38  1  0  0  0  0
  8 11  1  0  0  0  0
 44 45  1  0  0  0  0
 23 24  1  0  0  0  0
 21 22  1  0  0  0  0
 18 21  1  0  0  0  0
 22 23  1  0  0  0  0
 34 35  1  0  0  0  0
  7  8  1  0  0  0  0
 17 18  1  0  0  0  0
  3  4  1  0  0  0  0
  3  5  1  0  0  0  0
  3  6  1  0  0  0  0
 38 41  1  0  0  0  0
 38 42  1  0  0  0  0
 38 43  1  0  0  0  0
 11 14  1  0  0  0  0
 11 15  1  0  0  0  0
 11 16  1  0  0  0  0
 45 47  1  0  0  0  0
 45 48  1  0  0  0  0
 45 49  1  0  0  0  0
 24 31  1  0  0  0  0
 24 32  1  0  0  0  0
 24 33  1  0  0  0  0
 21 27  1  0  0  0  0
 21 28  1  0  0  0  0
 22 29  1  0  0  0  0
 22 30  1  0  0  0  0
 35 40  1  0  0  0  0
  8 13  1  0  0  0  0
 18 26  1  0  0  0  0
 44 46  1  0  0  0  0
  7 12  1  0  0  0  0
 34 39  1  0  0  0  0
 17 25  1  0  0  0  0
M  END
$$$$

  -OEChem-05262214473D

 49 48  0     1  0  0  0  0  0999 V2000
   -0.0561   -5.3799    2.6949 C   0  0  0  0  0  0  0  0  0  0  0  0
    0.7325   -5.0736    3.5815 O   0  0  0  0  0  0  0  0  0  0  0  0
   -1.0067   -6.5099    2.9135 C   0  0  0  0  0  0  0  0  0  0  0  0
   -0.5910   -7.4777    2.5899 H   0  0  0  0  0  0  0  0  0  0  0  0
   -1.2629   -6.6440    3.9767 H   0  0  0  0  0  0  0  0  0  0  0  0
   -1.9729   -6.4206    2.3918 H   0  0  0  0  0  0  0  0  0  0  0  0
   -0.1735   -4.7694    1.4571 N   0  0  0  0  0  0  0  0  0  0  0  0
    0.6439   -3.6603    1.0409 C   0  0  2  0  0  0  0  0  0  0  0  0
   -0.2788   -2.5625    0.5280 C   0  0  0  0  0  0  0  0  0  0  0  0
   -1.4197   -2.7791    0.1251 O   0  0  0  0  0  0  0  0  0  0  0  0
    1.6395   -4.0779   -0.0301 C   0  0  0  0  0  0  0  0  0  0  0  0
   -0.8741   -5.1235    0.8083 H   0  0  0  0  0  0  0  0  0  0  0  0
    1.1738   -3.3062    1.9318 H   0  0  0  0  0  0  0  0  0  0  0  0
    1.1270   -4.4358   -0.9305 H   0  0  0  0  0  0  0  0  0  0  0  0
    2.2797   -3.2400   -0.3251 H   0  0  0  0  0  0  0  0  0  0  0  0
    2.2827   -4.8880    0.3303 H   0  0  0  0  0  0  0  0  0  0  0  0
    0.3351   -1.3153    0.5316 N   0  0  0  0  0  0  0  0  0  0  0  0
   -0.3268   -0.1184    0.0807 C   0  0  2  0  0  0  0  0  0  0  0  0
    0.7202    0.9703   -0.1337 C   0  0  0  0  0  0  0  0  0  0  0  0
    1.8571    0.9055    0.3295 O   0  0  0  0  0  0  0  0  0  0  0  0
   -1.4499    0.3154    1.0327 C   0  0  0  0  0  0  0  0  0  0  0  0
   -2.6214   -0.6680    1.0890 C   0  0  0  0  0  0  0  0  0  0  0  0
   -3.3912   -0.8366   -0.5489 S   0  0  0  0  0  0  0  0  0  0  0  0
   -4.1176    0.8139   -0.6663 C   0  0  0  0  0  0  0  0  0  0  0  0
    1.2790   -1.2290    0.9021 H   0  0  0  0  0  0  0  0  0  0  0  0
   -0.7621   -0.3668   -0.8949 H   0  0  0  0  0  0  0  0  0  0  0  0
   -1.8161    1.2992    0.7097 H   0  0  0  0  0  0  0  0  0  0  0  0
   -1.0347    0.4447    2.0404 H   0  0  0  0  0  0  0  0  0  0  0  0
   -3.3900   -0.3228    1.7869 H   0  0  0  0  0  0  0  0  0  0  0  0
   -2.2885   -1.6593    1.4105 H   0  0  0  0  0  0  0  0  0  0  0  0
   -4.6467    0.9205   -1.6164 H   0  0  0  0  0  0  0  0  0  0  0  0
   -3.3309    1.5704   -0.6096 H   0  0  0  0  0  0  0  0  0  0  0  0
   -4.8221    0.9686    0.1545 H   0  0  0  0  0  0  0  0  0  0  0  0
    0.2266    2.0350   -0.8738 N   0  0  0  0  0  0  0  0  0  0  0  0
    1.0251    3.1940   -1.1974 C   0  0  2  0  0  0  0  0  0  0  0  0
    0.1353    4.4248   -1.0834 C   0  0  0  0  0  0  0  0  0  0  0  0
   -1.0903    4.3763   -1.1645 O   0  0  0  0  0  0  0  0  0  0  0  0
    1.6228    3.0825   -2.5913 C   0  0  0  0  0  0  0  0  0  0  0  0
   -0.7192    1.9926   -1.2418 H   0  0  0  0  0  0  0  0  0  0  0  0
    1.8221    3.2481   -0.4479 H   0  0  0  0  0  0  0  0  0  0  0  0
    0.8392    3.0271   -3.3558 H   0  0  0  0  0  0  0  0  0  0  0  0
    2.2509    3.9487   -2.8241 H   0  0  0  0  0  0  0  0  0  0  0  0
    2.2384    2.1809   -2.6805 H   0  0  0  0  0  0  0  0  0  0  0  0
    0.8733    5.5892   -0.9236 N   0  0  0  0  0  0  0  0  0  0  0  0
    0.2595    6.8911   -0.8045 C   0  0  0  0  0  0  0  0  0  0  0  0
    1.8847    5.5334   -0.8477 H   0  0  0  0  0  0  0  0  0  0  0  0
    0.1877    7.3556   -1.7990 H   0  0  0  0  0  0  0  0  0  0  0  0
   -0.7482    6.7835   -0.3766 H   0  0  0  0  0  0  0  0  0  0  0  0
    0.8712    7.5261   -0.1467 H   0  0  0  0  0  0  0  0  0  0  0  0
  1  3  1  0  0  0  0
  1  7  1  0  0  0  0
  1  2  2  0  0  0  0
 35 36  1  0  0  0  0
 36 44  1  0  0  0  0
 36 37  2  0  0  0  0
  8  9  1  0  0  0  0
  9 17  1  0  0  0  0
  9 10  2  0  0  0  0
 18 19  1  0  0  0  0
 19 34  1  0  0  0  0
 19 20  2  0  0  0  0
 35 38  1  0  0  0  0
  8 11  1  0  0  0  0
 44 45  1  0  0  0  0
 23 24  1  0  0  0  0
 21 22  1  0  0  0  0
 18 21  1  0  0  0  0
 22 23  1  0  0  0  0
 34 35  1  0  0  0  0
  7  8  1  0  0  0  0
 17 18  1  0  0  0  0
  3  4  1  0  0  0  0
  3  5  1  0  0  0  0
  3  6  1  0  0  0  0
 38 41  1  0  0  0  0
 38 42  1  0  0  0  0
 38 43  1  0  0  0  0
 11 14  1  0  0  0  0
 11 15  1  0  0  0  0
 11 16  1  0  0  0  0
 45 47  1  0  0  0  0
 45 48  1  0  0  0  0
 45 49  1  0  0  0  0
 24 31  1  0  0  0  0
 24 32  1  0  0  0  0
 24 33  1  0  0  0  0
 21 27  1  0  0  0  0
 21 28  1  0  0  0  0
 22 29  1  0  0  0  0
 22 30  1  0  0  0  0
 35 40  1  0  0  0  0
  8 13  1  0  0  0  0
 18 26  1  0  0  0  0
 44 46  1  0  0  0  0
  7 12  1  0  0  0  0
 34 39  1  0  0  0  0
 17 25  1  0  0  0  0
M  END
$$$$

  -OEChem-05262214473D

 49 48  0     1  0  0  0  0  0999 V2000
   -0.0561   -5.3799    2.6949 C   0  0  0  0  0  0  0  0  0  0  0  0
    0.7325   -5.0736    3.5815 O   0  0  0  0  0  0  0  0  0  0  0  0
   -1.0067   -6.5099    2.9135 C   0  0  0  0  0  0  0  0  0  0  0  0
   -0.5910   -7.4777    2.5899 H   0  0  0  0  0  0  0  0  0  0  0  0
   -1.2629   -6.6440    3.9767 H   0  0  0  0  0  0  0  0  0  0  0  0
   -1.9729   -6.4206    2.3918 H   0  0  0  0  0  0  0  0  0  0  0  0
   -0.1735   -4.7694    1.4571 N   0  0  0  0  0  0  0  0  0  0  0  0
    0.6439   -3.6603    1.0409 C   0  0  2  0  0  0  0  0  0  0  0  0
   -0.2788   -2.5625    0.5280 C   0  0  0  0  0  0  0  0  0  0  0  0
   -1.4197   -2.7791    0.1251 O   0  0  0  0  0  0  0  0  0  0  0  0
    1.6395   -4.0779   -0.0301 C   0  0  0  0  0  0  0  0  0  0  0  0
   -0.8741   -5.1235    0.8083 H   0  0  0  0  0  0  0  0  0  0  0  0
    1.1738   -3.3062    1.9318 H   0  0  0  0  0  0  0  0  0  0  0  0
    1.1270   -4.4358   -0.9305 H   0  0  0  0  0  0  0  0  0  0  0  0
    2.2797   -3.2400   -0.3251 H   0  0  0  0  0  0  0  0  0  0  0  0
    2.2827   -4.8880    0.3303 H   0  0  0  0  0  0  0  0  0  0  0  0
    0.3351   -1.3153    0.5316 N   0  0  0  0  0  0  0  0  0  0  0  0
   -0.3268   -0.1184    0.0807 C   0  0  2  0  0  0  0  0  0  0  0  0
    0.7190    0.8367   -0.4864 C   0  0  0  0  0  0  0  0  0  0  0  0
    1.9212    0.5805   -0.5004 O   0  0  0  0  0  0  0  0  0  0  0  0
   -1.1808    0.5213    1.1841 C   0  0  0  0  0  0  0  0  0  0  0  0
   -2.3752   -0.3355    1.6106 C   0  0  0  0  0  0  0  0  0  0  0  0
   -3.4962   -0.6102    0.2064 S   0  0  0  0  0  0  0  0  0  0  0  0
   -4.1166    1.0783    0.0343 C   0  0  0  0  0  0  0  0  0  0  0  0
    1.2790   -1.2290    0.9021 H   0  0  0  0  0  0  0  0  0  0  0  0
   -0.9819   -0.4307   -0.7417 H   0  0  0  0  0  0  0  0  0  0  0  0
   -1.5413    1.4935    0.8222 H   0  0  0  0  0  0  0  0  0  0  0  0
   -0.5462    0.7211    2.0570 H   0  0  0  0  0  0  0  0  0  0  0  0
   -2.9462    0.1552    2.4044 H   0  0  0  0  0  0  0  0  0  0  0  0
   -2.0480   -1.3122    1.9790 H   0  0  0  0  0  0  0  0  0  0  0  0
   -4.8333    1.1290   -0.7890 H   0  0  0  0  0  0  0  0  0  0  0  0
   -3.2872    1.7591   -0.1727 H   0  0  0  0  0  0  0  0  0  0  0  0
   -4.6111    1.3880    0.9582 H   0  0  0  0  0  0  0  0  0  0  0  0
    0.1564    2.0196   -0.9440 N   0  0  0  0  0  0  0  0  0  0  0  0
    0.9451    3.0869   -1.5135 C   0  0  2  0  0  0  0  0  0  0  0  0
    0.3689    4.4095   -1.0254 C   0  0  0  0  0  0  0  0  0  0  0  0
   -0.7881    4.5314   -0.6286 O   0  0  0  0  0  0  0  0  0  0  0  0
    0.9479    3.0228   -3.0329 C   0  0  0  0  0  0  0  0  0  0  0  0
   -0.8523    2.1362   -0.9194 H   0  0  0  0  0  0  0  0  0  0  0  0
    1.9638    2.9674   -1.1285 H   0  0  0  0  0  0  0  0  0  0  0  0
   -0.0642    3.1406   -3.4369 H   0  0  0  0  0  0  0  0  0  0  0  0
    1.5695    3.8154   -3.4623 H   0  0  0  0  0  0  0  0  0  0  0  0
    1.3349    2.0593   -3.3816 H   0  0  0  0  0  0  0  0  0  0  0  0
    1.2855    5.4468   -1.1258 N   0  0  0  0  0  0  0  0  0  0  0  0
    0.9742    6.8025   -0.7372 C   0  0  0  0  0  0  0  0  0  0  0  0
    2.2286    5.2508   -1.4481 H   0  0  0  0  0  0  0  0  0  0  0  0
    0.6067    7.3598   -1.6115 H   0  0  0  0  0  0  0  0  0  0  0  0
    0.1987    6.7914    0.0428 H   0  0  0  0  0  0  0  0  0  0  0  0
    1.8801    7.2891   -0.3467 H   0  0  0  0  0  0  0  0  0  0  0  0
  1  3  1  0  0  0  0
  1  7  1  0  0  0  0
  1  2  2  0  0  0  0
 35 36  1  0  0  0  0
 36 44  1  0  0  0  0
 36 37  2  0  0  0  0
  8  9  1  0  0  0  0
  9 17  1  0  0  0  0
  9 10  2  0  0  0  0
 18 19  1  0  0  0  0
 19 34  1  0  0  0  0
 19 20  2  0  0  0  0
 35 38  1  0  0  0  0
  8 11  1  0  0  0  0
 44 45  1  0  0  0  0
 23 24  1  0  0  0  0
 21 22  1  0  0  0  0
 18 21  1  0  0  0  0
 22 23  1  0  0  0  0
 34 35  1  0  0  0  0
  7  8  1  0  0  0  0
 17 18  1  0  0  0  0
  3  4  1  0  0  0  0
  3  5  1  0  0  0  0
  3  6  1  0  0  0  0
 38 41  1  0  0  0  0
 38 42  1  0  0  0  0
 38 43  1  0  0  0  0
 11 14  1  0  0  0  0
 11 15  1  0  0  0  0
 11 16  1  0  0  0  0
 45 47  1  0  0  0  0
 45 48  1  0  0  0  0
 45 49  1  0  0  0  0
 24 31  1  0  0  0  0
 24 32  1  0  0  0  0
 24 33  1  0  0  0  0
 21 27  1  0  0  0  0
 21 28  1  0  0  0  0
 22 29  1  0  0  0  0
 22 30  1  0  0  0  0
 35 40  1  0  0  0  0
  8 13  1  0  0  0  0
 18 26  1  0  0  0  0
 44 46  1  0  0  0  0
  7 12  1  0  0  0  0
 34 39  1  0  0  0  0
 17 25  1  0  0  0  0
M  END
$$$$

  -OEChem-05262214473D

 49 48  0     1  0  0  0  0  0999 V2000
   -0.0561   -5.3799    2.6949 C   0  0  0  0  0  0  0  0  0  0  0  0
    0.7325   -5.0736    3.5815 O   0  0  0  0  0  0  0  0  0  0  0  0
   -1.0067   -6.5099    2.9135 C   0  0  0  0  0  0  0  0  0  0  0  0
   -0.5910   -7.4777    2.5899 H   0  0  0  0  0  0  0  0  0  0  0  0
   -1.2629   -6.6440    3.9767 H   0  0  0  0  0  0  0  0  0  0  0  0
   -1.9729   -6.4206    2.3918 H   0  0  0  0  0  0  0  0  0  0  0  0
   -0.1735   -4.7694    1.4571 N   0  0  0  0  0  0  0  0  0  0  0  0
    0.6439   -3.6603    1.0409 C   0  0  2  0  0  0  0  0  0  0  0  0
   -0.2788   -2.5625    0.5280 C   0  0  0  0  0  0  0  0  0  0  0  0
   -1.4197   -2.7791    0.1251 O   0  0  0  0  0  0  0  0  0  0  0  0
    1.6395   -4.0779   -0.0301 C   0  0  0  0  0  0  0  0  0  0  0  0
   -0.8741   -5.1235    0.8083 H   0  0  0  0  0  0  0  0  0  0  0  0
    1.1738   -3.3062    1.9318 H   0  0  0  0  0  0  0  0  0  0  0  0
    1.1270   -4.4358   -0.9305 H   0  0  0  0  0  0  0  0  0  0  0  0
    2.2797   -3.2400   -0.3251 H   0  0  0  0  0  0  0  0  0  0  0  0
    2.2827   -4.8880    0.3303 H   0  0  0  0  0  0  0  0  0  0  0  0
    0.3351   -1.3153    0.5316 N   0  0  0  0  0  0  0  0  0  0  0  0
   -0.3268   -0.1184    0.0807 C   0  0  2  0  0  0  0  0  0  0  0  0
    0.7190    0.8367   -0.4864 C   0  0  0  0  0  0  0  0  0  0  0  0
    1.8689    0.4903   -0.7486 O   0  0  0  0  0  0  0  0  0  0  0  0
   -1.1808    0.5213    1.1841 C   0  0  0  0  0  0  0  0  0  0  0  0
   -2.3752   -0.3355    1.6106 C   0  0  0  0  0  0  0  0  0  0  0  0
   -3.4962   -0.6102    0.2064 S   0  0  0  0  0  0  0  0  0  0  0  0
   -4.1166    1.0783    0.0343 C   0  0  0  0  0  0  0  0  0  0  0  0
    1.2790   -1.2290    0.9021 H   0  0  0  0  0  0  0  0  0  0  0  0
   -0.9819   -0.4307   -0.7417 H   0  0  0  0  0  0  0  0  0  0  0  0
   -1.5413    1.4935    0.8222 H   0  0  0  0  0  0  0  0  0  0  0  0
   -0.5462    0.7211    2.0570 H   0  0  0  0  0  0  0  0  0  0  0  0
   -2.9462    0.1552    2.4044 H   0  0  0  0  0  0  0  0  0  0  0  0
   -2.0480   -1.3122    1.9790 H   0  0  0  0  0  0  0  0  0  0  0  0
   -4.8333    1.1290   -0.7890 H   0  0  0  0  0  0  0  0  0  0  0  0
   -3.2872    1.7591   -0.1727 H   0  0  0  0  0  0  0  0  0  0  0  0
   -4.6111    1.3880    0.9582 H   0  0  0  0  0  0  0  0  0  0  0  0
    0.2275    2.1258   -0.6340 N   0  0  0  0  0  0  0  0  0  0  0  0
    1.0330    3.2121   -1.1405 C   0  0  2  0  0  0  0  0  0  0  0  0
    0.6886    4.4639   -0.3443 C   0  0  0  0  0  0  0  0  0  0  0  0
   -0.3732    4.6041    0.2590 O   0  0  0  0  0  0  0  0  0  0  0  0
    0.7956    3.4308   -2.6267 C   0  0  0  0  0  0  0  0  0  0  0  0
   -0.7463    2.3177   -0.4183 H   0  0  0  0  0  0  0  0  0  0  0  0
    2.0790    2.9407   -0.9610 H   0  0  0  0  0  0  0  0  0  0  0  0
   -0.2471    3.7036   -2.8261 H   0  0  0  0  0  0  0  0  0  0  0  0
    1.4280    4.2359   -3.0152 H   0  0  0  0  0  0  0  0  0  0  0  0
    1.0153    2.5203   -3.1945 H   0  0  0  0  0  0  0  0  0  0  0  0
    1.6882    5.4235   -0.4223 N   0  0  0  0  0  0  0  0  0  0  0  0
    1.5923    6.7046    0.2377 C   0  0  0  0  0  0  0  0  0  0  0  0
    2.5431    5.2144   -0.9294 H   0  0  0  0  0  0  0  0  0  0  0  0
    1.1591    7.4424   -0.4537 H   0  0  0  0  0  0  0  0  0  0  0  0
    0.9492    6.6124    1.1253 H   0  0  0  0  0  0  0  0  0  0  0  0
    2.5957    7.0348    0.5445 H   0  0  0  0  0  0  0  0  0  0  0  0
  1  3  1  0  0  0  0
  1  7  1  0  0  0  0
  1  2  2  0  0  0  0
 35 36  1  0  0  0  0
 36 44  1  0  0  0  0
 36 37  2  0  0  0  0
  8  9  1  0  0  0  0
  9 17  1  0  0  0  0
  9 10  2  0  0  0  0
 18 19  1  0  0  0  0
 19 34  1  0  0  0  0
 19 20  2  0  0  0  0
 35 38  1  0  0  0  0
  8 11  1  0  0  0  0
 44 45  1  0  0  0  0
 23 24  1  0  0  0  0
 21 22  1  0  0  0  0
 18 21  1  0  0  0  0
 22 23  1  0  0  0  0
 34 35  1  0  0  0  0
  7  8  1  0  0  0  0
 17 18  1  0  0  0  0
  3  4  1  0  0  0  0
  3  5  1  0  0  0  0
  3  6  1  0  0  0  0
 38 41  1  0  0  0  0
 38 42  1  0  0  0  0
 38 43  1  0  0  0  0
 11 14  1  0  0  0  0
 11 15  1  0  0  0  0
 11 16  1  0  0  0  0
 45 47  1  0  0  0  0
 45 48  1  0  0  0  0
 45 49  1  0  0  0  0
 24 31  1  0  0  0  0
 24 32  1  0  0  0  0
 24 33  1  0  0  0  0
 21 27  1  0  0  0  0
 21 28  1  0  0  0  0
 22 29  1  0  0  0  0
 22 30  1  0  0  0  0
 35 40  1  0  0  0  0
  8 13  1  0  0  0  0
 18 26  1  0  0  0  0
 44 46  1  0  0  0  0
  7 12  1  0  0  0  0
 34 39  1  0  0  0  0
 17 25  1  0  0  0  0
M  END
$$$$

  -OEChem-05262214473D

 49 48  0     1  0  0  0  0  0999 V2000
   -0.0561   -5.3799    2.6949 C   0  0  0  0  0  0  0  0  0  0  0  0
    0.7325   -5.0736    3.5815 O   0  0  0  0  0  0  0  0  0  0  0  0
   -1.0067   -6.5099    2.9135 C   0  0  0  0  0  0  0  0  0  0  0  0
   -0.5910   -7.4777    2.5899 H   0  0  0  0  0  0  0  0  0  0  0  0
   -1.2629   -6.6440    3.9767 H   0  0  0  0  0  0  0  0  0  0  0  0
   -1.9729   -6.4206    2.3918 H   0  0  0  0  0  0  0  0  0  0  0  0
   -0.1735   -4.7694    1.4571 N   0  0  0  0  0  0  0  0  0  0  0  0
    0.6439   -3.6603    1.0409 C   0  0  2  0  0  0  0  0  0  0  0  0
   -0.2788   -2.5625    0.5280 C   0  0  0  0  0  0  0  0  0  0  0  0
   -1.4197   -2.7791    0.1251 O   0  0  0  0  0  0  0  0  0  0  0  0
    1.6395   -4.0779   -0.0301 C   0  0  0  0  0  0  0  0  0  0  0  0
   -0.8741   -5.1235    0.8083 H   0  0  0  0  0  0  0  0  0  0  0  0
    1.1738   -3.3062    1.9318 H   0  0  0  0  0  0  0  0  0  0  0  0
    1.1270   -4.4358   -0.9305 H   0  0  0  0  0  0  0  0  0  0  0  0
    2.2797   -3.2400   -0.3251 H   0  0  0  0  0  0  0  0  0  0  0  0
    2.2827   -4.8880    0.3303 H   0  0  0  0  0  0  0  0  0  0  0  0
    0.3351   -1.3153    0.5316 N   0  0  0  0  0  0  0  0  0  0  0  0
   -0.3268   -0.1184    0.0807 C   0  0  2  0  0  0  0  0  0  0  0  0
    0.7190    0.8367   -0.4864 C   0  0  0  0  0  0  0  0  0  0  0  0
    1.7696    0.4523   -0.9960 O   0  0  0  0  0  0  0  0  0  0  0  0
   -1.1808    0.5213    1.1841 C   0  0  0  0  0  0  0  0  0  0  0  0
   -2.3752   -0.3355    1.6106 C   0  0  0  0  0  0  0  0  0  0  0  0
   -3.4962   -0.6102    0.2064 S   0  0  0  0  0  0  0  0  0  0  0  0
   -4.1166    1.0783    0.0343 C   0  0  0  0  0  0  0  0  0  0  0  0
    1.2790   -1.2290    0.9021 H   0  0  0  0  0  0  0  0  0  0  0  0
   -0.9819   -0.4307   -0.7417 H   0  0  0  0  0  0  0  0  0  0  0  0
   -1.5413    1.4935    0.8222 H   0  0  0  0  0  0  0  0  0  0  0  0
   -0.5462    0.7211    2.0570 H   0  0  0  0  0  0  0  0  0  0  0  0
   -2.9462    0.1552    2.4044 H   0  0  0  0  0  0  0  0  0  0  0  0
   -2.0480   -1.3122    1.9790 H   0  0  0  0  0  0  0  0  0  0  0  0
   -4.8333    1.1290   -0.7890 H   0  0  0  0  0  0  0  0  0  0  0  0
   -3.2872    1.7591   -0.1727 H   0  0  0  0  0  0  0  0  0  0  0  0
   -4.6111    1.3880    0.9582 H   0  0  0  0  0  0  0  0  0  0  0  0
    0.3566    2.1666   -0.3273 N   0  0  0  0  0  0  0  0  0  0  0  0
    1.1902    3.2585   -0.7723 C   0  0  2  0  0  0  0  0  0  0  0  0
    1.1129    4.3649    0.2715 C   0  0  0  0  0  0  0  0  0  0  0  0
    0.1784    4.4770    1.0621 O   0  0  0  0  0  0  0  0  0  0  0  0
    0.7535    3.7675   -2.1372 C   0  0  0  0  0  0  0  0  0  0  0  0
   -0.5453    2.3939    0.0809 H   0  0  0  0  0  0  0  0  0  0  0  0
    2.2148    2.8741   -0.8226 H   0  0  0  0  0  0  0  0  0  0  0  0
   -0.2707    4.1567   -2.1066 H   0  0  0  0  0  0  0  0  0  0  0  0
    1.4041    4.5763   -2.4859 H   0  0  0  0  0  0  0  0  0  0  0  0
    0.7813    2.9632   -2.8803 H   0  0  0  0  0  0  0  0  0  0  0  0
    2.1889    5.2375    0.1877 N   0  0  0  0  0  0  0  0  0  0  0  0
    2.3379    6.3776    1.0619 C   0  0  0  0  0  0  0  0  0  0  0  0
    2.9274    5.0570   -0.4859 H   0  0  0  0  0  0  0  0  0  0  0  0
    1.8883    7.2635    0.5898 H   0  0  0  0  0  0  0  0  0  0  0  0
    1.8324    6.1752    2.0176 H   0  0  0  0  0  0  0  0  0  0  0  0
    3.4069    6.5622    1.2444 H   0  0  0  0  0  0  0  0  0  0  0  0
  1  3  1  0  0  0  0
  1  7  1  0  0  0  0
  1  2  2  0  0  0  0
 35 36  1  0  0  0  0
 36 44  1  0  0  0  0
 36 37  2  0  0  0  0
  8  9  1  0  0  0  0
  9 17  1  0  0  0  0
  9 10  2  0  0  0  0
 18 19  1  0  0  0  0
 19 34  1  0  0  0  0
 19 20  2  0  0  0  0
 35 38  1  0  0  0  0
  8 11  1  0  0  0  0
 44 45  1  0  0  0  0
 23 24  1  0  0  0  0
 21 22  1  0  0  0  0
 18 21  1  0  0  0  0
 22 23  1  0  0  0  0
 34 35  1  0  0  0  0
  7  8  1  0  0  0  0
 17 18  1  0  0  0  0
  3  4  1  0  0  0  0
  3  5  1  0  0  0  0
  3  6  1  0  0  0  0
 38 41  1  0  0  0  0
 38 42  1  0  0  0  0
 38 43  1  0  0  0  0
 11 14  1  0  0  0  0
 11 15  1  0  0  0  0
 11 16  1  0  0  0  0
 45 47  1  0  0  0  0
 45 48  1  0  0  0  0
 45 49  1  0  0  0  0
 24 31  1  0  0  0  0
 24 32  1  0  0  0  0
 24 33  1  0  0  0  0
 21 27  1  0  0  0  0
 21 28  1  0  0  0  0
 22 29  1  0  0  0  0
 22 30  1  0  0  0  0
 35 40  1  0  0  0  0
  8 13  1  0  0  0  0
 18 26  1  0  0  0  0
 44 46  1  0  0  0  0
  7 12  1  0  0  0  0
 34 39  1  0  0  0  0
 17 25  1  0  0  0  0
M  END
$$$$

  -OEChem-05262214473D

 49 48  0     1  0  0  0  0  0999 V2000
   -0.0561   -5.3799    2.6949 C   0  0  0  0  0  0  0  0  0  0  0  0
    0.7325   -5.0736    3.5815 O   0  0  0  0  0  0  0  0  0  0  0  0
   -1.0067   -6.5099    2.9135 C   0  0  0  0  0  0  0  0  0  0  0  0
   -0.5910   -7.4777    2.5899 H   0  0  0  0  0  0  0  0  0  0  0  0
   -1.2629   -6.6440    3.9767 H   0  0  0  0  0  0  0  0  0  0  0  0
   -1.9729   -6.4206    2.3918 H   0  0  0  0  0  0  0  0  0  0  0  0
   -0.1735   -4.7694    1.4571 N   0  0  0  0  0  0  0  0  0  0  0  0
    0.6439   -3.6603    1.0409 C   0  0  2  0  0  0  0  0  0  0  0  0
   -0.2788   -2.5625    0.5280 C   0  0  0  0  0  0  0  0  0  0  0  0
   -1.4197   -2.7791    0.1251 O   0  0  0  0  0  0  0  0  0  0  0  0
    1.6395   -4.0779   -0.0301 C   0  0  0  0  0  0  0  0  0  0  0  0
   -0.8741   -5.1235    0.8083 H   0  0  0  0  0  0  0  0  0  0  0  0
    1.1738   -3.3062    1.9318 H   0  0  0  0  0  0  0  0  0  0  0  0
    1.1270   -4.4358   -0.9305 H   0  0  0  0  0  0  0  0  0  0  0  0
    2.2797   -3.2400   -0.3251 H   0  0  0  0  0  0  0  0  0  0  0  0
    2.2827   -4.8880    0.3303 H   0  0  0  0  0  0  0  0  0  0  0  0
    0.3351   -1.3153    0.5316 N   0  0  0  0  0  0  0  0  0  0  0  0
   -0.3268   -0.1184    0.0807 C   0  0  2  0  0  0  0  0  0  0  0  0
    0.7190    0.8367   -0.4864 C   0  0  0  0  0  0  0  0  0  0  0  0
    1.6298    0.4690   -1.2255 O   0  0  0  0  0  0  0  0  0  0  0  0
   -1.1808    0.5213    1.1841 C   0  0  0  0  0  0  0  0  0  0  0  0
   -2.3752   -0.3355    1.6106 C   0  0  0  0  0  0  0  0  0  0  0  0
   -3.4962   -0.6102    0.2064 S   0  0  0  0  0  0  0  0  0  0  0  0
   -4.1166    1.0783    0.0343 C   0  0  0  0  0  0  0  0  0  0  0  0
    1.2790   -1.2290    0.9021 H   0  0  0  0  0  0  0  0  0  0  0  0
   -0.9819   -0.4307   -0.7417 H   0  0  0  0  0  0  0  0  0  0  0  0
   -1.5413    1.4935    0.8222 H   0  0  0  0  0  0  0  0  0  0  0  0
   -0.5462    0.7211    2.0570 H   0  0  0  0  0  0  0  0  0  0  0  0
   -2.9462    0.1552    2.4044 H   0  0  0  0  0  0  0  0  0  0  0  0
   -2.0480   -1.3122    1.9790 H   0  0  0  0  0  0  0  0  0  0  0  0
   -4.8333    1.1290   -0.7890 H   0  0  0  0  0  0  0  0  0  0  0  0
   -3.2872    1.7591   -0.1727 H   0  0  0  0  0  0  0  0  0  0  0  0
   -4.6111    1.3880    0.9582 H   0  0  0  0  0  0  0  0  0  0  0  0
    0.5349    2.1391   -0.0447 N   0  0  0  0  0  0  0  0  0  0  0  0
    1.4063    3.2229   -0.4339 C   0  0  2  0  0  0  0  0  0  0  0  0
    1.6131    4.1192    0.7799 C   0  0  0  0  0  0  0  0  0  0  0  0
    0.8291    4.1587    1.7259 O   0  0  0  0  0  0  0  0  0  0  0  0
    0.8246    4.0099   -1.5979 C   0  0  0  0  0  0  0  0  0  0  0  0
   -0.2628    2.3597    0.5440 H   0  0  0  0  0  0  0  0  0  0  0  0
    2.3620    2.7722   -0.7228 H   0  0  0  0  0  0  0  0  0  0  0  0
   -0.1333    4.4689   -1.3273 H   0  0  0  0  0  0  0  0  0  0  0  0
    1.4996    4.8135   -1.9103 H   0  0  0  0  0  0  0  0  0  0  0  0
    0.6488    3.3577   -2.4602 H   0  0  0  0  0  0  0  0  0  0  0  0
    2.7534    4.9015    0.6629 N   0  0  0  0  0  0  0  0  0  0  0  0
    3.1602    5.8437    1.6791 C   0  0  0  0  0  0  0  0  0  0  0  0
    3.3553    4.7893   -0.1476 H   0  0  0  0  0  0  0  0  0  0  0  0
    2.7445    6.8355    1.4478 H   0  0  0  0  0  0  0  0  0  0  0  0
    2.7879    5.5096    2.6588 H   0  0  0  0  0  0  0  0  0  0  0  0
    4.2583    5.9035    1.7051 H   0  0  0  0  0  0  0  0  0  0  0  0
  1  3  1  0  0  0  0
  1  7  1  0  0  0  0
  1  2  2  0  0  0  0
 35 36  1  0  0  0  0
 36 44  1  0  0  0  0
 36 37  2  0  0  0  0
  8  9  1  0  0  0  0
  9 17  1  0  0  0  0
  9 10  2  0  0  0  0
 18 19  1  0  0  0  0
 19 34  1  0  0  0  0
 19 20  2  0  0  0  0
 35 38  1  0  0  0  0
  8 11  1  0  0  0  0
 44 45  1  0  0  0  0
 23 24  1  0  0  0  0
 21 22  1  0  0  0  0
 18 21  1  0  0  0  0
 22 23  1  0  0  0  0
 34 35  1  0  0  0  0
  7  8  1  0  0  0  0
 17 18  1  0  0  0  0
  3  4  1  0  0  0  0
  3  5  1  0  0  0  0
  3  6  1  0  0  0  0
 38 41  1  0  0  0  0
 38 42  1  0  0  0  0
 38 43  1  0  0  0  0
 11 14  1  0  0  0  0
 11 15  1  0  0  0  0
 11 16  1  0  0  0  0
 45 47  1  0  0  0  0
 45 48  1  0  0  0  0
 45 49  1  0  0  0  0
 24 31  1  0  0  0  0
 24 32  1  0  0  0  0
 24 33  1  0  0  0  0
 21 27  1  0  0  0  0
 21 28  1  0  0  0  0
 22 29  1  0  0  0  0
 22 30  1  0  0  0  0
 35 40  1  0  0  0  0
  8 13  1  0  0  0  0
 18 26  1  0  0  0  0
 44 46  1  0  0  0  0
  7 12  1  0  0  0  0
 34 39  1  0  0  0  0
 17 25  1  0  0  0  0
M  END
$$$$

  -OEChem-05262214473D

 49 48  0     1  0  0  0  0  0999 V2000
   -0.0561   -5.3799    2.6949 C   0  0  0  0  0  0  0  0  0  0  0  0
    0.7325   -5.0736    3.5815 O   0  0  0  0  0  0  0  0  0  0  0  0
   -1.0067   -6.5099    2.9135 C   0  0  0  0  0  0  0  0  0  0  0  0
   -0.5910   -7.4777    2.5899 H   0  0  0  0  0  0  0  0  0  0  0  0
   -1.2629   -6.6440    3.9767 H   0  0  0  0  0  0  0  0  0  0  0  0
   -1.9729   -6.4206    2.3918 H   0  0  0  0  0  0  0  0  0  0  0  0
   -0.1735   -4.7694    1.4571 N   0  0  0  0  0  0  0  0  0  0  0  0
    0.6439   -3.6603    1.0409 C   0  0  2  0  0  0  0  0  0  0  0  0
   -0.2788   -2.5625    0.5280 C   0  0  0  0  0  0  0  0  0  0  0  0
   -1.4197   -2.7791    0.1251 O   0  0  0  0  0  0  0  0  0  0  0  0
    1.6395   -4.0779   -0.0301 C   0  0  0  0  0  0  0  0  0  0  0  0
   -0.8741   -5.1235    0.8083 H   0  0  0  0  0  0  0  0  0  0  0  0
    1.1738   -3.3062    1.9318 H   0  0  0  0  0  0  0  0  0  0  0  0
    1.1270   -4.4358   -0.9305 H   0  0  0  0  0  0  0  0  0  0  0  0
    2.2797   -3.2400   -0.3251 H   0  0  0  0  0  0  0  0  0  0  0  0
    2.2827   -4.8880    0.3303 H   0  0  0  0  0  0  0  0  0  0  0  0
    0.3351   -1.3153    0.5316 N   0  0  0  0  0  0  0  0  0  0  0  0
   -0.3268   -0.1184    0.0807 C   0  0  2  0  0  0  0  0  0  0  0  0
    0.7190    0.8367   -0.4864 C   0  0  0  0  0  0  0  0  0  0  0  0
    1.4593    0.5393   -1.4216 O   0  0  0  0  0  0  0  0  0  0  0  0
   -1.1808    0.5213    1.1841 C   0  0  0  0  0  0  0  0  0  0  0  0
   -2.3752   -0.3355    1.6106 C   0  0  0  0  0  0  0  0  0  0  0  0
   -3.4962   -0.6102    0.2064 S   0  0  0  0  0  0  0  0  0  0  0  0
   -4.1166    1.0783    0.0343 C   0  0  0  0  0  0  0  0  0  0  0  0
    1.2790   -1.2290    0.9021 H   0  0  0  0  0  0  0  0  0  0  0  0
   -0.9819   -0.4307   -0.7417 H   0  0  0  0  0  0  0  0  0  0  0  0
   -1.5413    1.4935    0.8222 H   0  0  0  0  0  0  0  0  0  0  0  0
   -0.5462    0.7211    2.0570 H   0  0  0  0  0  0  0  0  0  0  0  0
   -2.9462    0.1552    2.4044 H   0  0  0  0  0  0  0  0  0  0  0  0
   -2.0480   -1.3122    1.9790 H   0  0  0  0  0  0  0  0  0  0  0  0
   -4.8333    1.1290   -0.7890 H   0  0  0  0  0  0  0  0  0  0  0  0
   -3.2872    1.7591   -0.1727 H   0  0  0  0  0  0  0  0  0  0  0  0
   -4.6111    1.3880    0.9582 H   0  0  0  0  0  0  0  0  0  0  0  0
    0.7503    2.0453    0.1945 N   0  0  0  0  0  0  0  0  0  0  0  0
    1.6664    3.1077   -0.1484 C   0  0  2  0  0  0  0  0  0  0  0  0
    2.1549    3.7435    1.1465 C   0  0  0  0  0  0  0  0  0  0  0  0
    1.5345    3.6708    2.2052 O   0  0  0  0  0  0  0  0  0  0  0  0
    1.0039    4.1416   -1.0455 C   0  0  0  0  0  0  0  0  0  0  0  0
    0.0817    2.2172    0.9395 H   0  0  0  0  0  0  0  0  0  0  0  0
    2.5106    2.6418   -0.6683 H   0  0  0  0  0  0  0  0  0  0  0  0
    0.1557    4.6191   -0.5415 H   0  0  0  0  0  0  0  0  0  0  0  0
    1.7079    4.9314   -1.3278 H   0  0  0  0  0  0  0  0  0  0  0  0
    0.6268    3.6770   -1.9630 H   0  0  0  0  0  0  0  0  0  0  0  0
    3.3434    4.4383    0.9707 N   0  0  0  0  0  0  0  0  0  0  0  0
    4.0032    5.1394    2.0474 C   0  0  0  0  0  0  0  0  0  0  0  0
    3.7978    4.4295    0.0623 H   0  0  0  0  0  0  0  0  0  0  0  0
    3.6694    6.1875    2.0619 H   0  0  0  0  0  0  0  0  0  0  0  0
    3.7508    4.6611    3.0052 H   0  0  0  0  0  0  0  0  0  0  0  0
    5.0920    5.1035    1.8953 H   0  0  0  0  0  0  0  0  0  0  0  0
  1  3  1  0  0  0  0
  1  7  1  0  0  0  0
  1  2  2  0  0  0  0
 35 36  1  0  0  0  0
 36 44  1  0  0  0  0
 36 37  2  0  0  0  0
  8  9  1  0  0  0  0
  9 17  1  0  0  0  0
  9 10  2  0  0  0  0
 18 19  1  0  0  0  0
 19 34  1  0  0  0  0
 19 20  2  0  0  0  0
 35 38  1  0  0  0  0
  8 11  1  0  0  0  0
 44 45  1  0  0  0  0
 23 24  1  0  0  0  0
 21 22  1  0  0  0  0
 18 21  1  0  0  0  0
 22 23  1  0  0  0  0
 34 35  1  0  0  0  0
  7  8  1  0  0  0  0
 17 18  1  0  0  0  0
  3  4  1  0  0  0  0
  3  5  1  0  0  0  0
  3  6  1  0  0  0  0
 38 41  1  0  0  0  0
 38 42  1  0  0  0  0
 38 43  1  0  0  0  0
 11 14  1  0  0  0  0
 11 15  1  0  0  0  0
 11 16  1  0  0  0  0
 45 47  1  0  0  0  0
 45 48  1  0  0  0  0
 45 49  1  0  0  0  0
 24 31  1  0  0  0  0
 24 32  1  0  0  0  0
 24 33  1  0  0  0  0
 21 27  1  0  0  0  0
 21 28  1  0  0  0  0
 22 29  1  0  0  0  0
 22 30  1  0  0  0  0
 35 40  1  0  0  0  0
  8 13  1  0  0  0  0
 18 26  1  0  0  0  0
 44 46  1  0  0  0  0
  7 12  1  0  0  0  0
 34 39  1  0  0  0  0
 17 25  1  0  0  0  0
M  END
$$$$

  -OEChem-05262214473D

 49 48  0     1  0  0  0  0  0999 V2000
   -0.0561   -5.3799    2.6949 C   0  0  0  0  0  0  0  0  0  0  0  0
    0.7325   -5.0736    3.5815 O   0  0  0  0  0  0  0  0  0  0  0  0
   -1.0067   -6.5099    2.9135 C   0  0  0  0  0  0  0  0  0  0  0  0
   -0.5910   -7.4777    2.5899 H   0  0  0  0  0  0  0  0  0  0  0  0
   -1.2629   -6.6440    3.9767 H   0  0  0  0  0  0  0  0  0  0  0  0
   -1.9729   -6.4206    2.3918 H   0  0  0  0  0  0  0  0  0  0  0  0
   -0.1735   -4.7694    1.4571 N   0  0  0  0  0  0  0  0  0  0  0  0
    0.6439   -3.6603    1.0409 C   0  0  2  0  0  0  0  0  0  0  0  0
   -0.2788   -2.5625    0.5280 C   0  0  0  0  0  0  0  0  0  0  0  0
   -1.4197   -2.7791    0.1251 O   0  0  0  0  0  0  0  0  0  0  0  0
    1.6395   -4.0779   -0.0301 C   0  0  0  0  0  0  0  0  0  0  0  0
   -0.8741   -5.1235    0.8083 H   0  0  0  0  0  0  0  0  0  0  0  0
    1.1738   -3.3062    1.9318 H   0  0  0  0  0  0  0  0  0  0  0  0
    1.1270   -4.4358   -0.9305 H   0  0  0  0  0  0  0  0  0  0  0  0
    2.2797   -3.2400   -0.3251 H   0  0  0  0  0  0  0  0  0  0  0  0
    2.2827   -4.8880    0.3303 H   0  0  0  0  0  0  0  0  0  0  0  0
    0.3351   -1.3153    0.5316 N   0  0  0  0  0  0  0  0  0  0  0  0
   -0.3268   -0.1184    0.0807 C   0  0  2  0  0  0  0  0  0  0  0  0
    0.7190    0.8367   -0.4864 C   0  0  0  0  0  0  0  0  0  0  0  0
    1.2695    0.6584   -1.5710 O   0  0  0  0  0  0  0  0  0  0  0  0
   -1.1808    0.5213    1.1841 C   0  0  0  0  0  0  0  0  0  0  0  0
   -2.3752   -0.3355    1.6106 C   0  0  0  0  0  0  0  0  0  0  0  0
   -3.4962   -0.6102    0.2064 S   0  0  0  0  0  0  0  0  0  0  0  0
   -4.1166    1.0783    0.0343 C   0  0  0  0  0  0  0  0  0  0  0  0
    1.2790   -1.2290    0.9021 H   0  0  0  0  0  0  0  0  0  0  0  0
   -0.9819   -0.4307   -0.7417 H   0  0  0  0  0  0  0  0  0  0  0  0
   -1.5413    1.4935    0.8222 H   0  0  0  0  0  0  0  0  0  0  0  0
   -0.5462    0.7211    2.0570 H   0  0  0  0  0  0  0  0  0  0  0  0
   -2.9462    0.1552    2.4044 H   0  0  0  0  0  0  0  0  0  0  0  0
   -2.0480   -1.3122    1.9790 H   0  0  0  0  0  0  0  0  0  0  0  0
   -4.8333    1.1290   -0.7890 H   0  0  0  0  0  0  0  0  0  0  0  0
   -3.2872    1.7591   -0.1727 H   0  0  0  0  0  0  0  0  0  0  0  0
   -4.6111    1.3880    0.9582 H   0  0  0  0  0  0  0  0  0  0  0  0
    0.9881    1.8915    0.3739 N   0  0  0  0  0  0  0  0  0  0  0  0
    1.9528    2.9207    0.0649 C   0  0  2  0  0  0  0  0  0  0  0  0
    2.7015    3.2635    1.3460 C   0  0  0  0  0  0  0  0  0  0  0  0
    2.2467    3.0467    2.4673 O   0  0  0  0  0  0  0  0  0  0  0  0
    1.2793    4.1535   -0.5176 C   0  0  0  0  0  0  0  0  0  0  0  0
    0.4649    1.9764    1.2404 H   0  0  0  0  0  0  0  0  0  0  0  0
    2.6504    2.4920   -0.6629 H   0  0  0  0  0  0  0  0  0  0  0  0
    0.5766    4.5969    0.1973 H   0  0  0  0  0  0  0  0  0  0  0  0
    2.0149    4.9218   -0.7779 H   0  0  0  0  0  0  0  0  0  0  0  0
    0.7168    3.8994   -1.4225 H   0  0  0  0  0  0  0  0  0  0  0  0
    3.9187    3.8794    1.0903 N   0  0  0  0  0  0  0  0  0  0  0  0
    4.8093    4.3127    2.1416 C   0  0  0  0  0  0  0  0  0  0  0  0
    4.2245    4.0021    0.1295 H   0  0  0  0  0  0  0  0  0  0  0  0
    4.6000    5.3636    2.3903 H   0  0  0  0  0  0  0  0  0  0  0  0
    4.6553    3.6873    3.0333 H   0  0  0  0  0  0  0  0  0  0  0  0
    5.8511    4.2169    1.8020 H   0  0  0  0  0  0  0  0  0  0  0  0
  1  3  1  0  0  0  0
  1  7  1  0  0  0  0
  1  2  2  0  0  0  0
 35 36  1  0  0  0  0
 36 44  1  0  0  0  0
 36 37  2  0  0  0  0
  8  9  1  0  0  0  0
  9 17  1  0  0  0  0
  9 10  2  0  0  0  0
 18 19  1  0  0  0  0
 19 34  1  0  0  0  0
 19 20  2  0  0  0  0
 35 38  1  0  0  0  0
  8 11  1  0  0  0  0
 44 45  1  0  0  0  0
 23 24  1  0  0  0  0
 21 22  1  0  0  0  0
 18 21  1  0  0  0  0
 22 23  1  0  0  0  0
 34 35  1  0  0  0  0
  7  8  1  0  0  0  0
 17 18  1  0  0  0  0
  3  4  1  0  0  0  0
  3  5  1  0  0  0  0
  3  6  1  0  0  0  0
 38 41  1  0  0  0  0
 38 42  1  0  0  0  0
 38 43  1  0  0  0  0
 11 14  1  0  0  0  0
 11 15  1  0  0  0  0
 11 16  1  0  0  0  0
 45 47  1  0  0  0  0
 45 48  1  0  0  0  0
 45 49  1  0  0  0  0
 24 31  1  0  0  0  0
 24 32  1  0  0  0  0
 24 33  1  0  0  0  0
 21 27  1  0  0  0  0
 21 28  1  0  0  0  0
 22 29  1  0  0  0  0
 22 30  1  0  0  0  0
 35 40  1  0  0  0  0
  8 13  1  0  0  0  0
 18 26  1  0  0  0  0
 44 46  1  0  0  0  0
  7 12  1  0  0  0  0
 34 39  1  0  0  0  0
 17 25  1  0  0  0  0
M  END
$$$$

  -OEChem-05262214473D

 49 48  0     1  0  0  0  0  0999 V2000
   -0.0561   -5.3799    2.6949 C   0  0  0  0  0  0  0  0  0  0  0  0
    0.7325   -5.0736    3.5815 O   0  0  0  0  0  0  0  0  0  0  0  0
   -1.0067   -6.5099    2.9135 C   0  0  0  0  0  0  0  0  0  0  0  0
   -0.5910   -7.4777    2.5899 H   0  0  0  0  0  0  0  0  0  0  0  0
   -1.2629   -6.6440    3.9767 H   0  0  0  0  0  0  0  0  0  0  0  0
   -1.9729   -6.4206    2.3918 H   0  0  0  0  0  0  0  0  0  0  0  0
   -0.1735   -4.7694    1.4571 N   0  0  0  0  0  0  0  0  0  0  0  0
    0.6439   -3.6603    1.0409 C   0  0  2  0  0  0  0  0  0  0  0  0
   -0.2788   -2.5625    0.5280 C   0  0  0  0  0  0  0  0  0  0  0  0
   -1.4197   -2.7791    0.1251 O   0  0  0  0  0  0  0  0  0  0  0  0
    1.6395   -4.0779   -0.0301 C   0  0  0  0  0  0  0  0  0  0  0  0
   -0.8741   -5.1235    0.8083 H   0  0  0  0  0  0  0  0  0  0  0  0
    1.1738   -3.3062    1.9318 H   0  0  0  0  0  0  0  0  0  0  0  0
    1.1270   -4.4358   -0.9305 H   0  0  0  0  0  0  0  0  0  0  0  0
    2.2797   -3.2400   -0.3251 H   0  0  0  0  0  0  0  0  0  0  0  0
    2.2827   -4.8880    0.3303 H   0  0  0  0  0  0  0  0  0  0  0  0
    0.3351   -1.3153    0.5316 N   0  0  0  0  0  0  0  0  0  0  0  0
   -0.3268   -0.1184    0.0807 C   0  0  2  0  0  0  0  0  0  0  0  0
    0.7190    0.8367   -0.4864 C   0  0  0  0  0  0  0  0  0  0  0  0
    1.0735    0.8182   -1.6633 O   0  0  0  0  0  0  0  0  0  0  0  0
   -1.1808    0.5213    1.1841 C   0  0  0  0  0  0  0  0  0  0  0  0
   -2.3752   -0.3355    1.6106 C   0  0  0  0  0  0  0  0  0  0  0  0
   -3.4962   -0.6102    0.2064 S   0  0  0  0  0  0  0  0  0  0  0  0
   -4.1166    1.0783    0.0343 C   0  0  0  0  0  0  0  0  0  0  0  0
    1.2790   -1.2290    0.9021 H   0  0  0  0  0  0  0  0  0  0  0  0
   -0.9819   -0.4307   -0.7417 H   0  0  0  0  0  0  0  0  0  0  0  0
   -1.5413    1.4935    0.8222 H   0  0  0  0  0  0  0  0  0  0  0  0
   -0.5462    0.7211    2.0570 H   0  0  0  0  0  0  0  0  0  0  0  0
   -2.9462    0.1552    2.4044 H   0  0  0  0  0  0  0  0  0  0  0  0
   -2.0480   -1.3122    1.9790 H   0  0  0  0  0  0  0  0  0  0  0  0
   -4.8333    1.1290   -0.7890 H   0  0  0  0  0  0  0  0  0  0  0  0
   -3.2872    1.7591   -0.1727 H   0  0  0  0  0  0  0  0  0  0  0  0
   -4.6111    1.3880    0.9582 H   0  0  0  0  0  0  0  0  0  0  0  0
    1.2321    1.6882    0.4815 N   0  0  0  0  0  0  0  0  0  0  0  0
    2.2461    2.6746    0.1912 C   0  0  2  0  0  0  0  0  0  0  0  0
    3.2157    2.7118    1.3651 C   0  0  0  0  0  0  0  0  0  0  0  0
    2.9169    2.3288    2.4943 O   0  0  0  0  0  0  0  0  0  0  0  0
    1.6320    4.0448   -0.0502 C   0  0  0  0  0  0  0  0  0  0  0  0
    0.8606    1.6534    1.4262 H   0  0  0  0  0  0  0  0  0  0  0  0
    2.7719    2.3328   -0.7069 H   0  0  0  0  0  0  0  0  0  0  0  0
    1.1008    4.4039    0.8388 H   0  0  0  0  0  0  0  0  0  0  0  0
    2.3995    4.7854   -0.2982 H   0  0  0  0  0  0  0  0  0  0  0  0
    0.9127    4.0096   -0.8755 H   0  0  0  0  0  0  0  0  0  0  0  0
    4.4399    3.2631    1.0135 N   0  0  0  0  0  0  0  0  0  0  0  0
    5.5236    3.4199    1.9553 C   0  0  0  0  0  0  0  0  0  0  0  0
    4.6064    3.5364    0.0495 H   0  0  0  0  0  0  0  0  0  0  0  0
    5.4727    4.4199    2.4105 H   0  0  0  0  0  0  0  0  0  0  0  0
    5.4399    2.6547    2.7411 H   0  0  0  0  0  0  0  0  0  0  0  0
    6.4840    3.3040    1.4315 H   0  0  0  0  0  0  0  0  0  0  0  0
  1  3  1  0  0  0  0
  1  7  1  0  0  0  0
  1  2  2  0  0  0  0
 35 36  1  0  0  0  0
 36 44  1  0  0  0  0
 36 37  2  0  0  0  0
  8  9  1  0  0  0  0
  9 17  1  0  0  0  0
  9 10  2  0  0  0  0
 18 19  1  0  0  0  0
 19 34  1  0  0  0  0
 19 20  2  0  0  0  0
 35 38  1  0  0  0  0
  8 11  1  0  0  0  0
 44 45  1  0  0  0  0
 23 24  1  0  0  0  0
 21 22  1  0  0  0  0
 18 21  1  0  0  0  0
 22 23  1  0  0  0  0
 34 35  1  0  0  0  0
  7  8  1  0  0  0  0
 17 18  1  0  0  0  0
  3  4  1  0  0  0  0
  3  5  1  0  0  0  0
  3  6  1  0  0  0  0
 38 41  1  0  0  0  0
 38 42  1  0  0  0  0
 38 43  1  0  0  0  0
 11 14  1  0  0  0  0
 11 15  1  0  0  0  0
 11 16  1  0  0  0  0
 45 47  1  0  0  0  0
 45 48  1  0  0  0  0
 45 49  1  0  0  0  0
 24 31  1  0  0  0  0
 24 32  1  0  0  0  0
 24 33  1  0  0  0  0
 21 27  1  0  0  0  0
 21 28  1  0  0  0  0
 22 29  1  0  0  0  0
 22 30  1  0  0  0  0
 35 40  1  0  0  0  0
  8 13  1  0  0  0  0
 18 26  1  0  0  0  0
 44 46  1  0  0  0  0
  7 12  1  0  0  0  0
 34 39  1  0  0  0  0
 17 25  1  0  0  0  0
M  END
$$$$

  -OEChem-05262214473D

 49 48  0     1  0  0  0  0  0999 V2000
   -0.0561   -5.3799    2.6949 C   0  0  0  0  0  0  0  0  0  0  0  0
    0.7325   -5.0736    3.5815 O   0  0  0  0  0  0  0  0  0  0  0  0
   -1.0067   -6.5099    2.9135 C   0  0  0  0  0  0  0  0  0  0  0  0
   -0.5910   -7.4777    2.5899 H   0  0  0  0  0  0  0  0  0  0  0  0
   -1.2629   -6.6440    3.9767 H   0  0  0  0  0  0  0  0  0  0  0  0
   -1.9729   -6.4206    2.3918 H   0  0  0  0  0  0  0  0  0  0  0  0
   -0.1735   -4.7694    1.4571 N   0  0  0  0  0  0  0  0  0  0  0  0
    0.6439   -3.6603    1.0409 C   0  0  2  0  0  0  0  0  0  0  0  0
   -0.2788   -2.5625    0.5280 C   0  0  0  0  0  0  0  0  0  0  0  0
   -1.4197   -2.7791    0.1251 O   0  0  0  0  0  0  0  0  0  0  0  0
    1.6395   -4.0779   -0.0301 C   0  0  0  0  0  0  0  0  0  0  0  0
   -0.8741   -5.1235    0.8083 H   0  0  0  0  0  0  0  0  0  0  0  0
    1.1738   -3.3062    1.9318 H   0  0  0  0  0  0  0  0  0  0  0  0
    1.1270   -4.4358   -0.9305 H   0  0  0  0  0  0  0  0  0  0  0  0
    2.2797   -3.2400   -0.3251 H   0  0  0  0  0  0  0  0  0  0  0  0
    2.2827   -4.8880    0.3303 H   0  0  0  0  0  0  0  0  0  0  0  0
    0.3351   -1.3153    0.5316 N   0  0  0  0  0  0  0  0  0  0  0  0
   -0.3268   -0.1184    0.0807 C   0  0  2  0  0  0  0  0  0  0  0  0
    0.7190    0.8367   -0.4864 C   0  0  0  0  0  0  0  0  0  0  0  0
    0.8846    1.0078   -1.6924 O   0  0  0  0  0  0  0  0  0  0  0  0
   -1.1808    0.5213    1.1841 C   0  0  0  0  0  0  0  0  0  0  0  0
   -2.3752   -0.3355    1.6106 C   0  0  0  0  0  0  0  0  0  0  0  0
   -3.4962   -0.6102    0.2064 S   0  0  0  0  0  0  0  0  0  0  0  0
   -4.1166    1.0783    0.0343 C   0  0  0  0  0  0  0  0  0  0  0  0
    1.2790   -1.2290    0.9021 H   0  0  0  0  0  0  0  0  0  0  0  0
   -0.9819   -0.4307   -0.7417 H   0  0  0  0  0  0  0  0  0  0  0  0
   -1.5413    1.4935    0.8222 H   0  0  0  0  0  0  0  0  0  0  0  0
   -0.5462    0.7211    2.0570 H   0  0  0  0  0  0  0  0  0  0  0  0
   -2.9462    0.1552    2.4044 H   0  0  0  0  0  0  0  0  0  0  0  0
   -2.0480   -1.3122    1.9790 H   0  0  0  0  0  0  0  0  0  0  0  0
   -4.8333    1.1290   -0.7890 H   0  0  0  0  0  0  0  0  0  0  0  0
   -3.2872    1.7591   -0.1727 H   0  0  0  0  0  0  0  0  0  0  0  0
   -4.6111    1.3880    0.9582 H   0  0  0  0  0  0  0  0  0  0  0  0
    1.4656    1.4493    0.5098 N   0  0  0  0  0  0  0  0  0  0  0  0
    2.5261    2.3864    0.2221 C   0  0  2  0  0  0  0  0  0  0  0  0
    3.6623    2.1261    1.2023 C   0  0  0  0  0  0  0  0  0  0  0  0
    3.4997    1.5661    2.2844 O   0  0  0  0  0  0  0  0  0  0  0  0
    2.0380    3.8230    0.3249 C   0  0  0  0  0  0  0  0  0  0  0  0
    1.2418    1.2705    1.4843 H   0  0  0  0  0  0  0  0  0  0  0  0
    2.8668    2.1752   -0.7973 H   0  0  0  0  0  0  0  0  0  0  0  0
    1.6925    4.0532    1.3393 H   0  0  0  0  0  0  0  0  0  0  0  0
    2.8357    4.5316    0.0787 H   0  0  0  0  0  0  0  0  0  0  0  0
    1.2012    4.0002   -0.3594 H   0  0  0  0  0  0  0  0  0  0  0  0
    4.8716    2.6312    0.7455 N   0  0  0  0  0  0  0  0  0  0  0  0
    6.0976    2.5218    1.5012 C   0  0  0  0  0  0  0  0  0  0  0  0
    4.9176    3.0639   -0.1723 H   0  0  0  0  0  0  0  0  0  0  0  0
    6.2282    3.4209    2.1212 H   0  0  0  0  0  0  0  0  0  0  0  0
    6.0511    1.6337    2.1485 H   0  0  0  0  0  0  0  0  0  0  0  0
    6.9474    2.4270    0.8092 H   0  0  0  0  0  0  0  0  0  0  0  0
  1  3  1  0  0  0  0
  1  7  1  0  0  0  0
  1  2  2  0  0  0  0
 35 36  1  0  0  0  0
 36 44  1  0  0  0  0
 36 37  2  0  0  0  0
  8  9  1  0  0  0  0
  9 17  1  0  0  0  0
  9 10  2  0  0  0  0
 18 19  1  0  0  0  0
 19 34  1  0  0  0  0
 19 20  2  0  0  0  0
 35 38  1  0  0  0  0
  8 11  1  0  0  0  0
 44 45  1  0  0  0  0
 23 24  1  0  0  0  0
 21 22  1  0  0  0  0
 18 21  1  0  0  0  0
 22 23  1  0  0  0  0
 34 35  1  0  0  0  0
  7  8  1  0  0  0  0
 17 18  1  0  0  0  0
  3  4  1  0  0  0  0
  3  5  1  0  0  0  0
  3  6  1  0  0  0  0
 38 41  1  0  0  0  0
 38 42  1  0  0  0  0
 38 43  1  0  0  0  0
 11 14  1  0  0  0  0
 11 15  1  0  0  0  0
 11 16  1  0  0  0  0
 45 47  1  0  0  0  0
 45 48  1  0  0  0  0
 45 49  1  0  0  0  0
 24 31  1  0  0  0  0
 24 32  1  0  0  0  0
 24 33  1  0  0  0  0
 21 27  1  0  0  0  0
 21 28  1  0  0  0  0
 22 29  1  0  0  0  0
 22 30  1  0  0  0  0
 35 40  1  0  0  0  0
  8 13  1  0  0  0  0
 18 26  1  0  0  0  0
 44 46  1  0  0  0  0
  7 12  1  0  0  0  0
 34 39  1  0  0  0  0
 17 25  1  0  0  0  0
M  END
$$$$

  -OEChem-05262214473D

 49 48  0     1  0  0  0  0  0999 V2000
   -0.0561   -5.3799    2.6949 C   0  0  0  0  0  0  0  0  0  0  0  0
    0.7325   -5.0736    3.5815 O   0  0  0  0  0  0  0  0  0  0  0  0
   -1.0067   -6.5099    2.9135 C   0  0  0  0  0  0  0  0  0  0  0  0
   -0.5910   -7.4777    2.5899 H   0  0  0  0  0  0  0  0  0  0  0  0
   -1.2629   -6.6440    3.9767 H   0  0  0  0  0  0  0  0  0  0  0  0
   -1.9729   -6.4206    2.3918 H   0  0  0  0  0  0  0  0  0  0  0  0
   -0.1735   -4.7694    1.4571 N   0  0  0  0  0  0  0  0  0  0  0  0
    0.6439   -3.6603    1.0409 C   0  0  2  0  0  0  0  0  0  0  0  0
   -0.2788   -2.5625    0.5280 C   0  0  0  0  0  0  0  0  0  0  0  0
   -1.4197   -2.7791    0.1251 O   0  0  0  0  0  0  0  0  0  0  0  0
    1.6395   -4.0779   -0.0301 C   0  0  0  0  0  0  0  0  0  0  0  0
   -0.8741   -5.1235    0.8083 H   0  0  0  0  0  0  0  0  0  0  0  0
    1.1738   -3.3062    1.9318 H   0  0  0  0  0  0  0  0  0  0  0  0
    1.1270   -4.4358   -0.9305 H   0  0  0  0  0  0  0  0  0  0  0  0
    2.2797   -3.2400   -0.3251 H   0  0  0  0  0  0  0  0  0  0  0  0
    2.2827   -4.8880    0.3303 H   0  0  0  0  0  0  0  0  0  0  0  0
    0.3351   -1.3153    0.5316 N   0  0  0  0  0  0  0  0  0  0  0  0
   -0.3268   -0.1184    0.0807 C   0  0  2  0  0  0  0  0  0  0  0  0
    0.7190    0.8367   -0.4864 C   0  0  0  0  0  0  0  0  0  0  0  0
    0.7156    1.2143   -1.6563 O   0  0  0  0  0  0  0  0  0  0  0  0
   -1.1808    0.5213    1.1841 C   0  0  0  0  0  0  0  0  0  0  0  0
   -2.3752   -0.3355    1.6106 C   0  0  0  0  0  0  0  0  0  0  0  0
   -3.4962   -0.6102    0.2064 S   0  0  0  0  0  0  0  0  0  0  0  0
   -4.1166    1.0783    0.0343 C   0  0  0  0  0  0  0  0  0  0  0  0
    1.2790   -1.2290    0.9021 H   0  0  0  0  0  0  0  0  0  0  0  0
   -0.9819   -0.4307   -0.7417 H   0  0  0  0  0  0  0  0  0  0  0  0
   -1.5413    1.4935    0.8222 H   0  0  0  0  0  0  0  0  0  0  0  0
   -0.5462    0.7211    2.0570 H   0  0  0  0  0  0  0  0  0  0  0  0
   -2.9462    0.1552    2.4044 H   0  0  0  0  0  0  0  0  0  0  0  0
   -2.0480   -1.3122    1.9790 H   0  0  0  0  0  0  0  0  0  0  0  0
   -4.8333    1.1290   -0.7890 H   0  0  0  0  0  0  0  0  0  0  0  0
   -3.2872    1.7591   -0.1727 H   0  0  0  0  0  0  0  0  0  0  0  0
   -4.6111    1.3880    0.9582 H   0  0  0  0  0  0  0  0  0  0  0  0
    1.6728    1.1910    0.4569 N   0  0  0  0  0  0  0  0  0  0  0  0
    2.7739    2.0755    0.1555 C   0  0  2  0  0  0  0  0  0  0  0  0
    4.0110    1.5463    0.8688 C   0  0  0  0  0  0  0  0  0  0  0  0
    3.9552    0.8105    1.8520 O   0  0  0  0  0  0  0  0  0  0  0  0
    2.4696    3.5031    0.5820 C   0  0  0  0  0  0  0  0  0  0  0  0
    1.5826    0.8536    1.4107 H   0  0  0  0  0  0  0  0  0  0  0  0
    2.9287    2.0298   -0.9280 H   0  0  0  0  0  0  0  0  0  0  0  0
    2.3114    3.5687    1.6647 H   0  0  0  0  0  0  0  0  0  0  0  0
    3.2936    4.1776    0.3269 H   0  0  0  0  0  0  0  0  0  0  0  0
    1.5626    3.8718    0.0907 H   0  0  0  0  0  0  0  0  0  0  0  0
    5.1844    2.0269    0.3045 N   0  0  0  0  0  0  0  0  0  0  0  0
    6.4920    1.6796    0.8102 C   0  0  0  0  0  0  0  0  0  0  0  0
    5.1368    2.6170   -0.5208 H   0  0  0  0  0  0  0  0  0  0  0  0
    6.8150    2.4346    1.5421 H   0  0  0  0  0  0  0  0  0  0  0  0
    6.4471    0.6937    1.2960 H   0  0  0  0  0  0  0  0  0  0  0  0
    7.2099    1.6458   -0.0226 H   0  0  0  0  0  0  0  0  0  0  0  0
  1  3  1  0  0  0  0
  1  7  1  0  0  0  0
  1  2  2  0  0  0  0
 35 36  1  0  0  0  0
 36 44  1  0  0  0  0
 36 37  2  0  0  0  0
  8  9  1  0  0  0  0
  9 17  1  0  0  0  0
  9 10  2  0  0  0  0
 18 19  1  0  0  0  0
 19 34  1  0  0  0  0
 19 20  2  0  0  0  0
 35 38  1  0  0  0  0
  8 11  1  0  0  0  0
 44 45  1  0  0  0  0
 23 24  1  0  0  0  0
 21 22  1  0  0  0  0
 18 21  1  0  0  0  0
 22 23  1  0  0  0  0
 34 35  1  0  0  0  0
  7  8  1  0  0  0  0
 17 18  1  0  0  0  0
  3  4  1  0  0  0  0
  3  5  1  0  0  0  0
  3  6  1  0  0  0  0
 38 41  1  0  0  0  0
 38 42  1  0  0  0  0
 38 43  1  0  0  0  0
 11 14  1  0  0  0  0
 11 15  1  0  0  0  0
 11 16  1  0  0  0  0
 45 47  1  0  0  0  0
 45 48  1  0  0  0  0
 45 49  1  0  0  0  0
 24 31  1  0  0  0  0
 24 32  1  0  0  0  0
 24 33  1  0  0  0  0
 21 27  1  0  0  0  0
 21 28  1  0  0  0  0
 22 29  1  0  0  0  0
 22 30  1  0  0  0  0
 35 40  1  0  0  0  0
  8 13  1  0  0  0  0
 18 26  1  0  0  0  0
 44 46  1  0  0  0  0
  7 12  1  0  0  0  0
 34 39  1  0  0  0  0
 17 25  1  0  0  0  0
M  END
$$$$

  -OEChem-05262214473D

 49 48  0     1  0  0  0  0  0999 V2000
   -0.0561   -5.3799    2.6949 C   0  0  0  0  0  0  0  0  0  0  0  0
    0.7325   -5.0736    3.5815 O   0  0  0  0  0  0  0  0  0  0  0  0
   -1.0067   -6.5099    2.9135 C   0  0  0  0  0  0  0  0  0  0  0  0
   -0.5910   -7.4777    2.5899 H   0  0  0  0  0  0  0  0  0  0  0  0
   -1.2629   -6.6440    3.9767 H   0  0  0  0  0  0  0  0  0  0  0  0
   -1.9729   -6.4206    2.3918 H   0  0  0  0  0  0  0  0  0  0  0  0
   -0.1735   -4.7694    1.4571 N   0  0  0  0  0  0  0  0  0  0  0  0
    0.6439   -3.6603    1.0409 C   0  0  2  0  0  0  0  0  0  0  0  0
   -0.2788   -2.5625    0.5280 C   0  0  0  0  0  0  0  0  0  0  0  0
   -1.4197   -2.7791    0.1251 O   0  0  0  0  0  0  0  0  0  0  0  0
    1.6395   -4.0779   -0.0301 C   0  0  0  0  0  0  0  0  0  0  0  0
   -0.8741   -5.1235    0.8083 H   0  0  0  0  0  0  0  0  0  0  0  0
    1.1738   -3.3062    1.9318 H   0  0  0  0  0  0  0  0  0  0  0  0
    1.1270   -4.4358   -0.9305 H   0  0  0  0  0  0  0  0  0  0  0  0
    2.2797   -3.2400   -0.3251 H   0  0  0  0  0  0  0  0  0  0  0  0
    2.2827   -4.8880    0.3303 H   0  0  0  0  0  0  0  0  0  0  0  0
    0.3351   -1.3153    0.5316 N   0  0  0  0  0  0  0  0  0  0  0  0
   -0.3268   -0.1184    0.0807 C   0  0  2  0  0  0  0  0  0  0  0  0
    0.7190    0.8367   -0.4864 C   0  0  0  0  0  0  0  0  0  0  0  0
    0.5781    1.4235   -1.5574 O   0  0  0  0  0  0  0  0  0  0  0  0
   -1.1808    0.5213    1.1841 C   0  0  0  0  0  0  0  0  0  0  0  0
   -2.3752   -0.3355    1.6106 C   0  0  0  0  0  0  0  0  0  0  0  0
   -3.4962   -0.6102    0.2064 S   0  0  0  0  0  0  0  0  0  0  0  0
   -4.1166    1.0783    0.0343 C   0  0  0  0  0  0  0  0  0  0  0  0
    1.2790   -1.2290    0.9021 H   0  0  0  0  0  0  0  0  0  0  0  0
   -0.9819   -0.4307   -0.7417 H   0  0  0  0  0  0  0  0  0  0  0  0
   -1.5413    1.4935    0.8222 H   0  0  0  0  0  0  0  0  0  0  0  0
   -0.5462    0.7211    2.0570 H   0  0  0  0  0  0  0  0  0  0  0  0
   -2.9462    0.1552    2.4044 H   0  0  0  0  0  0  0  0  0  0  0  0
   -2.0480   -1.3122    1.9790 H   0  0  0  0  0  0  0  0  0  0  0  0
   -4.8333    1.1290   -0.7890 H   0  0  0  0  0  0  0  0  0  0  0  0
   -3.2872    1.7591   -0.1727 H   0  0  0  0  0  0  0  0  0  0  0  0
   -4.6111    1.3880    0.9582 H   0  0  0  0  0  0  0  0  0  0  0  0
    1.8395    0.9310    0.3264 N   0  0  0  0  0  0  0  0  0  0  0  0
    2.9725    1.7632   -0.0042 C   0  0  2  0  0  0  0  0  0  0  0  0
    4.2380    1.0118    0.3872 C   0  0  0  0  0  0  0  0  0  0  0  0
    4.2524    0.1136    1.2264 O   0  0  0  0  0  0  0  0  0  0  0  0
    2.8973    3.1070    0.7037 C   0  0  0  0  0  0  0  0  0  0  0  0
    1.8598    0.4311    1.2104 H   0  0  0  0  0  0  0  0  0  0  0  0
    2.9533    1.9067   -1.0901 H   0  0  0  0  0  0  0  0  0  0  0  0
    2.9153    2.9835    1.7927 H   0  0  0  0  0  0  0  0  0  0  0  0
    3.7421    3.7476    0.4298 H   0  0  0  0  0  0  0  0  0  0  0  0
    1.9723    3.6331    0.4441 H   0  0  0  0  0  0  0  0  0  0  0  0
    5.3569    1.4913   -0.2793 N   0  0  0  0  0  0  0  0  0  0  0  0
    6.6799    0.9508   -0.0706 C   0  0  0  0  0  0  0  0  0  0  0  0
    5.2490    2.2261   -0.9723 H   0  0  0  0  0  0  0  0  0  0  0  0
    7.1931    1.5281    0.7127 H   0  0  0  0  0  0  0  0  0  0  0  0
    6.6011   -0.1010    0.2415 H   0  0  0  0  0  0  0  0  0  0  0  0
    7.2534    1.0134   -1.0072 H   0  0  0  0  0  0  0  0  0  0  0  0
  1  3  1  0  0  0  0
  1  7  1  0  0  0  0
  1  2  2  0  0  0  0
 35 36  1  0  0  0  0
 36 44  1  0  0  0  0
 36 37  2  0  0  0  0
  8  9  1  0  0  0  0
  9 17  1  0  0  0  0
  9 10  2  0  0  0  0
 18 19  1  0  0  0  0
 19 34  1  0  0  0  0
 19 20  2  0  0  0  0
 35 38  1  0  0  0  0
  8 11  1  0  0  0  0
 44 45  1  0  0  0  0
 23 24  1  0  0  0  0
 21 22  1  0  0  0  0
 18 21  1  0  0  0  0
 22 23  1  0  0  0  0
 34 35  1  0  0  0  0
  7  8  1  0  0  0  0
 17 18  1  0  0  0  0
  3  4  1  0  0  0  0
  3  5  1  0  0  0  0
  3  6  1  0  0  0  0
 38 41  1  0  0  0  0
 38 42  1  0  0  0  0
 38 43  1  0  0  0  0
 11 14  1  0  0  0  0
 11 15  1  0  0  0  0
 11 16  1  0  0  0  0
 45 47  1  0  0  0  0
 45 48  1  0  0  0  0
 45 49  1  0  0  0  0
 24 31  1  0  0  0  0
 24 32  1  0  0  0  0
 24 33  1  0  0  0  0
 21 27  1  0  0  0  0
 21 28  1  0  0  0  0
 22 29  1  0  0  0  0
 22 30  1  0  0  0  0
 35 40  1  0  0  0  0
  8 13  1  0  0  0  0
 18 26  1  0  0  0  0
 44 46  1  0  0  0  0
  7 12  1  0  0  0  0
 34 39  1  0  0  0  0
 17 25  1  0  0  0  0
M  END
$$$$

  -OEChem-05262214473D

 49 48  0     1  0  0  0  0  0999 V2000
   -0.0561   -5.3799    2.6949 C   0  0  0  0  0  0  0  0  0  0  0  0
    0.7325   -5.0736    3.5815 O   0  0  0  0  0  0  0  0  0  0  0  0
   -1.0067   -6.5099    2.9135 C   0  0  0  0  0  0  0  0  0  0  0  0
   -0.5910   -7.4777    2.5899 H   0  0  0  0  0  0  0  0  0  0  0  0
   -1.2629   -6.6440    3.9767 H   0  0  0  0  0  0  0  0  0  0  0  0
   -1.9729   -6.4206    2.3918 H   0  0  0  0  0  0  0  0  0  0  0  0
   -0.1735   -4.7694    1.4571 N   0  0  0  0  0  0  0  0  0  0  0  0
    0.6439   -3.6603    1.0409 C   0  0  2  0  0  0  0  0  0  0  0  0
   -0.2788   -2.5625    0.5280 C   0  0  0  0  0  0  0  0  0  0  0  0
   -1.4197   -2.7791    0.1251 O   0  0  0  0  0  0  0  0  0  0  0  0
    1.6395   -4.0779   -0.0301 C   0  0  0  0  0  0  0  0  0  0  0  0
   -0.8741   -5.1235    0.8083 H   0  0  0  0  0  0  0  0  0  0  0  0
    1.1738   -3.3062    1.9318 H   0  0  0  0  0  0  0  0  0  0  0  0
    1.1270   -4.4358   -0.9305 H   0  0  0  0  0  0  0  0  0  0  0  0
    2.2797   -3.2400   -0.3251 H   0  0  0  0  0  0  0  0  0  0  0  0
    2.2827   -4.8880    0.3303 H   0  0  0  0  0  0  0  0  0  0  0  0
    0.3351   -1.3153    0.5316 N   0  0  0  0  0  0  0  0  0  0  0  0
   -0.3268   -0.1184    0.0807 C   0  0  2  0  0  0  0  0  0  0  0  0
    0.7190    0.8367   -0.4864 C   0  0  0  0  0  0  0  0  0  0  0  0
    0.4814    1.6214   -1.4024 O   0  0  0  0  0  0  0  0  0  0  0  0
   -1.1808    0.5213    1.1841 C   0  0  0  0  0  0  0  0  0  0  0  0
   -2.3752   -0.3355    1.6106 C   0  0  0  0  0  0  0  0  0  0  0  0
   -3.4962   -0.6102    0.2064 S   0  0  0  0  0  0  0  0  0  0  0  0
   -4.1166    1.0783    0.0343 C   0  0  0  0  0  0  0  0  0  0  0  0
    1.2790   -1.2290    0.9021 H   0  0  0  0  0  0  0  0  0  0  0  0
   -0.9819   -0.4307   -0.7417 H   0  0  0  0  0  0  0  0  0  0  0  0
   -1.5413    1.4935    0.8222 H   0  0  0  0  0  0  0  0  0  0  0  0
   -0.5462    0.7211    2.0570 H   0  0  0  0  0  0  0  0  0  0  0  0
   -2.9462    0.1552    2.4044 H   0  0  0  0  0  0  0  0  0  0  0  0
   -2.0480   -1.3122    1.9790 H   0  0  0  0  0  0  0  0  0  0  0  0
   -4.8333    1.1290   -0.7890 H   0  0  0  0  0  0  0  0  0  0  0  0
   -3.2872    1.7591   -0.1727 H   0  0  0  0  0  0  0  0  0  0  0  0
   -4.6111    1.3880    0.9582 H   0  0  0  0  0  0  0  0  0  0  0  0
    1.9543    0.6870    0.1273 N   0  0  0  0  0  0  0  0  0  0  0  0
    3.1084    1.4708   -0.2460 C   0  0  2  0  0  0  0  0  0  0  0  0
    4.3278    0.5591   -0.2095 C   0  0  0  0  0  0  0  0  0  0  0  0
    4.3711   -0.4771    0.4503 O   0  0  0  0  0  0  0  0  0  0  0  0
    3.2921    2.6617    0.6817 C   0  0  0  0  0  0  0  0  0  0  0  0
    2.0544    0.0320    0.8970 H   0  0  0  0  0  0  0  0  0  0  0  0
    2.9390    1.8141   -1.2724 H   0  0  0  0  0  0  0  0  0  0  0  0
    3.4630    2.3374    1.7147 H   0  0  0  0  0  0  0  0  0  0  0  0
    4.1506    3.2708    0.3801 H   0  0  0  0  0  0  0  0  0  0  0  0
    2.4023    3.3004    0.6768 H   0  0  0  0  0  0  0  0  0  0  0  0
    5.3775    1.0610   -0.9662 N   0  0  0  0  0  0  0  0  0  0  0  0
    6.6487    0.3851   -1.0810 C   0  0  0  0  0  0  0  0  0  0  0  0
    5.2467    1.9177   -1.4959 H   0  0  0  0  0  0  0  0  0  0  0  0
    7.3366    0.7633   -0.3105 H   0  0  0  0  0  0  0  0  0  0  0  0
    6.5026   -0.6964   -0.9430 H   0  0  0  0  0  0  0  0  0  0  0  0
    7.0751    0.5732   -2.0774 H   0  0  0  0  0  0  0  0  0  0  0  0
  1  3  1  0  0  0  0
  1  7  1  0  0  0  0
  1  2  2  0  0  0  0
 35 36  1  0  0  0  0
 36 44  1  0  0  0  0
 36 37  2  0  0  0  0
  8  9  1  0  0  0  0
  9 17  1  0  0  0  0
  9 10  2  0  0  0  0
 18 19  1  0  0  0  0
 19 34  1  0  0  0  0
 19 20  2  0  0  0  0
 35 38  1  0  0  0  0
  8 11  1  0  0  0  0
 44 45  1  0  0  0  0
 23 24  1  0  0  0  0
 21 22  1  0  0  0  0
 18 21  1  0  0  0  0
 22 23  1  0  0  0  0
 34 35  1  0  0  0  0
  7  8  1  0  0  0  0
 17 18  1  0  0  0  0
  3  4  1  0  0  0  0
  3  5  1  0  0  0  0
  3  6  1  0  0  0  0
 38 41  1  0  0  0  0
 38 42  1  0  0  0  0
 38 43  1  0  0  0  0
 11 14  1  0  0  0  0
 11 15  1  0  0  0  0
 11 16  1  0  0  0  0
 45 47  1  0  0  0  0
 45 48  1  0  0  0  0
 45 49  1  0  0  0  0
 24 31  1  0  0  0  0
 24 32  1  0  0  0  0
 24 33  1  0  0  0  0
 21 27  1  0  0  0  0
 21 28  1  0  0  0  0
 22 29  1  0  0  0  0
 22 30  1  0  0  0  0
 35 40  1  0  0  0  0
  8 13  1  0  0  0  0
 18 26  1  0  0  0  0
 44 46  1  0  0  0  0
  7 12  1  0  0  0  0
 34 39  1  0  0  0  0
 17 25  1  0  0  0  0
M  END
$$$$

  -OEChem-05262214473D

 49 48  0     1  0  0  0  0  0999 V2000
   -0.0561   -5.3799    2.6949 C   0  0  0  0  0  0  0  0  0  0  0  0
    0.7325   -5.0736    3.5815 O   0  0  0  0  0  0  0  0  0  0  0  0
   -1.0067   -6.5099    2.9135 C   0  0  0  0  0  0  0  0  0  0  0  0
   -0.5910   -7.4777    2.5899 H   0  0  0  0  0  0  0  0  0  0  0  0
   -1.2629   -6.6440    3.9767 H   0  0  0  0  0  0  0  0  0  0  0  0
   -1.9729   -6.4206    2.3918 H   0  0  0  0  0  0  0  0  0  0  0  0
   -0.1735   -4.7694    1.4571 N   0  0  0  0  0  0  0  0  0  0  0  0
    0.6439   -3.6603    1.0409 C   0  0  2  0  0  0  0  0  0  0  0  0
   -0.2788   -2.5625    0.5280 C   0  0  0  0  0  0  0  0  0  0  0  0
   -1.4197   -2.7791    0.1251 O   0  0  0  0  0  0  0  0  0  0  0  0
    1.6395   -4.0779   -0.0301 C   0  0  0  0  0  0  0  0  0  0  0  0
   -0.8741   -5.1235    0.8083 H   0  0  0  0  0  0  0  0  0  0  0  0
    1.1738   -3.3062    1.9318 H   0  0  0  0  0  0  0  0  0  0  0  0
    1.1270   -4.4358   -0.9305 H   0  0  0  0  0  0  0  0  0  0  0  0
    2.2797   -3.2400   -0.3251 H   0  0  0  0  0  0  0  0  0  0  0  0
    2.2827   -4.8880    0.3303 H   0  0  0  0  0  0  0  0  0  0  0  0
    0.3351   -1.3153    0.5316 N   0  0  0  0  0  0  0  0  0  0  0  0
   -0.3268   -0.1184    0.0807 C   0  0  2  0  0  0  0  0  0  0  0  0
    0.7190    0.8367   -0.4864 C   0  0  0  0  0  0  0  0  0  0  0  0
    0.4322    1.7943   -1.2020 O   0  0  0  0  0  0  0  0  0  0  0  0
   -1.1808    0.5213    1.1841 C   0  0  0  0  0  0  0  0  0  0  0  0
   -2.3752   -0.3355    1.6106 C   0  0  0  0  0  0  0  0  0  0  0  0
   -3.4962   -0.6102    0.2064 S   0  0  0  0  0  0  0  0  0  0  0  0
   -4.1166    1.0783    0.0343 C   0  0  0  0  0  0  0  0  0  0  0  0
    1.2790   -1.2290    0.9021 H   0  0  0  0  0  0  0  0  0  0  0  0
   -0.9819   -0.4307   -0.7417 H   0  0  0  0  0  0  0  0  0  0  0  0
   -1.5413    1.4935    0.8222 H   0  0  0  0  0  0  0  0  0  0  0  0
   -0.5462    0.7211    2.0570 H   0  0  0  0  0  0  0  0  0  0  0  0
   -2.9462    0.1552    2.4044 H   0  0  0  0  0  0  0  0  0  0  0  0
   -2.0480   -1.3122    1.9790 H   0  0  0  0  0  0  0  0  0  0  0  0
   -4.8333    1.1290   -0.7890 H   0  0  0  0  0  0  0  0  0  0  0  0
   -3.2872    1.7591   -0.1727 H   0  0  0  0  0  0  0  0  0  0  0  0
   -4.6111    1.3880    0.9582 H   0  0  0  0  0  0  0  0  0  0  0  0
    2.0095    0.4756   -0.1270 N   0  0  0  0  0  0  0  0  0  0  0  0
    3.1724    1.2181   -0.5535 C   0  0  2  0  0  0  0  0  0  0  0  0
    4.2743    0.2191   -0.8808 C   0  0  0  0  0  0  0  0  0  0  0  0
    4.3032   -0.9215   -0.4233 O   0  0  0  0  0  0  0  0  0  0  0  0
    3.6270    2.1974    0.5174 C   0  0  0  0  0  0  0  0  0  0  0  0
    2.1533   -0.3167    0.4920 H   0  0  0  0  0  0  0  0  0  0  0  0
    2.8867    1.7584   -1.4627 H   0  0  0  0  0  0  0  0  0  0  0  0
    3.9173    1.6745    1.4359 H   0  0  0  0  0  0  0  0  0  0  0  0
    4.4913    2.7798    0.1814 H   0  0  0  0  0  0  0  0  0  0  0  0
    2.8233    2.8964    0.7728 H   0  0  0  0  0  0  0  0  0  0  0  0
    5.2446    0.7652   -1.7093 N   0  0  0  0  0  0  0  0  0  0  0  0
    6.4003    0.0208   -2.1524 C   0  0  0  0  0  0  0  0  0  0  0  0
    5.1299    1.7130   -2.0559 H   0  0  0  0  0  0  0  0  0  0  0  0
    7.2359    0.1923   -1.4579 H   0  0  0  0  0  0  0  0  0  0  0  0
    6.1582   -1.0519   -2.1767 H   0  0  0  0  0  0  0  0  0  0  0  0
    6.6871    0.3549   -3.1604 H   0  0  0  0  0  0  0  0  0  0  0  0
  1  3  1  0  0  0  0
  1  7  1  0  0  0  0
  1  2  2  0  0  0  0
 35 36  1  0  0  0  0
 36 44  1  0  0  0  0
 36 37  2  0  0  0  0
  8  9  1  0  0  0  0
  9 17  1  0  0  0  0
  9 10  2  0  0  0  0
 18 19  1  0  0  0  0
 19 34  1  0  0  0  0
 19 20  2  0  0  0  0
 35 38  1  0  0  0  0
  8 11  1  0  0  0  0
 44 45  1  0  0  0  0
 23 24  1  0  0  0  0
 21 22  1  0  0  0  0
 18 21  1  0  0  0  0
 22 23  1  0  0  0  0
 34 35  1  0  0  0  0
  7  8  1  0  0  0  0
 17 18  1  0  0  0  0
  3  4  1  0  0  0  0
  3  5  1  0  0  0  0
  3  6  1  0  0  0  0
 38 41  1  0  0  0  0
 38 42  1  0  0  0  0
 38 43  1  0  0  0  0
 11 14  1  0  0  0  0
 11 15  1  0  0  0  0
 11 16  1  0  0  0  0
 45 47  1  0  0  0  0
 45 48  1  0  0  0  0
 45 49  1  0  0  0  0
 24 31  1  0  0  0  0
 24 32  1  0  0  0  0
 24 33  1  0  0  0  0
 21 27  1  0  0  0  0
 21 28  1  0  0  0  0
 22 29  1  0  0  0  0
 22 30  1  0  0  0  0
 35 40  1  0  0  0  0
  8 13  1  0  0  0  0
 18 26  1  0  0  0  0
 44 46  1  0  0  0  0
  7 12  1  0  0  0  0
 34 39  1  0  0  0  0
 17 25  1  0  0  0  0
M  END
$$$$

  -OEChem-05262214473D

 49 48  0     1  0  0  0  0  0999 V2000
   -0.0561   -5.3799    2.6949 C   0  0  0  0  0  0  0  0  0  0  0  0
    0.7325   -5.0736    3.5815 O   0  0  0  0  0  0  0  0  0  0  0  0
   -1.0067   -6.5099    2.9135 C   0  0  0  0  0  0  0  0  0  0  0  0
   -0.5910   -7.4777    2.5899 H   0  0  0  0  0  0  0  0  0  0  0  0
   -1.2629   -6.6440    3.9767 H   0  0  0  0  0  0  0  0  0  0  0  0
   -1.9729   -6.4206    2.3918 H   0  0  0  0  0  0  0  0  0  0  0  0
   -0.1735   -4.7694    1.4571 N   0  0  0  0  0  0  0  0  0  0  0  0
    0.6439   -3.6603    1.0409 C   0  0  2  0  0  0  0  0  0  0  0  0
   -0.2788   -2.5625    0.5280 C   0  0  0  0  0  0  0  0  0  0  0  0
   -1.4197   -2.7791    0.1251 O   0  0  0  0  0  0  0  0  0  0  0  0
    1.6395   -4.0779   -0.0301 C   0  0  0  0  0  0  0  0  0  0  0  0
   -0.8741   -5.1235    0.8083 H   0  0  0  0  0  0  0  0  0  0  0  0
    1.1738   -3.3062    1.9318 H   0  0  0  0  0  0  0  0  0  0  0  0
    1.1270   -4.4358   -0.9305 H   0  0  0  0  0  0  0  0  0  0  0  0
    2.2797   -3.2400   -0.3251 H   0  0  0  0  0  0  0  0  0  0  0  0
    2.2827   -4.8880    0.3303 H   0  0  0  0  0  0  0  0  0  0  0  0
    0.3351   -1.3153    0.5316 N   0  0  0  0  0  0  0  0  0  0  0  0
   -0.3268   -0.1184    0.0807 C   0  0  2  0  0  0  0  0  0  0  0  0
    0.7190    0.8367   -0.4864 C   0  0  0  0  0  0  0  0  0  0  0  0
    0.4338    1.9305   -0.9697 O   0  0  0  0  0  0  0  0  0  0  0  0
   -1.1808    0.5213    1.1841 C   0  0  0  0  0  0  0  0  0  0  0  0
   -2.3752   -0.3355    1.6106 C   0  0  0  0  0  0  0  0  0  0  0  0
   -3.4962   -0.6102    0.2064 S   0  0  0  0  0  0  0  0  0  0  0  0
   -4.1166    1.0783    0.0343 C   0  0  0  0  0  0  0  0  0  0  0  0
    1.2790   -1.2290    0.9021 H   0  0  0  0  0  0  0  0  0  0  0  0
   -0.9819   -0.4307   -0.7417 H   0  0  0  0  0  0  0  0  0  0  0  0
   -1.5413    1.4935    0.8222 H   0  0  0  0  0  0  0  0  0  0  0  0
   -0.5462    0.7211    2.0570 H   0  0  0  0  0  0  0  0  0  0  0  0
   -2.9462    0.1552    2.4044 H   0  0  0  0  0  0  0  0  0  0  0  0
   -2.0480   -1.3122    1.9790 H   0  0  0  0  0  0  0  0  0  0  0  0
   -4.8333    1.1290   -0.7890 H   0  0  0  0  0  0  0  0  0  0  0  0
   -3.2872    1.7591   -0.1727 H   0  0  0  0  0  0  0  0  0  0  0  0
   -4.6111    1.3880    0.9582 H   0  0  0  0  0  0  0  0  0  0  0  0
    2.0013    0.3112   -0.4191 N   0  0  0  0  0  0  0  0  0  0  0  0
    3.1600    1.0225   -0.9057 C   0  0  2  0  0  0  0  0  0  0  0  0
    4.0812    0.0149   -1.5808 C   0  0  0  0  0  0  0  0  0  0  0  0
    4.0532   -1.1892   -1.3350 O   0  0  0  0  0  0  0  0  0  0  0  0
    3.8792    1.7459    0.2221 C   0  0  0  0  0  0  0  0  0  0  0  0
    2.1496   -0.5912    0.0230 H   0  0  0  0  0  0  0  0  0  0  0  0
    2.8000    1.7434   -1.6478 H   0  0  0  0  0  0  0  0  0  0  0  0
    4.2472    1.0399    0.9755 H   0  0  0  0  0  0  0  0  0  0  0  0
    4.7409    2.3080   -0.1529 H   0  0  0  0  0  0  0  0  0  0  0  0
    3.2067    2.4487    0.7257 H   0  0  0  0  0  0  0  0  0  0  0  0
    4.9674    0.6241   -2.4581 N   0  0  0  0  0  0  0  0  0  0  0  0
    5.9518   -0.1170   -3.2117 C   0  0  0  0  0  0  0  0  0  0  0  0
    4.9067    1.6259   -2.6143 H   0  0  0  0  0  0  0  0  0  0  0  0
    6.8978   -0.1460   -2.6511 H   0  0  0  0  0  0  0  0  0  0  0  0
    5.5914   -1.1433   -3.3757 H   0  0  0  0  0  0  0  0  0  0  0  0
    6.1158    0.3736   -4.1824 H   0  0  0  0  0  0  0  0  0  0  0  0
  1  3  1  0  0  0  0
  1  7  1  0  0  0  0
  1  2  2  0  0  0  0
 35 36  1  0  0  0  0
 36 44  1  0  0  0  0
 36 37  2  0  0  0  0
  8  9  1  0  0  0  0
  9 17  1  0  0  0  0
  9 10  2  0  0  0  0
 18 19  1  0  0  0  0
 19 34  1  0  0  0  0
 19 20  2  0  0  0  0
 35 38  1  0  0  0  0
  8 11  1  0  0  0  0
 44 45  1  0  0  0  0
 23 24  1  0  0  0  0
 21 22  1  0  0  0  0
 18 21  1  0  0  0  0
 22 23  1  0  0  0  0
 34 35  1  0  0  0  0
  7  8  1  0  0  0  0
 17 18  1  0  0  0  0
  3  4  1  0  0  0  0
  3  5  1  0  0  0  0
  3  6  1  0  0  0  0
 38 41  1  0  0  0  0
 38 42  1  0  0  0  0
 38 43  1  0  0  0  0
 11 14  1  0  0  0  0
 11 15  1  0  0  0  0
 11 16  1  0  0  0  0
 45 47  1  0  0  0  0
 45 48  1  0  0  0  0
 45 49  1  0  0  0  0
 24 31  1  0  0  0  0
 24 32  1  0  0  0  0
 24 33  1  0  0  0  0
 21 27  1  0  0  0  0
 21 28  1  0  0  0  0
 22 29  1  0  0  0  0
 22 30  1  0  0  0  0
 35 40  1  0  0  0  0
  8 13  1  0  0  0  0
 18 26  1  0  0  0  0
 44 46  1  0  0  0  0
  7 12  1  0  0  0  0
 34 39  1  0  0  0  0
 17 25  1  0  0  0  0
M  END
$$$$

  -OEChem-05262214473D

 49 48  0     1  0  0  0  0  0999 V2000
   -0.0561   -5.3799    2.6949 C   0  0  0  0  0  0  0  0  0  0  0  0
    0.7325   -5.0736    3.5815 O   0  0  0  0  0  0  0  0  0  0  0  0
   -1.0067   -6.5099    2.9135 C   0  0  0  0  0  0  0  0  0  0  0  0
   -0.5910   -7.4777    2.5899 H   0  0  0  0  0  0  0  0  0  0  0  0
   -1.2629   -6.6440    3.9767 H   0  0  0  0  0  0  0  0  0  0  0  0
   -1.9729   -6.4206    2.3918 H   0  0  0  0  0  0  0  0  0  0  0  0
   -0.1735   -4.7694    1.4571 N   0  0  0  0  0  0  0  0  0  0  0  0
    0.6439   -3.6603    1.0409 C   0  0  2  0  0  0  0  0  0  0  0  0
   -0.2788   -2.5625    0.5280 C   0  0  0  0  0  0  0  0  0  0  0  0
   -1.4197   -2.7791    0.1251 O   0  0  0  0  0  0  0  0  0  0  0  0
    1.6395   -4.0779   -0.0301 C   0  0  0  0  0  0  0  0  0  0  0  0
   -0.8741   -5.1235    0.8083 H   0  0  0  0  0  0  0  0  0  0  0  0
    1.1738   -3.3062    1.9318 H   0  0  0  0  0  0  0  0  0  0  0  0
    1.1270   -4.4358   -0.9305 H   0  0  0  0  0  0  0  0  0  0  0  0
    2.2797   -3.2400   -0.3251 H   0  0  0  0  0  0  0  0  0  0  0  0
    2.2827   -4.8880    0.3303 H   0  0  0  0  0  0  0  0  0  0  0  0
    0.3351   -1.3153    0.5316 N   0  0  0  0  0  0  0  0  0  0  0  0
   -0.3268   -0.1184    0.0807 C   0  0  2  0  0  0  0  0  0  0  0  0
    0.7190    0.8367   -0.4864 C   0  0  0  0  0  0  0  0  0  0  0  0
    0.4861    2.0207   -0.7215 O   0  0  0  0  0  0  0  0  0  0  0  0
   -1.1808    0.5213    1.1841 C   0  0  0  0  0  0  0  0  0  0  0  0
   -2.3752   -0.3355    1.6106 C   0  0  0  0  0  0  0  0  0  0  0  0
   -3.4962   -0.6102    0.2064 S   0  0  0  0  0  0  0  0  0  0  0  0
   -4.1166    1.0783    0.0343 C   0  0  0  0  0  0  0  0  0  0  0  0
    1.2790   -1.2290    0.9021 H   0  0  0  0  0  0  0  0  0  0  0  0
   -0.9819   -0.4307   -0.7417 H   0  0  0  0  0  0  0  0  0  0  0  0
   -1.5413    1.4935    0.8222 H   0  0  0  0  0  0  0  0  0  0  0  0
   -0.5462    0.7211    2.0570 H   0  0  0  0  0  0  0  0  0  0  0  0
   -2.9462    0.1552    2.4044 H   0  0  0  0  0  0  0  0  0  0  0  0
   -2.0480   -1.3122    1.9790 H   0  0  0  0  0  0  0  0  0  0  0  0
   -4.8333    1.1290   -0.7890 H   0  0  0  0  0  0  0  0  0  0  0  0
   -3.2872    1.7591   -0.1727 H   0  0  0  0  0  0  0  0  0  0  0  0
   -4.6111    1.3880    0.9582 H   0  0  0  0  0  0  0  0  0  0  0  0
    1.9302    0.2050   -0.7291 N   0  0  0  0  0  0  0  0  0  0  0  0
    3.0722    0.8972   -1.2787 C   0  0  2  0  0  0  0  0  0  0  0  0
    3.7615   -0.0395   -2.2619 C   0  0  0  0  0  0  0  0  0  0  0  0
    3.6383   -1.2620   -2.2227 O   0  0  0  0  0  0  0  0  0  0  0  0
    4.0316    1.3379   -0.1841 C   0  0  0  0  0  0  0  0  0  0  0  0
    2.0436   -0.7727   -0.4782 H   0  0  0  0  0  0  0  0  0  0  0  0
    2.6848    1.7701   -1.8153 H   0  0  0  0  0  0  0  0  0  0  0  0
    4.4301    0.4768    0.3647 H   0  0  0  0  0  0  0  0  0  0  0  0
    4.8825    1.8875   -0.5999 H   0  0  0  0  0  0  0  0  0  0  0  0
    3.5263    1.9877    0.5387 H   0  0  0  0  0  0  0  0  0  0  0  0
    4.5647    0.6473   -3.1616 N   0  0  0  0  0  0  0  0  0  0  0  0
    5.3337   -0.0191   -4.1866 C   0  0  0  0  0  0  0  0  0  0  0  0
    4.5922    1.6623   -3.1330 H   0  0  0  0  0  0  0  0  0  0  0  0
    6.3453   -0.2285   -3.8089 H   0  0  0  0  0  0  0  0  0  0  0  0
    4.8409   -0.9642   -4.4583 H   0  0  0  0  0  0  0  0  0  0  0  0
    5.4003    0.6279   -5.0737 H   0  0  0  0  0  0  0  0  0  0  0  0
  1  3  1  0  0  0  0
  1  7  1  0  0  0  0
  1  2  2  0  0  0  0
 35 36  1  0  0  0  0
 36 44  1  0  0  0  0
 36 37  2  0  0  0  0
  8  9  1  0  0  0  0
  9 17  1  0  0  0  0
  9 10  2  0  0  0  0
 18 19  1  0  0  0  0
 19 34  1  0  0  0  0
 19 20  2  0  0  0  0
 35 38  1  0  0  0  0
  8 11  1  0  0  0  0
 44 45  1  0  0  0  0
 23 24  1  0  0  0  0
 21 22  1  0  0  0  0
 18 21  1  0  0  0  0
 22 23  1  0  0  0  0
 34 35  1  0  0  0  0
  7  8  1  0  0  0  0
 17 18  1  0  0  0  0
  3  4  1  0  0  0  0
  3  5  1  0  0  0  0
  3  6  1  0  0  0  0
 38 41  1  0  0  0  0
 38 42  1  0  0  0  0
 38 43  1  0  0  0  0
 11 14  1  0  0  0  0
 11 15  1  0  0  0  0
 11 16  1  0  0  0  0
 45 47  1  0  0  0  0
 45 48  1  0  0  0  0
 45 49  1  0  0  0  0
 24 31  1  0  0  0  0
 24 32  1  0  0  0  0
 24 33  1  0  0  0  0
 21 27  1  0  0  0  0
 21 28  1  0  0  0  0
 22 29  1  0  0  0  0
 22 30  1  0  0  0  0
 35 40  1  0  0  0  0
  8 13  1  0  0  0  0
 18 26  1  0  0  0  0
 44 46  1  0  0  0  0
  7 12  1  0  0  0  0
 34 39  1  0  0  0  0
 17 25  1  0  0  0  0
M  END
$$$$

  -OEChem-05262214473D

 49 48  0     1  0  0  0  0  0999 V2000
   -0.0561   -5.3799    2.6949 C   0  0  0  0  0  0  0  0  0  0  0  0
    0.7325   -5.0736    3.5815 O   0  0  0  0  0  0  0  0  0  0  0  0
   -1.0067   -6.5099    2.9135 C   0  0  0  0  0  0  0  0  0  0  0  0
   -0.5910   -7.4777    2.5899 H   0  0  0  0  0  0  0  0  0  0  0  0
   -1.2629   -6.6440    3.9767 H   0  0  0  0  0  0  0  0  0  0  0  0
   -1.9729   -6.4206    2.3918 H   0  0  0  0  0  0  0  0  0  0  0  0
   -0.1735   -4.7694    1.4571 N   0  0  0  0  0  0  0  0  0  0  0  0
    0.6439   -3.6603    1.0409 C   0  0  2  0  0  0  0  0  0  0  0  0
   -0.2788   -2.5625    0.5280 C   0  0  0  0  0  0  0  0  0  0  0  0
   -1.4197   -2.7791    0.1251 O   0  0  0  0  0  0  0  0  0  0  0  0
    1.6395   -4.0779   -0.0301 C   0  0  0  0  0  0  0  0  0  0  0  0
   -0.8741   -5.1235    0.8083 H   0  0  0  0  0  0  0  0  0  0  0  0
    1.1738   -3.3062    1.9318 H   0  0  0  0  0  0  0  0  0  0  0  0
    1.1270   -4.4358   -0.9305 H   0  0  0  0  0  0  0  0  0  0  0  0
    2.2797   -3.2400   -0.3251 H   0  0  0  0  0  0  0  0  0  0  0  0
    2.2827   -4.8880    0.3303 H   0  0  0  0  0  0  0  0  0  0  0  0
    0.3351   -1.3153    0.5316 N   0  0  0  0  0  0  0  0  0  0  0  0
   -0.3268   -0.1184    0.0807 C   0  0  2  0  0  0  0  0  0  0  0  0
    0.7190    0.8367   -0.4864 C   0  0  0  0  0  0  0  0  0  0  0  0
    0.5855    2.0587   -0.4741 O   0  0  0  0  0  0  0  0  0  0  0  0
   -1.1808    0.5213    1.1841 C   0  0  0  0  0  0  0  0  0  0  0  0
   -2.3752   -0.3355    1.6106 C   0  0  0  0  0  0  0  0  0  0  0  0
   -3.4962   -0.6102    0.2064 S   0  0  0  0  0  0  0  0  0  0  0  0
   -4.1166    1.0783    0.0343 C   0  0  0  0  0  0  0  0  0  0  0  0
    1.2790   -1.2290    0.9021 H   0  0  0  0  0  0  0  0  0  0  0  0
   -0.9819   -0.4307   -0.7417 H   0  0  0  0  0  0  0  0  0  0  0  0
   -1.5413    1.4935    0.8222 H   0  0  0  0  0  0  0  0  0  0  0  0
   -0.5462    0.7211    2.0570 H   0  0  0  0  0  0  0  0  0  0  0  0
   -2.9462    0.1552    2.4044 H   0  0  0  0  0  0  0  0  0  0  0  0
   -2.0480   -1.3122    1.9790 H   0  0  0  0  0  0  0  0  0  0  0  0
   -4.8333    1.1290   -0.7890 H   0  0  0  0  0  0  0  0  0  0  0  0
   -3.2872    1.7591   -0.1727 H   0  0  0  0  0  0  0  0  0  0  0  0
   -4.6111    1.3880    0.9582 H   0  0  0  0  0  0  0  0  0  0  0  0
    1.8011    0.1642   -1.0358 N   0  0  0  0  0  0  0  0  0  0  0  0
    2.9149    0.8508   -1.6469 C   0  0  2  0  0  0  0  0  0  0  0  0
    3.3372    0.0595   -2.8777 C   0  0  0  0  0  0  0  0  0  0  0  0
    3.0867   -1.1349   -3.0258 O   0  0  0  0  0  0  0  0  0  0  0  0
    4.0736    1.0012   -0.6735 C   0  0  0  0  0  0  0  0  0  0  0  0
    1.8425   -0.8490   -0.9774 H   0  0  0  0  0  0  0  0  0  0  0  0
    2.5489    1.8367   -1.9537 H   0  0  0  0  0  0  0  0  0  0  0  0
    4.4537    0.0238   -0.3549 H   0  0  0  0  0  0  0  0  0  0  0  0
    4.9063    1.5471   -1.1292 H   0  0  0  0  0  0  0  0  0  0  0  0
    3.7603    1.5448    0.2244 H   0  0  0  0  0  0  0  0  0  0  0  0
    4.0640    0.8333   -3.7716 N   0  0  0  0  0  0  0  0  0  0  0  0
    4.5880    0.3080   -5.0108 C   0  0  0  0  0  0  0  0  0  0  0  0
    4.2079    1.8197   -3.5766 H   0  0  0  0  0  0  0  0  0  0  0  0
    5.6161   -0.0497   -4.8524 H   0  0  0  0  0  0  0  0  0  0  0  0
    3.9577   -0.5271   -5.3505 H   0  0  0  0  0  0  0  0  0  0  0  0
    4.5891    1.1005   -5.7735 H   0  0  0  0  0  0  0  0  0  0  0  0
  1  3  1  0  0  0  0
  1  7  1  0  0  0  0
  1  2  2  0  0  0  0
 35 36  1  0  0  0  0
 36 44  1  0  0  0  0
 36 37  2  0  0  0  0
  8  9  1  0  0  0  0
  9 17  1  0  0  0  0
  9 10  2  0  0  0  0
 18 19  1  0  0  0  0
 19 34  1  0  0  0  0
 19 20  2  0  0  0  0
 35 38  1  0  0  0  0
  8 11  1  0  0  0  0
 44 45  1  0  0  0  0
 23 24  1  0  0  0  0
 21 22  1  0  0  0  0
 18 21  1  0  0  0  0
 22 23  1  0  0  0  0
 34 35  1  0  0  0  0
  7  8  1  0  0  0  0
 17 18  1  0  0  0  0
  3  4  1  0  0  0  0
  3  5  1  0  0  0  0
  3  6  1  0  0  0  0
 38 41  1  0  0  0  0
 38 42  1  0  0  0  0
 38 43  1  0  0  0  0
 11 14  1  0  0  0  0
 11 15  1  0  0  0  0
 11 16  1  0  0  0  0
 45 47  1  0  0  0  0
 45 48  1  0  0  0  0
 45 49  1  0  0  0  0
 24 31  1  0  0  0  0
 24 32  1  0  0  0  0
 24 33  1  0  0  0  0
 21 27  1  0  0  0  0
 21 28  1  0  0  0  0
 22 29  1  0  0  0  0
 22 30  1  0  0  0  0
 35 40  1  0  0  0  0
  8 13  1  0  0  0  0
 18 26  1  0  0  0  0
 44 46  1  0  0  0  0
  7 12  1  0  0  0  0
 34 39  1  0  0  0  0
 17 25  1  0  0  0  0
M  END
$$$$

  -OEChem-05262214473D

 49 48  0     1  0  0  0  0  0999 V2000
   -0.0561   -5.3799    2.6949 C   0  0  0  0  0  0  0  0  0  0  0  0
    0.7325   -5.0736    3.5815 O   0  0  0  0  0  0  0  0  0  0  0  0
   -1.0067   -6.5099    2.9135 C   0  0  0  0  0  0  0  0  0  0  0  0
   -0.5910   -7.4777    2.5899 H   0  0  0  0  0  0  0  0  0  0  0  0
   -1.2629   -6.6440    3.9767 H   0  0  0  0  0  0  0  0  0  0  0  0
   -1.9729   -6.4206    2.3918 H   0  0  0  0  0  0  0  0  0  0  0  0
   -0.1735   -4.7694    1.4571 N   0  0  0  0  0  0  0  0  0  0  0  0
    0.6439   -3.6603    1.0409 C   0  0  2  0  0  0  0  0  0  0  0  0
   -0.2788   -2.5625    0.5280 C   0  0  0  0  0  0  0  0  0  0  0  0
   -1.4197   -2.7791    0.1251 O   0  0  0  0  0  0  0  0  0  0  0  0
    1.6395   -4.0779   -0.0301 C   0  0  0  0  0  0  0  0  0  0  0  0
   -0.8741   -5.1235    0.8083 H   0  0  0  0  0  0  0  0  0  0  0  0
    1.1738   -3.3062    1.9318 H   0  0  0  0  0  0  0  0  0  0  0  0
    1.1270   -4.4358   -0.9305 H   0  0  0  0  0  0  0  0  0  0  0  0
    2.2797   -3.2400   -0.3251 H   0  0  0  0  0  0  0  0  0  0  0  0
    2.2827   -4.8880    0.3303 H   0  0  0  0  0  0  0  0  0  0  0  0
    0.3351   -1.3153    0.5316 N   0  0  0  0  0  0  0  0  0  0  0  0
   -0.3268   -0.1184    0.0807 C   0  0  2  0  0  0  0  0  0  0  0  0
    0.7190    0.8367   -0.4864 C   0  0  0  0  0  0  0  0  0  0  0  0
    0.7252    2.0420   -0.2446 O   0  0  0  0  0  0  0  0  0  0  0  0
   -1.1808    0.5213    1.1841 C   0  0  0  0  0  0  0  0  0  0  0  0
   -2.3752   -0.3355    1.6106 C   0  0  0  0  0  0  0  0  0  0  0  0
   -3.4962   -0.6102    0.2064 S   0  0  0  0  0  0  0  0  0  0  0  0
   -4.1166    1.0783    0.0343 C   0  0  0  0  0  0  0  0  0  0  0  0
    1.2790   -1.2290    0.9021 H   0  0  0  0  0  0  0  0  0  0  0  0
   -0.9819   -0.4307   -0.7417 H   0  0  0  0  0  0  0  0  0  0  0  0
   -1.5413    1.4935    0.8222 H   0  0  0  0  0  0  0  0  0  0  0  0
   -0.5462    0.7211    2.0570 H   0  0  0  0  0  0  0  0  0  0  0  0
   -2.9462    0.1552    2.4044 H   0  0  0  0  0  0  0  0  0  0  0  0
   -2.0480   -1.3122    1.9790 H   0  0  0  0  0  0  0  0  0  0  0  0
   -4.8333    1.1290   -0.7890 H   0  0  0  0  0  0  0  0  0  0  0  0
   -3.2872    1.7591   -0.1727 H   0  0  0  0  0  0  0  0  0  0  0  0
   -4.6111    1.3880    0.9582 H   0  0  0  0  0  0  0  0  0  0  0  0
    1.6228    0.1917   -1.3184 N   0  0  0  0  0  0  0  0  0  0  0  0
    2.6989    0.8864   -1.9853 C   0  0  2  0  0  0  0  0  0  0  0  0
    2.8370    0.3052   -3.3862 C   0  0  0  0  0  0  0  0  0  0  0  0
    2.4360   -0.8165   -3.6896 O   0  0  0  0  0  0  0  0  0  0  0  0
    4.0026    0.7588   -1.2128 C   0  0  0  0  0  0  0  0  0  0  0  0
    1.5601   -0.8147   -1.4405 H   0  0  0  0  0  0  0  0  0  0  0  0
    2.4017    1.9386   -2.0535 H   0  0  0  0  0  0  0  0  0  0  0  0
    4.3163   -0.2885   -1.1341 H   0  0  0  0  0  0  0  0  0  0  0  0
    4.8109    1.3099   -1.7048 H   0  0  0  0  0  0  0  0  0  0  0  0
    3.8928    1.1502   -0.1957 H   0  0  0  0  0  0  0  0  0  0  0  0
    3.4995    1.1693   -4.2468 N   0  0  0  0  0  0  0  0  0  0  0  0
    3.7657    0.8418   -5.6280 C   0  0  0  0  0  0  0  0  0  0  0  0
    3.7799    2.0874   -3.9148 H   0  0  0  0  0  0  0  0  0  0  0  0
    4.7599    0.3783   -5.7104 H   0  0  0  0  0  0  0  0  0  0  0  0
    3.0022    0.1385   -5.9917 H   0  0  0  0  0  0  0  0  0  0  0  0
    3.7377    1.7593   -6.2342 H   0  0  0  0  0  0  0  0  0  0  0  0
  1  3  1  0  0  0  0
  1  7  1  0  0  0  0
  1  2  2  0  0  0  0
 35 36  1  0  0  0  0
 36 44  1  0  0  0  0
 36 37  2  0  0  0  0
  8  9  1  0  0  0  0
  9 17  1  0  0  0  0
  9 10  2  0  0  0  0
 18 19  1  0  0  0  0
 19 34  1  0  0  0  0
 19 20  2  0  0  0  0
 35 38  1  0  0  0  0
  8 11  1  0  0  0  0
 44 45  1  0  0  0  0
 23 24  1  0  0  0  0
 21 22  1  0  0  0  0
 18 21  1  0  0  0  0
 22 23  1  0  0  0  0
 34 35  1  0  0  0  0
  7  8  1  0  0  0  0
 17 18  1  0  0  0  0
  3  4  1  0  0  0  0
  3  5  1  0  0  0  0
  3  6  1  0  0  0  0
 38 41  1  0  0  0  0
 38 42  1  0  0  0  0
 38 43  1  0  0  0  0
 11 14  1  0  0  0  0
 11 15  1  0  0  0  0
 11 16  1  0  0  0  0
 45 47  1  0  0  0  0
 45 48  1  0  0  0  0
 45 49  1  0  0  0  0
 24 31  1  0  0  0  0
 24 32  1  0  0  0  0
 24 33  1  0  0  0  0
 21 27  1  0  0  0  0
 21 28  1  0  0  0  0
 22 29  1  0  0  0  0
 22 30  1  0  0  0  0
 35 40  1  0  0  0  0
  8 13  1  0  0  0  0
 18 26  1  0  0  0  0
 44 46  1  0  0  0  0
  7 12  1  0  0  0  0
 34 39  1  0  0  0  0
 17 25  1  0  0  0  0
M  END
$$$$

  -OEChem-05262214473D

 49 48  0     1  0  0  0  0  0999 V2000
   -0.0561   -5.3799    2.6949 C   0  0  0  0  0  0  0  0  0  0  0  0
    0.7325   -5.0736    3.5815 O   0  0  0  0  0  0  0  0  0  0  0  0
   -1.0067   -6.5099    2.9135 C   0  0  0  0  0  0  0  0  0  0  0  0
   -0.5910   -7.4777    2.5899 H   0  0  0  0  0  0  0  0  0  0  0  0
   -1.2629   -6.6440    3.9767 H   0  0  0  0  0  0  0  0  0  0  0  0
   -1.9729   -6.4206    2.3918 H   0  0  0  0  0  0  0  0  0  0  0  0
   -0.1735   -4.7694    1.4571 N   0  0  0  0  0  0  0  0  0  0  0  0
    0.6439   -3.6603    1.0409 C   0  0  2  0  0  0  0  0  0  0  0  0
   -0.2788   -2.5625    0.5280 C   0  0  0  0  0  0  0  0  0  0  0  0
   -1.4197   -2.7791    0.1251 O   0  0  0  0  0  0  0  0  0  0  0  0
    1.6395   -4.0779   -0.0301 C   0  0  0  0  0  0  0  0  0  0  0  0
   -0.8741   -5.1235    0.8083 H   0  0  0  0  0  0  0  0  0  0  0  0
    1.1738   -3.3062    1.9318 H   0  0  0  0  0  0  0  0  0  0  0  0
    1.1270   -4.4358   -0.9305 H   0  0  0  0  0  0  0  0  0  0  0  0
    2.2797   -3.2400   -0.3251 H   0  0  0  0  0  0  0  0  0  0  0  0
    2.2827   -4.8880    0.3303 H   0  0  0  0  0  0  0  0  0  0  0  0
    0.3351   -1.3153    0.5316 N   0  0  0  0  0  0  0  0  0  0  0  0
   -0.3268   -0.1184    0.0807 C   0  0  2  0  0  0  0  0  0  0  0  0
    0.7190    0.8367   -0.4864 C   0  0  0  0  0  0  0  0  0  0  0  0
    0.8957    1.9717   -0.0485 O   0  0  0  0  0  0  0  0  0  0  0  0
   -1.1808    0.5213    1.1841 C   0  0  0  0  0  0  0  0  0  0  0  0
   -2.3752   -0.3355    1.6106 C   0  0  0  0  0  0  0  0  0  0  0  0
   -3.4962   -0.6102    0.2064 S   0  0  0  0  0  0  0  0  0  0  0  0
   -4.1166    1.0783    0.0343 C   0  0  0  0  0  0  0  0  0  0  0  0
    1.2790   -1.2290    0.9021 H   0  0  0  0  0  0  0  0  0  0  0  0
   -0.9819   -0.4307   -0.7417 H   0  0  0  0  0  0  0  0  0  0  0  0
   -1.5413    1.4935    0.8222 H   0  0  0  0  0  0  0  0  0  0  0  0
   -0.5462    0.7211    2.0570 H   0  0  0  0  0  0  0  0  0  0  0  0
   -2.9462    0.1552    2.4044 H   0  0  0  0  0  0  0  0  0  0  0  0
   -2.0480   -1.3122    1.9790 H   0  0  0  0  0  0  0  0  0  0  0  0
   -4.8333    1.1290   -0.7890 H   0  0  0  0  0  0  0  0  0  0  0  0
   -3.2872    1.7591   -0.1727 H   0  0  0  0  0  0  0  0  0  0  0  0
   -4.6111    1.3880    0.9582 H   0  0  0  0  0  0  0  0  0  0  0  0
    1.4074    0.2855   -1.5576 N   0  0  0  0  0  0  0  0  0  0  0  0
    2.4388    1.0017   -2.2708 C   0  0  2  0  0  0  0  0  0  0  0  0
    2.2952    0.6809   -3.7527 C   0  0  0  0  0  0  0  0  0  0  0  0
    1.7306   -0.3287   -4.1688 O   0  0  0  0  0  0  0  0  0  0  0  0
    3.8232    0.6272   -1.7652 C   0  0  0  0  0  0  0  0  0  0  0  0
    1.2156   -0.6723   -1.8359 H   0  0  0  0  0  0  0  0  0  0  0  0
    2.2531    2.0689   -2.1080 H   0  0  0  0  0  0  0  0  0  0  0  0
    4.0273   -0.4386   -1.9199 H   0  0  0  0  0  0  0  0  0  0  0  0
    4.6026    1.1920   -2.2874 H   0  0  0  0  0  0  0  0  0  0  0  0
    3.9148    0.8309   -0.6929 H   0  0  0  0  0  0  0  0  0  0  0  0
    2.9095    1.6326   -4.5546 N   0  0  0  0  0  0  0  0  0  0  0  0
    2.9228    1.5461   -5.9963 C   0  0  0  0  0  0  0  0  0  0  0  0
    3.3375    2.4472   -4.1247 H   0  0  0  0  0  0  0  0  0  0  0  0
    3.8350    1.0264   -6.3245 H   0  0  0  0  0  0  0  0  0  0  0  0
    2.0393    0.9871   -6.3382 H   0  0  0  0  0  0  0  0  0  0  0  0
    2.9040    2.5592   -6.4244 H   0  0  0  0  0  0  0  0  0  0  0  0
  1  3  1  0  0  0  0
  1  7  1  0  0  0  0
  1  2  2  0  0  0  0
 35 36  1  0  0  0  0
 36 44  1  0  0  0  0
 36 37  2  0  0  0  0
  8  9  1  0  0  0  0
  9 17  1  0  0  0  0
  9 10  2  0  0  0  0
 18 19  1  0  0  0  0
 19 34  1  0  0  0  0
 19 20  2  0  0  0  0
 35 38  1  0  0  0  0
  8 11  1  0  0  0  0
 44 45  1  0  0  0  0
 23 24  1  0  0  0  0
 21 22  1  0  0  0  0
 18 21  1  0  0  0  0
 22 23  1  0  0  0  0
 34 35  1  0  0  0  0
  7  8  1  0  0  0  0
 17 18  1  0  0  0  0
  3  4  1  0  0  0  0
  3  5  1  0  0  0  0
  3  6  1  0  0  0  0
 38 41  1  0  0  0  0
 38 42  1  0  0  0  0
 38 43  1  0  0  0  0
 11 14  1  0  0  0  0
 11 15  1  0  0  0  0
 11 16  1  0  0  0  0
 45 47  1  0  0  0  0
 45 48  1  0  0  0  0
 45 49  1  0  0  0  0
 24 31  1  0  0  0  0
 24 32  1  0  0  0  0
 24 33  1  0  0  0  0
 21 27  1  0  0  0  0
 21 28  1  0  0  0  0
 22 29  1  0  0  0  0
 22 30  1  0  0  0  0
 35 40  1  0  0  0  0
  8 13  1  0  0  0  0
 18 26  1  0  0  0  0
 44 46  1  0  0  0  0
  7 12  1  0  0  0  0
 34 39  1  0  0  0  0
 17 25  1  0  0  0  0
M  END
$$$$

  -OEChem-05262214473D

 49 48  0     1  0  0  0  0  0999 V2000
   -0.0561   -5.3799    2.6949 C   0  0  0  0  0  0  0  0  0  0  0  0
    0.7325   -5.0736    3.5815 O   0  0  0  0  0  0  0  0  0  0  0  0
   -1.0067   -6.5099    2.9135 C   0  0  0  0  0  0  0  0  0  0  0  0
   -0.5910   -7.4777    2.5899 H   0  0  0  0  0  0  0  0  0  0  0  0
   -1.2629   -6.6440    3.9767 H   0  0  0  0  0  0  0  0  0  0  0  0
   -1.9729   -6.4206    2.3918 H   0  0  0  0  0  0  0  0  0  0  0  0
   -0.1735   -4.7694    1.4571 N   0  0  0  0  0  0  0  0  0  0  0  0
    0.6439   -3.6603    1.0409 C   0  0  2  0  0  0  0  0  0  0  0  0
   -0.2788   -2.5625    0.5280 C   0  0  0  0  0  0  0  0  0  0  0  0
   -1.4197   -2.7791    0.1251 O   0  0  0  0  0  0  0  0  0  0  0  0
    1.6395   -4.0779   -0.0301 C   0  0  0  0  0  0  0  0  0  0  0  0
   -0.8741   -5.1235    0.8083 H   0  0  0  0  0  0  0  0  0  0  0  0
    1.1738   -3.3062    1.9318 H   0  0  0  0  0  0  0  0  0  0  0  0
    1.1270   -4.4358   -0.9305 H   0  0  0  0  0  0  0  0  0  0  0  0
    2.2797   -3.2400   -0.3251 H   0  0  0  0  0  0  0  0  0  0  0  0
    2.2827   -4.8880    0.3303 H   0  0  0  0  0  0  0  0  0  0  0  0
    0.3351   -1.3153    0.5316 N   0  0  0  0  0  0  0  0  0  0  0  0
   -0.3268   -0.1184    0.0807 C   0  0  2  0  0  0  0  0  0  0  0  0
    0.7190    0.8367   -0.4864 C   0  0  0  0  0  0  0  0  0  0  0  0
    1.0855    1.8526    0.1009 O   0  0  0  0  0  0  0  0  0  0  0  0
   -1.1808    0.5213    1.1841 C   0  0  0  0  0  0  0  0  0  0  0  0
   -2.3752   -0.3355    1.6106 C   0  0  0  0  0  0  0  0  0  0  0  0
   -3.4962   -0.6102    0.2064 S   0  0  0  0  0  0  0  0  0  0  0  0
   -4.1166    1.0783    0.0343 C   0  0  0  0  0  0  0  0  0  0  0  0
    1.2790   -1.2290    0.9021 H   0  0  0  0  0  0  0  0  0  0  0  0
   -0.9819   -0.4307   -0.7417 H   0  0  0  0  0  0  0  0  0  0  0  0
   -1.5413    1.4935    0.8222 H   0  0  0  0  0  0  0  0  0  0  0  0
   -0.5462    0.7211    2.0570 H   0  0  0  0  0  0  0  0  0  0  0  0
   -2.9462    0.1552    2.4044 H   0  0  0  0  0  0  0  0  0  0  0  0
   -2.0480   -1.3122    1.9790 H   0  0  0  0  0  0  0  0  0  0  0  0
   -4.8333    1.1290   -0.7890 H   0  0  0  0  0  0  0  0  0  0  0  0
   -3.2872    1.7591   -0.1727 H   0  0  0  0  0  0  0  0  0  0  0  0
   -4.6111    1.3880    0.9582 H   0  0  0  0  0  0  0  0  0  0  0  0
    1.1696    0.4393   -1.7370 N   0  0  0  0  0  0  0  0  0  0  0  0
    2.1523    1.1887   -2.4841 C   0  0  2  0  0  0  0  0  0  0  0  0
    1.7486    1.1609   -3.9523 C   0  0  0  0  0  0  0  0  0  0  0  0
    1.0184    0.2955   -4.4309 O   0  0  0  0  0  0  0  0  0  0  0  0
    3.5478    0.6153   -2.2931 C   0  0  0  0  0  0  0  0  0  0  0  0
    0.8324   -0.4314   -2.1368 H   0  0  0  0  0  0  0  0  0  0  0  0
    2.1133    2.2188   -2.1134 H   0  0  0  0  0  0  0  0  0  0  0  0
    3.6064   -0.4164   -2.6587 H   0  0  0  0  0  0  0  0  0  0  0  0
    4.2956    1.2016   -2.8372 H   0  0  0  0  0  0  0  0  0  0  0  0
    3.8248    0.6085   -1.2334 H   0  0  0  0  0  0  0  0  0  0  0  0
    2.3342    2.1914   -4.6742 N   0  0  0  0  0  0  0  0  0  0  0  0
    2.1167    2.3728   -6.0905 C   0  0  0  0  0  0  0  0  0  0  0  0
    2.9108    2.8746   -4.1919 H   0  0  0  0  0  0  0  0  0  0  0  0
    2.9045    1.8503   -6.6529 H   0  0  0  0  0  0  0  0  0  0  0  0
    1.1348    1.9608   -6.3662 H   0  0  0  0  0  0  0  0  0  0  0  0
    2.1448    3.4458   -6.3311 H   0  0  0  0  0  0  0  0  0  0  0  0
  1  3  1  0  0  0  0
  1  7  1  0  0  0  0
  1  2  2  0  0  0  0
 35 36  1  0  0  0  0
 36 44  1  0  0  0  0
 36 37  2  0  0  0  0
  8  9  1  0  0  0  0
  9 17  1  0  0  0  0
  9 10  2  0  0  0  0
 18 19  1  0  0  0  0
 19 34  1  0  0  0  0
 19 20  2  0  0  0  0
 35 38  1  0  0  0  0
  8 11  1  0  0  0  0
 44 45  1  0  0  0  0
 23 24  1  0  0  0  0
 21 22  1  0  0  0  0
 18 21  1  0  0  0  0
 22 23  1  0  0  0  0
 34 35  1  0  0  0  0
  7  8  1  0  0  0  0
 17 18  1  0  0  0  0
  3  4  1  0  0  0  0
  3  5  1  0  0  0  0
  3  6  1  0  0  0  0
 38 41  1  0  0  0  0
 38 42  1  0  0  0  0
 38 43  1  0  0  0  0
 11 14  1  0  0  0  0
 11 15  1  0  0  0  0
 11 16  1  0  0  0  0
 45 47  1  0  0  0  0
 45 48  1  0  0  0  0
 45 49  1  0  0  0  0
 24 31  1  0  0  0  0
 24 32  1  0  0  0  0
 24 33  1  0  0  0  0
 21 27  1  0  0  0  0
 21 28  1  0  0  0  0
 22 29  1  0  0  0  0
 22 30  1  0  0  0  0
 35 40  1  0  0  0  0
  8 13  1  0  0  0  0
 18 26  1  0  0  0  0
 44 46  1  0  0  0  0
  7 12  1  0  0  0  0
 34 39  1  0  0  0  0
 17 25  1  0  0  0  0
M  END
$$$$

  -OEChem-05262214473D

 49 48  0     1  0  0  0  0  0999 V2000
   -0.0561   -5.3799    2.6949 C   0  0  0  0  0  0  0  0  0  0  0  0
    0.7325   -5.0736    3.5815 O   0  0  0  0  0  0  0  0  0  0  0  0
   -1.0067   -6.5099    2.9135 C   0  0  0  0  0  0  0  0  0  0  0  0
   -0.5910   -7.4777    2.5899 H   0  0  0  0  0  0  0  0  0  0  0  0
   -1.2629   -6.6440    3.9767 H   0  0  0  0  0  0  0  0  0  0  0  0
   -1.9729   -6.4206    2.3918 H   0  0  0  0  0  0  0  0  0  0  0  0
   -0.1735   -4.7694    1.4571 N   0  0  0  0  0  0  0  0  0  0  0  0
    0.6439   -3.6603    1.0409 C   0  0  2  0  0  0  0  0  0  0  0  0
   -0.2788   -2.5625    0.5280 C   0  0  0  0  0  0  0  0  0  0  0  0
   -1.4197   -2.7791    0.1251 O   0  0  0  0  0  0  0  0  0  0  0  0
    1.6395   -4.0779   -0.0301 C   0  0  0  0  0  0  0  0  0  0  0  0
   -0.8741   -5.1235    0.8083 H   0  0  0  0  0  0  0  0  0  0  0  0
    1.1738   -3.3062    1.9318 H   0  0  0  0  0  0  0  0  0  0  0  0
    1.1270   -4.4358   -0.9305 H   0  0  0  0  0  0  0  0  0  0  0  0
    2.2797   -3.2400   -0.3251 H   0  0  0  0  0  0  0  0  0  0  0  0
    2.2827   -4.8880    0.3303 H   0  0  0  0  0  0  0  0  0  0  0  0
    0.3351   -1.3153    0.5316 N   0  0  0  0  0  0  0  0  0  0  0  0
   -0.3268   -0.1184    0.0807 C   0  0  2  0  0  0  0  0  0  0  0  0
    0.7190    0.8367   -0.4864 C   0  0  0  0  0  0  0  0  0  0  0  0
    1.2815    1.6928    0.1932 O   0  0  0  0  0  0  0  0  0  0  0  0
   -1.1808    0.5213    1.1841 C   0  0  0  0  0  0  0  0  0  0  0  0
   -2.3752   -0.3355    1.6106 C   0  0  0  0  0  0  0  0  0  0  0  0
   -3.4962   -0.6102    0.2064 S   0  0  0  0  0  0  0  0  0  0  0  0
   -4.1166    1.0783    0.0343 C   0  0  0  0  0  0  0  0  0  0  0  0
    1.2790   -1.2290    0.9021 H   0  0  0  0  0  0  0  0  0  0  0  0
   -0.9819   -0.4307   -0.7417 H   0  0  0  0  0  0  0  0  0  0  0  0
   -1.5413    1.4935    0.8222 H   0  0  0  0  0  0  0  0  0  0  0  0
   -0.5462    0.7211    2.0570 H   0  0  0  0  0  0  0  0  0  0  0  0
   -2.9462    0.1552    2.4044 H   0  0  0  0  0  0  0  0  0  0  0  0
   -2.0480   -1.3122    1.9790 H   0  0  0  0  0  0  0  0  0  0  0  0
   -4.8333    1.1290   -0.7890 H   0  0  0  0  0  0  0  0  0  0  0  0
   -3.2872    1.7591   -0.1727 H   0  0  0  0  0  0  0  0  0  0  0  0
   -4.6111    1.3880    0.9582 H   0  0  0  0  0  0  0  0  0  0  0  0
    0.9256    0.6426   -1.8446 N   0  0  0  0  0  0  0  0  0  0  0  0
    1.8591    1.4347   -2.6104 C   0  0  2  0  0  0  0  0  0  0  0  0
    1.2344    1.7125   -3.9713 C   0  0  0  0  0  0  0  0  0  0  0  0
    0.3482    1.0134   -4.4579 O   0  0  0  0  0  0  0  0  0  0  0  0
    3.1951    0.7239   -2.7605 C   0  0  0  0  0  0  0  0  0  0  0  0
    0.4367   -0.1085   -2.3227 H   0  0  0  0  0  0  0  0  0  0  0  0
    1.9918    2.3780   -2.0694 H   0  0  0  0  0  0  0  0  0  0  0  0
    3.0822   -0.2234   -3.3003 H   0  0  0  0  0  0  0  0  0  0  0  0
    3.9110    1.3380   -3.3169 H   0  0  0  0  0  0  0  0  0  0  0  0
    3.6289    0.4983   -1.7803 H   0  0  0  0  0  0  0  0  0  0  0  0
    1.8130    2.8077   -4.5974 N   0  0  0  0  0  0  0  0  0  0  0  0
    1.4023    3.2657   -5.9042 C   0  0  0  0  0  0  0  0  0  0  0  0
    2.5288    3.3403   -4.1119 H   0  0  0  0  0  0  0  0  0  0  0  0
    2.0317    2.7939   -6.6731 H   0  0  0  0  0  0  0  0  0  0  0  0
    0.3502    2.9934   -6.0740 H   0  0  0  0  0  0  0  0  0  0  0  0
    1.5120    4.3587   -5.9607 H   0  0  0  0  0  0  0  0  0  0  0  0
  1  3  1  0  0  0  0
  1  7  1  0  0  0  0
  1  2  2  0  0  0  0
 35 36  1  0  0  0  0
 36 44  1  0  0  0  0
 36 37  2  0  0  0  0
  8  9  1  0  0  0  0
  9 17  1  0  0  0  0
  9 10  2  0  0  0  0
 18 19  1  0  0  0  0
 19 34  1  0  0  0  0
 19 20  2  0  0  0  0
 35 38  1  0  0  0  0
  8 11  1  0  0  0  0
 44 45  1  0  0  0  0
 23 24  1  0  0  0  0
 21 22  1  0  0  0  0
 18 21  1  0  0  0  0
 22 23  1  0  0  0  0
 34 35  1  0  0  0  0
  7  8  1  0  0  0  0
 17 18  1  0  0  0  0
  3  4  1  0  0  0  0
  3  5  1  0  0  0  0
  3  6  1  0  0  0  0
 38 41  1  0  0  0  0
 38 42  1  0  0  0  0
 38 43  1  0  0  0  0
 11 14  1  0  0  0  0
 11 15  1  0  0  0  0
 11 16  1  0  0  0  0
 45 47  1  0  0  0  0
 45 48  1  0  0  0  0
 45 49  1  0  0  0  0
 24 31  1  0  0  0  0
 24 32  1  0  0  0  0
 24 33  1  0  0  0  0
 21 27  1  0  0  0  0
 21 28  1  0  0  0  0
 22 29  1  0  0  0  0
 22 30  1  0  0  0  0
 35 40  1  0  0  0  0
  8 13  1  0  0  0  0
 18 26  1  0  0  0  0
 44 46  1  0  0  0  0
  7 12  1  0  0  0  0
 34 39  1  0  0  0  0
 17 25  1  0  0  0  0
M  END
$$$$

  -OEChem-05262214473D

 49 48  0     1  0  0  0  0  0999 V2000
   -0.0561   -5.3799    2.6949 C   0  0  0  0  0  0  0  0  0  0  0  0
    0.7325   -5.0736    3.5815 O   0  0  0  0  0  0  0  0  0  0  0  0
   -1.0067   -6.5099    2.9135 C   0  0  0  0  0  0  0  0  0  0  0  0
   -0.5910   -7.4777    2.5899 H   0  0  0  0  0  0  0  0  0  0  0  0
   -1.2629   -6.6440    3.9767 H   0  0  0  0  0  0  0  0  0  0  0  0
   -1.9729   -6.4206    2.3918 H   0  0  0  0  0  0  0  0  0  0  0  0
   -0.1735   -4.7694    1.4571 N   0  0  0  0  0  0  0  0  0  0  0  0
    0.6439   -3.6603    1.0409 C   0  0  2  0  0  0  0  0  0  0  0  0
   -0.2788   -2.5625    0.5280 C   0  0  0  0  0  0  0  0  0  0  0  0
   -1.4197   -2.7791    0.1251 O   0  0  0  0  0  0  0  0  0  0  0  0
    1.6395   -4.0779   -0.0301 C   0  0  0  0  0  0  0  0  0  0  0  0
   -0.8741   -5.1235    0.8083 H   0  0  0  0  0  0  0  0  0  0  0  0
    1.1738   -3.3062    1.9318 H   0  0  0  0  0  0  0  0  0  0  0  0
    1.1270   -4.4358   -0.9305 H   0  0  0  0  0  0  0  0  0  0  0  0
    2.2797   -3.2400   -0.3251 H   0  0  0  0  0  0  0  0  0  0  0  0
    2.2827   -4.8880    0.3303 H   0  0  0  0  0  0  0  0  0  0  0  0
    0.3351   -1.3153    0.5316 N   0  0  0  0  0  0  0  0  0  0  0  0
   -0.3268   -0.1184    0.0807 C   0  0  2  0  0  0  0  0  0  0  0  0
    0.7190    0.8367   -0.4864 C   0  0  0  0  0  0  0  0  0  0  0  0
    1.4705    1.5032    0.2223 O   0  0  0  0  0  0  0  0  0  0  0  0
   -1.1808    0.5213    1.1841 C   0  0  0  0  0  0  0  0  0  0  0  0
   -2.3752   -0.3355    1.6106 C   0  0  0  0  0  0  0  0  0  0  0  0
   -3.4962   -0.6102    0.2064 S   0  0  0  0  0  0  0  0  0  0  0  0
   -4.1166    1.0783    0.0343 C   0  0  0  0  0  0  0  0  0  0  0  0
    1.2790   -1.2290    0.9021 H   0  0  0  0  0  0  0  0  0  0  0  0
   -0.9819   -0.4307   -0.7417 H   0  0  0  0  0  0  0  0  0  0  0  0
   -1.5413    1.4935    0.8222 H   0  0  0  0  0  0  0  0  0  0  0  0
   -0.5462    0.7211    2.0570 H   0  0  0  0  0  0  0  0  0  0  0  0
   -2.9462    0.1552    2.4044 H   0  0  0  0  0  0  0  0  0  0  0  0
   -2.0480   -1.3122    1.9790 H   0  0  0  0  0  0  0  0  0  0  0  0
   -4.8333    1.1290   -0.7890 H   0  0  0  0  0  0  0  0  0  0  0  0
   -3.2872    1.7591   -0.1727 H   0  0  0  0  0  0  0  0  0  0  0  0
   -4.6111    1.3880    0.9582 H   0  0  0  0  0  0  0  0  0  0  0  0
    0.6921    0.8815   -1.8729 N   0  0  0  0  0  0  0  0  0  0  0  0
    1.5791    1.7230   -2.6414 C   0  0  2  0  0  0  0  0  0  0  0  0
    0.7878    2.2983   -3.8086 C   0  0  0  0  0  0  0  0  0  0  0  0
   -0.2346    1.7761   -4.2481 O   0  0  0  0  0  0  0  0  0  0  0  0
    2.7892    0.9457   -3.1356 C   0  0  0  0  0  0  0  0  0  0  0  0
    0.0554    0.2745   -2.3808 H   0  0  0  0  0  0  0  0  0  0  0  0
    1.8969    2.5356   -1.9790 H   0  0  0  0  0  0  0  0  0  0  0  0
    2.4905    0.1273   -3.8007 H   0  0  0  0  0  0  0  0  0  0  0  0
    3.4748    1.5918   -3.6938 H   0  0  0  0  0  0  0  0  0  0  0  0
    3.3404    0.5077   -2.2965 H   0  0  0  0  0  0  0  0  0  0  0  0
    1.3813    3.4396   -4.3294 N   0  0  0  0  0  0  0  0  0  0  0  0
    0.8284    4.1638   -5.4501 C   0  0  0  0  0  0  0  0  0  0  0  0
    2.2177    3.8127   -3.8901 H   0  0  0  0  0  0  0  0  0  0  0  0
    1.2762    3.7929   -6.3838 H   0  0  0  0  0  0  0  0  0  0  0  0
   -0.2610    4.0145   -5.4814 H   0  0  0  0  0  0  0  0  0  0  0  0
    1.0485    5.2357   -5.3384 H   0  0  0  0  0  0  0  0  0  0  0  0
  1  3  1  0  0  0  0
  1  7  1  0  0  0  0
  1  2  2  0  0  0  0
 35 36  1  0  0  0  0
 36 44  1  0  0  0  0
 36 37  2  0  0  0  0
  8  9  1  0  0  0  0
  9 17  1  0  0  0  0
  9 10  2  0  0  0  0
 18 19  1  0  0  0  0
 19 34  1  0  0  0  0
 19 20  2  0  0  0  0
 35 38  1  0  0  0  0
  8 11  1  0  0  0  0
 44 45  1  0  0  0  0
 23 24  1  0  0  0  0
 21 22  1  0  0  0  0
 18 21  1  0  0  0  0
 22 23  1  0  0  0  0
 34 35  1  0  0  0  0
  7  8  1  0  0  0  0
 17 18  1  0  0  0  0
  3  4  1  0  0  0  0
  3  5  1  0  0  0  0
  3  6  1  0  0  0  0
 38 41  1  0  0  0  0
 38 42  1  0  0  0  0
 38 43  1  0  0  0  0
 11 14  1  0  0  0  0
 11 15  1  0  0  0  0
 11 16  1  0  0  0  0
 45 47  1  0  0  0  0
 45 48  1  0  0  0  0
 45 49  1  0  0  0  0
 24 31  1  0  0  0  0
 24 32  1  0  0  0  0
 24 33  1  0  0  0  0
 21 27  1  0  0  0  0
 21 28  1  0  0  0  0
 22 29  1  0  0  0  0
 22 30  1  0  0  0  0
 35 40  1  0  0  0  0
  8 13  1  0  0  0  0
 18 26  1  0  0  0  0
 44 46  1  0  0  0  0
  7 12  1  0  0  0  0
 34 39  1  0  0  0  0
 17 25  1  0  0  0  0
M  END
$$$$

  -OEChem-05262214473D

 49 48  0     1  0  0  0  0  0999 V2000
   -0.0561   -5.3799    2.6949 C   0  0  0  0  0  0  0  0  0  0  0  0
    0.7325   -5.0736    3.5815 O   0  0  0  0  0  0  0  0  0  0  0  0
   -1.0067   -6.5099    2.9135 C   0  0  0  0  0  0  0  0  0  0  0  0
   -0.5910   -7.4777    2.5899 H   0  0  0  0  0  0  0  0  0  0  0  0
   -1.2629   -6.6440    3.9767 H   0  0  0  0  0  0  0  0  0  0  0  0
   -1.9729   -6.4206    2.3918 H   0  0  0  0  0  0  0  0  0  0  0  0
   -0.1735   -4.7694    1.4571 N   0  0  0  0  0  0  0  0  0  0  0  0
    0.6439   -3.6603    1.0409 C   0  0  2  0  0  0  0  0  0  0  0  0
   -0.2788   -2.5625    0.5280 C   0  0  0  0  0  0  0  0  0  0  0  0
   -1.4197   -2.7791    0.1251 O   0  0  0  0  0  0  0  0  0  0  0  0
    1.6395   -4.0779   -0.0301 C   0  0  0  0  0  0  0  0  0  0  0  0
   -0.8741   -5.1235    0.8083 H   0  0  0  0  0  0  0  0  0  0  0  0
    1.1738   -3.3062    1.9318 H   0  0  0  0  0  0  0  0  0  0  0  0
    1.1270   -4.4358   -0.9305 H   0  0  0  0  0  0  0  0  0  0  0  0
    2.2797   -3.2400   -0.3251 H   0  0  0  0  0  0  0  0  0  0  0  0
    2.2827   -4.8880    0.3303 H   0  0  0  0  0  0  0  0  0  0  0  0
    0.3351   -1.3153    0.5316 N   0  0  0  0  0  0  0  0  0  0  0  0
   -0.3268   -0.1184    0.0807 C   0  0  2  0  0  0  0  0  0  0  0  0
    0.7190    0.8367   -0.4864 C   0  0  0  0  0  0  0  0  0  0  0  0
    1.6394    1.2967    0.1862 O   0  0  0  0  0  0  0  0  0  0  0  0
   -1.1808    0.5213    1.1841 C   0  0  0  0  0  0  0  0  0  0  0  0
   -2.3752   -0.3355    1.6106 C   0  0  0  0  0  0  0  0  0  0  0  0
   -3.4962   -0.6102    0.2064 S   0  0  0  0  0  0  0  0  0  0  0  0
   -4.1166    1.0783    0.0343 C   0  0  0  0  0  0  0  0  0  0  0  0
    1.2790   -1.2290    0.9021 H   0  0  0  0  0  0  0  0  0  0  0  0
   -0.9819   -0.4307   -0.7417 H   0  0  0  0  0  0  0  0  0  0  0  0
   -1.5413    1.4935    0.8222 H   0  0  0  0  0  0  0  0  0  0  0  0
   -0.5462    0.7211    2.0570 H   0  0  0  0  0  0  0  0  0  0  0  0
   -2.9462    0.1552    2.4044 H   0  0  0  0  0  0  0  0  0  0  0  0
   -2.0480   -1.3122    1.9790 H   0  0  0  0  0  0  0  0  0  0  0  0
   -4.8333    1.1290   -0.7890 H   0  0  0  0  0  0  0  0  0  0  0  0
   -3.2872    1.7591   -0.1727 H   0  0  0  0  0  0  0  0  0  0  0  0
   -4.6111    1.3880    0.9582 H   0  0  0  0  0  0  0  0  0  0  0  0
    0.4849    1.1397   -1.8200 N   0  0  0  0  0  0  0  0  0  0  0  0
    1.3313    2.0339   -2.5747 C   0  0  2  0  0  0  0  0  0  0  0  0
    0.4391    2.8781   -3.4750 C   0  0  0  0  0  0  0  0  0  0  0  0
   -0.6901    2.5316   -3.8156 O   0  0  0  0  0  0  0  0  0  0  0  0
    2.3576    1.2656   -3.3927 C   0  0  0  0  0  0  0  0  0  0  0  0
   -0.2854    0.6914   -2.3071 H   0  0  0  0  0  0  0  0  0  0  0  0
    1.8350    2.6809   -1.8483 H   0  0  0  0  0  0  0  0  0  0  0  0
    1.8716    0.6117   -4.1261 H   0  0  0  0  0  0  0  0  0  0  0  0
    3.0169    1.9458   -3.9421 H   0  0  0  0  0  0  0  0  0  0  0  0
    2.9790    0.6362   -2.7466 H   0  0  0  0  0  0  0  0  0  0  0  0
    1.0685    4.0439   -3.8884 N   0  0  0  0  0  0  0  0  0  0  0  0
    0.4340    5.0059   -4.7591 C   0  0  0  0  0  0  0  0  0  0  0  0
    1.9985    4.2597   -3.5416 H   0  0  0  0  0  0  0  0  0  0  0  0
    0.6895    4.7793   -5.8047 H   0  0  0  0  0  0  0  0  0  0  0  0
   -0.6570    4.9544   -4.6289 H   0  0  0  0  0  0  0  0  0  0  0  0
    0.7861    6.0170   -4.5066 H   0  0  0  0  0  0  0  0  0  0  0  0
  1  3  1  0  0  0  0
  1  7  1  0  0  0  0
  1  2  2  0  0  0  0
 35 36  1  0  0  0  0
 36 44  1  0  0  0  0
 36 37  2  0  0  0  0
  8  9  1  0  0  0  0
  9 17  1  0  0  0  0
  9 10  2  0  0  0  0
 18 19  1  0  0  0  0
 19 34  1  0  0  0  0
 19 20  2  0  0  0  0
 35 38  1  0  0  0  0
  8 11  1  0  0  0  0
 44 45  1  0  0  0  0
 23 24  1  0  0  0  0
 21 22  1  0  0  0  0
 18 21  1  0  0  0  0
 22 23  1  0  0  0  0
 34 35  1  0  0  0  0
  7  8  1  0  0  0  0
 17 18  1  0  0  0  0
  3  4  1  0  0  0  0
  3  5  1  0  0  0  0
  3  6  1  0  0  0  0
 38 41  1  0  0  0  0
 38 42  1  0  0  0  0
 38 43  1  0  0  0  0
 11 14  1  0  0  0  0
 11 15  1  0  0  0  0
 11 16  1  0  0  0  0
 45 47  1  0  0  0  0
 45 48  1  0  0  0  0
 45 49  1  0  0  0  0
 24 31  1  0  0  0  0
 24 32  1  0  0  0  0
 24 33  1  0  0  0  0
 21 27  1  0  0  0  0
 21 28  1  0  0  0  0
 22 29  1  0  0  0  0
 22 30  1  0  0  0  0
 35 40  1  0  0  0  0
  8 13  1  0  0  0  0
 18 26  1  0  0  0  0
 44 46  1  0  0  0  0
  7 12  1  0  0  0  0
 34 39  1  0  0  0  0
 17 25  1  0  0  0  0
M  END
$$$$

  -OEChem-05262214473D

 49 48  0     1  0  0  0  0  0999 V2000
   -0.0561   -5.3799    2.6949 C   0  0  0  0  0  0  0  0  0  0  0  0
    0.7325   -5.0736    3.5815 O   0  0  0  0  0  0  0  0  0  0  0  0
   -1.0067   -6.5099    2.9135 C   0  0  0  0  0  0  0  0  0  0  0  0
   -0.5910   -7.4777    2.5899 H   0  0  0  0  0  0  0  0  0  0  0  0
   -1.2629   -6.6440    3.9767 H   0  0  0  0  0  0  0  0  0  0  0  0
   -1.9729   -6.4206    2.3918 H   0  0  0  0  0  0  0  0  0  0  0  0
   -0.1735   -4.7694    1.4571 N   0  0  0  0  0  0  0  0  0  0  0  0
    0.6439   -3.6603    1.0409 C   0  0  2  0  0  0  0  0  0  0  0  0
   -0.2788   -2.5625    0.5280 C   0  0  0  0  0  0  0  0  0  0  0  0
   -1.4197   -2.7791    0.1251 O   0  0  0  0  0  0  0  0  0  0  0  0
    1.6395   -4.0779   -0.0301 C   0  0  0  0  0  0  0  0  0  0  0  0
   -0.8741   -5.1235    0.8083 H   0  0  0  0  0  0  0  0  0  0  0  0
    1.1738   -3.3062    1.9318 H   0  0  0  0  0  0  0  0  0  0  0  0
    1.1270   -4.4358   -0.9305 H   0  0  0  0  0  0  0  0  0  0  0  0
    2.2797   -3.2400   -0.3251 H   0  0  0  0  0  0  0  0  0  0  0  0
    2.2827   -4.8880    0.3303 H   0  0  0  0  0  0  0  0  0  0  0  0
    0.3351   -1.3153    0.5316 N   0  0  0  0  0  0  0  0  0  0  0  0
   -0.3268   -0.1184    0.0807 C   0  0  2  0  0  0  0  0  0  0  0  0
    0.7190    0.8367   -0.4864 C   0  0  0  0  0  0  0  0  0  0  0  0
    1.7769    1.0874    0.0873 O   0  0  0  0  0  0  0  0  0  0  0  0
   -1.1808    0.5213    1.1841 C   0  0  0  0  0  0  0  0  0  0  0  0
   -2.3752   -0.3355    1.6106 C   0  0  0  0  0  0  0  0  0  0  0  0
   -3.4962   -0.6102    0.2064 S   0  0  0  0  0  0  0  0  0  0  0  0
   -4.1166    1.0783    0.0343 C   0  0  0  0  0  0  0  0  0  0  0  0
    1.2790   -1.2290    0.9021 H   0  0  0  0  0  0  0  0  0  0  0  0
   -0.9819   -0.4307   -0.7417 H   0  0  0  0  0  0  0  0  0  0  0  0
   -1.5413    1.4935    0.8222 H   0  0  0  0  0  0  0  0  0  0  0  0
   -0.5462    0.7211    2.0570 H   0  0  0  0  0  0  0  0  0  0  0  0
   -2.9462    0.1552    2.4044 H   0  0  0  0  0  0  0  0  0  0  0  0
   -2.0480   -1.3122    1.9790 H   0  0  0  0  0  0  0  0  0  0  0  0
   -4.8333    1.1290   -0.7890 H   0  0  0  0  0  0  0  0  0  0  0  0
   -3.2872    1.7591   -0.1727 H   0  0  0  0  0  0  0  0  0  0  0  0
   -4.6111    1.3880    0.9582 H   0  0  0  0  0  0  0  0  0  0  0  0
    0.3182    1.3997   -1.6895 N   0  0  0  0  0  0  0  0  0  0  0  0
    1.1327    2.3462   -2.4150 C   0  0  2  0  0  0  0  0  0  0  0  0
    0.2121    3.4126   -2.9935 C   0  0  0  0  0  0  0  0  0  0  0  0
   -0.9873    3.2285   -3.1900 O   0  0  0  0  0  0  0  0  0  0  0  0
    1.9299    1.6617   -3.5144 C   0  0  0  0  0  0  0  0  0  0  0  0
   -0.5626    1.1138   -2.1069 H   0  0  0  0  0  0  0  0  0  0  0  0
    1.8104    2.8041   -1.6863 H   0  0  0  0  0  0  0  0  0  0  0  0
    1.2678    1.1970   -4.2541 H   0  0  0  0  0  0  0  0  0  0  0  0
    2.5684    2.3758   -4.0449 H   0  0  0  0  0  0  0  0  0  0  0  0
    2.5693    0.8749   -3.1000 H   0  0  0  0  0  0  0  0  0  0  0  0
    0.8960    4.5795   -3.3046 N   0  0  0  0  0  0  0  0  0  0  0  0
    0.2460    5.7347   -3.8783 C   0  0  0  0  0  0  0  0  0  0  0  0
    1.8863    4.6506   -3.0901 H   0  0  0  0  0  0  0  0  0  0  0  0
    0.3114    5.6858   -4.9753 H   0  0  0  0  0  0  0  0  0  0  0  0
   -0.8111    5.7492   -3.5744 H   0  0  0  0  0  0  0  0  0  0  0  0
    0.7426    6.6493   -3.5220 H   0  0  0  0  0  0  0  0  0  0  0  0
  1  3  1  0  0  0  0
  1  7  1  0  0  0  0
  1  2  2  0  0  0  0
 35 36  1  0  0  0  0
 36 44  1  0  0  0  0
 36 37  2  0  0  0  0
  8  9  1  0  0  0  0
  9 17  1  0  0  0  0
  9 10  2  0  0  0  0
 18 19  1  0  0  0  0
 19 34  1  0  0  0  0
 19 20  2  0  0  0  0
 35 38  1  0  0  0  0
  8 11  1  0  0  0  0
 44 45  1  0  0  0  0
 23 24  1  0  0  0  0
 21 22  1  0  0  0  0
 18 21  1  0  0  0  0
 22 23  1  0  0  0  0
 34 35  1  0  0  0  0
  7  8  1  0  0  0  0
 17 18  1  0  0  0  0
  3  4  1  0  0  0  0
  3  5  1  0  0  0  0
  3  6  1  0  0  0  0
 38 41  1  0  0  0  0
 38 42  1  0  0  0  0
 38 43  1  0  0  0  0
 11 14  1  0  0  0  0
 11 15  1  0  0  0  0
 11 16  1  0  0  0  0
 45 47  1  0  0  0  0
 45 48  1  0  0  0  0
 45 49  1  0  0  0  0
 24 31  1  0  0  0  0
 24 32  1  0  0  0  0
 24 33  1  0  0  0  0
 21 27  1  0  0  0  0
 21 28  1  0  0  0  0
 22 29  1  0  0  0  0
 22 30  1  0  0  0  0
 35 40  1  0  0  0  0
  8 13  1  0  0  0  0
 18 26  1  0  0  0  0
 44 46  1  0  0  0  0
  7 12  1  0  0  0  0
 34 39  1  0  0  0  0
 17 25  1  0  0  0  0
M  END
$$$$

  -OEChem-05262214473D

 49 48  0     1  0  0  0  0  0999 V2000
   -0.0561   -5.3799    2.6949 C   0  0  0  0  0  0  0  0  0  0  0  0
    0.7325   -5.0736    3.5815 O   0  0  0  0  0  0  0  0  0  0  0  0
   -1.0067   -6.5099    2.9135 C   0  0  0  0  0  0  0  0  0  0  0  0
   -0.5910   -7.4777    2.5899 H   0  0  0  0  0  0  0  0  0  0  0  0
   -1.2629   -6.6440    3.9767 H   0  0  0  0  0  0  0  0  0  0  0  0
   -1.9729   -6.4206    2.3918 H   0  0  0  0  0  0  0  0  0  0  0  0
   -0.1735   -4.7694    1.4571 N   0  0  0  0  0  0  0  0  0  0  0  0
    0.6439   -3.6603    1.0409 C   0  0  2  0  0  0  0  0  0  0  0  0
   -0.2788   -2.5625    0.5280 C   0  0  0  0  0  0  0  0  0  0  0  0
   -1.4197   -2.7791    0.1251 O   0  0  0  0  0  0  0  0  0  0  0  0
    1.6395   -4.0779   -0.0301 C   0  0  0  0  0  0  0  0  0  0  0  0
   -0.8741   -5.1235    0.8083 H   0  0  0  0  0  0  0  0  0  0  0  0
    1.1738   -3.3062    1.9318 H   0  0  0  0  0  0  0  0  0  0  0  0
    1.1270   -4.4358   -0.9305 H   0  0  0  0  0  0  0  0  0  0  0  0
    2.2797   -3.2400   -0.3251 H   0  0  0  0  0  0  0  0  0  0  0  0
    2.2827   -4.8880    0.3303 H   0  0  0  0  0  0  0  0  0  0  0  0
    0.3351   -1.3153    0.5316 N   0  0  0  0  0  0  0  0  0  0  0  0
   -0.3268   -0.1184    0.0807 C   0  0  2  0  0  0  0  0  0  0  0  0
    0.7190    0.8367   -0.4864 C   0  0  0  0  0  0  0  0  0  0  0  0
    1.8736    0.8896   -0.0677 O   0  0  0  0  0  0  0  0  0  0  0  0
   -1.1808    0.5213    1.1841 C   0  0  0  0  0  0  0  0  0  0  0  0
   -2.3752   -0.3355    1.6106 C   0  0  0  0  0  0  0  0  0  0  0  0
   -3.4962   -0.6102    0.2064 S   0  0  0  0  0  0  0  0  0  0  0  0
   -4.1166    1.0783    0.0343 C   0  0  0  0  0  0  0  0  0  0  0  0
    1.2790   -1.2290    0.9021 H   0  0  0  0  0  0  0  0  0  0  0  0
   -0.9819   -0.4307   -0.7417 H   0  0  0  0  0  0  0  0  0  0  0  0
   -1.5413    1.4935    0.8222 H   0  0  0  0  0  0  0  0  0  0  0  0
   -0.5462    0.7211    2.0570 H   0  0  0  0  0  0  0  0  0  0  0  0
   -2.9462    0.1552    2.4044 H   0  0  0  0  0  0  0  0  0  0  0  0
   -2.0480   -1.3122    1.9790 H   0  0  0  0  0  0  0  0  0  0  0  0
   -4.8333    1.1290   -0.7890 H   0  0  0  0  0  0  0  0  0  0  0  0
   -3.2872    1.7591   -0.1727 H   0  0  0  0  0  0  0  0  0  0  0  0
   -4.6111    1.3880    0.9582 H   0  0  0  0  0  0  0  0  0  0  0  0
    0.2033    1.6437   -1.4904 N   0  0  0  0  0  0  0  0  0  0  0  0
    0.9968    2.6386   -2.1732 C   0  0  2  0  0  0  0  0  0  0  0  0
    0.1223    3.8653   -2.3968 C   0  0  0  0  0  0  0  0  0  0  0  0
   -1.1060    3.8193   -2.4140 O   0  0  0  0  0  0  0  0  0  0  0  0
    1.5351    2.1070   -3.4924 C   0  0  0  0  0  0  0  0  0  0  0  0
   -0.7572    1.5130   -1.7935 H   0  0  0  0  0  0  0  0  0  0  0  0
    1.8247    2.8967   -1.5039 H   0  0  0  0  0  0  0  0  0  0  0  0
    0.7200    1.8431   -4.1761 H   0  0  0  0  0  0  0  0  0  0  0  0
    2.1598    2.8526   -3.9953 H   0  0  0  0  0  0  0  0  0  0  0  0
    2.1394    1.2075   -3.3327 H   0  0  0  0  0  0  0  0  0  0  0  0
    0.8754    5.0099   -2.6177 N   0  0  0  0  0  0  0  0  0  0  0  0
    0.2773    6.3005   -2.8679 C   0  0  0  0  0  0  0  0  0  0  0  0
    1.8886    4.9589   -2.5665 H   0  0  0  0  0  0  0  0  0  0  0  0
    0.1678    6.4505   -3.9521 H   0  0  0  0  0  0  0  0  0  0  0  0
   -0.7125    6.3446   -2.3900 H   0  0  0  0  0  0  0  0  0  0  0  0
    0.9209    7.0896   -2.4517 H   0  0  0  0  0  0  0  0  0  0  0  0
  1  3  1  0  0  0  0
  1  7  1  0  0  0  0
  1  2  2  0  0  0  0
 35 36  1  0  0  0  0
 36 44  1  0  0  0  0
 36 37  2  0  0  0  0
  8  9  1  0  0  0  0
  9 17  1  0  0  0  0
  9 10  2  0  0  0  0
 18 19  1  0  0  0  0
 19 34  1  0  0  0  0
 19 20  2  0  0  0  0
 35 38  1  0  0  0  0
  8 11  1  0  0  0  0
 44 45  1  0  0  0  0
 23 24  1  0  0  0  0
 21 22  1  0  0  0  0
 18 21  1  0  0  0  0
 22 23  1  0  0  0  0
 34 35  1  0  0  0  0
  7  8  1  0  0  0  0
 17 18  1  0  0  0  0
  3  4  1  0  0  0  0
  3  5  1  0  0  0  0
  3  6  1  0  0  0  0
 38 41  1  0  0  0  0
 38 42  1  0  0  0  0
 38 43  1  0  0  0  0
 11 14  1  0  0  0  0
 11 15  1  0  0  0  0
 11 16  1  0  0  0  0
 45 47  1  0  0  0  0
 45 48  1  0  0  0  0
 45 49  1  0  0  0  0
 24 31  1  0  0  0  0
 24 32  1  0  0  0  0
 24 33  1  0  0  0  0
 21 27  1  0  0  0  0
 21 28  1  0  0  0  0
 22 29  1  0  0  0  0
 22 30  1  0  0  0  0
 35 40  1  0  0  0  0
  8 13  1  0  0  0  0
 18 26  1  0  0  0  0
 44 46  1  0  0  0  0
  7 12  1  0  0  0  0
 34 39  1  0  0  0  0
 17 25  1  0  0  0  0
M  END
$$$$

  -OEChem-05262214473D

 49 48  0     1  0  0  0  0  0999 V2000
   -0.0561   -5.3799    2.6949 C   0  0  0  0  0  0  0  0  0  0  0  0
    0.7325   -5.0736    3.5815 O   0  0  0  0  0  0  0  0  0  0  0  0
   -1.0067   -6.5099    2.9135 C   0  0  0  0  0  0  0  0  0  0  0  0
   -0.5910   -7.4777    2.5899 H   0  0  0  0  0  0  0  0  0  0  0  0
   -1.2629   -6.6440    3.9767 H   0  0  0  0  0  0  0  0  0  0  0  0
   -1.9729   -6.4206    2.3918 H   0  0  0  0  0  0  0  0  0  0  0  0
   -0.1735   -4.7694    1.4571 N   0  0  0  0  0  0  0  0  0  0  0  0
    0.6439   -3.6603    1.0409 C   0  0  2  0  0  0  0  0  0  0  0  0
   -0.2788   -2.5625    0.5280 C   0  0  0  0  0  0  0  0  0  0  0  0
   -1.4197   -2.7791    0.1251 O   0  0  0  0  0  0  0  0  0  0  0  0
    1.6395   -4.0779   -0.0301 C   0  0  0  0  0  0  0  0  0  0  0  0
   -0.8741   -5.1235    0.8083 H   0  0  0  0  0  0  0  0  0  0  0  0
    1.1738   -3.3062    1.9318 H   0  0  0  0  0  0  0  0  0  0  0  0
    1.1270   -4.4358   -0.9305 H   0  0  0  0  0  0  0  0  0  0  0  0
    2.2797   -3.2400   -0.3251 H   0  0  0  0  0  0  0  0  0  0  0  0
    2.2827   -4.8880    0.3303 H   0  0  0  0  0  0  0  0  0  0  0  0
    0.3351   -1.3153    0.5316 N   0  0  0  0  0  0  0  0  0  0  0  0
   -0.3268   -0.1184    0.0807 C   0  0  2  0  0  0  0  0  0  0  0  0
    0.7190    0.8367   -0.4864 C   0  0  0  0  0  0  0  0  0  0  0  0
    1.9228    0.7167   -0.2681 O   0  0  0  0  0  0  0  0  0  0  0  0
   -1.1808    0.5213    1.1841 C   0  0  0  0  0  0  0  0  0  0  0  0
   -2.3752   -0.3355    1.6106 C   0  0  0  0  0  0  0  0  0  0  0  0
   -3.4962   -0.6102    0.2064 S   0  0  0  0  0  0  0  0  0  0  0  0
   -4.1166    1.0783    0.0343 C   0  0  0  0  0  0  0  0  0  0  0  0
    1.2790   -1.2290    0.9021 H   0  0  0  0  0  0  0  0  0  0  0  0
   -0.9819   -0.4307   -0.7417 H   0  0  0  0  0  0  0  0  0  0  0  0
   -1.5413    1.4935    0.8222 H   0  0  0  0  0  0  0  0  0  0  0  0
   -0.5462    0.7211    2.0570 H   0  0  0  0  0  0  0  0  0  0  0  0
   -2.9462    0.1552    2.4044 H   0  0  0  0  0  0  0  0  0  0  0  0
   -2.0480   -1.3122    1.9790 H   0  0  0  0  0  0  0  0  0  0  0  0
   -4.8333    1.1290   -0.7890 H   0  0  0  0  0  0  0  0  0  0  0  0
   -3.2872    1.7591   -0.1727 H   0  0  0  0  0  0  0  0  0  0  0  0
   -4.6111    1.3880    0.9582 H   0  0  0  0  0  0  0  0  0  0  0  0
    0.1482    1.8552   -1.2361 N   0  0  0  0  0  0  0  0  0  0  0  0
    0.9328    2.8912   -1.8657 C   0  0  2  0  0  0  0  0  0  0  0  0
    0.1758    4.2053   -1.7255 C   0  0  0  0  0  0  0  0  0  0  0  0
   -1.0381    4.2637   -1.5403 O   0  0  0  0  0  0  0  0  0  0  0  0
    1.2002    2.5713   -3.3282 C   0  0  0  0  0  0  0  0  0  0  0  0
   -0.8560    1.8617   -1.3885 H   0  0  0  0  0  0  0  0  0  0  0  0
    1.8770    2.9524   -1.3137 H   0  0  0  0  0  0  0  0  0  0  0  0
    0.2657    2.5060   -3.8974 H   0  0  0  0  0  0  0  0  0  0  0  0
    1.8192    3.3436   -3.7965 H   0  0  0  0  0  0  0  0  0  0  0  0
    1.7183    1.6115   -3.4287 H   0  0  0  0  0  0  0  0  0  0  0  0
    1.0083    5.3057   -1.8746 N   0  0  0  0  0  0  0  0  0  0  0  0
    0.5256    6.6647   -1.7965 C   0  0  0  0  0  0  0  0  0  0  0  0
    2.0054    5.1637   -2.0065 H   0  0  0  0  0  0  0  0  0  0  0  0
    0.2685    7.0215   -2.8047 H   0  0  0  0  0  0  0  0  0  0  0  0
   -0.3681    6.7001   -1.1562 H   0  0  0  0  0  0  0  0  0  0  0  0
    1.3089    7.3078   -1.3687 H   0  0  0  0  0  0  0  0  0  0  0  0
  1  3  1  0  0  0  0
  1  7  1  0  0  0  0
  1  2  2  0  0  0  0
 35 36  1  0  0  0  0
 36 44  1  0  0  0  0
 36 37  2  0  0  0  0
  8  9  1  0  0  0  0
  9 17  1  0  0  0  0
  9 10  2  0  0  0  0
 18 19  1  0  0  0  0
 19 34  1  0  0  0  0
 19 20  2  0  0  0  0
 35 38  1  0  0  0  0
  8 11  1  0  0  0  0
 44 45  1  0  0  0  0
 23 24  1  0  0  0  0
 21 22  1  0  0  0  0
 18 21  1  0  0  0  0
 22 23  1  0  0  0  0
 34 35  1  0  0  0  0
  7  8  1  0  0  0  0
 17 18  1  0  0  0  0
  3  4  1  0  0  0  0
  3  5  1  0  0  0  0
  3  6  1  0  0  0  0
 38 41  1  0  0  0  0
 38 42  1  0  0  0  0
 38 43  1  0  0  0  0
 11 14  1  0  0  0  0
 11 15  1  0  0  0  0
 11 16  1  0  0  0  0
 45 47  1  0  0  0  0
 45 48  1  0  0  0  0
 45 49  1  0  0  0  0
 24 31  1  0  0  0  0
 24 32  1  0  0  0  0
 24 33  1  0  0  0  0
 21 27  1  0  0  0  0
 21 28  1  0  0  0  0
 22 29  1  0  0  0  0
 22 30  1  0  0  0  0
 35 40  1  0  0  0  0
  8 13  1  0  0  0  0
 18 26  1  0  0  0  0
 44 46  1  0  0  0  0
  7 12  1  0  0  0  0
 34 39  1  0  0  0  0
 17 25  1  0  0  0  0
M  END
$$$$

  -OEChem-05262214473D

 49 48  0     1  0  0  0  0  0999 V2000
   -0.0561   -5.3799    2.6949 C   0  0  0  0  0  0  0  0  0  0  0  0
    0.7325   -5.0736    3.5815 O   0  0  0  0  0  0  0  0  0  0  0  0
   -1.0067   -6.5099    2.9135 C   0  0  0  0  0  0  0  0  0  0  0  0
   -0.5910   -7.4777    2.5899 H   0  0  0  0  0  0  0  0  0  0  0  0
   -1.2629   -6.6440    3.9767 H   0  0  0  0  0  0  0  0  0  0  0  0
   -1.9729   -6.4206    2.3918 H   0  0  0  0  0  0  0  0  0  0  0  0
   -0.1735   -4.7694    1.4571 N   0  0  0  0  0  0  0  0  0  0  0  0
    0.6439   -3.6603    1.0409 C   0  0  2  0  0  0  0  0  0  0  0  0
   -0.2788   -2.5625    0.5280 C   0  0  0  0  0  0  0  0  0  0  0  0
   -1.4197   -2.7791    0.1251 O   0  0  0  0  0  0  0  0  0  0  0  0
    1.6395   -4.0779   -0.0301 C   0  0  0  0  0  0  0  0  0  0  0  0
   -0.8741   -5.1235    0.8083 H   0  0  0  0  0  0  0  0  0  0  0  0
    1.1738   -3.3062    1.9318 H   0  0  0  0  0  0  0  0  0  0  0  0
    1.1270   -4.4358   -0.9305 H   0  0  0  0  0  0  0  0  0  0  0  0
    2.2797   -3.2400   -0.3251 H   0  0  0  0  0  0  0  0  0  0  0  0
    2.2827   -4.8880    0.3303 H   0  0  0  0  0  0  0  0  0  0  0  0
    0.3351   -1.3153    0.5316 N   0  0  0  0  0  0  0  0  0  0  0  0
   -0.3268   -0.1184    0.0807 C   0  0  2  0  0  0  0  0  0  0  0  0
    0.6310    0.6659   -0.8109 C   0  0  0  0  0  0  0  0  0  0  0  0
    1.7805    0.2978   -1.0444 O   0  0  0  0  0  0  0  0  0  0  0  0
   -0.8716    0.7163    1.2479 C   0  0  0  0  0  0  0  0  0  0  0  0
   -1.9983    0.0279    2.0219 C   0  0  0  0  0  0  0  0  0  0  0  0
   -3.4169   -0.2931    0.9316 S   0  0  0  0  0  0  0  0  0  0  0  0
   -3.9436    1.4170    0.6794 C   0  0  0  0  0  0  0  0  0  0  0  0
    1.2790   -1.2290    0.9021 H   0  0  0  0  0  0  0  0  0  0  0  0
   -1.1665   -0.4563   -0.5388 H   0  0  0  0  0  0  0  0  0  0  0  0
   -1.2359    1.6724    0.8487 H   0  0  0  0  0  0  0  0  0  0  0  0
   -0.0484    0.9504    1.9351 H   0  0  0  0  0  0  0  0  0  0  0  0
   -2.3460    0.6545    2.8487 H   0  0  0  0  0  0  0  0  0  0  0  0
   -1.6653   -0.9288    2.4350 H   0  0  0  0  0  0  0  0  0  0  0  0
   -4.8187    1.4438    0.0256 H   0  0  0  0  0  0  0  0  0  0  0  0
   -3.1358    1.9898    0.2173 H   0  0  0  0  0  0  0  0  0  0  0  0
   -4.2005    1.8716    1.6393 H   0  0  0  0  0  0  0  0  0  0  0  0
    0.0633    1.8388   -1.2874 N   0  0  0  0  0  0  0  0  0  0  0  0
    0.7782    2.7580   -2.1415 C   0  0  2  0  0  0  0  0  0  0  0  0
    0.4148    4.1745   -1.7165 C   0  0  0  0  0  0  0  0  0  0  0  0
   -0.6156    4.4476   -1.1042 O   0  0  0  0  0  0  0  0  0  0  0  0
    0.4423    2.5270   -3.6066 C   0  0  0  0  0  0  0  0  0  0  0  0
   -0.9049    2.0517   -1.0664 H   0  0  0  0  0  0  0  0  0  0  0  0
    1.8460    2.5863   -1.9673 H   0  0  0  0  0  0  0  0  0  0  0  0
   -0.6235    2.6943   -3.8006 H   0  0  0  0  0  0  0  0  0  0  0  0
    1.0066    3.2056   -4.2548 H   0  0  0  0  0  0  0  0  0  0  0  0
    0.6766    1.4989   -3.9029 H   0  0  0  0  0  0  0  0  0  0  0  0
    1.3552    5.1037   -2.1390 N   0  0  0  0  0  0  0  0  0  0  0  0
    1.2299    6.5172   -1.8703 C   0  0  0  0  0  0  0  0  0  0  0  0
    2.1887    4.7856   -2.6246 H   0  0  0  0  0  0  0  0  0  0  0  0
    0.7178    7.0069   -2.7116 H   0  0  0  0  0  0  0  0  0  0  0  0
    0.6461    6.6650   -0.9497 H   0  0  0  0  0  0  0  0  0  0  0  0
    2.2305    6.9565   -1.7444 H   0  0  0  0  0  0  0  0  0  0  0  0
  1  3  1  0  0  0  0
  1  7  1  0  0  0  0
  1  2  2  0  0  0  0
 35 36  1  0  0  0  0
 36 44  1  0  0  0  0
 36 37  2  0  0  0  0
  8  9  1  0  0  0  0
  9 17  1  0  0  0  0
  9 10  2  0  0  0  0
 18 19  1  0  0  0  0
 19 34  1  0  0  0  0
 19 20  2  0  0  0  0
 35 38  1  0  0  0  0
  8 11  1  0  0  0  0
 44 45  1  0  0  0  0
 23 24  1  0  0  0  0
 21 22  1  0  0  0  0
 18 21  1  0  0  0  0
 22 23  1  0  0  0  0
 34 35  1  0  0  0  0
  7  8  1  0  0  0  0
 17 18  1  0  0  0  0
  3  4  1  0  0  0  0
  3  5  1  0  0  0  0
  3  6  1  0  0  0  0
 38 41  1  0  0  0  0
 38 42  1  0  0  0  0
 38 43  1  0  0  0  0
 11 14  1  0  0  0  0
 11 15  1  0  0  0  0
 11 16  1  0  0  0  0
 45 47  1  0  0  0  0
 45 48  1  0  0  0  0
 45 49  1  0  0  0  0
 24 31  1  0  0  0  0
 24 32  1  0  0  0  0
 24 33  1  0  0  0  0
 21 27  1  0  0  0  0
 21 28  1  0  0  0  0
 22 29  1  0  0  0  0
 22 30  1  0  0  0  0
 35 40  1  0  0  0  0
  8 13  1  0  0  0  0
 18 26  1  0  0  0  0
 44 46  1  0  0  0  0
  7 12  1  0  0  0  0
 34 39  1  0  0  0  0
 17 25  1  0  0  0  0
M  END
$$$$

  -OEChem-05262214473D

 49 48  0     1  0  0  0  0  0999 V2000
   -0.0561   -5.3799    2.6949 C   0  0  0  0  0  0  0  0  0  0  0  0
    0.7325   -5.0736    3.5815 O   0  0  0  0  0  0  0  0  0  0  0  0
   -1.0067   -6.5099    2.9135 C   0  0  0  0  0  0  0  0  0  0  0  0
   -0.5910   -7.4777    2.5899 H   0  0  0  0  0  0  0  0  0  0  0  0
   -1.2629   -6.6440    3.9767 H   0  0  0  0  0  0  0  0  0  0  0  0
   -1.9729   -6.4206    2.3918 H   0  0  0  0  0  0  0  0  0  0  0  0
   -0.1735   -4.7694    1.4571 N   0  0  0  0  0  0  0  0  0  0  0  0
    0.6439   -3.6603    1.0409 C   0  0  2  0  0  0  0  0  0  0  0  0
   -0.2788   -2.5625    0.5280 C   0  0  0  0  0  0  0  0  0  0  0  0
   -1.4197   -2.7791    0.1251 O   0  0  0  0  0  0  0  0  0  0  0  0
    1.6395   -4.0779   -0.0301 C   0  0  0  0  0  0  0  0  0  0  0  0
   -0.8741   -5.1235    0.8083 H   0  0  0  0  0  0  0  0  0  0  0  0
    1.1738   -3.3062    1.9318 H   0  0  0  0  0  0  0  0  0  0  0  0
    1.1270   -4.4358   -0.9305 H   0  0  0  0  0  0  0  0  0  0  0  0
    2.2797   -3.2400   -0.3251 H   0  0  0  0  0  0  0  0  0  0  0  0
    2.2827   -4.8880    0.3303 H   0  0  0  0  0  0  0  0  0  0  0  0
    0.3351   -1.3153    0.5316 N   0  0  0  0  0  0  0  0  0  0  0  0
   -0.3268   -0.1184    0.0807 C   0  0  2  0  0  0  0  0  0  0  0  0
    0.6310    0.6659   -0.8109 C   0  0  0  0  0  0  0  0  0  0  0  0
    1.6689    0.1861   -1.2625 O   0  0  0  0  0  0  0  0  0  0  0  0
   -0.8716    0.7163    1.2479 C   0  0  0  0  0  0  0  0  0  0  0  0
   -1.9983    0.0279    2.0219 C   0  0  0  0  0  0  0  0  0  0  0  0
   -3.4169   -0.2931    0.9316 S   0  0  0  0  0  0  0  0  0  0  0  0
   -3.9436    1.4170    0.6794 C   0  0  0  0  0  0  0  0  0  0  0  0
    1.2790   -1.2290    0.9021 H   0  0  0  0  0  0  0  0  0  0  0  0
   -1.1665   -0.4563   -0.5388 H   0  0  0  0  0  0  0  0  0  0  0  0
   -1.2359    1.6724    0.8487 H   0  0  0  0  0  0  0  0  0  0  0  0
   -0.0484    0.9504    1.9351 H   0  0  0  0  0  0  0  0  0  0  0  0
   -2.3460    0.6545    2.8487 H   0  0  0  0  0  0  0  0  0  0  0  0
   -1.6653   -0.9288    2.4350 H   0  0  0  0  0  0  0  0  0  0  0  0
   -4.8187    1.4438    0.0256 H   0  0  0  0  0  0  0  0  0  0  0  0
   -3.1358    1.9898    0.2173 H   0  0  0  0  0  0  0  0  0  0  0  0
   -4.2005    1.8716    1.6393 H   0  0  0  0  0  0  0  0  0  0  0  0
    0.2079    1.9713   -1.0155 N   0  0  0  0  0  0  0  0  0  0  0  0
    0.9542    2.9147   -1.8146 C   0  0  2  0  0  0  0  0  0  0  0  0
    0.8794    4.2733   -1.1304 C   0  0  0  0  0  0  0  0  0  0  0  0
   -0.0116    4.5784   -0.3403 O   0  0  0  0  0  0  0  0  0  0  0  0
    0.4111    2.9898   -3.2331 C   0  0  0  0  0  0  0  0  0  0  0  0
   -0.6792    2.2765   -0.6261 H   0  0  0  0  0  0  0  0  0  0  0  0
    1.9931    2.5675   -1.8257 H   0  0  0  0  0  0  0  0  0  0  0  0
   -0.6289    3.3358   -3.2420 H   0  0  0  0  0  0  0  0  0  0  0  0
    0.9958    3.6841   -3.8455 H   0  0  0  0  0  0  0  0  0  0  0  0
    0.4381    2.0057   -3.7133 H   0  0  0  0  0  0  0  0  0  0  0  0
    1.9002    5.1203   -1.5388 N   0  0  0  0  0  0  0  0  0  0  0  0
    2.0393    6.4695   -1.0427 C   0  0  0  0  0  0  0  0  0  0  0  0
    2.6064    4.7771   -2.1833 H   0  0  0  0  0  0  0  0  0  0  0  0
    1.5158    7.1641   -1.7161 H   0  0  0  0  0  0  0  0  0  0  0  0
    1.6025    6.5365   -0.0354 H   0  0  0  0  0  0  0  0  0  0  0  0
    3.1057    6.7357   -0.9984 H   0  0  0  0  0  0  0  0  0  0  0  0
  1  3  1  0  0  0  0
  1  7  1  0  0  0  0
  1  2  2  0  0  0  0
 35 36  1  0  0  0  0
 36 44  1  0  0  0  0
 36 37  2  0  0  0  0
  8  9  1  0  0  0  0
  9 17  1  0  0  0  0
  9 10  2  0  0  0  0
 18 19  1  0  0  0  0
 19 34  1  0  0  0  0
 19 20  2  0  0  0  0
 35 38  1  0  0  0  0
  8 11  1  0  0  0  0
 44 45  1  0  0  0  0
 23 24  1  0  0  0  0
 21 22  1  0  0  0  0
 18 21  1  0  0  0  0
 22 23  1  0  0  0  0
 34 35  1  0  0  0  0
  7  8  1  0  0  0  0
 17 18  1  0  0  0  0
  3  4  1  0  0  0  0
  3  5  1  0  0  0  0
  3  6  1  0  0  0  0
 38 41  1  0  0  0  0
 38 42  1  0  0  0  0
 38 43  1  0  0  0  0
 11 14  1  0  0  0  0
 11 15  1  0  0  0  0
 11 16  1  0  0  0  0
 45 47  1  0  0  0  0
 45 48  1  0  0  0  0
 45 49  1  0  0  0  0
 24 31  1  0  0  0  0
 24 32  1  0  0  0  0
 24 33  1  0  0  0  0
 21 27  1  0  0  0  0
 21 28  1  0  0  0  0
 22 29  1  0  0  0  0
 22 30  1  0  0  0  0
 35 40  1  0  0  0  0
  8 13  1  0  0  0  0
 18 26  1  0  0  0  0
 44 46  1  0  0  0  0
  7 12  1  0  0  0  0
 34 39  1  0  0  0  0
 17 25  1  0  0  0  0
M  END
$$$$

  -OEChem-05262214473D

 49 48  0     1  0  0  0  0  0999 V2000
   -0.0561   -5.3799    2.6949 C   0  0  0  0  0  0  0  0  0  0  0  0
    0.7325   -5.0736    3.5815 O   0  0  0  0  0  0  0  0  0  0  0  0
   -1.0067   -6.5099    2.9135 C   0  0  0  0  0  0  0  0  0  0  0  0
   -0.5910   -7.4777    2.5899 H   0  0  0  0  0  0  0  0  0  0  0  0
   -1.2629   -6.6440    3.9767 H   0  0  0  0  0  0  0  0  0  0  0  0
   -1.9729   -6.4206    2.3918 H   0  0  0  0  0  0  0  0  0  0  0  0
   -0.1735   -4.7694    1.4571 N   0  0  0  0  0  0  0  0  0  0  0  0
    0.6439   -3.6603    1.0409 C   0  0  2  0  0  0  0  0  0  0  0  0
   -0.2788   -2.5625    0.5280 C   0  0  0  0  0  0  0  0  0  0  0  0
   -1.4197   -2.7791    0.1251 O   0  0  0  0  0  0  0  0  0  0  0  0
    1.6395   -4.0779   -0.0301 C   0  0  0  0  0  0  0  0  0  0  0  0
   -0.8741   -5.1235    0.8083 H   0  0  0  0  0  0  0  0  0  0  0  0
    1.1738   -3.3062    1.9318 H   0  0  0  0  0  0  0  0  0  0  0  0
    1.1270   -4.4358   -0.9305 H   0  0  0  0  0  0  0  0  0  0  0  0
    2.2797   -3.2400   -0.3251 H   0  0  0  0  0  0  0  0  0  0  0  0
    2.2827   -4.8880    0.3303 H   0  0  0  0  0  0  0  0  0  0  0  0
    0.3351   -1.3153    0.5316 N   0  0  0  0  0  0  0  0  0  0  0  0
   -0.3268   -0.1184    0.0807 C   0  0  2  0  0  0  0  0  0  0  0  0
    0.6310    0.6659   -0.8109 C   0  0  0  0  0  0  0  0  0  0  0  0
    1.5151    0.1306   -1.4765 O   0  0  0  0  0  0  0  0  0  0  0  0
   -0.8716    0.7163    1.2479 C   0  0  0  0  0  0  0  0  0  0  0  0
   -1.9983    0.0279    2.0219 C   0  0  0  0  0  0  0  0  0  0  0  0
   -3.4169   -0.2931    0.9316 S   0  0  0  0  0  0  0  0  0  0  0  0
   -3.9436    1.4170    0.6794 C   0  0  0  0  0  0  0  0  0  0  0  0
    1.2790   -1.2290    0.9021 H   0  0  0  0  0  0  0  0  0  0  0  0
   -1.1665   -0.4563   -0.5388 H   0  0  0  0  0  0  0  0  0  0  0  0
   -1.2359    1.6724    0.8487 H   0  0  0  0  0  0  0  0  0  0  0  0
   -0.0484    0.9504    1.9351 H   0  0  0  0  0  0  0  0  0  0  0  0
   -2.3460    0.6545    2.8487 H   0  0  0  0  0  0  0  0  0  0  0  0
   -1.6653   -0.9288    2.4350 H   0  0  0  0  0  0  0  0  0  0  0  0
   -4.8187    1.4438    0.0256 H   0  0  0  0  0  0  0  0  0  0  0  0
   -3.1358    1.9898    0.2173 H   0  0  0  0  0  0  0  0  0  0  0  0
   -4.2005    1.8716    1.6393 H   0  0  0  0  0  0  0  0  0  0  0  0
    0.4038    2.0333   -0.7505 N   0  0  0  0  0  0  0  0  0  0  0  0
    1.1914    2.9864   -1.4967 C   0  0  2  0  0  0  0  0  0  0  0  0
    1.4211    4.2033   -0.6101 C   0  0  0  0  0  0  0  0  0  0  0  0
    0.6932    4.4891    0.3384 O   0  0  0  0  0  0  0  0  0  0  0  0
    0.5008    3.3808   -2.7929 C   0  0  0  0  0  0  0  0  0  0  0  0
   -0.3685    2.3880   -0.1943 H   0  0  0  0  0  0  0  0  0  0  0  0
    2.1512    2.5041   -1.7117 H   0  0  0  0  0  0  0  0  0  0  0  0
   -0.4627    3.8656   -2.5976 H   0  0  0  0  0  0  0  0  0  0  0  0
    1.1122    4.0815   -3.3710 H   0  0  0  0  0  0  0  0  0  0  0  0
    0.3096    2.5005   -3.4161 H   0  0  0  0  0  0  0  0  0  0  0  0
    2.5090    4.9563   -1.0290 N   0  0  0  0  0  0  0  0  0  0  0  0
    2.9239    6.1665   -0.3588 C   0  0  0  0  0  0  0  0  0  0  0  0
    3.0672    4.6340   -1.8140 H   0  0  0  0  0  0  0  0  0  0  0  0
    2.4428    7.0335   -0.8351 H   0  0  0  0  0  0  0  0  0  0  0  0
    2.6285    6.1191    0.6997 H   0  0  0  0  0  0  0  0  0  0  0  0
    4.0169    6.2688   -0.4302 H   0  0  0  0  0  0  0  0  0  0  0  0
  1  3  1  0  0  0  0
  1  7  1  0  0  0  0
  1  2  2  0  0  0  0
 35 36  1  0  0  0  0
 36 44  1  0  0  0  0
 36 37  2  0  0  0  0
  8  9  1  0  0  0  0
  9 17  1  0  0  0  0
  9 10  2  0  0  0  0
 18 19  1  0  0  0  0
 19 34  1  0  0  0  0
 19 20  2  0  0  0  0
 35 38  1  0  0  0  0
  8 11  1  0  0  0  0
 44 45  1  0  0  0  0
 23 24  1  0  0  0  0
 21 22  1  0  0  0  0
 18 21  1  0  0  0  0
 22 23  1  0  0  0  0
 34 35  1  0  0  0  0
  7  8  1  0  0  0  0
 17 18  1  0  0  0  0
  3  4  1  0  0  0  0
  3  5  1  0  0  0  0
  3  6  1  0  0  0  0
 38 41  1  0  0  0  0
 38 42  1  0  0  0  0
 38 43  1  0  0  0  0
 11 14  1  0  0  0  0
 11 15  1  0  0  0  0
 11 16  1  0  0  0  0
 45 47  1  0  0  0  0
 45 48  1  0  0  0  0
 45 49  1  0  0  0  0
 24 31  1  0  0  0  0
 24 32  1  0  0  0  0
 24 33  1  0  0  0  0
 21 27  1  0  0  0  0
 21 28  1  0  0  0  0
 22 29  1  0  0  0  0
 22 30  1  0  0  0  0
 35 40  1  0  0  0  0
  8 13  1  0  0  0  0
 18 26  1  0  0  0  0
 44 46  1  0  0  0  0
  7 12  1  0  0  0  0
 34 39  1  0  0  0  0
 17 25  1  0  0  0  0
M  END
$$$$

  -OEChem-05262214473D

 49 48  0     1  0  0  0  0  0999 V2000
   -0.0561   -5.3799    2.6949 C   0  0  0  0  0  0  0  0  0  0  0  0
    0.7325   -5.0736    3.5815 O   0  0  0  0  0  0  0  0  0  0  0  0
   -1.0067   -6.5099    2.9135 C   0  0  0  0  0  0  0  0  0  0  0  0
   -0.5910   -7.4777    2.5899 H   0  0  0  0  0  0  0  0  0  0  0  0
   -1.2629   -6.6440    3.9767 H   0  0  0  0  0  0  0  0  0  0  0  0
   -1.9729   -6.4206    2.3918 H   0  0  0  0  0  0  0  0  0  0  0  0
   -0.1735   -4.7694    1.4571 N   0  0  0  0  0  0  0  0  0  0  0  0
    0.6439   -3.6603    1.0409 C   0  0  2  0  0  0  0  0  0  0  0  0
   -0.2788   -2.5625    0.5280 C   0  0  0  0  0  0  0  0  0  0  0  0
   -1.4197   -2.7791    0.1251 O   0  0  0  0  0  0  0  0  0  0  0  0
    1.6395   -4.0779   -0.0301 C   0  0  0  0  0  0  0  0  0  0  0  0
   -0.8741   -5.1235    0.8083 H   0  0  0  0  0  0  0  0  0  0  0  0
    1.1738   -3.3062    1.9318 H   0  0  0  0  0  0  0  0  0  0  0  0
    1.1270   -4.4358   -0.9305 H   0  0  0  0  0  0  0  0  0  0  0  0
    2.2797   -3.2400   -0.3251 H   0  0  0  0  0  0  0  0  0  0  0  0
    2.2827   -4.8880    0.3303 H   0  0  0  0  0  0  0  0  0  0  0  0
    0.3351   -1.3153    0.5316 N   0  0  0  0  0  0  0  0  0  0  0  0
   -0.3268   -0.1184    0.0807 C   0  0  2  0  0  0  0  0  0  0  0  0
    0.6310    0.6659   -0.8109 C   0  0  0  0  0  0  0  0  0  0  0  0
    1.3298    0.1350   -1.6717 O   0  0  0  0  0  0  0  0  0  0  0  0
   -0.8716    0.7163    1.2479 C   0  0  0  0  0  0  0  0  0  0  0  0
   -1.9983    0.0279    2.0219 C   0  0  0  0  0  0  0  0  0  0  0  0
   -3.4169   -0.2931    0.9316 S   0  0  0  0  0  0  0  0  0  0  0  0
   -3.9436    1.4170    0.6794 C   0  0  0  0  0  0  0  0  0  0  0  0
    1.2790   -1.2290    0.9021 H   0  0  0  0  0  0  0  0  0  0  0  0
   -1.1665   -0.4563   -0.5388 H   0  0  0  0  0  0  0  0  0  0  0  0
   -1.2359    1.6724    0.8487 H   0  0  0  0  0  0  0  0  0  0  0  0
   -0.0484    0.9504    1.9351 H   0  0  0  0  0  0  0  0  0  0  0  0
   -2.3460    0.6545    2.8487 H   0  0  0  0  0  0  0  0  0  0  0  0
   -1.6653   -0.9288    2.4350 H   0  0  0  0  0  0  0  0  0  0  0  0
   -4.8187    1.4438    0.0256 H   0  0  0  0  0  0  0  0  0  0  0  0
   -3.1358    1.9898    0.2173 H   0  0  0  0  0  0  0  0  0  0  0  0
   -4.2005    1.8716    1.6393 H   0  0  0  0  0  0  0  0  0  0  0  0
    0.6377    2.0205   -0.5106 N   0  0  0  0  0  0  0  0  0  0  0  0
    1.4737    2.9681   -1.2095 C   0  0  2  0  0  0  0  0  0  0  0  0
    2.0029    3.9691   -0.1910 C   0  0  0  0  0  0  0  0  0  0  0  0
    1.4508    4.1860    0.8857 O   0  0  0  0  0  0  0  0  0  0  0  0
    0.7051    3.6733   -2.3161 C   0  0  0  0  0  0  0  0  0  0  0  0
    0.0059    2.3785    0.1995 H   0  0  0  0  0  0  0  0  0  0  0  0
    2.3095    2.4004   -1.6328 H   0  0  0  0  0  0  0  0  0  0  0  0
   -0.1363    4.2474   -1.9111 H   0  0  0  0  0  0  0  0  0  0  0  0
    1.3479    4.3706   -2.8635 H   0  0  0  0  0  0  0  0  0  0  0  0
    0.2999    2.9496   -3.0315 H   0  0  0  0  0  0  0  0  0  0  0  0
    3.1401    4.6230   -0.6442 N   0  0  0  0  0  0  0  0  0  0  0  0
    3.8236    5.6289    0.1349 C   0  0  0  0  0  0  0  0  0  0  0  0
    3.5399    4.3661   -1.5419 H   0  0  0  0  0  0  0  0  0  0  0  0
    3.4357    6.6239   -0.1287 H   0  0  0  0  0  0  0  0  0  0  0  0
    3.6542    5.4413    1.2054 H   0  0  0  0  0  0  0  0  0  0  0  0
    4.9020    5.5877   -0.0784 H   0  0  0  0  0  0  0  0  0  0  0  0
  1  3  1  0  0  0  0
  1  7  1  0  0  0  0
  1  2  2  0  0  0  0
 35 36  1  0  0  0  0
 36 44  1  0  0  0  0
 36 37  2  0  0  0  0
  8  9  1  0  0  0  0
  9 17  1  0  0  0  0
  9 10  2  0  0  0  0
 18 19  1  0  0  0  0
 19 34  1  0  0  0  0
 19 20  2  0  0  0  0
 35 38  1  0  0  0  0
  8 11  1  0  0  0  0
 44 45  1  0  0  0  0
 23 24  1  0  0  0  0
 21 22  1  0  0  0  0
 18 21  1  0  0  0  0
 22 23  1  0  0  0  0
 34 35  1  0  0  0  0
  7  8  1  0  0  0  0
 17 18  1  0  0  0  0
  3  4  1  0  0  0  0
  3  5  1  0  0  0  0
  3  6  1  0  0  0  0
 38 41  1  0  0  0  0
 38 42  1  0  0  0  0
 38 43  1  0  0  0  0
 11 14  1  0  0  0  0
 11 15  1  0  0  0  0
 11 16  1  0  0  0  0
 45 47  1  0  0  0  0
 45 48  1  0  0  0  0
 45 49  1  0  0  0  0
 24 31  1  0  0  0  0
 24 32  1  0  0  0  0
 24 33  1  0  0  0  0
 21 27  1  0  0  0  0
 21 28  1  0  0  0  0
 22 29  1  0  0  0  0
 22 30  1  0  0  0  0
 35 40  1  0  0  0  0
  8 13  1  0  0  0  0
 18 26  1  0  0  0  0
 44 46  1  0  0  0  0
  7 12  1  0  0  0  0
 34 39  1  0  0  0  0
 17 25  1  0  0  0  0
M  END
$$$$

  -OEChem-05262214473D

 49 48  0     1  0  0  0  0  0999 V2000
   -0.0561   -5.3799    2.6949 C   0  0  0  0  0  0  0  0  0  0  0  0
    0.7325   -5.0736    3.5815 O   0  0  0  0  0  0  0  0  0  0  0  0
   -1.0067   -6.5099    2.9135 C   0  0  0  0  0  0  0  0  0  0  0  0
   -0.5910   -7.4777    2.5899 H   0  0  0  0  0  0  0  0  0  0  0  0
   -1.2629   -6.6440    3.9767 H   0  0  0  0  0  0  0  0  0  0  0  0
   -1.9729   -6.4206    2.3918 H   0  0  0  0  0  0  0  0  0  0  0  0
   -0.1735   -4.7694    1.4571 N   0  0  0  0  0  0  0  0  0  0  0  0
    0.6439   -3.6603    1.0409 C   0  0  2  0  0  0  0  0  0  0  0  0
   -0.2788   -2.5625    0.5280 C   0  0  0  0  0  0  0  0  0  0  0  0
   -1.4197   -2.7791    0.1251 O   0  0  0  0  0  0  0  0  0  0  0  0
    1.6395   -4.0779   -0.0301 C   0  0  0  0  0  0  0  0  0  0  0  0
   -0.8741   -5.1235    0.8083 H   0  0  0  0  0  0  0  0  0  0  0  0
    1.1738   -3.3062    1.9318 H   0  0  0  0  0  0  0  0  0  0  0  0
    1.1270   -4.4358   -0.9305 H   0  0  0  0  0  0  0  0  0  0  0  0
    2.2797   -3.2400   -0.3251 H   0  0  0  0  0  0  0  0  0  0  0  0
    2.2827   -4.8880    0.3303 H   0  0  0  0  0  0  0  0  0  0  0  0
    0.3351   -1.3153    0.5316 N   0  0  0  0  0  0  0  0  0  0  0  0
   -0.3268   -0.1184    0.0807 C   0  0  2  0  0  0  0  0  0  0  0  0
    0.6310    0.6659   -0.8109 C   0  0  0  0  0  0  0  0  0  0  0  0
    1.1255    0.1990   -1.8350 O   0  0  0  0  0  0  0  0  0  0  0  0
   -0.8716    0.7163    1.2479 C   0  0  0  0  0  0  0  0  0  0  0  0
   -1.9983    0.0279    2.0219 C   0  0  0  0  0  0  0  0  0  0  0  0
   -3.4169   -0.2931    0.9316 S   0  0  0  0  0  0  0  0  0  0  0  0
   -3.9436    1.4170    0.6794 C   0  0  0  0  0  0  0  0  0  0  0  0
    1.2790   -1.2290    0.9021 H   0  0  0  0  0  0  0  0  0  0  0  0
   -1.1665   -0.4563   -0.5388 H   0  0  0  0  0  0  0  0  0  0  0  0
   -1.2359    1.6724    0.8487 H   0  0  0  0  0  0  0  0  0  0  0  0
   -0.0484    0.9504    1.9351 H   0  0  0  0  0  0  0  0  0  0  0  0
   -2.3460    0.6545    2.8487 H   0  0  0  0  0  0  0  0  0  0  0  0
   -1.6653   -0.9288    2.4350 H   0  0  0  0  0  0  0  0  0  0  0  0
   -4.8187    1.4438    0.0256 H   0  0  0  0  0  0  0  0  0  0  0  0
   -3.1358    1.9898    0.2173 H   0  0  0  0  0  0  0  0  0  0  0  0
   -4.2005    1.8716    1.6393 H   0  0  0  0  0  0  0  0  0  0  0  0
    0.8935    1.9337   -0.3120 N   0  0  0  0  0  0  0  0  0  0  0  0
    1.7818    2.8610   -0.9727 C   0  0  2  0  0  0  0  0  0  0  0  0
    2.5853    3.5868    0.0984 C   0  0  0  0  0  0  0  0  0  0  0  0
    2.2096    3.6897    1.2643 O   0  0  0  0  0  0  0  0  0  0  0  0
    1.0101    3.8476   -1.8351 C   0  0  0  0  0  0  0  0  0  0  0  0
    0.4185    2.2487    0.5286 H   0  0  0  0  0  0  0  0  0  0  0  0
    2.4573    2.2635   -1.5946 H   0  0  0  0  0  0  0  0  0  0  0  0
    0.3280    4.4553   -1.2294 H   0  0  0  0  0  0  0  0  0  0  0  0
    1.6868    4.5317   -2.3577 H   0  0  0  0  0  0  0  0  0  0  0  0
    0.4096    3.3224   -2.5858 H   0  0  0  0  0  0  0  0  0  0  0  0
    3.7505    4.1431   -0.4106 N   0  0  0  0  0  0  0  0  0  0  0  0
    4.6770    4.8933    0.4047 C   0  0  0  0  0  0  0  0  0  0  0  0
    3.9921    3.9916   -1.3855 H   0  0  0  0  0  0  0  0  0  0  0  0
    4.4267    5.9633    0.3549 H   0  0  0  0  0  0  0  0  0  0  0  0
    4.6096    4.5492    1.4473 H   0  0  0  0  0  0  0  0  0  0  0  0
    5.7007    4.7387    0.0329 H   0  0  0  0  0  0  0  0  0  0  0  0
  1  3  1  0  0  0  0
  1  7  1  0  0  0  0
  1  2  2  0  0  0  0
 35 36  1  0  0  0  0
 36 44  1  0  0  0  0
 36 37  2  0  0  0  0
  8  9  1  0  0  0  0
  9 17  1  0  0  0  0
  9 10  2  0  0  0  0
 18 19  1  0  0  0  0
 19 34  1  0  0  0  0
 19 20  2  0  0  0  0
 35 38  1  0  0  0  0
  8 11  1  0  0  0  0
 44 45  1  0  0  0  0
 23 24  1  0  0  0  0
 21 22  1  0  0  0  0
 18 21  1  0  0  0  0
 22 23  1  0  0  0  0
 34 35  1  0  0  0  0
  7  8  1  0  0  0  0
 17 18  1  0  0  0  0
  3  4  1  0  0  0  0
  3  5  1  0  0  0  0
  3  6  1  0  0  0  0
 38 41  1  0  0  0  0
 38 42  1  0  0  0  0
 38 43  1  0  0  0  0
 11 14  1  0  0  0  0
 11 15  1  0  0  0  0
 11 16  1  0  0  0  0
 45 47  1  0  0  0  0
 45 48  1  0  0  0  0
 45 49  1  0  0  0  0
 24 31  1  0  0  0  0
 24 32  1  0  0  0  0
 24 33  1  0  0  0  0
 21 27  1  0  0  0  0
 21 28  1  0  0  0  0
 22 29  1  0  0  0  0
 22 30  1  0  0  0  0
 35 40  1  0  0  0  0
  8 13  1  0  0  0  0
 18 26  1  0  0  0  0
 44 46  1  0  0  0  0
  7 12  1  0  0  0  0
 34 39  1  0  0  0  0
 17 25  1  0  0  0  0
M  END
$$$$

  -OEChem-05262214473D

 49 48  0     1  0  0  0  0  0999 V2000
   -0.0561   -5.3799    2.6949 C   0  0  0  0  0  0  0  0  0  0  0  0
    0.7325   -5.0736    3.5815 O   0  0  0  0  0  0  0  0  0  0  0  0
   -1.0067   -6.5099    2.9135 C   0  0  0  0  0  0  0  0  0  0  0  0
   -0.5910   -7.4777    2.5899 H   0  0  0  0  0  0  0  0  0  0  0  0
   -1.2629   -6.6440    3.9767 H   0  0  0  0  0  0  0  0  0  0  0  0
   -1.9729   -6.4206    2.3918 H   0  0  0  0  0  0  0  0  0  0  0  0
   -0.1735   -4.7694    1.4571 N   0  0  0  0  0  0  0  0  0  0  0  0
    0.6439   -3.6603    1.0409 C   0  0  2  0  0  0  0  0  0  0  0  0
   -0.2788   -2.5625    0.5280 C   0  0  0  0  0  0  0  0  0  0  0  0
   -1.4197   -2.7791    0.1251 O   0  0  0  0  0  0  0  0  0  0  0  0
    1.6395   -4.0779   -0.0301 C   0  0  0  0  0  0  0  0  0  0  0  0
   -0.8741   -5.1235    0.8083 H   0  0  0  0  0  0  0  0  0  0  0  0
    1.1738   -3.3062    1.9318 H   0  0  0  0  0  0  0  0  0  0  0  0
    1.1270   -4.4358   -0.9305 H   0  0  0  0  0  0  0  0  0  0  0  0
    2.2797   -3.2400   -0.3251 H   0  0  0  0  0  0  0  0  0  0  0  0
    2.2827   -4.8880    0.3303 H   0  0  0  0  0  0  0  0  0  0  0  0
    0.3351   -1.3153    0.5316 N   0  0  0  0  0  0  0  0  0  0  0  0
   -0.3268   -0.1184    0.0807 C   0  0  2  0  0  0  0  0  0  0  0  0
    0.6310    0.6659   -0.8109 C   0  0  0  0  0  0  0  0  0  0  0  0
    0.9161    0.3182   -1.9550 O   0  0  0  0  0  0  0  0  0  0  0  0
   -0.8716    0.7163    1.2479 C   0  0  0  0  0  0  0  0  0  0  0  0
   -1.9983    0.0279    2.0219 C   0  0  0  0  0  0  0  0  0  0  0  0
   -3.4169   -0.2931    0.9316 S   0  0  0  0  0  0  0  0  0  0  0  0
   -3.9436    1.4170    0.6794 C   0  0  0  0  0  0  0  0  0  0  0  0
    1.2790   -1.2290    0.9021 H   0  0  0  0  0  0  0  0  0  0  0  0
   -1.1665   -0.4563   -0.5388 H   0  0  0  0  0  0  0  0  0  0  0  0
   -1.2359    1.6724    0.8487 H   0  0  0  0  0  0  0  0  0  0  0  0
   -0.0484    0.9504    1.9351 H   0  0  0  0  0  0  0  0  0  0  0  0
   -2.3460    0.6545    2.8487 H   0  0  0  0  0  0  0  0  0  0  0  0
   -1.6653   -0.9288    2.4350 H   0  0  0  0  0  0  0  0  0  0  0  0
   -4.8187    1.4438    0.0256 H   0  0  0  0  0  0  0  0  0  0  0  0
   -3.1358    1.9898    0.2173 H   0  0  0  0  0  0  0  0  0  0  0  0
   -4.2005    1.8716    1.6393 H   0  0  0  0  0  0  0  0  0  0  0  0
    1.1540    1.7789   -0.1684 N   0  0  0  0  0  0  0  0  0  0  0  0
    2.0948    2.6725   -0.8023 C   0  0  2  0  0  0  0  0  0  0  0  0
    3.1285    3.0824    0.2383 C   0  0  0  0  0  0  0  0  0  0  0  0
    2.9178    3.0341    1.4484 O   0  0  0  0  0  0  0  0  0  0  0  0
    1.3950    3.8915   -1.3829 C   0  0  0  0  0  0  0  0  0  0  0  0
    0.8412    2.0075    0.7705 H   0  0  0  0  0  0  0  0  0  0  0  0
    2.5843    2.1026   -1.5995 H   0  0  0  0  0  0  0  0  0  0  0  0
    0.8987    4.4751   -0.5989 H   0  0  0  0  0  0  0  0  0  0  0  0
    2.1058    4.5539   -1.8880 H   0  0  0  0  0  0  0  0  0  0  0  0
    0.6313    3.5934   -2.1092 H   0  0  0  0  0  0  0  0  0  0  0  0
    4.2986    3.5492   -0.3441 N   0  0  0  0  0  0  0  0  0  0  0  0
    5.4260    4.0099    0.4322 C   0  0  0  0  0  0  0  0  0  0  0  0
    4.3931    3.5361   -1.3554 H   0  0  0  0  0  0  0  0  0  0  0  0
    5.3485    5.0967    0.5829 H   0  0  0  0  0  0  0  0  0  0  0  0
    5.4298    3.5037    1.4088 H   0  0  0  0  0  0  0  0  0  0  0  0
    6.3586    3.7797   -0.1037 H   0  0  0  0  0  0  0  0  0  0  0  0
  1  3  1  0  0  0  0
  1  7  1  0  0  0  0
  1  2  2  0  0  0  0
 35 36  1  0  0  0  0
 36 44  1  0  0  0  0
 36 37  2  0  0  0  0
  8  9  1  0  0  0  0
  9 17  1  0  0  0  0
  9 10  2  0  0  0  0
 18 19  1  0  0  0  0
 19 34  1  0  0  0  0
 19 20  2  0  0  0  0
 35 38  1  0  0  0  0
  8 11  1  0  0  0  0
 44 45  1  0  0  0  0
 23 24  1  0  0  0  0
 21 22  1  0  0  0  0
 18 21  1  0  0  0  0
 22 23  1  0  0  0  0
 34 35  1  0  0  0  0
  7  8  1  0  0  0  0
 17 18  1  0  0  0  0
  3  4  1  0  0  0  0
  3  5  1  0  0  0  0
  3  6  1  0  0  0  0
 38 41  1  0  0  0  0
 38 42  1  0  0  0  0
 38 43  1  0  0  0  0
 11 14  1  0  0  0  0
 11 15  1  0  0  0  0
 11 16  1  0  0  0  0
 45 47  1  0  0  0  0
 45 48  1  0  0  0  0
 45 49  1  0  0  0  0
 24 31  1  0  0  0  0
 24 32  1  0  0  0  0
 24 33  1  0  0  0  0
 21 27  1  0  0  0  0
 21 28  1  0  0  0  0
 22 29  1  0  0  0  0
 22 30  1  0  0  0  0
 35 40  1  0  0  0  0
  8 13  1  0  0  0  0
 18 26  1  0  0  0  0
 44 46  1  0  0  0  0
  7 12  1  0  0  0  0
 34 39  1  0  0  0  0
 17 25  1  0  0  0  0
M  END
$$$$

  -OEChem-05262214473D

 49 48  0     1  0  0  0  0  0999 V2000
   -0.0561   -5.3799    2.6949 C   0  0  0  0  0  0  0  0  0  0  0  0
    0.7325   -5.0736    3.5815 O   0  0  0  0  0  0  0  0  0  0  0  0
   -1.0067   -6.5099    2.9135 C   0  0  0  0  0  0  0  0  0  0  0  0
   -0.5910   -7.4777    2.5899 H   0  0  0  0  0  0  0  0  0  0  0  0
   -1.2629   -6.6440    3.9767 H   0  0  0  0  0  0  0  0  0  0  0  0
   -1.9729   -6.4206    2.3918 H   0  0  0  0  0  0  0  0  0  0  0  0
   -0.1735   -4.7694    1.4571 N   0  0  0  0  0  0  0  0  0  0  0  0
    0.6439   -3.6603    1.0409 C   0  0  2  0  0  0  0  0  0  0  0  0
   -0.2788   -2.5625    0.5280 C   0  0  0  0  0  0  0  0  0  0  0  0
   -1.4197   -2.7791    0.1251 O   0  0  0  0  0  0  0  0  0  0  0  0
    1.6395   -4.0779   -0.0301 C   0  0  0  0  0  0  0  0  0  0  0  0
   -0.8741   -5.1235    0.8083 H   0  0  0  0  0  0  0  0  0  0  0  0
    1.1738   -3.3062    1.9318 H   0  0  0  0  0  0  0  0  0  0  0  0
    1.1270   -4.4358   -0.9305 H   0  0  0  0  0  0  0  0  0  0  0  0
    2.2797   -3.2400   -0.3251 H   0  0  0  0  0  0  0  0  0  0  0  0
    2.2827   -4.8880    0.3303 H   0  0  0  0  0  0  0  0  0  0  0  0
    0.3351   -1.3153    0.5316 N   0  0  0  0  0  0  0  0  0  0  0  0
   -0.3268   -0.1184    0.0807 C   0  0  2  0  0  0  0  0  0  0  0  0
    0.6310    0.6659   -0.8109 C   0  0  0  0  0  0  0  0  0  0  0  0
    0.7158    0.4846   -2.0238 O   0  0  0  0  0  0  0  0  0  0  0  0
   -0.8716    0.7163    1.2479 C   0  0  0  0  0  0  0  0  0  0  0  0
   -1.9983    0.0279    2.0219 C   0  0  0  0  0  0  0  0  0  0  0  0
   -3.4169   -0.2931    0.9316 S   0  0  0  0  0  0  0  0  0  0  0  0
   -3.9436    1.4170    0.6794 C   0  0  0  0  0  0  0  0  0  0  0  0
    1.2790   -1.2290    0.9021 H   0  0  0  0  0  0  0  0  0  0  0  0
   -1.1665   -0.4563   -0.5388 H   0  0  0  0  0  0  0  0  0  0  0  0
   -1.2359    1.6724    0.8487 H   0  0  0  0  0  0  0  0  0  0  0  0
   -0.0484    0.9504    1.9351 H   0  0  0  0  0  0  0  0  0  0  0  0
   -2.3460    0.6545    2.8487 H   0  0  0  0  0  0  0  0  0  0  0  0
   -1.6653   -0.9288    2.4350 H   0  0  0  0  0  0  0  0  0  0  0  0
   -4.8187    1.4438    0.0256 H   0  0  0  0  0  0  0  0  0  0  0  0
   -3.1358    1.9898    0.2173 H   0  0  0  0  0  0  0  0  0  0  0  0
   -4.2005    1.8716    1.6393 H   0  0  0  0  0  0  0  0  0  0  0  0
    1.4012    1.5667   -0.0894 N   0  0  0  0  0  0  0  0  0  0  0  0
    2.3912    2.4154   -0.7100 C   0  0  2  0  0  0  0  0  0  0  0  0
    3.5955    2.4903    0.2192 C   0  0  0  0  0  0  0  0  0  0  0  0
    3.5272    2.2637    1.4254 O   0  0  0  0  0  0  0  0  0  0  0  0
    1.8337    3.8023   -0.9901 C   0  0  0  0  0  0  0  0  0  0  0  0
    1.2452    1.6712    0.9088 H   0  0  0  0  0  0  0  0  0  0  0  0
    2.6820    1.9289   -1.6474 H   0  0  0  0  0  0  0  0  0  0  0  0
    1.5368    4.3054   -0.0626 H   0  0  0  0  0  0  0  0  0  0  0  0
    2.5764    4.4357   -1.4865 H   0  0  0  0  0  0  0  0  0  0  0  0
    0.9498    3.7443   -1.6344 H   0  0  0  0  0  0  0  0  0  0  0  0
    4.7470    2.8819   -0.4494 N   0  0  0  0  0  0  0  0  0  0  0  0
    6.0194    3.0388    0.2156 C   0  0  0  0  0  0  0  0  0  0  0  0
    4.7155    3.0305   -1.4537 H   0  0  0  0  0  0  0  0  0  0  0  0
    6.1381    4.0832    0.5397 H   0  0  0  0  0  0  0  0  0  0  0  0
    6.0588    2.3761    1.0927 H   0  0  0  0  0  0  0  0  0  0  0  0
    6.8309    2.7762   -0.4791 H   0  0  0  0  0  0  0  0  0  0  0  0
  1  3  1  0  0  0  0
  1  7  1  0  0  0  0
  1  2  2  0  0  0  0
 35 36  1  0  0  0  0
 36 44  1  0  0  0  0
 36 37  2  0  0  0  0
  8  9  1  0  0  0  0
  9 17  1  0  0  0  0
  9 10  2  0  0  0  0
 18 19  1  0  0  0  0
 19 34  1  0  0  0  0
 19 20  2  0  0  0  0
 35 38  1  0  0  0  0
  8 11  1  0  0  0  0
 44 45  1  0  0  0  0
 23 24  1  0  0  0  0
 21 22  1  0  0  0  0
 18 21  1  0  0  0  0
 22 23  1  0  0  0  0
 34 35  1  0  0  0  0
  7  8  1  0  0  0  0
 17 18  1  0  0  0  0
  3  4  1  0  0  0  0
  3  5  1  0  0  0  0
  3  6  1  0  0  0  0
 38 41  1  0  0  0  0
 38 42  1  0  0  0  0
 38 43  1  0  0  0  0
 11 14  1  0  0  0  0
 11 15  1  0  0  0  0
 11 16  1  0  0  0  0
 45 47  1  0  0  0  0
 45 48  1  0  0  0  0
 45 49  1  0  0  0  0
 24 31  1  0  0  0  0
 24 32  1  0  0  0  0
 24 33  1  0  0  0  0
 21 27  1  0  0  0  0
 21 28  1  0  0  0  0
 22 29  1  0  0  0  0
 22 30  1  0  0  0  0
 35 40  1  0  0  0  0
  8 13  1  0  0  0  0
 18 26  1  0  0  0  0
 44 46  1  0  0  0  0
  7 12  1  0  0  0  0
 34 39  1  0  0  0  0
 17 25  1  0  0  0  0
M  END
$$$$

  -OEChem-05262214473D

 49 48  0     1  0  0  0  0  0999 V2000
   -0.0561   -5.3799    2.6949 C   0  0  0  0  0  0  0  0  0  0  0  0
    0.7325   -5.0736    3.5815 O   0  0  0  0  0  0  0  0  0  0  0  0
   -1.0067   -6.5099    2.9135 C   0  0  0  0  0  0  0  0  0  0  0  0
   -0.5910   -7.4777    2.5899 H   0  0  0  0  0  0  0  0  0  0  0  0
   -1.2629   -6.6440    3.9767 H   0  0  0  0  0  0  0  0  0  0  0  0
   -1.9729   -6.4206    2.3918 H   0  0  0  0  0  0  0  0  0  0  0  0
   -0.1735   -4.7694    1.4571 N   0  0  0  0  0  0  0  0  0  0  0  0
    0.6439   -3.6603    1.0409 C   0  0  2  0  0  0  0  0  0  0  0  0
   -0.2788   -2.5625    0.5280 C   0  0  0  0  0  0  0  0  0  0  0  0
   -1.4197   -2.7791    0.1251 O   0  0  0  0  0  0  0  0  0  0  0  0
    1.6395   -4.0779   -0.0301 C   0  0  0  0  0  0  0  0  0  0  0  0
   -0.8741   -5.1235    0.8083 H   0  0  0  0  0  0  0  0  0  0  0  0
    1.1738   -3.3062    1.9318 H   0  0  0  0  0  0  0  0  0  0  0  0
    1.1270   -4.4358   -0.9305 H   0  0  0  0  0  0  0  0  0  0  0  0
    2.2797   -3.2400   -0.3251 H   0  0  0  0  0  0  0  0  0  0  0  0
    2.2827   -4.8880    0.3303 H   0  0  0  0  0  0  0  0  0  0  0  0
    0.3351   -1.3153    0.5316 N   0  0  0  0  0  0  0  0  0  0  0  0
   -0.3268   -0.1184    0.0807 C   0  0  2  0  0  0  0  0  0  0  0  0
    0.6310    0.6659   -0.8109 C   0  0  0  0  0  0  0  0  0  0  0  0
    0.5385    0.6868   -2.0365 O   0  0  0  0  0  0  0  0  0  0  0  0
   -0.8716    0.7163    1.2479 C   0  0  0  0  0  0  0  0  0  0  0  0
   -1.9983    0.0279    2.0219 C   0  0  0  0  0  0  0  0  0  0  0  0
   -3.4169   -0.2931    0.9316 S   0  0  0  0  0  0  0  0  0  0  0  0
   -3.9436    1.4170    0.6794 C   0  0  0  0  0  0  0  0  0  0  0  0
    1.2790   -1.2290    0.9021 H   0  0  0  0  0  0  0  0  0  0  0  0
   -1.1665   -0.4563   -0.5388 H   0  0  0  0  0  0  0  0  0  0  0  0
   -1.2359    1.6724    0.8487 H   0  0  0  0  0  0  0  0  0  0  0  0
   -0.0484    0.9504    1.9351 H   0  0  0  0  0  0  0  0  0  0  0  0
   -2.3460    0.6545    2.8487 H   0  0  0  0  0  0  0  0  0  0  0  0
   -1.6653   -0.9288    2.4350 H   0  0  0  0  0  0  0  0  0  0  0  0
   -4.8187    1.4438    0.0256 H   0  0  0  0  0  0  0  0  0  0  0  0
   -3.1358    1.9898    0.2173 H   0  0  0  0  0  0  0  0  0  0  0  0
   -4.2005    1.8716    1.6393 H   0  0  0  0  0  0  0  0  0  0  0  0
    1.6184    1.3115   -0.0806 N   0  0  0  0  0  0  0  0  0  0  0  0
    2.6509    2.1073   -0.7021 C   0  0  2  0  0  0  0  0  0  0  0  0
    3.9545    1.8508    0.0424 C   0  0  0  0  0  0  0  0  0  0  0  0
    3.9962    1.4311    1.1970 O   0  0  0  0  0  0  0  0  0  0  0  0
    2.2962    3.5860   -0.6835 C   0  0  0  0  0  0  0  0  0  0  0  0
    1.6029    1.2628    0.9339 H   0  0  0  0  0  0  0  0  0  0  0  0
    2.7438    1.7540   -1.7348 H   0  0  0  0  0  0  0  0  0  0  0  0
    2.1988    3.9579    0.3429 H   0  0  0  0  0  0  0  0  0  0  0  0
    3.0664    4.1850   -1.1804 H   0  0  0  0  0  0  0  0  0  0  0  0
    1.3434    3.7646   -1.1936 H   0  0  0  0  0  0  0  0  0  0  0  0
    5.0651    2.1866   -0.7192 N   0  0  0  0  0  0  0  0  0  0  0  0
    6.4170    2.0462   -0.2304 C   0  0  0  0  0  0  0  0  0  0  0  0
    4.9374    2.5094   -1.6737 H   0  0  0  0  0  0  0  0  0  0  0  0
    6.7417    2.9918    0.2282 H   0  0  0  0  0  0  0  0  0  0  0  0
    6.4537    1.2431    0.5204 H   0  0  0  0  0  0  0  0  0  0  0  0
    7.0853    1.7963   -1.0676 H   0  0  0  0  0  0  0  0  0  0  0  0
  1  3  1  0  0  0  0
  1  7  1  0  0  0  0
  1  2  2  0  0  0  0
 35 36  1  0  0  0  0
 36 44  1  0  0  0  0
 36 37  2  0  0  0  0
  8  9  1  0  0  0  0
  9 17  1  0  0  0  0
  9 10  2  0  0  0  0
 18 19  1  0  0  0  0
 19 34  1  0  0  0  0
 19 20  2  0  0  0  0
 35 38  1  0  0  0  0
  8 11  1  0  0  0  0
 44 45  1  0  0  0  0
 23 24  1  0  0  0  0
 21 22  1  0  0  0  0
 18 21  1  0  0  0  0
 22 23  1  0  0  0  0
 34 35  1  0  0  0  0
  7  8  1  0  0  0  0
 17 18  1  0  0  0  0
  3  4  1  0  0  0  0
  3  5  1  0  0  0  0
  3  6  1  0  0  0  0
 38 41  1  0  0  0  0
 38 42  1  0  0  0  0
 38 43  1  0  0  0  0
 11 14  1  0  0  0  0
 11 15  1  0  0  0  0
 11 16  1  0  0  0  0
 45 47  1  0  0  0  0
 45 48  1  0  0  0  0
 45 49  1  0  0  0  0
 24 31  1  0  0  0  0
 24 32  1  0  0  0  0
 24 33  1  0  0  0  0
 21 27  1  0  0  0  0
 21 28  1  0  0  0  0
 22 29  1  0  0  0  0
 22 30  1  0  0  0  0
 35 40  1  0  0  0  0
  8 13  1  0  0  0  0
 18 26  1  0  0  0  0
 44 46  1  0  0  0  0
  7 12  1  0  0  0  0
 34 39  1  0  0  0  0
 17 25  1  0  0  0  0
M  END
$$$$

  -OEChem-05262214473D

 49 48  0     1  0  0  0  0  0999 V2000
   -0.0561   -5.3799    2.6949 C   0  0  0  0  0  0  0  0  0  0  0  0
    0.7325   -5.0736    3.5815 O   0  0  0  0  0  0  0  0  0  0  0  0
   -1.0067   -6.5099    2.9135 C   0  0  0  0  0  0  0  0  0  0  0  0
   -0.5910   -7.4777    2.5899 H   0  0  0  0  0  0  0  0  0  0  0  0
   -1.2629   -6.6440    3.9767 H   0  0  0  0  0  0  0  0  0  0  0  0
   -1.9729   -6.4206    2.3918 H   0  0  0  0  0  0  0  0  0  0  0  0
   -0.1735   -4.7694    1.4571 N   0  0  0  0  0  0  0  0  0  0  0  0
    0.6439   -3.6603    1.0409 C   0  0  2  0  0  0  0  0  0  0  0  0
   -0.2788   -2.5625    0.5280 C   0  0  0  0  0  0  0  0  0  0  0  0
   -1.4197   -2.7791    0.1251 O   0  0  0  0  0  0  0  0  0  0  0  0
    1.6395   -4.0779   -0.0301 C   0  0  0  0  0  0  0  0  0  0  0  0
   -0.8741   -5.1235    0.8083 H   0  0  0  0  0  0  0  0  0  0  0  0
    1.1738   -3.3062    1.9318 H   0  0  0  0  0  0  0  0  0  0  0  0
    1.1270   -4.4358   -0.9305 H   0  0  0  0  0  0  0  0  0  0  0  0
    2.2797   -3.2400   -0.3251 H   0  0  0  0  0  0  0  0  0  0  0  0
    2.2827   -4.8880    0.3303 H   0  0  0  0  0  0  0  0  0  0  0  0
    0.3351   -1.3153    0.5316 N   0  0  0  0  0  0  0  0  0  0  0  0
   -0.3268   -0.1184    0.0807 C   0  0  2  0  0  0  0  0  0  0  0  0
    0.6310    0.6659   -0.8109 C   0  0  0  0  0  0  0  0  0  0  0  0
    0.3960    0.9109   -1.9924 O   0  0  0  0  0  0  0  0  0  0  0  0
   -0.8716    0.7163    1.2479 C   0  0  0  0  0  0  0  0  0  0  0  0
   -1.9983    0.0279    2.0219 C   0  0  0  0  0  0  0  0  0  0  0  0
   -3.4169   -0.2931    0.9316 S   0  0  0  0  0  0  0  0  0  0  0  0
   -3.9436    1.4170    0.6794 C   0  0  0  0  0  0  0  0  0  0  0  0
    1.2790   -1.2290    0.9021 H   0  0  0  0  0  0  0  0  0  0  0  0
   -1.1665   -0.4563   -0.5388 H   0  0  0  0  0  0  0  0  0  0  0  0
   -1.2359    1.6724    0.8487 H   0  0  0  0  0  0  0  0  0  0  0  0
   -0.0484    0.9504    1.9351 H   0  0  0  0  0  0  0  0  0  0  0  0
   -2.3460    0.6545    2.8487 H   0  0  0  0  0  0  0  0  0  0  0  0
   -1.6653   -0.9288    2.4350 H   0  0  0  0  0  0  0  0  0  0  0  0
   -4.8187    1.4438    0.0256 H   0  0  0  0  0  0  0  0  0  0  0  0
   -3.1358    1.9898    0.2173 H   0  0  0  0  0  0  0  0  0  0  0  0
   -4.2005    1.8716    1.6393 H   0  0  0  0  0  0  0  0  0  0  0  0
    1.7908    1.0306   -0.1424 N   0  0  0  0  0  0  0  0  0  0  0  0
    2.8562    1.7690   -0.7790 C   0  0  2  0  0  0  0  0  0  0  0  0
    4.1810    1.2075   -0.2801 C   0  0  0  0  0  0  0  0  0  0  0  0
    4.2930    0.5931    0.7787 O   0  0  0  0  0  0  0  0  0  0  0  0
    2.7510    3.2572   -0.4841 C   0  0  0  0  0  0  0  0  0  0  0  0
    1.8900    0.8102    0.8442 H   0  0  0  0  0  0  0  0  0  0  0  0
    2.7654    1.5900   -1.8559 H   0  0  0  0  0  0  0  0  0  0  0  0
    2.8397    3.4562    0.5901 H   0  0  0  0  0  0  0  0  0  0  0  0
    3.5426    3.8190   -0.9908 H   0  0  0  0  0  0  0  0  0  0  0  0
    1.7854    3.6531   -0.8168 H   0  0  0  0  0  0  0  0  0  0  0  0
    5.2314    1.5107   -1.1350 N   0  0  0  0  0  0  0  0  0  0  0  0
    6.5915    1.0998   -0.8754 C   0  0  0  0  0  0  0  0  0  0  0  0
    5.0436    2.0082   -2.0005 H   0  0  0  0  0  0  0  0  0  0  0  0
    7.1182    1.8969   -0.3304 H   0  0  0  0  0  0  0  0  0  0  0  0
    6.5877    0.1820   -0.2691 H   0  0  0  0  0  0  0  0  0  0  0  0
    7.1045    0.9071   -1.8291 H   0  0  0  0  0  0  0  0  0  0  0  0
  1  3  1  0  0  0  0
  1  7  1  0  0  0  0
  1  2  2  0  0  0  0
 35 36  1  0  0  0  0
 36 44  1  0  0  0  0
 36 37  2  0  0  0  0
  8  9  1  0  0  0  0
  9 17  1  0  0  0  0
  9 10  2  0  0  0  0
 18 19  1  0  0  0  0
 19 34  1  0  0  0  0
 19 20  2  0  0  0  0
 35 38  1  0  0  0  0
  8 11  1  0  0  0  0
 44 45  1  0  0  0  0
 23 24  1  0  0  0  0
 21 22  1  0  0  0  0
 18 21  1  0  0  0  0
 22 23  1  0  0  0  0
 34 35  1  0  0  0  0
  7  8  1  0  0  0  0
 17 18  1  0  0  0  0
  3  4  1  0  0  0  0
  3  5  1  0  0  0  0
  3  6  1  0  0  0  0
 38 41  1  0  0  0  0
 38 42  1  0  0  0  0
 38 43  1  0  0  0  0
 11 14  1  0  0  0  0
 11 15  1  0  0  0  0
 11 16  1  0  0  0  0
 45 47  1  0  0  0  0
 45 48  1  0  0  0  0
 45 49  1  0  0  0  0
 24 31  1  0  0  0  0
 24 32  1  0  0  0  0
 24 33  1  0  0  0  0
 21 27  1  0  0  0  0
 21 28  1  0  0  0  0
 22 29  1  0  0  0  0
 22 30  1  0  0  0  0
 35 40  1  0  0  0  0
  8 13  1  0  0  0  0
 18 26  1  0  0  0  0
 44 46  1  0  0  0  0
  7 12  1  0  0  0  0
 34 39  1  0  0  0  0
 17 25  1  0  0  0  0
M  END
$$$$

  -OEChem-05262214473D

 49 48  0     1  0  0  0  0  0999 V2000
   -0.0561   -5.3799    2.6949 C   0  0  0  0  0  0  0  0  0  0  0  0
    0.7325   -5.0736    3.5815 O   0  0  0  0  0  0  0  0  0  0  0  0
   -1.0067   -6.5099    2.9135 C   0  0  0  0  0  0  0  0  0  0  0  0
   -0.5910   -7.4777    2.5899 H   0  0  0  0  0  0  0  0  0  0  0  0
   -1.2629   -6.6440    3.9767 H   0  0  0  0  0  0  0  0  0  0  0  0
   -1.9729   -6.4206    2.3918 H   0  0  0  0  0  0  0  0  0  0  0  0
   -0.1735   -4.7694    1.4571 N   0  0  0  0  0  0  0  0  0  0  0  0
    0.6439   -3.6603    1.0409 C   0  0  2  0  0  0  0  0  0  0  0  0
   -0.2788   -2.5625    0.5280 C   0  0  0  0  0  0  0  0  0  0  0  0
   -1.4197   -2.7791    0.1251 O   0  0  0  0  0  0  0  0  0  0  0  0
    1.6395   -4.0779   -0.0301 C   0  0  0  0  0  0  0  0  0  0  0  0
   -0.8741   -5.1235    0.8083 H   0  0  0  0  0  0  0  0  0  0  0  0
    1.1738   -3.3062    1.9318 H   0  0  0  0  0  0  0  0  0  0  0  0
    1.1270   -4.4358   -0.9305 H   0  0  0  0  0  0  0  0  0  0  0  0
    2.2797   -3.2400   -0.3251 H   0  0  0  0  0  0  0  0  0  0  0  0
    2.2827   -4.8880    0.3303 H   0  0  0  0  0  0  0  0  0  0  0  0
    0.3351   -1.3153    0.5316 N   0  0  0  0  0  0  0  0  0  0  0  0
   -0.3268   -0.1184    0.0807 C   0  0  2  0  0  0  0  0  0  0  0  0
    0.6310    0.6659   -0.8109 C   0  0  0  0  0  0  0  0  0  0  0  0
    0.2982    1.1419   -1.8943 O   0  0  0  0  0  0  0  0  0  0  0  0
   -0.8716    0.7163    1.2479 C   0  0  0  0  0  0  0  0  0  0  0  0
   -1.9983    0.0279    2.0219 C   0  0  0  0  0  0  0  0  0  0  0  0
   -3.4169   -0.2931    0.9316 S   0  0  0  0  0  0  0  0  0  0  0  0
   -3.9436    1.4170    0.6794 C   0  0  0  0  0  0  0  0  0  0  0  0
    1.2790   -1.2290    0.9021 H   0  0  0  0  0  0  0  0  0  0  0  0
   -1.1665   -0.4563   -0.5388 H   0  0  0  0  0  0  0  0  0  0  0  0
   -1.2359    1.6724    0.8487 H   0  0  0  0  0  0  0  0  0  0  0  0
   -0.0484    0.9504    1.9351 H   0  0  0  0  0  0  0  0  0  0  0  0
   -2.3460    0.6545    2.8487 H   0  0  0  0  0  0  0  0  0  0  0  0
   -1.6653   -0.9288    2.4350 H   0  0  0  0  0  0  0  0  0  0  0  0
   -4.8187    1.4438    0.0256 H   0  0  0  0  0  0  0  0  0  0  0  0
   -3.1358    1.9898    0.2173 H   0  0  0  0  0  0  0  0  0  0  0  0
   -4.2005    1.8716    1.6393 H   0  0  0  0  0  0  0  0  0  0  0  0
    1.9067    0.7433   -0.2706 N   0  0  0  0  0  0  0  0  0  0  0  0
    2.9931    1.4238   -0.9356 C   0  0  2  0  0  0  0  0  0  0  0  0
    4.2596    0.6043   -0.7262 C   0  0  0  0  0  0  0  0  0  0  0  0
    4.3972   -0.1933    0.1989 O   0  0  0  0  0  0  0  0  0  0  0  0
    3.1671    2.8384   -0.4055 C   0  0  0  0  0  0  0  0  0  0  0  0
    2.0869    0.3441    0.6458 H   0  0  0  0  0  0  0  0  0  0  0  0
    2.7453    1.4480   -2.0024 H   0  0  0  0  0  0  0  0  0  0  0  0
    3.4157    2.8344    0.6621 H   0  0  0  0  0  0  0  0  0  0  0  0
    3.9725    3.3626   -0.9304 H   0  0  0  0  0  0  0  0  0  0  0  0
    2.2455    3.4174   -0.5299 H   0  0  0  0  0  0  0  0  0  0  0  0
    5.2345    0.9002   -1.6687 N   0  0  0  0  0  0  0  0  0  0  0  0
    6.5311    0.2640   -1.6754 C   0  0  0  0  0  0  0  0  0  0  0  0
    5.0269    1.5611   -2.4117 H   0  0  0  0  0  0  0  0  0  0  0  0
    7.2420    0.8732   -1.0979 H   0  0  0  0  0  0  0  0  0  0  0  0
    6.4515   -0.7350   -1.2219 H   0  0  0  0  0  0  0  0  0  0  0  0
    6.8873    0.1689   -2.7118 H   0  0  0  0  0  0  0  0  0  0  0  0
  1  3  1  0  0  0  0
  1  7  1  0  0  0  0
  1  2  2  0  0  0  0
 35 36  1  0  0  0  0
 36 44  1  0  0  0  0
 36 37  2  0  0  0  0
  8  9  1  0  0  0  0
  9 17  1  0  0  0  0
  9 10  2  0  0  0  0
 18 19  1  0  0  0  0
 19 34  1  0  0  0  0
 19 20  2  0  0  0  0
 35 38  1  0  0  0  0
  8 11  1  0  0  0  0
 44 45  1  0  0  0  0
 23 24  1  0  0  0  0
 21 22  1  0  0  0  0
 18 21  1  0  0  0  0
 22 23  1  0  0  0  0
 34 35  1  0  0  0  0
  7  8  1  0  0  0  0
 17 18  1  0  0  0  0
  3  4  1  0  0  0  0
  3  5  1  0  0  0  0
  3  6  1  0  0  0  0
 38 41  1  0  0  0  0
 38 42  1  0  0  0  0
 38 43  1  0  0  0  0
 11 14  1  0  0  0  0
 11 15  1  0  0  0  0
 11 16  1  0  0  0  0
 45 47  1  0  0  0  0
 45 48  1  0  0  0  0
 45 49  1  0  0  0  0
 24 31  1  0  0  0  0
 24 32  1  0  0  0  0
 24 33  1  0  0  0  0
 21 27  1  0  0  0  0
 21 28  1  0  0  0  0
 22 29  1  0  0  0  0
 22 30  1  0  0  0  0
 35 40  1  0  0  0  0
  8 13  1  0  0  0  0
 18 26  1  0  0  0  0
 44 46  1  0  0  0  0
  7 12  1  0  0  0  0
 34 39  1  0  0  0  0
 17 25  1  0  0  0  0
M  END
$$$$

  -OEChem-05262214473D

 49 48  0     1  0  0  0  0  0999 V2000
   -0.0561   -5.3799    2.6949 C   0  0  0  0  0  0  0  0  0  0  0  0
    0.7325   -5.0736    3.5815 O   0  0  0  0  0  0  0  0  0  0  0  0
   -1.0067   -6.5099    2.9135 C   0  0  0  0  0  0  0  0  0  0  0  0
   -0.5910   -7.4777    2.5899 H   0  0  0  0  0  0  0  0  0  0  0  0
   -1.2629   -6.6440    3.9767 H   0  0  0  0  0  0  0  0  0  0  0  0
   -1.9729   -6.4206    2.3918 H   0  0  0  0  0  0  0  0  0  0  0  0
   -0.1735   -4.7694    1.4571 N   0  0  0  0  0  0  0  0  0  0  0  0
    0.6439   -3.6603    1.0409 C   0  0  2  0  0  0  0  0  0  0  0  0
   -0.2788   -2.5625    0.5280 C   0  0  0  0  0  0  0  0  0  0  0  0
   -1.4197   -2.7791    0.1251 O   0  0  0  0  0  0  0  0  0  0  0  0
    1.6395   -4.0779   -0.0301 C   0  0  0  0  0  0  0  0  0  0  0  0
   -0.8741   -5.1235    0.8083 H   0  0  0  0  0  0  0  0  0  0  0  0
    1.1738   -3.3062    1.9318 H   0  0  0  0  0  0  0  0  0  0  0  0
    1.1270   -4.4358   -0.9305 H   0  0  0  0  0  0  0  0  0  0  0  0
    2.2797   -3.2400   -0.3251 H   0  0  0  0  0  0  0  0  0  0  0  0
    2.2827   -4.8880    0.3303 H   0  0  0  0  0  0  0  0  0  0  0  0
    0.3351   -1.3153    0.5316 N   0  0  0  0  0  0  0  0  0  0  0  0
   -0.3268   -0.1184    0.0807 C   0  0  2  0  0  0  0  0  0  0  0  0
    0.6310    0.6659   -0.8109 C   0  0  0  0  0  0  0  0  0  0  0  0
    0.2517    1.3638   -1.7491 O   0  0  0  0  0  0  0  0  0  0  0  0
   -0.8716    0.7163    1.2479 C   0  0  0  0  0  0  0  0  0  0  0  0
   -1.9983    0.0279    2.0219 C   0  0  0  0  0  0  0  0  0  0  0  0
   -3.4169   -0.2931    0.9316 S   0  0  0  0  0  0  0  0  0  0  0  0
   -3.9436    1.4170    0.6794 C   0  0  0  0  0  0  0  0  0  0  0  0
    1.2790   -1.2290    0.9021 H   0  0  0  0  0  0  0  0  0  0  0  0
   -1.1665   -0.4563   -0.5388 H   0  0  0  0  0  0  0  0  0  0  0  0
   -1.2359    1.6724    0.8487 H   0  0  0  0  0  0  0  0  0  0  0  0
   -0.0484    0.9504    1.9351 H   0  0  0  0  0  0  0  0  0  0  0  0
   -2.3460    0.6545    2.8487 H   0  0  0  0  0  0  0  0  0  0  0  0
   -1.6653   -0.9288    2.4350 H   0  0  0  0  0  0  0  0  0  0  0  0
   -4.8187    1.4438    0.0256 H   0  0  0  0  0  0  0  0  0  0  0  0
   -3.1358    1.9898    0.2173 H   0  0  0  0  0  0  0  0  0  0  0  0
   -4.2005    1.8716    1.6393 H   0  0  0  0  0  0  0  0  0  0  0  0
    1.9580    0.4691   -0.4566 N   0  0  0  0  0  0  0  0  0  0  0  0
    3.0522    1.0950   -1.1612 C   0  0  2  0  0  0  0  0  0  0  0  0
    4.1850    0.0823   -1.2656 C   0  0  0  0  0  0  0  0  0  0  0  0
    4.3018   -0.8745   -0.5027 O   0  0  0  0  0  0  0  0  0  0  0  0
    3.5161    2.3582   -0.4529 C   0  0  0  0  0  0  0  0  0  0  0  0
    2.1803   -0.1037    0.3522 H   0  0  0  0  0  0  0  0  0  0  0  0
    2.6849    1.3376   -2.1643 H   0  0  0  0  0  0  0  0  0  0  0  0
    3.8877    2.1350    0.5539 H   0  0  0  0  0  0  0  0  0  0  0  0
    4.3266    2.8470   -1.0035 H   0  0  0  0  0  0  0  0  0  0  0  0
    2.6925    3.0734   -0.3522 H   0  0  0  0  0  0  0  0  0  0  0  0
    5.0741    0.3969   -2.2838 N   0  0  0  0  0  0  0  0  0  0  0  0
    6.2398   -0.4041   -2.5760 C   0  0  0  0  0  0  0  0  0  0  0  0
    4.8885    1.1986   -2.8793 H   0  0  0  0  0  0  0  0  0  0  0  0
    7.1045   -0.0097   -2.0221 H   0  0  0  0  0  0  0  0  0  0  0  0
    6.0545   -1.4453   -2.2732 H   0  0  0  0  0  0  0  0  0  0  0  0
    6.4484   -0.3678   -3.6554 H   0  0  0  0  0  0  0  0  0  0  0  0
  1  3  1  0  0  0  0
  1  7  1  0  0  0  0
  1  2  2  0  0  0  0
 35 36  1  0  0  0  0
 36 44  1  0  0  0  0
 36 37  2  0  0  0  0
  8  9  1  0  0  0  0
  9 17  1  0  0  0  0
  9 10  2  0  0  0  0
 18 19  1  0  0  0  0
 19 34  1  0  0  0  0
 19 20  2  0  0  0  0
 35 38  1  0  0  0  0
  8 11  1  0  0  0  0
 44 45  1  0  0  0  0
 23 24  1  0  0  0  0
 21 22  1  0  0  0  0
 18 21  1  0  0  0  0
 22 23  1  0  0  0  0
 34 35  1  0  0  0  0
  7  8  1  0  0  0  0
 17 18  1  0  0  0  0
  3  4  1  0  0  0  0
  3  5  1  0  0  0  0
  3  6  1  0  0  0  0
 38 41  1  0  0  0  0
 38 42  1  0  0  0  0
 38 43  1  0  0  0  0
 11 14  1  0  0  0  0
 11 15  1  0  0  0  0
 11 16  1  0  0  0  0
 45 47  1  0  0  0  0
 45 48  1  0  0  0  0
 45 49  1  0  0  0  0
 24 31  1  0  0  0  0
 24 32  1  0  0  0  0
 24 33  1  0  0  0  0
 21 27  1  0  0  0  0
 21 28  1  0  0  0  0
 22 29  1  0  0  0  0
 22 30  1  0  0  0  0
 35 40  1  0  0  0  0
  8 13  1  0  0  0  0
 18 26  1  0  0  0  0
 44 46  1  0  0  0  0
  7 12  1  0  0  0  0
 34 39  1  0  0  0  0
 17 25  1  0  0  0  0
M  END
$$$$

  -OEChem-05262214473D

 49 48  0     1  0  0  0  0  0999 V2000
   -0.0561   -5.3799    2.6949 C   0  0  0  0  0  0  0  0  0  0  0  0
    0.7325   -5.0736    3.5815 O   0  0  0  0  0  0  0  0  0  0  0  0
   -1.0067   -6.5099    2.9135 C   0  0  0  0  0  0  0  0  0  0  0  0
   -0.5910   -7.4777    2.5899 H   0  0  0  0  0  0  0  0  0  0  0  0
   -1.2629   -6.6440    3.9767 H   0  0  0  0  0  0  0  0  0  0  0  0
   -1.9729   -6.4206    2.3918 H   0  0  0  0  0  0  0  0  0  0  0  0
   -0.1735   -4.7694    1.4571 N   0  0  0  0  0  0  0  0  0  0  0  0
    0.6439   -3.6603    1.0409 C   0  0  2  0  0  0  0  0  0  0  0  0
   -0.2788   -2.5625    0.5280 C   0  0  0  0  0  0  0  0  0  0  0  0
   -1.4197   -2.7791    0.1251 O   0  0  0  0  0  0  0  0  0  0  0  0
    1.6395   -4.0779   -0.0301 C   0  0  0  0  0  0  0  0  0  0  0  0
   -0.8741   -5.1235    0.8083 H   0  0  0  0  0  0  0  0  0  0  0  0
    1.1738   -3.3062    1.9318 H   0  0  0  0  0  0  0  0  0  0  0  0
    1.1270   -4.4358   -0.9305 H   0  0  0  0  0  0  0  0  0  0  0  0
    2.2797   -3.2400   -0.3251 H   0  0  0  0  0  0  0  0  0  0  0  0
    2.2827   -4.8880    0.3303 H   0  0  0  0  0  0  0  0  0  0  0  0
    0.3351   -1.3153    0.5316 N   0  0  0  0  0  0  0  0  0  0  0  0
   -0.3268   -0.1184    0.0807 C   0  0  2  0  0  0  0  0  0  0  0  0
    0.6310    0.6659   -0.8109 C   0  0  0  0  0  0  0  0  0  0  0  0
    0.2597    1.5615   -1.5666 O   0  0  0  0  0  0  0  0  0  0  0  0
   -0.8716    0.7163    1.2479 C   0  0  0  0  0  0  0  0  0  0  0  0
   -1.9983    0.0279    2.0219 C   0  0  0  0  0  0  0  0  0  0  0  0
   -3.4169   -0.2931    0.9316 S   0  0  0  0  0  0  0  0  0  0  0  0
   -3.9436    1.4170    0.6794 C   0  0  0  0  0  0  0  0  0  0  0  0
    1.2790   -1.2290    0.9021 H   0  0  0  0  0  0  0  0  0  0  0  0
   -1.1665   -0.4563   -0.5388 H   0  0  0  0  0  0  0  0  0  0  0  0
   -1.2359    1.6724    0.8487 H   0  0  0  0  0  0  0  0  0  0  0  0
   -0.0484    0.9504    1.9351 H   0  0  0  0  0  0  0  0  0  0  0  0
   -2.3460    0.6545    2.8487 H   0  0  0  0  0  0  0  0  0  0  0  0
   -1.6653   -0.9288    2.4350 H   0  0  0  0  0  0  0  0  0  0  0  0
   -4.8187    1.4438    0.0256 H   0  0  0  0  0  0  0  0  0  0  0  0
   -3.1358    1.9898    0.2173 H   0  0  0  0  0  0  0  0  0  0  0  0
   -4.2005    1.8716    1.6393 H   0  0  0  0  0  0  0  0  0  0  0  0
    1.9414    0.2267   -0.6877 N   0  0  0  0  0  0  0  0  0  0  0  0
    3.0297    0.8052   -1.4404 C   0  0  2  0  0  0  0  0  0  0  0  0
    3.9621   -0.3230   -1.8615 C   0  0  0  0  0  0  0  0  0  0  0  0
    4.0132   -1.4039   -1.2784 O   0  0  0  0  0  0  0  0  0  0  0  0
    3.7743    1.8493   -0.6231 C   0  0  0  0  0  0  0  0  0  0  0  0
    2.1636   -0.5026   -0.0166 H   0  0  0  0  0  0  0  0  0  0  0  0
    2.5884    1.2665   -2.3306 H   0  0  0  0  0  0  0  0  0  0  0  0
    4.2233    1.4057    0.2730 H   0  0  0  0  0  0  0  0  0  0  0  0
    4.5811    2.3072   -1.2049 H   0  0  0  0  0  0  0  0  0  0  0  0
    3.0959    2.6446   -0.2960 H   0  0  0  0  0  0  0  0  0  0  0  0
    4.7611    0.0348   -2.9384 N   0  0  0  0  0  0  0  0  0  0  0  0
    5.7377   -0.8591   -3.5156 C   0  0  0  0  0  0  0  0  0  0  0  0
    4.6377    0.9453   -3.3714 H   0  0  0  0  0  0  0  0  0  0  0  0
    6.7153   -0.6915   -3.0400 H   0  0  0  0  0  0  0  0  0  0  0  0
    5.4237   -1.9004   -3.3512 H   0  0  0  0  0  0  0  0  0  0  0  0
    5.8177   -0.6665   -4.5957 H   0  0  0  0  0  0  0  0  0  0  0  0
  1  3  1  0  0  0  0
  1  7  1  0  0  0  0
  1  2  2  0  0  0  0
 35 36  1  0  0  0  0
 36 44  1  0  0  0  0
 36 37  2  0  0  0  0
  8  9  1  0  0  0  0
  9 17  1  0  0  0  0
  9 10  2  0  0  0  0
 18 19  1  0  0  0  0
 19 34  1  0  0  0  0
 19 20  2  0  0  0  0
 35 38  1  0  0  0  0
  8 11  1  0  0  0  0
 44 45  1  0  0  0  0
 23 24  1  0  0  0  0
 21 22  1  0  0  0  0
 18 21  1  0  0  0  0
 22 23  1  0  0  0  0
 34 35  1  0  0  0  0
  7  8  1  0  0  0  0
 17 18  1  0  0  0  0
  3  4  1  0  0  0  0
  3  5  1  0  0  0  0
  3  6  1  0  0  0  0
 38 41  1  0  0  0  0
 38 42  1  0  0  0  0
 38 43  1  0  0  0  0
 11 14  1  0  0  0  0
 11 15  1  0  0  0  0
 11 16  1  0  0  0  0
 45 47  1  0  0  0  0
 45 48  1  0  0  0  0
 45 49  1  0  0  0  0
 24 31  1  0  0  0  0
 24 32  1  0  0  0  0
 24 33  1  0  0  0  0
 21 27  1  0  0  0  0
 21 28  1  0  0  0  0
 22 29  1  0  0  0  0
 22 30  1  0  0  0  0
 35 40  1  0  0  0  0
  8 13  1  0  0  0  0
 18 26  1  0  0  0  0
 44 46  1  0  0  0  0
  7 12  1  0  0  0  0
 34 39  1  0  0  0  0
 17 25  1  0  0  0  0
M  END
$$$$

  -OEChem-05262214473D

 49 48  0     1  0  0  0  0  0999 V2000
   -0.0561   -5.3799    2.6949 C   0  0  0  0  0  0  0  0  0  0  0  0
    0.7325   -5.0736    3.5815 O   0  0  0  0  0  0  0  0  0  0  0  0
   -1.0067   -6.5099    2.9135 C   0  0  0  0  0  0  0  0  0  0  0  0
   -0.5910   -7.4777    2.5899 H   0  0  0  0  0  0  0  0  0  0  0  0
   -1.2629   -6.6440    3.9767 H   0  0  0  0  0  0  0  0  0  0  0  0
   -1.9729   -6.4206    2.3918 H   0  0  0  0  0  0  0  0  0  0  0  0
   -0.1735   -4.7694    1.4571 N   0  0  0  0  0  0  0  0  0  0  0  0
    0.6439   -3.6603    1.0409 C   0  0  2  0  0  0  0  0  0  0  0  0
   -0.2788   -2.5625    0.5280 C   0  0  0  0  0  0  0  0  0  0  0  0
   -1.4197   -2.7791    0.1251 O   0  0  0  0  0  0  0  0  0  0  0  0
    1.6395   -4.0779   -0.0301 C   0  0  0  0  0  0  0  0  0  0  0  0
   -0.8741   -5.1235    0.8083 H   0  0  0  0  0  0  0  0  0  0  0  0
    1.1738   -3.3062    1.9318 H   0  0  0  0  0  0  0  0  0  0  0  0
    1.1270   -4.4358   -0.9305 H   0  0  0  0  0  0  0  0  0  0  0  0
    2.2797   -3.2400   -0.3251 H   0  0  0  0  0  0  0  0  0  0  0  0
    2.2827   -4.8880    0.3303 H   0  0  0  0  0  0  0  0  0  0  0  0
    0.3351   -1.3153    0.5316 N   0  0  0  0  0  0  0  0  0  0  0  0
   -0.3268   -0.1184    0.0807 C   0  0  2  0  0  0  0  0  0  0  0  0
    0.6310    0.6659   -0.8109 C   0  0  0  0  0  0  0  0  0  0  0  0
    0.3216    1.7217   -1.3592 O   0  0  0  0  0  0  0  0  0  0  0  0
   -0.8716    0.7163    1.2479 C   0  0  0  0  0  0  0  0  0  0  0  0
   -1.9983    0.0279    2.0219 C   0  0  0  0  0  0  0  0  0  0  0  0
   -3.4169   -0.2931    0.9316 S   0  0  0  0  0  0  0  0  0  0  0  0
   -3.9436    1.4170    0.6794 C   0  0  0  0  0  0  0  0  0  0  0  0
    1.2790   -1.2290    0.9021 H   0  0  0  0  0  0  0  0  0  0  0  0
   -1.1665   -0.4563   -0.5388 H   0  0  0  0  0  0  0  0  0  0  0  0
   -1.2359    1.6724    0.8487 H   0  0  0  0  0  0  0  0  0  0  0  0
   -0.0484    0.9504    1.9351 H   0  0  0  0  0  0  0  0  0  0  0  0
   -2.3460    0.6545    2.8487 H   0  0  0  0  0  0  0  0  0  0  0  0
   -1.6653   -0.9288    2.4350 H   0  0  0  0  0  0  0  0  0  0  0  0
   -4.8187    1.4438    0.0256 H   0  0  0  0  0  0  0  0  0  0  0  0
   -3.1358    1.9898    0.2173 H   0  0  0  0  0  0  0  0  0  0  0  0
   -4.2005    1.8716    1.6393 H   0  0  0  0  0  0  0  0  0  0  0  0
    1.8580    0.0327   -0.9480 N   0  0  0  0  0  0  0  0  0  0  0  0
    2.9269    0.5740   -1.7542 C   0  0  2  0  0  0  0  0  0  0  0  0
    3.6062   -0.5839   -2.4734 C   0  0  0  0  0  0  0  0  0  0  0  0
    3.5512   -1.7457   -2.0754 O   0  0  0  0  0  0  0  0  0  0  0  0
    3.9241    1.3463   -0.9047 C   0  0  0  0  0  0  0  0  0  0  0  0
    2.0381   -0.8255   -0.4354 H   0  0  0  0  0  0  0  0  0  0  0  0
    2.4622    1.2394   -2.4900 H   0  0  0  0  0  0  0  0  0  0  0  0
    4.3999    0.6960   -0.1616 H   0  0  0  0  0  0  0  0  0  0  0  0
    4.7183    1.7801   -1.5211 H   0  0  0  0  0  0  0  0  0  0  0  0
    3.4282    2.1604   -0.3650 H   0  0  0  0  0  0  0  0  0  0  0  0
    4.3170   -0.1611   -3.5879 N   0  0  0  0  0  0  0  0  0  0  0  0
    5.0588   -1.0699   -4.4304 C   0  0  0  0  0  0  0  0  0  0  0  0
    4.2917    0.8187   -3.8546 H   0  0  0  0  0  0  0  0  0  0  0  0
    6.1007   -1.1259   -4.0823 H   0  0  0  0  0  0  0  0  0  0  0  0
    4.6022   -2.0695   -4.3825 H   0  0  0  0  0  0  0  0  0  0  0  0
    5.0382   -0.7068   -5.4686 H   0  0  0  0  0  0  0  0  0  0  0  0
  1  3  1  0  0  0  0
  1  7  1  0  0  0  0
  1  2  2  0  0  0  0
 35 36  1  0  0  0  0
 36 44  1  0  0  0  0
 36 37  2  0  0  0  0
  8  9  1  0  0  0  0
  9 17  1  0  0  0  0
  9 10  2  0  0  0  0
 18 19  1  0  0  0  0
 19 34  1  0  0  0  0
 19 20  2  0  0  0  0
 35 38  1  0  0  0  0
  8 11  1  0  0  0  0
 44 45  1  0  0  0  0
 23 24  1  0  0  0  0
 21 22  1  0  0  0  0
 18 21  1  0  0  0  0
 22 23  1  0  0  0  0
 34 35  1  0  0  0  0
  7  8  1  0  0  0  0
 17 18  1  0  0  0  0
  3  4  1  0  0  0  0
  3  5  1  0  0  0  0
  3  6  1  0  0  0  0
 38 41  1  0  0  0  0
 38 42  1  0  0  0  0
 38 43  1  0  0  0  0
 11 14  1  0  0  0  0
 11 15  1  0  0  0  0
 11 16  1  0  0  0  0
 45 47  1  0  0  0  0
 45 48  1  0  0  0  0
 45 49  1  0  0  0  0
 24 31  1  0  0  0  0
 24 32  1  0  0  0  0
 24 33  1  0  0  0  0
 21 27  1  0  0  0  0
 21 28  1  0  0  0  0
 22 29  1  0  0  0  0
 22 30  1  0  0  0  0
 35 40  1  0  0  0  0
  8 13  1  0  0  0  0
 18 26  1  0  0  0  0
 44 46  1  0  0  0  0
  7 12  1  0  0  0  0
 34 39  1  0  0  0  0
 17 25  1  0  0  0  0
M  END
$$$$

  -OEChem-05262214473D

 49 48  0     1  0  0  0  0  0999 V2000
   -0.0561   -5.3799    2.6949 C   0  0  0  0  0  0  0  0  0  0  0  0
    0.7325   -5.0736    3.5815 O   0  0  0  0  0  0  0  0  0  0  0  0
   -1.0067   -6.5099    2.9135 C   0  0  0  0  0  0  0  0  0  0  0  0
   -0.5910   -7.4777    2.5899 H   0  0  0  0  0  0  0  0  0  0  0  0
   -1.2629   -6.6440    3.9767 H   0  0  0  0  0  0  0  0  0  0  0  0
   -1.9729   -6.4206    2.3918 H   0  0  0  0  0  0  0  0  0  0  0  0
   -0.1735   -4.7694    1.4571 N   0  0  0  0  0  0  0  0  0  0  0  0
    0.6439   -3.6603    1.0409 C   0  0  2  0  0  0  0  0  0  0  0  0
   -0.2788   -2.5625    0.5280 C   0  0  0  0  0  0  0  0  0  0  0  0
   -1.4197   -2.7791    0.1251 O   0  0  0  0  0  0  0  0  0  0  0  0
    1.6395   -4.0779   -0.0301 C   0  0  0  0  0  0  0  0  0  0  0  0
   -0.8741   -5.1235    0.8083 H   0  0  0  0  0  0  0  0  0  0  0  0
    1.1738   -3.3062    1.9318 H   0  0  0  0  0  0  0  0  0  0  0  0
    1.1270   -4.4358   -0.9305 H   0  0  0  0  0  0  0  0  0  0  0  0
    2.2797   -3.2400   -0.3251 H   0  0  0  0  0  0  0  0  0  0  0  0
    2.2827   -4.8880    0.3303 H   0  0  0  0  0  0  0  0  0  0  0  0
    0.3351   -1.3153    0.5316 N   0  0  0  0  0  0  0  0  0  0  0  0
   -0.3268   -0.1184    0.0807 C   0  0  2  0  0  0  0  0  0  0  0  0
    0.6310    0.6659   -0.8109 C   0  0  0  0  0  0  0  0  0  0  0  0
    0.4332    1.8334   -1.1411 O   0  0  0  0  0  0  0  0  0  0  0  0
   -0.8716    0.7163    1.2479 C   0  0  0  0  0  0  0  0  0  0  0  0
   -1.9983    0.0279    2.0219 C   0  0  0  0  0  0  0  0  0  0  0  0
   -3.4169   -0.2931    0.9316 S   0  0  0  0  0  0  0  0  0  0  0  0
   -3.9436    1.4170    0.6794 C   0  0  0  0  0  0  0  0  0  0  0  0
    1.2790   -1.2290    0.9021 H   0  0  0  0  0  0  0  0  0  0  0  0
   -1.1665   -0.4563   -0.5388 H   0  0  0  0  0  0  0  0  0  0  0  0
   -1.2359    1.6724    0.8487 H   0  0  0  0  0  0  0  0  0  0  0  0
   -0.0484    0.9504    1.9351 H   0  0  0  0  0  0  0  0  0  0  0  0
   -2.3460    0.6545    2.8487 H   0  0  0  0  0  0  0  0  0  0  0  0
   -1.6653   -0.9288    2.4350 H   0  0  0  0  0  0  0  0  0  0  0  0
   -4.8187    1.4438    0.0256 H   0  0  0  0  0  0  0  0  0  0  0  0
   -3.1358    1.9898    0.2173 H   0  0  0  0  0  0  0  0  0  0  0  0
   -4.2005    1.8716    1.6393 H   0  0  0  0  0  0  0  0  0  0  0  0
    1.7134   -0.0999   -1.2199 N   0  0  0  0  0  0  0  0  0  0  0  0
    2.7508    0.4172   -2.0812 C   0  0  2  0  0  0  0  0  0  0  0  0
    3.1416   -0.6827   -3.0594 C   0  0  0  0  0  0  0  0  0  0  0  0
    2.9472   -1.8764   -2.8392 O   0  0  0  0  0  0  0  0  0  0  0  0
    3.9552    0.8836   -1.2782 C   0  0  0  0  0  0  0  0  0  0  0  0
    1.8124   -1.0503   -0.8757 H   0  0  0  0  0  0  0  0  0  0  0  0
    2.3151    1.2582   -2.6315 H   0  0  0  0  0  0  0  0  0  0  0  0
    4.4052    0.0545   -0.7201 H   0  0  0  0  0  0  0  0  0  0  0  0
    4.7292    1.3016   -1.9304 H   0  0  0  0  0  0  0  0  0  0  0  0
    3.6667    1.6535   -0.5546 H   0  0  0  0  0  0  0  0  0  0  0  0
    3.7720   -0.1777   -4.1880 N   0  0  0  0  0  0  0  0  0  0  0  0
    4.2494   -1.0222   -5.2580 C   0  0  0  0  0  0  0  0  0  0  0  0
    3.8740    0.8271   -4.2958 H   0  0  0  0  0  0  0  0  0  0  0  0
    5.3028   -1.2830   -5.0778 H   0  0  0  0  0  0  0  0  0  0  0  0
    3.6458   -1.9410   -5.2969 H   0  0  0  0  0  0  0  0  0  0  0  0
    4.1631   -0.4860   -6.2145 H   0  0  0  0  0  0  0  0  0  0  0  0
  1  3  1  0  0  0  0
  1  7  1  0  0  0  0
  1  2  2  0  0  0  0
 35 36  1  0  0  0  0
 36 44  1  0  0  0  0
 36 37  2  0  0  0  0
  8  9  1  0  0  0  0
  9 17  1  0  0  0  0
  9 10  2  0  0  0  0
 18 19  1  0  0  0  0
 19 34  1  0  0  0  0
 19 20  2  0  0  0  0
 35 38  1  0  0  0  0
  8 11  1  0  0  0  0
 44 45  1  0  0  0  0
 23 24  1  0  0  0  0
 21 22  1  0  0  0  0
 18 21  1  0  0  0  0
 22 23  1  0  0  0  0
 34 35  1  0  0  0  0
  7  8  1  0  0  0  0
 17 18  1  0  0  0  0
  3  4  1  0  0  0  0
  3  5  1  0  0  0  0
  3  6  1  0  0  0  0
 38 41  1  0  0  0  0
 38 42  1  0  0  0  0
 38 43  1  0  0  0  0
 11 14  1  0  0  0  0
 11 15  1  0  0  0  0
 11 16  1  0  0  0  0
 45 47  1  0  0  0  0
 45 48  1  0  0  0  0
 45 49  1  0  0  0  0
 24 31  1  0  0  0  0
 24 32  1  0  0  0  0
 24 33  1  0  0  0  0
 21 27  1  0  0  0  0
 21 28  1  0  0  0  0
 22 29  1  0  0  0  0
 22 30  1  0  0  0  0
 35 40  1  0  0  0  0
  8 13  1  0  0  0  0
 18 26  1  0  0  0  0
 44 46  1  0  0  0  0
  7 12  1  0  0  0  0
 34 39  1  0  0  0  0
 17 25  1  0  0  0  0
M  END
$$$$

  -OEChem-05262214473D

 49 48  0     1  0  0  0  0  0999 V2000
   -0.0561   -5.3799    2.6949 C   0  0  0  0  0  0  0  0  0  0  0  0
    0.7325   -5.0736    3.5815 O   0  0  0  0  0  0  0  0  0  0  0  0
   -1.0067   -6.5099    2.9135 C   0  0  0  0  0  0  0  0  0  0  0  0
   -0.5910   -7.4777    2.5899 H   0  0  0  0  0  0  0  0  0  0  0  0
   -1.2629   -6.6440    3.9767 H   0  0  0  0  0  0  0  0  0  0  0  0
   -1.9729   -6.4206    2.3918 H   0  0  0  0  0  0  0  0  0  0  0  0
   -0.1735   -4.7694    1.4571 N   0  0  0  0  0  0  0  0  0  0  0  0
    0.6439   -3.6603    1.0409 C   0  0  2  0  0  0  0  0  0  0  0  0
   -0.2788   -2.5625    0.5280 C   0  0  0  0  0  0  0  0  0  0  0  0
   -1.4197   -2.7791    0.1251 O   0  0  0  0  0  0  0  0  0  0  0  0
    1.6395   -4.0779   -0.0301 C   0  0  0  0  0  0  0  0  0  0  0  0
   -0.8741   -5.1235    0.8083 H   0  0  0  0  0  0  0  0  0  0  0  0
    1.1738   -3.3062    1.9318 H   0  0  0  0  0  0  0  0  0  0  0  0
    1.1270   -4.4358   -0.9305 H   0  0  0  0  0  0  0  0  0  0  0  0
    2.2797   -3.2400   -0.3251 H   0  0  0  0  0  0  0  0  0  0  0  0
    2.2827   -4.8880    0.3303 H   0  0  0  0  0  0  0  0  0  0  0  0
    0.3351   -1.3153    0.5316 N   0  0  0  0  0  0  0  0  0  0  0  0
   -0.3268   -0.1184    0.0807 C   0  0  2  0  0  0  0  0  0  0  0  0
    0.6310    0.6659   -0.8109 C   0  0  0  0  0  0  0  0  0  0  0  0
    0.5869    1.8889   -0.9271 O   0  0  0  0  0  0  0  0  0  0  0  0
   -0.8716    0.7163    1.2479 C   0  0  0  0  0  0  0  0  0  0  0  0
   -1.9983    0.0279    2.0219 C   0  0  0  0  0  0  0  0  0  0  0  0
   -3.4169   -0.2931    0.9316 S   0  0  0  0  0  0  0  0  0  0  0  0
   -3.9436    1.4170    0.6794 C   0  0  0  0  0  0  0  0  0  0  0  0
    1.2790   -1.2290    0.9021 H   0  0  0  0  0  0  0  0  0  0  0  0
   -1.1665   -0.4563   -0.5388 H   0  0  0  0  0  0  0  0  0  0  0  0
   -1.2359    1.6724    0.8487 H   0  0  0  0  0  0  0  0  0  0  0  0
   -0.0484    0.9504    1.9351 H   0  0  0  0  0  0  0  0  0  0  0  0
   -2.3460    0.6545    2.8487 H   0  0  0  0  0  0  0  0  0  0  0  0
   -1.6653   -0.9288    2.4350 H   0  0  0  0  0  0  0  0  0  0  0  0
   -4.8187    1.4438    0.0256 H   0  0  0  0  0  0  0  0  0  0  0  0
   -3.1358    1.9898    0.2173 H   0  0  0  0  0  0  0  0  0  0  0  0
   -4.2005    1.8716    1.6393 H   0  0  0  0  0  0  0  0  0  0  0  0
    1.5175   -0.1618   -1.4849 N   0  0  0  0  0  0  0  0  0  0  0  0
    2.5136    0.3455   -2.3991 C   0  0  2  0  0  0  0  0  0  0  0  0
    2.5999   -0.6127   -3.5797 C   0  0  0  0  0  0  0  0  0  0  0  0
    2.2424   -1.7872   -3.5179 O   0  0  0  0  0  0  0  0  0  0  0  0
    3.8656    0.4926   -1.7184 C   0  0  0  0  0  0  0  0  0  0  0  0
    1.5017   -1.1618   -1.3075 H   0  0  0  0  0  0  0  0  0  0  0  0
    2.1570    1.3217   -2.7456 H   0  0  0  0  0  0  0  0  0  0  0  0
    4.2391   -0.4753   -1.3645 H   0  0  0  0  0  0  0  0  0  0  0  0
    4.6128    0.9042   -2.4050 H   0  0  0  0  0  0  0  0  0  0  0  0
    3.7952    1.1587   -0.8518 H   0  0  0  0  0  0  0  0  0  0  0  0
    3.1632   -0.0138   -4.6978 N   0  0  0  0  0  0  0  0  0  0  0  0
    3.3648   -0.7193   -5.9419 C   0  0  0  0  0  0  0  0  0  0  0  0
    3.4132    0.9702   -4.6651 H   0  0  0  0  0  0  0  0  0  0  0  0
    4.3757   -1.1524   -5.9588 H   0  0  0  0  0  0  0  0  0  0  0  0
    2.6198   -1.5236   -6.0320 H   0  0  0  0  0  0  0  0  0  0  0  0
    3.2519   -0.0191   -6.7828 H   0  0  0  0  0  0  0  0  0  0  0  0
  1  3  1  0  0  0  0
  1  7  1  0  0  0  0
  1  2  2  0  0  0  0
 35 36  1  0  0  0  0
 36 44  1  0  0  0  0
 36 37  2  0  0  0  0
  8  9  1  0  0  0  0
  9 17  1  0  0  0  0
  9 10  2  0  0  0  0
 18 19  1  0  0  0  0
 19 34  1  0  0  0  0
 19 20  2  0  0  0  0
 35 38  1  0  0  0  0
  8 11  1  0  0  0  0
 44 45  1  0  0  0  0
 23 24  1  0  0  0  0
 21 22  1  0  0  0  0
 18 21  1  0  0  0  0
 22 23  1  0  0  0  0
 34 35  1  0  0  0  0
  7  8  1  0  0  0  0
 17 18  1  0  0  0  0
  3  4  1  0  0  0  0
  3  5  1  0  0  0  0
  3  6  1  0  0  0  0
 38 41  1  0  0  0  0
 38 42  1  0  0  0  0
 38 43  1  0  0  0  0
 11 14  1  0  0  0  0
 11 15  1  0  0  0  0
 11 16  1  0  0  0  0
 45 47  1  0  0  0  0
 45 48  1  0  0  0  0
 45 49  1  0  0  0  0
 24 31  1  0  0  0  0
 24 32  1  0  0  0  0
 24 33  1  0  0  0  0
 21 27  1  0  0  0  0
 21 28  1  0  0  0  0
 22 29  1  0  0  0  0
 22 30  1  0  0  0  0
 35 40  1  0  0  0  0
  8 13  1  0  0  0  0
 18 26  1  0  0  0  0
 44 46  1  0  0  0  0
  7 12  1  0  0  0  0
 34 39  1  0  0  0  0
 17 25  1  0  0  0  0
M  END
$$$$

  -OEChem-05262214473D

 49 48  0     1  0  0  0  0  0999 V2000
   -0.0561   -5.3799    2.6949 C   0  0  0  0  0  0  0  0  0  0  0  0
    0.7325   -5.0736    3.5815 O   0  0  0  0  0  0  0  0  0  0  0  0
   -1.0067   -6.5099    2.9135 C   0  0  0  0  0  0  0  0  0  0  0  0
   -0.5910   -7.4777    2.5899 H   0  0  0  0  0  0  0  0  0  0  0  0
   -1.2629   -6.6440    3.9767 H   0  0  0  0  0  0  0  0  0  0  0  0
   -1.9729   -6.4206    2.3918 H   0  0  0  0  0  0  0  0  0  0  0  0
   -0.1735   -4.7694    1.4571 N   0  0  0  0  0  0  0  0  0  0  0  0
    0.6439   -3.6603    1.0409 C   0  0  2  0  0  0  0  0  0  0  0  0
   -0.2788   -2.5625    0.5280 C   0  0  0  0  0  0  0  0  0  0  0  0
   -1.4197   -2.7791    0.1251 O   0  0  0  0  0  0  0  0  0  0  0  0
    1.6395   -4.0779   -0.0301 C   0  0  0  0  0  0  0  0  0  0  0  0
   -0.8741   -5.1235    0.8083 H   0  0  0  0  0  0  0  0  0  0  0  0
    1.1738   -3.3062    1.9318 H   0  0  0  0  0  0  0  0  0  0  0  0
    1.1270   -4.4358   -0.9305 H   0  0  0  0  0  0  0  0  0  0  0  0
    2.2797   -3.2400   -0.3251 H   0  0  0  0  0  0  0  0  0  0  0  0
    2.2827   -4.8880    0.3303 H   0  0  0  0  0  0  0  0  0  0  0  0
    0.3351   -1.3153    0.5316 N   0  0  0  0  0  0  0  0  0  0  0  0
   -0.3268   -0.1184    0.0807 C   0  0  2  0  0  0  0  0  0  0  0  0
    0.6310    0.6659   -0.8109 C   0  0  0  0  0  0  0  0  0  0  0  0
    0.7722    1.8845   -0.7319 O   0  0  0  0  0  0  0  0  0  0  0  0
   -0.8716    0.7163    1.2479 C   0  0  0  0  0  0  0  0  0  0  0  0
   -1.9983    0.0279    2.0219 C   0  0  0  0  0  0  0  0  0  0  0  0
   -3.4169   -0.2931    0.9316 S   0  0  0  0  0  0  0  0  0  0  0  0
   -3.9436    1.4170    0.6794 C   0  0  0  0  0  0  0  0  0  0  0  0
    1.2790   -1.2290    0.9021 H   0  0  0  0  0  0  0  0  0  0  0  0
   -1.1665   -0.4563   -0.5388 H   0  0  0  0  0  0  0  0  0  0  0  0
   -1.2359    1.6724    0.8487 H   0  0  0  0  0  0  0  0  0  0  0  0
   -0.0484    0.9504    1.9351 H   0  0  0  0  0  0  0  0  0  0  0  0
   -2.3460    0.6545    2.8487 H   0  0  0  0  0  0  0  0  0  0  0  0
   -1.6653   -0.9288    2.4350 H   0  0  0  0  0  0  0  0  0  0  0  0
   -4.8187    1.4438    0.0256 H   0  0  0  0  0  0  0  0  0  0  0  0
   -3.1358    1.9898    0.2173 H   0  0  0  0  0  0  0  0  0  0  0  0
   -4.2005    1.8716    1.6393 H   0  0  0  0  0  0  0  0  0  0  0  0
    1.2836   -0.1490   -1.7248 N   0  0  0  0  0  0  0  0  0  0  0  0
    2.2313    0.3639   -2.6862 C   0  0  2  0  0  0  0  0  0  0  0  0
    2.0181   -0.3785   -3.9988 C   0  0  0  0  0  0  0  0  0  0  0  0
    1.4848   -1.4841   -4.0652 O   0  0  0  0  0  0  0  0  0  0  0  0
    3.6613    0.2000   -2.1952 C   0  0  0  0  0  0  0  0  0  0  0  0
    1.1273   -1.1523   -1.7014 H   0  0  0  0  0  0  0  0  0  0  0  0
    1.9987    1.4254   -2.8244 H   0  0  0  0  0  0  0  0  0  0  0  0
    3.9127   -0.8571   -2.0510 H   0  0  0  0  0  0  0  0  0  0  0  0
    4.3771    0.6151   -2.9125 H   0  0  0  0  0  0  0  0  0  0  0  0
    3.8049    0.7096   -1.2363 H   0  0  0  0  0  0  0  0  0  0  0  0
    2.5321    0.3195   -5.0827 N   0  0  0  0  0  0  0  0  0  0  0  0
    2.4651   -0.1817   -6.4356 C   0  0  0  0  0  0  0  0  0  0  0  0
    2.9405    1.2381   -4.9372 H   0  0  0  0  0  0  0  0  0  0  0  0
    3.3829   -0.7428   -6.6652 H   0  0  0  0  0  0  0  0  0  0  0  0
    1.5942   -0.8458   -6.5377 H   0  0  0  0  0  0  0  0  0  0  0  0
    2.3668    0.6620   -7.1345 H   0  0  0  0  0  0  0  0  0  0  0  0
  1  3  1  0  0  0  0
  1  7  1  0  0  0  0
  1  2  2  0  0  0  0
 35 36  1  0  0  0  0
 36 44  1  0  0  0  0
 36 37  2  0  0  0  0
  8  9  1  0  0  0  0
  9 17  1  0  0  0  0
  9 10  2  0  0  0  0
 18 19  1  0  0  0  0
 19 34  1  0  0  0  0
 19 20  2  0  0  0  0
 35 38  1  0  0  0  0
  8 11  1  0  0  0  0
 44 45  1  0  0  0  0
 23 24  1  0  0  0  0
 21 22  1  0  0  0  0
 18 21  1  0  0  0  0
 22 23  1  0  0  0  0
 34 35  1  0  0  0  0
  7  8  1  0  0  0  0
 17 18  1  0  0  0  0
  3  4  1  0  0  0  0
  3  5  1  0  0  0  0
  3  6  1  0  0  0  0
 38 41  1  0  0  0  0
 38 42  1  0  0  0  0
 38 43  1  0  0  0  0
 11 14  1  0  0  0  0
 11 15  1  0  0  0  0
 11 16  1  0  0  0  0
 45 47  1  0  0  0  0
 45 48  1  0  0  0  0
 45 49  1  0  0  0  0
 24 31  1  0  0  0  0
 24 32  1  0  0  0  0
 24 33  1  0  0  0  0
 21 27  1  0  0  0  0
 21 28  1  0  0  0  0
 22 29  1  0  0  0  0
 22 30  1  0  0  0  0
 35 40  1  0  0  0  0
  8 13  1  0  0  0  0
 18 26  1  0  0  0  0
 44 46  1  0  0  0  0
  7 12  1  0  0  0  0
 34 39  1  0  0  0  0
 17 25  1  0  0  0  0
M  END
$$$$

  -OEChem-05262214473D

 49 48  0     1  0  0  0  0  0999 V2000
   -0.0561   -5.3799    2.6949 C   0  0  0  0  0  0  0  0  0  0  0  0
    0.7325   -5.0736    3.5815 O   0  0  0  0  0  0  0  0  0  0  0  0
   -1.0067   -6.5099    2.9135 C   0  0  0  0  0  0  0  0  0  0  0  0
   -0.5910   -7.4777    2.5899 H   0  0  0  0  0  0  0  0  0  0  0  0
   -1.2629   -6.6440    3.9767 H   0  0  0  0  0  0  0  0  0  0  0  0
   -1.9729   -6.4206    2.3918 H   0  0  0  0  0  0  0  0  0  0  0  0
   -0.1735   -4.7694    1.4571 N   0  0  0  0  0  0  0  0  0  0  0  0
    0.6439   -3.6603    1.0409 C   0  0  2  0  0  0  0  0  0  0  0  0
   -0.2788   -2.5625    0.5280 C   0  0  0  0  0  0  0  0  0  0  0  0
   -1.4197   -2.7791    0.1251 O   0  0  0  0  0  0  0  0  0  0  0  0
    1.6395   -4.0779   -0.0301 C   0  0  0  0  0  0  0  0  0  0  0  0
   -0.8741   -5.1235    0.8083 H   0  0  0  0  0  0  0  0  0  0  0  0
    1.1738   -3.3062    1.9318 H   0  0  0  0  0  0  0  0  0  0  0  0
    1.1270   -4.4358   -0.9305 H   0  0  0  0  0  0  0  0  0  0  0  0
    2.2797   -3.2400   -0.3251 H   0  0  0  0  0  0  0  0  0  0  0  0
    2.2827   -4.8880    0.3303 H   0  0  0  0  0  0  0  0  0  0  0  0
    0.3351   -1.3153    0.5316 N   0  0  0  0  0  0  0  0  0  0  0  0
   -0.3268   -0.1184    0.0807 C   0  0  2  0  0  0  0  0  0  0  0  0
    0.6310    0.6659   -0.8109 C   0  0  0  0  0  0  0  0  0  0  0  0
    0.9766    1.8205   -0.5687 O   0  0  0  0  0  0  0  0  0  0  0  0
   -0.8716    0.7163    1.2479 C   0  0  0  0  0  0  0  0  0  0  0  0
   -1.9983    0.0279    2.0219 C   0  0  0  0  0  0  0  0  0  0  0  0
   -3.4169   -0.2931    0.9316 S   0  0  0  0  0  0  0  0  0  0  0  0
   -3.9436    1.4170    0.6794 C   0  0  0  0  0  0  0  0  0  0  0  0
    1.2790   -1.2290    0.9021 H   0  0  0  0  0  0  0  0  0  0  0  0
   -1.1665   -0.4563   -0.5388 H   0  0  0  0  0  0  0  0  0  0  0  0
   -1.2359    1.6724    0.8487 H   0  0  0  0  0  0  0  0  0  0  0  0
   -0.0484    0.9504    1.9351 H   0  0  0  0  0  0  0  0  0  0  0  0
   -2.3460    0.6545    2.8487 H   0  0  0  0  0  0  0  0  0  0  0  0
   -1.6653   -0.9288    2.4350 H   0  0  0  0  0  0  0  0  0  0  0  0
   -4.8187    1.4438    0.0256 H   0  0  0  0  0  0  0  0  0  0  0  0
   -3.1358    1.9898    0.2173 H   0  0  0  0  0  0  0  0  0  0  0  0
   -4.2005    1.8716    1.6393 H   0  0  0  0  0  0  0  0  0  0  0  0
    1.0278   -0.0622   -1.9234 N   0  0  0  0  0  0  0  0  0  0  0  0
    1.9232    0.4709   -2.9231 C   0  0  2  0  0  0  0  0  0  0  0  0
    1.4357    0.0038   -4.2882 C   0  0  0  0  0  0  0  0  0  0  0  0
    0.7260   -0.9878   -4.4438 O   0  0  0  0  0  0  0  0  0  0  0  0
    3.3563    0.0258   -2.6762 C   0  0  0  0  0  0  0  0  0  0  0  0
    0.7147   -1.0225   -2.0305 H   0  0  0  0  0  0  0  0  0  0  0  0
    1.8510    1.5623   -2.8626 H   0  0  0  0  0  0  0  0  0  0  0  0
    3.4484   -1.0650   -2.7327 H   0  0  0  0  0  0  0  0  0  0  0  0
    4.0382    0.4540   -3.4183 H   0  0  0  0  0  0  0  0  0  0  0  0
    3.6952    0.3368   -1.6821 H   0  0  0  0  0  0  0  0  0  0  0  0
    1.9217    0.7994   -5.3163 N   0  0  0  0  0  0  0  0  0  0  0  0
    1.6117    0.5539   -6.7054 C   0  0  0  0  0  0  0  0  0  0  0  0
    2.4883    1.6126   -5.0937 H   0  0  0  0  0  0  0  0  0  0  0  0
    2.3918   -0.0822   -7.1488 H   0  0  0  0  0  0  0  0  0  0  0  0
    0.6387    0.0462   -6.7796 H   0  0  0  0  0  0  0  0  0  0  0  0
    1.5680    1.5110   -7.2459 H   0  0  0  0  0  0  0  0  0  0  0  0
  1  3  1  0  0  0  0
  1  7  1  0  0  0  0
  1  2  2  0  0  0  0
 35 36  1  0  0  0  0
 36 44  1  0  0  0  0
 36 37  2  0  0  0  0
  8  9  1  0  0  0  0
  9 17  1  0  0  0  0
  9 10  2  0  0  0  0
 18 19  1  0  0  0  0
 19 34  1  0  0  0  0
 19 20  2  0  0  0  0
 35 38  1  0  0  0  0
  8 11  1  0  0  0  0
 44 45  1  0  0  0  0
 23 24  1  0  0  0  0
 21 22  1  0  0  0  0
 18 21  1  0  0  0  0
 22 23  1  0  0  0  0
 34 35  1  0  0  0  0
  7  8  1  0  0  0  0
 17 18  1  0  0  0  0
  3  4  1  0  0  0  0
  3  5  1  0  0  0  0
  3  6  1  0  0  0  0
 38 41  1  0  0  0  0
 38 42  1  0  0  0  0
 38 43  1  0  0  0  0
 11 14  1  0  0  0  0
 11 15  1  0  0  0  0
 11 16  1  0  0  0  0
 45 47  1  0  0  0  0
 45 48  1  0  0  0  0
 45 49  1  0  0  0  0
 24 31  1  0  0  0  0
 24 32  1  0  0  0  0
 24 33  1  0  0  0  0
 21 27  1  0  0  0  0
 21 28  1  0  0  0  0
 22 29  1  0  0  0  0
 22 30  1  0  0  0  0
 35 40  1  0  0  0  0
  8 13  1  0  0  0  0
 18 26  1  0  0  0  0
 44 46  1  0  0  0  0
  7 12  1  0  0  0  0
 34 39  1  0  0  0  0
 17 25  1  0  0  0  0
M  END
$$$$

  -OEChem-05262214473D

 49 48  0     1  0  0  0  0  0999 V2000
   -0.0561   -5.3799    2.6949 C   0  0  0  0  0  0  0  0  0  0  0  0
    0.7325   -5.0736    3.5815 O   0  0  0  0  0  0  0  0  0  0  0  0
   -1.0067   -6.5099    2.9135 C   0  0  0  0  0  0  0  0  0  0  0  0
   -0.5910   -7.4777    2.5899 H   0  0  0  0  0  0  0  0  0  0  0  0
   -1.2629   -6.6440    3.9767 H   0  0  0  0  0  0  0  0  0  0  0  0
   -1.9729   -6.4206    2.3918 H   0  0  0  0  0  0  0  0  0  0  0  0
   -0.1735   -4.7694    1.4571 N   0  0  0  0  0  0  0  0  0  0  0  0
    0.6439   -3.6603    1.0409 C   0  0  2  0  0  0  0  0  0  0  0  0
   -0.2788   -2.5625    0.5280 C   0  0  0  0  0  0  0  0  0  0  0  0
   -1.4197   -2.7791    0.1251 O   0  0  0  0  0  0  0  0  0  0  0  0
    1.6395   -4.0779   -0.0301 C   0  0  0  0  0  0  0  0  0  0  0  0
   -0.8741   -5.1235    0.8083 H   0  0  0  0  0  0  0  0  0  0  0  0
    1.1738   -3.3062    1.9318 H   0  0  0  0  0  0  0  0  0  0  0  0
    1.1270   -4.4358   -0.9305 H   0  0  0  0  0  0  0  0  0  0  0  0
    2.2797   -3.2400   -0.3251 H   0  0  0  0  0  0  0  0  0  0  0  0
    2.2827   -4.8880    0.3303 H   0  0  0  0  0  0  0  0  0  0  0  0
    0.3351   -1.3153    0.5316 N   0  0  0  0  0  0  0  0  0  0  0  0
   -0.3268   -0.1184    0.0807 C   0  0  2  0  0  0  0  0  0  0  0  0
    0.6310    0.6659   -0.8109 C   0  0  0  0  0  0  0  0  0  0  0  0
    1.1860    1.7012   -0.4486 O   0  0  0  0  0  0  0  0  0  0  0  0
   -0.8716    0.7163    1.2479 C   0  0  0  0  0  0  0  0  0  0  0  0
   -1.9983    0.0279    2.0219 C   0  0  0  0  0  0  0  0  0  0  0  0
   -3.4169   -0.2931    0.9316 S   0  0  0  0  0  0  0  0  0  0  0  0
   -3.9436    1.4170    0.6794 C   0  0  0  0  0  0  0  0  0  0  0  0
    1.2790   -1.2290    0.9021 H   0  0  0  0  0  0  0  0  0  0  0  0
   -1.1665   -0.4563   -0.5388 H   0  0  0  0  0  0  0  0  0  0  0  0
   -1.2359    1.6724    0.8487 H   0  0  0  0  0  0  0  0  0  0  0  0
   -0.0484    0.9504    1.9351 H   0  0  0  0  0  0  0  0  0  0  0  0
   -2.3460    0.6545    2.8487 H   0  0  0  0  0  0  0  0  0  0  0  0
   -1.6653   -0.9288    2.4350 H   0  0  0  0  0  0  0  0  0  0  0  0
   -4.8187    1.4438    0.0256 H   0  0  0  0  0  0  0  0  0  0  0  0
   -3.1358    1.9898    0.2173 H   0  0  0  0  0  0  0  0  0  0  0  0
   -4.2005    1.8716    1.6393 H   0  0  0  0  0  0  0  0  0  0  0  0
    0.7674    0.0926   -2.0670 N   0  0  0  0  0  0  0  0  0  0  0  0
    1.6103    0.6594   -3.0934 C   0  0  2  0  0  0  0  0  0  0  0  0
    0.8925    0.5082   -4.4281 C   0  0  0  0  0  0  0  0  0  0  0  0
    0.0178   -0.3321   -4.6279 O   0  0  0  0  0  0  0  0  0  0  0  0
    2.9713   -0.0182   -3.1284 C   0  0  0  0  0  0  0  0  0  0  0  0
    0.2921   -0.7813   -2.2724 H   0  0  0  0  0  0  0  0  0  0  0  0
    1.7239    1.7231   -2.8577 H   0  0  0  0  0  0  0  0  0  0  0  0
    2.8777   -1.0848   -3.3632 H   0  0  0  0  0  0  0  0  0  0  0  0
    3.6192    0.4318   -3.8879 H   0  0  0  0  0  0  0  0  0  0  0  0
    3.4735    0.0658   -2.1586 H   0  0  0  0  0  0  0  0  0  0  0  0
    1.3737    1.3933   -5.3827 N   0  0  0  0  0  0  0  0  0  0  0  0
    0.8627    1.4374   -6.7329 C   0  0  0  0  0  0  0  0  0  0  0  0
    2.0873    2.0682   -5.1237 H   0  0  0  0  0  0  0  0  0  0  0  0
    1.4701    0.7843   -7.3768 H   0  0  0  0  0  0  0  0  0  0  0  0
   -0.1815    1.0917   -6.7411 H   0  0  0  0  0  0  0  0  0  0  0  0
    0.9101    2.4699   -7.1092 H   0  0  0  0  0  0  0  0  0  0  0  0
  1  3  1  0  0  0  0
  1  7  1  0  0  0  0
  1  2  2  0  0  0  0
 35 36  1  0  0  0  0
 36 44  1  0  0  0  0
 36 37  2  0  0  0  0
  8  9  1  0  0  0  0
  9 17  1  0  0  0  0
  9 10  2  0  0  0  0
 18 19  1  0  0  0  0
 19 34  1  0  0  0  0
 19 20  2  0  0  0  0
 35 38  1  0  0  0  0
  8 11  1  0  0  0  0
 44 45  1  0  0  0  0
 23 24  1  0  0  0  0
 21 22  1  0  0  0  0
 18 21  1  0  0  0  0
 22 23  1  0  0  0  0
 34 35  1  0  0  0  0
  7  8  1  0  0  0  0
 17 18  1  0  0  0  0
  3  4  1  0  0  0  0
  3  5  1  0  0  0  0
  3  6  1  0  0  0  0
 38 41  1  0  0  0  0
 38 42  1  0  0  0  0
 38 43  1  0  0  0  0
 11 14  1  0  0  0  0
 11 15  1  0  0  0  0
 11 16  1  0  0  0  0
 45 47  1  0  0  0  0
 45 48  1  0  0  0  0
 45 49  1  0  0  0  0
 24 31  1  0  0  0  0
 24 32  1  0  0  0  0
 24 33  1  0  0  0  0
 21 27  1  0  0  0  0
 21 28  1  0  0  0  0
 22 29  1  0  0  0  0
 22 30  1  0  0  0  0
 35 40  1  0  0  0  0
  8 13  1  0  0  0  0
 18 26  1  0  0  0  0
 44 46  1  0  0  0  0
  7 12  1  0  0  0  0
 34 39  1  0  0  0  0
 17 25  1  0  0  0  0
M  END
$$$$

  -OEChem-05262214473D

 49 48  0     1  0  0  0  0  0999 V2000
   -0.0561   -5.3799    2.6949 C   0  0  0  0  0  0  0  0  0  0  0  0
    0.7325   -5.0736    3.5815 O   0  0  0  0  0  0  0  0  0  0  0  0
   -1.0067   -6.5099    2.9135 C   0  0  0  0  0  0  0  0  0  0  0  0
   -0.5910   -7.4777    2.5899 H   0  0  0  0  0  0  0  0  0  0  0  0
   -1.2629   -6.6440    3.9767 H   0  0  0  0  0  0  0  0  0  0  0  0
   -1.9729   -6.4206    2.3918 H   0  0  0  0  0  0  0  0  0  0  0  0
   -0.1735   -4.7694    1.4571 N   0  0  0  0  0  0  0  0  0  0  0  0
    0.6439   -3.6603    1.0409 C   0  0  2  0  0  0  0  0  0  0  0  0
   -0.2788   -2.5625    0.5280 C   0  0  0  0  0  0  0  0  0  0  0  0
   -1.4197   -2.7791    0.1251 O   0  0  0  0  0  0  0  0  0  0  0  0
    1.6395   -4.0779   -0.0301 C   0  0  0  0  0  0  0  0  0  0  0  0
   -0.8741   -5.1235    0.8083 H   0  0  0  0  0  0  0  0  0  0  0  0
    1.1738   -3.3062    1.9318 H   0  0  0  0  0  0  0  0  0  0  0  0
    1.1270   -4.4358   -0.9305 H   0  0  0  0  0  0  0  0  0  0  0  0
    2.2797   -3.2400   -0.3251 H   0  0  0  0  0  0  0  0  0  0  0  0
    2.2827   -4.8880    0.3303 H   0  0  0  0  0  0  0  0  0  0  0  0
    0.3351   -1.3153    0.5316 N   0  0  0  0  0  0  0  0  0  0  0  0
   -0.3268   -0.1184    0.0807 C   0  0  2  0  0  0  0  0  0  0  0  0
    0.6310    0.6659   -0.8109 C   0  0  0  0  0  0  0  0  0  0  0  0
    1.3862    1.5349   -0.3798 O   0  0  0  0  0  0  0  0  0  0  0  0
   -0.8716    0.7163    1.2479 C   0  0  0  0  0  0  0  0  0  0  0  0
   -1.9983    0.0279    2.0219 C   0  0  0  0  0  0  0  0  0  0  0  0
   -3.4169   -0.2931    0.9316 S   0  0  0  0  0  0  0  0  0  0  0  0
   -3.9436    1.4170    0.6794 C   0  0  0  0  0  0  0  0  0  0  0  0
    1.2790   -1.2290    0.9021 H   0  0  0  0  0  0  0  0  0  0  0  0
   -1.1665   -0.4563   -0.5388 H   0  0  0  0  0  0  0  0  0  0  0  0
   -1.2359    1.6724    0.8487 H   0  0  0  0  0  0  0  0  0  0  0  0
   -0.0484    0.9504    1.9351 H   0  0  0  0  0  0  0  0  0  0  0  0
   -2.3460    0.6545    2.8487 H   0  0  0  0  0  0  0  0  0  0  0  0
   -1.6653   -0.9288    2.4350 H   0  0  0  0  0  0  0  0  0  0  0  0
   -4.8187    1.4438    0.0256 H   0  0  0  0  0  0  0  0  0  0  0  0
   -3.1358    1.9898    0.2173 H   0  0  0  0  0  0  0  0  0  0  0  0
   -4.2005    1.8716    1.6393 H   0  0  0  0  0  0  0  0  0  0  0  0
    0.5201    0.3048   -2.1460 N   0  0  0  0  0  0  0  0  0  0  0  0
    1.3139    0.9165   -3.1858 C   0  0  2  0  0  0  0  0  0  0  0  0
    0.4255    1.1003   -4.4090 C   0  0  0  0  0  0  0  0  0  0  0  0
   -0.5916    0.4383   -4.6050 O   0  0  0  0  0  0  0  0  0  0  0  0
    2.5326    0.0710   -3.5212 C   0  0  0  0  0  0  0  0  0  0  0  0
   -0.1119   -0.4450   -2.4106 H   0  0  0  0  0  0  0  0  0  0  0  0
    1.6262    1.8969   -2.8098 H   0  0  0  0  0  0  0  0  0  0  0  0
    2.2396   -0.9151   -3.8995 H   0  0  0  0  0  0  0  0  0  0  0  0
    3.1486    0.5500   -4.2895 H   0  0  0  0  0  0  0  0  0  0  0  0
    3.1550   -0.0851   -2.6335 H   0  0  0  0  0  0  0  0  0  0  0  0
    0.9253    2.0606   -5.2775 N   0  0  0  0  0  0  0  0  0  0  0  0
    0.2693    2.4085   -6.5163 C   0  0  0  0  0  0  0  0  0  0  0  0
    1.7649    2.5737   -5.0254 H   0  0  0  0  0  0  0  0  0  0  0  0
    0.6805    1.7979   -7.3336 H   0  0  0  0  0  0  0  0  0  0  0  0
   -0.8105    2.2194   -6.4249 H   0  0  0  0  0  0  0  0  0  0  0  0
    0.4379    3.4735   -6.7338 H   0  0  0  0  0  0  0  0  0  0  0  0
  1  3  1  0  0  0  0
  1  7  1  0  0  0  0
  1  2  2  0  0  0  0
 35 36  1  0  0  0  0
 36 44  1  0  0  0  0
 36 37  2  0  0  0  0
  8  9  1  0  0  0  0
  9 17  1  0  0  0  0
  9 10  2  0  0  0  0
 18 19  1  0  0  0  0
 19 34  1  0  0  0  0
 19 20  2  0  0  0  0
 35 38  1  0  0  0  0
  8 11  1  0  0  0  0
 44 45  1  0  0  0  0
 23 24  1  0  0  0  0
 21 22  1  0  0  0  0
 18 21  1  0  0  0  0
 22 23  1  0  0  0  0
 34 35  1  0  0  0  0
  7  8  1  0  0  0  0
 17 18  1  0  0  0  0
  3  4  1  0  0  0  0
  3  5  1  0  0  0  0
  3  6  1  0  0  0  0
 38 41  1  0  0  0  0
 38 42  1  0  0  0  0
 38 43  1  0  0  0  0
 11 14  1  0  0  0  0
 11 15  1  0  0  0  0
 11 16  1  0  0  0  0
 45 47  1  0  0  0  0
 45 48  1  0  0  0  0
 45 49  1  0  0  0  0
 24 31  1  0  0  0  0
 24 32  1  0  0  0  0
 24 33  1  0  0  0  0
 21 27  1  0  0  0  0
 21 28  1  0  0  0  0
 22 29  1  0  0  0  0
 22 30  1  0  0  0  0
 35 40  1  0  0  0  0
  8 13  1  0  0  0  0
 18 26  1  0  0  0  0
 44 46  1  0  0  0  0
  7 12  1  0  0  0  0
 34 39  1  0  0  0  0
 17 25  1  0  0  0  0
M  END
$$$$

  -OEChem-05262214473D

 49 48  0     1  0  0  0  0  0999 V2000
   -0.0561   -5.3799    2.6949 C   0  0  0  0  0  0  0  0  0  0  0  0
    0.7325   -5.0736    3.5815 O   0  0  0  0  0  0  0  0  0  0  0  0
   -1.0067   -6.5099    2.9135 C   0  0  0  0  0  0  0  0  0  0  0  0
   -0.5910   -7.4777    2.5899 H   0  0  0  0  0  0  0  0  0  0  0  0
   -1.2629   -6.6440    3.9767 H   0  0  0  0  0  0  0  0  0  0  0  0
   -1.9729   -6.4206    2.3918 H   0  0  0  0  0  0  0  0  0  0  0  0
   -0.1735   -4.7694    1.4571 N   0  0  0  0  0  0  0  0  0  0  0  0
    0.6439   -3.6603    1.0409 C   0  0  2  0  0  0  0  0  0  0  0  0
   -0.2788   -2.5625    0.5280 C   0  0  0  0  0  0  0  0  0  0  0  0
   -1.4197   -2.7791    0.1251 O   0  0  0  0  0  0  0  0  0  0  0  0
    1.6395   -4.0779   -0.0301 C   0  0  0  0  0  0  0  0  0  0  0  0
   -0.8741   -5.1235    0.8083 H   0  0  0  0  0  0  0  0  0  0  0  0
    1.1738   -3.3062    1.9318 H   0  0  0  0  0  0  0  0  0  0  0  0
    1.1270   -4.4358   -0.9305 H   0  0  0  0  0  0  0  0  0  0  0  0
    2.2797   -3.2400   -0.3251 H   0  0  0  0  0  0  0  0  0  0  0  0
    2.2827   -4.8880    0.3303 H   0  0  0  0  0  0  0  0  0  0  0  0
    0.3351   -1.3153    0.5316 N   0  0  0  0  0  0  0  0  0  0  0  0
   -0.3268   -0.1184    0.0807 C   0  0  2  0  0  0  0  0  0  0  0  0
    0.6310    0.6659   -0.8109 C   0  0  0  0  0  0  0  0  0  0  0  0
    1.5636    1.3327   -0.3671 O   0  0  0  0  0  0  0  0  0  0  0  0
   -0.8716    0.7163    1.2479 C   0  0  0  0  0  0  0  0  0  0  0  0
   -1.9983    0.0279    2.0219 C   0  0  0  0  0  0  0  0  0  0  0  0
   -3.4169   -0.2931    0.9316 S   0  0  0  0  0  0  0  0  0  0  0  0
   -3.9436    1.4170    0.6794 C   0  0  0  0  0  0  0  0  0  0  0  0
    1.2790   -1.2290    0.9021 H   0  0  0  0  0  0  0  0  0  0  0  0
   -1.1665   -0.4563   -0.5388 H   0  0  0  0  0  0  0  0  0  0  0  0
   -1.2359    1.6724    0.8487 H   0  0  0  0  0  0  0  0  0  0  0  0
   -0.0484    0.9504    1.9351 H   0  0  0  0  0  0  0  0  0  0  0  0
   -2.3460    0.6545    2.8487 H   0  0  0  0  0  0  0  0  0  0  0  0
   -1.6653   -0.9288    2.4350 H   0  0  0  0  0  0  0  0  0  0  0  0
   -4.8187    1.4438    0.0256 H   0  0  0  0  0  0  0  0  0  0  0  0
   -3.1358    1.9898    0.2173 H   0  0  0  0  0  0  0  0  0  0  0  0
   -4.2005    1.8716    1.6393 H   0  0  0  0  0  0  0  0  0  0  0  0
    0.3029    0.5600   -2.1548 N   0  0  0  0  0  0  0  0  0  0  0  0
    1.0542    1.2247   -3.1937 C   0  0  2  0  0  0  0  0  0  0  0  0
    0.0665    1.7398   -4.2322 C   0  0  0  0  0  0  0  0  0  0  0  0
   -1.0606    1.2708   -4.3766 O   0  0  0  0  0  0  0  0  0  0  0  0
    2.0702    0.2874   -3.8278 C   0  0  0  0  0  0  0  0  0  0  0  0
   -0.4697   -0.0366   -2.4357 H   0  0  0  0  0  0  0  0  0  0  0  0
    1.5644    2.0718   -2.7224 H   0  0  0  0  0  0  0  0  0  0  0  0
    1.5775   -0.5676   -4.3051 H   0  0  0  0  0  0  0  0  0  0  0  0
    2.6585    0.8007   -4.5955 H   0  0  0  0  0  0  0  0  0  0  0  0
    2.7614   -0.1054   -3.0743 H   0  0  0  0  0  0  0  0  0  0  0  0
    0.6071    2.7559   -5.0077 N   0  0  0  0  0  0  0  0  0  0  0  0
   -0.1283    3.4011   -6.0703 C   0  0  0  0  0  0  0  0  0  0  0  0
    1.5430    3.0949   -4.8054 H   0  0  0  0  0  0  0  0  0  0  0  0
    0.0769    2.8893   -7.0221 H   0  0  0  0  0  0  0  0  0  0  0  0
   -1.2054    3.3524   -5.8526 H   0  0  0  0  0  0  0  0  0  0  0  0
    0.1834    4.4533   -6.1453 H   0  0  0  0  0  0  0  0  0  0  0  0
  1  3  1  0  0  0  0
  1  7  1  0  0  0  0
  1  2  2  0  0  0  0
 35 36  1  0  0  0  0
 36 44  1  0  0  0  0
 36 37  2  0  0  0  0
  8  9  1  0  0  0  0
  9 17  1  0  0  0  0
  9 10  2  0  0  0  0
 18 19  1  0  0  0  0
 19 34  1  0  0  0  0
 19 20  2  0  0  0  0
 35 38  1  0  0  0  0
  8 11  1  0  0  0  0
 44 45  1  0  0  0  0
 23 24  1  0  0  0  0
 21 22  1  0  0  0  0
 18 21  1  0  0  0  0
 22 23  1  0  0  0  0
 34 35  1  0  0  0  0
  7  8  1  0  0  0  0
 17 18  1  0  0  0  0
  3  4  1  0  0  0  0
  3  5  1  0  0  0  0
  3  6  1  0  0  0  0
 38 41  1  0  0  0  0
 38 42  1  0  0  0  0
 38 43  1  0  0  0  0
 11 14  1  0  0  0  0
 11 15  1  0  0  0  0
 11 16  1  0  0  0  0
 45 47  1  0  0  0  0
 45 48  1  0  0  0  0
 45 49  1  0  0  0  0
 24 31  1  0  0  0  0
 24 32  1  0  0  0  0
 24 33  1  0  0  0  0
 21 27  1  0  0  0  0
 21 28  1  0  0  0  0
 22 29  1  0  0  0  0
 22 30  1  0  0  0  0
 35 40  1  0  0  0  0
  8 13  1  0  0  0  0
 18 26  1  0  0  0  0
 44 46  1  0  0  0  0
  7 12  1  0  0  0  0
 34 39  1  0  0  0  0
 17 25  1  0  0  0  0
M  END
$$$$

  -OEChem-05262214473D

 49 48  0     1  0  0  0  0  0999 V2000
   -0.0561   -5.3799    2.6949 C   0  0  0  0  0  0  0  0  0  0  0  0
    0.7325   -5.0736    3.5815 O   0  0  0  0  0  0  0  0  0  0  0  0
   -1.0067   -6.5099    2.9135 C   0  0  0  0  0  0  0  0  0  0  0  0
   -0.5910   -7.4777    2.5899 H   0  0  0  0  0  0  0  0  0  0  0  0
   -1.2629   -6.6440    3.9767 H   0  0  0  0  0  0  0  0  0  0  0  0
   -1.9729   -6.4206    2.3918 H   0  0  0  0  0  0  0  0  0  0  0  0
   -0.1735   -4.7694    1.4571 N   0  0  0  0  0  0  0  0  0  0  0  0
    0.6439   -3.6603    1.0409 C   0  0  2  0  0  0  0  0  0  0  0  0
   -0.2788   -2.5625    0.5280 C   0  0  0  0  0  0  0  0  0  0  0  0
   -1.4197   -2.7791    0.1251 O   0  0  0  0  0  0  0  0  0  0  0  0
    1.6395   -4.0779   -0.0301 C   0  0  0  0  0  0  0  0  0  0  0  0
   -0.8741   -5.1235    0.8083 H   0  0  0  0  0  0  0  0  0  0  0  0
    1.1738   -3.3062    1.9318 H   0  0  0  0  0  0  0  0  0  0  0  0
    1.1270   -4.4358   -0.9305 H   0  0  0  0  0  0  0  0  0  0  0  0
    2.2797   -3.2400   -0.3251 H   0  0  0  0  0  0  0  0  0  0  0  0
    2.2827   -4.8880    0.3303 H   0  0  0  0  0  0  0  0  0  0  0  0
    0.3351   -1.3153    0.5316 N   0  0  0  0  0  0  0  0  0  0  0  0
   -0.3268   -0.1184    0.0807 C   0  0  2  0  0  0  0  0  0  0  0  0
    0.6310    0.6659   -0.8109 C   0  0  0  0  0  0  0  0  0  0  0  0
    1.7060    1.1085   -0.4113 O   0  0  0  0  0  0  0  0  0  0  0  0
   -0.8716    0.7163    1.2479 C   0  0  0  0  0  0  0  0  0  0  0  0
   -1.9983    0.0279    2.0219 C   0  0  0  0  0  0  0  0  0  0  0  0
   -3.4169   -0.2931    0.9316 S   0  0  0  0  0  0  0  0  0  0  0  0
   -3.9436    1.4170    0.6794 C   0  0  0  0  0  0  0  0  0  0  0  0
    1.2790   -1.2290    0.9021 H   0  0  0  0  0  0  0  0  0  0  0  0
   -1.1665   -0.4563   -0.5388 H   0  0  0  0  0  0  0  0  0  0  0  0
   -1.2359    1.6724    0.8487 H   0  0  0  0  0  0  0  0  0  0  0  0
   -0.0484    0.9504    1.9351 H   0  0  0  0  0  0  0  0  0  0  0  0
   -2.3460    0.6545    2.8487 H   0  0  0  0  0  0  0  0  0  0  0  0
   -1.6653   -0.9288    2.4350 H   0  0  0  0  0  0  0  0  0  0  0  0
   -4.8187    1.4438    0.0256 H   0  0  0  0  0  0  0  0  0  0  0  0
   -3.1358    1.9898    0.2173 H   0  0  0  0  0  0  0  0  0  0  0  0
   -4.2005    1.8716    1.6393 H   0  0  0  0  0  0  0  0  0  0  0  0
    0.1305    0.8409   -2.0930 N   0  0  0  0  0  0  0  0  0  0  0  0
    0.8489    1.5629   -3.1167 C   0  0  2  0  0  0  0  0  0  0  0  0
   -0.1600    2.3831   -3.9098 C   0  0  0  0  0  0  0  0  0  0  0  0
   -1.3574    2.1089   -3.9582 O   0  0  0  0  0  0  0  0  0  0  0  0
    1.6154    0.6162   -4.0272 C   0  0  0  0  0  0  0  0  0  0  0  0
   -0.7568    0.4161   -2.3460 H   0  0  0  0  0  0  0  0  0  0  0  0
    1.5429    2.2358   -2.6013 H   0  0  0  0  0  0  0  0  0  0  0  0
    0.9367   -0.0658   -4.5522 H   0  0  0  0  0  0  0  0  0  0  0  0
    2.1823    1.1667   -4.7851 H   0  0  0  0  0  0  0  0  0  0  0  0
    2.3194    0.0061   -3.4510 H   0  0  0  0  0  0  0  0  0  0  0  0
    0.4408    3.4319   -4.5918 N   0  0  0  0  0  0  0  0  0  0  0  0
   -0.3028    4.3475   -5.4253 C   0  0  0  0  0  0  0  0  0  0  0  0
    1.4368    3.5961   -4.4787 H   0  0  0  0  0  0  0  0  0  0  0  0
   -0.2996    3.9842   -6.4635 H   0  0  0  0  0  0  0  0  0  0  0  0
   -1.3394    4.4135   -5.0631 H   0  0  0  0  0  0  0  0  0  0  0  0
    0.1642    5.3426   -5.3838 H   0  0  0  0  0  0  0  0  0  0  0  0
  1  3  1  0  0  0  0
  1  7  1  0  0  0  0
  1  2  2  0  0  0  0
 35 36  1  0  0  0  0
 36 44  1  0  0  0  0
 36 37  2  0  0  0  0
  8  9  1  0  0  0  0
  9 17  1  0  0  0  0
  9 10  2  0  0  0  0
 18 19  1  0  0  0  0
 19 34  1  0  0  0  0
 19 20  2  0  0  0  0
 35 38  1  0  0  0  0
  8 11  1  0  0  0  0
 44 45  1  0  0  0  0
 23 24  1  0  0  0  0
 21 22  1  0  0  0  0
 18 21  1  0  0  0  0
 22 23  1  0  0  0  0
 34 35  1  0  0  0  0
  7  8  1  0  0  0  0
 17 18  1  0  0  0  0
  3  4  1  0  0  0  0
  3  5  1  0  0  0  0
  3  6  1  0  0  0  0
 38 41  1  0  0  0  0
 38 42  1  0  0  0  0
 38 43  1  0  0  0  0
 11 14  1  0  0  0  0
 11 15  1  0  0  0  0
 11 16  1  0  0  0  0
 45 47  1  0  0  0  0
 45 48  1  0  0  0  0
 45 49  1  0  0  0  0
 24 31  1  0  0  0  0
 24 32  1  0  0  0  0
 24 33  1  0  0  0  0
 21 27  1  0  0  0  0
 21 28  1  0  0  0  0
 22 29  1  0  0  0  0
 22 30  1  0  0  0  0
 35 40  1  0  0  0  0
  8 13  1  0  0  0  0
 18 26  1  0  0  0  0
 44 46  1  0  0  0  0
  7 12  1  0  0  0  0
 34 39  1  0  0  0  0
 17 25  1  0  0  0  0
M  END
$$$$

  -OEChem-05262214473D

 49 48  0     1  0  0  0  0  0999 V2000
   -0.0561   -5.3799    2.6949 C   0  0  0  0  0  0  0  0  0  0  0  0
    0.7325   -5.0736    3.5815 O   0  0  0  0  0  0  0  0  0  0  0  0
   -1.0067   -6.5099    2.9135 C   0  0  0  0  0  0  0  0  0  0  0  0
   -0.5910   -7.4777    2.5899 H   0  0  0  0  0  0  0  0  0  0  0  0
   -1.2629   -6.6440    3.9767 H   0  0  0  0  0  0  0  0  0  0  0  0
   -1.9729   -6.4206    2.3918 H   0  0  0  0  0  0  0  0  0  0  0  0
   -0.1735   -4.7694    1.4571 N   0  0  0  0  0  0  0  0  0  0  0  0
    0.6439   -3.6603    1.0409 C   0  0  2  0  0  0  0  0  0  0  0  0
   -0.2788   -2.5625    0.5280 C   0  0  0  0  0  0  0  0  0  0  0  0
   -1.4197   -2.7791    0.1251 O   0  0  0  0  0  0  0  0  0  0  0  0
    1.6395   -4.0779   -0.0301 C   0  0  0  0  0  0  0  0  0  0  0  0
   -0.8741   -5.1235    0.8083 H   0  0  0  0  0  0  0  0  0  0  0  0
    1.1738   -3.3062    1.9318 H   0  0  0  0  0  0  0  0  0  0  0  0
    1.1270   -4.4358   -0.9305 H   0  0  0  0  0  0  0  0  0  0  0  0
    2.2797   -3.2400   -0.3251 H   0  0  0  0  0  0  0  0  0  0  0  0
    2.2827   -4.8880    0.3303 H   0  0  0  0  0  0  0  0  0  0  0  0
    0.3351   -1.3153    0.5316 N   0  0  0  0  0  0  0  0  0  0  0  0
   -0.3268   -0.1184    0.0807 C   0  0  2  0  0  0  0  0  0  0  0  0
    0.6310    0.6659   -0.8109 C   0  0  0  0  0  0  0  0  0  0  0  0
    1.8038    0.8776   -0.5093 O   0  0  0  0  0  0  0  0  0  0  0  0
   -0.8716    0.7163    1.2479 C   0  0  0  0  0  0  0  0  0  0  0  0
   -1.9983    0.0279    2.0219 C   0  0  0  0  0  0  0  0  0  0  0  0
   -3.4169   -0.2931    0.9316 S   0  0  0  0  0  0  0  0  0  0  0  0
   -3.9436    1.4170    0.6794 C   0  0  0  0  0  0  0  0  0  0  0  0
    1.2790   -1.2290    0.9021 H   0  0  0  0  0  0  0  0  0  0  0  0
   -1.1665   -0.4563   -0.5388 H   0  0  0  0  0  0  0  0  0  0  0  0
   -1.2359    1.6724    0.8487 H   0  0  0  0  0  0  0  0  0  0  0  0
   -0.0484    0.9504    1.9351 H   0  0  0  0  0  0  0  0  0  0  0  0
   -2.3460    0.6545    2.8487 H   0  0  0  0  0  0  0  0  0  0  0  0
   -1.6653   -0.9288    2.4350 H   0  0  0  0  0  0  0  0  0  0  0  0
   -4.8187    1.4438    0.0256 H   0  0  0  0  0  0  0  0  0  0  0  0
   -3.1358    1.9898    0.2173 H   0  0  0  0  0  0  0  0  0  0  0  0
   -4.2005    1.8716    1.6393 H   0  0  0  0  0  0  0  0  0  0  0  0
    0.0146    1.1282   -1.9648 N   0  0  0  0  0  0  0  0  0  0  0  0
    0.7120    1.9082   -2.9601 C   0  0  2  0  0  0  0  0  0  0  0  0
   -0.2386    2.9863   -3.4636 C   0  0  0  0  0  0  0  0  0  0  0  0
   -1.4616    2.8953   -3.3785 O   0  0  0  0  0  0  0  0  0  0  0  0
    1.1993    1.0349   -4.1058 C   0  0  0  0  0  0  0  0  0  0  0  0
   -0.9537    0.8822   -2.1476 H   0  0  0  0  0  0  0  0  0  0  0  0
    1.5629    2.3778   -2.4548 H   0  0  0  0  0  0  0  0  0  0  0  0
    0.3606    0.5559   -4.6242 H   0  0  0  0  0  0  0  0  0  0  0  0
    1.7525    1.6231   -4.8455 H   0  0  0  0  0  0  0  0  0  0  0  0
    1.8593    0.2419   -3.7380 H   0  0  0  0  0  0  0  0  0  0  0  0
    0.4378    4.0423   -4.0581 N   0  0  0  0  0  0  0  0  0  0  0  0
   -0.2424    5.1833   -4.6252 C   0  0  0  0  0  0  0  0  0  0  0  0
    1.4535    4.0431   -4.0675 H   0  0  0  0  0  0  0  0  0  0  0  0
   -0.4234    5.0079   -5.6960 H   0  0  0  0  0  0  0  0  0  0  0  0
   -1.2032    5.3305   -4.1103 H   0  0  0  0  0  0  0  0  0  0  0  0
    0.3814    6.0808   -4.5011 H   0  0  0  0  0  0  0  0  0  0  0  0
  1  3  1  0  0  0  0
  1  7  1  0  0  0  0
  1  2  2  0  0  0  0
 35 36  1  0  0  0  0
 36 44  1  0  0  0  0
 36 37  2  0  0  0  0
  8  9  1  0  0  0  0
  9 17  1  0  0  0  0
  9 10  2  0  0  0  0
 18 19  1  0  0  0  0
 19 34  1  0  0  0  0
 19 20  2  0  0  0  0
 35 38  1  0  0  0  0
  8 11  1  0  0  0  0
 44 45  1  0  0  0  0
 23 24  1  0  0  0  0
 21 22  1  0  0  0  0
 18 21  1  0  0  0  0
 22 23  1  0  0  0  0
 34 35  1  0  0  0  0
  7  8  1  0  0  0  0
 17 18  1  0  0  0  0
  3  4  1  0  0  0  0
  3  5  1  0  0  0  0
  3  6  1  0  0  0  0
 38 41  1  0  0  0  0
 38 42  1  0  0  0  0
 38 43  1  0  0  0  0
 11 14  1  0  0  0  0
 11 15  1  0  0  0  0
 11 16  1  0  0  0  0
 45 47  1  0  0  0  0
 45 48  1  0  0  0  0
 45 49  1  0  0  0  0
 24 31  1  0  0  0  0
 24 32  1  0  0  0  0
 24 33  1  0  0  0  0
 21 27  1  0  0  0  0
 21 28  1  0  0  0  0
 22 29  1  0  0  0  0
 22 30  1  0  0  0  0
 35 40  1  0  0  0  0
  8 13  1  0  0  0  0
 18 26  1  0  0  0  0
 44 46  1  0  0  0  0
  7 12  1  0  0  0  0
 34 39  1  0  0  0  0
 17 25  1  0  0  0  0
M  END
$$$$

  -OEChem-05262214473D

 49 48  0     1  0  0  0  0  0999 V2000
   -0.0561   -5.3799    2.6949 C   0  0  0  0  0  0  0  0  0  0  0  0
    0.7325   -5.0736    3.5815 O   0  0  0  0  0  0  0  0  0  0  0  0
   -1.0067   -6.5099    2.9135 C   0  0  0  0  0  0  0  0  0  0  0  0
   -0.5910   -7.4777    2.5899 H   0  0  0  0  0  0  0  0  0  0  0  0
   -1.2629   -6.6440    3.9767 H   0  0  0  0  0  0  0  0  0  0  0  0
   -1.9729   -6.4206    2.3918 H   0  0  0  0  0  0  0  0  0  0  0  0
   -0.1735   -4.7694    1.4571 N   0  0  0  0  0  0  0  0  0  0  0  0
    0.6439   -3.6603    1.0409 C   0  0  2  0  0  0  0  0  0  0  0  0
   -0.2788   -2.5625    0.5280 C   0  0  0  0  0  0  0  0  0  0  0  0
   -1.4197   -2.7791    0.1251 O   0  0  0  0  0  0  0  0  0  0  0  0
    1.6395   -4.0779   -0.0301 C   0  0  0  0  0  0  0  0  0  0  0  0
   -0.8741   -5.1235    0.8083 H   0  0  0  0  0  0  0  0  0  0  0  0
    1.1738   -3.3062    1.9318 H   0  0  0  0  0  0  0  0  0  0  0  0
    1.1270   -4.4358   -0.9305 H   0  0  0  0  0  0  0  0  0  0  0  0
    2.2797   -3.2400   -0.3251 H   0  0  0  0  0  0  0  0  0  0  0  0
    2.2827   -4.8880    0.3303 H   0  0  0  0  0  0  0  0  0  0  0  0
    0.3351   -1.3153    0.5316 N   0  0  0  0  0  0  0  0  0  0  0  0
   -0.3268   -0.1184    0.0807 C   0  0  2  0  0  0  0  0  0  0  0  0
    0.6310    0.6659   -0.8109 C   0  0  0  0  0  0  0  0  0  0  0  0
    1.8503    0.6557   -0.6545 O   0  0  0  0  0  0  0  0  0  0  0  0
   -0.8716    0.7163    1.2479 C   0  0  0  0  0  0  0  0  0  0  0  0
   -1.9983    0.0279    2.0219 C   0  0  0  0  0  0  0  0  0  0  0  0
   -3.4169   -0.2931    0.9316 S   0  0  0  0  0  0  0  0  0  0  0  0
   -3.9436    1.4170    0.6794 C   0  0  0  0  0  0  0  0  0  0  0  0
    1.2790   -1.2290    0.9021 H   0  0  0  0  0  0  0  0  0  0  0  0
   -1.1665   -0.4563   -0.5388 H   0  0  0  0  0  0  0  0  0  0  0  0
   -1.2359    1.6724    0.8487 H   0  0  0  0  0  0  0  0  0  0  0  0
   -0.0484    0.9504    1.9351 H   0  0  0  0  0  0  0  0  0  0  0  0
   -2.3460    0.6545    2.8487 H   0  0  0  0  0  0  0  0  0  0  0  0
   -1.6653   -0.9288    2.4350 H   0  0  0  0  0  0  0  0  0  0  0  0
   -4.8187    1.4438    0.0256 H   0  0  0  0  0  0  0  0  0  0  0  0
   -3.1358    1.9898    0.2173 H   0  0  0  0  0  0  0  0  0  0  0  0
   -4.2005    1.8716    1.6393 H   0  0  0  0  0  0  0  0  0  0  0  0
   -0.0367    1.4024   -1.7788 N   0  0  0  0  0  0  0  0  0  0  0  0
    0.6528    2.2369   -2.7345 C   0  0  2  0  0  0  0  0  0  0  0  0
   -0.1640    3.5083   -2.9242 C   0  0  0  0  0  0  0  0  0  0  0  0
   -1.3661    3.5764   -2.6769 O   0  0  0  0  0  0  0  0  0  0  0  0
    0.8502    1.5151   -4.0584 C   0  0  0  0  0  0  0  0  0  0  0  0
   -1.0470    1.3299   -1.8540 H   0  0  0  0  0  0  0  0  0  0  0  0
    1.6233    2.4881   -2.2929 H   0  0  0  0  0  0  0  0  0  0  0  0
   -0.1113    1.2553   -4.5160 H   0  0  0  0  0  0  0  0  0  0  0  0
    1.3983    2.1387   -4.7725 H   0  0  0  0  0  0  0  0  0  0  0  0
    1.4123    0.5858   -3.9156 H   0  0  0  0  0  0  0  0  0  0  0  0
    0.5982    4.5457   -3.4430 N   0  0  0  0  0  0  0  0  0  0  0  0
    0.0489    5.8514   -3.7247 C   0  0  0  0  0  0  0  0  0  0  0  0
    1.5919    4.4057   -3.5999 H   0  0  0  0  0  0  0  0  0  0  0  0
   -0.2860    5.8908   -4.7718 H   0  0  0  0  0  0  0  0  0  0  0  0
   -0.8062    6.0407   -3.0591 H   0  0  0  0  0  0  0  0  0  0  0  0
    0.8203    6.6175   -3.5575 H   0  0  0  0  0  0  0  0  0  0  0  0
  1  3  1  0  0  0  0
  1  7  1  0  0  0  0
  1  2  2  0  0  0  0
 35 36  1  0  0  0  0
 36 44  1  0  0  0  0
 36 37  2  0  0  0  0
  8  9  1  0  0  0  0
  9 17  1  0  0  0  0
  9 10  2  0  0  0  0
 18 19  1  0  0  0  0
 19 34  1  0  0  0  0
 19 20  2  0  0  0  0
 35 38  1  0  0  0  0
  8 11  1  0  0  0  0
 44 45  1  0  0  0  0
 23 24  1  0  0  0  0
 21 22  1  0  0  0  0
 18 21  1  0  0  0  0
 22 23  1  0  0  0  0
 34 35  1  0  0  0  0
  7  8  1  0  0  0  0
 17 18  1  0  0  0  0
  3  4  1  0  0  0  0
  3  5  1  0  0  0  0
  3  6  1  0  0  0  0
 38 41  1  0  0  0  0
 38 42  1  0  0  0  0
 38 43  1  0  0  0  0
 11 14  1  0  0  0  0
 11 15  1  0  0  0  0
 11 16  1  0  0  0  0
 45 47  1  0  0  0  0
 45 48  1  0  0  0  0
 45 49  1  0  0  0  0
 24 31  1  0  0  0  0
 24 32  1  0  0  0  0
 24 33  1  0  0  0  0
 21 27  1  0  0  0  0
 21 28  1  0  0  0  0
 22 29  1  0  0  0  0
 22 30  1  0  0  0  0
 35 40  1  0  0  0  0
  8 13  1  0  0  0  0
 18 26  1  0  0  0  0
 44 46  1  0  0  0  0
  7 12  1  0  0  0  0
 34 39  1  0  0  0  0
 17 25  1  0  0  0  0
M  END
$$$$

  -OEChem-05262214473D

 49 48  0     1  0  0  0  0  0999 V2000
   -0.0561   -5.3799    2.6949 C   0  0  0  0  0  0  0  0  0  0  0  0
    0.7325   -5.0736    3.5815 O   0  0  0  0  0  0  0  0  0  0  0  0
   -1.0067   -6.5099    2.9135 C   0  0  0  0  0  0  0  0  0  0  0  0
   -0.5910   -7.4777    2.5899 H   0  0  0  0  0  0  0  0  0  0  0  0
   -1.2629   -6.6440    3.9767 H   0  0  0  0  0  0  0  0  0  0  0  0
   -1.9729   -6.4206    2.3918 H   0  0  0  0  0  0  0  0  0  0  0  0
   -0.1735   -4.7694    1.4571 N   0  0  0  0  0  0  0  0  0  0  0  0
    0.6439   -3.6603    1.0409 C   0  0  2  0  0  0  0  0  0  0  0  0
   -0.2788   -2.5625    0.5280 C   0  0  0  0  0  0  0  0  0  0  0  0
   -1.4197   -2.7791    0.1251 O   0  0  0  0  0  0  0  0  0  0  0  0
    1.6395   -4.0779   -0.0301 C   0  0  0  0  0  0  0  0  0  0  0  0
   -0.8741   -5.1235    0.8083 H   0  0  0  0  0  0  0  0  0  0  0  0
    1.1738   -3.3062    1.9318 H   0  0  0  0  0  0  0  0  0  0  0  0
    1.1270   -4.4358   -0.9305 H   0  0  0  0  0  0  0  0  0  0  0  0
    2.2797   -3.2400   -0.3251 H   0  0  0  0  0  0  0  0  0  0  0  0
    2.2827   -4.8880    0.3303 H   0  0  0  0  0  0  0  0  0  0  0  0
    0.3351   -1.3153    0.5316 N   0  0  0  0  0  0  0  0  0  0  0  0
   -0.3268   -0.1184    0.0807 C   0  0  2  0  0  0  0  0  0  0  0  0
    0.6310    0.6659   -0.8109 C   0  0  0  0  0  0  0  0  0  0  0  0
    1.8424    0.4579   -0.8370 O   0  0  0  0  0  0  0  0  0  0  0  0
   -0.8716    0.7163    1.2479 C   0  0  0  0  0  0  0  0  0  0  0  0
   -1.9983    0.0279    2.0219 C   0  0  0  0  0  0  0  0  0  0  0  0
   -3.4169   -0.2931    0.9316 S   0  0  0  0  0  0  0  0  0  0  0  0
   -3.9436    1.4170    0.6794 C   0  0  0  0  0  0  0  0  0  0  0  0
    1.2790   -1.2290    0.9021 H   0  0  0  0  0  0  0  0  0  0  0  0
   -1.1665   -0.4563   -0.5388 H   0  0  0  0  0  0  0  0  0  0  0  0
   -1.2359    1.6724    0.8487 H   0  0  0  0  0  0  0  0  0  0  0  0
   -0.0484    0.9504    1.9351 H   0  0  0  0  0  0  0  0  0  0  0  0
   -2.3460    0.6545    2.8487 H   0  0  0  0  0  0  0  0  0  0  0  0
   -1.6653   -0.9288    2.4350 H   0  0  0  0  0  0  0  0  0  0  0  0
   -4.8187    1.4438    0.0256 H   0  0  0  0  0  0  0  0  0  0  0  0
   -3.1358    1.9898    0.2173 H   0  0  0  0  0  0  0  0  0  0  0  0
   -4.2005    1.8716    1.6393 H   0  0  0  0  0  0  0  0  0  0  0  0
   -0.0201    1.6447   -1.5477 N   0  0  0  0  0  0  0  0  0  0  0  0
    0.6754    2.5268   -2.4553 C   0  0  2  0  0  0  0  0  0  0  0  0
    0.0589    3.9136   -2.3283 C   0  0  0  0  0  0  0  0  0  0  0  0
   -1.0776    4.1059   -1.9011 O   0  0  0  0  0  0  0  0  0  0  0  0
    0.5920    2.0240   -3.8882 C   0  0  0  0  0  0  0  0  0  0  0  0
   -1.0304    1.7288   -1.4852 H   0  0  0  0  0  0  0  0  0  0  0  0
    1.7199    2.5593   -2.1266 H   0  0  0  0  0  0  0  0  0  0  0  0
   -0.4470    1.9846   -4.2351 H   0  0  0  0  0  0  0  0  0  0  0  0
    1.1439    2.6785   -4.5710 H   0  0  0  0  0  0  0  0  0  0  0  0
    1.0089    1.0146   -3.9719 H   0  0  0  0  0  0  0  0  0  0  0  0
    0.9111    4.9077   -2.7884 N   0  0  0  0  0  0  0  0  0  0  0  0
    0.5510    6.3064   -2.7850 C   0  0  0  0  0  0  0  0  0  0  0  0
    1.8427    4.6589   -3.1077 H   0  0  0  0  0  0  0  0  0  0  0  0
    0.1033    6.5726   -3.7539 H   0  0  0  0  0  0  0  0  0  0  0  0
   -0.1754    6.4959   -1.9811 H   0  0  0  0  0  0  0  0  0  0  0  0
    1.4510    6.9162   -2.6172 H   0  0  0  0  0  0  0  0  0  0  0  0
  1  3  1  0  0  0  0
  1  7  1  0  0  0  0
  1  2  2  0  0  0  0
 35 36  1  0  0  0  0
 36 44  1  0  0  0  0
 36 37  2  0  0  0  0
  8  9  1  0  0  0  0
  9 17  1  0  0  0  0
  9 10  2  0  0  0  0
 18 19  1  0  0  0  0
 19 34  1  0  0  0  0
 19 20  2  0  0  0  0
 35 38  1  0  0  0  0
  8 11  1  0  0  0  0
 44 45  1  0  0  0  0
 23 24  1  0  0  0  0
 21 22  1  0  0  0  0
 18 21  1  0  0  0  0
 22 23  1  0  0  0  0
 34 35  1  0  0  0  0
  7  8  1  0  0  0  0
 17 18  1  0  0  0  0
  3  4  1  0  0  0  0
  3  5  1  0  0  0  0
  3  6  1  0  0  0  0
 38 41  1  0  0  0  0
 38 42  1  0  0  0  0
 38 43  1  0  0  0  0
 11 14  1  0  0  0  0
 11 15  1  0  0  0  0
 11 16  1  0  0  0  0
 45 47  1  0  0  0  0
 45 48  1  0  0  0  0
 45 49  1  0  0  0  0
 24 31  1  0  0  0  0
 24 32  1  0  0  0  0
 24 33  1  0  0  0  0
 21 27  1  0  0  0  0
 21 28  1  0  0  0  0
 22 29  1  0  0  0  0
 22 30  1  0  0  0  0
 35 40  1  0  0  0  0
  8 13  1  0  0  0  0
 18 26  1  0  0  0  0
 44 46  1  0  0  0  0
  7 12  1  0  0  0  0
 34 39  1  0  0  0  0
 17 25  1  0  0  0  0
M  END
$$$$

  -OEChem-05262214473D

 49 48  0     1  0  0  0  0  0999 V2000
   -0.0561   -5.3799    2.6949 C   0  0  0  0  0  0  0  0  0  0  0  0
    0.7325   -5.0736    3.5815 O   0  0  0  0  0  0  0  0  0  0  0  0
   -1.0067   -6.5099    2.9135 C   0  0  0  0  0  0  0  0  0  0  0  0
   -0.5910   -7.4777    2.5899 H   0  0  0  0  0  0  0  0  0  0  0  0
   -1.2629   -6.6440    3.9767 H   0  0  0  0  0  0  0  0  0  0  0  0
   -1.9729   -6.4206    2.3918 H   0  0  0  0  0  0  0  0  0  0  0  0
   -0.1735   -4.7694    1.4571 N   0  0  0  0  0  0  0  0  0  0  0  0
    0.6439   -3.6603    1.0409 C   0  0  2  0  0  0  0  0  0  0  0  0
   -0.2788   -2.5625    0.5280 C   0  0  0  0  0  0  0  0  0  0  0  0
   -1.4197   -2.7791    0.1251 O   0  0  0  0  0  0  0  0  0  0  0  0
    1.6395   -4.0779   -0.0301 C   0  0  0  0  0  0  0  0  0  0  0  0
   -0.8741   -5.1235    0.8083 H   0  0  0  0  0  0  0  0  0  0  0  0
    1.1738   -3.3062    1.9318 H   0  0  0  0  0  0  0  0  0  0  0  0
    1.1270   -4.4358   -0.9305 H   0  0  0  0  0  0  0  0  0  0  0  0
    2.2797   -3.2400   -0.3251 H   0  0  0  0  0  0  0  0  0  0  0  0
    2.2827   -4.8880    0.3303 H   0  0  0  0  0  0  0  0  0  0  0  0
    0.3351   -1.3153    0.5316 N   0  0  0  0  0  0  0  0  0  0  0  0
   -0.3268   -0.1184    0.0807 C   0  0  2  0  0  0  0  0  0  0  0  0
    0.4625    0.4694   -1.0851 C   0  0  0  0  0  0  0  0  0  0  0  0
    1.5046   -0.0287   -1.5060 O   0  0  0  0  0  0  0  0  0  0  0  0
   -0.5434    0.8872    1.2199 C   0  0  0  0  0  0  0  0  0  0  0  0
   -1.5164    0.3973    2.2949 C   0  0  0  0  0  0  0  0  0  0  0  0
   -3.1585    0.0930    1.5773 S   0  0  0  0  0  0  0  0  0  0  0  0
   -3.6103    1.8068    1.2250 C   0  0  0  0  0  0  0  0  0  0  0  0
    1.2790   -1.2290    0.9021 H   0  0  0  0  0  0  0  0  0  0  0  0
   -1.3032   -0.4420   -0.3000 H   0  0  0  0  0  0  0  0  0  0  0  0
   -0.9208    1.8235    0.7873 H   0  0  0  0  0  0  0  0  0  0  0  0
    0.4248    1.1171    1.6829 H   0  0  0  0  0  0  0  0  0  0  0  0
   -1.6302    1.1410    3.0892 H   0  0  0  0  0  0  0  0  0  0  0  0
   -1.1665   -0.5352    2.7476 H   0  0  0  0  0  0  0  0  0  0  0  0
   -4.6039    1.8437    0.7718 H   0  0  0  0  0  0  0  0  0  0  0  0
   -2.8868    2.2468    0.5341 H   0  0  0  0  0  0  0  0  0  0  0  0
   -3.6182    2.3865    2.1513 H   0  0  0  0  0  0  0  0  0  0  0  0
   -0.1150    1.6309   -1.5775 N   0  0  0  0  0  0  0  0  0  0  0  0
    0.4552    2.3791   -2.6732 C   0  0  2  0  0  0  0  0  0  0  0  0
    0.2914    3.8617   -2.3659 C   0  0  0  0  0  0  0  0  0  0  0  0
   -0.5580    4.2962   -1.5907 O   0  0  0  0  0  0  0  0  0  0  0  0
   -0.2097    2.0209   -3.9931 C   0  0  0  0  0  0  0  0  0  0  0  0
   -0.9942    1.9569   -1.1870 H   0  0  0  0  0  0  0  0  0  0  0  0
    1.5210    2.1280   -2.7068 H   0  0  0  0  0  0  0  0  0  0  0  0
   -1.2782    2.2652   -3.9784 H   0  0  0  0  0  0  0  0  0  0  0  0
    0.2429    2.5678   -4.8268 H   0  0  0  0  0  0  0  0  0  0  0  0
   -0.1168    0.9489   -4.1981 H   0  0  0  0  0  0  0  0  0  0  0  0
    1.1768    4.6461   -3.0918 N   0  0  0  0  0  0  0  0  0  0  0  0
    1.2101    6.0861   -2.9857 C   0  0  0  0  0  0  0  0  0  0  0  0
    1.8594    4.1995   -3.6970 H   0  0  0  0  0  0  0  0  0  0  0  0
    0.5600    6.5262   -3.7562 H   0  0  0  0  0  0  0  0  0  0  0  0
    0.8546    6.3886   -1.9897 H   0  0  0  0  0  0  0  0  0  0  0  0
    2.2414    6.4405   -3.1302 H   0  0  0  0  0  0  0  0  0  0  0  0
  1  3  1  0  0  0  0
  1  7  1  0  0  0  0
  1  2  2  0  0  0  0
 35 36  1  0  0  0  0
 36 44  1  0  0  0  0
 36 37  2  0  0  0  0
  8  9  1  0  0  0  0
  9 17  1  0  0  0  0
  9 10  2  0  0  0  0
 18 19  1  0  0  0  0
 19 34  1  0  0  0  0
 19 20  2  0  0  0  0
 35 38  1  0  0  0  0
  8 11  1  0  0  0  0
 44 45  1  0  0  0  0
 23 24  1  0  0  0  0
 21 22  1  0  0  0  0
 18 21  1  0  0  0  0
 22 23  1  0  0  0  0
 34 35  1  0  0  0  0
  7  8  1  0  0  0  0
 17 18  1  0  0  0  0
  3  4  1  0  0  0  0
  3  5  1  0  0  0  0
  3  6  1  0  0  0  0
 38 41  1  0  0  0  0
 38 42  1  0  0  0  0
 38 43  1  0  0  0  0
 11 14  1  0  0  0  0
 11 15  1  0  0  0  0
 11 16  1  0  0  0  0
 45 47  1  0  0  0  0
 45 48  1  0  0  0  0
 45 49  1  0  0  0  0
 24 31  1  0  0  0  0
 24 32  1  0  0  0  0
 24 33  1  0  0  0  0
 21 27  1  0  0  0  0
 21 28  1  0  0  0  0
 22 29  1  0  0  0  0
 22 30  1  0  0  0  0
 35 40  1  0  0  0  0
  8 13  1  0  0  0  0
 18 26  1  0  0  0  0
 44 46  1  0  0  0  0
  7 12  1  0  0  0  0
 34 39  1  0  0  0  0
 17 25  1  0  0  0  0
M  END
$$$$

  -OEChem-05262214473D

 49 48  0     1  0  0  0  0  0999 V2000
   -0.0561   -5.3799    2.6949 C   0  0  0  0  0  0  0  0  0  0  0  0
    0.7325   -5.0736    3.5815 O   0  0  0  0  0  0  0  0  0  0  0  0
   -1.0067   -6.5099    2.9135 C   0  0  0  0  0  0  0  0  0  0  0  0
   -0.5910   -7.4777    2.5899 H   0  0  0  0  0  0  0  0  0  0  0  0
   -1.2629   -6.6440    3.9767 H   0  0  0  0  0  0  0  0  0  0  0  0
   -1.9729   -6.4206    2.3918 H   0  0  0  0  0  0  0  0  0  0  0  0
   -0.1735   -4.7694    1.4571 N   0  0  0  0  0  0  0  0  0  0  0  0
    0.6439   -3.6603    1.0409 C   0  0  2  0  0  0  0  0  0  0  0  0
   -0.2788   -2.5625    0.5280 C   0  0  0  0  0  0  0  0  0  0  0  0
   -1.4197   -2.7791    0.1251 O   0  0  0  0  0  0  0  0  0  0  0  0
    1.6395   -4.0779   -0.0301 C   0  0  0  0  0  0  0  0  0  0  0  0
   -0.8741   -5.1235    0.8083 H   0  0  0  0  0  0  0  0  0  0  0  0
    1.1738   -3.3062    1.9318 H   0  0  0  0  0  0  0  0  0  0  0  0
    1.1270   -4.4358   -0.9305 H   0  0  0  0  0  0  0  0  0  0  0  0
    2.2797   -3.2400   -0.3251 H   0  0  0  0  0  0  0  0  0  0  0  0
    2.2827   -4.8880    0.3303 H   0  0  0  0  0  0  0  0  0  0  0  0
    0.3351   -1.3153    0.5316 N   0  0  0  0  0  0  0  0  0  0  0  0
   -0.3268   -0.1184    0.0807 C   0  0  2  0  0  0  0  0  0  0  0  0
    0.4625    0.4694   -1.0851 C   0  0  0  0  0  0  0  0  0  0  0  0
    1.3404   -0.1527   -1.6797 O   0  0  0  0  0  0  0  0  0  0  0  0
   -0.5434    0.8872    1.2199 C   0  0  0  0  0  0  0  0  0  0  0  0
   -1.5164    0.3973    2.2949 C   0  0  0  0  0  0  0  0  0  0  0  0
   -3.1585    0.0930    1.5773 S   0  0  0  0  0  0  0  0  0  0  0  0
   -3.6103    1.8068    1.2250 C   0  0  0  0  0  0  0  0  0  0  0  0
    1.2790   -1.2290    0.9021 H   0  0  0  0  0  0  0  0  0  0  0  0
   -1.3032   -0.4420   -0.3000 H   0  0  0  0  0  0  0  0  0  0  0  0
   -0.9208    1.8235    0.7873 H   0  0  0  0  0  0  0  0  0  0  0  0
    0.4248    1.1171    1.6829 H   0  0  0  0  0  0  0  0  0  0  0  0
   -1.6302    1.1410    3.0892 H   0  0  0  0  0  0  0  0  0  0  0  0
   -1.1665   -0.5352    2.7476 H   0  0  0  0  0  0  0  0  0  0  0  0
   -4.6039    1.8437    0.7718 H   0  0  0  0  0  0  0  0  0  0  0  0
   -2.8868    2.2468    0.5341 H   0  0  0  0  0  0  0  0  0  0  0  0
   -3.6182    2.3865    2.1513 H   0  0  0  0  0  0  0  0  0  0  0  0
    0.0945    1.7783   -1.3613 N   0  0  0  0  0  0  0  0  0  0  0  0
    0.7091    2.5536   -2.4133 C   0  0  2  0  0  0  0  0  0  0  0  0
    0.8792    3.9803   -1.9081 C   0  0  0  0  0  0  0  0  0  0  0  0
    0.2067    4.4529   -0.9940 O   0  0  0  0  0  0  0  0  0  0  0  0
   -0.1264    2.5228   -3.6836 C   0  0  0  0  0  0  0  0  0  0  0  0
   -0.6623    2.2066   -0.8365 H   0  0  0  0  0  0  0  0  0  0  0  0
    1.6940    2.1112   -2.5981 H   0  0  0  0  0  0  0  0  0  0  0  0
   -1.1169    2.9620   -3.5180 H   0  0  0  0  0  0  0  0  0  0  0  0
    0.3550    3.0874   -4.4889 H   0  0  0  0  0  0  0  0  0  0  0  0
   -0.2727    1.4937   -4.0290 H   0  0  0  0  0  0  0  0  0  0  0  0
    1.8403    4.6773   -2.6268 N   0  0  0  0  0  0  0  0  0  0  0  0
    2.1765    6.0539   -2.3476 C   0  0  0  0  0  0  0  0  0  0  0  0
    2.3624    4.2004   -3.3561 H   0  0  0  0  0  0  0  0  0  0  0  0
    1.5662    6.7163   -2.9791 H   0  0  0  0  0  0  0  0  0  0  0  0
    1.9777    6.2721   -1.2880 H   0  0  0  0  0  0  0  0  0  0  0  0
    3.2421    6.2218   -2.5629 H   0  0  0  0  0  0  0  0  0  0  0  0
  1  3  1  0  0  0  0
  1  7  1  0  0  0  0
  1  2  2  0  0  0  0
 35 36  1  0  0  0  0
 36 44  1  0  0  0  0
 36 37  2  0  0  0  0
  8  9  1  0  0  0  0
  9 17  1  0  0  0  0
  9 10  2  0  0  0  0
 18 19  1  0  0  0  0
 19 34  1  0  0  0  0
 19 20  2  0  0  0  0
 35 38  1  0  0  0  0
  8 11  1  0  0  0  0
 44 45  1  0  0  0  0
 23 24  1  0  0  0  0
 21 22  1  0  0  0  0
 18 21  1  0  0  0  0
 22 23  1  0  0  0  0
 34 35  1  0  0  0  0
  7  8  1  0  0  0  0
 17 18  1  0  0  0  0
  3  4  1  0  0  0  0
  3  5  1  0  0  0  0
  3  6  1  0  0  0  0
 38 41  1  0  0  0  0
 38 42  1  0  0  0  0
 38 43  1  0  0  0  0
 11 14  1  0  0  0  0
 11 15  1  0  0  0  0
 11 16  1  0  0  0  0
 45 47  1  0  0  0  0
 45 48  1  0  0  0  0
 45 49  1  0  0  0  0
 24 31  1  0  0  0  0
 24 32  1  0  0  0  0
 24 33  1  0  0  0  0
 21 27  1  0  0  0  0
 21 28  1  0  0  0  0
 22 29  1  0  0  0  0
 22 30  1  0  0  0  0
 35 40  1  0  0  0  0
  8 13  1  0  0  0  0
 18 26  1  0  0  0  0
 44 46  1  0  0  0  0
  7 12  1  0  0  0  0
 34 39  1  0  0  0  0
 17 25  1  0  0  0  0
M  END
$$$$

  -OEChem-05262214473D

 49 48  0     1  0  0  0  0  0999 V2000
   -0.0561   -5.3799    2.6949 C   0  0  0  0  0  0  0  0  0  0  0  0
    0.7325   -5.0736    3.5815 O   0  0  0  0  0  0  0  0  0  0  0  0
   -1.0067   -6.5099    2.9135 C   0  0  0  0  0  0  0  0  0  0  0  0
   -0.5910   -7.4777    2.5899 H   0  0  0  0  0  0  0  0  0  0  0  0
   -1.2629   -6.6440    3.9767 H   0  0  0  0  0  0  0  0  0  0  0  0
   -1.9729   -6.4206    2.3918 H   0  0  0  0  0  0  0  0  0  0  0  0
   -0.1735   -4.7694    1.4571 N   0  0  0  0  0  0  0  0  0  0  0  0
    0.6439   -3.6603    1.0409 C   0  0  2  0  0  0  0  0  0  0  0  0
   -0.2788   -2.5625    0.5280 C   0  0  0  0  0  0  0  0  0  0  0  0
   -1.4197   -2.7791    0.1251 O   0  0  0  0  0  0  0  0  0  0  0  0
    1.6395   -4.0779   -0.0301 C   0  0  0  0  0  0  0  0  0  0  0  0
   -0.8741   -5.1235    0.8083 H   0  0  0  0  0  0  0  0  0  0  0  0
    1.1738   -3.3062    1.9318 H   0  0  0  0  0  0  0  0  0  0  0  0
    1.1270   -4.4358   -0.9305 H   0  0  0  0  0  0  0  0  0  0  0  0
    2.2797   -3.2400   -0.3251 H   0  0  0  0  0  0  0  0  0  0  0  0
    2.2827   -4.8880    0.3303 H   0  0  0  0  0  0  0  0  0  0  0  0
    0.3351   -1.3153    0.5316 N   0  0  0  0  0  0  0  0  0  0  0  0
   -0.3268   -0.1184    0.0807 C   0  0  2  0  0  0  0  0  0  0  0  0
    0.4625    0.4694   -1.0851 C   0  0  0  0  0  0  0  0  0  0  0  0
    1.1400   -0.2167   -1.8476 O   0  0  0  0  0  0  0  0  0  0  0  0
   -0.5434    0.8872    1.2199 C   0  0  0  0  0  0  0  0  0  0  0  0
   -1.5164    0.3973    2.2949 C   0  0  0  0  0  0  0  0  0  0  0  0
   -3.1585    0.0930    1.5773 S   0  0  0  0  0  0  0  0  0  0  0  0
   -3.6103    1.8068    1.2250 C   0  0  0  0  0  0  0  0  0  0  0  0
    1.2790   -1.2290    0.9021 H   0  0  0  0  0  0  0  0  0  0  0  0
   -1.3032   -0.4420   -0.3000 H   0  0  0  0  0  0  0  0  0  0  0  0
   -0.9208    1.8235    0.7873 H   0  0  0  0  0  0  0  0  0  0  0  0
    0.4248    1.1171    1.6829 H   0  0  0  0  0  0  0  0  0  0  0  0
   -1.6302    1.1410    3.0892 H   0  0  0  0  0  0  0  0  0  0  0  0
   -1.1665   -0.5352    2.7476 H   0  0  0  0  0  0  0  0  0  0  0  0
   -4.6039    1.8437    0.7718 H   0  0  0  0  0  0  0  0  0  0  0  0
   -2.8868    2.2468    0.5341 H   0  0  0  0  0  0  0  0  0  0  0  0
   -3.6182    2.3865    2.1513 H   0  0  0  0  0  0  0  0  0  0  0  0
    0.3476    1.8504   -1.1536 N   0  0  0  0  0  0  0  0  0  0  0  0
    1.0147    2.6372   -2.1642 C   0  0  2  0  0  0  0  0  0  0  0  0
    1.5160    3.9173   -1.5087 C   0  0  0  0  0  0  0  0  0  0  0  0
    1.0358    4.3730   -0.4729 O   0  0  0  0  0  0  0  0  0  0  0  0
    0.0843    2.9497   -3.3258 C   0  0  0  0  0  0  0  0  0  0  0  0
   -0.2574    2.3352   -0.4975 H   0  0  0  0  0  0  0  0  0  0  0  0
    1.8686    2.0461   -2.5127 H   0  0  0  0  0  0  0  0  0  0  0  0
   -0.7774    3.5415   -2.9960 H   0  0  0  0  0  0  0  0  0  0  0  0
    0.5997    3.5219   -4.1042 H   0  0  0  0  0  0  0  0  0  0  0  0
   -0.2987    2.0281   -3.7772 H   0  0  0  0  0  0  0  0  0  0  0  0
    2.5338    4.5140   -2.2397 N   0  0  0  0  0  0  0  0  0  0  0  0
    3.1673    5.7462   -1.8320 C   0  0  0  0  0  0  0  0  0  0  0  0
    2.8824    4.0562   -3.0767 H   0  0  0  0  0  0  0  0  0  0  0  0
    2.6532    6.5968   -2.3034 H   0  0  0  0  0  0  0  0  0  0  0  0
    3.1094    5.8436   -0.7378 H   0  0  0  0  0  0  0  0  0  0  0  0
    4.2221    5.7368   -2.1440 H   0  0  0  0  0  0  0  0  0  0  0  0
  1  3  1  0  0  0  0
  1  7  1  0  0  0  0
  1  2  2  0  0  0  0
 35 36  1  0  0  0  0
 36 44  1  0  0  0  0
 36 37  2  0  0  0  0
  8  9  1  0  0  0  0
  9 17  1  0  0  0  0
  9 10  2  0  0  0  0
 18 19  1  0  0  0  0
 19 34  1  0  0  0  0
 19 20  2  0  0  0  0
 35 38  1  0  0  0  0
  8 11  1  0  0  0  0
 44 45  1  0  0  0  0
 23 24  1  0  0  0  0
 21 22  1  0  0  0  0
 18 21  1  0  0  0  0
 22 23  1  0  0  0  0
 34 35  1  0  0  0  0
  7  8  1  0  0  0  0
 17 18  1  0  0  0  0
  3  4  1  0  0  0  0
  3  5  1  0  0  0  0
  3  6  1  0  0  0  0
 38 41  1  0  0  0  0
 38 42  1  0  0  0  0
 38 43  1  0  0  0  0
 11 14  1  0  0  0  0
 11 15  1  0  0  0  0
 11 16  1  0  0  0  0
 45 47  1  0  0  0  0
 45 48  1  0  0  0  0
 45 49  1  0  0  0  0
 24 31  1  0  0  0  0
 24 32  1  0  0  0  0
 24 33  1  0  0  0  0
 21 27  1  0  0  0  0
 21 28  1  0  0  0  0
 22 29  1  0  0  0  0
 22 30  1  0  0  0  0
 35 40  1  0  0  0  0
  8 13  1  0  0  0  0
 18 26  1  0  0  0  0
 44 46  1  0  0  0  0
  7 12  1  0  0  0  0
 34 39  1  0  0  0  0
 17 25  1  0  0  0  0
M  END
$$$$

  -OEChem-05262214473D

 49 48  0     1  0  0  0  0  0999 V2000
   -0.0561   -5.3799    2.6949 C   0  0  0  0  0  0  0  0  0  0  0  0
    0.7325   -5.0736    3.5815 O   0  0  0  0  0  0  0  0  0  0  0  0
   -1.0067   -6.5099    2.9135 C   0  0  0  0  0  0  0  0  0  0  0  0
   -0.5910   -7.4777    2.5899 H   0  0  0  0  0  0  0  0  0  0  0  0
   -1.2629   -6.6440    3.9767 H   0  0  0  0  0  0  0  0  0  0  0  0
   -1.9729   -6.4206    2.3918 H   0  0  0  0  0  0  0  0  0  0  0  0
   -0.1735   -4.7694    1.4571 N   0  0  0  0  0  0  0  0  0  0  0  0
    0.6439   -3.6603    1.0409 C   0  0  2  0  0  0  0  0  0  0  0  0
   -0.2788   -2.5625    0.5280 C   0  0  0  0  0  0  0  0  0  0  0  0
   -1.4197   -2.7791    0.1251 O   0  0  0  0  0  0  0  0  0  0  0  0
    1.6395   -4.0779   -0.0301 C   0  0  0  0  0  0  0  0  0  0  0  0
   -0.8741   -5.1235    0.8083 H   0  0  0  0  0  0  0  0  0  0  0  0
    1.1738   -3.3062    1.9318 H   0  0  0  0  0  0  0  0  0  0  0  0
    1.1270   -4.4358   -0.9305 H   0  0  0  0  0  0  0  0  0  0  0  0
    2.2797   -3.2400   -0.3251 H   0  0  0  0  0  0  0  0  0  0  0  0
    2.2827   -4.8880    0.3303 H   0  0  0  0  0  0  0  0  0  0  0  0
    0.3351   -1.3153    0.5316 N   0  0  0  0  0  0  0  0  0  0  0  0
   -0.3268   -0.1184    0.0807 C   0  0  2  0  0  0  0  0  0  0  0  0
    0.4625    0.4694   -1.0851 C   0  0  0  0  0  0  0  0  0  0  0  0
    0.9169   -0.2164   -1.9985 O   0  0  0  0  0  0  0  0  0  0  0  0
   -0.5434    0.8872    1.2199 C   0  0  0  0  0  0  0  0  0  0  0  0
   -1.5164    0.3973    2.2949 C   0  0  0  0  0  0  0  0  0  0  0  0
   -3.1585    0.0930    1.5773 S   0  0  0  0  0  0  0  0  0  0  0  0
   -3.6103    1.8068    1.2250 C   0  0  0  0  0  0  0  0  0  0  0  0
    1.2790   -1.2290    0.9021 H   0  0  0  0  0  0  0  0  0  0  0  0
   -1.3032   -0.4420   -0.3000 H   0  0  0  0  0  0  0  0  0  0  0  0
   -0.9208    1.8235    0.7873 H   0  0  0  0  0  0  0  0  0  0  0  0
    0.4248    1.1171    1.6829 H   0  0  0  0  0  0  0  0  0  0  0  0
   -1.6302    1.1410    3.0892 H   0  0  0  0  0  0  0  0  0  0  0  0
   -1.1665   -0.5352    2.7476 H   0  0  0  0  0  0  0  0  0  0  0  0
   -4.6039    1.8437    0.7718 H   0  0  0  0  0  0  0  0  0  0  0  0
   -2.8868    2.2468    0.5341 H   0  0  0  0  0  0  0  0  0  0  0  0
   -3.6182    2.3865    2.1513 H   0  0  0  0  0  0  0  0  0  0  0  0
    0.6271    1.8421   -0.9685 N   0  0  0  0  0  0  0  0  0  0  0  0
    1.3514    2.6242   -1.9429 C   0  0  2  0  0  0  0  0  0  0  0  0
    2.1585    3.6770   -1.1949 C   0  0  0  0  0  0  0  0  0  0  0  0
    1.8729    4.0621   -0.0630 O   0  0  0  0  0  0  0  0  0  0  0  0
    0.4079    3.2725   -2.9440 C   0  0  0  0  0  0  0  0  0  0  0  0
    0.1929    2.3340   -0.1932 H   0  0  0  0  0  0  0  0  0  0  0  0
    2.0330    1.9373   -2.4563 H   0  0  0  0  0  0  0  0  0  0  0  0
   -0.2828    3.9642   -2.4480 H   0  0  0  0  0  0  0  0  0  0  0  0
    0.9604    3.8417   -3.6988 H   0  0  0  0  0  0  0  0  0  0  0  0
   -0.1930    2.5157   -3.4598 H   0  0  0  0  0  0  0  0  0  0  0  0
    3.2099    4.1672   -1.9567 N   0  0  0  0  0  0  0  0  0  0  0  0
    4.1149    5.1840   -1.4739 C   0  0  0  0  0  0  0  0  0  0  0  0
    3.3840    3.7766   -2.8781 H   0  0  0  0  0  0  0  0  0  0  0  0
    3.7470    6.1760   -1.7750 H   0  0  0  0  0  0  0  0  0  0  0  0
    4.1727    5.1321   -0.3766 H   0  0  0  0  0  0  0  0  0  0  0  0
    5.1145    5.0183   -1.9020 H   0  0  0  0  0  0  0  0  0  0  0  0
  1  3  1  0  0  0  0
  1  7  1  0  0  0  0
  1  2  2  0  0  0  0
 35 36  1  0  0  0  0
 36 44  1  0  0  0  0
 36 37  2  0  0  0  0
  8  9  1  0  0  0  0
  9 17  1  0  0  0  0
  9 10  2  0  0  0  0
 18 19  1  0  0  0  0
 19 34  1  0  0  0  0
 19 20  2  0  0  0  0
 35 38  1  0  0  0  0
  8 11  1  0  0  0  0
 44 45  1  0  0  0  0
 23 24  1  0  0  0  0
 21 22  1  0  0  0  0
 18 21  1  0  0  0  0
 22 23  1  0  0  0  0
 34 35  1  0  0  0  0
  7  8  1  0  0  0  0
 17 18  1  0  0  0  0
  3  4  1  0  0  0  0
  3  5  1  0  0  0  0
  3  6  1  0  0  0  0
 38 41  1  0  0  0  0
 38 42  1  0  0  0  0
 38 43  1  0  0  0  0
 11 14  1  0  0  0  0
 11 15  1  0  0  0  0
 11 16  1  0  0  0  0
 45 47  1  0  0  0  0
 45 48  1  0  0  0  0
 45 49  1  0  0  0  0
 24 31  1  0  0  0  0
 24 32  1  0  0  0  0
 24 33  1  0  0  0  0
 21 27  1  0  0  0  0
 21 28  1  0  0  0  0
 22 29  1  0  0  0  0
 22 30  1  0  0  0  0
 35 40  1  0  0  0  0
  8 13  1  0  0  0  0
 18 26  1  0  0  0  0
 44 46  1  0  0  0  0
  7 12  1  0  0  0  0
 34 39  1  0  0  0  0
 17 25  1  0  0  0  0
M  END
$$$$

  -OEChem-05262214473D

 49 48  0     1  0  0  0  0  0999 V2000
   -0.0561   -5.3799    2.6949 C   0  0  0  0  0  0  0  0  0  0  0  0
    0.7325   -5.0736    3.5815 O   0  0  0  0  0  0  0  0  0  0  0  0
   -1.0067   -6.5099    2.9135 C   0  0  0  0  0  0  0  0  0  0  0  0
   -0.5910   -7.4777    2.5899 H   0  0  0  0  0  0  0  0  0  0  0  0
   -1.2629   -6.6440    3.9767 H   0  0  0  0  0  0  0  0  0  0  0  0
   -1.9729   -6.4206    2.3918 H   0  0  0  0  0  0  0  0  0  0  0  0
   -0.1735   -4.7694    1.4571 N   0  0  0  0  0  0  0  0  0  0  0  0
    0.6439   -3.6603    1.0409 C   0  0  2  0  0  0  0  0  0  0  0  0
   -0.2788   -2.5625    0.5280 C   0  0  0  0  0  0  0  0  0  0  0  0
   -1.4197   -2.7791    0.1251 O   0  0  0  0  0  0  0  0  0  0  0  0
    1.6395   -4.0779   -0.0301 C   0  0  0  0  0  0  0  0  0  0  0  0
   -0.8741   -5.1235    0.8083 H   0  0  0  0  0  0  0  0  0  0  0  0
    1.1738   -3.3062    1.9318 H   0  0  0  0  0  0  0  0  0  0  0  0
    1.1270   -4.4358   -0.9305 H   0  0  0  0  0  0  0  0  0  0  0  0
    2.2797   -3.2400   -0.3251 H   0  0  0  0  0  0  0  0  0  0  0  0
    2.2827   -4.8880    0.3303 H   0  0  0  0  0  0  0  0  0  0  0  0
    0.3351   -1.3153    0.5316 N   0  0  0  0  0  0  0  0  0  0  0  0
   -0.3268   -0.1184    0.0807 C   0  0  2  0  0  0  0  0  0  0  0  0
    0.4625    0.4694   -1.0851 C   0  0  0  0  0  0  0  0  0  0  0  0
    0.6865   -0.1518   -2.1219 O   0  0  0  0  0  0  0  0  0  0  0  0
   -0.5434    0.8872    1.2199 C   0  0  0  0  0  0  0  0  0  0  0  0
   -1.5164    0.3973    2.2949 C   0  0  0  0  0  0  0  0  0  0  0  0
   -3.1585    0.0930    1.5773 S   0  0  0  0  0  0  0  0  0  0  0  0
   -3.6103    1.8068    1.2250 C   0  0  0  0  0  0  0  0  0  0  0  0
    1.2790   -1.2290    0.9021 H   0  0  0  0  0  0  0  0  0  0  0  0
   -1.3032   -0.4420   -0.3000 H   0  0  0  0  0  0  0  0  0  0  0  0
   -0.9208    1.8235    0.7873 H   0  0  0  0  0  0  0  0  0  0  0  0
    0.4248    1.1171    1.6829 H   0  0  0  0  0  0  0  0  0  0  0  0
   -1.6302    1.1410    3.0892 H   0  0  0  0  0  0  0  0  0  0  0  0
   -1.1665   -0.5352    2.7476 H   0  0  0  0  0  0  0  0  0  0  0  0
   -4.6039    1.8437    0.7718 H   0  0  0  0  0  0  0  0  0  0  0  0
   -2.8868    2.2468    0.5341 H   0  0  0  0  0  0  0  0  0  0  0  0
   -3.6182    2.3865    2.1513 H   0  0  0  0  0  0  0  0  0  0  0  0
    0.9139    1.7541   -0.8188 N   0  0  0  0  0  0  0  0  0  0  0  0
    1.6960    2.5153   -1.7644 C   0  0  2  0  0  0  0  0  0  0  0  0
    2.7629    3.2758   -0.9879 C   0  0  0  0  0  0  0  0  0  0  0  0
    2.6608    3.5414    0.2080 O   0  0  0  0  0  0  0  0  0  0  0  0
    0.8223    3.4691   -2.5642 C   0  0  0  0  0  0  0  0  0  0  0  0
    0.6580    2.2030    0.0556 H   0  0  0  0  0  0  0  0  0  0  0  0
    2.1758    1.7921   -2.4328 H   0  0  0  0  0  0  0  0  0  0  0  0
    0.3332    4.2013   -1.9114 H   0  0  0  0  0  0  0  0  0  0  0  0
    1.4124    4.0249   -3.3004 H   0  0  0  0  0  0  0  0  0  0  0  0
    0.0372    2.9233   -3.0984 H   0  0  0  0  0  0  0  0  0  0  0  0
    3.8226    3.6607   -1.7973 N   0  0  0  0  0  0  0  0  0  0  0  0
    4.9546    4.4056   -1.2977 C   0  0  0  0  0  0  0  0  0  0  0  0
    3.8330    3.3808   -2.7736 H   0  0  0  0  0  0  0  0  0  0  0  0
    4.7729    5.4824   -1.4301 H   0  0  0  0  0  0  0  0  0  0  0  0
    5.0951    4.1863   -0.2290 H   0  0  0  0  0  0  0  0  0  0  0  0
    5.8585    4.1154   -1.8535 H   0  0  0  0  0  0  0  0  0  0  0  0
  1  3  1  0  0  0  0
  1  7  1  0  0  0  0
  1  2  2  0  0  0  0
 35 36  1  0  0  0  0
 36 44  1  0  0  0  0
 36 37  2  0  0  0  0
  8  9  1  0  0  0  0
  9 17  1  0  0  0  0
  9 10  2  0  0  0  0
 18 19  1  0  0  0  0
 19 34  1  0  0  0  0
 19 20  2  0  0  0  0
 35 38  1  0  0  0  0
  8 11  1  0  0  0  0
 44 45  1  0  0  0  0
 23 24  1  0  0  0  0
 21 22  1  0  0  0  0
 18 21  1  0  0  0  0
 22 23  1  0  0  0  0
 34 35  1  0  0  0  0
  7  8  1  0  0  0  0
 17 18  1  0  0  0  0
  3  4  1  0  0  0  0
  3  5  1  0  0  0  0
  3  6  1  0  0  0  0
 38 41  1  0  0  0  0
 38 42  1  0  0  0  0
 38 43  1  0  0  0  0
 11 14  1  0  0  0  0
 11 15  1  0  0  0  0
 11 16  1  0  0  0  0
 45 47  1  0  0  0  0
 45 48  1  0  0  0  0
 45 49  1  0  0  0  0
 24 31  1  0  0  0  0
 24 32  1  0  0  0  0
 24 33  1  0  0  0  0
 21 27  1  0  0  0  0
 21 28  1  0  0  0  0
 22 29  1  0  0  0  0
 22 30  1  0  0  0  0
 35 40  1  0  0  0  0
  8 13  1  0  0  0  0
 18 26  1  0  0  0  0
 44 46  1  0  0  0  0
  7 12  1  0  0  0  0
 34 39  1  0  0  0  0
 17 25  1  0  0  0  0
M  END
$$$$

  -OEChem-05262214473D

 49 48  0     1  0  0  0  0  0999 V2000
   -0.0561   -5.3799    2.6949 C   0  0  0  0  0  0  0  0  0  0  0  0
    0.7325   -5.0736    3.5815 O   0  0  0  0  0  0  0  0  0  0  0  0
   -1.0067   -6.5099    2.9135 C   0  0  0  0  0  0  0  0  0  0  0  0
   -0.5910   -7.4777    2.5899 H   0  0  0  0  0  0  0  0  0  0  0  0
   -1.2629   -6.6440    3.9767 H   0  0  0  0  0  0  0  0  0  0  0  0
   -1.9729   -6.4206    2.3918 H   0  0  0  0  0  0  0  0  0  0  0  0
   -0.1735   -4.7694    1.4571 N   0  0  0  0  0  0  0  0  0  0  0  0
    0.6439   -3.6603    1.0409 C   0  0  2  0  0  0  0  0  0  0  0  0
   -0.2788   -2.5625    0.5280 C   0  0  0  0  0  0  0  0  0  0  0  0
   -1.4197   -2.7791    0.1251 O   0  0  0  0  0  0  0  0  0  0  0  0
    1.6395   -4.0779   -0.0301 C   0  0  0  0  0  0  0  0  0  0  0  0
   -0.8741   -5.1235    0.8083 H   0  0  0  0  0  0  0  0  0  0  0  0
    1.1738   -3.3062    1.9318 H   0  0  0  0  0  0  0  0  0  0  0  0
    1.1270   -4.4358   -0.9305 H   0  0  0  0  0  0  0  0  0  0  0  0
    2.2797   -3.2400   -0.3251 H   0  0  0  0  0  0  0  0  0  0  0  0
    2.2827   -4.8880    0.3303 H   0  0  0  0  0  0  0  0  0  0  0  0
    0.3351   -1.3153    0.5316 N   0  0  0  0  0  0  0  0  0  0  0  0
   -0.3268   -0.1184    0.0807 C   0  0  2  0  0  0  0  0  0  0  0  0
    0.4625    0.4694   -1.0851 C   0  0  0  0  0  0  0  0  0  0  0  0
    0.4645   -0.0274   -2.2095 O   0  0  0  0  0  0  0  0  0  0  0  0
   -0.5434    0.8872    1.2199 C   0  0  0  0  0  0  0  0  0  0  0  0
   -1.5164    0.3973    2.2949 C   0  0  0  0  0  0  0  0  0  0  0  0
   -3.1585    0.0930    1.5773 S   0  0  0  0  0  0  0  0  0  0  0  0
   -3.6103    1.8068    1.2250 C   0  0  0  0  0  0  0  0  0  0  0  0
    1.2790   -1.2290    0.9021 H   0  0  0  0  0  0  0  0  0  0  0  0
   -1.3032   -0.4420   -0.3000 H   0  0  0  0  0  0  0  0  0  0  0  0
   -0.9208    1.8235    0.7873 H   0  0  0  0  0  0  0  0  0  0  0  0
    0.4248    1.1171    1.6829 H   0  0  0  0  0  0  0  0  0  0  0  0
   -1.6302    1.1410    3.0892 H   0  0  0  0  0  0  0  0  0  0  0  0
   -1.1665   -0.5352    2.7476 H   0  0  0  0  0  0  0  0  0  0  0  0
   -4.6039    1.8437    0.7718 H   0  0  0  0  0  0  0  0  0  0  0  0
   -2.8868    2.2468    0.5341 H   0  0  0  0  0  0  0  0  0  0  0  0
   -3.6182    2.3865    2.1513 H   0  0  0  0  0  0  0  0  0  0  0  0
    1.1884    1.5922   -0.7145 N   0  0  0  0  0  0  0  0  0  0  0  0
    2.0252    2.3182   -1.6409 C   0  0  2  0  0  0  0  0  0  0  0  0
    3.2880    2.7411   -0.9020 C   0  0  0  0  0  0  0  0  0  0  0  0
    3.3459    2.8463    0.3214 O   0  0  0  0  0  0  0  0  0  0  0  0
    1.2995    3.5262   -2.2124 C   0  0  0  0  0  0  0  0  0  0  0  0
    1.1061    1.9512    0.2321 H   0  0  0  0  0  0  0  0  0  0  0  0
    2.2874    1.6205   -2.4437 H   0  0  0  0  0  0  0  0  0  0  0  0
    1.0286    4.2366   -1.4228 H   0  0  0  0  0  0  0  0  0  0  0  0
    1.9250    4.0592   -2.9361 H   0  0  0  0  0  0  0  0  0  0  0  0
    0.3761    3.2231   -2.7178 H   0  0  0  0  0  0  0  0  0  0  0  0
    4.3302    3.0288   -1.7722 N   0  0  0  0  0  0  0  0  0  0  0  0
    5.6294    3.4641   -1.3156 C   0  0  0  0  0  0  0  0  0  0  0  0
    4.1988    2.8956   -2.7705 H   0  0  0  0  0  0  0  0  0  0  0  0
    5.6611    4.5634   -1.2921 H   0  0  0  0  0  0  0  0  0  0  0  0
    5.8136    3.0704   -0.3051 H   0  0  0  0  0  0  0  0  0  0  0  0
    6.4035    3.0897   -2.0017 H   0  0  0  0  0  0  0  0  0  0  0  0
  1  3  1  0  0  0  0
  1  7  1  0  0  0  0
  1  2  2  0  0  0  0
 35 36  1  0  0  0  0
 36 44  1  0  0  0  0
 36 37  2  0  0  0  0
  8  9  1  0  0  0  0
  9 17  1  0  0  0  0
  9 10  2  0  0  0  0
 18 19  1  0  0  0  0
 19 34  1  0  0  0  0
 19 20  2  0  0  0  0
 35 38  1  0  0  0  0
  8 11  1  0  0  0  0
 44 45  1  0  0  0  0
 23 24  1  0  0  0  0
 21 22  1  0  0  0  0
 18 21  1  0  0  0  0
 22 23  1  0  0  0  0
 34 35  1  0  0  0  0
  7  8  1  0  0  0  0
 17 18  1  0  0  0  0
  3  4  1  0  0  0  0
  3  5  1  0  0  0  0
  3  6  1  0  0  0  0
 38 41  1  0  0  0  0
 38 42  1  0  0  0  0
 38 43  1  0  0  0  0
 11 14  1  0  0  0  0
 11 15  1  0  0  0  0
 11 16  1  0  0  0  0
 45 47  1  0  0  0  0
 45 48  1  0  0  0  0
 45 49  1  0  0  0  0
 24 31  1  0  0  0  0
 24 32  1  0  0  0  0
 24 33  1  0  0  0  0
 21 27  1  0  0  0  0
 21 28  1  0  0  0  0
 22 29  1  0  0  0  0
 22 30  1  0  0  0  0
 35 40  1  0  0  0  0
  8 13  1  0  0  0  0
 18 26  1  0  0  0  0
 44 46  1  0  0  0  0
  7 12  1  0  0  0  0
 34 39  1  0  0  0  0
 17 25  1  0  0  0  0
M  END
$$$$

  -OEChem-05262214473D

 49 48  0     1  0  0  0  0  0999 V2000
   -0.0561   -5.3799    2.6949 C   0  0  0  0  0  0  0  0  0  0  0  0
    0.7325   -5.0736    3.5815 O   0  0  0  0  0  0  0  0  0  0  0  0
   -1.0067   -6.5099    2.9135 C   0  0  0  0  0  0  0  0  0  0  0  0
   -0.5910   -7.4777    2.5899 H   0  0  0  0  0  0  0  0  0  0  0  0
   -1.2629   -6.6440    3.9767 H   0  0  0  0  0  0  0  0  0  0  0  0
   -1.9729   -6.4206    2.3918 H   0  0  0  0  0  0  0  0  0  0  0  0
   -0.1735   -4.7694    1.4571 N   0  0  0  0  0  0  0  0  0  0  0  0
    0.6439   -3.6603    1.0409 C   0  0  2  0  0  0  0  0  0  0  0  0
   -0.2788   -2.5625    0.5280 C   0  0  0  0  0  0  0  0  0  0  0  0
   -1.4197   -2.7791    0.1251 O   0  0  0  0  0  0  0  0  0  0  0  0
    1.6395   -4.0779   -0.0301 C   0  0  0  0  0  0  0  0  0  0  0  0
   -0.8741   -5.1235    0.8083 H   0  0  0  0  0  0  0  0  0  0  0  0
    1.1738   -3.3062    1.9318 H   0  0  0  0  0  0  0  0  0  0  0  0
    1.1270   -4.4358   -0.9305 H   0  0  0  0  0  0  0  0  0  0  0  0
    2.2797   -3.2400   -0.3251 H   0  0  0  0  0  0  0  0  0  0  0  0
    2.2827   -4.8880    0.3303 H   0  0  0  0  0  0  0  0  0  0  0  0
    0.3351   -1.3153    0.5316 N   0  0  0  0  0  0  0  0  0  0  0  0
   -0.3268   -0.1184    0.0807 C   0  0  2  0  0  0  0  0  0  0  0  0
    0.4625    0.4694   -1.0851 C   0  0  0  0  0  0  0  0  0  0  0  0
    0.2658    0.1485   -2.2554 O   0  0  0  0  0  0  0  0  0  0  0  0
   -0.5434    0.8872    1.2199 C   0  0  0  0  0  0  0  0  0  0  0  0
   -1.5164    0.3973    2.2949 C   0  0  0  0  0  0  0  0  0  0  0  0
   -3.1585    0.0930    1.5773 S   0  0  0  0  0  0  0  0  0  0  0  0
   -3.6103    1.8068    1.2250 C   0  0  0  0  0  0  0  0  0  0  0  0
    1.2790   -1.2290    0.9021 H   0  0  0  0  0  0  0  0  0  0  0  0
   -1.3032   -0.4420   -0.3000 H   0  0  0  0  0  0  0  0  0  0  0  0
   -0.9208    1.8235    0.7873 H   0  0  0  0  0  0  0  0  0  0  0  0
    0.4248    1.1171    1.6829 H   0  0  0  0  0  0  0  0  0  0  0  0
   -1.6302    1.1410    3.0892 H   0  0  0  0  0  0  0  0  0  0  0  0
   -1.1665   -0.5352    2.7476 H   0  0  0  0  0  0  0  0  0  0  0  0
   -4.6039    1.8437    0.7718 H   0  0  0  0  0  0  0  0  0  0  0  0
   -2.8868    2.2468    0.5341 H   0  0  0  0  0  0  0  0  0  0  0  0
   -3.6182    2.3865    2.1513 H   0  0  0  0  0  0  0  0  0  0  0  0
    1.4319    1.3677   -0.6628 N   0  0  0  0  0  0  0  0  0  0  0  0
    2.3165    2.0461   -1.5809 C   0  0  2  0  0  0  0  0  0  0  0  0
    3.6980    2.1092   -0.9430 C   0  0  0  0  0  0  0  0  0  0  0  0
    3.8815    2.0242    0.2695 O   0  0  0  0  0  0  0  0  0  0  0  0
    1.8067    3.4399   -1.9125 C   0  0  0  0  0  0  0  0  0  0  0  0
    1.5068    1.5957    0.3241 H   0  0  0  0  0  0  0  0  0  0  0  0
    2.3602    1.4341   -2.4884 H   0  0  0  0  0  0  0  0  0  0  0  0
    1.7560    4.0678   -1.0154 H   0  0  0  0  0  0  0  0  0  0  0  0
    2.4632    3.9421   -2.6307 H   0  0  0  0  0  0  0  0  0  0  0  0
    0.8008    3.3947   -2.3437 H   0  0  0  0  0  0  0  0  0  0  0  0
    4.6980    2.3148   -1.8831 N   0  0  0  0  0  0  0  0  0  0  0  0
    6.0932    2.4236   -1.5261 C   0  0  0  0  0  0  0  0  0  0  0  0
    4.4566    2.3542   -2.8690 H   0  0  0  0  0  0  0  0  0  0  0  0
    6.3510    3.4815   -1.3704 H   0  0  0  0  0  0  0  0  0  0  0  0
    6.2795    1.8607   -0.5996 H   0  0  0  0  0  0  0  0  0  0  0  0
    6.7122    2.0109   -2.3365 H   0  0  0  0  0  0  0  0  0  0  0  0
  1  3  1  0  0  0  0
  1  7  1  0  0  0  0
  1  2  2  0  0  0  0
 35 36  1  0  0  0  0
 36 44  1  0  0  0  0
 36 37  2  0  0  0  0
  8  9  1  0  0  0  0
  9 17  1  0  0  0  0
  9 10  2  0  0  0  0
 18 19  1  0  0  0  0
 19 34  1  0  0  0  0
 19 20  2  0  0  0  0
 35 38  1  0  0  0  0
  8 11  1  0  0  0  0
 44 45  1  0  0  0  0
 23 24  1  0  0  0  0
 21 22  1  0  0  0  0
 18 21  1  0  0  0  0
 22 23  1  0  0  0  0
 34 35  1  0  0  0  0
  7  8  1  0  0  0  0
 17 18  1  0  0  0  0
  3  4  1  0  0  0  0
  3  5  1  0  0  0  0
  3  6  1  0  0  0  0
 38 41  1  0  0  0  0
 38 42  1  0  0  0  0
 38 43  1  0  0  0  0
 11 14  1  0  0  0  0
 11 15  1  0  0  0  0
 11 16  1  0  0  0  0
 45 47  1  0  0  0  0
 45 48  1  0  0  0  0
 45 49  1  0  0  0  0
 24 31  1  0  0  0  0
 24 32  1  0  0  0  0
 24 33  1  0  0  0  0
 21 27  1  0  0  0  0
 21 28  1  0  0  0  0
 22 29  1  0  0  0  0
 22 30  1  0  0  0  0
 35 40  1  0  0  0  0
  8 13  1  0  0  0  0
 18 26  1  0  0  0  0
 44 46  1  0  0  0  0
  7 12  1  0  0  0  0
 34 39  1  0  0  0  0
 17 25  1  0  0  0  0
M  END
$$$$

  -OEChem-05262214473D

 49 48  0     1  0  0  0  0  0999 V2000
   -0.0561   -5.3799    2.6949 C   0  0  0  0  0  0  0  0  0  0  0  0
    0.7325   -5.0736    3.5815 O   0  0  0  0  0  0  0  0  0  0  0  0
   -1.0067   -6.5099    2.9135 C   0  0  0  0  0  0  0  0  0  0  0  0
   -0.5910   -7.4777    2.5899 H   0  0  0  0  0  0  0  0  0  0  0  0
   -1.2629   -6.6440    3.9767 H   0  0  0  0  0  0  0  0  0  0  0  0
   -1.9729   -6.4206    2.3918 H   0  0  0  0  0  0  0  0  0  0  0  0
   -0.1735   -4.7694    1.4571 N   0  0  0  0  0  0  0  0  0  0  0  0
    0.6439   -3.6603    1.0409 C   0  0  2  0  0  0  0  0  0  0  0  0
   -0.2788   -2.5625    0.5280 C   0  0  0  0  0  0  0  0  0  0  0  0
   -1.4197   -2.7791    0.1251 O   0  0  0  0  0  0  0  0  0  0  0  0
    1.6395   -4.0779   -0.0301 C   0  0  0  0  0  0  0  0  0  0  0  0
   -0.8741   -5.1235    0.8083 H   0  0  0  0  0  0  0  0  0  0  0  0
    1.1738   -3.3062    1.9318 H   0  0  0  0  0  0  0  0  0  0  0  0
    1.1270   -4.4358   -0.9305 H   0  0  0  0  0  0  0  0  0  0  0  0
    2.2797   -3.2400   -0.3251 H   0  0  0  0  0  0  0  0  0  0  0  0
    2.2827   -4.8880    0.3303 H   0  0  0  0  0  0  0  0  0  0  0  0
    0.3351   -1.3153    0.5316 N   0  0  0  0  0  0  0  0  0  0  0  0
   -0.3268   -0.1184    0.0807 C   0  0  2  0  0  0  0  0  0  0  0  0
    0.4625    0.4694   -1.0851 C   0  0  0  0  0  0  0  0  0  0  0  0
    0.1042    0.3638   -2.2563 O   0  0  0  0  0  0  0  0  0  0  0  0
   -0.5434    0.8872    1.2199 C   0  0  0  0  0  0  0  0  0  0  0  0
   -1.5164    0.3973    2.2949 C   0  0  0  0  0  0  0  0  0  0  0  0
   -3.1585    0.0930    1.5773 S   0  0  0  0  0  0  0  0  0  0  0  0
   -3.6103    1.8068    1.2250 C   0  0  0  0  0  0  0  0  0  0  0  0
    1.2790   -1.2290    0.9021 H   0  0  0  0  0  0  0  0  0  0  0  0
   -1.3032   -0.4420   -0.3000 H   0  0  0  0  0  0  0  0  0  0  0  0
   -0.9208    1.8235    0.7873 H   0  0  0  0  0  0  0  0  0  0  0  0
    0.4248    1.1171    1.6829 H   0  0  0  0  0  0  0  0  0  0  0  0
   -1.6302    1.1410    3.0892 H   0  0  0  0  0  0  0  0  0  0  0  0
   -1.1665   -0.5352    2.7476 H   0  0  0  0  0  0  0  0  0  0  0  0
   -4.6039    1.8437    0.7718 H   0  0  0  0  0  0  0  0  0  0  0  0
   -2.8868    2.2468    0.5341 H   0  0  0  0  0  0  0  0  0  0  0  0
   -3.6182    2.3865    2.1513 H   0  0  0  0  0  0  0  0  0  0  0  0
    1.6279    1.0957   -0.6673 N   0  0  0  0  0  0  0  0  0  0  0  0
    2.5500    1.7176   -1.5884 C   0  0  2  0  0  0  0  0  0  0  0  0
    3.9649    1.4232   -1.1081 C   0  0  0  0  0  0  0  0  0  0  0  0
    4.2310    1.1311    0.0559 O   0  0  0  0  0  0  0  0  0  0  0  0
    2.3095    3.2161   -1.6849 C   0  0  0  0  0  0  0  0  0  0  0  0
    1.8327    1.1607    0.3255 H   0  0  0  0  0  0  0  0  0  0  0  0
    2.3892    1.2456   -2.5638 H   0  0  0  0  0  0  0  0  0  0  0  0
    2.4658    3.7063   -0.7171 H   0  0  0  0  0  0  0  0  0  0  0  0
    2.9904    3.6817   -2.4050 H   0  0  0  0  0  0  0  0  0  0  0  0
    1.2822    3.4264   -2.0018 H   0  0  0  0  0  0  0  0  0  0  0  0
    4.9010    1.5672   -2.1226 N   0  0  0  0  0  0  0  0  0  0  0  0
    6.3145    1.3549   -1.9151 C   0  0  0  0  0  0  0  0  0  0  0  0
    4.5886    1.7935   -3.0623 H   0  0  0  0  0  0  0  0  0  0  0  0
    6.7957    2.3106   -1.6597 H   0  0  0  0  0  0  0  0  0  0  0  0
    6.4608    0.6395   -1.0925 H   0  0  0  0  0  0  0  0  0  0  0  0
    6.7637    0.9527   -2.8351 H   0  0  0  0  0  0  0  0  0  0  0  0
  1  3  1  0  0  0  0
  1  7  1  0  0  0  0
  1  2  2  0  0  0  0
 35 36  1  0  0  0  0
 36 44  1  0  0  0  0
 36 37  2  0  0  0  0
  8  9  1  0  0  0  0
  9 17  1  0  0  0  0
  9 10  2  0  0  0  0
 18 19  1  0  0  0  0
 19 34  1  0  0  0  0
 19 20  2  0  0  0  0
 35 38  1  0  0  0  0
  8 11  1  0  0  0  0
 44 45  1  0  0  0  0
 23 24  1  0  0  0  0
 21 22  1  0  0  0  0
 18 21  1  0  0  0  0
 22 23  1  0  0  0  0
 34 35  1  0  0  0  0
  7  8  1  0  0  0  0
 17 18  1  0  0  0  0
  3  4  1  0  0  0  0
  3  5  1  0  0  0  0
  3  6  1  0  0  0  0
 38 41  1  0  0  0  0
 38 42  1  0  0  0  0
 38 43  1  0  0  0  0
 11 14  1  0  0  0  0
 11 15  1  0  0  0  0
 11 16  1  0  0  0  0
 45 47  1  0  0  0  0
 45 48  1  0  0  0  0
 45 49  1  0  0  0  0
 24 31  1  0  0  0  0
 24 32  1  0  0  0  0
 24 33  1  0  0  0  0
 21 27  1  0  0  0  0
 21 28  1  0  0  0  0
 22 29  1  0  0  0  0
 22 30  1  0  0  0  0
 35 40  1  0  0  0  0
  8 13  1  0  0  0  0
 18 26  1  0  0  0  0
 44 46  1  0  0  0  0
  7 12  1  0  0  0  0
 34 39  1  0  0  0  0
 17 25  1  0  0  0  0
M  END
$$$$

  -OEChem-05262214473D

 49 48  0     1  0  0  0  0  0999 V2000
   -0.0561   -5.3799    2.6949 C   0  0  0  0  0  0  0  0  0  0  0  0
    0.7325   -5.0736    3.5815 O   0  0  0  0  0  0  0  0  0  0  0  0
   -1.0067   -6.5099    2.9135 C   0  0  0  0  0  0  0  0  0  0  0  0
   -0.5910   -7.4777    2.5899 H   0  0  0  0  0  0  0  0  0  0  0  0
   -1.2629   -6.6440    3.9767 H   0  0  0  0  0  0  0  0  0  0  0  0
   -1.9729   -6.4206    2.3918 H   0  0  0  0  0  0  0  0  0  0  0  0
   -0.1735   -4.7694    1.4571 N   0  0  0  0  0  0  0  0  0  0  0  0
    0.6439   -3.6603    1.0409 C   0  0  2  0  0  0  0  0  0  0  0  0
   -0.2788   -2.5625    0.5280 C   0  0  0  0  0  0  0  0  0  0  0  0
   -1.4197   -2.7791    0.1251 O   0  0  0  0  0  0  0  0  0  0  0  0
    1.6395   -4.0779   -0.0301 C   0  0  0  0  0  0  0  0  0  0  0  0
   -0.8741   -5.1235    0.8083 H   0  0  0  0  0  0  0  0  0  0  0  0
    1.1738   -3.3062    1.9318 H   0  0  0  0  0  0  0  0  0  0  0  0
    1.1270   -4.4358   -0.9305 H   0  0  0  0  0  0  0  0  0  0  0  0
    2.2797   -3.2400   -0.3251 H   0  0  0  0  0  0  0  0  0  0  0  0
    2.2827   -4.8880    0.3303 H   0  0  0  0  0  0  0  0  0  0  0  0
    0.3351   -1.3153    0.5316 N   0  0  0  0  0  0  0  0  0  0  0  0
   -0.3268   -0.1184    0.0807 C   0  0  2  0  0  0  0  0  0  0  0  0
    0.4625    0.4694   -1.0851 C   0  0  0  0  0  0  0  0  0  0  0  0
   -0.0095    0.6039   -2.2122 O   0  0  0  0  0  0  0  0  0  0  0  0
   -0.5434    0.8872    1.2199 C   0  0  0  0  0  0  0  0  0  0  0  0
   -1.5164    0.3973    2.2949 C   0  0  0  0  0  0  0  0  0  0  0  0
   -3.1585    0.0930    1.5773 S   0  0  0  0  0  0  0  0  0  0  0  0
   -3.6103    1.8068    1.2250 C   0  0  0  0  0  0  0  0  0  0  0  0
    1.2790   -1.2290    0.9021 H   0  0  0  0  0  0  0  0  0  0  0  0
   -1.3032   -0.4420   -0.3000 H   0  0  0  0  0  0  0  0  0  0  0  0
   -0.9208    1.8235    0.7873 H   0  0  0  0  0  0  0  0  0  0  0  0
    0.4248    1.1171    1.6829 H   0  0  0  0  0  0  0  0  0  0  0  0
   -1.6302    1.1410    3.0892 H   0  0  0  0  0  0  0  0  0  0  0  0
   -1.1665   -0.5352    2.7476 H   0  0  0  0  0  0  0  0  0  0  0  0
   -4.6039    1.8437    0.7718 H   0  0  0  0  0  0  0  0  0  0  0  0
   -2.8868    2.2468    0.5341 H   0  0  0  0  0  0  0  0  0  0  0  0
   -3.6182    2.3865    2.1513 H   0  0  0  0  0  0  0  0  0  0  0  0
    1.7630    0.7948   -0.7275 N   0  0  0  0  0  0  0  0  0  0  0  0
    2.7098    1.3552   -1.6629 C   0  0  2  0  0  0  0  0  0  0  0  0
    4.0707    0.7299   -1.3860 C   0  0  0  0  0  0  0  0  0  0  0  0
    4.3708    0.2280   -0.3048 O   0  0  0  0  0  0  0  0  0  0  0  0
    2.7735    2.8700   -1.5452 C   0  0  0  0  0  0  0  0  0  0  0  0
    2.0615    0.6760    0.2360 H   0  0  0  0  0  0  0  0  0  0  0  0
    2.3724    1.0680   -2.6648 H   0  0  0  0  0  0  0  0  0  0  0  0
    3.1098    3.1768   -0.5481 H   0  0  0  0  0  0  0  0  0  0  0  0
    3.4707    3.2957   -2.2745 H   0  0  0  0  0  0  0  0  0  0  0  0
    1.7876    3.3159   -1.7153 H   0  0  0  0  0  0  0  0  0  0  0  0
    4.9253    0.8370   -2.4743 N   0  0  0  0  0  0  0  0  0  0  0  0
    6.2780    0.3311   -2.4560 C   0  0  0  0  0  0  0  0  0  0  0  0
    4.5860    1.2516   -3.3372 H   0  0  0  0  0  0  0  0  0  0  0  0
    6.9647    1.1303   -2.1403 H   0  0  0  0  0  0  0  0  0  0  0  0
    6.3453   -0.5100   -1.7502 H   0  0  0  0  0  0  0  0  0  0  0  0
    6.5544   -0.0128   -3.4636 H   0  0  0  0  0  0  0  0  0  0  0  0
  1  3  1  0  0  0  0
  1  7  1  0  0  0  0
  1  2  2  0  0  0  0
 35 36  1  0  0  0  0
 36 44  1  0  0  0  0
 36 37  2  0  0  0  0
  8  9  1  0  0  0  0
  9 17  1  0  0  0  0
  9 10  2  0  0  0  0
 18 19  1  0  0  0  0
 19 34  1  0  0  0  0
 19 20  2  0  0  0  0
 35 38  1  0  0  0  0
  8 11  1  0  0  0  0
 44 45  1  0  0  0  0
 23 24  1  0  0  0  0
 21 22  1  0  0  0  0
 18 21  1  0  0  0  0
 22 23  1  0  0  0  0
 34 35  1  0  0  0  0
  7  8  1  0  0  0  0
 17 18  1  0  0  0  0
  3  4  1  0  0  0  0
  3  5  1  0  0  0  0
  3  6  1  0  0  0  0
 38 41  1  0  0  0  0
 38 42  1  0  0  0  0
 38 43  1  0  0  0  0
 11 14  1  0  0  0  0
 11 15  1  0  0  0  0
 11 16  1  0  0  0  0
 45 47  1  0  0  0  0
 45 48  1  0  0  0  0
 45 49  1  0  0  0  0
 24 31  1  0  0  0  0
 24 32  1  0  0  0  0
 24 33  1  0  0  0  0
 21 27  1  0  0  0  0
 21 28  1  0  0  0  0
 22 29  1  0  0  0  0
 22 30  1  0  0  0  0
 35 40  1  0  0  0  0
  8 13  1  0  0  0  0
 18 26  1  0  0  0  0
 44 46  1  0  0  0  0
  7 12  1  0  0  0  0
 34 39  1  0  0  0  0
 17 25  1  0  0  0  0
M  END
$$$$

  -OEChem-05262214473D

 49 48  0     1  0  0  0  0  0999 V2000
   -0.0561   -5.3799    2.6949 C   0  0  0  0  0  0  0  0  0  0  0  0
    0.7325   -5.0736    3.5815 O   0  0  0  0  0  0  0  0  0  0  0  0
   -1.0067   -6.5099    2.9135 C   0  0  0  0  0  0  0  0  0  0  0  0
   -0.5910   -7.4777    2.5899 H   0  0  0  0  0  0  0  0  0  0  0  0
   -1.2629   -6.6440    3.9767 H   0  0  0  0  0  0  0  0  0  0  0  0
   -1.9729   -6.4206    2.3918 H   0  0  0  0  0  0  0  0  0  0  0  0
   -0.1735   -4.7694    1.4571 N   0  0  0  0  0  0  0  0  0  0  0  0
    0.6439   -3.6603    1.0409 C   0  0  2  0  0  0  0  0  0  0  0  0
   -0.2788   -2.5625    0.5280 C   0  0  0  0  0  0  0  0  0  0  0  0
   -1.4197   -2.7791    0.1251 O   0  0  0  0  0  0  0  0  0  0  0  0
    1.6395   -4.0779   -0.0301 C   0  0  0  0  0  0  0  0  0  0  0  0
   -0.8741   -5.1235    0.8083 H   0  0  0  0  0  0  0  0  0  0  0  0
    1.1738   -3.3062    1.9318 H   0  0  0  0  0  0  0  0  0  0  0  0
    1.1270   -4.4358   -0.9305 H   0  0  0  0  0  0  0  0  0  0  0  0
    2.2797   -3.2400   -0.3251 H   0  0  0  0  0  0  0  0  0  0  0  0
    2.2827   -4.8880    0.3303 H   0  0  0  0  0  0  0  0  0  0  0  0
    0.3351   -1.3153    0.5316 N   0  0  0  0  0  0  0  0  0  0  0  0
   -0.3268   -0.1184    0.0807 C   0  0  2  0  0  0  0  0  0  0  0  0
    0.4625    0.4694   -1.0851 C   0  0  0  0  0  0  0  0  0  0  0  0
   -0.0674    0.8524   -2.1261 O   0  0  0  0  0  0  0  0  0  0  0  0
   -0.5434    0.8872    1.2199 C   0  0  0  0  0  0  0  0  0  0  0  0
   -1.5164    0.3973    2.2949 C   0  0  0  0  0  0  0  0  0  0  0  0
   -3.1585    0.0930    1.5773 S   0  0  0  0  0  0  0  0  0  0  0  0
   -3.6103    1.8068    1.2250 C   0  0  0  0  0  0  0  0  0  0  0  0
    1.2790   -1.2290    0.9021 H   0  0  0  0  0  0  0  0  0  0  0  0
   -1.3032   -0.4420   -0.3000 H   0  0  0  0  0  0  0  0  0  0  0  0
   -0.9208    1.8235    0.7873 H   0  0  0  0  0  0  0  0  0  0  0  0
    0.4248    1.1171    1.6829 H   0  0  0  0  0  0  0  0  0  0  0  0
   -1.6302    1.1410    3.0892 H   0  0  0  0  0  0  0  0  0  0  0  0
   -1.1665   -0.5352    2.7476 H   0  0  0  0  0  0  0  0  0  0  0  0
   -4.6039    1.8437    0.7718 H   0  0  0  0  0  0  0  0  0  0  0  0
   -2.8868    2.2468    0.5341 H   0  0  0  0  0  0  0  0  0  0  0  0
   -3.6182    2.3865    2.1513 H   0  0  0  0  0  0  0  0  0  0  0  0
    1.8279    0.4855   -0.8395 N   0  0  0  0  0  0  0  0  0  0  0  0
    2.7851    0.9834   -1.7994 C   0  0  2  0  0  0  0  0  0  0  0  0
    4.0080    0.0766   -1.7579 C   0  0  0  0  0  0  0  0  0  0  0  0
    4.2911   -0.6237   -0.7881 O   0  0  0  0  0  0  0  0  0  0  0  0
    3.1673    2.4252   -1.5029 C   0  0  0  0  0  0  0  0  0  0  0  0
    2.1778    0.1744    0.0619 H   0  0  0  0  0  0  0  0  0  0  0  0
    2.3109    0.9132   -2.7844 H   0  0  0  0  0  0  0  0  0  0  0  0
    3.6439    2.5153   -0.5199 H   0  0  0  0  0  0  0  0  0  0  0  0
    3.8712    2.8103   -2.2480 H   0  0  0  0  0  0  0  0  0  0  0  0
    2.2825    3.0710   -1.5038 H   0  0  0  0  0  0  0  0  0  0  0  0
    4.7694    0.1739   -2.9142 N   0  0  0  0  0  0  0  0  0  0  0  0
    5.9864   -0.5783   -3.1119 C   0  0  0  0  0  0  0  0  0  0  0  0
    4.4489    0.7655   -3.6751 H   0  0  0  0  0  0  0  0  0  0  0  0
    6.8467    0.0212   -2.7794 H   0  0  0  0  0  0  0  0  0  0  0  0
    5.9408   -1.5093   -2.5279 H   0  0  0  0  0  0  0  0  0  0  0  0
    6.0986   -0.8200   -4.1791 H   0  0  0  0  0  0  0  0  0  0  0  0
  1  3  1  0  0  0  0
  1  7  1  0  0  0  0
  1  2  2  0  0  0  0
 35 36  1  0  0  0  0
 36 44  1  0  0  0  0
 36 37  2  0  0  0  0
  8  9  1  0  0  0  0
  9 17  1  0  0  0  0
  9 10  2  0  0  0  0
 18 19  1  0  0  0  0
 19 34  1  0  0  0  0
 19 20  2  0  0  0  0
 35 38  1  0  0  0  0
  8 11  1  0  0  0  0
 44 45  1  0  0  0  0
 23 24  1  0  0  0  0
 21 22  1  0  0  0  0
 18 21  1  0  0  0  0
 22 23  1  0  0  0  0
 34 35  1  0  0  0  0
  7  8  1  0  0  0  0
 17 18  1  0  0  0  0
  3  4  1  0  0  0  0
  3  5  1  0  0  0  0
  3  6  1  0  0  0  0
 38 41  1  0  0  0  0
 38 42  1  0  0  0  0
 38 43  1  0  0  0  0
 11 14  1  0  0  0  0
 11 15  1  0  0  0  0
 11 16  1  0  0  0  0
 45 47  1  0  0  0  0
 45 48  1  0  0  0  0
 45 49  1  0  0  0  0
 24 31  1  0  0  0  0
 24 32  1  0  0  0  0
 24 33  1  0  0  0  0
 21 27  1  0  0  0  0
 21 28  1  0  0  0  0
 22 29  1  0  0  0  0
 22 30  1  0  0  0  0
 35 40  1  0  0  0  0
  8 13  1  0  0  0  0
 18 26  1  0  0  0  0
 44 46  1  0  0  0  0
  7 12  1  0  0  0  0
 34 39  1  0  0  0  0
 17 25  1  0  0  0  0
M  END
$$$$

  -OEChem-05262214473D

 49 48  0     1  0  0  0  0  0999 V2000
   -0.0561   -5.3799    2.6949 C   0  0  0  0  0  0  0  0  0  0  0  0
    0.7325   -5.0736    3.5815 O   0  0  0  0  0  0  0  0  0  0  0  0
   -1.0067   -6.5099    2.9135 C   0  0  0  0  0  0  0  0  0  0  0  0
   -0.5910   -7.4777    2.5899 H   0  0  0  0  0  0  0  0  0  0  0  0
   -1.2629   -6.6440    3.9767 H   0  0  0  0  0  0  0  0  0  0  0  0
   -1.9729   -6.4206    2.3918 H   0  0  0  0  0  0  0  0  0  0  0  0
   -0.1735   -4.7694    1.4571 N   0  0  0  0  0  0  0  0  0  0  0  0
    0.6439   -3.6603    1.0409 C   0  0  2  0  0  0  0  0  0  0  0  0
   -0.2788   -2.5625    0.5280 C   0  0  0  0  0  0  0  0  0  0  0  0
   -1.4197   -2.7791    0.1251 O   0  0  0  0  0  0  0  0  0  0  0  0
    1.6395   -4.0779   -0.0301 C   0  0  0  0  0  0  0  0  0  0  0  0
   -0.8741   -5.1235    0.8083 H   0  0  0  0  0  0  0  0  0  0  0  0
    1.1738   -3.3062    1.9318 H   0  0  0  0  0  0  0  0  0  0  0  0
    1.1270   -4.4358   -0.9305 H   0  0  0  0  0  0  0  0  0  0  0  0
    2.2797   -3.2400   -0.3251 H   0  0  0  0  0  0  0  0  0  0  0  0
    2.2827   -4.8880    0.3303 H   0  0  0  0  0  0  0  0  0  0  0  0
    0.3351   -1.3153    0.5316 N   0  0  0  0  0  0  0  0  0  0  0  0
   -0.3268   -0.1184    0.0807 C   0  0  2  0  0  0  0  0  0  0  0  0
    0.4625    0.4694   -1.0851 C   0  0  0  0  0  0  0  0  0  0  0  0
   -0.0656    1.0923   -2.0039 O   0  0  0  0  0  0  0  0  0  0  0  0
   -0.5434    0.8872    1.2199 C   0  0  0  0  0  0  0  0  0  0  0  0
   -1.5164    0.3973    2.2949 C   0  0  0  0  0  0  0  0  0  0  0  0
   -3.1585    0.0930    1.5773 S   0  0  0  0  0  0  0  0  0  0  0  0
   -3.6103    1.8068    1.2250 C   0  0  0  0  0  0  0  0  0  0  0  0
    1.2790   -1.2290    0.9021 H   0  0  0  0  0  0  0  0  0  0  0  0
   -1.3032   -0.4420   -0.3000 H   0  0  0  0  0  0  0  0  0  0  0  0
   -0.9208    1.8235    0.7873 H   0  0  0  0  0  0  0  0  0  0  0  0
    0.4248    1.1171    1.6829 H   0  0  0  0  0  0  0  0  0  0  0  0
   -1.6302    1.1410    3.0892 H   0  0  0  0  0  0  0  0  0  0  0  0
   -1.1665   -0.5352    2.7476 H   0  0  0  0  0  0  0  0  0  0  0  0
   -4.6039    1.8437    0.7718 H   0  0  0  0  0  0  0  0  0  0  0  0
   -2.8868    2.2468    0.5341 H   0  0  0  0  0  0  0  0  0  0  0  0
   -3.6182    2.3865    2.1513 H   0  0  0  0  0  0  0  0  0  0  0  0
    1.8184    0.1889   -0.9955 N   0  0  0  0  0  0  0  0  0  0  0  0
    2.7707    0.6277   -1.9885 C   0  0  2  0  0  0  0  0  0  0  0  0
    3.7811   -0.4923   -2.1983 C   0  0  0  0  0  0  0  0  0  0  0  0
    3.9976   -1.3660   -1.3611 O   0  0  0  0  0  0  0  0  0  0  0  0
    3.4638    1.9120   -1.5608 C   0  0  0  0  0  0  0  0  0  0  0  0
    2.1736   -0.3097   -0.1850 H   0  0  0  0  0  0  0  0  0  0  0  0
    2.2091    0.7919   -2.9145 H   0  0  0  0  0  0  0  0  0  0  0  0
    4.0317    1.7670   -0.6346 H   0  0  0  0  0  0  0  0  0  0  0  0
    4.1647    2.2588   -2.3274 H   0  0  0  0  0  0  0  0  0  0  0  0
    2.7332    2.7081   -1.3816 H   0  0  0  0  0  0  0  0  0  0  0  0
    4.4437   -0.3768   -3.4123 N   0  0  0  0  0  0  0  0  0  0  0  0
    5.4594   -1.3111   -3.8381 C   0  0  0  0  0  0  0  0  0  0  0  0
    4.1867    0.3684   -4.0529 H   0  0  0  0  0  0  0  0  0  0  0  0
    6.4496   -0.9412   -3.5335 H   0  0  0  0  0  0  0  0  0  0  0  0
    5.2749   -2.2905   -3.3726 H   0  0  0  0  0  0  0  0  0  0  0  0
    5.4274   -1.4136   -4.9329 H   0  0  0  0  0  0  0  0  0  0  0  0
  1  3  1  0  0  0  0
  1  7  1  0  0  0  0
  1  2  2  0  0  0  0
 35 36  1  0  0  0  0
 36 44  1  0  0  0  0
 36 37  2  0  0  0  0
  8  9  1  0  0  0  0
  9 17  1  0  0  0  0
  9 10  2  0  0  0  0
 18 19  1  0  0  0  0
 19 34  1  0  0  0  0
 19 20  2  0  0  0  0
 35 38  1  0  0  0  0
  8 11  1  0  0  0  0
 44 45  1  0  0  0  0
 23 24  1  0  0  0  0
 21 22  1  0  0  0  0
 18 21  1  0  0  0  0
 22 23  1  0  0  0  0
 34 35  1  0  0  0  0
  7  8  1  0  0  0  0
 17 18  1  0  0  0  0
  3  4  1  0  0  0  0
  3  5  1  0  0  0  0
  3  6  1  0  0  0  0
 38 41  1  0  0  0  0
 38 42  1  0  0  0  0
 38 43  1  0  0  0  0
 11 14  1  0  0  0  0
 11 15  1  0  0  0  0
 11 16  1  0  0  0  0
 45 47  1  0  0  0  0
 45 48  1  0  0  0  0
 45 49  1  0  0  0  0
 24 31  1  0  0  0  0
 24 32  1  0  0  0  0
 24 33  1  0  0  0  0
 21 27  1  0  0  0  0
 21 28  1  0  0  0  0
 22 29  1  0  0  0  0
 22 30  1  0  0  0  0
 35 40  1  0  0  0  0
  8 13  1  0  0  0  0
 18 26  1  0  0  0  0
 44 46  1  0  0  0  0
  7 12  1  0  0  0  0
 34 39  1  0  0  0  0
 17 25  1  0  0  0  0
M  END
$$$$

  -OEChem-05262214473D

 49 48  0     1  0  0  0  0  0999 V2000
   -0.0561   -5.3799    2.6949 C   0  0  0  0  0  0  0  0  0  0  0  0
    0.7325   -5.0736    3.5815 O   0  0  0  0  0  0  0  0  0  0  0  0
   -1.0067   -6.5099    2.9135 C   0  0  0  0  0  0  0  0  0  0  0  0
   -0.5910   -7.4777    2.5899 H   0  0  0  0  0  0  0  0  0  0  0  0
   -1.2629   -6.6440    3.9767 H   0  0  0  0  0  0  0  0  0  0  0  0
   -1.9729   -6.4206    2.3918 H   0  0  0  0  0  0  0  0  0  0  0  0
   -0.1735   -4.7694    1.4571 N   0  0  0  0  0  0  0  0  0  0  0  0
    0.6439   -3.6603    1.0409 C   0  0  2  0  0  0  0  0  0  0  0  0
   -0.2788   -2.5625    0.5280 C   0  0  0  0  0  0  0  0  0  0  0  0
   -1.4197   -2.7791    0.1251 O   0  0  0  0  0  0  0  0  0  0  0  0
    1.6395   -4.0779   -0.0301 C   0  0  0  0  0  0  0  0  0  0  0  0
   -0.8741   -5.1235    0.8083 H   0  0  0  0  0  0  0  0  0  0  0  0
    1.1738   -3.3062    1.9318 H   0  0  0  0  0  0  0  0  0  0  0  0
    1.1270   -4.4358   -0.9305 H   0  0  0  0  0  0  0  0  0  0  0  0
    2.2797   -3.2400   -0.3251 H   0  0  0  0  0  0  0  0  0  0  0  0
    2.2827   -4.8880    0.3303 H   0  0  0  0  0  0  0  0  0  0  0  0
    0.3351   -1.3153    0.5316 N   0  0  0  0  0  0  0  0  0  0  0  0
   -0.3268   -0.1184    0.0807 C   0  0  2  0  0  0  0  0  0  0  0  0
    0.4625    0.4694   -1.0851 C   0  0  0  0  0  0  0  0  0  0  0  0
   -0.0042    1.3073   -1.8540 O   0  0  0  0  0  0  0  0  0  0  0  0
   -0.5434    0.8872    1.2199 C   0  0  0  0  0  0  0  0  0  0  0  0
   -1.5164    0.3973    2.2949 C   0  0  0  0  0  0  0  0  0  0  0  0
   -3.1585    0.0930    1.5773 S   0  0  0  0  0  0  0  0  0  0  0  0
   -3.6103    1.8068    1.2250 C   0  0  0  0  0  0  0  0  0  0  0  0
    1.2790   -1.2290    0.9021 H   0  0  0  0  0  0  0  0  0  0  0  0
   -1.3032   -0.4420   -0.3000 H   0  0  0  0  0  0  0  0  0  0  0  0
   -0.9208    1.8235    0.7873 H   0  0  0  0  0  0  0  0  0  0  0  0
    0.4248    1.1171    1.6829 H   0  0  0  0  0  0  0  0  0  0  0  0
   -1.6302    1.1410    3.0892 H   0  0  0  0  0  0  0  0  0  0  0  0
   -1.1665   -0.5352    2.7476 H   0  0  0  0  0  0  0  0  0  0  0  0
   -4.6039    1.8437    0.7718 H   0  0  0  0  0  0  0  0  0  0  0  0
   -2.8868    2.2468    0.5341 H   0  0  0  0  0  0  0  0  0  0  0  0
   -3.6182    2.3865    2.1513 H   0  0  0  0  0  0  0  0  0  0  0  0
    1.7349   -0.0748   -1.1850 N   0  0  0  0  0  0  0  0  0  0  0  0
    2.6676    0.3123   -2.2173 C   0  0  2  0  0  0  0  0  0  0  0  0
    3.4056   -0.9380   -2.6772 C   0  0  0  0  0  0  0  0  0  0  0  0
    3.5101   -1.9482   -1.9846 O   0  0  0  0  0  0  0  0  0  0  0  0
    3.6430    1.3654   -1.7151 C   0  0  0  0  0  0  0  0  0  0  0  0
    2.0492   -0.7434   -0.4880 H   0  0  0  0  0  0  0  0  0  0  0  0
    2.0737    0.7123   -3.0463 H   0  0  0  0  0  0  0  0  0  0  0  0
    4.2470    0.9829   -0.8842 H   0  0  0  0  0  0  0  0  0  0  0  0
    4.3312    1.6786   -2.5071 H   0  0  0  0  0  0  0  0  0  0  0  0
    3.1090    2.2522   -1.3571 H   0  0  0  0  0  0  0  0  0  0  0  0
    3.9706   -0.7776   -3.9347 N   0  0  0  0  0  0  0  0  0  0  0  0
    4.7331   -1.8175   -4.5852 C   0  0  0  0  0  0  0  0  0  0  0  0
    3.8171    0.0872   -4.4448 H   0  0  0  0  0  0  0  0  0  0  0  0
    5.8004   -1.6913   -4.3511 H   0  0  0  0  0  0  0  0  0  0  0  0
    4.3929   -2.8003   -4.2267 H   0  0  0  0  0  0  0  0  0  0  0  0
    4.5864   -1.7534   -5.6735 H   0  0  0  0  0  0  0  0  0  0  0  0
  1  3  1  0  0  0  0
  1  7  1  0  0  0  0
  1  2  2  0  0  0  0
 35 36  1  0  0  0  0
 36 44  1  0  0  0  0
 36 37  2  0  0  0  0
  8  9  1  0  0  0  0
  9 17  1  0  0  0  0
  9 10  2  0  0  0  0
 18 19  1  0  0  0  0
 19 34  1  0  0  0  0
 19 20  2  0  0  0  0
 35 38  1  0  0  0  0
  8 11  1  0  0  0  0
 44 45  1  0  0  0  0
 23 24  1  0  0  0  0
 21 22  1  0  0  0  0
 18 21  1  0  0  0  0
 22 23  1  0  0  0  0
 34 35  1  0  0  0  0
  7  8  1  0  0  0  0
 17 18  1  0  0  0  0
  3  4  1  0  0  0  0
  3  5  1  0  0  0  0
  3  6  1  0  0  0  0
 38 41  1  0  0  0  0
 38 42  1  0  0  0  0
 38 43  1  0  0  0  0
 11 14  1  0  0  0  0
 11 15  1  0  0  0  0
 11 16  1  0  0  0  0
 45 47  1  0  0  0  0
 45 48  1  0  0  0  0
 45 49  1  0  0  0  0
 24 31  1  0  0  0  0
 24 32  1  0  0  0  0
 24 33  1  0  0  0  0
 21 27  1  0  0  0  0
 21 28  1  0  0  0  0
 22 29  1  0  0  0  0
 22 30  1  0  0  0  0
 35 40  1  0  0  0  0
  8 13  1  0  0  0  0
 18 26  1  0  0  0  0
 44 46  1  0  0  0  0
  7 12  1  0  0  0  0
 34 39  1  0  0  0  0
 17 25  1  0  0  0  0
M  END
$$$$

  -OEChem-05262214473D

 49 48  0     1  0  0  0  0  0999 V2000
   -0.0561   -5.3799    2.6949 C   0  0  0  0  0  0  0  0  0  0  0  0
    0.7325   -5.0736    3.5815 O   0  0  0  0  0  0  0  0  0  0  0  0
   -1.0067   -6.5099    2.9135 C   0  0  0  0  0  0  0  0  0  0  0  0
   -0.5910   -7.4777    2.5899 H   0  0  0  0  0  0  0  0  0  0  0  0
   -1.2629   -6.6440    3.9767 H   0  0  0  0  0  0  0  0  0  0  0  0
   -1.9729   -6.4206    2.3918 H   0  0  0  0  0  0  0  0  0  0  0  0
   -0.1735   -4.7694    1.4571 N   0  0  0  0  0  0  0  0  0  0  0  0
    0.6439   -3.6603    1.0409 C   0  0  2  0  0  0  0  0  0  0  0  0
   -0.2788   -2.5625    0.5280 C   0  0  0  0  0  0  0  0  0  0  0  0
   -1.4197   -2.7791    0.1251 O   0  0  0  0  0  0  0  0  0  0  0  0
    1.6395   -4.0779   -0.0301 C   0  0  0  0  0  0  0  0  0  0  0  0
   -0.8741   -5.1235    0.8083 H   0  0  0  0  0  0  0  0  0  0  0  0
    1.1738   -3.3062    1.9318 H   0  0  0  0  0  0  0  0  0  0  0  0
    1.1270   -4.4358   -0.9305 H   0  0  0  0  0  0  0  0  0  0  0  0
    2.2797   -3.2400   -0.3251 H   0  0  0  0  0  0  0  0  0  0  0  0
    2.2827   -4.8880    0.3303 H   0  0  0  0  0  0  0  0  0  0  0  0
    0.3351   -1.3153    0.5316 N   0  0  0  0  0  0  0  0  0  0  0  0
   -0.3268   -0.1184    0.0807 C   0  0  2  0  0  0  0  0  0  0  0  0
    0.4625    0.4694   -1.0851 C   0  0  0  0  0  0  0  0  0  0  0  0
    0.1125    1.4828   -1.6865 O   0  0  0  0  0  0  0  0  0  0  0  0
   -0.5434    0.8872    1.2199 C   0  0  0  0  0  0  0  0  0  0  0  0
   -1.5164    0.3973    2.2949 C   0  0  0  0  0  0  0  0  0  0  0  0
   -3.1585    0.0930    1.5773 S   0  0  0  0  0  0  0  0  0  0  0  0
   -3.6103    1.8068    1.2250 C   0  0  0  0  0  0  0  0  0  0  0  0
    1.2790   -1.2290    0.9021 H   0  0  0  0  0  0  0  0  0  0  0  0
   -1.3032   -0.4420   -0.3000 H   0  0  0  0  0  0  0  0  0  0  0  0
   -0.9208    1.8235    0.7873 H   0  0  0  0  0  0  0  0  0  0  0  0
    0.4248    1.1171    1.6829 H   0  0  0  0  0  0  0  0  0  0  0  0
   -1.6302    1.1410    3.0892 H   0  0  0  0  0  0  0  0  0  0  0  0
   -1.1665   -0.5352    2.7476 H   0  0  0  0  0  0  0  0  0  0  0  0
   -4.6039    1.8437    0.7718 H   0  0  0  0  0  0  0  0  0  0  0  0
   -2.8868    2.2468    0.5341 H   0  0  0  0  0  0  0  0  0  0  0  0
   -3.6182    2.3865    2.1513 H   0  0  0  0  0  0  0  0  0  0  0  0
    1.5832   -0.2876   -1.3950 N   0  0  0  0  0  0  0  0  0  0  0  0
    2.4828    0.0587   -2.4703 C   0  0  2  0  0  0  0  0  0  0  0  0
    2.9069   -1.2301   -3.1621 C   0  0  0  0  0  0  0  0  0  0  0  0
    2.8620   -2.3306   -2.6163 O   0  0  0  0  0  0  0  0  0  0  0  0
    3.6926    0.8227   -1.9552 C   0  0  0  0  0  0  0  0  0  0  0  0
    1.8129   -1.0972   -0.8263 H   0  0  0  0  0  0  0  0  0  0  0  0
    1.9140    0.6798   -3.1708 H   0  0  0  0  0  0  0  0  0  0  0  0
    4.2749    0.2163   -1.2518 H   0  0  0  0  0  0  0  0  0  0  0  0
    4.3594    1.1093   -2.7751 H   0  0  0  0  0  0  0  0  0  0  0  0
    3.3842    1.7342   -1.4319 H   0  0  0  0  0  0  0  0  0  0  0  0
    3.3822   -1.0013   -4.4458 N   0  0  0  0  0  0  0  0  0  0  0  0
    3.8568   -2.0630   -5.3022 C   0  0  0  0  0  0  0  0  0  0  0  0
    3.3655   -0.0588   -4.8242 H   0  0  0  0  0  0  0  0  0  0  0  0
    4.9436   -2.1780   -5.1766 H   0  0  0  0  0  0  0  0  0  0  0  0
    3.3550   -3.0039   -5.0320 H   0  0  0  0  0  0  0  0  0  0  0  0
    3.6331   -1.8161   -6.3505 H   0  0  0  0  0  0  0  0  0  0  0  0
  1  3  1  0  0  0  0
  1  7  1  0  0  0  0
  1  2  2  0  0  0  0
 35 36  1  0  0  0  0
 36 44  1  0  0  0  0
 36 37  2  0  0  0  0
  8  9  1  0  0  0  0
  9 17  1  0  0  0  0
  9 10  2  0  0  0  0
 18 19  1  0  0  0  0
 19 34  1  0  0  0  0
 19 20  2  0  0  0  0
 35 38  1  0  0  0  0
  8 11  1  0  0  0  0
 44 45  1  0  0  0  0
 23 24  1  0  0  0  0
 21 22  1  0  0  0  0
 18 21  1  0  0  0  0
 22 23  1  0  0  0  0
 34 35  1  0  0  0  0
  7  8  1  0  0  0  0
 17 18  1  0  0  0  0
  3  4  1  0  0  0  0
  3  5  1  0  0  0  0
  3  6  1  0  0  0  0
 38 41  1  0  0  0  0
 38 42  1  0  0  0  0
 38 43  1  0  0  0  0
 11 14  1  0  0  0  0
 11 15  1  0  0  0  0
 11 16  1  0  0  0  0
 45 47  1  0  0  0  0
 45 48  1  0  0  0  0
 45 49  1  0  0  0  0
 24 31  1  0  0  0  0
 24 32  1  0  0  0  0
 24 33  1  0  0  0  0
 21 27  1  0  0  0  0
 21 28  1  0  0  0  0
 22 29  1  0  0  0  0
 22 30  1  0  0  0  0
 35 40  1  0  0  0  0
  8 13  1  0  0  0  0
 18 26  1  0  0  0  0
 44 46  1  0  0  0  0
  7 12  1  0  0  0  0
 34 39  1  0  0  0  0
 17 25  1  0  0  0  0
M  END
$$$$

  -OEChem-05262214473D

 49 48  0     1  0  0  0  0  0999 V2000
   -0.0561   -5.3799    2.6949 C   0  0  0  0  0  0  0  0  0  0  0  0
    0.7325   -5.0736    3.5815 O   0  0  0  0  0  0  0  0  0  0  0  0
   -1.0067   -6.5099    2.9135 C   0  0  0  0  0  0  0  0  0  0  0  0
   -0.5910   -7.4777    2.5899 H   0  0  0  0  0  0  0  0  0  0  0  0
   -1.2629   -6.6440    3.9767 H   0  0  0  0  0  0  0  0  0  0  0  0
   -1.9729   -6.4206    2.3918 H   0  0  0  0  0  0  0  0  0  0  0  0
   -0.1735   -4.7694    1.4571 N   0  0  0  0  0  0  0  0  0  0  0  0
    0.6439   -3.6603    1.0409 C   0  0  2  0  0  0  0  0  0  0  0  0
   -0.2788   -2.5625    0.5280 C   0  0  0  0  0  0  0  0  0  0  0  0
   -1.4197   -2.7791    0.1251 O   0  0  0  0  0  0  0  0  0  0  0  0
    1.6395   -4.0779   -0.0301 C   0  0  0  0  0  0  0  0  0  0  0  0
   -0.8741   -5.1235    0.8083 H   0  0  0  0  0  0  0  0  0  0  0  0
    1.1738   -3.3062    1.9318 H   0  0  0  0  0  0  0  0  0  0  0  0
    1.1270   -4.4358   -0.9305 H   0  0  0  0  0  0  0  0  0  0  0  0
    2.2797   -3.2400   -0.3251 H   0  0  0  0  0  0  0  0  0  0  0  0
    2.2827   -4.8880    0.3303 H   0  0  0  0  0  0  0  0  0  0  0  0
    0.3351   -1.3153    0.5316 N   0  0  0  0  0  0  0  0  0  0  0  0
   -0.3268   -0.1184    0.0807 C   0  0  2  0  0  0  0  0  0  0  0  0
    0.4625    0.4694   -1.0851 C   0  0  0  0  0  0  0  0  0  0  0  0
    0.2767    1.6068   -1.5128 O   0  0  0  0  0  0  0  0  0  0  0  0
   -0.5434    0.8872    1.2199 C   0  0  0  0  0  0  0  0  0  0  0  0
   -1.5164    0.3973    2.2949 C   0  0  0  0  0  0  0  0  0  0  0  0
   -3.1585    0.0930    1.5773 S   0  0  0  0  0  0  0  0  0  0  0  0
   -3.6103    1.8068    1.2250 C   0  0  0  0  0  0  0  0  0  0  0  0
    1.2790   -1.2290    0.9021 H   0  0  0  0  0  0  0  0  0  0  0  0
   -1.3032   -0.4420   -0.3000 H   0  0  0  0  0  0  0  0  0  0  0  0
   -0.9208    1.8235    0.7873 H   0  0  0  0  0  0  0  0  0  0  0  0
    0.4248    1.1171    1.6829 H   0  0  0  0  0  0  0  0  0  0  0  0
   -1.6302    1.1410    3.0892 H   0  0  0  0  0  0  0  0  0  0  0  0
   -1.1665   -0.5352    2.7476 H   0  0  0  0  0  0  0  0  0  0  0  0
   -4.6039    1.8437    0.7718 H   0  0  0  0  0  0  0  0  0  0  0  0
   -2.8868    2.2468    0.5341 H   0  0  0  0  0  0  0  0  0  0  0  0
   -3.6182    2.3865    2.1513 H   0  0  0  0  0  0  0  0  0  0  0  0
    1.3736   -0.4351   -1.6112 N   0  0  0  0  0  0  0  0  0  0  0  0
    2.2289   -0.1159   -2.7302 C   0  0  2  0  0  0  0  0  0  0  0  0
    2.3192   -1.3487   -3.6198 C   0  0  0  0  0  0  0  0  0  0  0  0
    2.0972   -2.4872   -3.2130 O   0  0  0  0  0  0  0  0  0  0  0  0
    3.6093    0.3207   -2.2647 C   0  0  0  0  0  0  0  0  0  0  0  0
    1.4811   -1.3469   -1.1768 H   0  0  0  0  0  0  0  0  0  0  0  0
    1.7410    0.6967   -3.2794 H   0  0  0  0  0  0  0  0  0  0  0  0
    4.1136   -0.4805   -1.7123 H   0  0  0  0  0  0  0  0  0  0  0  0
    4.2474    0.5897   -3.1129 H   0  0  0  0  0  0  0  0  0  0  0  0
    3.5401    1.1894   -1.6010 H   0  0  0  0  0  0  0  0  0  0  0  0
    2.7186   -1.0325   -4.9108 N   0  0  0  0  0  0  0  0  0  0  0  0
    2.8904   -2.0308   -5.9403 C   0  0  0  0  0  0  0  0  0  0  0  0
    2.8625   -0.0597   -5.1652 H   0  0  0  0  0  0  0  0  0  0  0  0
    3.9373   -2.3681   -5.9537 H   0  0  0  0  0  0  0  0  0  0  0  0
    2.2320   -2.8874   -5.7337 H   0  0  0  0  0  0  0  0  0  0  0  0
    2.6324   -1.5974   -6.9178 H   0  0  0  0  0  0  0  0  0  0  0  0
  1  3  1  0  0  0  0
  1  7  1  0  0  0  0
  1  2  2  0  0  0  0
 35 36  1  0  0  0  0
 36 44  1  0  0  0  0
 36 37  2  0  0  0  0
  8  9  1  0  0  0  0
  9 17  1  0  0  0  0
  9 10  2  0  0  0  0
 18 19  1  0  0  0  0
 19 34  1  0  0  0  0
 19 20  2  0  0  0  0
 35 38  1  0  0  0  0
  8 11  1  0  0  0  0
 44 45  1  0  0  0  0
 23 24  1  0  0  0  0
 21 22  1  0  0  0  0
 18 21  1  0  0  0  0
 22 23  1  0  0  0  0
 34 35  1  0  0  0  0
  7  8  1  0  0  0  0
 17 18  1  0  0  0  0
  3  4  1  0  0  0  0
  3  5  1  0  0  0  0
  3  6  1  0  0  0  0
 38 41  1  0  0  0  0
 38 42  1  0  0  0  0
 38 43  1  0  0  0  0
 11 14  1  0  0  0  0
 11 15  1  0  0  0  0
 11 16  1  0  0  0  0
 45 47  1  0  0  0  0
 45 48  1  0  0  0  0
 45 49  1  0  0  0  0
 24 31  1  0  0  0  0
 24 32  1  0  0  0  0
 24 33  1  0  0  0  0
 21 27  1  0  0  0  0
 21 28  1  0  0  0  0
 22 29  1  0  0  0  0
 22 30  1  0  0  0  0
 35 40  1  0  0  0  0
  8 13  1  0  0  0  0
 18 26  1  0  0  0  0
 44 46  1  0  0  0  0
  7 12  1  0  0  0  0
 34 39  1  0  0  0  0
 17 25  1  0  0  0  0
M  END
$$$$

  -OEChem-05262214473D

 49 48  0     1  0  0  0  0  0999 V2000
   -0.0561   -5.3799    2.6949 C   0  0  0  0  0  0  0  0  0  0  0  0
    0.7325   -5.0736    3.5815 O   0  0  0  0  0  0  0  0  0  0  0  0
   -1.0067   -6.5099    2.9135 C   0  0  0  0  0  0  0  0  0  0  0  0
   -0.5910   -7.4777    2.5899 H   0  0  0  0  0  0  0  0  0  0  0  0
   -1.2629   -6.6440    3.9767 H   0  0  0  0  0  0  0  0  0  0  0  0
   -1.9729   -6.4206    2.3918 H   0  0  0  0  0  0  0  0  0  0  0  0
   -0.1735   -4.7694    1.4571 N   0  0  0  0  0  0  0  0  0  0  0  0
    0.6439   -3.6603    1.0409 C   0  0  2  0  0  0  0  0  0  0  0  0
   -0.2788   -2.5625    0.5280 C   0  0  0  0  0  0  0  0  0  0  0  0
   -1.4197   -2.7791    0.1251 O   0  0  0  0  0  0  0  0  0  0  0  0
    1.6395   -4.0779   -0.0301 C   0  0  0  0  0  0  0  0  0  0  0  0
   -0.8741   -5.1235    0.8083 H   0  0  0  0  0  0  0  0  0  0  0  0
    1.1738   -3.3062    1.9318 H   0  0  0  0  0  0  0  0  0  0  0  0
    1.1270   -4.4358   -0.9305 H   0  0  0  0  0  0  0  0  0  0  0  0
    2.2797   -3.2400   -0.3251 H   0  0  0  0  0  0  0  0  0  0  0  0
    2.2827   -4.8880    0.3303 H   0  0  0  0  0  0  0  0  0  0  0  0
    0.3351   -1.3153    0.5316 N   0  0  0  0  0  0  0  0  0  0  0  0
   -0.3268   -0.1184    0.0807 C   0  0  2  0  0  0  0  0  0  0  0  0
    0.4625    0.4694   -1.0851 C   0  0  0  0  0  0  0  0  0  0  0  0
    0.4771    1.6708   -1.3448 O   0  0  0  0  0  0  0  0  0  0  0  0
   -0.5434    0.8872    1.2199 C   0  0  0  0  0  0  0  0  0  0  0  0
   -1.5164    0.3973    2.2949 C   0  0  0  0  0  0  0  0  0  0  0  0
   -3.1585    0.0930    1.5773 S   0  0  0  0  0  0  0  0  0  0  0  0
   -3.6103    1.8068    1.2250 C   0  0  0  0  0  0  0  0  0  0  0  0
    1.2790   -1.2290    0.9021 H   0  0  0  0  0  0  0  0  0  0  0  0
   -1.3032   -0.4420   -0.3000 H   0  0  0  0  0  0  0  0  0  0  0  0
   -0.9208    1.8235    0.7873 H   0  0  0  0  0  0  0  0  0  0  0  0
    0.4248    1.1171    1.6829 H   0  0  0  0  0  0  0  0  0  0  0  0
   -1.6302    1.1410    3.0892 H   0  0  0  0  0  0  0  0  0  0  0  0
   -1.1665   -0.5352    2.7476 H   0  0  0  0  0  0  0  0  0  0  0  0
   -4.6039    1.8437    0.7718 H   0  0  0  0  0  0  0  0  0  0  0  0
   -2.8868    2.2468    0.5341 H   0  0  0  0  0  0  0  0  0  0  0  0
   -3.6182    2.3865    2.1513 H   0  0  0  0  0  0  0  0  0  0  0  0
    1.1205   -0.5072   -1.8189 N   0  0  0  0  0  0  0  0  0  0  0  0
    1.9232   -0.1995   -2.9793 C   0  0  2  0  0  0  0  0  0  0  0  0
    1.6823   -1.2857   -4.0192 C   0  0  0  0  0  0  0  0  0  0  0  0
    1.2681   -2.4074   -3.7341 O   0  0  0  0  0  0  0  0  0  0  0  0
    3.3986   -0.1062   -2.6225 C   0  0  0  0  0  0  0  0  0  0  0  0
    1.0762   -1.4756   -1.5158 H   0  0  0  0  0  0  0  0  0  0  0  0
    1.5664    0.7618   -3.3649 H   0  0  0  0  0  0  0  0  0  0  0  0
    3.7741   -1.0600   -2.2343 H   0  0  0  0  0  0  0  0  0  0  0  0
    4.0027    0.1553   -3.4976 H   0  0  0  0  0  0  0  0  0  0  0  0
    3.5661    0.6550   -1.8528 H   0  0  0  0  0  0  0  0  0  0  0  0
    2.0252   -0.8692   -5.2980 N   0  0  0  0  0  0  0  0  0  0  0  0
    1.8996   -1.7231   -6.4560 C   0  0  0  0  0  0  0  0  0  0  0  0
    2.3425    0.0845   -5.4445 H   0  0  0  0  0  0  0  0  0  0  0  0
    2.8503   -2.2486   -6.6295 H   0  0  0  0  0  0  0  0  0  0  0  0
    1.1002   -2.4589   -6.2839 H   0  0  0  0  0  0  0  0  0  0  0  0
    1.6524   -1.1123   -7.3368 H   0  0  0  0  0  0  0  0  0  0  0  0
  1  3  1  0  0  0  0
  1  7  1  0  0  0  0
  1  2  2  0  0  0  0
 35 36  1  0  0  0  0
 36 44  1  0  0  0  0
 36 37  2  0  0  0  0
  8  9  1  0  0  0  0
  9 17  1  0  0  0  0
  9 10  2  0  0  0  0
 18 19  1  0  0  0  0
 19 34  1  0  0  0  0
 19 20  2  0  0  0  0
 35 38  1  0  0  0  0
  8 11  1  0  0  0  0
 44 45  1  0  0  0  0
 23 24  1  0  0  0  0
 21 22  1  0  0  0  0
 18 21  1  0  0  0  0
 22 23  1  0  0  0  0
 34 35  1  0  0  0  0
  7  8  1  0  0  0  0
 17 18  1  0  0  0  0
  3  4  1  0  0  0  0
  3  5  1  0  0  0  0
  3  6  1  0  0  0  0
 38 41  1  0  0  0  0
 38 42  1  0  0  0  0
 38 43  1  0  0  0  0
 11 14  1  0  0  0  0
 11 15  1  0  0  0  0
 11 16  1  0  0  0  0
 45 47  1  0  0  0  0
 45 48  1  0  0  0  0
 45 49  1  0  0  0  0
 24 31  1  0  0  0  0
 24 32  1  0  0  0  0
 24 33  1  0  0  0  0
 21 27  1  0  0  0  0
 21 28  1  0  0  0  0
 22 29  1  0  0  0  0
 22 30  1  0  0  0  0
 35 40  1  0  0  0  0
  8 13  1  0  0  0  0
 18 26  1  0  0  0  0
 44 46  1  0  0  0  0
  7 12  1  0  0  0  0
 34 39  1  0  0  0  0
 17 25  1  0  0  0  0
M  END
$$$$

  -OEChem-05262214473D

 49 48  0     1  0  0  0  0  0999 V2000
   -0.0561   -5.3799    2.6949 C   0  0  0  0  0  0  0  0  0  0  0  0
    0.7325   -5.0736    3.5815 O   0  0  0  0  0  0  0  0  0  0  0  0
   -1.0067   -6.5099    2.9135 C   0  0  0  0  0  0  0  0  0  0  0  0
   -0.5910   -7.4777    2.5899 H   0  0  0  0  0  0  0  0  0  0  0  0
   -1.2629   -6.6440    3.9767 H   0  0  0  0  0  0  0  0  0  0  0  0
   -1.9729   -6.4206    2.3918 H   0  0  0  0  0  0  0  0  0  0  0  0
   -0.1735   -4.7694    1.4571 N   0  0  0  0  0  0  0  0  0  0  0  0
    0.6439   -3.6603    1.0409 C   0  0  2  0  0  0  0  0  0  0  0  0
   -0.2788   -2.5625    0.5280 C   0  0  0  0  0  0  0  0  0  0  0  0
   -1.4197   -2.7791    0.1251 O   0  0  0  0  0  0  0  0  0  0  0  0
    1.6395   -4.0779   -0.0301 C   0  0  0  0  0  0  0  0  0  0  0  0
   -0.8741   -5.1235    0.8083 H   0  0  0  0  0  0  0  0  0  0  0  0
    1.1738   -3.3062    1.9318 H   0  0  0  0  0  0  0  0  0  0  0  0
    1.1270   -4.4358   -0.9305 H   0  0  0  0  0  0  0  0  0  0  0  0
    2.2797   -3.2400   -0.3251 H   0  0  0  0  0  0  0  0  0  0  0  0
    2.2827   -4.8880    0.3303 H   0  0  0  0  0  0  0  0  0  0  0  0
    0.3351   -1.3153    0.5316 N   0  0  0  0  0  0  0  0  0  0  0  0
   -0.3268   -0.1184    0.0807 C   0  0  2  0  0  0  0  0  0  0  0  0
    0.4625    0.4694   -1.0851 C   0  0  0  0  0  0  0  0  0  0  0  0
    0.7001    1.6706   -1.1940 O   0  0  0  0  0  0  0  0  0  0  0  0
   -0.5434    0.8872    1.2199 C   0  0  0  0  0  0  0  0  0  0  0  0
   -1.5164    0.3973    2.2949 C   0  0  0  0  0  0  0  0  0  0  0  0
   -3.1585    0.0930    1.5773 S   0  0  0  0  0  0  0  0  0  0  0  0
   -3.6103    1.8068    1.2250 C   0  0  0  0  0  0  0  0  0  0  0  0
    1.2790   -1.2290    0.9021 H   0  0  0  0  0  0  0  0  0  0  0  0
   -1.3032   -0.4420   -0.3000 H   0  0  0  0  0  0  0  0  0  0  0  0
   -0.9208    1.8235    0.7873 H   0  0  0  0  0  0  0  0  0  0  0  0
    0.4248    1.1171    1.6829 H   0  0  0  0  0  0  0  0  0  0  0  0
   -1.6302    1.1410    3.0892 H   0  0  0  0  0  0  0  0  0  0  0  0
   -1.1665   -0.5352    2.7476 H   0  0  0  0  0  0  0  0  0  0  0  0
   -4.6039    1.8437    0.7718 H   0  0  0  0  0  0  0  0  0  0  0  0
   -2.8868    2.2468    0.5341 H   0  0  0  0  0  0  0  0  0  0  0  0
   -3.6182    2.3865    2.1513 H   0  0  0  0  0  0  0  0  0  0  0  0
    0.8410   -0.4989   -2.0039 N   0  0  0  0  0  0  0  0  0  0  0  0
    1.5866   -0.1864   -3.2006 C   0  0  2  0  0  0  0  0  0  0  0  0
    1.0398   -1.0454   -4.3331 C   0  0  0  0  0  0  0  0  0  0  0  0
    0.4311   -2.0965   -4.1440 O   0  0  0  0  0  0  0  0  0  0  0  0
    3.0750   -0.4289   -3.0043 C   0  0  0  0  0  0  0  0  0  0  0  0
    0.6259   -1.4743   -1.8201 H   0  0  0  0  0  0  0  0  0  0  0  0
    1.4020    0.8706   -3.4213 H   0  0  0  0  0  0  0  0  0  0  0  0
    3.2795   -1.4827   -2.7822 H   0  0  0  0  0  0  0  0  0  0  0  0
    3.6420   -0.1645   -3.9030 H   0  0  0  0  0  0  0  0  0  0  0  0
    3.4604    0.1673   -2.1702 H   0  0  0  0  0  0  0  0  0  0  0  0
    1.3490   -0.5224   -5.5809 N   0  0  0  0  0  0  0  0  0  0  0  0
    0.9521   -1.1609   -6.8141 C   0  0  0  0  0  0  0  0  0  0  0  0
    1.8409    0.3641   -5.6432 H   0  0  0  0  0  0  0  0  0  0  0  0
    1.7565   -1.8278   -7.1578 H   0  0  0  0  0  0  0  0  0  0  0  0
    0.0369   -1.7474   -6.6451 H   0  0  0  0  0  0  0  0  0  0  0  0
    0.7600   -0.3939   -7.5787 H   0  0  0  0  0  0  0  0  0  0  0  0
  1  3  1  0  0  0  0
  1  7  1  0  0  0  0
  1  2  2  0  0  0  0
 35 36  1  0  0  0  0
 36 44  1  0  0  0  0
 36 37  2  0  0  0  0
  8  9  1  0  0  0  0
  9 17  1  0  0  0  0
  9 10  2  0  0  0  0
 18 19  1  0  0  0  0
 19 34  1  0  0  0  0
 19 20  2  0  0  0  0
 35 38  1  0  0  0  0
  8 11  1  0  0  0  0
 44 45  1  0  0  0  0
 23 24  1  0  0  0  0
 21 22  1  0  0  0  0
 18 21  1  0  0  0  0
 22 23  1  0  0  0  0
 34 35  1  0  0  0  0
  7  8  1  0  0  0  0
 17 18  1  0  0  0  0
  3  4  1  0  0  0  0
  3  5  1  0  0  0  0
  3  6  1  0  0  0  0
 38 41  1  0  0  0  0
 38 42  1  0  0  0  0
 38 43  1  0  0  0  0
 11 14  1  0  0  0  0
 11 15  1  0  0  0  0
 11 16  1  0  0  0  0
 45 47  1  0  0  0  0
 45 48  1  0  0  0  0
 45 49  1  0  0  0  0
 24 31  1  0  0  0  0
 24 32  1  0  0  0  0
 24 33  1  0  0  0  0
 21 27  1  0  0  0  0
 21 28  1  0  0  0  0
 22 29  1  0  0  0  0
 22 30  1  0  0  0  0
 35 40  1  0  0  0  0
  8 13  1  0  0  0  0
 18 26  1  0  0  0  0
 44 46  1  0  0  0  0
  7 12  1  0  0  0  0
 34 39  1  0  0  0  0
 17 25  1  0  0  0  0
M  END
$$$$

  -OEChem-05262214473D

 49 48  0     1  0  0  0  0  0999 V2000
   -0.0561   -5.3799    2.6949 C   0  0  0  0  0  0  0  0  0  0  0  0
    0.7325   -5.0736    3.5815 O   0  0  0  0  0  0  0  0  0  0  0  0
   -1.0067   -6.5099    2.9135 C   0  0  0  0  0  0  0  0  0  0  0  0
   -0.5910   -7.4777    2.5899 H   0  0  0  0  0  0  0  0  0  0  0  0
   -1.2629   -6.6440    3.9767 H   0  0  0  0  0  0  0  0  0  0  0  0
   -1.9729   -6.4206    2.3918 H   0  0  0  0  0  0  0  0  0  0  0  0
   -0.1735   -4.7694    1.4571 N   0  0  0  0  0  0  0  0  0  0  0  0
    0.6439   -3.6603    1.0409 C   0  0  2  0  0  0  0  0  0  0  0  0
   -0.2788   -2.5625    0.5280 C   0  0  0  0  0  0  0  0  0  0  0  0
   -1.4197   -2.7791    0.1251 O   0  0  0  0  0  0  0  0  0  0  0  0
    1.6395   -4.0779   -0.0301 C   0  0  0  0  0  0  0  0  0  0  0  0
   -0.8741   -5.1235    0.8083 H   0  0  0  0  0  0  0  0  0  0  0  0
    1.1738   -3.3062    1.9318 H   0  0  0  0  0  0  0  0  0  0  0  0
    1.1270   -4.4358   -0.9305 H   0  0  0  0  0  0  0  0  0  0  0  0
    2.2797   -3.2400   -0.3251 H   0  0  0  0  0  0  0  0  0  0  0  0
    2.2827   -4.8880    0.3303 H   0  0  0  0  0  0  0  0  0  0  0  0
    0.3351   -1.3153    0.5316 N   0  0  0  0  0  0  0  0  0  0  0  0
   -0.3268   -0.1184    0.0807 C   0  0  2  0  0  0  0  0  0  0  0  0
    0.4625    0.4694   -1.0851 C   0  0  0  0  0  0  0  0  0  0  0  0
    0.9305    1.6060   -1.0705 O   0  0  0  0  0  0  0  0  0  0  0  0
   -0.5434    0.8872    1.2199 C   0  0  0  0  0  0  0  0  0  0  0  0
   -1.5164    0.3973    2.2949 C   0  0  0  0  0  0  0  0  0  0  0  0
   -3.1585    0.0930    1.5773 S   0  0  0  0  0  0  0  0  0  0  0  0
   -3.6103    1.8068    1.2250 C   0  0  0  0  0  0  0  0  0  0  0  0
    1.2790   -1.2290    0.9021 H   0  0  0  0  0  0  0  0  0  0  0  0
   -1.3032   -0.4420   -0.3000 H   0  0  0  0  0  0  0  0  0  0  0  0
   -0.9208    1.8235    0.7873 H   0  0  0  0  0  0  0  0  0  0  0  0
    0.4248    1.1171    1.6829 H   0  0  0  0  0  0  0  0  0  0  0  0
   -1.6302    1.1410    3.0892 H   0  0  0  0  0  0  0  0  0  0  0  0
   -1.1665   -0.5352    2.7476 H   0  0  0  0  0  0  0  0  0  0  0  0
   -4.6039    1.8437    0.7718 H   0  0  0  0  0  0  0  0  0  0  0  0
   -2.8868    2.2468    0.5341 H   0  0  0  0  0  0  0  0  0  0  0  0
   -3.6182    2.3865    2.1513 H   0  0  0  0  0  0  0  0  0  0  0  0
    0.5543   -0.4108   -2.1537 N   0  0  0  0  0  0  0  0  0  0  0  0
    1.2420   -0.0776   -3.3791 C   0  0  2  0  0  0  0  0  0  0  0  0
    0.4354   -0.6442   -4.5400 C   0  0  0  0  0  0  0  0  0  0  0  0
   -0.3568   -1.5758   -4.4149 O   0  0  0  0  0  0  0  0  0  0  0  0
    2.6605   -0.6256   -3.3841 C   0  0  0  0  0  0  0  0  0  0  0  0
    0.1608   -1.3434   -2.0689 H   0  0  0  0  0  0  0  0  0  0  0  0
    1.2592    1.0158   -3.4448 H   0  0  0  0  0  0  0  0  0  0  0  0
    2.6635   -1.7198   -3.3188 H   0  0  0  0  0  0  0  0  0  0  0  0
    3.1900   -0.3478   -4.3014 H   0  0  0  0  0  0  0  0  0  0  0  0
    3.2302   -0.2403   -2.5315 H   0  0  0  0  0  0  0  0  0  0  0  0
    0.7363   -0.0159   -5.7404 N   0  0  0  0  0  0  0  0  0  0  0  0
    0.1123   -0.3826   -6.9902 C   0  0  0  0  0  0  0  0  0  0  0  0
    1.3919    0.7600   -5.7476 H   0  0  0  0  0  0  0  0  0  0  0  0
    0.7306   -1.1342   -7.5027 H   0  0  0  0  0  0  0  0  0  0  0  0
   -0.8854   -0.8016   -6.7927 H   0  0  0  0  0  0  0  0  0  0  0  0
    0.0160    0.5090   -7.6273 H   0  0  0  0  0  0  0  0  0  0  0  0
  1  3  1  0  0  0  0
  1  7  1  0  0  0  0
  1  2  2  0  0  0  0
 35 36  1  0  0  0  0
 36 44  1  0  0  0  0
 36 37  2  0  0  0  0
  8  9  1  0  0  0  0
  9 17  1  0  0  0  0
  9 10  2  0  0  0  0
 18 19  1  0  0  0  0
 19 34  1  0  0  0  0
 19 20  2  0  0  0  0
 35 38  1  0  0  0  0
  8 11  1  0  0  0  0
 44 45  1  0  0  0  0
 23 24  1  0  0  0  0
 21 22  1  0  0  0  0
 18 21  1  0  0  0  0
 22 23  1  0  0  0  0
 34 35  1  0  0  0  0
  7  8  1  0  0  0  0
 17 18  1  0  0  0  0
  3  4  1  0  0  0  0
  3  5  1  0  0  0  0
  3  6  1  0  0  0  0
 38 41  1  0  0  0  0
 38 42  1  0  0  0  0
 38 43  1  0  0  0  0
 11 14  1  0  0  0  0
 11 15  1  0  0  0  0
 11 16  1  0  0  0  0
 45 47  1  0  0  0  0
 45 48  1  0  0  0  0
 45 49  1  0  0  0  0
 24 31  1  0  0  0  0
 24 32  1  0  0  0  0
 24 33  1  0  0  0  0
 21 27  1  0  0  0  0
 21 28  1  0  0  0  0
 22 29  1  0  0  0  0
 22 30  1  0  0  0  0
 35 40  1  0  0  0  0
  8 13  1  0  0  0  0
 18 26  1  0  0  0  0
 44 46  1  0  0  0  0
  7 12  1  0  0  0  0
 34 39  1  0  0  0  0
 17 25  1  0  0  0  0
M  END
$$$$

  -OEChem-05262214473D

 49 48  0     1  0  0  0  0  0999 V2000
   -0.0561   -5.3799    2.6949 C   0  0  0  0  0  0  0  0  0  0  0  0
    0.7325   -5.0736    3.5815 O   0  0  0  0  0  0  0  0  0  0  0  0
   -1.0067   -6.5099    2.9135 C   0  0  0  0  0  0  0  0  0  0  0  0
   -0.5910   -7.4777    2.5899 H   0  0  0  0  0  0  0  0  0  0  0  0
   -1.2629   -6.6440    3.9767 H   0  0  0  0  0  0  0  0  0  0  0  0
   -1.9729   -6.4206    2.3918 H   0  0  0  0  0  0  0  0  0  0  0  0
   -0.1735   -4.7694    1.4571 N   0  0  0  0  0  0  0  0  0  0  0  0
    0.6439   -3.6603    1.0409 C   0  0  2  0  0  0  0  0  0  0  0  0
   -0.2788   -2.5625    0.5280 C   0  0  0  0  0  0  0  0  0  0  0  0
   -1.4197   -2.7791    0.1251 O   0  0  0  0  0  0  0  0  0  0  0  0
    1.6395   -4.0779   -0.0301 C   0  0  0  0  0  0  0  0  0  0  0  0
   -0.8741   -5.1235    0.8083 H   0  0  0  0  0  0  0  0  0  0  0  0
    1.1738   -3.3062    1.9318 H   0  0  0  0  0  0  0  0  0  0  0  0
    1.1270   -4.4358   -0.9305 H   0  0  0  0  0  0  0  0  0  0  0  0
    2.2797   -3.2400   -0.3251 H   0  0  0  0  0  0  0  0  0  0  0  0
    2.2827   -4.8880    0.3303 H   0  0  0  0  0  0  0  0  0  0  0  0
    0.3351   -1.3153    0.5316 N   0  0  0  0  0  0  0  0  0  0  0  0
   -0.3268   -0.1184    0.0807 C   0  0  2  0  0  0  0  0  0  0  0  0
    0.4625    0.4694   -1.0851 C   0  0  0  0  0  0  0  0  0  0  0  0
    1.1526    1.4815   -0.9829 O   0  0  0  0  0  0  0  0  0  0  0  0
   -0.5434    0.8872    1.2199 C   0  0  0  0  0  0  0  0  0  0  0  0
   -1.5164    0.3973    2.2949 C   0  0  0  0  0  0  0  0  0  0  0  0
   -3.1585    0.0930    1.5773 S   0  0  0  0  0  0  0  0  0  0  0  0
   -3.6103    1.8068    1.2250 C   0  0  0  0  0  0  0  0  0  0  0  0
    1.2790   -1.2290    0.9021 H   0  0  0  0  0  0  0  0  0  0  0  0
   -1.3032   -0.4420   -0.3000 H   0  0  0  0  0  0  0  0  0  0  0  0
   -0.9208    1.8235    0.7873 H   0  0  0  0  0  0  0  0  0  0  0  0
    0.4248    1.1171    1.6829 H   0  0  0  0  0  0  0  0  0  0  0  0
   -1.6302    1.1410    3.0892 H   0  0  0  0  0  0  0  0  0  0  0  0
   -1.1665   -0.5352    2.7476 H   0  0  0  0  0  0  0  0  0  0  0  0
   -4.6039    1.8437    0.7718 H   0  0  0  0  0  0  0  0  0  0  0  0
   -2.8868    2.2468    0.5341 H   0  0  0  0  0  0  0  0  0  0  0  0
   -3.6182    2.3865    2.1513 H   0  0  0  0  0  0  0  0  0  0  0  0
    0.2798   -0.2490   -2.2580 N   0  0  0  0  0  0  0  0  0  0  0  0
    0.9128    0.1196   -3.5025 C   0  0  2  0  0  0  0  0  0  0  0  0
   -0.0897   -0.1095   -4.6259 C   0  0  0  0  0  0  0  0  0  0  0  0
   -1.0419   -0.8807   -4.5283 O   0  0  0  0  0  0  0  0  0  0  0  0
    2.1834   -0.6827   -3.7359 C   0  0  0  0  0  0  0  0  0  0  0  0
   -0.2874   -1.0915   -2.2454 H   0  0  0  0  0  0  0  0  0  0  0  0
    1.1476    1.1874   -3.4338 H   0  0  0  0  0  0  0  0  0  0  0  0
    1.9681   -1.7551   -3.8074 H   0  0  0  0  0  0  0  0  0  0  0  0
    2.6774   -0.3820   -4.6657 H   0  0  0  0  0  0  0  0  0  0  0  0
    2.8912   -0.5401   -2.9122 H   0  0  0  0  0  0  0  0  0  0  0  0
    0.2287    0.6160   -5.7655 N   0  0  0  0  0  0  0  0  0  0  0  0
   -0.5625    0.5590   -6.9724 C   0  0  0  0  0  0  0  0  0  0  0  0
    1.0261    1.2451   -5.7507 H   0  0  0  0  0  0  0  0  0  0  0  0
   -0.1576   -0.2152   -7.6407 H   0  0  0  0  0  0  0  0  0  0  0  0
   -1.6040    0.3142   -6.7166 H   0  0  0  0  0  0  0  0  0  0  0  0
   -0.5290    1.5348   -7.4791 H   0  0  0  0  0  0  0  0  0  0  0  0
  1  3  1  0  0  0  0
  1  7  1  0  0  0  0
  1  2  2  0  0  0  0
 35 36  1  0  0  0  0
 36 44  1  0  0  0  0
 36 37  2  0  0  0  0
  8  9  1  0  0  0  0
  9 17  1  0  0  0  0
  9 10  2  0  0  0  0
 18 19  1  0  0  0  0
 19 34  1  0  0  0  0
 19 20  2  0  0  0  0
 35 38  1  0  0  0  0
  8 11  1  0  0  0  0
 44 45  1  0  0  0  0
 23 24  1  0  0  0  0
 21 22  1  0  0  0  0
 18 21  1  0  0  0  0
 22 23  1  0  0  0  0
 34 35  1  0  0  0  0
  7  8  1  0  0  0  0
 17 18  1  0  0  0  0
  3  4  1  0  0  0  0
  3  5  1  0  0  0  0
  3  6  1  0  0  0  0
 38 41  1  0  0  0  0
 38 42  1  0  0  0  0
 38 43  1  0  0  0  0
 11 14  1  0  0  0  0
 11 15  1  0  0  0  0
 11 16  1  0  0  0  0
 45 47  1  0  0  0  0
 45 48  1  0  0  0  0
 45 49  1  0  0  0  0
 24 31  1  0  0  0  0
 24 32  1  0  0  0  0
 24 33  1  0  0  0  0
 21 27  1  0  0  0  0
 21 28  1  0  0  0  0
 22 29  1  0  0  0  0
 22 30  1  0  0  0  0
 35 40  1  0  0  0  0
  8 13  1  0  0  0  0
 18 26  1  0  0  0  0
 44 46  1  0  0  0  0
  7 12  1  0  0  0  0
 34 39  1  0  0  0  0
 17 25  1  0  0  0  0
M  END
$$$$

  -OEChem-05262214473D

 49 48  0     1  0  0  0  0  0999 V2000
   -0.0561   -5.3799    2.6949 C   0  0  0  0  0  0  0  0  0  0  0  0
    0.7325   -5.0736    3.5815 O   0  0  0  0  0  0  0  0  0  0  0  0
   -1.0067   -6.5099    2.9135 C   0  0  0  0  0  0  0  0  0  0  0  0
   -0.5910   -7.4777    2.5899 H   0  0  0  0  0  0  0  0  0  0  0  0
   -1.2629   -6.6440    3.9767 H   0  0  0  0  0  0  0  0  0  0  0  0
   -1.9729   -6.4206    2.3918 H   0  0  0  0  0  0  0  0  0  0  0  0
   -0.1735   -4.7694    1.4571 N   0  0  0  0  0  0  0  0  0  0  0  0
    0.6439   -3.6603    1.0409 C   0  0  2  0  0  0  0  0  0  0  0  0
   -0.2788   -2.5625    0.5280 C   0  0  0  0  0  0  0  0  0  0  0  0
   -1.4197   -2.7791    0.1251 O   0  0  0  0  0  0  0  0  0  0  0  0
    1.6395   -4.0779   -0.0301 C   0  0  0  0  0  0  0  0  0  0  0  0
   -0.8741   -5.1235    0.8083 H   0  0  0  0  0  0  0  0  0  0  0  0
    1.1738   -3.3062    1.9318 H   0  0  0  0  0  0  0  0  0  0  0  0
    1.1270   -4.4358   -0.9305 H   0  0  0  0  0  0  0  0  0  0  0  0
    2.2797   -3.2400   -0.3251 H   0  0  0  0  0  0  0  0  0  0  0  0
    2.2827   -4.8880    0.3303 H   0  0  0  0  0  0  0  0  0  0  0  0
    0.3351   -1.3153    0.5316 N   0  0  0  0  0  0  0  0  0  0  0  0
   -0.3268   -0.1184    0.0807 C   0  0  2  0  0  0  0  0  0  0  0  0
    0.4625    0.4694   -1.0851 C   0  0  0  0  0  0  0  0  0  0  0  0
    1.3513    1.3056   -0.9371 O   0  0  0  0  0  0  0  0  0  0  0  0
   -0.5434    0.8872    1.2199 C   0  0  0  0  0  0  0  0  0  0  0  0
   -1.5164    0.3973    2.2949 C   0  0  0  0  0  0  0  0  0  0  0  0
   -3.1585    0.0930    1.5773 S   0  0  0  0  0  0  0  0  0  0  0  0
   -3.6103    1.8068    1.2250 C   0  0  0  0  0  0  0  0  0  0  0  0
    1.2790   -1.2290    0.9021 H   0  0  0  0  0  0  0  0  0  0  0  0
   -1.3032   -0.4420   -0.3000 H   0  0  0  0  0  0  0  0  0  0  0  0
   -0.9208    1.8235    0.7873 H   0  0  0  0  0  0  0  0  0  0  0  0
    0.4248    1.1171    1.6829 H   0  0  0  0  0  0  0  0  0  0  0  0
   -1.6302    1.1410    3.0892 H   0  0  0  0  0  0  0  0  0  0  0  0
   -1.1665   -0.5352    2.7476 H   0  0  0  0  0  0  0  0  0  0  0  0
   -4.6039    1.8437    0.7718 H   0  0  0  0  0  0  0  0  0  0  0  0
   -2.8868    2.2468    0.5341 H   0  0  0  0  0  0  0  0  0  0  0  0
   -3.6182    2.3865    2.1513 H   0  0  0  0  0  0  0  0  0  0  0  0
    0.0362   -0.0244   -2.3096 N   0  0  0  0  0  0  0  0  0  0  0  0
    0.6215    0.3917   -3.5625 C   0  0  2  0  0  0  0  0  0  0  0  0
   -0.4997    0.5224   -4.5849 C   0  0  0  0  0  0  0  0  0  0  0  0
   -1.5775   -0.0586   -4.4765 O   0  0  0  0  0  0  0  0  0  0  0  0
    1.6762   -0.5964   -4.0358 C   0  0  0  0  0  0  0  0  0  0  0  0
   -0.6880   -0.7360   -2.3374 H   0  0  0  0  0  0  0  0  0  0  0  0
    1.0748    1.3738   -3.3891 H   0  0  0  0  0  0  0  0  0  0  0  0
    1.2407   -1.5863   -4.2148 H   0  0  0  0  0  0  0  0  0  0  0  0
    2.1391   -0.2650   -4.9711 H   0  0  0  0  0  0  0  0  0  0  0  0
    2.4666   -0.7117   -3.2862 H   0  0  0  0  0  0  0  0  0  0  0  0
   -0.1391    1.3300   -5.6545 N   0  0  0  0  0  0  0  0  0  0  0  0
   -1.0263    1.5995   -6.7618 C   0  0  0  0  0  0  0  0  0  0  0  0
    0.7683    1.7865   -5.6523 H   0  0  0  0  0  0  0  0  0  0  0  0
   -0.8475    0.8667   -7.5624 H   0  0  0  0  0  0  0  0  0  0  0  0
   -2.0698    1.5240   -6.4221 H   0  0  0  0  0  0  0  0  0  0  0  0
   -0.8377    2.6135   -7.1442 H   0  0  0  0  0  0  0  0  0  0  0  0
  1  3  1  0  0  0  0
  1  7  1  0  0  0  0
  1  2  2  0  0  0  0
 35 36  1  0  0  0  0
 36 44  1  0  0  0  0
 36 37  2  0  0  0  0
  8  9  1  0  0  0  0
  9 17  1  0  0  0  0
  9 10  2  0  0  0  0
 18 19  1  0  0  0  0
 19 34  1  0  0  0  0
 19 20  2  0  0  0  0
 35 38  1  0  0  0  0
  8 11  1  0  0  0  0
 44 45  1  0  0  0  0
 23 24  1  0  0  0  0
 21 22  1  0  0  0  0
 18 21  1  0  0  0  0
 22 23  1  0  0  0  0
 34 35  1  0  0  0  0
  7  8  1  0  0  0  0
 17 18  1  0  0  0  0
  3  4  1  0  0  0  0
  3  5  1  0  0  0  0
  3  6  1  0  0  0  0
 38 41  1  0  0  0  0
 38 42  1  0  0  0  0
 38 43  1  0  0  0  0
 11 14  1  0  0  0  0
 11 15  1  0  0  0  0
 11 16  1  0  0  0  0
 45 47  1  0  0  0  0
 45 48  1  0  0  0  0
 45 49  1  0  0  0  0
 24 31  1  0  0  0  0
 24 32  1  0  0  0  0
 24 33  1  0  0  0  0
 21 27  1  0  0  0  0
 21 28  1  0  0  0  0
 22 29  1  0  0  0  0
 22 30  1  0  0  0  0
 35 40  1  0  0  0  0
  8 13  1  0  0  0  0
 18 26  1  0  0  0  0
 44 46  1  0  0  0  0
  7 12  1  0  0  0  0
 34 39  1  0  0  0  0
 17 25  1  0  0  0  0
M  END
$$$$

  -OEChem-05262214473D

 49 48  0     1  0  0  0  0  0999 V2000
   -0.0561   -5.3799    2.6949 C   0  0  0  0  0  0  0  0  0  0  0  0
    0.7325   -5.0736    3.5815 O   0  0  0  0  0  0  0  0  0  0  0  0
   -1.0067   -6.5099    2.9135 C   0  0  0  0  0  0  0  0  0  0  0  0
   -0.5910   -7.4777    2.5899 H   0  0  0  0  0  0  0  0  0  0  0  0
   -1.2629   -6.6440    3.9767 H   0  0  0  0  0  0  0  0  0  0  0  0
   -1.9729   -6.4206    2.3918 H   0  0  0  0  0  0  0  0  0  0  0  0
   -0.1735   -4.7694    1.4571 N   0  0  0  0  0  0  0  0  0  0  0  0
    0.6439   -3.6603    1.0409 C   0  0  2  0  0  0  0  0  0  0  0  0
   -0.2788   -2.5625    0.5280 C   0  0  0  0  0  0  0  0  0  0  0  0
   -1.4197   -2.7791    0.1251 O   0  0  0  0  0  0  0  0  0  0  0  0
    1.6395   -4.0779   -0.0301 C   0  0  0  0  0  0  0  0  0  0  0  0
   -0.8741   -5.1235    0.8083 H   0  0  0  0  0  0  0  0  0  0  0  0
    1.1738   -3.3062    1.9318 H   0  0  0  0  0  0  0  0  0  0  0  0
    1.1270   -4.4358   -0.9305 H   0  0  0  0  0  0  0  0  0  0  0  0
    2.2797   -3.2400   -0.3251 H   0  0  0  0  0  0  0  0  0  0  0  0
    2.2827   -4.8880    0.3303 H   0  0  0  0  0  0  0  0  0  0  0  0
    0.3351   -1.3153    0.5316 N   0  0  0  0  0  0  0  0  0  0  0  0
   -0.3268   -0.1184    0.0807 C   0  0  2  0  0  0  0  0  0  0  0  0
    0.4625    0.4694   -1.0851 C   0  0  0  0  0  0  0  0  0  0  0  0
    1.5129    1.0903   -0.9362 O   0  0  0  0  0  0  0  0  0  0  0  0
   -0.5434    0.8872    1.2199 C   0  0  0  0  0  0  0  0  0  0  0  0
   -1.5164    0.3973    2.2949 C   0  0  0  0  0  0  0  0  0  0  0  0
   -3.1585    0.0930    1.5773 S   0  0  0  0  0  0  0  0  0  0  0  0
   -3.6103    1.8068    1.2250 C   0  0  0  0  0  0  0  0  0  0  0  0
    1.2790   -1.2290    0.9021 H   0  0  0  0  0  0  0  0  0  0  0  0
   -1.3032   -0.4420   -0.3000 H   0  0  0  0  0  0  0  0  0  0  0  0
   -0.9208    1.8235    0.7873 H   0  0  0  0  0  0  0  0  0  0  0  0
    0.4248    1.1171    1.6829 H   0  0  0  0  0  0  0  0  0  0  0  0
   -1.6302    1.1410    3.0892 H   0  0  0  0  0  0  0  0  0  0  0  0
   -1.1665   -0.5352    2.7476 H   0  0  0  0  0  0  0  0  0  0  0  0
   -4.6039    1.8437    0.7718 H   0  0  0  0  0  0  0  0  0  0  0  0
   -2.8868    2.2468    0.5341 H   0  0  0  0  0  0  0  0  0  0  0  0
   -3.6182    2.3865    2.1513 H   0  0  0  0  0  0  0  0  0  0  0  0
   -0.1598    0.2475   -2.3052 N   0  0  0  0  0  0  0  0  0  0  0  0
    0.3880    0.7202   -3.5550 C   0  0  2  0  0  0  0  0  0  0  0  0
   -0.7666    1.2084   -4.4199 C   0  0  0  0  0  0  0  0  0  0  0  0
   -1.9271    0.8345   -4.2629 O   0  0  0  0  0  0  0  0  0  0  0  0
    1.1734   -0.3726   -4.2634 C   0  0  0  0  0  0  0  0  0  0  0  0
   -1.0139   -0.3011   -2.3388 H   0  0  0  0  0  0  0  0  0  0  0  0
    1.0458    1.5622   -3.3137 H   0  0  0  0  0  0  0  0  0  0  0  0
    0.5309   -1.2248   -4.5132 H   0  0  0  0  0  0  0  0  0  0  0  0
    1.6120   -0.0045   -5.1968 H   0  0  0  0  0  0  0  0  0  0  0  0
    1.9851   -0.7433   -3.6281 H   0  0  0  0  0  0  0  0  0  0  0  0
   -0.3421    2.0776   -5.4150 N   0  0  0  0  0  0  0  0  0  0  0  0
   -1.2475    2.6681   -6.3728 C   0  0  0  0  0  0  0  0  0  0  0  0
    0.6363    2.3472   -5.4590 H   0  0  0  0  0  0  0  0  0  0  0  0
   -1.2921    2.0376   -7.2731 H   0  0  0  0  0  0  0  0  0  0  0  0
   -2.2512    2.7452   -5.9292 H   0  0  0  0  0  0  0  0  0  0  0  0
   -0.8892    3.6717   -6.6456 H   0  0  0  0  0  0  0  0  0  0  0  0
  1  3  1  0  0  0  0
  1  7  1  0  0  0  0
  1  2  2  0  0  0  0
 35 36  1  0  0  0  0
 36 44  1  0  0  0  0
 36 37  2  0  0  0  0
  8  9  1  0  0  0  0
  9 17  1  0  0  0  0
  9 10  2  0  0  0  0
 18 19  1  0  0  0  0
 19 34  1  0  0  0  0
 19 20  2  0  0  0  0
 35 38  1  0  0  0  0
  8 11  1  0  0  0  0
 44 45  1  0  0  0  0
 23 24  1  0  0  0  0
 21 22  1  0  0  0  0
 18 21  1  0  0  0  0
 22 23  1  0  0  0  0
 34 35  1  0  0  0  0
  7  8  1  0  0  0  0
 17 18  1  0  0  0  0
  3  4  1  0  0  0  0
  3  5  1  0  0  0  0
  3  6  1  0  0  0  0
 38 41  1  0  0  0  0
 38 42  1  0  0  0  0
 38 43  1  0  0  0  0
 11 14  1  0  0  0  0
 11 15  1  0  0  0  0
 11 16  1  0  0  0  0
 45 47  1  0  0  0  0
 45 48  1  0  0  0  0
 45 49  1  0  0  0  0
 24 31  1  0  0  0  0
 24 32  1  0  0  0  0
 24 33  1  0  0  0  0
 21 27  1  0  0  0  0
 21 28  1  0  0  0  0
 22 29  1  0  0  0  0
 22 30  1  0  0  0  0
 35 40  1  0  0  0  0
  8 13  1  0  0  0  0
 18 26  1  0  0  0  0
 44 46  1  0  0  0  0
  7 12  1  0  0  0  0
 34 39  1  0  0  0  0
 17 25  1  0  0  0  0
M  END
$$$$

  -OEChem-05262214473D

 49 48  0     1  0  0  0  0  0999 V2000
   -0.0561   -5.3799    2.6949 C   0  0  0  0  0  0  0  0  0  0  0  0
    0.7325   -5.0736    3.5815 O   0  0  0  0  0  0  0  0  0  0  0  0
   -1.0067   -6.5099    2.9135 C   0  0  0  0  0  0  0  0  0  0  0  0
   -0.5910   -7.4777    2.5899 H   0  0  0  0  0  0  0  0  0  0  0  0
   -1.2629   -6.6440    3.9767 H   0  0  0  0  0  0  0  0  0  0  0  0
   -1.9729   -6.4206    2.3918 H   0  0  0  0  0  0  0  0  0  0  0  0
   -0.1735   -4.7694    1.4571 N   0  0  0  0  0  0  0  0  0  0  0  0
    0.6439   -3.6603    1.0409 C   0  0  2  0  0  0  0  0  0  0  0  0
   -0.2788   -2.5625    0.5280 C   0  0  0  0  0  0  0  0  0  0  0  0
   -1.4197   -2.7791    0.1251 O   0  0  0  0  0  0  0  0  0  0  0  0
    1.6395   -4.0779   -0.0301 C   0  0  0  0  0  0  0  0  0  0  0  0
   -0.8741   -5.1235    0.8083 H   0  0  0  0  0  0  0  0  0  0  0  0
    1.1738   -3.3062    1.9318 H   0  0  0  0  0  0  0  0  0  0  0  0
    1.1270   -4.4358   -0.9305 H   0  0  0  0  0  0  0  0  0  0  0  0
    2.2797   -3.2400   -0.3251 H   0  0  0  0  0  0  0  0  0  0  0  0
    2.2827   -4.8880    0.3303 H   0  0  0  0  0  0  0  0  0  0  0  0
    0.3351   -1.3153    0.5316 N   0  0  0  0  0  0  0  0  0  0  0  0
   -0.3268   -0.1184    0.0807 C   0  0  2  0  0  0  0  0  0  0  0  0
    0.4625    0.4694   -1.0851 C   0  0  0  0  0  0  0  0  0  0  0  0
    1.6266    0.8503   -0.9803 O   0  0  0  0  0  0  0  0  0  0  0  0
   -0.5434    0.8872    1.2199 C   0  0  0  0  0  0  0  0  0  0  0  0
   -1.5164    0.3973    2.2949 C   0  0  0  0  0  0  0  0  0  0  0  0
   -3.1585    0.0930    1.5773 S   0  0  0  0  0  0  0  0  0  0  0  0
   -3.6103    1.8068    1.2250 C   0  0  0  0  0  0  0  0  0  0  0  0
    1.2790   -1.2290    0.9021 H   0  0  0  0  0  0  0  0  0  0  0  0
   -1.3032   -0.4420   -0.3000 H   0  0  0  0  0  0  0  0  0  0  0  0
   -0.9208    1.8235    0.7873 H   0  0  0  0  0  0  0  0  0  0  0  0
    0.4248    1.1171    1.6829 H   0  0  0  0  0  0  0  0  0  0  0  0
   -1.6302    1.1410    3.0892 H   0  0  0  0  0  0  0  0  0  0  0  0
   -1.1665   -0.5352    2.7476 H   0  0  0  0  0  0  0  0  0  0  0  0
   -4.6039    1.8437    0.7718 H   0  0  0  0  0  0  0  0  0  0  0  0
   -2.8868    2.2468    0.5341 H   0  0  0  0  0  0  0  0  0  0  0  0
   -3.6182    2.3865    2.1513 H   0  0  0  0  0  0  0  0  0  0  0  0
   -0.2948    0.5484   -2.2450 N   0  0  0  0  0  0  0  0  0  0  0  0
    0.2282    1.0826   -3.4805 C   0  0  2  0  0  0  0  0  0  0  0  0
   -0.8724    1.9017   -4.1419 C   0  0  0  0  0  0  0  0  0  0  0  0
   -2.0668    1.7377   -3.9022 O   0  0  0  0  0  0  0  0  0  0  0  0
    0.7094   -0.0265   -4.4031 C   0  0  0  0  0  0  0  0  0  0  0  0
   -1.2428    0.1837   -2.2493 H   0  0  0  0  0  0  0  0  0  0  0  0
    1.0626    1.7399   -3.2128 H   0  0  0  0  0  0  0  0  0  0  0  0
   -0.1130   -0.6953   -4.6822 H   0  0  0  0  0  0  0  0  0  0  0  0
    1.1317    0.3815   -5.3273 H   0  0  0  0  0  0  0  0  0  0  0  0
    1.4797   -0.6329   -3.9146 H   0  0  0  0  0  0  0  0  0  0  0  0
   -0.3664    2.8078   -5.0634 N   0  0  0  0  0  0  0  0  0  0  0  0
   -1.2111    3.6920   -5.8320 C   0  0  0  0  0  0  0  0  0  0  0  0
    0.6389    2.8891   -5.1840 H   0  0  0  0  0  0  0  0  0  0  0  0
   -1.4612    3.2179   -6.7925 H   0  0  0  0  0  0  0  0  0  0  0  0
   -2.1357    3.8947   -5.2715 H   0  0  0  0  0  0  0  0  0  0  0  0
   -0.6799    4.6373   -6.0171 H   0  0  0  0  0  0  0  0  0  0  0  0
  1  3  1  0  0  0  0
  1  7  1  0  0  0  0
  1  2  2  0  0  0  0
 35 36  1  0  0  0  0
 36 44  1  0  0  0  0
 36 37  2  0  0  0  0
  8  9  1  0  0  0  0
  9 17  1  0  0  0  0
  9 10  2  0  0  0  0
 18 19  1  0  0  0  0
 19 34  1  0  0  0  0
 19 20  2  0  0  0  0
 35 38  1  0  0  0  0
  8 11  1  0  0  0  0
 44 45  1  0  0  0  0
 23 24  1  0  0  0  0
 21 22  1  0  0  0  0
 18 21  1  0  0  0  0
 22 23  1  0  0  0  0
 34 35  1  0  0  0  0
  7  8  1  0  0  0  0
 17 18  1  0  0  0  0
  3  4  1  0  0  0  0
  3  5  1  0  0  0  0
  3  6  1  0  0  0  0
 38 41  1  0  0  0  0
 38 42  1  0  0  0  0
 38 43  1  0  0  0  0
 11 14  1  0  0  0  0
 11 15  1  0  0  0  0
 11 16  1  0  0  0  0
 45 47  1  0  0  0  0
 45 48  1  0  0  0  0
 45 49  1  0  0  0  0
 24 31  1  0  0  0  0
 24 32  1  0  0  0  0
 24 33  1  0  0  0  0
 21 27  1  0  0  0  0
 21 28  1  0  0  0  0
 22 29  1  0  0  0  0
 22 30  1  0  0  0  0
 35 40  1  0  0  0  0
  8 13  1  0  0  0  0
 18 26  1  0  0  0  0
 44 46  1  0  0  0  0
  7 12  1  0  0  0  0
 34 39  1  0  0  0  0
 17 25  1  0  0  0  0
M  END
$$$$

  -OEChem-05262214473D

 49 48  0     1  0  0  0  0  0999 V2000
   -0.0561   -5.3799    2.6949 C   0  0  0  0  0  0  0  0  0  0  0  0
    0.7325   -5.0736    3.5815 O   0  0  0  0  0  0  0  0  0  0  0  0
   -1.0067   -6.5099    2.9135 C   0  0  0  0  0  0  0  0  0  0  0  0
   -0.5910   -7.4777    2.5899 H   0  0  0  0  0  0  0  0  0  0  0  0
   -1.2629   -6.6440    3.9767 H   0  0  0  0  0  0  0  0  0  0  0  0
   -1.9729   -6.4206    2.3918 H   0  0  0  0  0  0  0  0  0  0  0  0
   -0.1735   -4.7694    1.4571 N   0  0  0  0  0  0  0  0  0  0  0  0
    0.6439   -3.6603    1.0409 C   0  0  2  0  0  0  0  0  0  0  0  0
   -0.2788   -2.5625    0.5280 C   0  0  0  0  0  0  0  0  0  0  0  0
   -1.4197   -2.7791    0.1251 O   0  0  0  0  0  0  0  0  0  0  0  0
    1.6395   -4.0779   -0.0301 C   0  0  0  0  0  0  0  0  0  0  0  0
   -0.8741   -5.1235    0.8083 H   0  0  0  0  0  0  0  0  0  0  0  0
    1.1738   -3.3062    1.9318 H   0  0  0  0  0  0  0  0  0  0  0  0
    1.1270   -4.4358   -0.9305 H   0  0  0  0  0  0  0  0  0  0  0  0
    2.2797   -3.2400   -0.3251 H   0  0  0  0  0  0  0  0  0  0  0  0
    2.2827   -4.8880    0.3303 H   0  0  0  0  0  0  0  0  0  0  0  0
    0.3351   -1.3153    0.5316 N   0  0  0  0  0  0  0  0  0  0  0  0
   -0.3268   -0.1184    0.0807 C   0  0  2  0  0  0  0  0  0  0  0  0
    0.4625    0.4694   -1.0851 C   0  0  0  0  0  0  0  0  0  0  0  0
    1.6845    0.6018   -1.0663 O   0  0  0  0  0  0  0  0  0  0  0  0
   -0.5434    0.8872    1.2199 C   0  0  0  0  0  0  0  0  0  0  0  0
   -1.5164    0.3973    2.2949 C   0  0  0  0  0  0  0  0  0  0  0  0
   -3.1585    0.0930    1.5773 S   0  0  0  0  0  0  0  0  0  0  0  0
   -3.6103    1.8068    1.2250 C   0  0  0  0  0  0  0  0  0  0  0  0
    1.2790   -1.2290    0.9021 H   0  0  0  0  0  0  0  0  0  0  0  0
   -1.3032   -0.4420   -0.3000 H   0  0  0  0  0  0  0  0  0  0  0  0
   -0.9208    1.8235    0.7873 H   0  0  0  0  0  0  0  0  0  0  0  0
    0.4248    1.1171    1.6829 H   0  0  0  0  0  0  0  0  0  0  0  0
   -1.6302    1.1410    3.0892 H   0  0  0  0  0  0  0  0  0  0  0  0
   -1.1665   -0.5352    2.7476 H   0  0  0  0  0  0  0  0  0  0  0  0
   -4.6039    1.8437    0.7718 H   0  0  0  0  0  0  0  0  0  0  0  0
   -2.8868    2.2468    0.5341 H   0  0  0  0  0  0  0  0  0  0  0  0
   -3.6182    2.3865    2.1513 H   0  0  0  0  0  0  0  0  0  0  0  0
   -0.3598    0.8577   -2.1330 N   0  0  0  0  0  0  0  0  0  0  0  0
    0.1529    1.4543   -3.3441 C   0  0  2  0  0  0  0  0  0  0  0  0
   -0.8097    2.5550   -3.7701 C   0  0  0  0  0  0  0  0  0  0  0  0
   -1.9872    2.5894   -3.4189 O   0  0  0  0  0  0  0  0  0  0  0  0
    0.3156    0.4183   -4.4454 C   0  0  0  0  0  0  0  0  0  0  0  0
   -1.3591    0.6852   -2.0752 H   0  0  0  0  0  0  0  0  0  0  0  0
    1.1241    1.8946   -3.0932 H   0  0  0  0  0  0  0  0  0  0  0  0
   -0.6471   -0.0338   -4.7103 H   0  0  0  0  0  0  0  0  0  0  0  0
    0.7312    0.8668   -5.3538 H   0  0  0  0  0  0  0  0  0  0  0  0
    0.9848   -0.3879   -4.1262 H   0  0  0  0  0  0  0  0  0  0  0  0
   -0.2104    3.4709   -4.6235 N   0  0  0  0  0  0  0  0  0  0  0  0
   -0.9194    4.6014   -5.1761 C   0  0  0  0  0  0  0  0  0  0  0  0
    0.7760    3.3752   -4.8462 H   0  0  0  0  0  0  0  0  0  0  0  0
   -1.3431    4.3270   -6.1534 H   0  0  0  0  0  0  0  0  0  0  0  0
   -1.7312    4.8940   -4.4938 H   0  0  0  0  0  0  0  0  0  0  0  0
   -0.2241    5.4444   -5.3016 H   0  0  0  0  0  0  0  0  0  0  0  0
  1  3  1  0  0  0  0
  1  7  1  0  0  0  0
  1  2  2  0  0  0  0
 35 36  1  0  0  0  0
 36 44  1  0  0  0  0
 36 37  2  0  0  0  0
  8  9  1  0  0  0  0
  9 17  1  0  0  0  0
  9 10  2  0  0  0  0
 18 19  1  0  0  0  0
 19 34  1  0  0  0  0
 19 20  2  0  0  0  0
 35 38  1  0  0  0  0
  8 11  1  0  0  0  0
 44 45  1  0  0  0  0
 23 24  1  0  0  0  0
 21 22  1  0  0  0  0
 18 21  1  0  0  0  0
 22 23  1  0  0  0  0
 34 35  1  0  0  0  0
  7  8  1  0  0  0  0
 17 18  1  0  0  0  0
  3  4  1  0  0  0  0
  3  5  1  0  0  0  0
  3  6  1  0  0  0  0
 38 41  1  0  0  0  0
 38 42  1  0  0  0  0
 38 43  1  0  0  0  0
 11 14  1  0  0  0  0
 11 15  1  0  0  0  0
 11 16  1  0  0  0  0
 45 47  1  0  0  0  0
 45 48  1  0  0  0  0
 45 49  1  0  0  0  0
 24 31  1  0  0  0  0
 24 32  1  0  0  0  0
 24 33  1  0  0  0  0
 21 27  1  0  0  0  0
 21 28  1  0  0  0  0
 22 29  1  0  0  0  0
 22 30  1  0  0  0  0
 35 40  1  0  0  0  0
  8 13  1  0  0  0  0
 18 26  1  0  0  0  0
 44 46  1  0  0  0  0
  7 12  1  0  0  0  0
 34 39  1  0  0  0  0
 17 25  1  0  0  0  0
M  END
$$$$

  -OEChem-05262214473D

 49 48  0     1  0  0  0  0  0999 V2000
   -0.0561   -5.3799    2.6949 C   0  0  0  0  0  0  0  0  0  0  0  0
    0.7325   -5.0736    3.5815 O   0  0  0  0  0  0  0  0  0  0  0  0
   -1.0067   -6.5099    2.9135 C   0  0  0  0  0  0  0  0  0  0  0  0
   -0.5910   -7.4777    2.5899 H   0  0  0  0  0  0  0  0  0  0  0  0
   -1.2629   -6.6440    3.9767 H   0  0  0  0  0  0  0  0  0  0  0  0
   -1.9729   -6.4206    2.3918 H   0  0  0  0  0  0  0  0  0  0  0  0
   -0.1735   -4.7694    1.4571 N   0  0  0  0  0  0  0  0  0  0  0  0
    0.6439   -3.6603    1.0409 C   0  0  2  0  0  0  0  0  0  0  0  0
   -0.2788   -2.5625    0.5280 C   0  0  0  0  0  0  0  0  0  0  0  0
   -1.4197   -2.7791    0.1251 O   0  0  0  0  0  0  0  0  0  0  0  0
    1.6395   -4.0779   -0.0301 C   0  0  0  0  0  0  0  0  0  0  0  0
   -0.8741   -5.1235    0.8083 H   0  0  0  0  0  0  0  0  0  0  0  0
    1.1738   -3.3062    1.9318 H   0  0  0  0  0  0  0  0  0  0  0  0
    1.1270   -4.4358   -0.9305 H   0  0  0  0  0  0  0  0  0  0  0  0
    2.2797   -3.2400   -0.3251 H   0  0  0  0  0  0  0  0  0  0  0  0
    2.2827   -4.8880    0.3303 H   0  0  0  0  0  0  0  0  0  0  0  0
    0.3351   -1.3153    0.5316 N   0  0  0  0  0  0  0  0  0  0  0  0
   -0.3268   -0.1184    0.0807 C   0  0  2  0  0  0  0  0  0  0  0  0
    0.4625    0.4694   -1.0851 C   0  0  0  0  0  0  0  0  0  0  0  0
    1.6827    0.3619   -1.1885 O   0  0  0  0  0  0  0  0  0  0  0  0
   -0.5434    0.8872    1.2199 C   0  0  0  0  0  0  0  0  0  0  0  0
   -1.5164    0.3973    2.2949 C   0  0  0  0  0  0  0  0  0  0  0  0
   -3.1585    0.0930    1.5773 S   0  0  0  0  0  0  0  0  0  0  0  0
   -3.6103    1.8068    1.2250 C   0  0  0  0  0  0  0  0  0  0  0  0
    1.2790   -1.2290    0.9021 H   0  0  0  0  0  0  0  0  0  0  0  0
   -1.3032   -0.4420   -0.3000 H   0  0  0  0  0  0  0  0  0  0  0  0
   -0.9208    1.8235    0.7873 H   0  0  0  0  0  0  0  0  0  0  0  0
    0.4248    1.1171    1.6829 H   0  0  0  0  0  0  0  0  0  0  0  0
   -1.6302    1.1410    3.0892 H   0  0  0  0  0  0  0  0  0  0  0  0
   -1.1665   -0.5352    2.7476 H   0  0  0  0  0  0  0  0  0  0  0  0
   -4.6039    1.8437    0.7718 H   0  0  0  0  0  0  0  0  0  0  0  0
   -2.8868    2.2468    0.5341 H   0  0  0  0  0  0  0  0  0  0  0  0
   -3.6182    2.3865    2.1513 H   0  0  0  0  0  0  0  0  0  0  0  0
   -0.3502    1.1543   -1.9770 N   0  0  0  0  0  0  0  0  0  0  0  0
    0.1673    1.8100   -3.1550 C   0  0  2  0  0  0  0  0  0  0  0  0
   -0.5828    3.1239   -3.3297 C   0  0  0  0  0  0  0  0  0  0  0  0
   -1.6936    3.3316   -2.8459 O   0  0  0  0  0  0  0  0  0  0  0  0
    0.0190    0.9315   -4.3874 C   0  0  0  0  0  0  0  0  0  0  0  0
   -1.3549    1.1694   -1.8283 H   0  0  0  0  0  0  0  0  0  0  0  0
    1.2259    2.0159   -2.9630 H   0  0  0  0  0  0  0  0  0  0  0  0
   -1.0350    0.7145   -4.5956 H   0  0  0  0  0  0  0  0  0  0  0  0
    0.4377    1.4184   -5.2744 H   0  0  0  0  0  0  0  0  0  0  0  0
    0.5342   -0.0251   -4.2484 H   0  0  0  0  0  0  0  0  0  0  0  0
    0.1152    4.0216   -4.1254 N   0  0  0  0  0  0  0  0  0  0  0  0
   -0.3925    5.3342   -4.4498 C   0  0  0  0  0  0  0  0  0  0  0  0
    1.0382    3.7723   -4.4684 H   0  0  0  0  0  0  0  0  0  0  0  0
   -0.9460    5.2894   -5.3993 H   0  0  0  0  0  0  0  0  0  0  0  0
   -1.0652    5.6752   -3.6491 H   0  0  0  0  0  0  0  0  0  0  0  0
    0.4471    6.0381   -4.5478 H   0  0  0  0  0  0  0  0  0  0  0  0
  1  3  1  0  0  0  0
  1  7  1  0  0  0  0
  1  2  2  0  0  0  0
 35 36  1  0  0  0  0
 36 44  1  0  0  0  0
 36 37  2  0  0  0  0
  8  9  1  0  0  0  0
  9 17  1  0  0  0  0
  9 10  2  0  0  0  0
 18 19  1  0  0  0  0
 19 34  1  0  0  0  0
 19 20  2  0  0  0  0
 35 38  1  0  0  0  0
  8 11  1  0  0  0  0
 44 45  1  0  0  0  0
 23 24  1  0  0  0  0
 21 22  1  0  0  0  0
 18 21  1  0  0  0  0
 22 23  1  0  0  0  0
 34 35  1  0  0  0  0
  7  8  1  0  0  0  0
 17 18  1  0  0  0  0
  3  4  1  0  0  0  0
  3  5  1  0  0  0  0
  3  6  1  0  0  0  0
 38 41  1  0  0  0  0
 38 42  1  0  0  0  0
 38 43  1  0  0  0  0
 11 14  1  0  0  0  0
 11 15  1  0  0  0  0
 11 16  1  0  0  0  0
 45 47  1  0  0  0  0
 45 48  1  0  0  0  0
 45 49  1  0  0  0  0
 24 31  1  0  0  0  0
 24 32  1  0  0  0  0
 24 33  1  0  0  0  0
 21 27  1  0  0  0  0
 21 28  1  0  0  0  0
 22 29  1  0  0  0  0
 22 30  1  0  0  0  0
 35 40  1  0  0  0  0
  8 13  1  0  0  0  0
 18 26  1  0  0  0  0
 44 46  1  0  0  0  0
  7 12  1  0  0  0  0
 34 39  1  0  0  0  0
 17 25  1  0  0  0  0
M  END
$$$$

  -OEChem-05262214473D

 49 48  0     1  0  0  0  0  0999 V2000
   -0.0561   -5.3799    2.6949 C   0  0  0  0  0  0  0  0  0  0  0  0
    0.7325   -5.0736    3.5815 O   0  0  0  0  0  0  0  0  0  0  0  0
   -1.0067   -6.5099    2.9135 C   0  0  0  0  0  0  0  0  0  0  0  0
   -0.5910   -7.4777    2.5899 H   0  0  0  0  0  0  0  0  0  0  0  0
   -1.2629   -6.6440    3.9767 H   0  0  0  0  0  0  0  0  0  0  0  0
   -1.9729   -6.4206    2.3918 H   0  0  0  0  0  0  0  0  0  0  0  0
   -0.1735   -4.7694    1.4571 N   0  0  0  0  0  0  0  0  0  0  0  0
    0.6439   -3.6603    1.0409 C   0  0  2  0  0  0  0  0  0  0  0  0
   -0.2788   -2.5625    0.5280 C   0  0  0  0  0  0  0  0  0  0  0  0
   -1.4197   -2.7791    0.1251 O   0  0  0  0  0  0  0  0  0  0  0  0
    1.6395   -4.0779   -0.0301 C   0  0  0  0  0  0  0  0  0  0  0  0
   -0.8741   -5.1235    0.8083 H   0  0  0  0  0  0  0  0  0  0  0  0
    1.1738   -3.3062    1.9318 H   0  0  0  0  0  0  0  0  0  0  0  0
    1.1270   -4.4358   -0.9305 H   0  0  0  0  0  0  0  0  0  0  0  0
    2.2797   -3.2400   -0.3251 H   0  0  0  0  0  0  0  0  0  0  0  0
    2.2827   -4.8880    0.3303 H   0  0  0  0  0  0  0  0  0  0  0  0
    0.3351   -1.3153    0.5316 N   0  0  0  0  0  0  0  0  0  0  0  0
   -0.3268   -0.1184    0.0807 C   0  0  2  0  0  0  0  0  0  0  0  0
    0.4625    0.4694   -1.0851 C   0  0  0  0  0  0  0  0  0  0  0  0
    1.6213    0.1468   -1.3385 O   0  0  0  0  0  0  0  0  0  0  0  0
   -0.5434    0.8872    1.2199 C   0  0  0  0  0  0  0  0  0  0  0  0
   -1.5164    0.3973    2.2949 C   0  0  0  0  0  0  0  0  0  0  0  0
   -3.1585    0.0930    1.5773 S   0  0  0  0  0  0  0  0  0  0  0  0
   -3.6103    1.8068    1.2250 C   0  0  0  0  0  0  0  0  0  0  0  0
    1.2790   -1.2290    0.9021 H   0  0  0  0  0  0  0  0  0  0  0  0
   -1.3032   -0.4420   -0.3000 H   0  0  0  0  0  0  0  0  0  0  0  0
   -0.9208    1.8235    0.7873 H   0  0  0  0  0  0  0  0  0  0  0  0
    0.4248    1.1171    1.6829 H   0  0  0  0  0  0  0  0  0  0  0  0
   -1.6302    1.1410    3.0892 H   0  0  0  0  0  0  0  0  0  0  0  0
   -1.1665   -0.5352    2.7476 H   0  0  0  0  0  0  0  0  0  0  0  0
   -4.6039    1.8437    0.7718 H   0  0  0  0  0  0  0  0  0  0  0  0
   -2.8868    2.2468    0.5341 H   0  0  0  0  0  0  0  0  0  0  0  0
   -3.6182    2.3865    2.1513 H   0  0  0  0  0  0  0  0  0  0  0  0
   -0.2667    1.4180   -1.7875 N   0  0  0  0  0  0  0  0  0  0  0  0
    0.2704    2.1254   -2.9262 C   0  0  2  0  0  0  0  0  0  0  0  0
   -0.2073    3.5696   -2.8507 C   0  0  0  0  0  0  0  0  0  0  0  0
   -1.2062    3.9138   -2.2224 O   0  0  0  0  0  0  0  0  0  0  0  0
   -0.1601    1.4781   -4.2332 C   0  0  0  0  0  0  0  0  0  0  0  0
   -1.2304    1.6031   -1.5253 H   0  0  0  0  0  0  0  0  0  0  0  0
    1.3613    2.0956   -2.8312 H   0  0  0  0  0  0  0  0  0  0  0  0
   -1.2502    1.4986   -4.3460 H   0  0  0  0  0  0  0  0  0  0  0  0
    0.2711    1.9986   -5.0947 H   0  0  0  0  0  0  0  0  0  0  0  0
    0.1584    0.4309   -4.2729 H   0  0  0  0  0  0  0  0  0  0  0  0
    0.5884    4.4224   -3.6029 N   0  0  0  0  0  0  0  0  0  0  0  0
    0.3338    5.8406   -3.7027 C   0  0  0  0  0  0  0  0  0  0  0  0
    1.4078    4.0535   -4.0764 H   0  0  0  0  0  0  0  0  0  0  0  0
   -0.2969    6.0395   -4.5817 H   0  0  0  0  0  0  0  0  0  0  0  0
   -0.1833    6.1850   -2.7950 H   0  0  0  0  0  0  0  0  0  0  0  0
    1.2881    6.3778   -3.8072 H   0  0  0  0  0  0  0  0  0  0  0  0
  1  3  1  0  0  0  0
  1  7  1  0  0  0  0
  1  2  2  0  0  0  0
 35 36  1  0  0  0  0
 36 44  1  0  0  0  0
 36 37  2  0  0  0  0
  8  9  1  0  0  0  0
  9 17  1  0  0  0  0
  9 10  2  0  0  0  0
 18 19  1  0  0  0  0
 19 34  1  0  0  0  0
 19 20  2  0  0  0  0
 35 38  1  0  0  0  0
  8 11  1  0  0  0  0
 44 45  1  0  0  0  0
 23 24  1  0  0  0  0
 21 22  1  0  0  0  0
 18 21  1  0  0  0  0
 22 23  1  0  0  0  0
 34 35  1  0  0  0  0
  7  8  1  0  0  0  0
 17 18  1  0  0  0  0
  3  4  1  0  0  0  0
  3  5  1  0  0  0  0
  3  6  1  0  0  0  0
 38 41  1  0  0  0  0
 38 42  1  0  0  0  0
 38 43  1  0  0  0  0
 11 14  1  0  0  0  0
 11 15  1  0  0  0  0
 11 16  1  0  0  0  0
 45 47  1  0  0  0  0
 45 48  1  0  0  0  0
 45 49  1  0  0  0  0
 24 31  1  0  0  0  0
 24 32  1  0  0  0  0
 24 33  1  0  0  0  0
 21 27  1  0  0  0  0
 21 28  1  0  0  0  0
 22 29  1  0  0  0  0
 22 30  1  0  0  0  0
 35 40  1  0  0  0  0
  8 13  1  0  0  0  0
 18 26  1  0  0  0  0
 44 46  1  0  0  0  0
  7 12  1  0  0  0  0
 34 39  1  0  0  0  0
 17 25  1  0  0  0  0
M  END
$$$$

  -OEChem-05262214473D

 49 48  0     1  0  0  0  0  0999 V2000
   -0.0561   -5.3799    2.6949 C   0  0  0  0  0  0  0  0  0  0  0  0
    0.7325   -5.0736    3.5815 O   0  0  0  0  0  0  0  0  0  0  0  0
   -1.0067   -6.5099    2.9135 C   0  0  0  0  0  0  0  0  0  0  0  0
   -0.5910   -7.4777    2.5899 H   0  0  0  0  0  0  0  0  0  0  0  0
   -1.2629   -6.6440    3.9767 H   0  0  0  0  0  0  0  0  0  0  0  0
   -1.9729   -6.4206    2.3918 H   0  0  0  0  0  0  0  0  0  0  0  0
   -0.1735   -4.7694    1.4571 N   0  0  0  0  0  0  0  0  0  0  0  0
    0.6439   -3.6603    1.0409 C   0  0  2  0  0  0  0  0  0  0  0  0
   -0.2788   -2.5625    0.5280 C   0  0  0  0  0  0  0  0  0  0  0  0
   -1.4197   -2.7791    0.1251 O   0  0  0  0  0  0  0  0  0  0  0  0
    1.6395   -4.0779   -0.0301 C   0  0  0  0  0  0  0  0  0  0  0  0
   -0.8741   -5.1235    0.8083 H   0  0  0  0  0  0  0  0  0  0  0  0
    1.1738   -3.3062    1.9318 H   0  0  0  0  0  0  0  0  0  0  0  0
    1.1270   -4.4358   -0.9305 H   0  0  0  0  0  0  0  0  0  0  0  0
    2.2797   -3.2400   -0.3251 H   0  0  0  0  0  0  0  0  0  0  0  0
    2.2827   -4.8880    0.3303 H   0  0  0  0  0  0  0  0  0  0  0  0
    0.3351   -1.3153    0.5316 N   0  0  0  0  0  0  0  0  0  0  0  0
   -0.3268   -0.1184    0.0807 C   0  0  2  0  0  0  0  0  0  0  0  0
    0.2247    0.2606   -1.2903 C   0  0  0  0  0  0  0  0  0  0  0  0
    1.1124   -0.3765   -1.8537 O   0  0  0  0  0  0  0  0  0  0  0  0
   -0.2186    1.0224    1.1018 C   0  0  0  0  0  0  0  0  0  0  0  0
   -0.9622    0.7475    2.4110 C   0  0  0  0  0  0  0  0  0  0  0  0
   -2.7387    0.5218    2.0995 S   0  0  0  0  0  0  0  0  0  0  0  0
   -3.1393    2.2213    1.6340 C   0  0  0  0  0  0  0  0  0  0  0  0
    1.2790   -1.2290    0.9021 H   0  0  0  0  0  0  0  0  0  0  0  0
   -1.3827   -0.3887   -0.0417 H   0  0  0  0  0  0  0  0  0  0  0  0
   -0.6173    1.9367    0.6422 H   0  0  0  0  0  0  0  0  0  0  0  0
    0.8411    1.2098    1.3178 H   0  0  0  0  0  0  0  0  0  0  0  0
   -0.8476    1.5815    3.1098 H   0  0  0  0  0  0  0  0  0  0  0  0
   -0.5855   -0.1582    2.8954 H   0  0  0  0  0  0  0  0  0  0  0  0
   -4.2035    2.3013    1.3988 H   0  0  0  0  0  0  0  0  0  0  0  0
   -2.5574    2.5125    0.7560 H   0  0  0  0  0  0  0  0  0  0  0  0
   -2.9038    2.8976    2.4593 H   0  0  0  0  0  0  0  0  0  0  0  0
   -0.3666    1.4100   -1.7947 N   0  0  0  0  0  0  0  0  0  0  0  0
   -0.0019    1.9760   -3.0722 C   0  0  2  0  0  0  0  0  0  0  0  0
    0.0072    3.4923   -2.9294 C   0  0  0  0  0  0  0  0  0  0  0  0
   -0.6193    4.0874   -2.0551 O   0  0  0  0  0  0  0  0  0  0  0  0
   -0.9637    1.5388   -4.1660 C   0  0  0  0  0  0  0  0  0  0  0  0
   -1.1140    1.8582   -1.2731 H   0  0  0  0  0  0  0  0  0  0  0  0
    1.0108    1.6237   -3.2967 H   0  0  0  0  0  0  0  0  0  0  0  0
   -1.9836    1.8827   -3.9584 H   0  0  0  0  0  0  0  0  0  0  0  0
   -0.6694    1.9457   -5.1391 H   0  0  0  0  0  0  0  0  0  0  0  0
   -0.9912    0.4468   -4.2471 H   0  0  0  0  0  0  0  0  0  0  0  0
    0.7624    4.1052   -3.9194 N   0  0  0  0  0  0  0  0  0  0  0  0
    0.9161    5.5386   -4.0076 C   0  0  0  0  0  0  0  0  0  0  0  0
    1.2631    3.5325   -4.5924 H   0  0  0  0  0  0  0  0  0  0  0  0
    0.1438    5.9504   -4.6740 H   0  0  0  0  0  0  0  0  0  0  0  0
    0.8098    5.9810   -3.0061 H   0  0  0  0  0  0  0  0  0  0  0  0
    1.9120    5.7764   -4.4097 H   0  0  0  0  0  0  0  0  0  0  0  0
  1  3  1  0  0  0  0
  1  7  1  0  0  0  0
  1  2  2  0  0  0  0
 35 36  1  0  0  0  0
 36 44  1  0  0  0  0
 36 37  2  0  0  0  0
  8  9  1  0  0  0  0
  9 17  1  0  0  0  0
  9 10  2  0  0  0  0
 18 19  1  0  0  0  0
 19 34  1  0  0  0  0
 19 20  2  0  0  0  0
 35 38  1  0  0  0  0
  8 11  1  0  0  0  0
 44 45  1  0  0  0  0
 23 24  1  0  0  0  0
 21 22  1  0  0  0  0
 18 21  1  0  0  0  0
 22 23  1  0  0  0  0
 34 35  1  0  0  0  0
  7  8  1  0  0  0  0
 17 18  1  0  0  0  0
  3  4  1  0  0  0  0
  3  5  1  0  0  0  0
  3  6  1  0  0  0  0
 38 41  1  0  0  0  0
 38 42  1  0  0  0  0
 38 43  1  0  0  0  0
 11 14  1  0  0  0  0
 11 15  1  0  0  0  0
 11 16  1  0  0  0  0
 45 47  1  0  0  0  0
 45 48  1  0  0  0  0
 45 49  1  0  0  0  0
 24 31  1  0  0  0  0
 24 32  1  0  0  0  0
 24 33  1  0  0  0  0
 21 27  1  0  0  0  0
 21 28  1  0  0  0  0
 22 29  1  0  0  0  0
 22 30  1  0  0  0  0
 35 40  1  0  0  0  0
  8 13  1  0  0  0  0
 18 26  1  0  0  0  0
 44 46  1  0  0  0  0
  7 12  1  0  0  0  0
 34 39  1  0  0  0  0
 17 25  1  0  0  0  0
M  END
$$$$

  -OEChem-05262214473D

 49 48  0     1  0  0  0  0  0999 V2000
   -0.0561   -5.3799    2.6949 C   0  0  0  0  0  0  0  0  0  0  0  0
    0.7325   -5.0736    3.5815 O   0  0  0  0  0  0  0  0  0  0  0  0
   -1.0067   -6.5099    2.9135 C   0  0  0  0  0  0  0  0  0  0  0  0
   -0.5910   -7.4777    2.5899 H   0  0  0  0  0  0  0  0  0  0  0  0
   -1.2629   -6.6440    3.9767 H   0  0  0  0  0  0  0  0  0  0  0  0
   -1.9729   -6.4206    2.3918 H   0  0  0  0  0  0  0  0  0  0  0  0
   -0.1735   -4.7694    1.4571 N   0  0  0  0  0  0  0  0  0  0  0  0
    0.6439   -3.6603    1.0409 C   0  0  2  0  0  0  0  0  0  0  0  0
   -0.2788   -2.5625    0.5280 C   0  0  0  0  0  0  0  0  0  0  0  0
   -1.4197   -2.7791    0.1251 O   0  0  0  0  0  0  0  0  0  0  0  0
    1.6395   -4.0779   -0.0301 C   0  0  0  0  0  0  0  0  0  0  0  0
   -0.8741   -5.1235    0.8083 H   0  0  0  0  0  0  0  0  0  0  0  0
    1.1738   -3.3062    1.9318 H   0  0  0  0  0  0  0  0  0  0  0  0
    1.1270   -4.4358   -0.9305 H   0  0  0  0  0  0  0  0  0  0  0  0
    2.2797   -3.2400   -0.3251 H   0  0  0  0  0  0  0  0  0  0  0  0
    2.2827   -4.8880    0.3303 H   0  0  0  0  0  0  0  0  0  0  0  0
    0.3351   -1.3153    0.5316 N   0  0  0  0  0  0  0  0  0  0  0  0
   -0.3268   -0.1184    0.0807 C   0  0  2  0  0  0  0  0  0  0  0  0
    0.2247    0.2606   -1.2903 C   0  0  0  0  0  0  0  0  0  0  0  0
    0.9060   -0.5029   -1.9716 O   0  0  0  0  0  0  0  0  0  0  0  0
   -0.2186    1.0224    1.1018 C   0  0  0  0  0  0  0  0  0  0  0  0
   -0.9622    0.7475    2.4110 C   0  0  0  0  0  0  0  0  0  0  0  0
   -2.7387    0.5218    2.0995 S   0  0  0  0  0  0  0  0  0  0  0  0
   -3.1393    2.2213    1.6340 C   0  0  0  0  0  0  0  0  0  0  0  0
    1.2790   -1.2290    0.9021 H   0  0  0  0  0  0  0  0  0  0  0  0
   -1.3827   -0.3887   -0.0417 H   0  0  0  0  0  0  0  0  0  0  0  0
   -0.6173    1.9367    0.6422 H   0  0  0  0  0  0  0  0  0  0  0  0
    0.8411    1.2098    1.3178 H   0  0  0  0  0  0  0  0  0  0  0  0
   -0.8476    1.5815    3.1098 H   0  0  0  0  0  0  0  0  0  0  0  0
   -0.5855   -0.1582    2.8954 H   0  0  0  0  0  0  0  0  0  0  0  0
   -4.2035    2.3013    1.3988 H   0  0  0  0  0  0  0  0  0  0  0  0
   -2.5574    2.5125    0.7560 H   0  0  0  0  0  0  0  0  0  0  0  0
   -2.9038    2.8976    2.4593 H   0  0  0  0  0  0  0  0  0  0  0  0
   -0.1051    1.5600   -1.6480 N   0  0  0  0  0  0  0  0  0  0  0  0
    0.3142    2.1535   -2.8959 C   0  0  2  0  0  0  0  0  0  0  0  0
    0.6879    3.6047   -2.6244 C   0  0  0  0  0  0  0  0  0  0  0  0
    0.2668    4.2362   -1.6575 O   0  0  0  0  0  0  0  0  0  0  0  0
   -0.7804    2.0617   -3.9477 C   0  0  0  0  0  0  0  0  0  0  0  0
   -0.6970    2.1127   -1.0349 H   0  0  0  0  0  0  0  0  0  0  0  0
    1.2019    1.6027   -3.2256 H   0  0  0  0  0  0  0  0  0  0  0  0
   -1.6779    2.6076   -3.6350 H   0  0  0  0  0  0  0  0  0  0  0  0
   -0.4507    2.4864   -4.9016 H   0  0  0  0  0  0  0  0  0  0  0  0
   -1.0687    1.0191   -4.1201 H   0  0  0  0  0  0  0  0  0  0  0  0
    1.5125    4.1249   -3.6122 N   0  0  0  0  0  0  0  0  0  0  0  0
    1.9947    5.4861   -3.5882 C   0  0  0  0  0  0  0  0  0  0  0  0
    1.8277    3.5237   -4.3678 H   0  0  0  0  0  0  0  0  0  0  0  0
    1.3069    6.1294   -4.1566 H   0  0  0  0  0  0  0  0  0  0  0  0
    2.0492    5.8374   -2.5472 H   0  0  0  0  0  0  0  0  0  0  0  0
    2.9957    5.5284   -4.0423 H   0  0  0  0  0  0  0  0  0  0  0  0
  1  3  1  0  0  0  0
  1  7  1  0  0  0  0
  1  2  2  0  0  0  0
 35 36  1  0  0  0  0
 36 44  1  0  0  0  0
 36 37  2  0  0  0  0
  8  9  1  0  0  0  0
  9 17  1  0  0  0  0
  9 10  2  0  0  0  0
 18 19  1  0  0  0  0
 19 34  1  0  0  0  0
 19 20  2  0  0  0  0
 35 38  1  0  0  0  0
  8 11  1  0  0  0  0
 44 45  1  0  0  0  0
 23 24  1  0  0  0  0
 21 22  1  0  0  0  0
 18 21  1  0  0  0  0
 22 23  1  0  0  0  0
 34 35  1  0  0  0  0
  7  8  1  0  0  0  0
 17 18  1  0  0  0  0
  3  4  1  0  0  0  0
  3  5  1  0  0  0  0
  3  6  1  0  0  0  0
 38 41  1  0  0  0  0
 38 42  1  0  0  0  0
 38 43  1  0  0  0  0
 11 14  1  0  0  0  0
 11 15  1  0  0  0  0
 11 16  1  0  0  0  0
 45 47  1  0  0  0  0
 45 48  1  0  0  0  0
 45 49  1  0  0  0  0
 24 31  1  0  0  0  0
 24 32  1  0  0  0  0
 24 33  1  0  0  0  0
 21 27  1  0  0  0  0
 21 28  1  0  0  0  0
 22 29  1  0  0  0  0
 22 30  1  0  0  0  0
 35 40  1  0  0  0  0
  8 13  1  0  0  0  0
 18 26  1  0  0  0  0
 44 46  1  0  0  0  0
  7 12  1  0  0  0  0
 34 39  1  0  0  0  0
 17 25  1  0  0  0  0
M  END
$$$$

  -OEChem-05262214473D

 49 48  0     1  0  0  0  0  0999 V2000
   -0.0561   -5.3799    2.6949 C   0  0  0  0  0  0  0  0  0  0  0  0
    0.7325   -5.0736    3.5815 O   0  0  0  0  0  0  0  0  0  0  0  0
   -1.0067   -6.5099    2.9135 C   0  0  0  0  0  0  0  0  0  0  0  0
   -0.5910   -7.4777    2.5899 H   0  0  0  0  0  0  0  0  0  0  0  0
   -1.2629   -6.6440    3.9767 H   0  0  0  0  0  0  0  0  0  0  0  0
   -1.9729   -6.4206    2.3918 H   0  0  0  0  0  0  0  0  0  0  0  0
   -0.1735   -4.7694    1.4571 N   0  0  0  0  0  0  0  0  0  0  0  0
    0.6439   -3.6603    1.0409 C   0  0  2  0  0  0  0  0  0  0  0  0
   -0.2788   -2.5625    0.5280 C   0  0  0  0  0  0  0  0  0  0  0  0
   -1.4197   -2.7791    0.1251 O   0  0  0  0  0  0  0  0  0  0  0  0
    1.6395   -4.0779   -0.0301 C   0  0  0  0  0  0  0  0  0  0  0  0
   -0.8741   -5.1235    0.8083 H   0  0  0  0  0  0  0  0  0  0  0  0
    1.1738   -3.3062    1.9318 H   0  0  0  0  0  0  0  0  0  0  0  0
    1.1270   -4.4358   -0.9305 H   0  0  0  0  0  0  0  0  0  0  0  0
    2.2797   -3.2400   -0.3251 H   0  0  0  0  0  0  0  0  0  0  0  0
    2.2827   -4.8880    0.3303 H   0  0  0  0  0  0  0  0  0  0  0  0
    0.3351   -1.3153    0.5316 N   0  0  0  0  0  0  0  0  0  0  0  0
   -0.3268   -0.1184    0.0807 C   0  0  2  0  0  0  0  0  0  0  0  0
    0.2247    0.2606   -1.2903 C   0  0  0  0  0  0  0  0  0  0  0  0
    0.6696   -0.5659   -2.0841 O   0  0  0  0  0  0  0  0  0  0  0  0
   -0.2186    1.0224    1.1018 C   0  0  0  0  0  0  0  0  0  0  0  0
   -0.9622    0.7475    2.4110 C   0  0  0  0  0  0  0  0  0  0  0  0
   -2.7387    0.5218    2.0995 S   0  0  0  0  0  0  0  0  0  0  0  0
   -3.1393    2.2213    1.6340 C   0  0  0  0  0  0  0  0  0  0  0  0
    1.2790   -1.2290    0.9021 H   0  0  0  0  0  0  0  0  0  0  0  0
   -1.3827   -0.3887   -0.0417 H   0  0  0  0  0  0  0  0  0  0  0  0
   -0.6173    1.9367    0.6422 H   0  0  0  0  0  0  0  0  0  0  0  0
    0.8411    1.2098    1.3178 H   0  0  0  0  0  0  0  0  0  0  0  0
   -0.8476    1.5815    3.1098 H   0  0  0  0  0  0  0  0  0  0  0  0
   -0.5855   -0.1582    2.8954 H   0  0  0  0  0  0  0  0  0  0  0  0
   -4.2035    2.3013    1.3988 H   0  0  0  0  0  0  0  0  0  0  0  0
   -2.5574    2.5125    0.7560 H   0  0  0  0  0  0  0  0  0  0  0  0
   -2.9038    2.8976    2.4593 H   0  0  0  0  0  0  0  0  0  0  0  0
    0.1918    1.6303   -1.5091 N   0  0  0  0  0  0  0  0  0  0  0  0
    0.6722    2.2349   -2.7294 C   0  0  2  0  0  0  0  0  0  0  0  0
    1.3912    3.5265   -2.3631 C   0  0  0  0  0  0  0  0  0  0  0  0
    1.1829    4.1366   -1.3165 O   0  0  0  0  0  0  0  0  0  0  0  0
   -0.4676    2.5037   -3.6997 C   0  0  0  0  0  0  0  0  0  0  0  0
   -0.2197    2.2392   -0.8079 H   0  0  0  0  0  0  0  0  0  0  0  0
    1.3863    1.5313   -3.1712 H   0  0  0  0  0  0  0  0  0  0  0  0
   -1.1933    3.2066   -3.2745 H   0  0  0  0  0  0  0  0  0  0  0  0
   -0.0983    2.9357   -4.6357 H   0  0  0  0  0  0  0  0  0  0  0  0
   -1.0023    1.5781   -3.9389 H   0  0  0  0  0  0  0  0  0  0  0  0
    2.2614    3.9407   -3.3618 N   0  0  0  0  0  0  0  0  0  0  0  0
    3.0514    5.1453   -3.2573 C   0  0  0  0  0  0  0  0  0  0  0  0
    2.3853    3.3628   -4.1879 H   0  0  0  0  0  0  0  0  0  0  0  0
    2.5053    5.9834   -3.7149 H   0  0  0  0  0  0  0  0  0  0  0  0
    3.2424    5.3675   -2.1971 H   0  0  0  0  0  0  0  0  0  0  0  0
    4.0085    5.0024   -3.7802 H   0  0  0  0  0  0  0  0  0  0  0  0
  1  3  1  0  0  0  0
  1  7  1  0  0  0  0
  1  2  2  0  0  0  0
 35 36  1  0  0  0  0
 36 44  1  0  0  0  0
 36 37  2  0  0  0  0
  8  9  1  0  0  0  0
  9 17  1  0  0  0  0
  9 10  2  0  0  0  0
 18 19  1  0  0  0  0
 19 34  1  0  0  0  0
 19 20  2  0  0  0  0
 35 38  1  0  0  0  0
  8 11  1  0  0  0  0
 44 45  1  0  0  0  0
 23 24  1  0  0  0  0
 21 22  1  0  0  0  0
 18 21  1  0  0  0  0
 22 23  1  0  0  0  0
 34 35  1  0  0  0  0
  7  8  1  0  0  0  0
 17 18  1  0  0  0  0
  3  4  1  0  0  0  0
  3  5  1  0  0  0  0
  3  6  1  0  0  0  0
 38 41  1  0  0  0  0
 38 42  1  0  0  0  0
 38 43  1  0  0  0  0
 11 14  1  0  0  0  0
 11 15  1  0  0  0  0
 11 16  1  0  0  0  0
 45 47  1  0  0  0  0
 45 48  1  0  0  0  0
 45 49  1  0  0  0  0
 24 31  1  0  0  0  0
 24 32  1  0  0  0  0
 24 33  1  0  0  0  0
 21 27  1  0  0  0  0
 21 28  1  0  0  0  0
 22 29  1  0  0  0  0
 22 30  1  0  0  0  0
 35 40  1  0  0  0  0
  8 13  1  0  0  0  0
 18 26  1  0  0  0  0
 44 46  1  0  0  0  0
  7 12  1  0  0  0  0
 34 39  1  0  0  0  0
 17 25  1  0  0  0  0
M  END
$$$$

  -OEChem-05262214473D

 49 48  0     1  0  0  0  0  0999 V2000
   -0.0561   -5.3799    2.6949 C   0  0  0  0  0  0  0  0  0  0  0  0
    0.7325   -5.0736    3.5815 O   0  0  0  0  0  0  0  0  0  0  0  0
   -1.0067   -6.5099    2.9135 C   0  0  0  0  0  0  0  0  0  0  0  0
   -0.5910   -7.4777    2.5899 H   0  0  0  0  0  0  0  0  0  0  0  0
   -1.2629   -6.6440    3.9767 H   0  0  0  0  0  0  0  0  0  0  0  0
   -1.9729   -6.4206    2.3918 H   0  0  0  0  0  0  0  0  0  0  0  0
   -0.1735   -4.7694    1.4571 N   0  0  0  0  0  0  0  0  0  0  0  0
    0.6439   -3.6603    1.0409 C   0  0  2  0  0  0  0  0  0  0  0  0
   -0.2788   -2.5625    0.5280 C   0  0  0  0  0  0  0  0  0  0  0  0
   -1.4197   -2.7791    0.1251 O   0  0  0  0  0  0  0  0  0  0  0  0
    1.6395   -4.0779   -0.0301 C   0  0  0  0  0  0  0  0  0  0  0  0
   -0.8741   -5.1235    0.8083 H   0  0  0  0  0  0  0  0  0  0  0  0
    1.1738   -3.3062    1.9318 H   0  0  0  0  0  0  0  0  0  0  0  0
    1.1270   -4.4358   -0.9305 H   0  0  0  0  0  0  0  0  0  0  0  0
    2.2797   -3.2400   -0.3251 H   0  0  0  0  0  0  0  0  0  0  0  0
    2.2827   -4.8880    0.3303 H   0  0  0  0  0  0  0  0  0  0  0  0
    0.3351   -1.3153    0.5316 N   0  0  0  0  0  0  0  0  0  0  0  0
   -0.3268   -0.1184    0.0807 C   0  0  2  0  0  0  0  0  0  0  0  0
    0.2247    0.2606   -1.2903 C   0  0  0  0  0  0  0  0  0  0  0  0
    0.4194   -0.5613   -2.1835 O   0  0  0  0  0  0  0  0  0  0  0  0
   -0.2186    1.0224    1.1018 C   0  0  0  0  0  0  0  0  0  0  0  0
   -0.9622    0.7475    2.4110 C   0  0  0  0  0  0  0  0  0  0  0  0
   -2.7387    0.5218    2.0995 S   0  0  0  0  0  0  0  0  0  0  0  0
   -3.1393    2.2213    1.6340 C   0  0  0  0  0  0  0  0  0  0  0  0
    1.2790   -1.2290    0.9021 H   0  0  0  0  0  0  0  0  0  0  0  0
   -1.3827   -0.3887   -0.0417 H   0  0  0  0  0  0  0  0  0  0  0  0
   -0.6173    1.9367    0.6422 H   0  0  0  0  0  0  0  0  0  0  0  0
    0.8411    1.2098    1.3178 H   0  0  0  0  0  0  0  0  0  0  0  0
   -0.8476    1.5815    3.1098 H   0  0  0  0  0  0  0  0  0  0  0  0
   -0.5855   -0.1582    2.8954 H   0  0  0  0  0  0  0  0  0  0  0  0
   -4.2035    2.3013    1.3988 H   0  0  0  0  0  0  0  0  0  0  0  0
   -2.5574    2.5125    0.7560 H   0  0  0  0  0  0  0  0  0  0  0  0
   -2.9038    2.8976    2.4593 H   0  0  0  0  0  0  0  0  0  0  0  0
    0.5039    1.6162   -1.3874 N   0  0  0  0  0  0  0  0  0  0  0  0
    1.0476    2.2147   -2.5840 C   0  0  2  0  0  0  0  0  0  0  0  0
    2.0692    3.2629   -2.1632 C   0  0  0  0  0  0  0  0  0  0  0  0
    2.0665    3.7954   -1.0553 O   0  0  0  0  0  0  0  0  0  0  0  0
   -0.0467    2.8346   -3.4389 C   0  0  0  0  0  0  0  0  0  0  0  0
    0.2854    2.2291   -0.6075 H   0  0  0  0  0  0  0  0  0  0  0  0
    1.5512    1.4144   -3.1371 H   0  0  0  0  0  0  0  0  0  0  0  0
   -0.5627    3.6386   -2.9014 H   0  0  0  0  0  0  0  0  0  0  0  0
    0.3636    3.2628   -4.3594 H   0  0  0  0  0  0  0  0  0  0  0  0
   -0.7964    2.0856   -3.7158 H   0  0  0  0  0  0  0  0  0  0  0  0
    2.9580    3.5652   -3.1853 N   0  0  0  0  0  0  0  0  0  0  0  0
    4.0140    4.5393   -3.0375 C   0  0  0  0  0  0  0  0  0  0  0  0
    2.8981    3.0609   -4.0650 H   0  0  0  0  0  0  0  0  0  0  0  0
    3.6573    5.5223   -3.3789 H   0  0  0  0  0  0  0  0  0  0  0  0
    4.3082    4.6033   -1.9795 H   0  0  0  0  0  0  0  0  0  0  0  0
    4.8813    4.2342   -3.6414 H   0  0  0  0  0  0  0  0  0  0  0  0
  1  3  1  0  0  0  0
  1  7  1  0  0  0  0
  1  2  2  0  0  0  0
 35 36  1  0  0  0  0
 36 44  1  0  0  0  0
 36 37  2  0  0  0  0
  8  9  1  0  0  0  0
  9 17  1  0  0  0  0
  9 10  2  0  0  0  0
 18 19  1  0  0  0  0
 19 34  1  0  0  0  0
 19 20  2  0  0  0  0
 35 38  1  0  0  0  0
  8 11  1  0  0  0  0
 44 45  1  0  0  0  0
 23 24  1  0  0  0  0
 21 22  1  0  0  0  0
 18 21  1  0  0  0  0
 22 23  1  0  0  0  0
 34 35  1  0  0  0  0
  7  8  1  0  0  0  0
 17 18  1  0  0  0  0
  3  4  1  0  0  0  0
  3  5  1  0  0  0  0
  3  6  1  0  0  0  0
 38 41  1  0  0  0  0
 38 42  1  0  0  0  0
 38 43  1  0  0  0  0
 11 14  1  0  0  0  0
 11 15  1  0  0  0  0
 11 16  1  0  0  0  0
 45 47  1  0  0  0  0
 45 48  1  0  0  0  0
 45 49  1  0  0  0  0
 24 31  1  0  0  0  0
 24 32  1  0  0  0  0
 24 33  1  0  0  0  0
 21 27  1  0  0  0  0
 21 28  1  0  0  0  0
 22 29  1  0  0  0  0
 22 30  1  0  0  0  0
 35 40  1  0  0  0  0
  8 13  1  0  0  0  0
 18 26  1  0  0  0  0
 44 46  1  0  0  0  0
  7 12  1  0  0  0  0
 34 39  1  0  0  0  0
 17 25  1  0  0  0  0
M  END
$$$$

  -OEChem-05262214473D

 49 48  0     1  0  0  0  0  0999 V2000
   -0.0561   -5.3799    2.6949 C   0  0  0  0  0  0  0  0  0  0  0  0
    0.7325   -5.0736    3.5815 O   0  0  0  0  0  0  0  0  0  0  0  0
   -1.0067   -6.5099    2.9135 C   0  0  0  0  0  0  0  0  0  0  0  0
   -0.5910   -7.4777    2.5899 H   0  0  0  0  0  0  0  0  0  0  0  0
   -1.2629   -6.6440    3.9767 H   0  0  0  0  0  0  0  0  0  0  0  0
   -1.9729   -6.4206    2.3918 H   0  0  0  0  0  0  0  0  0  0  0  0
   -0.1735   -4.7694    1.4571 N   0  0  0  0  0  0  0  0  0  0  0  0
    0.6439   -3.6603    1.0409 C   0  0  2  0  0  0  0  0  0  0  0  0
   -0.2788   -2.5625    0.5280 C   0  0  0  0  0  0  0  0  0  0  0  0
   -1.4197   -2.7791    0.1251 O   0  0  0  0  0  0  0  0  0  0  0  0
    1.6395   -4.0779   -0.0301 C   0  0  0  0  0  0  0  0  0  0  0  0
   -0.8741   -5.1235    0.8083 H   0  0  0  0  0  0  0  0  0  0  0  0
    1.1738   -3.3062    1.9318 H   0  0  0  0  0  0  0  0  0  0  0  0
    1.1270   -4.4358   -0.9305 H   0  0  0  0  0  0  0  0  0  0  0  0
    2.2797   -3.2400   -0.3251 H   0  0  0  0  0  0  0  0  0  0  0  0
    2.2827   -4.8880    0.3303 H   0  0  0  0  0  0  0  0  0  0  0  0
    0.3351   -1.3153    0.5316 N   0  0  0  0  0  0  0  0  0  0  0  0
   -0.3268   -0.1184    0.0807 C   0  0  2  0  0  0  0  0  0  0  0  0
    0.2247    0.2606   -1.2903 C   0  0  0  0  0  0  0  0  0  0  0  0
    0.1724   -0.4893   -2.2630 O   0  0  0  0  0  0  0  0  0  0  0  0
   -0.2186    1.0224    1.1018 C   0  0  0  0  0  0  0  0  0  0  0  0
   -0.9622    0.7475    2.4110 C   0  0  0  0  0  0  0  0  0  0  0  0
   -2.7387    0.5218    2.0995 S   0  0  0  0  0  0  0  0  0  0  0  0
   -3.1393    2.2213    1.6340 C   0  0  0  0  0  0  0  0  0  0  0  0
    1.2790   -1.2290    0.9021 H   0  0  0  0  0  0  0  0  0  0  0  0
   -1.3827   -0.3887   -0.0417 H   0  0  0  0  0  0  0  0  0  0  0  0
   -0.6173    1.9367    0.6422 H   0  0  0  0  0  0  0  0  0  0  0  0
    0.8411    1.2098    1.3178 H   0  0  0  0  0  0  0  0  0  0  0  0
   -0.8476    1.5815    3.1098 H   0  0  0  0  0  0  0  0  0  0  0  0
   -0.5855   -0.1582    2.8954 H   0  0  0  0  0  0  0  0  0  0  0  0
   -4.2035    2.3013    1.3988 H   0  0  0  0  0  0  0  0  0  0  0  0
   -2.5574    2.5125    0.7560 H   0  0  0  0  0  0  0  0  0  0  0  0
   -2.9038    2.8976    2.4593 H   0  0  0  0  0  0  0  0  0  0  0  0
    0.8100    1.5186   -1.2913 N   0  0  0  0  0  0  0  0  0  0  0  0
    1.4148    2.0942   -2.4696 C   0  0  2  0  0  0  0  0  0  0  0  0
    2.6756    2.8319   -2.0384 C   0  0  0  0  0  0  0  0  0  0  0  0
    2.8574    3.2359   -0.8918 O   0  0  0  0  0  0  0  0  0  0  0  0
    0.4535    3.0320   -3.1831 C   0  0  0  0  0  0  0  0  0  0  0  0
    0.7839    2.0832   -0.4473 H   0  0  0  0  0  0  0  0  0  0  0  0
    1.6855    1.2599   -3.1258 H   0  0  0  0  0  0  0  0  0  0  0  0
    0.1709    3.8744   -2.5411 H   0  0  0  0  0  0  0  0  0  0  0  0
    0.9036    3.4455   -4.0917 H   0  0  0  0  0  0  0  0  0  0  0  0
   -0.4652    2.5070   -3.4660 H   0  0  0  0  0  0  0  0  0  0  0  0
    3.5549    3.0239   -3.0948 N   0  0  0  0  0  0  0  0  0  0  0  0
    4.8171    3.7095   -2.9438 C   0  0  0  0  0  0  0  0  0  0  0  0
    3.3312    2.6385   -4.0076 H   0  0  0  0  0  0  0  0  0  0  0  0
    4.6843    4.7775   -3.1716 H   0  0  0  0  0  0  0  0  0  0  0  0
    5.1739    3.5969   -1.9094 H   0  0  0  0  0  0  0  0  0  0  0  0
    5.5547    3.2762   -3.6354 H   0  0  0  0  0  0  0  0  0  0  0  0
  1  3  1  0  0  0  0
  1  7  1  0  0  0  0
  1  2  2  0  0  0  0
 35 36  1  0  0  0  0
 36 44  1  0  0  0  0
 36 37  2  0  0  0  0
  8  9  1  0  0  0  0
  9 17  1  0  0  0  0
  9 10  2  0  0  0  0
 18 19  1  0  0  0  0
 19 34  1  0  0  0  0
 19 20  2  0  0  0  0
 35 38  1  0  0  0  0
  8 11  1  0  0  0  0
 44 45  1  0  0  0  0
 23 24  1  0  0  0  0
 21 22  1  0  0  0  0
 18 21  1  0  0  0  0
 22 23  1  0  0  0  0
 34 35  1  0  0  0  0
  7  8  1  0  0  0  0
 17 18  1  0  0  0  0
  3  4  1  0  0  0  0
  3  5  1  0  0  0  0
  3  6  1  0  0  0  0
 38 41  1  0  0  0  0
 38 42  1  0  0  0  0
 38 43  1  0  0  0  0
 11 14  1  0  0  0  0
 11 15  1  0  0  0  0
 11 16  1  0  0  0  0
 45 47  1  0  0  0  0
 45 48  1  0  0  0  0
 45 49  1  0  0  0  0
 24 31  1  0  0  0  0
 24 32  1  0  0  0  0
 24 33  1  0  0  0  0
 21 27  1  0  0  0  0
 21 28  1  0  0  0  0
 22 29  1  0  0  0  0
 22 30  1  0  0  0  0
 35 40  1  0  0  0  0
  8 13  1  0  0  0  0
 18 26  1  0  0  0  0
 44 46  1  0  0  0  0
  7 12  1  0  0  0  0
 34 39  1  0  0  0  0
 17 25  1  0  0  0  0
M  END
$$$$

  -OEChem-05262214473D

 49 48  0     1  0  0  0  0  0999 V2000
   -0.0561   -5.3799    2.6949 C   0  0  0  0  0  0  0  0  0  0  0  0
    0.7325   -5.0736    3.5815 O   0  0  0  0  0  0  0  0  0  0  0  0
   -1.0067   -6.5099    2.9135 C   0  0  0  0  0  0  0  0  0  0  0  0
   -0.5910   -7.4777    2.5899 H   0  0  0  0  0  0  0  0  0  0  0  0
   -1.2629   -6.6440    3.9767 H   0  0  0  0  0  0  0  0  0  0  0  0
   -1.9729   -6.4206    2.3918 H   0  0  0  0  0  0  0  0  0  0  0  0
   -0.1735   -4.7694    1.4571 N   0  0  0  0  0  0  0  0  0  0  0  0
    0.6439   -3.6603    1.0409 C   0  0  2  0  0  0  0  0  0  0  0  0
   -0.2788   -2.5625    0.5280 C   0  0  0  0  0  0  0  0  0  0  0  0
   -1.4197   -2.7791    0.1251 O   0  0  0  0  0  0  0  0  0  0  0  0
    1.6395   -4.0779   -0.0301 C   0  0  0  0  0  0  0  0  0  0  0  0
   -0.8741   -5.1235    0.8083 H   0  0  0  0  0  0  0  0  0  0  0  0
    1.1738   -3.3062    1.9318 H   0  0  0  0  0  0  0  0  0  0  0  0
    1.1270   -4.4358   -0.9305 H   0  0  0  0  0  0  0  0  0  0  0  0
    2.2797   -3.2400   -0.3251 H   0  0  0  0  0  0  0  0  0  0  0  0
    2.2827   -4.8880    0.3303 H   0  0  0  0  0  0  0  0  0  0  0  0
    0.3351   -1.3153    0.5316 N   0  0  0  0  0  0  0  0  0  0  0  0
   -0.3268   -0.1184    0.0807 C   0  0  2  0  0  0  0  0  0  0  0  0
    0.2247    0.2606   -1.2903 C   0  0  0  0  0  0  0  0  0  0  0  0
   -0.0545   -0.3549   -2.3171 O   0  0  0  0  0  0  0  0  0  0  0  0
   -0.2186    1.0224    1.1018 C   0  0  0  0  0  0  0  0  0  0  0  0
   -0.9622    0.7475    2.4110 C   0  0  0  0  0  0  0  0  0  0  0  0
   -2.7387    0.5218    2.0995 S   0  0  0  0  0  0  0  0  0  0  0  0
   -3.1393    2.2213    1.6340 C   0  0  0  0  0  0  0  0  0  0  0  0
    1.2790   -1.2290    0.9021 H   0  0  0  0  0  0  0  0  0  0  0  0
   -1.3827   -0.3887   -0.0417 H   0  0  0  0  0  0  0  0  0  0  0  0
   -0.6173    1.9367    0.6422 H   0  0  0  0  0  0  0  0  0  0  0  0
    0.8411    1.2098    1.3178 H   0  0  0  0  0  0  0  0  0  0  0  0
   -0.8476    1.5815    3.1098 H   0  0  0  0  0  0  0  0  0  0  0  0
   -0.5855   -0.1582    2.8954 H   0  0  0  0  0  0  0  0  0  0  0  0
   -4.2035    2.3013    1.3988 H   0  0  0  0  0  0  0  0  0  0  0  0
   -2.5574    2.5125    0.7560 H   0  0  0  0  0  0  0  0  0  0  0  0
   -2.9038    2.8976    2.4593 H   0  0  0  0  0  0  0  0  0  0  0  0
    1.0890    1.3442   -1.2272 N   0  0  0  0  0  0  0  0  0  0  0  0
    1.7489    1.8818   -2.3939 C   0  0  2  0  0  0  0  0  0  0  0  0
    3.1691    2.2628   -1.9972 C   0  0  0  0  0  0  0  0  0  0  0  0
    3.5017    2.4962   -0.8370 O   0  0  0  0  0  0  0  0  0  0  0  0
    0.9991    3.0824   -2.9496 C   0  0  0  0  0  0  0  0  0  0  0  0
    1.2416    1.8113   -0.3383 H   0  0  0  0  0  0  0  0  0  0  0  0
    1.7800    1.0784   -3.1380 H   0  0  0  0  0  0  0  0  0  0  0  0
    0.9575    3.8977   -2.2182 H   0  0  0  0  0  0  0  0  0  0  0  0
    1.4849    3.4713   -3.8507 H   0  0  0  0  0  0  0  0  0  0  0  0
   -0.0312    2.8137   -3.2067 H   0  0  0  0  0  0  0  0  0  0  0  0
    4.0114    2.3537   -3.0964 N   0  0  0  0  0  0  0  0  0  0  0  0
    5.4058    2.7125   -2.9826 C   0  0  0  0  0  0  0  0  0  0  0  0
    3.6549    2.1244   -4.0195 H   0  0  0  0  0  0  0  0  0  0  0  0
    5.5165    3.7998   -3.1070 H   0  0  0  0  0  0  0  0  0  0  0  0
    5.7806    2.4169   -1.9916 H   0  0  0  0  0  0  0  0  0  0  0  0
    5.9826    2.1937   -3.7625 H   0  0  0  0  0  0  0  0  0  0  0  0
  1  3  1  0  0  0  0
  1  7  1  0  0  0  0
  1  2  2  0  0  0  0
 35 36  1  0  0  0  0
 36 44  1  0  0  0  0
 36 37  2  0  0  0  0
  8  9  1  0  0  0  0
  9 17  1  0  0  0  0
  9 10  2  0  0  0  0
 18 19  1  0  0  0  0
 19 34  1  0  0  0  0
 19 20  2  0  0  0  0
 35 38  1  0  0  0  0
  8 11  1  0  0  0  0
 44 45  1  0  0  0  0
 23 24  1  0  0  0  0
 21 22  1  0  0  0  0
 18 21  1  0  0  0  0
 22 23  1  0  0  0  0
 34 35  1  0  0  0  0
  7  8  1  0  0  0  0
 17 18  1  0  0  0  0
  3  4  1  0  0  0  0
  3  5  1  0  0  0  0
  3  6  1  0  0  0  0
 38 41  1  0  0  0  0
 38 42  1  0  0  0  0
 38 43  1  0  0  0  0
 11 14  1  0  0  0  0
 11 15  1  0  0  0  0
 11 16  1  0  0  0  0
 45 47  1  0  0  0  0
 45 48  1  0  0  0  0
 45 49  1  0  0  0  0
 24 31  1  0  0  0  0
 24 32  1  0  0  0  0
 24 33  1  0  0  0  0
 21 27  1  0  0  0  0
 21 28  1  0  0  0  0
 22 29  1  0  0  0  0
 22 30  1  0  0  0  0
 35 40  1  0  0  0  0
  8 13  1  0  0  0  0
 18 26  1  0  0  0  0
 44 46  1  0  0  0  0
  7 12  1  0  0  0  0
 34 39  1  0  0  0  0
 17 25  1  0  0  0  0
M  END
$$$$

  -OEChem-05262214473D

 49 48  0     1  0  0  0  0  0999 V2000
   -0.0561   -5.3799    2.6949 C   0  0  0  0  0  0  0  0  0  0  0  0
    0.7325   -5.0736    3.5815 O   0  0  0  0  0  0  0  0  0  0  0  0
   -1.0067   -6.5099    2.9135 C   0  0  0  0  0  0  0  0  0  0  0  0
   -0.5910   -7.4777    2.5899 H   0  0  0  0  0  0  0  0  0  0  0  0
   -1.2629   -6.6440    3.9767 H   0  0  0  0  0  0  0  0  0  0  0  0
   -1.9729   -6.4206    2.3918 H   0  0  0  0  0  0  0  0  0  0  0  0
   -0.1735   -4.7694    1.4571 N   0  0  0  0  0  0  0  0  0  0  0  0
    0.6439   -3.6603    1.0409 C   0  0  2  0  0  0  0  0  0  0  0  0
   -0.2788   -2.5625    0.5280 C   0  0  0  0  0  0  0  0  0  0  0  0
   -1.4197   -2.7791    0.1251 O   0  0  0  0  0  0  0  0  0  0  0  0
    1.6395   -4.0779   -0.0301 C   0  0  0  0  0  0  0  0  0  0  0  0
   -0.8741   -5.1235    0.8083 H   0  0  0  0  0  0  0  0  0  0  0  0
    1.1738   -3.3062    1.9318 H   0  0  0  0  0  0  0  0  0  0  0  0
    1.1270   -4.4358   -0.9305 H   0  0  0  0  0  0  0  0  0  0  0  0
    2.2797   -3.2400   -0.3251 H   0  0  0  0  0  0  0  0  0  0  0  0
    2.2827   -4.8880    0.3303 H   0  0  0  0  0  0  0  0  0  0  0  0
    0.3351   -1.3153    0.5316 N   0  0  0  0  0  0  0  0  0  0  0  0
   -0.3268   -0.1184    0.0807 C   0  0  2  0  0  0  0  0  0  0  0  0
    0.2247    0.2606   -1.2903 C   0  0  0  0  0  0  0  0  0  0  0  0
   -0.2459   -0.1672   -2.3423 O   0  0  0  0  0  0  0  0  0  0  0  0
   -0.2186    1.0224    1.1018 C   0  0  0  0  0  0  0  0  0  0  0  0
   -0.9622    0.7475    2.4110 C   0  0  0  0  0  0  0  0  0  0  0  0
   -2.7387    0.5218    2.0995 S   0  0  0  0  0  0  0  0  0  0  0  0
   -3.1393    2.2213    1.6340 C   0  0  0  0  0  0  0  0  0  0  0  0
    1.2790   -1.2290    0.9021 H   0  0  0  0  0  0  0  0  0  0  0  0
   -1.3827   -0.3887   -0.0417 H   0  0  0  0  0  0  0  0  0  0  0  0
   -0.6173    1.9367    0.6422 H   0  0  0  0  0  0  0  0  0  0  0  0
    0.8411    1.2098    1.3178 H   0  0  0  0  0  0  0  0  0  0  0  0
   -0.8476    1.5815    3.1098 H   0  0  0  0  0  0  0  0  0  0  0  0
   -0.5855   -0.1582    2.8954 H   0  0  0  0  0  0  0  0  0  0  0  0
   -4.2035    2.3013    1.3988 H   0  0  0  0  0  0  0  0  0  0  0  0
   -2.5574    2.5125    0.7560 H   0  0  0  0  0  0  0  0  0  0  0  0
   -2.9038    2.8976    2.4593 H   0  0  0  0  0  0  0  0  0  0  0  0
    1.3221    1.1048   -1.1996 N   0  0  0  0  0  0  0  0  0  0  0  0
    2.0270    1.5918   -2.3622 C   0  0  2  0  0  0  0  0  0  0  0  0
    3.5161    1.5945   -2.0423 C   0  0  0  0  0  0  0  0  0  0  0  0
    3.9556    1.6267   -0.8948 O   0  0  0  0  0  0  0  0  0  0  0  0
    1.5528    2.9824   -2.7545 C   0  0  0  0  0  0  0  0  0  0  0  0
    1.6276    1.4320   -0.2879 H   0  0  0  0  0  0  0  0  0  0  0  0
    1.8283    0.8822   -3.1728 H   0  0  0  0  0  0  0  0  0  0  0  0
    1.7435    3.7071   -1.9547 H   0  0  0  0  0  0  0  0  0  0  0  0
    2.0679    3.3384   -3.6529 H   0  0  0  0  0  0  0  0  0  0  0  0
    0.4760    2.9847   -2.9553 H   0  0  0  0  0  0  0  0  0  0  0  0
    4.2964    1.6004   -3.1900 N   0  0  0  0  0  0  0  0  0  0  0  0
    5.7400    1.6161   -3.1512 C   0  0  0  0  0  0  0  0  0  0  0  0
    3.8472    1.5536   -4.0999 H   0  0  0  0  0  0  0  0  0  0  0  0
    6.0971    2.6559   -3.1897 H   0  0  0  0  0  0  0  0  0  0  0  0
    6.0868    1.1437   -2.2203 H   0  0  0  0  0  0  0  0  0  0  0  0
    6.1360    1.0604   -4.0140 H   0  0  0  0  0  0  0  0  0  0  0  0
  1  3  1  0  0  0  0
  1  7  1  0  0  0  0
  1  2  2  0  0  0  0
 35 36  1  0  0  0  0
 36 44  1  0  0  0  0
 36 37  2  0  0  0  0
  8  9  1  0  0  0  0
  9 17  1  0  0  0  0
  9 10  2  0  0  0  0
 18 19  1  0  0  0  0
 19 34  1  0  0  0  0
 19 20  2  0  0  0  0
 35 38  1  0  0  0  0
  8 11  1  0  0  0  0
 44 45  1  0  0  0  0
 23 24  1  0  0  0  0
 21 22  1  0  0  0  0
 18 21  1  0  0  0  0
 22 23  1  0  0  0  0
 34 35  1  0  0  0  0
  7  8  1  0  0  0  0
 17 18  1  0  0  0  0
  3  4  1  0  0  0  0
  3  5  1  0  0  0  0
  3  6  1  0  0  0  0
 38 41  1  0  0  0  0
 38 42  1  0  0  0  0
 38 43  1  0  0  0  0
 11 14  1  0  0  0  0
 11 15  1  0  0  0  0
 11 16  1  0  0  0  0
 45 47  1  0  0  0  0
 45 48  1  0  0  0  0
 45 49  1  0  0  0  0
 24 31  1  0  0  0  0
 24 32  1  0  0  0  0
 24 33  1  0  0  0  0
 21 27  1  0  0  0  0
 21 28  1  0  0  0  0
 22 29  1  0  0  0  0
 22 30  1  0  0  0  0
 35 40  1  0  0  0  0
  8 13  1  0  0  0  0
 18 26  1  0  0  0  0
 44 46  1  0  0  0  0
  7 12  1  0  0  0  0
 34 39  1  0  0  0  0
 17 25  1  0  0  0  0
M  END
$$$$

  -OEChem-05262214473D

 49 48  0     1  0  0  0  0  0999 V2000
   -0.0561   -5.3799    2.6949 C   0  0  0  0  0  0  0  0  0  0  0  0
    0.7325   -5.0736    3.5815 O   0  0  0  0  0  0  0  0  0  0  0  0
   -1.0067   -6.5099    2.9135 C   0  0  0  0  0  0  0  0  0  0  0  0
   -0.5910   -7.4777    2.5899 H   0  0  0  0  0  0  0  0  0  0  0  0
   -1.2629   -6.6440    3.9767 H   0  0  0  0  0  0  0  0  0  0  0  0
   -1.9729   -6.4206    2.3918 H   0  0  0  0  0  0  0  0  0  0  0  0
   -0.1735   -4.7694    1.4571 N   0  0  0  0  0  0  0  0  0  0  0  0
    0.6439   -3.6603    1.0409 C   0  0  2  0  0  0  0  0  0  0  0  0
   -0.2788   -2.5625    0.5280 C   0  0  0  0  0  0  0  0  0  0  0  0
   -1.4197   -2.7791    0.1251 O   0  0  0  0  0  0  0  0  0  0  0  0
    1.6395   -4.0779   -0.0301 C   0  0  0  0  0  0  0  0  0  0  0  0
   -0.8741   -5.1235    0.8083 H   0  0  0  0  0  0  0  0  0  0  0  0
    1.1738   -3.3062    1.9318 H   0  0  0  0  0  0  0  0  0  0  0  0
    1.1270   -4.4358   -0.9305 H   0  0  0  0  0  0  0  0  0  0  0  0
    2.2797   -3.2400   -0.3251 H   0  0  0  0  0  0  0  0  0  0  0  0
    2.2827   -4.8880    0.3303 H   0  0  0  0  0  0  0  0  0  0  0  0
    0.3351   -1.3153    0.5316 N   0  0  0  0  0  0  0  0  0  0  0  0
   -0.3268   -0.1184    0.0807 C   0  0  2  0  0  0  0  0  0  0  0  0
    0.2247    0.2606   -1.2903 C   0  0  0  0  0  0  0  0  0  0  0  0
   -0.3888    0.0609   -2.3367 O   0  0  0  0  0  0  0  0  0  0  0  0
   -0.2186    1.0224    1.1018 C   0  0  0  0  0  0  0  0  0  0  0  0
   -0.9622    0.7475    2.4110 C   0  0  0  0  0  0  0  0  0  0  0  0
   -2.7387    0.5218    2.0995 S   0  0  0  0  0  0  0  0  0  0  0  0
   -3.1393    2.2213    1.6340 C   0  0  0  0  0  0  0  0  0  0  0  0
    1.2790   -1.2290    0.9021 H   0  0  0  0  0  0  0  0  0  0  0  0
   -1.3827   -0.3887   -0.0417 H   0  0  0  0  0  0  0  0  0  0  0  0
   -0.6173    1.9367    0.6422 H   0  0  0  0  0  0  0  0  0  0  0  0
    0.8411    1.2098    1.3178 H   0  0  0  0  0  0  0  0  0  0  0  0
   -0.8476    1.5815    3.1098 H   0  0  0  0  0  0  0  0  0  0  0  0
   -0.5855   -0.1582    2.8954 H   0  0  0  0  0  0  0  0  0  0  0  0
   -4.2035    2.3013    1.3988 H   0  0  0  0  0  0  0  0  0  0  0  0
   -2.5574    2.5125    0.7560 H   0  0  0  0  0  0  0  0  0  0  0  0
   -2.9038    2.8976    2.4593 H   0  0  0  0  0  0  0  0  0  0  0  0
    1.4934    0.8167   -1.2104 N   0  0  0  0  0  0  0  0  0  0  0  0
    2.2303    1.2440   -2.3765 C   0  0  2  0  0  0  0  0  0  0  0  0
    3.6929    0.8725   -2.1708 C   0  0  0  0  0  0  0  0  0  0  0  0
    4.1881    0.6866   -1.0611 O   0  0  0  0  0  0  0  0  0  0  0  0
    2.0769    2.7387   -2.6111 C   0  0  0  0  0  0  0  0  0  0  0  0
    1.9155    0.9711   -0.2995 H   0  0  0  0  0  0  0  0  0  0  0  0
    1.8271    0.6847   -3.2278 H   0  0  0  0  0  0  0  0  0  0  0  0
    2.4754    3.3155   -1.7685 H   0  0  0  0  0  0  0  0  0  0  0  0
    2.6128    3.0560   -3.5117 H   0  0  0  0  0  0  0  0  0  0  0  0
    1.0219    3.0084   -2.7292 H   0  0  0  0  0  0  0  0  0  0  0  0
    4.3904    0.8152   -3.3693 N   0  0  0  0  0  0  0  0  0  0  0  0
    5.7971    0.4951   -3.4381 C   0  0  0  0  0  0  0  0  0  0  0  0
    3.8950    0.9651   -4.2433 H   0  0  0  0  0  0  0  0  0  0  0  0
    6.3865    1.4236   -3.4139 H   0  0  0  0  0  0  0  0  0  0  0  0
    6.0718   -0.1359   -2.5801 H   0  0  0  0  0  0  0  0  0  0  0  0
    6.0044   -0.0464   -4.3729 H   0  0  0  0  0  0  0  0  0  0  0  0
  1  3  1  0  0  0  0
  1  7  1  0  0  0  0
  1  2  2  0  0  0  0
 35 36  1  0  0  0  0
 36 44  1  0  0  0  0
 36 37  2  0  0  0  0
  8  9  1  0  0  0  0
  9 17  1  0  0  0  0
  9 10  2  0  0  0  0
 18 19  1  0  0  0  0
 19 34  1  0  0  0  0
 19 20  2  0  0  0  0
 35 38  1  0  0  0  0
  8 11  1  0  0  0  0
 44 45  1  0  0  0  0
 23 24  1  0  0  0  0
 21 22  1  0  0  0  0
 18 21  1  0  0  0  0
 22 23  1  0  0  0  0
 34 35  1  0  0  0  0
  7  8  1  0  0  0  0
 17 18  1  0  0  0  0
  3  4  1  0  0  0  0
  3  5  1  0  0  0  0
  3  6  1  0  0  0  0
 38 41  1  0  0  0  0
 38 42  1  0  0  0  0
 38 43  1  0  0  0  0
 11 14  1  0  0  0  0
 11 15  1  0  0  0  0
 11 16  1  0  0  0  0
 45 47  1  0  0  0  0
 45 48  1  0  0  0  0
 45 49  1  0  0  0  0
 24 31  1  0  0  0  0
 24 32  1  0  0  0  0
 24 33  1  0  0  0  0
 21 27  1  0  0  0  0
 21 28  1  0  0  0  0
 22 29  1  0  0  0  0
 22 30  1  0  0  0  0
 35 40  1  0  0  0  0
  8 13  1  0  0  0  0
 18 26  1  0  0  0  0
 44 46  1  0  0  0  0
  7 12  1  0  0  0  0
 34 39  1  0  0  0  0
 17 25  1  0  0  0  0
M  END
$$$$

  -OEChem-05262214473D

 49 48  0     1  0  0  0  0  0999 V2000
   -0.0561   -5.3799    2.6949 C   0  0  0  0  0  0  0  0  0  0  0  0
    0.7325   -5.0736    3.5815 O   0  0  0  0  0  0  0  0  0  0  0  0
   -1.0067   -6.5099    2.9135 C   0  0  0  0  0  0  0  0  0  0  0  0
   -0.5910   -7.4777    2.5899 H   0  0  0  0  0  0  0  0  0  0  0  0
   -1.2629   -6.6440    3.9767 H   0  0  0  0  0  0  0  0  0  0  0  0
   -1.9729   -6.4206    2.3918 H   0  0  0  0  0  0  0  0  0  0  0  0
   -0.1735   -4.7694    1.4571 N   0  0  0  0  0  0  0  0  0  0  0  0
    0.6439   -3.6603    1.0409 C   0  0  2  0  0  0  0  0  0  0  0  0
   -0.2788   -2.5625    0.5280 C   0  0  0  0  0  0  0  0  0  0  0  0
   -1.4197   -2.7791    0.1251 O   0  0  0  0  0  0  0  0  0  0  0  0
    1.6395   -4.0779   -0.0301 C   0  0  0  0  0  0  0  0  0  0  0  0
   -0.8741   -5.1235    0.8083 H   0  0  0  0  0  0  0  0  0  0  0  0
    1.1738   -3.3062    1.9318 H   0  0  0  0  0  0  0  0  0  0  0  0
    1.1270   -4.4358   -0.9305 H   0  0  0  0  0  0  0  0  0  0  0  0
    2.2797   -3.2400   -0.3251 H   0  0  0  0  0  0  0  0  0  0  0  0
    2.2827   -4.8880    0.3303 H   0  0  0  0  0  0  0  0  0  0  0  0
    0.3351   -1.3153    0.5316 N   0  0  0  0  0  0  0  0  0  0  0  0
   -0.3268   -0.1184    0.0807 C   0  0  2  0  0  0  0  0  0  0  0  0
    0.2247    0.2606   -1.2903 C   0  0  0  0  0  0  0  0  0  0  0  0
   -0.4734    0.3140   -2.3007 O   0  0  0  0  0  0  0  0  0  0  0  0
   -0.2186    1.0224    1.1018 C   0  0  0  0  0  0  0  0  0  0  0  0
   -0.9622    0.7475    2.4110 C   0  0  0  0  0  0  0  0  0  0  0  0
   -2.7387    0.5218    2.0995 S   0  0  0  0  0  0  0  0  0  0  0  0
   -3.1393    2.2213    1.6340 C   0  0  0  0  0  0  0  0  0  0  0  0
    1.2790   -1.2290    0.9021 H   0  0  0  0  0  0  0  0  0  0  0  0
   -1.3827   -0.3887   -0.0417 H   0  0  0  0  0  0  0  0  0  0  0  0
   -0.6173    1.9367    0.6422 H   0  0  0  0  0  0  0  0  0  0  0  0
    0.8411    1.2098    1.3178 H   0  0  0  0  0  0  0  0  0  0  0  0
   -0.8476    1.5815    3.1098 H   0  0  0  0  0  0  0  0  0  0  0  0
   -0.5855   -0.1582    2.8954 H   0  0  0  0  0  0  0  0  0  0  0  0
   -4.2035    2.3013    1.3988 H   0  0  0  0  0  0  0  0  0  0  0  0
   -2.5574    2.5125    0.7560 H   0  0  0  0  0  0  0  0  0  0  0  0
   -2.9038    2.8976    2.4593 H   0  0  0  0  0  0  0  0  0  0  0  0
    1.5911    0.4997   -1.2587 N   0  0  0  0  0  0  0  0  0  0  0  0
    2.3448    0.8621   -2.4360 C   0  0  2  0  0  0  0  0  0  0  0  0
    3.6875    0.1460   -2.3738 C   0  0  0  0  0  0  0  0  0  0  0  0
    4.1832   -0.2599   -1.3247 O   0  0  0  0  0  0  0  0  0  0  0  0
    2.5357    2.3680   -2.5290 C   0  0  0  0  0  0  0  0  0  0  0  0
    2.0855    0.4601   -0.3723 H   0  0  0  0  0  0  0  0  0  0  0  0
    1.7765    0.4994   -3.2994 H   0  0  0  0  0  0  0  0  0  0  0  0
    3.1031    2.7497   -1.6723 H   0  0  0  0  0  0  0  0  0  0  0  0
    3.0826    2.6433   -3.4368 H   0  0  0  0  0  0  0  0  0  0  0  0
    1.5692    2.8832   -2.5436 H   0  0  0  0  0  0  0  0  0  0  0  0
    4.2870    0.0517   -3.6219 N   0  0  0  0  0  0  0  0  0  0  0  0
    5.5730   -0.5740   -3.8238 C   0  0  0  0  0  0  0  0  0  0  0  0
    3.7952    0.3989   -4.4400 H   0  0  0  0  0  0  0  0  0  0  0  0
    6.3650    0.1869   -3.7644 H   0  0  0  0  0  0  0  0  0  0  0  0
    5.7365   -1.3348   -3.0464 H   0  0  0  0  0  0  0  0  0  0  0  0
    5.5968   -1.0513   -4.8146 H   0  0  0  0  0  0  0  0  0  0  0  0
  1  3  1  0  0  0  0
  1  7  1  0  0  0  0
  1  2  2  0  0  0  0
 35 36  1  0  0  0  0
 36 44  1  0  0  0  0
 36 37  2  0  0  0  0
  8  9  1  0  0  0  0
  9 17  1  0  0  0  0
  9 10  2  0  0  0  0
 18 19  1  0  0  0  0
 19 34  1  0  0  0  0
 19 20  2  0  0  0  0
 35 38  1  0  0  0  0
  8 11  1  0  0  0  0
 44 45  1  0  0  0  0
 23 24  1  0  0  0  0
 21 22  1  0  0  0  0
 18 21  1  0  0  0  0
 22 23  1  0  0  0  0
 34 35  1  0  0  0  0
  7  8  1  0  0  0  0
 17 18  1  0  0  0  0
  3  4  1  0  0  0  0
  3  5  1  0  0  0  0
  3  6  1  0  0  0  0
 38 41  1  0  0  0  0
 38 42  1  0  0  0  0
 38 43  1  0  0  0  0
 11 14  1  0  0  0  0
 11 15  1  0  0  0  0
 11 16  1  0  0  0  0
 45 47  1  0  0  0  0
 45 48  1  0  0  0  0
 45 49  1  0  0  0  0
 24 31  1  0  0  0  0
 24 32  1  0  0  0  0
 24 33  1  0  0  0  0
 21 27  1  0  0  0  0
 21 28  1  0  0  0  0
 22 29  1  0  0  0  0
 22 30  1  0  0  0  0
 35 40  1  0  0  0  0
  8 13  1  0  0  0  0
 18 26  1  0  0  0  0
 44 46  1  0  0  0  0
  7 12  1  0  0  0  0
 34 39  1  0  0  0  0
 17 25  1  0  0  0  0
M  END
$$$$

  -OEChem-05262214473D

 49 48  0     1  0  0  0  0  0999 V2000
   -0.0561   -5.3799    2.6949 C   0  0  0  0  0  0  0  0  0  0  0  0
    0.7325   -5.0736    3.5815 O   0  0  0  0  0  0  0  0  0  0  0  0
   -1.0067   -6.5099    2.9135 C   0  0  0  0  0  0  0  0  0  0  0  0
   -0.5910   -7.4777    2.5899 H   0  0  0  0  0  0  0  0  0  0  0  0
   -1.2629   -6.6440    3.9767 H   0  0  0  0  0  0  0  0  0  0  0  0
   -1.9729   -6.4206    2.3918 H   0  0  0  0  0  0  0  0  0  0  0  0
   -0.1735   -4.7694    1.4571 N   0  0  0  0  0  0  0  0  0  0  0  0
    0.6439   -3.6603    1.0409 C   0  0  2  0  0  0  0  0  0  0  0  0
   -0.2788   -2.5625    0.5280 C   0  0  0  0  0  0  0  0  0  0  0  0
   -1.4197   -2.7791    0.1251 O   0  0  0  0  0  0  0  0  0  0  0  0
    1.6395   -4.0779   -0.0301 C   0  0  0  0  0  0  0  0  0  0  0  0
   -0.8741   -5.1235    0.8083 H   0  0  0  0  0  0  0  0  0  0  0  0
    1.1738   -3.3062    1.9318 H   0  0  0  0  0  0  0  0  0  0  0  0
    1.1270   -4.4358   -0.9305 H   0  0  0  0  0  0  0  0  0  0  0  0
    2.2797   -3.2400   -0.3251 H   0  0  0  0  0  0  0  0  0  0  0  0
    2.2827   -4.8880    0.3303 H   0  0  0  0  0  0  0  0  0  0  0  0
    0.3351   -1.3153    0.5316 N   0  0  0  0  0  0  0  0  0  0  0  0
   -0.3268   -0.1184    0.0807 C   0  0  2  0  0  0  0  0  0  0  0  0
    0.2247    0.2606   -1.2903 C   0  0  0  0  0  0  0  0  0  0  0  0
   -0.4939    0.5748   -2.2369 O   0  0  0  0  0  0  0  0  0  0  0  0
   -0.2186    1.0224    1.1018 C   0  0  0  0  0  0  0  0  0  0  0  0
   -0.9622    0.7475    2.4110 C   0  0  0  0  0  0  0  0  0  0  0  0
   -2.7387    0.5218    2.0995 S   0  0  0  0  0  0  0  0  0  0  0  0
   -3.1393    2.2213    1.6340 C   0  0  0  0  0  0  0  0  0  0  0  0
    1.2790   -1.2290    0.9021 H   0  0  0  0  0  0  0  0  0  0  0  0
   -1.3827   -0.3887   -0.0417 H   0  0  0  0  0  0  0  0  0  0  0  0
   -0.6173    1.9367    0.6422 H   0  0  0  0  0  0  0  0  0  0  0  0
    0.8411    1.2098    1.3178 H   0  0  0  0  0  0  0  0  0  0  0  0
   -0.8476    1.5815    3.1098 H   0  0  0  0  0  0  0  0  0  0  0  0
   -0.5855   -0.1582    2.8954 H   0  0  0  0  0  0  0  0  0  0  0  0
   -4.2035    2.3013    1.3988 H   0  0  0  0  0  0  0  0  0  0  0  0
   -2.5574    2.5125    0.7560 H   0  0  0  0  0  0  0  0  0  0  0  0
   -2.9038    2.8976    2.4593 H   0  0  0  0  0  0  0  0  0  0  0  0
    1.6087    0.1752   -1.3413 N   0  0  0  0  0  0  0  0  0  0  0  0
    2.3628    0.4722   -2.5366 C   0  0  2  0  0  0  0  0  0  0  0  0
    3.5002   -0.5355   -2.6375 C   0  0  0  0  0  0  0  0  0  0  0  0
    3.9415   -1.1483   -1.6675 O   0  0  0  0  0  0  0  0  0  0  0  0
    2.8979    1.8955   -2.5138 C   0  0  0  0  0  0  0  0  0  0  0  0
    2.1263   -0.0663   -0.5014 H   0  0  0  0  0  0  0  0  0  0  0  0
    1.6798    0.3389   -3.3827 H   0  0  0  0  0  0  0  0  0  0  0  0
    3.5841    2.0481   -1.6728 H   0  0  0  0  0  0  0  0  0  0  0  0
    3.4452    2.1283   -3.4333 H   0  0  0  0  0  0  0  0  0  0  0  0
    2.0807    2.6175   -2.4113 H   0  0  0  0  0  0  0  0  0  0  0  0
    3.9934   -0.6381   -3.9307 N   0  0  0  0  0  0  0  0  0  0  0  0
    5.0830   -1.5186   -4.2820 C   0  0  0  0  0  0  0  0  0  0  0  0
    3.5544   -0.1064   -4.6766 H   0  0  0  0  0  0  0  0  0  0  0  0
    6.0341   -0.9697   -4.2173 H   0  0  0  0  0  0  0  0  0  0  0  0
    5.1038   -2.3713   -3.5874 H   0  0  0  0  0  0  0  0  0  0  0  0
    4.9410   -1.8858   -5.3092 H   0  0  0  0  0  0  0  0  0  0  0  0
  1  3  1  0  0  0  0
  1  7  1  0  0  0  0
  1  2  2  0  0  0  0
 35 36  1  0  0  0  0
 36 44  1  0  0  0  0
 36 37  2  0  0  0  0
  8  9  1  0  0  0  0
  9 17  1  0  0  0  0
  9 10  2  0  0  0  0
 18 19  1  0  0  0  0
 19 34  1  0  0  0  0
 19 20  2  0  0  0  0
 35 38  1  0  0  0  0
  8 11  1  0  0  0  0
 44 45  1  0  0  0  0
 23 24  1  0  0  0  0
 21 22  1  0  0  0  0
 18 21  1  0  0  0  0
 22 23  1  0  0  0  0
 34 35  1  0  0  0  0
  7  8  1  0  0  0  0
 17 18  1  0  0  0  0
  3  4  1  0  0  0  0
  3  5  1  0  0  0  0
  3  6  1  0  0  0  0
 38 41  1  0  0  0  0
 38 42  1  0  0  0  0
 38 43  1  0  0  0  0
 11 14  1  0  0  0  0
 11 15  1  0  0  0  0
 11 16  1  0  0  0  0
 45 47  1  0  0  0  0
 45 48  1  0  0  0  0
 45 49  1  0  0  0  0
 24 31  1  0  0  0  0
 24 32  1  0  0  0  0
 24 33  1  0  0  0  0
 21 27  1  0  0  0  0
 21 28  1  0  0  0  0
 22 29  1  0  0  0  0
 22 30  1  0  0  0  0
 35 40  1  0  0  0  0
  8 13  1  0  0  0  0
 18 26  1  0  0  0  0
 44 46  1  0  0  0  0
  7 12  1  0  0  0  0
 34 39  1  0  0  0  0
 17 25  1  0  0  0  0
M  END
$$$$

  -OEChem-05262214473D

 49 48  0     1  0  0  0  0  0999 V2000
   -0.0561   -5.3799    2.6949 C   0  0  0  0  0  0  0  0  0  0  0  0
    0.7325   -5.0736    3.5815 O   0  0  0  0  0  0  0  0  0  0  0  0
   -1.0067   -6.5099    2.9135 C   0  0  0  0  0  0  0  0  0  0  0  0
   -0.5910   -7.4777    2.5899 H   0  0  0  0  0  0  0  0  0  0  0  0
   -1.2629   -6.6440    3.9767 H   0  0  0  0  0  0  0  0  0  0  0  0
   -1.9729   -6.4206    2.3918 H   0  0  0  0  0  0  0  0  0  0  0  0
   -0.1735   -4.7694    1.4571 N   0  0  0  0  0  0  0  0  0  0  0  0
    0.6439   -3.6603    1.0409 C   0  0  2  0  0  0  0  0  0  0  0  0
   -0.2788   -2.5625    0.5280 C   0  0  0  0  0  0  0  0  0  0  0  0
   -1.4197   -2.7791    0.1251 O   0  0  0  0  0  0  0  0  0  0  0  0
    1.6395   -4.0779   -0.0301 C   0  0  0  0  0  0  0  0  0  0  0  0
   -0.8741   -5.1235    0.8083 H   0  0  0  0  0  0  0  0  0  0  0  0
    1.1738   -3.3062    1.9318 H   0  0  0  0  0  0  0  0  0  0  0  0
    1.1270   -4.4358   -0.9305 H   0  0  0  0  0  0  0  0  0  0  0  0
    2.2797   -3.2400   -0.3251 H   0  0  0  0  0  0  0  0  0  0  0  0
    2.2827   -4.8880    0.3303 H   0  0  0  0  0  0  0  0  0  0  0  0
    0.3351   -1.3153    0.5316 N   0  0  0  0  0  0  0  0  0  0  0  0
   -0.3268   -0.1184    0.0807 C   0  0  2  0  0  0  0  0  0  0  0  0
    0.2247    0.2606   -1.2903 C   0  0  0  0  0  0  0  0  0  0  0  0
   -0.4489    0.8254   -2.1495 O   0  0  0  0  0  0  0  0  0  0  0  0
   -0.2186    1.0224    1.1018 C   0  0  0  0  0  0  0  0  0  0  0  0
   -0.9622    0.7475    2.4110 C   0  0  0  0  0  0  0  0  0  0  0  0
   -2.7387    0.5218    2.0995 S   0  0  0  0  0  0  0  0  0  0  0  0
   -3.1393    2.2213    1.6340 C   0  0  0  0  0  0  0  0  0  0  0  0
    1.2790   -1.2290    0.9021 H   0  0  0  0  0  0  0  0  0  0  0  0
   -1.3827   -0.3887   -0.0417 H   0  0  0  0  0  0  0  0  0  0  0  0
   -0.6173    1.9367    0.6422 H   0  0  0  0  0  0  0  0  0  0  0  0
    0.8411    1.2098    1.3178 H   0  0  0  0  0  0  0  0  0  0  0  0
   -0.8476    1.5815    3.1098 H   0  0  0  0  0  0  0  0  0  0  0  0
   -0.5855   -0.1582    2.8954 H   0  0  0  0  0  0  0  0  0  0  0  0
   -4.2035    2.3013    1.3988 H   0  0  0  0  0  0  0  0  0  0  0  0
   -2.5574    2.5125    0.7560 H   0  0  0  0  0  0  0  0  0  0  0  0
   -2.9038    2.8976    2.4593 H   0  0  0  0  0  0  0  0  0  0  0  0
    1.5448   -0.1345   -1.4526 N   0  0  0  0  0  0  0  0  0  0  0  0
    2.2830    0.1008   -2.6713 C   0  0  2  0  0  0  0  0  0  0  0  0
    3.1439   -1.1256   -2.9440 C   0  0  0  0  0  0  0  0  0  0  0  0
    3.4793   -1.9182   -2.0663 O   0  0  0  0  0  0  0  0  0  0  0  0
    3.1389    1.3534   -2.5667 C   0  0  0  0  0  0  0  0  0  0  0  0
    2.0349   -0.5721   -0.6780 H   0  0  0  0  0  0  0  0  0  0  0  0
    1.5438    0.2141   -3.4719 H   0  0  0  0  0  0  0  0  0  0  0  0
    3.8854    1.2586   -1.7698 H   0  0  0  0  0  0  0  0  0  0  0  0
    3.6759    1.5462   -3.5014 H   0  0  0  0  0  0  0  0  0  0  0  0
    2.5215    2.2296   -2.3412 H   0  0  0  0  0  0  0  0  0  0  0  0
    3.5294   -1.2072   -4.2747 N   0  0  0  0  0  0  0  0  0  0  0  0
    4.3606   -2.2741   -4.7815 C   0  0  0  0  0  0  0  0  0  0  0  0
    3.1890   -0.5163   -4.9368 H   0  0  0  0  0  0  0  0  0  0  0  0
    5.4163   -1.9677   -4.7416 H   0  0  0  0  0  0  0  0  0  0  0  0
    4.2168   -3.1746   -4.1663 H   0  0  0  0  0  0  0  0  0  0  0  0
    4.0816   -2.4931   -5.8228 H   0  0  0  0  0  0  0  0  0  0  0  0
  1  3  1  0  0  0  0
  1  7  1  0  0  0  0
  1  2  2  0  0  0  0
 35 36  1  0  0  0  0
 36 44  1  0  0  0  0
 36 37  2  0  0  0  0
  8  9  1  0  0  0  0
  9 17  1  0  0  0  0
  9 10  2  0  0  0  0
 18 19  1  0  0  0  0
 19 34  1  0  0  0  0
 19 20  2  0  0  0  0
 35 38  1  0  0  0  0
  8 11  1  0  0  0  0
 44 45  1  0  0  0  0
 23 24  1  0  0  0  0
 21 22  1  0  0  0  0
 18 21  1  0  0  0  0
 22 23  1  0  0  0  0
 34 35  1  0  0  0  0
  7  8  1  0  0  0  0
 17 18  1  0  0  0  0
  3  4  1  0  0  0  0
  3  5  1  0  0  0  0
  3  6  1  0  0  0  0
 38 41  1  0  0  0  0
 38 42  1  0  0  0  0
 38 43  1  0  0  0  0
 11 14  1  0  0  0  0
 11 15  1  0  0  0  0
 11 16  1  0  0  0  0
 45 47  1  0  0  0  0
 45 48  1  0  0  0  0
 45 49  1  0  0  0  0
 24 31  1  0  0  0  0
 24 32  1  0  0  0  0
 24 33  1  0  0  0  0
 21 27  1  0  0  0  0
 21 28  1  0  0  0  0
 22 29  1  0  0  0  0
 22 30  1  0  0  0  0
 35 40  1  0  0  0  0
  8 13  1  0  0  0  0
 18 26  1  0  0  0  0
 44 46  1  0  0  0  0
  7 12  1  0  0  0  0
 34 39  1  0  0  0  0
 17 25  1  0  0  0  0
M  END
$$$$

  -OEChem-05262214473D

 49 48  0     1  0  0  0  0  0999 V2000
   -0.0561   -5.3799    2.6949 C   0  0  0  0  0  0  0  0  0  0  0  0
    0.7325   -5.0736    3.5815 O   0  0  0  0  0  0  0  0  0  0  0  0
   -1.0067   -6.5099    2.9135 C   0  0  0  0  0  0  0  0  0  0  0  0
   -0.5910   -7.4777    2.5899 H   0  0  0  0  0  0  0  0  0  0  0  0
   -1.2629   -6.6440    3.9767 H   0  0  0  0  0  0  0  0  0  0  0  0
   -1.9729   -6.4206    2.3918 H   0  0  0  0  0  0  0  0  0  0  0  0
   -0.1735   -4.7694    1.4571 N   0  0  0  0  0  0  0  0  0  0  0  0
    0.6439   -3.6603    1.0409 C   0  0  2  0  0  0  0  0  0  0  0  0
   -0.2788   -2.5625    0.5280 C   0  0  0  0  0  0  0  0  0  0  0  0
   -1.4197   -2.7791    0.1251 O   0  0  0  0  0  0  0  0  0  0  0  0
    1.6395   -4.0779   -0.0301 C   0  0  0  0  0  0  0  0  0  0  0  0
   -0.8741   -5.1235    0.8083 H   0  0  0  0  0  0  0  0  0  0  0  0
    1.1738   -3.3062    1.9318 H   0  0  0  0  0  0  0  0  0  0  0  0
    1.1270   -4.4358   -0.9305 H   0  0  0  0  0  0  0  0  0  0  0  0
    2.2797   -3.2400   -0.3251 H   0  0  0  0  0  0  0  0  0  0  0  0
    2.2827   -4.8880    0.3303 H   0  0  0  0  0  0  0  0  0  0  0  0
    0.3351   -1.3153    0.5316 N   0  0  0  0  0  0  0  0  0  0  0  0
   -0.3268   -0.1184    0.0807 C   0  0  2  0  0  0  0  0  0  0  0  0
    0.2247    0.2606   -1.2903 C   0  0  0  0  0  0  0  0  0  0  0  0
   -0.3416    1.0490   -2.0446 O   0  0  0  0  0  0  0  0  0  0  0  0
   -0.2186    1.0224    1.1018 C   0  0  0  0  0  0  0  0  0  0  0  0
   -0.9622    0.7475    2.4110 C   0  0  0  0  0  0  0  0  0  0  0  0
   -2.7387    0.5218    2.0995 S   0  0  0  0  0  0  0  0  0  0  0  0
   -3.1393    2.2213    1.6340 C   0  0  0  0  0  0  0  0  0  0  0  0
    1.2790   -1.2290    0.9021 H   0  0  0  0  0  0  0  0  0  0  0  0
   -1.3827   -0.3887   -0.0417 H   0  0  0  0  0  0  0  0  0  0  0  0
   -0.6173    1.9367    0.6422 H   0  0  0  0  0  0  0  0  0  0  0  0
    0.8411    1.2098    1.3178 H   0  0  0  0  0  0  0  0  0  0  0  0
   -0.8476    1.5815    3.1098 H   0  0  0  0  0  0  0  0  0  0  0  0
   -0.5855   -0.1582    2.8954 H   0  0  0  0  0  0  0  0  0  0  0  0
   -4.2035    2.3013    1.3988 H   0  0  0  0  0  0  0  0  0  0  0  0
   -2.5574    2.5125    0.7560 H   0  0  0  0  0  0  0  0  0  0  0  0
   -2.9038    2.8976    2.4593 H   0  0  0  0  0  0  0  0  0  0  0  0
    1.4040   -0.4085   -1.5850 N   0  0  0  0  0  0  0  0  0  0  0  0
    2.1108   -0.2268   -2.8311 C   0  0  2  0  0  0  0  0  0  0  0  0
    2.6428   -1.5840   -3.2723 C   0  0  0  0  0  0  0  0  0  0  0  0
    2.8282   -2.5171   -2.4938 O   0  0  0  0  0  0  0  0  0  0  0  0
    3.2422    0.7787   -2.6841 C   0  0  0  0  0  0  0  0  0  0  0  0
    1.8177   -1.0229   -0.8900 H   0  0  0  0  0  0  0  0  0  0  0  0
    1.3777    0.1335   -3.5610 H   0  0  0  0  0  0  0  0  0  0  0  0
    3.9867    0.4349   -1.9568 H   0  0  0  0  0  0  0  0  0  0  0  0
    3.7589    0.9367   -3.6364 H   0  0  0  0  0  0  0  0  0  0  0  0
    2.8615    1.7458   -2.3381 H   0  0  0  0  0  0  0  0  0  0  0  0
    2.9268   -1.6169   -4.6304 N   0  0  0  0  0  0  0  0  0  0  0  0
    3.4550   -2.7892   -5.2882 C   0  0  0  0  0  0  0  0  0  0  0  0
    2.7241   -0.8029   -5.2031 H   0  0  0  0  0  0  0  0  0  0  0  0
    4.5537   -2.7389   -5.3018 H   0  0  0  0  0  0  0  0  0  0  0  0
    3.1360   -3.6901   -4.7436 H   0  0  0  0  0  0  0  0  0  0  0  0
    3.0772   -2.8317   -6.3204 H   0  0  0  0  0  0  0  0  0  0  0  0
  1  3  1  0  0  0  0
  1  7  1  0  0  0  0
  1  2  2  0  0  0  0
 35 36  1  0  0  0  0
 36 44  1  0  0  0  0
 36 37  2  0  0  0  0
  8  9  1  0  0  0  0
  9 17  1  0  0  0  0
  9 10  2  0  0  0  0
 18 19  1  0  0  0  0
 19 34  1  0  0  0  0
 19 20  2  0  0  0  0
 35 38  1  0  0  0  0
  8 11  1  0  0  0  0
 44 45  1  0  0  0  0
 23 24  1  0  0  0  0
 21 22  1  0  0  0  0
 18 21  1  0  0  0  0
 22 23  1  0  0  0  0
 34 35  1  0  0  0  0
  7  8  1  0  0  0  0
 17 18  1  0  0  0  0
  3  4  1  0  0  0  0
  3  5  1  0  0  0  0
  3  6  1  0  0  0  0
 38 41  1  0  0  0  0
 38 42  1  0  0  0  0
 38 43  1  0  0  0  0
 11 14  1  0  0  0  0
 11 15  1  0  0  0  0
 11 16  1  0  0  0  0
 45 47  1  0  0  0  0
 45 48  1  0  0  0  0
 45 49  1  0  0  0  0
 24 31  1  0  0  0  0
 24 32  1  0  0  0  0
 24 33  1  0  0  0  0
 21 27  1  0  0  0  0
 21 28  1  0  0  0  0
 22 29  1  0  0  0  0
 22 30  1  0  0  0  0
 35 40  1  0  0  0  0
  8 13  1  0  0  0  0
 18 26  1  0  0  0  0
 44 46  1  0  0  0  0
  7 12  1  0  0  0  0
 34 39  1  0  0  0  0
 17 25  1  0  0  0  0
M  END
$$$$

  -OEChem-05262214473D

 49 48  0     1  0  0  0  0  0999 V2000
   -0.0561   -5.3799    2.6949 C   0  0  0  0  0  0  0  0  0  0  0  0
    0.7325   -5.0736    3.5815 O   0  0  0  0  0  0  0  0  0  0  0  0
   -1.0067   -6.5099    2.9135 C   0  0  0  0  0  0  0  0  0  0  0  0
   -0.5910   -7.4777    2.5899 H   0  0  0  0  0  0  0  0  0  0  0  0
   -1.2629   -6.6440    3.9767 H   0  0  0  0  0  0  0  0  0  0  0  0
   -1.9729   -6.4206    2.3918 H   0  0  0  0  0  0  0  0  0  0  0  0
   -0.1735   -4.7694    1.4571 N   0  0  0  0  0  0  0  0  0  0  0  0
    0.6439   -3.6603    1.0409 C   0  0  2  0  0  0  0  0  0  0  0  0
   -0.2788   -2.5625    0.5280 C   0  0  0  0  0  0  0  0  0  0  0  0
   -1.4197   -2.7791    0.1251 O   0  0  0  0  0  0  0  0  0  0  0  0
    1.6395   -4.0779   -0.0301 C   0  0  0  0  0  0  0  0  0  0  0  0
   -0.8741   -5.1235    0.8083 H   0  0  0  0  0  0  0  0  0  0  0  0
    1.1738   -3.3062    1.9318 H   0  0  0  0  0  0  0  0  0  0  0  0
    1.1270   -4.4358   -0.9305 H   0  0  0  0  0  0  0  0  0  0  0  0
    2.2797   -3.2400   -0.3251 H   0  0  0  0  0  0  0  0  0  0  0  0
    2.2827   -4.8880    0.3303 H   0  0  0  0  0  0  0  0  0  0  0  0
    0.3351   -1.3153    0.5316 N   0  0  0  0  0  0  0  0  0  0  0  0
   -0.3268   -0.1184    0.0807 C   0  0  2  0  0  0  0  0  0  0  0  0
    0.2247    0.2606   -1.2903 C   0  0  0  0  0  0  0  0  0  0  0  0
   -0.1792    1.2301   -1.9292 O   0  0  0  0  0  0  0  0  0  0  0  0
   -0.2186    1.0224    1.1018 C   0  0  0  0  0  0  0  0  0  0  0  0
   -0.9622    0.7475    2.4110 C   0  0  0  0  0  0  0  0  0  0  0  0
   -2.7387    0.5218    2.0995 S   0  0  0  0  0  0  0  0  0  0  0  0
   -3.1393    2.2213    1.6340 C   0  0  0  0  0  0  0  0  0  0  0  0
    1.2790   -1.2290    0.9021 H   0  0  0  0  0  0  0  0  0  0  0  0
   -1.3827   -0.3887   -0.0417 H   0  0  0  0  0  0  0  0  0  0  0  0
   -0.6173    1.9367    0.6422 H   0  0  0  0  0  0  0  0  0  0  0  0
    0.8411    1.2098    1.3178 H   0  0  0  0  0  0  0  0  0  0  0  0
   -0.8476    1.5815    3.1098 H   0  0  0  0  0  0  0  0  0  0  0  0
   -0.5855   -0.1582    2.8954 H   0  0  0  0  0  0  0  0  0  0  0  0
   -4.2035    2.3013    1.3988 H   0  0  0  0  0  0  0  0  0  0  0  0
   -2.5574    2.5125    0.7560 H   0  0  0  0  0  0  0  0  0  0  0  0
   -2.9038    2.8976    2.4593 H   0  0  0  0  0  0  0  0  0  0  0  0
    1.1957   -0.6279   -1.7295 N   0  0  0  0  0  0  0  0  0  0  0  0
    1.8581   -0.4882   -3.0051 C   0  0  2  0  0  0  0  0  0  0  0  0
    2.0310   -1.8795   -3.6001 C   0  0  0  0  0  0  0  0  0  0  0  0
    2.0324   -2.9041   -2.9209 O   0  0  0  0  0  0  0  0  0  0  0  0
    3.2007    0.2106   -2.8578 C   0  0  0  0  0  0  0  0  0  0  0  0
    1.4893   -1.3880   -1.1231 H   0  0  0  0  0  0  0  0  0  0  0  0
    1.1927    0.1027   -3.6439 H   0  0  0  0  0  0  0  0  0  0  0  0
    3.8808   -0.3667   -2.2209 H   0  0  0  0  0  0  0  0  0  0  0  0
    3.6887    0.3413   -3.8293 H   0  0  0  0  0  0  0  0  0  0  0  0
    3.0776    1.1991   -2.4023 H   0  0  0  0  0  0  0  0  0  0  0  0
    2.2266   -1.8391   -4.9735 N   0  0  0  0  0  0  0  0  0  0  0  0
    2.4278   -3.0286   -5.7676 C   0  0  0  0  0  0  0  0  0  0  0  0
    2.1912   -0.9467   -5.4572 H   0  0  0  0  0  0  0  0  0  0  0  0
    3.5052   -3.2307   -5.8596 H   0  0  0  0  0  0  0  0  0  0  0  0
    1.9350   -3.8826   -5.2800 H   0  0  0  0  0  0  0  0  0  0  0  0
    1.9963   -2.8786   -6.7683 H   0  0  0  0  0  0  0  0  0  0  0  0
  1  3  1  0  0  0  0
  1  7  1  0  0  0  0
  1  2  2  0  0  0  0
 35 36  1  0  0  0  0
 36 44  1  0  0  0  0
 36 37  2  0  0  0  0
  8  9  1  0  0  0  0
  9 17  1  0  0  0  0
  9 10  2  0  0  0  0
 18 19  1  0  0  0  0
 19 34  1  0  0  0  0
 19 20  2  0  0  0  0
 35 38  1  0  0  0  0
  8 11  1  0  0  0  0
 44 45  1  0  0  0  0
 23 24  1  0  0  0  0
 21 22  1  0  0  0  0
 18 21  1  0  0  0  0
 22 23  1  0  0  0  0
 34 35  1  0  0  0  0
  7  8  1  0  0  0  0
 17 18  1  0  0  0  0
  3  4  1  0  0  0  0
  3  5  1  0  0  0  0
  3  6  1  0  0  0  0
 38 41  1  0  0  0  0
 38 42  1  0  0  0  0
 38 43  1  0  0  0  0
 11 14  1  0  0  0  0
 11 15  1  0  0  0  0
 11 16  1  0  0  0  0
 45 47  1  0  0  0  0
 45 48  1  0  0  0  0
 45 49  1  0  0  0  0
 24 31  1  0  0  0  0
 24 32  1  0  0  0  0
 24 33  1  0  0  0  0
 21 27  1  0  0  0  0
 21 28  1  0  0  0  0
 22 29  1  0  0  0  0
 22 30  1  0  0  0  0
 35 40  1  0  0  0  0
  8 13  1  0  0  0  0
 18 26  1  0  0  0  0
 44 46  1  0  0  0  0
  7 12  1  0  0  0  0
 34 39  1  0  0  0  0
 17 25  1  0  0  0  0
M  END
$$$$

  -OEChem-05262214473D

 49 48  0     1  0  0  0  0  0999 V2000
   -0.0561   -5.3799    2.6949 C   0  0  0  0  0  0  0  0  0  0  0  0
    0.7325   -5.0736    3.5815 O   0  0  0  0  0  0  0  0  0  0  0  0
   -1.0067   -6.5099    2.9135 C   0  0  0  0  0  0  0  0  0  0  0  0
   -0.5910   -7.4777    2.5899 H   0  0  0  0  0  0  0  0  0  0  0  0
   -1.2629   -6.6440    3.9767 H   0  0  0  0  0  0  0  0  0  0  0  0
   -1.9729   -6.4206    2.3918 H   0  0  0  0  0  0  0  0  0  0  0  0
   -0.1735   -4.7694    1.4571 N   0  0  0  0  0  0  0  0  0  0  0  0
    0.6439   -3.6603    1.0409 C   0  0  2  0  0  0  0  0  0  0  0  0
   -0.2788   -2.5625    0.5280 C   0  0  0  0  0  0  0  0  0  0  0  0
   -1.4197   -2.7791    0.1251 O   0  0  0  0  0  0  0  0  0  0  0  0
    1.6395   -4.0779   -0.0301 C   0  0  0  0  0  0  0  0  0  0  0  0
   -0.8741   -5.1235    0.8083 H   0  0  0  0  0  0  0  0  0  0  0  0
    1.1738   -3.3062    1.9318 H   0  0  0  0  0  0  0  0  0  0  0  0
    1.1270   -4.4358   -0.9305 H   0  0  0  0  0  0  0  0  0  0  0  0
    2.2797   -3.2400   -0.3251 H   0  0  0  0  0  0  0  0  0  0  0  0
    2.2827   -4.8880    0.3303 H   0  0  0  0  0  0  0  0  0  0  0  0
    0.3351   -1.3153    0.5316 N   0  0  0  0  0  0  0  0  0  0  0  0
   -0.3268   -0.1184    0.0807 C   0  0  2  0  0  0  0  0  0  0  0  0
    0.2247    0.2606   -1.2903 C   0  0  0  0  0  0  0  0  0  0  0  0
    0.0272    1.3564   -1.8112 O   0  0  0  0  0  0  0  0  0  0  0  0
   -0.2186    1.0224    1.1018 C   0  0  0  0  0  0  0  0  0  0  0  0
   -0.9622    0.7475    2.4110 C   0  0  0  0  0  0  0  0  0  0  0  0
   -2.7387    0.5218    2.0995 S   0  0  0  0  0  0  0  0  0  0  0  0
   -3.1393    2.2213    1.6340 C   0  0  0  0  0  0  0  0  0  0  0  0
    1.2790   -1.2290    0.9021 H   0  0  0  0  0  0  0  0  0  0  0  0
   -1.3827   -0.3887   -0.0417 H   0  0  0  0  0  0  0  0  0  0  0  0
   -0.6173    1.9367    0.6422 H   0  0  0  0  0  0  0  0  0  0  0  0
    0.8411    1.2098    1.3178 H   0  0  0  0  0  0  0  0  0  0  0  0
   -0.8476    1.5815    3.1098 H   0  0  0  0  0  0  0  0  0  0  0  0
   -0.5855   -0.1582    2.8954 H   0  0  0  0  0  0  0  0  0  0  0  0
   -4.2035    2.3013    1.3988 H   0  0  0  0  0  0  0  0  0  0  0  0
   -2.5574    2.5125    0.7560 H   0  0  0  0  0  0  0  0  0  0  0  0
   -2.9038    2.8976    2.4593 H   0  0  0  0  0  0  0  0  0  0  0  0
    0.9342   -0.7779   -1.8762 N   0  0  0  0  0  0  0  0  0  0  0  0
    1.5420   -0.6657   -3.1813 C   0  0  2  0  0  0  0  0  0  0  0  0
    1.3502   -1.9920   -3.9050 C   0  0  0  0  0  0  0  0  0  0  0  0
    1.1464   -3.0528   -3.3185 O   0  0  0  0  0  0  0  0  0  0  0  0
    3.0173   -0.3123   -3.0761 C   0  0  0  0  0  0  0  0  0  0  0  0
    1.0723   -1.6425   -1.3612 H   0  0  0  0  0  0  0  0  0  0  0  0
    1.0016    0.1237   -3.7150 H   0  0  0  0  0  0  0  0  0  0  0  0
    3.5752   -1.0917   -2.5443 H   0  0  0  0  0  0  0  0  0  0  0  0
    3.4700   -0.1995   -4.0668 H   0  0  0  0  0  0  0  0  0  0  0  0
    3.1551    0.6268   -2.5293 H   0  0  0  0  0  0  0  0  0  0  0  0
    1.4764   -1.8588   -5.2807 N   0  0  0  0  0  0  0  0  0  0  0  0
    1.3492   -2.9761   -6.1871 C   0  0  0  0  0  0  0  0  0  0  0  0
    1.6267   -0.9378   -5.6819 H   0  0  0  0  0  0  0  0  0  0  0  0
    2.3421   -3.4097   -6.3770 H   0  0  0  0  0  0  0  0  0  0  0  0
    0.6957   -3.7390   -5.7389 H   0  0  0  0  0  0  0  0  0  0  0  0
    0.9125   -2.6306   -7.1357 H   0  0  0  0  0  0  0  0  0  0  0  0
  1  3  1  0  0  0  0
  1  7  1  0  0  0  0
  1  2  2  0  0  0  0
 35 36  1  0  0  0  0
 36 44  1  0  0  0  0
 36 37  2  0  0  0  0
  8  9  1  0  0  0  0
  9 17  1  0  0  0  0
  9 10  2  0  0  0  0
 18 19  1  0  0  0  0
 19 34  1  0  0  0  0
 19 20  2  0  0  0  0
 35 38  1  0  0  0  0
  8 11  1  0  0  0  0
 44 45  1  0  0  0  0
 23 24  1  0  0  0  0
 21 22  1  0  0  0  0
 18 21  1  0  0  0  0
 22 23  1  0  0  0  0
 34 35  1  0  0  0  0
  7  8  1  0  0  0  0
 17 18  1  0  0  0  0
  3  4  1  0  0  0  0
  3  5  1  0  0  0  0
  3  6  1  0  0  0  0
 38 41  1  0  0  0  0
 38 42  1  0  0  0  0
 38 43  1  0  0  0  0
 11 14  1  0  0  0  0
 11 15  1  0  0  0  0
 11 16  1  0  0  0  0
 45 47  1  0  0  0  0
 45 48  1  0  0  0  0
 45 49  1  0  0  0  0
 24 31  1  0  0  0  0
 24 32  1  0  0  0  0
 24 33  1  0  0  0  0
 21 27  1  0  0  0  0
 21 28  1  0  0  0  0
 22 29  1  0  0  0  0
 22 30  1  0  0  0  0
 35 40  1  0  0  0  0
  8 13  1  0  0  0  0
 18 26  1  0  0  0  0
 44 46  1  0  0  0  0
  7 12  1  0  0  0  0
 34 39  1  0  0  0  0
 17 25  1  0  0  0  0
M  END
$$$$

  -OEChem-05262214473D

 49 48  0     1  0  0  0  0  0999 V2000
   -0.0561   -5.3799    2.6949 C   0  0  0  0  0  0  0  0  0  0  0  0
    0.7325   -5.0736    3.5815 O   0  0  0  0  0  0  0  0  0  0  0  0
   -1.0067   -6.5099    2.9135 C   0  0  0  0  0  0  0  0  0  0  0  0
   -0.5910   -7.4777    2.5899 H   0  0  0  0  0  0  0  0  0  0  0  0
   -1.2629   -6.6440    3.9767 H   0  0  0  0  0  0  0  0  0  0  0  0
   -1.9729   -6.4206    2.3918 H   0  0  0  0  0  0  0  0  0  0  0  0
   -0.1735   -4.7694    1.4571 N   0  0  0  0  0  0  0  0  0  0  0  0
    0.6439   -3.6603    1.0409 C   0  0  2  0  0  0  0  0  0  0  0  0
   -0.2788   -2.5625    0.5280 C   0  0  0  0  0  0  0  0  0  0  0  0
   -1.4197   -2.7791    0.1251 O   0  0  0  0  0  0  0  0  0  0  0  0
    1.6395   -4.0779   -0.0301 C   0  0  0  0  0  0  0  0  0  0  0  0
   -0.8741   -5.1235    0.8083 H   0  0  0  0  0  0  0  0  0  0  0  0
    1.1738   -3.3062    1.9318 H   0  0  0  0  0  0  0  0  0  0  0  0
    1.1270   -4.4358   -0.9305 H   0  0  0  0  0  0  0  0  0  0  0  0
    2.2797   -3.2400   -0.3251 H   0  0  0  0  0  0  0  0  0  0  0  0
    2.2827   -4.8880    0.3303 H   0  0  0  0  0  0  0  0  0  0  0  0
    0.3351   -1.3153    0.5316 N   0  0  0  0  0  0  0  0  0  0  0  0
   -0.3268   -0.1184    0.0807 C   0  0  2  0  0  0  0  0  0  0  0  0
    0.2247    0.2606   -1.2903 C   0  0  0  0  0  0  0  0  0  0  0  0
    0.2636    1.4194   -1.6987 O   0  0  0  0  0  0  0  0  0  0  0  0
   -0.2186    1.0224    1.1018 C   0  0  0  0  0  0  0  0  0  0  0  0
   -0.9622    0.7475    2.4110 C   0  0  0  0  0  0  0  0  0  0  0  0
   -2.7387    0.5218    2.0995 S   0  0  0  0  0  0  0  0  0  0  0  0
   -3.1393    2.2213    1.6340 C   0  0  0  0  0  0  0  0  0  0  0  0
    1.2790   -1.2290    0.9021 H   0  0  0  0  0  0  0  0  0  0  0  0
   -1.3827   -0.3887   -0.0417 H   0  0  0  0  0  0  0  0  0  0  0  0
   -0.6173    1.9367    0.6422 H   0  0  0  0  0  0  0  0  0  0  0  0
    0.8411    1.2098    1.3178 H   0  0  0  0  0  0  0  0  0  0  0  0
   -0.8476    1.5815    3.1098 H   0  0  0  0  0  0  0  0  0  0  0  0
   -0.5855   -0.1582    2.8954 H   0  0  0  0  0  0  0  0  0  0  0  0
   -4.2035    2.3013    1.3988 H   0  0  0  0  0  0  0  0  0  0  0  0
   -2.5574    2.5125    0.7560 H   0  0  0  0  0  0  0  0  0  0  0  0
   -2.9038    2.8976    2.4593 H   0  0  0  0  0  0  0  0  0  0  0  0
    0.6372   -0.8483   -2.0151 N   0  0  0  0  0  0  0  0  0  0  0  0
    1.1840   -0.7471   -3.3478 C   0  0  2  0  0  0  0  0  0  0  0  0
    0.6469   -1.9137   -4.1664 C   0  0  0  0  0  0  0  0  0  0  0  0
    0.2303   -2.9532   -3.6595 O   0  0  0  0  0  0  0  0  0  0  0  0
    2.7046   -0.7542   -3.3241 C   0  0  0  0  0  0  0  0  0  0  0  0
    0.5949   -1.7690   -1.5882 H   0  0  0  0  0  0  0  0  0  0  0  0
    0.8173    0.1951   -3.7694 H   0  0  0  0  0  0  0  0  0  0  0  0
    3.0905   -1.6906   -2.9048 H   0  0  0  0  0  0  0  0  0  0  0  0
    3.1176   -0.6487   -4.3327 H   0  0  0  0  0  0  0  0  0  0  0  0
    3.0887    0.0679   -2.7105 H   0  0  0  0  0  0  0  0  0  0  0  0
    0.7275   -1.6746   -5.5311 N   0  0  0  0  0  0  0  0  0  0  0  0
    0.2925   -2.6353   -6.5179 C   0  0  0  0  0  0  0  0  0  0  0  0
    1.0690   -0.7769   -5.8618 H   0  0  0  0  0  0  0  0  0  0  0  0
    1.1437   -3.2637   -6.8188 H   0  0  0  0  0  0  0  0  0  0  0  0
   -0.4976   -3.2691   -6.0891 H   0  0  0  0  0  0  0  0  0  0  0  0
   -0.1003   -2.1046   -7.3978 H   0  0  0  0  0  0  0  0  0  0  0  0
  1  3  1  0  0  0  0
  1  7  1  0  0  0  0
  1  2  2  0  0  0  0
 35 36  1  0  0  0  0
 36 44  1  0  0  0  0
 36 37  2  0  0  0  0
  8  9  1  0  0  0  0
  9 17  1  0  0  0  0
  9 10  2  0  0  0  0
 18 19  1  0  0  0  0
 19 34  1  0  0  0  0
 19 20  2  0  0  0  0
 35 38  1  0  0  0  0
  8 11  1  0  0  0  0
 44 45  1  0  0  0  0
 23 24  1  0  0  0  0
 21 22  1  0  0  0  0
 18 21  1  0  0  0  0
 22 23  1  0  0  0  0
 34 35  1  0  0  0  0
  7  8  1  0  0  0  0
 17 18  1  0  0  0  0
  3  4  1  0  0  0  0
  3  5  1  0  0  0  0
  3  6  1  0  0  0  0
 38 41  1  0  0  0  0
 38 42  1  0  0  0  0
 38 43  1  0  0  0  0
 11 14  1  0  0  0  0
 11 15  1  0  0  0  0
 11 16  1  0  0  0  0
 45 47  1  0  0  0  0
 45 48  1  0  0  0  0
 45 49  1  0  0  0  0
 24 31  1  0  0  0  0
 24 32  1  0  0  0  0
 24 33  1  0  0  0  0
 21 27  1  0  0  0  0
 21 28  1  0  0  0  0
 22 29  1  0  0  0  0
 22 30  1  0  0  0  0
 35 40  1  0  0  0  0
  8 13  1  0  0  0  0
 18 26  1  0  0  0  0
 44 46  1  0  0  0  0
  7 12  1  0  0  0  0
 34 39  1  0  0  0  0
 17 25  1  0  0  0  0
M  END
$$$$

  -OEChem-05262214473D

 49 48  0     1  0  0  0  0  0999 V2000
   -0.0561   -5.3799    2.6949 C   0  0  0  0  0  0  0  0  0  0  0  0
    0.7325   -5.0736    3.5815 O   0  0  0  0  0  0  0  0  0  0  0  0
   -1.0067   -6.5099    2.9135 C   0  0  0  0  0  0  0  0  0  0  0  0
   -0.5910   -7.4777    2.5899 H   0  0  0  0  0  0  0  0  0  0  0  0
   -1.2629   -6.6440    3.9767 H   0  0  0  0  0  0  0  0  0  0  0  0
   -1.9729   -6.4206    2.3918 H   0  0  0  0  0  0  0  0  0  0  0  0
   -0.1735   -4.7694    1.4571 N   0  0  0  0  0  0  0  0  0  0  0  0
    0.6439   -3.6603    1.0409 C   0  0  2  0  0  0  0  0  0  0  0  0
   -0.2788   -2.5625    0.5280 C   0  0  0  0  0  0  0  0  0  0  0  0
   -1.4197   -2.7791    0.1251 O   0  0  0  0  0  0  0  0  0  0  0  0
    1.6395   -4.0779   -0.0301 C   0  0  0  0  0  0  0  0  0  0  0  0
   -0.8741   -5.1235    0.8083 H   0  0  0  0  0  0  0  0  0  0  0  0
    1.1738   -3.3062    1.9318 H   0  0  0  0  0  0  0  0  0  0  0  0
    1.1270   -4.4358   -0.9305 H   0  0  0  0  0  0  0  0  0  0  0  0
    2.2797   -3.2400   -0.3251 H   0  0  0  0  0  0  0  0  0  0  0  0
    2.2827   -4.8880    0.3303 H   0  0  0  0  0  0  0  0  0  0  0  0
    0.3351   -1.3153    0.5316 N   0  0  0  0  0  0  0  0  0  0  0  0
   -0.3268   -0.1184    0.0807 C   0  0  2  0  0  0  0  0  0  0  0  0
    0.2247    0.2606   -1.2903 C   0  0  0  0  0  0  0  0  0  0  0  0
    0.5137    1.4148   -1.5993 O   0  0  0  0  0  0  0  0  0  0  0  0
   -0.2186    1.0224    1.1018 C   0  0  0  0  0  0  0  0  0  0  0  0
   -0.9622    0.7475    2.4110 C   0  0  0  0  0  0  0  0  0  0  0  0
   -2.7387    0.5218    2.0995 S   0  0  0  0  0  0  0  0  0  0  0  0
   -3.1393    2.2213    1.6340 C   0  0  0  0  0  0  0  0  0  0  0  0
    1.2790   -1.2290    0.9021 H   0  0  0  0  0  0  0  0  0  0  0  0
   -1.3827   -0.3887   -0.0417 H   0  0  0  0  0  0  0  0  0  0  0  0
   -0.6173    1.9367    0.6422 H   0  0  0  0  0  0  0  0  0  0  0  0
    0.8411    1.2098    1.3178 H   0  0  0  0  0  0  0  0  0  0  0  0
   -0.8476    1.5815    3.1098 H   0  0  0  0  0  0  0  0  0  0  0  0
   -0.5855   -0.1582    2.8954 H   0  0  0  0  0  0  0  0  0  0  0  0
   -4.2035    2.3013    1.3988 H   0  0  0  0  0  0  0  0  0  0  0  0
   -2.5574    2.5125    0.7560 H   0  0  0  0  0  0  0  0  0  0  0  0
   -2.9038    2.8976    2.4593 H   0  0  0  0  0  0  0  0  0  0  0  0
    0.3251   -0.8342   -2.1367 N   0  0  0  0  0  0  0  0  0  0  0  0
    0.8086   -0.7269   -3.4932 C   0  0  2  0  0  0  0  0  0  0  0  0
   -0.0311   -1.6501   -4.3662 C   0  0  0  0  0  0  0  0  0  0  0  0
   -0.6533   -2.6120   -3.9206 O   0  0  0  0  0  0  0  0  0  0  0  0
    2.2837   -1.0852   -3.5849 C   0  0  0  0  0  0  0  0  0  0  0  0
    0.0899   -1.7589   -1.7886 H   0  0  0  0  0  0  0  0  0  0  0  0
    0.6523    0.3120   -3.8035 H   0  0  0  0  0  0  0  0  0  0  0  0
    2.4599   -2.1226   -3.2779 H   0  0  0  0  0  0  0  0  0  0  0  0
    2.6557   -0.9758   -4.6089 H   0  0  0  0  0  0  0  0  0  0  0  0
    2.8828   -0.4396   -2.9336 H   0  0  0  0  0  0  0  0  0  0  0  0
    0.0309   -1.2991   -5.7075 N   0  0  0  0  0  0  0  0  0  0  0  0
   -0.6701   -2.0293   -6.7377 C   0  0  0  0  0  0  0  0  0  0  0  0
    0.5562   -0.4750   -5.9846 H   0  0  0  0  0  0  0  0  0  0  0  0
   -0.0082   -2.8026   -7.1548 H   0  0  0  0  0  0  0  0  0  0  0  0
   -1.5634   -2.5050   -6.3066 H   0  0  0  0  0  0  0  0  0  0  0  0
   -0.9731   -1.3364   -7.5366 H   0  0  0  0  0  0  0  0  0  0  0  0
  1  3  1  0  0  0  0
  1  7  1  0  0  0  0
  1  2  2  0  0  0  0
 35 36  1  0  0  0  0
 36 44  1  0  0  0  0
 36 37  2  0  0  0  0
  8  9  1  0  0  0  0
  9 17  1  0  0  0  0
  9 10  2  0  0  0  0
 18 19  1  0  0  0  0
 19 34  1  0  0  0  0
 19 20  2  0  0  0  0
 35 38  1  0  0  0  0
  8 11  1  0  0  0  0
 44 45  1  0  0  0  0
 23 24  1  0  0  0  0
 21 22  1  0  0  0  0
 18 21  1  0  0  0  0
 22 23  1  0  0  0  0
 34 35  1  0  0  0  0
  7  8  1  0  0  0  0
 17 18  1  0  0  0  0
  3  4  1  0  0  0  0
  3  5  1  0  0  0  0
  3  6  1  0  0  0  0
 38 41  1  0  0  0  0
 38 42  1  0  0  0  0
 38 43  1  0  0  0  0
 11 14  1  0  0  0  0
 11 15  1  0  0  0  0
 11 16  1  0  0  0  0
 45 47  1  0  0  0  0
 45 48  1  0  0  0  0
 45 49  1  0  0  0  0
 24 31  1  0  0  0  0
 24 32  1  0  0  0  0
 24 33  1  0  0  0  0
 21 27  1  0  0  0  0
 21 28  1  0  0  0  0
 22 29  1  0  0  0  0
 22 30  1  0  0  0  0
 35 40  1  0  0  0  0
  8 13  1  0  0  0  0
 18 26  1  0  0  0  0
 44 46  1  0  0  0  0
  7 12  1  0  0  0  0
 34 39  1  0  0  0  0
 17 25  1  0  0  0  0
M  END
$$$$

  -OEChem-05262214473D

 49 48  0     1  0  0  0  0  0999 V2000
   -0.0561   -5.3799    2.6949 C   0  0  0  0  0  0  0  0  0  0  0  0
    0.7325   -5.0736    3.5815 O   0  0  0  0  0  0  0  0  0  0  0  0
   -1.0067   -6.5099    2.9135 C   0  0  0  0  0  0  0  0  0  0  0  0
   -0.5910   -7.4777    2.5899 H   0  0  0  0  0  0  0  0  0  0  0  0
   -1.2629   -6.6440    3.9767 H   0  0  0  0  0  0  0  0  0  0  0  0
   -1.9729   -6.4206    2.3918 H   0  0  0  0  0  0  0  0  0  0  0  0
   -0.1735   -4.7694    1.4571 N   0  0  0  0  0  0  0  0  0  0  0  0
    0.6439   -3.6603    1.0409 C   0  0  2  0  0  0  0  0  0  0  0  0
   -0.2788   -2.5625    0.5280 C   0  0  0  0  0  0  0  0  0  0  0  0
   -1.4197   -2.7791    0.1251 O   0  0  0  0  0  0  0  0  0  0  0  0
    1.6395   -4.0779   -0.0301 C   0  0  0  0  0  0  0  0  0  0  0  0
   -0.8741   -5.1235    0.8083 H   0  0  0  0  0  0  0  0  0  0  0  0
    1.1738   -3.3062    1.9318 H   0  0  0  0  0  0  0  0  0  0  0  0
    1.1270   -4.4358   -0.9305 H   0  0  0  0  0  0  0  0  0  0  0  0
    2.2797   -3.2400   -0.3251 H   0  0  0  0  0  0  0  0  0  0  0  0
    2.2827   -4.8880    0.3303 H   0  0  0  0  0  0  0  0  0  0  0  0
    0.3351   -1.3153    0.5316 N   0  0  0  0  0  0  0  0  0  0  0  0
   -0.3268   -0.1184    0.0807 C   0  0  2  0  0  0  0  0  0  0  0  0
    0.2247    0.2606   -1.2903 C   0  0  0  0  0  0  0  0  0  0  0  0
    0.7607    1.3428   -1.5199 O   0  0  0  0  0  0  0  0  0  0  0  0
   -0.2186    1.0224    1.1018 C   0  0  0  0  0  0  0  0  0  0  0  0
   -0.9622    0.7475    2.4110 C   0  0  0  0  0  0  0  0  0  0  0  0
   -2.7387    0.5218    2.0995 S   0  0  0  0  0  0  0  0  0  0  0  0
   -3.1393    2.2213    1.6340 C   0  0  0  0  0  0  0  0  0  0  0  0
    1.2790   -1.2290    0.9021 H   0  0  0  0  0  0  0  0  0  0  0  0
   -1.3827   -0.3887   -0.0417 H   0  0  0  0  0  0  0  0  0  0  0  0
   -0.6173    1.9367    0.6422 H   0  0  0  0  0  0  0  0  0  0  0  0
    0.8411    1.2098    1.3178 H   0  0  0  0  0  0  0  0  0  0  0  0
   -0.8476    1.5815    3.1098 H   0  0  0  0  0  0  0  0  0  0  0  0
   -0.5855   -0.1582    2.8954 H   0  0  0  0  0  0  0  0  0  0  0  0
   -4.2035    2.3013    1.3988 H   0  0  0  0  0  0  0  0  0  0  0  0
   -2.5574    2.5125    0.7560 H   0  0  0  0  0  0  0  0  0  0  0  0
   -2.9038    2.8976    2.4593 H   0  0  0  0  0  0  0  0  0  0  0  0
    0.0191   -0.7366   -2.2328 N   0  0  0  0  0  0  0  0  0  0  0  0
    0.4414   -0.6064   -3.6077 C   0  0  2  0  0  0  0  0  0  0  0  0
   -0.6374   -1.2191   -4.4910 C   0  0  0  0  0  0  0  0  0  0  0  0
   -1.4442   -2.0525   -4.0842 O   0  0  0  0  0  0  0  0  0  0  0  0
    1.7835   -1.2826   -3.8407 C   0  0  0  0  0  0  0  0  0  0  0  0
   -0.4086   -1.6130   -1.9488 H   0  0  0  0  0  0  0  0  0  0  0  0
    0.5180    0.4665   -3.8148 H   0  0  0  0  0  0  0  0  0  0  0  0
    1.7263   -2.3584   -3.6382 H   0  0  0  0  0  0  0  0  0  0  0  0
    2.1157   -1.1585   -4.8767 H   0  0  0  0  0  0  0  0  0  0  0  0
    2.5516   -0.8611   -3.1834 H   0  0  0  0  0  0  0  0  0  0  0  0
   -0.5660   -0.7578   -5.7980 N   0  0  0  0  0  0  0  0  0  0  0  0
   -1.4732   -1.1995   -6.8314 C   0  0  0  0  0  0  0  0  0  0  0  0
    0.1232   -0.0526   -6.0421 H   0  0  0  0  0  0  0  0  0  0  0  0
   -1.0353   -2.0578   -7.3621 H   0  0  0  0  0  0  0  0  0  0  0  0
   -2.4291   -1.4986   -6.3767 H   0  0  0  0  0  0  0  0  0  0  0  0
   -1.6464   -0.3785   -7.5426 H   0  0  0  0  0  0  0  0  0  0  0  0
  1  3  1  0  0  0  0
  1  7  1  0  0  0  0
  1  2  2  0  0  0  0
 35 36  1  0  0  0  0
 36 44  1  0  0  0  0
 36 37  2  0  0  0  0
  8  9  1  0  0  0  0
  9 17  1  0  0  0  0
  9 10  2  0  0  0  0
 18 19  1  0  0  0  0
 19 34  1  0  0  0  0
 19 20  2  0  0  0  0
 35 38  1  0  0  0  0
  8 11  1  0  0  0  0
 44 45  1  0  0  0  0
 23 24  1  0  0  0  0
 21 22  1  0  0  0  0
 18 21  1  0  0  0  0
 22 23  1  0  0  0  0
 34 35  1  0  0  0  0
  7  8  1  0  0  0  0
 17 18  1  0  0  0  0
  3  4  1  0  0  0  0
  3  5  1  0  0  0  0
  3  6  1  0  0  0  0
 38 41  1  0  0  0  0
 38 42  1  0  0  0  0
 38 43  1  0  0  0  0
 11 14  1  0  0  0  0
 11 15  1  0  0  0  0
 11 16  1  0  0  0  0
 45 47  1  0  0  0  0
 45 48  1  0  0  0  0
 45 49  1  0  0  0  0
 24 31  1  0  0  0  0
 24 32  1  0  0  0  0
 24 33  1  0  0  0  0
 21 27  1  0  0  0  0
 21 28  1  0  0  0  0
 22 29  1  0  0  0  0
 22 30  1  0  0  0  0
 35 40  1  0  0  0  0
  8 13  1  0  0  0  0
 18 26  1  0  0  0  0
 44 46  1  0  0  0  0
  7 12  1  0  0  0  0
 34 39  1  0  0  0  0
 17 25  1  0  0  0  0
M  END
$$$$

  -OEChem-05262214473D

 49 48  0     1  0  0  0  0  0999 V2000
   -0.0561   -5.3799    2.6949 C   0  0  0  0  0  0  0  0  0  0  0  0
    0.7325   -5.0736    3.5815 O   0  0  0  0  0  0  0  0  0  0  0  0
   -1.0067   -6.5099    2.9135 C   0  0  0  0  0  0  0  0  0  0  0  0
   -0.5910   -7.4777    2.5899 H   0  0  0  0  0  0  0  0  0  0  0  0
   -1.2629   -6.6440    3.9767 H   0  0  0  0  0  0  0  0  0  0  0  0
   -1.9729   -6.4206    2.3918 H   0  0  0  0  0  0  0  0  0  0  0  0
   -0.1735   -4.7694    1.4571 N   0  0  0  0  0  0  0  0  0  0  0  0
    0.6439   -3.6603    1.0409 C   0  0  2  0  0  0  0  0  0  0  0  0
   -0.2788   -2.5625    0.5280 C   0  0  0  0  0  0  0  0  0  0  0  0
   -1.4197   -2.7791    0.1251 O   0  0  0  0  0  0  0  0  0  0  0  0
    1.6395   -4.0779   -0.0301 C   0  0  0  0  0  0  0  0  0  0  0  0
   -0.8741   -5.1235    0.8083 H   0  0  0  0  0  0  0  0  0  0  0  0
    1.1738   -3.3062    1.9318 H   0  0  0  0  0  0  0  0  0  0  0  0
    1.1270   -4.4358   -0.9305 H   0  0  0  0  0  0  0  0  0  0  0  0
    2.2797   -3.2400   -0.3251 H   0  0  0  0  0  0  0  0  0  0  0  0
    2.2827   -4.8880    0.3303 H   0  0  0  0  0  0  0  0  0  0  0  0
    0.3351   -1.3153    0.5316 N   0  0  0  0  0  0  0  0  0  0  0  0
   -0.3268   -0.1184    0.0807 C   0  0  2  0  0  0  0  0  0  0  0  0
    0.2247    0.2606   -1.2903 C   0  0  0  0  0  0  0  0  0  0  0  0
    0.9877    1.2084   -1.4657 O   0  0  0  0  0  0  0  0  0  0  0  0
   -0.2186    1.0224    1.1018 C   0  0  0  0  0  0  0  0  0  0  0  0
   -0.9622    0.7475    2.4110 C   0  0  0  0  0  0  0  0  0  0  0  0
   -2.7387    0.5218    2.0995 S   0  0  0  0  0  0  0  0  0  0  0  0
   -3.1393    2.2213    1.6340 C   0  0  0  0  0  0  0  0  0  0  0  0
    1.2790   -1.2290    0.9021 H   0  0  0  0  0  0  0  0  0  0  0  0
   -1.3827   -0.3887   -0.0417 H   0  0  0  0  0  0  0  0  0  0  0  0
   -0.6173    1.9367    0.6422 H   0  0  0  0  0  0  0  0  0  0  0  0
    0.8411    1.2098    1.3178 H   0  0  0  0  0  0  0  0  0  0  0  0
   -0.8476    1.5815    3.1098 H   0  0  0  0  0  0  0  0  0  0  0  0
   -0.5855   -0.1582    2.8954 H   0  0  0  0  0  0  0  0  0  0  0  0
   -4.2035    2.3013    1.3988 H   0  0  0  0  0  0  0  0  0  0  0  0
   -2.5574    2.5125    0.7560 H   0  0  0  0  0  0  0  0  0  0  0  0
   -2.9038    2.8976    2.4593 H   0  0  0  0  0  0  0  0  0  0  0  0
   -0.2599   -0.5622   -2.2969 N   0  0  0  0  0  0  0  0  0  0  0  0
    0.1073   -0.3940   -3.6834 C   0  0  2  0  0  0  0  0  0  0  0  0
   -1.1309   -0.6500   -4.5323 C   0  0  0  0  0  0  0  0  0  0  0  0
   -2.0886   -1.3128   -4.1389 O   0  0  0  0  0  0  0  0  0  0  0  0
    1.2379   -1.3330   -4.0741 C   0  0  0  0  0  0  0  0  0  0  0  0
   -0.8664   -1.3411   -2.0578 H   0  0  0  0  0  0  0  0  0  0  0  0
    0.4235    0.6480   -3.8026 H   0  0  0  0  0  0  0  0  0  0  0  0
    0.9397   -2.3817   -3.9611 H   0  0  0  0  0  0  0  0  0  0  0  0
    1.5344   -1.1843   -5.1177 H   0  0  0  0  0  0  0  0  0  0  0  0
    2.1176   -1.1678   -3.4428 H   0  0  0  0  0  0  0  0  0  0  0  0
   -1.0225   -0.0876   -5.7964 N   0  0  0  0  0  0  0  0  0  0  0  0
   -2.0619   -0.2025   -6.7927 C   0  0  0  0  0  0  0  0  0  0  0  0
   -0.2005    0.4615   -6.0302 H   0  0  0  0  0  0  0  0  0  0  0  0
   -1.8675   -1.0802   -7.4266 H   0  0  0  0  0  0  0  0  0  0  0  0
   -3.0357   -0.3186   -6.2946 H   0  0  0  0  0  0  0  0  0  0  0  0
   -2.0743    0.7041   -7.4156 H   0  0  0  0  0  0  0  0  0  0  0  0
  1  3  1  0  0  0  0
  1  7  1  0  0  0  0
  1  2  2  0  0  0  0
 35 36  1  0  0  0  0
 36 44  1  0  0  0  0
 36 37  2  0  0  0  0
  8  9  1  0  0  0  0
  9 17  1  0  0  0  0
  9 10  2  0  0  0  0
 18 19  1  0  0  0  0
 19 34  1  0  0  0  0
 19 20  2  0  0  0  0
 35 38  1  0  0  0  0
  8 11  1  0  0  0  0
 44 45  1  0  0  0  0
 23 24  1  0  0  0  0
 21 22  1  0  0  0  0
 18 21  1  0  0  0  0
 22 23  1  0  0  0  0
 34 35  1  0  0  0  0
  7  8  1  0  0  0  0
 17 18  1  0  0  0  0
  3  4  1  0  0  0  0
  3  5  1  0  0  0  0
  3  6  1  0  0  0  0
 38 41  1  0  0  0  0
 38 42  1  0  0  0  0
 38 43  1  0  0  0  0
 11 14  1  0  0  0  0
 11 15  1  0  0  0  0
 11 16  1  0  0  0  0
 45 47  1  0  0  0  0
 45 48  1  0  0  0  0
 45 49  1  0  0  0  0
 24 31  1  0  0  0  0
 24 32  1  0  0  0  0
 24 33  1  0  0  0  0
 21 27  1  0  0  0  0
 21 28  1  0  0  0  0
 22 29  1  0  0  0  0
 22 30  1  0  0  0  0
 35 40  1  0  0  0  0
  8 13  1  0  0  0  0
 18 26  1  0  0  0  0
 44 46  1  0  0  0  0
  7 12  1  0  0  0  0
 34 39  1  0  0  0  0
 17 25  1  0  0  0  0
M  END
$$$$

  -OEChem-05262214473D

 49 48  0     1  0  0  0  0  0999 V2000
   -0.0561   -5.3799    2.6949 C   0  0  0  0  0  0  0  0  0  0  0  0
    0.7325   -5.0736    3.5815 O   0  0  0  0  0  0  0  0  0  0  0  0
   -1.0067   -6.5099    2.9135 C   0  0  0  0  0  0  0  0  0  0  0  0
   -0.5910   -7.4777    2.5899 H   0  0  0  0  0  0  0  0  0  0  0  0
   -1.2629   -6.6440    3.9767 H   0  0  0  0  0  0  0  0  0  0  0  0
   -1.9729   -6.4206    2.3918 H   0  0  0  0  0  0  0  0  0  0  0  0
   -0.1735   -4.7694    1.4571 N   0  0  0  0  0  0  0  0  0  0  0  0
    0.6439   -3.6603    1.0409 C   0  0  2  0  0  0  0  0  0  0  0  0
   -0.2788   -2.5625    0.5280 C   0  0  0  0  0  0  0  0  0  0  0  0
   -1.4197   -2.7791    0.1251 O   0  0  0  0  0  0  0  0  0  0  0  0
    1.6395   -4.0779   -0.0301 C   0  0  0  0  0  0  0  0  0  0  0  0
   -0.8741   -5.1235    0.8083 H   0  0  0  0  0  0  0  0  0  0  0  0
    1.1738   -3.3062    1.9318 H   0  0  0  0  0  0  0  0  0  0  0  0
    1.1270   -4.4358   -0.9305 H   0  0  0  0  0  0  0  0  0  0  0  0
    2.2797   -3.2400   -0.3251 H   0  0  0  0  0  0  0  0  0  0  0  0
    2.2827   -4.8880    0.3303 H   0  0  0  0  0  0  0  0  0  0  0  0
    0.3351   -1.3153    0.5316 N   0  0  0  0  0  0  0  0  0  0  0  0
   -0.3268   -0.1184    0.0807 C   0  0  2  0  0  0  0  0  0  0  0  0
    0.2247    0.2606   -1.2903 C   0  0  0  0  0  0  0  0  0  0  0  0
    1.1791    1.0208   -1.4406 O   0  0  0  0  0  0  0  0  0  0  0  0
   -0.2186    1.0224    1.1018 C   0  0  0  0  0  0  0  0  0  0  0  0
   -0.9622    0.7475    2.4110 C   0  0  0  0  0  0  0  0  0  0  0  0
   -2.7387    0.5218    2.0995 S   0  0  0  0  0  0  0  0  0  0  0  0
   -3.1393    2.2213    1.6340 C   0  0  0  0  0  0  0  0  0  0  0  0
    1.2790   -1.2290    0.9021 H   0  0  0  0  0  0  0  0  0  0  0  0
   -1.3827   -0.3887   -0.0417 H   0  0  0  0  0  0  0  0  0  0  0  0
   -0.6173    1.9367    0.6422 H   0  0  0  0  0  0  0  0  0  0  0  0
    0.8411    1.2098    1.3178 H   0  0  0  0  0  0  0  0  0  0  0  0
   -0.8476    1.5815    3.1098 H   0  0  0  0  0  0  0  0  0  0  0  0
   -0.5855   -0.1582    2.8954 H   0  0  0  0  0  0  0  0  0  0  0  0
   -4.2035    2.3013    1.3988 H   0  0  0  0  0  0  0  0  0  0  0  0
   -2.5574    2.5125    0.7560 H   0  0  0  0  0  0  0  0  0  0  0  0
   -2.9038    2.8976    2.4593 H   0  0  0  0  0  0  0  0  0  0  0  0
   -0.4930   -0.3227   -2.3245 N   0  0  0  0  0  0  0  0  0  0  0  0
   -0.1708   -0.1040   -3.7151 C   0  0  2  0  0  0  0  0  0  0  0  0
   -1.4779    0.0183   -4.4871 C   0  0  0  0  0  0  0  0  0  0  0  0
   -2.5425   -0.4433   -4.0812 O   0  0  0  0  0  0  0  0  0  0  0  0
    0.6842   -1.2330   -4.2692 C   0  0  0  0  0  0  0  0  0  0  0  0
   -1.2523   -0.9618   -2.1082 H   0  0  0  0  0  0  0  0  0  0  0  0
    0.3752    0.8442   -3.7678 H   0  0  0  0  0  0  0  0  0  0  0  0
    0.1537   -2.1911   -4.2247 H   0  0  0  0  0  0  0  0  0  0  0  0
    0.9514   -1.0515   -5.3155 H   0  0  0  0  0  0  0  0  0  0  0  0
    1.6104   -1.3388   -3.6941 H   0  0  0  0  0  0  0  0  0  0  0  0
   -1.3074    0.6657   -5.7028 N   0  0  0  0  0  0  0  0  0  0  0  0
   -2.3961    0.8939   -6.6241 C   0  0  0  0  0  0  0  0  0  0  0  0
   -0.3929    1.0323   -5.9498 H   0  0  0  0  0  0  0  0  0  0  0  0
   -2.4481    0.0638   -7.3440 H   0  0  0  0  0  0  0  0  0  0  0  0
   -3.3420    0.9547   -6.0658 H   0  0  0  0  0  0  0  0  0  0  0  0
   -2.2277    1.8373   -7.1640 H   0  0  0  0  0  0  0  0  0  0  0  0
  1  3  1  0  0  0  0
  1  7  1  0  0  0  0
  1  2  2  0  0  0  0
 35 36  1  0  0  0  0
 36 44  1  0  0  0  0
 36 37  2  0  0  0  0
  8  9  1  0  0  0  0
  9 17  1  0  0  0  0
  9 10  2  0  0  0  0
 18 19  1  0  0  0  0
 19 34  1  0  0  0  0
 19 20  2  0  0  0  0
 35 38  1  0  0  0  0
  8 11  1  0  0  0  0
 44 45  1  0  0  0  0
 23 24  1  0  0  0  0
 21 22  1  0  0  0  0
 18 21  1  0  0  0  0
 22 23  1  0  0  0  0
 34 35  1  0  0  0  0
  7  8  1  0  0  0  0
 17 18  1  0  0  0  0
  3  4  1  0  0  0  0
  3  5  1  0  0  0  0
  3  6  1  0  0  0  0
 38 41  1  0  0  0  0
 38 42  1  0  0  0  0
 38 43  1  0  0  0  0
 11 14  1  0  0  0  0
 11 15  1  0  0  0  0
 11 16  1  0  0  0  0
 45 47  1  0  0  0  0
 45 48  1  0  0  0  0
 45 49  1  0  0  0  0
 24 31  1  0  0  0  0
 24 32  1  0  0  0  0
 24 33  1  0  0  0  0
 21 27  1  0  0  0  0
 21 28  1  0  0  0  0
 22 29  1  0  0  0  0
 22 30  1  0  0  0  0
 35 40  1  0  0  0  0
  8 13  1  0  0  0  0
 18 26  1  0  0  0  0
 44 46  1  0  0  0  0
  7 12  1  0  0  0  0
 34 39  1  0  0  0  0
 17 25  1  0  0  0  0
M  END
$$$$

  -OEChem-05262214473D

 49 48  0     1  0  0  0  0  0999 V2000
   -0.0561   -5.3799    2.6949 C   0  0  0  0  0  0  0  0  0  0  0  0
    0.7325   -5.0736    3.5815 O   0  0  0  0  0  0  0  0  0  0  0  0
   -1.0067   -6.5099    2.9135 C   0  0  0  0  0  0  0  0  0  0  0  0
   -0.5910   -7.4777    2.5899 H   0  0  0  0  0  0  0  0  0  0  0  0
   -1.2629   -6.6440    3.9767 H   0  0  0  0  0  0  0  0  0  0  0  0
   -1.9729   -6.4206    2.3918 H   0  0  0  0  0  0  0  0  0  0  0  0
   -0.1735   -4.7694    1.4571 N   0  0  0  0  0  0  0  0  0  0  0  0
    0.6439   -3.6603    1.0409 C   0  0  2  0  0  0  0  0  0  0  0  0
   -0.2788   -2.5625    0.5280 C   0  0  0  0  0  0  0  0  0  0  0  0
   -1.4197   -2.7791    0.1251 O   0  0  0  0  0  0  0  0  0  0  0  0
    1.6395   -4.0779   -0.0301 C   0  0  0  0  0  0  0  0  0  0  0  0
   -0.8741   -5.1235    0.8083 H   0  0  0  0  0  0  0  0  0  0  0  0
    1.1738   -3.3062    1.9318 H   0  0  0  0  0  0  0  0  0  0  0  0
    1.1270   -4.4358   -0.9305 H   0  0  0  0  0  0  0  0  0  0  0  0
    2.2797   -3.2400   -0.3251 H   0  0  0  0  0  0  0  0  0  0  0  0
    2.2827   -4.8880    0.3303 H   0  0  0  0  0  0  0  0  0  0  0  0
    0.3351   -1.3153    0.5316 N   0  0  0  0  0  0  0  0  0  0  0  0
   -0.3268   -0.1184    0.0807 C   0  0  2  0  0  0  0  0  0  0  0  0
    0.2247    0.2606   -1.2903 C   0  0  0  0  0  0  0  0  0  0  0  0
    1.3219    0.7926   -1.4462 O   0  0  0  0  0  0  0  0  0  0  0  0
   -0.2186    1.0224    1.1018 C   0  0  0  0  0  0  0  0  0  0  0  0
   -0.9622    0.7475    2.4110 C   0  0  0  0  0  0  0  0  0  0  0  0
   -2.7387    0.5218    2.0995 S   0  0  0  0  0  0  0  0  0  0  0  0
   -3.1393    2.2213    1.6340 C   0  0  0  0  0  0  0  0  0  0  0  0
    1.2790   -1.2290    0.9021 H   0  0  0  0  0  0  0  0  0  0  0  0
   -1.3827   -0.3887   -0.0417 H   0  0  0  0  0  0  0  0  0  0  0  0
   -0.6173    1.9367    0.6422 H   0  0  0  0  0  0  0  0  0  0  0  0
    0.8411    1.2098    1.3178 H   0  0  0  0  0  0  0  0  0  0  0  0
   -0.8476    1.5815    3.1098 H   0  0  0  0  0  0  0  0  0  0  0  0
   -0.5855   -0.1582    2.8954 H   0  0  0  0  0  0  0  0  0  0  0  0
   -4.2035    2.3013    1.3988 H   0  0  0  0  0  0  0  0  0  0  0  0
   -2.5574    2.5125    0.7560 H   0  0  0  0  0  0  0  0  0  0  0  0
   -2.9038    2.8976    2.4593 H   0  0  0  0  0  0  0  0  0  0  0  0
   -0.6643   -0.0347   -2.3138 N   0  0  0  0  0  0  0  0  0  0  0  0
   -0.3741    0.2438   -3.7007 C   0  0  2  0  0  0  0  0  0  0  0  0
   -1.6547    0.7403   -4.3587 C   0  0  0  0  0  0  0  0  0  0  0  0
   -2.7749    0.4967   -3.9148 O   0  0  0  0  0  0  0  0  0  0  0  0
    0.1601   -0.9893   -4.4127 C   0  0  0  0  0  0  0  0  0  0  0  0
   -1.5402   -0.5009   -2.0966 H   0  0  0  0  0  0  0  0  0  0  0  0
    0.3764    1.0417   -3.7128 H   0  0  0  0  0  0  0  0  0  0  0  0
   -0.5781   -1.7996   -4.4108 H   0  0  0  0  0  0  0  0  0  0  0  0
    0.4065   -0.7691   -5.4567 H   0  0  0  0  0  0  0  0  0  0  0  0
    1.0645   -1.3625   -3.9202 H   0  0  0  0  0  0  0  0  0  0  0  0
   -1.4014    1.4509   -5.5236 N   0  0  0  0  0  0  0  0  0  0  0  0
   -2.4531    2.0149   -6.3371 C   0  0  0  0  0  0  0  0  0  0  0  0
   -0.4407    1.6208   -5.8064 H   0  0  0  0  0  0  0  0  0  0  0  0
   -2.7375    1.2961   -7.1198 H   0  0  0  0  0  0  0  0  0  0  0  0
   -3.3270    2.2343   -5.7060 H   0  0  0  0  0  0  0  0  0  0  0  0
   -2.0962    2.9441   -6.8051 H   0  0  0  0  0  0  0  0  0  0  0  0
  1  3  1  0  0  0  0
  1  7  1  0  0  0  0
  1  2  2  0  0  0  0
 35 36  1  0  0  0  0
 36 44  1  0  0  0  0
 36 37  2  0  0  0  0
  8  9  1  0  0  0  0
  9 17  1  0  0  0  0
  9 10  2  0  0  0  0
 18 19  1  0  0  0  0
 19 34  1  0  0  0  0
 19 20  2  0  0  0  0
 35 38  1  0  0  0  0
  8 11  1  0  0  0  0
 44 45  1  0  0  0  0
 23 24  1  0  0  0  0
 21 22  1  0  0  0  0
 18 21  1  0  0  0  0
 22 23  1  0  0  0  0
 34 35  1  0  0  0  0
  7  8  1  0  0  0  0
 17 18  1  0  0  0  0
  3  4  1  0  0  0  0
  3  5  1  0  0  0  0
  3  6  1  0  0  0  0
 38 41  1  0  0  0  0
 38 42  1  0  0  0  0
 38 43  1  0  0  0  0
 11 14  1  0  0  0  0
 11 15  1  0  0  0  0
 11 16  1  0  0  0  0
 45 47  1  0  0  0  0
 45 48  1  0  0  0  0
 45 49  1  0  0  0  0
 24 31  1  0  0  0  0
 24 32  1  0  0  0  0
 24 33  1  0  0  0  0
 21 27  1  0  0  0  0
 21 28  1  0  0  0  0
 22 29  1  0  0  0  0
 22 30  1  0  0  0  0
 35 40  1  0  0  0  0
  8 13  1  0  0  0  0
 18 26  1  0  0  0  0
 44 46  1  0  0  0  0
  7 12  1  0  0  0  0
 34 39  1  0  0  0  0
 17 25  1  0  0  0  0
M  END
$$$$

  -OEChem-05262214473D

 49 48  0     1  0  0  0  0  0999 V2000
   -0.0561   -5.3799    2.6949 C   0  0  0  0  0  0  0  0  0  0  0  0
    0.7325   -5.0736    3.5815 O   0  0  0  0  0  0  0  0  0  0  0  0
   -1.0067   -6.5099    2.9135 C   0  0  0  0  0  0  0  0  0  0  0  0
   -0.5910   -7.4777    2.5899 H   0  0  0  0  0  0  0  0  0  0  0  0
   -1.2629   -6.6440    3.9767 H   0  0  0  0  0  0  0  0  0  0  0  0
   -1.9729   -6.4206    2.3918 H   0  0  0  0  0  0  0  0  0  0  0  0
   -0.1735   -4.7694    1.4571 N   0  0  0  0  0  0  0  0  0  0  0  0
    0.6439   -3.6603    1.0409 C   0  0  2  0  0  0  0  0  0  0  0  0
   -0.2788   -2.5625    0.5280 C   0  0  0  0  0  0  0  0  0  0  0  0
   -1.4197   -2.7791    0.1251 O   0  0  0  0  0  0  0  0  0  0  0  0
    1.6395   -4.0779   -0.0301 C   0  0  0  0  0  0  0  0  0  0  0  0
   -0.8741   -5.1235    0.8083 H   0  0  0  0  0  0  0  0  0  0  0  0
    1.1738   -3.3062    1.9318 H   0  0  0  0  0  0  0  0  0  0  0  0
    1.1270   -4.4358   -0.9305 H   0  0  0  0  0  0  0  0  0  0  0  0
    2.2797   -3.2400   -0.3251 H   0  0  0  0  0  0  0  0  0  0  0  0
    2.2827   -4.8880    0.3303 H   0  0  0  0  0  0  0  0  0  0  0  0
    0.3351   -1.3153    0.5316 N   0  0  0  0  0  0  0  0  0  0  0  0
   -0.3268   -0.1184    0.0807 C   0  0  2  0  0  0  0  0  0  0  0  0
    0.2247    0.2606   -1.2903 C   0  0  0  0  0  0  0  0  0  0  0  0
    1.4065    0.5395   -1.4821 O   0  0  0  0  0  0  0  0  0  0  0  0
   -0.2186    1.0224    1.1018 C   0  0  0  0  0  0  0  0  0  0  0  0
   -0.9622    0.7475    2.4110 C   0  0  0  0  0  0  0  0  0  0  0  0
   -2.7387    0.5218    2.0995 S   0  0  0  0  0  0  0  0  0  0  0  0
   -3.1393    2.2213    1.6340 C   0  0  0  0  0  0  0  0  0  0  0  0
    1.2790   -1.2290    0.9021 H   0  0  0  0  0  0  0  0  0  0  0  0
   -1.3827   -0.3887   -0.0417 H   0  0  0  0  0  0  0  0  0  0  0  0
   -0.6173    1.9367    0.6422 H   0  0  0  0  0  0  0  0  0  0  0  0
    0.8411    1.2098    1.3178 H   0  0  0  0  0  0  0  0  0  0  0  0
   -0.8476    1.5815    3.1098 H   0  0  0  0  0  0  0  0  0  0  0  0
   -0.5855   -0.1582    2.8954 H   0  0  0  0  0  0  0  0  0  0  0  0
   -4.2035    2.3013    1.3988 H   0  0  0  0  0  0  0  0  0  0  0  0
   -2.5574    2.5125    0.7560 H   0  0  0  0  0  0  0  0  0  0  0  0
   -2.9038    2.8976    2.4593 H   0  0  0  0  0  0  0  0  0  0  0  0
   -0.7620    0.2824   -2.2654 N   0  0  0  0  0  0  0  0  0  0  0  0
   -0.4886    0.6257   -3.6412 C   0  0  2  0  0  0  0  0  0  0  0  0
   -1.6493    1.4668   -4.1557 C   0  0  0  0  0  0  0  0  0  0  0  0
   -2.7701    1.4432   -3.6513 O   0  0  0  0  0  0  0  0  0  0  0  0
   -0.2987   -0.6185   -4.4948 C   0  0  0  0  0  0  0  0  0  0  0  0
   -1.7103    0.0101   -2.0238 H   0  0  0  0  0  0  0  0  0  0  0  0
    0.4271    1.2270   -3.6412 H   0  0  0  0  0  0  0  0  0  0  0  0
   -1.2059   -1.2337   -4.5070 H   0  0  0  0  0  0  0  0  0  0  0  0
   -0.0633   -0.3563   -5.5316 H   0  0  0  0  0  0  0  0  0  0  0  0
    0.5172   -1.2372   -4.1058 H   0  0  0  0  0  0  0  0  0  0  0  0
   -1.2981    2.2144   -5.2710 N   0  0  0  0  0  0  0  0  0  0  0  0
   -2.2290    3.0841   -5.9514 C   0  0  0  0  0  0  0  0  0  0  0  0
   -0.3409    2.1870   -5.6097 H   0  0  0  0  0  0  0  0  0  0  0  0
   -2.7160    2.5327   -6.7693 H   0  0  0  0  0  0  0  0  0  0  0  0
   -2.9917    3.4332   -5.2397 H   0  0  0  0  0  0  0  0  0  0  0  0
   -1.6886    3.9490   -6.3634 H   0  0  0  0  0  0  0  0  0  0  0  0
  1  3  1  0  0  0  0
  1  7  1  0  0  0  0
  1  2  2  0  0  0  0
 35 36  1  0  0  0  0
 36 44  1  0  0  0  0
 36 37  2  0  0  0  0
  8  9  1  0  0  0  0
  9 17  1  0  0  0  0
  9 10  2  0  0  0  0
 18 19  1  0  0  0  0
 19 34  1  0  0  0  0
 19 20  2  0  0  0  0
 35 38  1  0  0  0  0
  8 11  1  0  0  0  0
 44 45  1  0  0  0  0
 23 24  1  0  0  0  0
 21 22  1  0  0  0  0
 18 21  1  0  0  0  0
 22 23  1  0  0  0  0
 34 35  1  0  0  0  0
  7  8  1  0  0  0  0
 17 18  1  0  0  0  0
  3  4  1  0  0  0  0
  3  5  1  0  0  0  0
  3  6  1  0  0  0  0
 38 41  1  0  0  0  0
 38 42  1  0  0  0  0
 38 43  1  0  0  0  0
 11 14  1  0  0  0  0
 11 15  1  0  0  0  0
 11 16  1  0  0  0  0
 45 47  1  0  0  0  0
 45 48  1  0  0  0  0
 45 49  1  0  0  0  0
 24 31  1  0  0  0  0
 24 32  1  0  0  0  0
 24 33  1  0  0  0  0
 21 27  1  0  0  0  0
 21 28  1  0  0  0  0
 22 29  1  0  0  0  0
 22 30  1  0  0  0  0
 35 40  1  0  0  0  0
  8 13  1  0  0  0  0
 18 26  1  0  0  0  0
 44 46  1  0  0  0  0
  7 12  1  0  0  0  0
 34 39  1  0  0  0  0
 17 25  1  0  0  0  0
M  END
$$$$

  -OEChem-05262214473D

 49 48  0     1  0  0  0  0  0999 V2000
   -0.0561   -5.3799    2.6949 C   0  0  0  0  0  0  0  0  0  0  0  0
    0.7325   -5.0736    3.5815 O   0  0  0  0  0  0  0  0  0  0  0  0
   -1.0067   -6.5099    2.9135 C   0  0  0  0  0  0  0  0  0  0  0  0
   -0.5910   -7.4777    2.5899 H   0  0  0  0  0  0  0  0  0  0  0  0
   -1.2629   -6.6440    3.9767 H   0  0  0  0  0  0  0  0  0  0  0  0
   -1.9729   -6.4206    2.3918 H   0  0  0  0  0  0  0  0  0  0  0  0
   -0.1735   -4.7694    1.4571 N   0  0  0  0  0  0  0  0  0  0  0  0
    0.6439   -3.6603    1.0409 C   0  0  2  0  0  0  0  0  0  0  0  0
   -0.2788   -2.5625    0.5280 C   0  0  0  0  0  0  0  0  0  0  0  0
   -1.4197   -2.7791    0.1251 O   0  0  0  0  0  0  0  0  0  0  0  0
    1.6395   -4.0779   -0.0301 C   0  0  0  0  0  0  0  0  0  0  0  0
   -0.8741   -5.1235    0.8083 H   0  0  0  0  0  0  0  0  0  0  0  0
    1.1738   -3.3062    1.9318 H   0  0  0  0  0  0  0  0  0  0  0  0
    1.1270   -4.4358   -0.9305 H   0  0  0  0  0  0  0  0  0  0  0  0
    2.2797   -3.2400   -0.3251 H   0  0  0  0  0  0  0  0  0  0  0  0
    2.2827   -4.8880    0.3303 H   0  0  0  0  0  0  0  0  0  0  0  0
    0.3351   -1.3153    0.5316 N   0  0  0  0  0  0  0  0  0  0  0  0
   -0.3268   -0.1184    0.0807 C   0  0  2  0  0  0  0  0  0  0  0  0
    0.2247    0.2606   -1.2903 C   0  0  0  0  0  0  0  0  0  0  0  0
    1.4270    0.2788   -1.5459 O   0  0  0  0  0  0  0  0  0  0  0  0
   -0.2186    1.0224    1.1018 C   0  0  0  0  0  0  0  0  0  0  0  0
   -0.9622    0.7475    2.4110 C   0  0  0  0  0  0  0  0  0  0  0  0
   -2.7387    0.5218    2.0995 S   0  0  0  0  0  0  0  0  0  0  0  0
   -3.1393    2.2213    1.6340 C   0  0  0  0  0  0  0  0  0  0  0  0
    1.2790   -1.2290    0.9021 H   0  0  0  0  0  0  0  0  0  0  0  0
   -1.3827   -0.3887   -0.0417 H   0  0  0  0  0  0  0  0  0  0  0  0
   -0.6173    1.9367    0.6422 H   0  0  0  0  0  0  0  0  0  0  0  0
    0.8411    1.2098    1.3178 H   0  0  0  0  0  0  0  0  0  0  0  0
   -0.8476    1.5815    3.1098 H   0  0  0  0  0  0  0  0  0  0  0  0
   -0.5855   -0.1582    2.8954 H   0  0  0  0  0  0  0  0  0  0  0  0
   -4.2035    2.3013    1.3988 H   0  0  0  0  0  0  0  0  0  0  0  0
   -2.5574    2.5125    0.7560 H   0  0  0  0  0  0  0  0  0  0  0  0
   -2.9038    2.8976    2.4593 H   0  0  0  0  0  0  0  0  0  0  0  0
   -0.7796    0.6068   -2.1828 N   0  0  0  0  0  0  0  0  0  0  0  0
   -0.5066    1.0156   -3.5407 C   0  0  2  0  0  0  0  0  0  0  0  0
   -1.4621    2.1483   -3.8920 C   0  0  0  0  0  0  0  0  0  0  0  0
   -2.5284    2.3317   -3.3084 O   0  0  0  0  0  0  0  0  0  0  0  0
   -0.6609   -0.1460   -4.5099 C   0  0  0  0  0  0  0  0  0  0  0  0
   -1.7510    0.5365   -1.8947 H   0  0  0  0  0  0  0  0  0  0  0  0
    0.5237    1.3875   -3.5579 H   0  0  0  0  0  0  0  0  0  0  0  0
   -1.6868   -0.5321   -4.5065 H   0  0  0  0  0  0  0  0  0  0  0  0
   -0.4259    0.1586   -5.5351 H   0  0  0  0  0  0  0  0  0  0  0  0
    0.0057   -0.9716   -4.2382 H   0  0  0  0  0  0  0  0  0  0  0  0
   -1.0044    2.9042   -4.9622 N   0  0  0  0  0  0  0  0  0  0  0  0
   -1.7391    4.0286   -5.4932 C   0  0  0  0  0  0  0  0  0  0  0  0
   -0.1000    2.6922   -5.3731 H   0  0  0  0  0  0  0  0  0  0  0  0
   -2.3851    3.6894   -6.3164 H   0  0  0  0  0  0  0  0  0  0  0  0
   -2.3590    4.4696   -4.6987 H   0  0  0  0  0  0  0  0  0  0  0  0
   -1.0327    4.7836   -5.8688 H   0  0  0  0  0  0  0  0  0  0  0  0
  1  3  1  0  0  0  0
  1  7  1  0  0  0  0
  1  2  2  0  0  0  0
 35 36  1  0  0  0  0
 36 44  1  0  0  0  0
 36 37  2  0  0  0  0
  8  9  1  0  0  0  0
  9 17  1  0  0  0  0
  9 10  2  0  0  0  0
 18 19  1  0  0  0  0
 19 34  1  0  0  0  0
 19 20  2  0  0  0  0
 35 38  1  0  0  0  0
  8 11  1  0  0  0  0
 44 45  1  0  0  0  0
 23 24  1  0  0  0  0
 21 22  1  0  0  0  0
 18 21  1  0  0  0  0
 22 23  1  0  0  0  0
 34 35  1  0  0  0  0
  7  8  1  0  0  0  0
 17 18  1  0  0  0  0
  3  4  1  0  0  0  0
  3  5  1  0  0  0  0
  3  6  1  0  0  0  0
 38 41  1  0  0  0  0
 38 42  1  0  0  0  0
 38 43  1  0  0  0  0
 11 14  1  0  0  0  0
 11 15  1  0  0  0  0
 11 16  1  0  0  0  0
 45 47  1  0  0  0  0
 45 48  1  0  0  0  0
 45 49  1  0  0  0  0
 24 31  1  0  0  0  0
 24 32  1  0  0  0  0
 24 33  1  0  0  0  0
 21 27  1  0  0  0  0
 21 28  1  0  0  0  0
 22 29  1  0  0  0  0
 22 30  1  0  0  0  0
 35 40  1  0  0  0  0
  8 13  1  0  0  0  0
 18 26  1  0  0  0  0
 44 46  1  0  0  0  0
  7 12  1  0  0  0  0
 34 39  1  0  0  0  0
 17 25  1  0  0  0  0
M  END
$$$$

  -OEChem-05262214473D

 49 48  0     1  0  0  0  0  0999 V2000
   -0.0561   -5.3799    2.6949 C   0  0  0  0  0  0  0  0  0  0  0  0
    0.7325   -5.0736    3.5815 O   0  0  0  0  0  0  0  0  0  0  0  0
   -1.0067   -6.5099    2.9135 C   0  0  0  0  0  0  0  0  0  0  0  0
   -0.5910   -7.4777    2.5899 H   0  0  0  0  0  0  0  0  0  0  0  0
   -1.2629   -6.6440    3.9767 H   0  0  0  0  0  0  0  0  0  0  0  0
   -1.9729   -6.4206    2.3918 H   0  0  0  0  0  0  0  0  0  0  0  0
   -0.1735   -4.7694    1.4571 N   0  0  0  0  0  0  0  0  0  0  0  0
    0.6439   -3.6603    1.0409 C   0  0  2  0  0  0  0  0  0  0  0  0
   -0.2788   -2.5625    0.5280 C   0  0  0  0  0  0  0  0  0  0  0  0
   -1.4197   -2.7791    0.1251 O   0  0  0  0  0  0  0  0  0  0  0  0
    1.6395   -4.0779   -0.0301 C   0  0  0  0  0  0  0  0  0  0  0  0
   -0.8741   -5.1235    0.8083 H   0  0  0  0  0  0  0  0  0  0  0  0
    1.1738   -3.3062    1.9318 H   0  0  0  0  0  0  0  0  0  0  0  0
    1.1270   -4.4358   -0.9305 H   0  0  0  0  0  0  0  0  0  0  0  0
    2.2797   -3.2400   -0.3251 H   0  0  0  0  0  0  0  0  0  0  0  0
    2.2827   -4.8880    0.3303 H   0  0  0  0  0  0  0  0  0  0  0  0
    0.3351   -1.3153    0.5316 N   0  0  0  0  0  0  0  0  0  0  0  0
   -0.3268   -0.1184    0.0807 C   0  0  2  0  0  0  0  0  0  0  0  0
    0.2247    0.2606   -1.2903 C   0  0  0  0  0  0  0  0  0  0  0  0
    1.3821    0.0281   -1.6333 O   0  0  0  0  0  0  0  0  0  0  0  0
   -0.2186    1.0224    1.1018 C   0  0  0  0  0  0  0  0  0  0  0  0
   -0.9622    0.7475    2.4110 C   0  0  0  0  0  0  0  0  0  0  0  0
   -2.7387    0.5218    2.0995 S   0  0  0  0  0  0  0  0  0  0  0  0
   -3.1393    2.2213    1.6340 C   0  0  0  0  0  0  0  0  0  0  0  0
    1.2790   -1.2290    0.9021 H   0  0  0  0  0  0  0  0  0  0  0  0
   -1.3827   -0.3887   -0.0417 H   0  0  0  0  0  0  0  0  0  0  0  0
   -0.6173    1.9367    0.6422 H   0  0  0  0  0  0  0  0  0  0  0  0
    0.8411    1.2098    1.3178 H   0  0  0  0  0  0  0  0  0  0  0  0
   -0.8476    1.5815    3.1098 H   0  0  0  0  0  0  0  0  0  0  0  0
   -0.5855   -0.1582    2.8954 H   0  0  0  0  0  0  0  0  0  0  0  0
   -4.2035    2.3013    1.3988 H   0  0  0  0  0  0  0  0  0  0  0  0
   -2.5574    2.5125    0.7560 H   0  0  0  0  0  0  0  0  0  0  0  0
   -2.9038    2.8976    2.4593 H   0  0  0  0  0  0  0  0  0  0  0  0
   -0.7157    0.9166   -2.0715 N   0  0  0  0  0  0  0  0  0  0  0  0
   -0.4268    1.3870   -3.4059 C   0  0  2  0  0  0  0  0  0  0  0  0
   -1.1058    2.7384   -3.5855 C   0  0  0  0  0  0  0  0  0  0  0  0
   -2.0662    3.1016   -2.9097 O   0  0  0  0  0  0  0  0  0  0  0  0
   -0.9019    0.3960   -4.4570 C   0  0  0  0  0  0  0  0  0  0  0  0
   -1.6596    1.0423   -1.7181 H   0  0  0  0  0  0  0  0  0  0  0  0
    0.6597    1.5123   -3.4687 H   0  0  0  0  0  0  0  0  0  0  0  0
   -1.9882    0.2574   -4.4095 H   0  0  0  0  0  0  0  0  0  0  0  0
   -0.6566    0.7407   -5.4670 H   0  0  0  0  0  0  0  0  0  0  0  0
   -0.4351   -0.5837   -4.3082 H   0  0  0  0  0  0  0  0  0  0  0  0
   -0.5405    3.4733   -4.6182 N   0  0  0  0  0  0  0  0  0  0  0  0
   -1.0167    4.7841   -4.9937 C   0  0  0  0  0  0  0  0  0  0  0  0
    0.2653    3.1021   -5.1128 H   0  0  0  0  0  0  0  0  0  0  0  0
   -1.7673    4.6873   -5.7920 H   0  0  0  0  0  0  0  0  0  0  0  0
   -1.4720    5.2730   -4.1198 H   0  0  0  0  0  0  0  0  0  0  0  0
   -0.1733    5.3908   -5.3552 H   0  0  0  0  0  0  0  0  0  0  0  0
  1  3  1  0  0  0  0
  1  7  1  0  0  0  0
  1  2  2  0  0  0  0
 35 36  1  0  0  0  0
 36 44  1  0  0  0  0
 36 37  2  0  0  0  0
  8  9  1  0  0  0  0
  9 17  1  0  0  0  0
  9 10  2  0  0  0  0
 18 19  1  0  0  0  0
 19 34  1  0  0  0  0
 19 20  2  0  0  0  0
 35 38  1  0  0  0  0
  8 11  1  0  0  0  0
 44 45  1  0  0  0  0
 23 24  1  0  0  0  0
 21 22  1  0  0  0  0
 18 21  1  0  0  0  0
 22 23  1  0  0  0  0
 34 35  1  0  0  0  0
  7  8  1  0  0  0  0
 17 18  1  0  0  0  0
  3  4  1  0  0  0  0
  3  5  1  0  0  0  0
  3  6  1  0  0  0  0
 38 41  1  0  0  0  0
 38 42  1  0  0  0  0
 38 43  1  0  0  0  0
 11 14  1  0  0  0  0
 11 15  1  0  0  0  0
 11 16  1  0  0  0  0
 45 47  1  0  0  0  0
 45 48  1  0  0  0  0
 45 49  1  0  0  0  0
 24 31  1  0  0  0  0
 24 32  1  0  0  0  0
 24 33  1  0  0  0  0
 21 27  1  0  0  0  0
 21 28  1  0  0  0  0
 22 29  1  0  0  0  0
 22 30  1  0  0  0  0
 35 40  1  0  0  0  0
  8 13  1  0  0  0  0
 18 26  1  0  0  0  0
 44 46  1  0  0  0  0
  7 12  1  0  0  0  0
 34 39  1  0  0  0  0
 17 25  1  0  0  0  0
M  END
$$$$

  -OEChem-05262214473D

 49 48  0     1  0  0  0  0  0999 V2000
   -0.0561   -5.3799    2.6949 C   0  0  0  0  0  0  0  0  0  0  0  0
    0.7325   -5.0736    3.5815 O   0  0  0  0  0  0  0  0  0  0  0  0
   -1.0067   -6.5099    2.9135 C   0  0  0  0  0  0  0  0  0  0  0  0
   -0.5910   -7.4777    2.5899 H   0  0  0  0  0  0  0  0  0  0  0  0
   -1.2629   -6.6440    3.9767 H   0  0  0  0  0  0  0  0  0  0  0  0
   -1.9729   -6.4206    2.3918 H   0  0  0  0  0  0  0  0  0  0  0  0
   -0.1735   -4.7694    1.4571 N   0  0  0  0  0  0  0  0  0  0  0  0
    0.6439   -3.6603    1.0409 C   0  0  2  0  0  0  0  0  0  0  0  0
   -0.2788   -2.5625    0.5280 C   0  0  0  0  0  0  0  0  0  0  0  0
   -1.4197   -2.7791    0.1251 O   0  0  0  0  0  0  0  0  0  0  0  0
    1.6395   -4.0779   -0.0301 C   0  0  0  0  0  0  0  0  0  0  0  0
   -0.8741   -5.1235    0.8083 H   0  0  0  0  0  0  0  0  0  0  0  0
    1.1738   -3.3062    1.9318 H   0  0  0  0  0  0  0  0  0  0  0  0
    1.1270   -4.4358   -0.9305 H   0  0  0  0  0  0  0  0  0  0  0  0
    2.2797   -3.2400   -0.3251 H   0  0  0  0  0  0  0  0  0  0  0  0
    2.2827   -4.8880    0.3303 H   0  0  0  0  0  0  0  0  0  0  0  0
    0.3351   -1.3153    0.5316 N   0  0  0  0  0  0  0  0  0  0  0  0
   -0.3268   -0.1184    0.0807 C   0  0  2  0  0  0  0  0  0  0  0  0
    0.2247    0.2606   -1.2903 C   0  0  0  0  0  0  0  0  0  0  0  0
    1.2748   -0.1954   -1.7383 O   0  0  0  0  0  0  0  0  0  0  0  0
   -0.2186    1.0224    1.1018 C   0  0  0  0  0  0  0  0  0  0  0  0
   -0.9622    0.7475    2.4110 C   0  0  0  0  0  0  0  0  0  0  0  0
   -2.7387    0.5218    2.0995 S   0  0  0  0  0  0  0  0  0  0  0  0
   -3.1393    2.2213    1.6340 C   0  0  0  0  0  0  0  0  0  0  0  0
    1.2790   -1.2290    0.9021 H   0  0  0  0  0  0  0  0  0  0  0  0
   -1.3827   -0.3887   -0.0417 H   0  0  0  0  0  0  0  0  0  0  0  0
   -0.6173    1.9367    0.6422 H   0  0  0  0  0  0  0  0  0  0  0  0
    0.8411    1.2098    1.3178 H   0  0  0  0  0  0  0  0  0  0  0  0
   -0.8476    1.5815    3.1098 H   0  0  0  0  0  0  0  0  0  0  0  0
   -0.5855   -0.1582    2.8954 H   0  0  0  0  0  0  0  0  0  0  0  0
   -4.2035    2.3013    1.3988 H   0  0  0  0  0  0  0  0  0  0  0  0
   -2.5574    2.5125    0.7560 H   0  0  0  0  0  0  0  0  0  0  0  0
   -2.9038    2.8976    2.4593 H   0  0  0  0  0  0  0  0  0  0  0  0
   -0.5749    1.1905   -1.9391 N   0  0  0  0  0  0  0  0  0  0  0  0
   -0.2546    1.7146   -3.2461 C   0  0  2  0  0  0  0  0  0  0  0  0
   -0.6046    3.1968   -3.2572 C   0  0  0  0  0  0  0  0  0  0  0  0
   -1.4150    3.7004   -2.4822 O   0  0  0  0  0  0  0  0  0  0  0  0
   -1.0052    0.9707   -4.3397 C   0  0  0  0  0  0  0  0  0  0  0  0
   -1.4424    1.4931   -1.5061 H   0  0  0  0  0  0  0  0  0  0  0  0
    0.8258    1.5929   -3.3796 H   0  0  0  0  0  0  0  0  0  0  0  0
   -2.0894    1.0811   -4.2226 H   0  0  0  0  0  0  0  0  0  0  0  0
   -0.7396    1.3502   -5.3319 H   0  0  0  0  0  0  0  0  0  0  0  0
   -0.7751   -0.0999   -4.3113 H   0  0  0  0  0  0  0  0  0  0  0  0
    0.0621    3.8830   -4.2625 N   0  0  0  0  0  0  0  0  0  0  0  0
   -0.1111    5.2992   -4.4870 C   0  0  0  0  0  0  0  0  0  0  0  0
    0.7302    3.3887   -4.8466 H   0  0  0  0  0  0  0  0  0  0  0  0
   -0.9047    5.4585   -5.2318 H   0  0  0  0  0  0  0  0  0  0  0  0
   -0.3912    5.7885   -3.5425 H   0  0  0  0  0  0  0  0  0  0  0  0
    0.8311    5.7294   -4.8576 H   0  0  0  0  0  0  0  0  0  0  0  0
  1  3  1  0  0  0  0
  1  7  1  0  0  0  0
  1  2  2  0  0  0  0
 35 36  1  0  0  0  0
 36 44  1  0  0  0  0
 36 37  2  0  0  0  0
  8  9  1  0  0  0  0
  9 17  1  0  0  0  0
  9 10  2  0  0  0  0
 18 19  1  0  0  0  0
 19 34  1  0  0  0  0
 19 20  2  0  0  0  0
 35 38  1  0  0  0  0
  8 11  1  0  0  0  0
 44 45  1  0  0  0  0
 23 24  1  0  0  0  0
 21 22  1  0  0  0  0
 18 21  1  0  0  0  0
 22 23  1  0  0  0  0
 34 35  1  0  0  0  0
  7  8  1  0  0  0  0
 17 18  1  0  0  0  0
  3  4  1  0  0  0  0
  3  5  1  0  0  0  0
  3  6  1  0  0  0  0
 38 41  1  0  0  0  0
 38 42  1  0  0  0  0
 38 43  1  0  0  0  0
 11 14  1  0  0  0  0
 11 15  1  0  0  0  0
 11 16  1  0  0  0  0
 45 47  1  0  0  0  0
 45 48  1  0  0  0  0
 45 49  1  0  0  0  0
 24 31  1  0  0  0  0
 24 32  1  0  0  0  0
 24 33  1  0  0  0  0
 21 27  1  0  0  0  0
 21 28  1  0  0  0  0
 22 29  1  0  0  0  0
 22 30  1  0  0  0  0
 35 40  1  0  0  0  0
  8 13  1  0  0  0  0
 18 26  1  0  0  0  0
 44 46  1  0  0  0  0
  7 12  1  0  0  0  0
 34 39  1  0  0  0  0
 17 25  1  0  0  0  0
M  END
$$$$

  -OEChem-05262214473D

 49 48  0     1  0  0  0  0  0999 V2000
   -0.0561   -5.3799    2.6949 C   0  0  0  0  0  0  0  0  0  0  0  0
    0.7325   -5.0736    3.5815 O   0  0  0  0  0  0  0  0  0  0  0  0
   -1.0067   -6.5099    2.9135 C   0  0  0  0  0  0  0  0  0  0  0  0
   -0.5910   -7.4777    2.5899 H   0  0  0  0  0  0  0  0  0  0  0  0
   -1.2629   -6.6440    3.9767 H   0  0  0  0  0  0  0  0  0  0  0  0
   -1.9729   -6.4206    2.3918 H   0  0  0  0  0  0  0  0  0  0  0  0
   -0.1735   -4.7694    1.4571 N   0  0  0  0  0  0  0  0  0  0  0  0
    0.6439   -3.6603    1.0409 C   0  0  2  0  0  0  0  0  0  0  0  0
   -0.2788   -2.5625    0.5280 C   0  0  0  0  0  0  0  0  0  0  0  0
   -1.4197   -2.7791    0.1251 O   0  0  0  0  0  0  0  0  0  0  0  0
    1.6395   -4.0779   -0.0301 C   0  0  0  0  0  0  0  0  0  0  0  0
   -0.8741   -5.1235    0.8083 H   0  0  0  0  0  0  0  0  0  0  0  0
    1.1738   -3.3062    1.9318 H   0  0  0  0  0  0  0  0  0  0  0  0
    1.1270   -4.4358   -0.9305 H   0  0  0  0  0  0  0  0  0  0  0  0
    2.2797   -3.2400   -0.3251 H   0  0  0  0  0  0  0  0  0  0  0  0
    2.2827   -4.8880    0.3303 H   0  0  0  0  0  0  0  0  0  0  0  0
    0.3351   -1.3153    0.5316 N   0  0  0  0  0  0  0  0  0  0  0  0
   -0.3268   -0.1184    0.0807 C   0  0  2  0  0  0  0  0  0  0  0  0
   -0.0660    0.0538   -1.4125 C   0  0  0  0  0  0  0  0  0  0  0  0
    0.6305   -0.7221   -2.0637 O   0  0  0  0  0  0  0  0  0  0  0  0
    0.0807    1.1126    0.9019 C   0  0  0  0  0  0  0  0  0  0  0  0
   -0.3736    1.0546    2.3623 C   0  0  0  0  0  0  0  0  0  0  0  0
   -2.1862    0.9642    2.4627 S   0  0  0  0  0  0  0  0  0  0  0  0
   -2.5629    2.6321    1.8784 C   0  0  0  0  0  0  0  0  0  0  0  0
    1.2790   -1.2290    0.9021 H   0  0  0  0  0  0  0  0  0  0  0  0
   -1.3997   -0.3000    0.2185 H   0  0  0  0  0  0  0  0  0  0  0  0
   -0.3462    2.0042    0.4233 H   0  0  0  0  0  0  0  0  0  0  0  0
    1.1722    1.2222    0.8645 H   0  0  0  0  0  0  0  0  0  0  0  0
   -0.0516    1.9460    2.9089 H   0  0  0  0  0  0  0  0  0  0  0  0
    0.0380    0.1764    2.8684 H   0  0  0  0  0  0  0  0  0  0  0  0
   -3.6447    2.7855    1.8639 H   0  0  0  0  0  0  0  0  0  0  0  0
   -2.1700    2.7689    0.8678 H   0  0  0  0  0  0  0  0  0  0  0  0
   -2.1061    3.3700    2.5424 H   0  0  0  0  0  0  0  0  0  0  0  0
   -0.6742    1.1911   -1.9240 N   0  0  0  0  0  0  0  0  0  0  0  0
   -0.5619    1.5763   -3.3113 C   0  0  2  0  0  0  0  0  0  0  0  0
   -0.4185    3.0914   -3.3686 C   0  0  0  0  0  0  0  0  0  0  0  0
   -0.7953    3.8355   -2.4655 O   0  0  0  0  0  0  0  0  0  0  0  0
   -1.7682    1.1137   -4.1134 C   0  0  0  0  0  0  0  0  0  0  0  0
   -1.2563    1.7624   -1.3186 H   0  0  0  0  0  0  0  0  0  0  0  0
    0.3503    1.1077   -3.6967 H   0  0  0  0  0  0  0  0  0  0  0  0
   -2.6916    1.5727   -3.7418 H   0  0  0  0  0  0  0  0  0  0  0  0
   -1.6682    1.3815   -5.1705 H   0  0  0  0  0  0  0  0  0  0  0  0
   -1.8871    0.0269   -4.0467 H   0  0  0  0  0  0  0  0  0  0  0  0
    0.1403    3.5179   -4.5653 N   0  0  0  0  0  0  0  0  0  0  0  0
    0.3679    4.9120   -4.8663 C   0  0  0  0  0  0  0  0  0  0  0  0
    0.4406    2.8300   -5.2497 H   0  0  0  0  0  0  0  0  0  0  0  0
   -0.5022    5.3187   -5.4026 H   0  0  0  0  0  0  0  0  0  0  0  0
    0.5149    5.4700   -3.9298 H   0  0  0  0  0  0  0  0  0  0  0  0
    1.2647    5.0093   -5.4958 H   0  0  0  0  0  0  0  0  0  0  0  0
  1  3  1  0  0  0  0
  1  7  1  0  0  0  0
  1  2  2  0  0  0  0
 35 36  1  0  0  0  0
 36 44  1  0  0  0  0
 36 37  2  0  0  0  0
  8  9  1  0  0  0  0
  9 17  1  0  0  0  0
  9 10  2  0  0  0  0
 18 19  1  0  0  0  0
 19 34  1  0  0  0  0
 19 20  2  0  0  0  0
 35 38  1  0  0  0  0
  8 11  1  0  0  0  0
 44 45  1  0  0  0  0
 23 24  1  0  0  0  0
 21 22  1  0  0  0  0
 18 21  1  0  0  0  0
 22 23  1  0  0  0  0
 34 35  1  0  0  0  0
  7  8  1  0  0  0  0
 17 18  1  0  0  0  0
  3  4  1  0  0  0  0
  3  5  1  0  0  0  0
  3  6  1  0  0  0  0
 38 41  1  0  0  0  0
 38 42  1  0  0  0  0
 38 43  1  0  0  0  0
 11 14  1  0  0  0  0
 11 15  1  0  0  0  0
 11 16  1  0  0  0  0
 45 47  1  0  0  0  0
 45 48  1  0  0  0  0
 45 49  1  0  0  0  0
 24 31  1  0  0  0  0
 24 32  1  0  0  0  0
 24 33  1  0  0  0  0
 21 27  1  0  0  0  0
 21 28  1  0  0  0  0
 22 29  1  0  0  0  0
 22 30  1  0  0  0  0
 35 40  1  0  0  0  0
  8 13  1  0  0  0  0
 18 26  1  0  0  0  0
 44 46  1  0  0  0  0
  7 12  1  0  0  0  0
 34 39  1  0  0  0  0
 17 25  1  0  0  0  0
M  END
$$$$

  -OEChem-05262214473D

 49 48  0     1  0  0  0  0  0999 V2000
   -0.0561   -5.3799    2.6949 C   0  0  0  0  0  0  0  0  0  0  0  0
    0.7325   -5.0736    3.5815 O   0  0  0  0  0  0  0  0  0  0  0  0
   -1.0067   -6.5099    2.9135 C   0  0  0  0  0  0  0  0  0  0  0  0
   -0.5910   -7.4777    2.5899 H   0  0  0  0  0  0  0  0  0  0  0  0
   -1.2629   -6.6440    3.9767 H   0  0  0  0  0  0  0  0  0  0  0  0
   -1.9729   -6.4206    2.3918 H   0  0  0  0  0  0  0  0  0  0  0  0
   -0.1735   -4.7694    1.4571 N   0  0  0  0  0  0  0  0  0  0  0  0
    0.6439   -3.6603    1.0409 C   0  0  2  0  0  0  0  0  0  0  0  0
   -0.2788   -2.5625    0.5280 C   0  0  0  0  0  0  0  0  0  0  0  0
   -1.4197   -2.7791    0.1251 O   0  0  0  0  0  0  0  0  0  0  0  0
    1.6395   -4.0779   -0.0301 C   0  0  0  0  0  0  0  0  0  0  0  0
   -0.8741   -5.1235    0.8083 H   0  0  0  0  0  0  0  0  0  0  0  0
    1.1738   -3.3062    1.9318 H   0  0  0  0  0  0  0  0  0  0  0  0
    1.1270   -4.4358   -0.9305 H   0  0  0  0  0  0  0  0  0  0  0  0
    2.2797   -3.2400   -0.3251 H   0  0  0  0  0  0  0  0  0  0  0  0
    2.2827   -4.8880    0.3303 H   0  0  0  0  0  0  0  0  0  0  0  0
    0.3351   -1.3153    0.5316 N   0  0  0  0  0  0  0  0  0  0  0  0
   -0.3268   -0.1184    0.0807 C   0  0  2  0  0  0  0  0  0  0  0  0
   -0.0660    0.0538   -1.4125 C   0  0  0  0  0  0  0  0  0  0  0  0
    0.3951   -0.8407   -2.1185 O   0  0  0  0  0  0  0  0  0  0  0  0
    0.0807    1.1126    0.9019 C   0  0  0  0  0  0  0  0  0  0  0  0
   -0.3736    1.0546    2.3623 C   0  0  0  0  0  0  0  0  0  0  0  0
   -2.1862    0.9642    2.4627 S   0  0  0  0  0  0  0  0  0  0  0  0
   -2.5629    2.6321    1.8784 C   0  0  0  0  0  0  0  0  0  0  0  0
    1.2790   -1.2290    0.9021 H   0  0  0  0  0  0  0  0  0  0  0  0
   -1.3997   -0.3000    0.2185 H   0  0  0  0  0  0  0  0  0  0  0  0
   -0.3462    2.0042    0.4233 H   0  0  0  0  0  0  0  0  0  0  0  0
    1.1722    1.2222    0.8645 H   0  0  0  0  0  0  0  0  0  0  0  0
   -0.0516    1.9460    2.9089 H   0  0  0  0  0  0  0  0  0  0  0  0
    0.0380    0.1764    2.8684 H   0  0  0  0  0  0  0  0  0  0  0  0
   -3.6447    2.7855    1.8639 H   0  0  0  0  0  0  0  0  0  0  0  0
   -2.1700    2.7689    0.8678 H   0  0  0  0  0  0  0  0  0  0  0  0
   -2.1061    3.3700    2.5424 H   0  0  0  0  0  0  0  0  0  0  0  0
   -0.3772    1.3311   -1.8560 N   0  0  0  0  0  0  0  0  0  0  0  0
   -0.2034    1.7415   -3.2296 C   0  0  2  0  0  0  0  0  0  0  0  0
    0.3187    3.1722   -3.2305 C   0  0  0  0  0  0  0  0  0  0  0  0
    0.1646    3.9431   -2.2854 O   0  0  0  0  0  0  0  0  0  0  0  0
   -1.5062    1.6378   -4.0072 C   0  0  0  0  0  0  0  0  0  0  0  0
   -0.7808    2.0012   -1.2080 H   0  0  0  0  0  0  0  0  0  0  0  0
    0.5505    1.0768   -3.6653 H   0  0  0  0  0  0  0  0  0  0  0  0
   -2.2737    2.2969   -3.5853 H   0  0  0  0  0  0  0  0  0  0  0  0
   -1.3663    1.9221   -5.0554 H   0  0  0  0  0  0  0  0  0  0  0  0
   -1.8956    0.6144   -3.9804 H   0  0  0  0  0  0  0  0  0  0  0  0
    0.9392    3.5006   -4.4277 N   0  0  0  0  0  0  0  0  0  0  0  0
    1.5063    4.8048   -4.6798 C   0  0  0  0  0  0  0  0  0  0  0  0
    1.0387    2.7929   -5.1495 H   0  0  0  0  0  0  0  0  0  0  0  0
    0.7557    5.4434   -5.1684 H   0  0  0  0  0  0  0  0  0  0  0  0
    1.8122    5.2619   -3.7272 H   0  0  0  0  0  0  0  0  0  0  0  0
    2.3834    4.7025   -5.3358 H   0  0  0  0  0  0  0  0  0  0  0  0
  1  3  1  0  0  0  0
  1  7  1  0  0  0  0
  1  2  2  0  0  0  0
 35 36  1  0  0  0  0
 36 44  1  0  0  0  0
 36 37  2  0  0  0  0
  8  9  1  0  0  0  0
  9 17  1  0  0  0  0
  9 10  2  0  0  0  0
 18 19  1  0  0  0  0
 19 34  1  0  0  0  0
 19 20  2  0  0  0  0
 35 38  1  0  0  0  0
  8 11  1  0  0  0  0
 44 45  1  0  0  0  0
 23 24  1  0  0  0  0
 21 22  1  0  0  0  0
 18 21  1  0  0  0  0
 22 23  1  0  0  0  0
 34 35  1  0  0  0  0
  7  8  1  0  0  0  0
 17 18  1  0  0  0  0
  3  4  1  0  0  0  0
  3  5  1  0  0  0  0
  3  6  1  0  0  0  0
 38 41  1  0  0  0  0
 38 42  1  0  0  0  0
 38 43  1  0  0  0  0
 11 14  1  0  0  0  0
 11 15  1  0  0  0  0
 11 16  1  0  0  0  0
 45 47  1  0  0  0  0
 45 48  1  0  0  0  0
 45 49  1  0  0  0  0
 24 31  1  0  0  0  0
 24 32  1  0  0  0  0
 24 33  1  0  0  0  0
 21 27  1  0  0  0  0
 21 28  1  0  0  0  0
 22 29  1  0  0  0  0
 22 30  1  0  0  0  0
 35 40  1  0  0  0  0
  8 13  1  0  0  0  0
 18 26  1  0  0  0  0
 44 46  1  0  0  0  0
  7 12  1  0  0  0  0
 34 39  1  0  0  0  0
 17 25  1  0  0  0  0
M  END
$$$$

  -OEChem-05262214473D

 49 48  0     1  0  0  0  0  0999 V2000
   -0.0561   -5.3799    2.6949 C   0  0  0  0  0  0  0  0  0  0  0  0
    0.7325   -5.0736    3.5815 O   0  0  0  0  0  0  0  0  0  0  0  0
   -1.0067   -6.5099    2.9135 C   0  0  0  0  0  0  0  0  0  0  0  0
   -0.5910   -7.4777    2.5899 H   0  0  0  0  0  0  0  0  0  0  0  0
   -1.2629   -6.6440    3.9767 H   0  0  0  0  0  0  0  0  0  0  0  0
   -1.9729   -6.4206    2.3918 H   0  0  0  0  0  0  0  0  0  0  0  0
   -0.1735   -4.7694    1.4571 N   0  0  0  0  0  0  0  0  0  0  0  0
    0.6439   -3.6603    1.0409 C   0  0  2  0  0  0  0  0  0  0  0  0
   -0.2788   -2.5625    0.5280 C   0  0  0  0  0  0  0  0  0  0  0  0
   -1.4197   -2.7791    0.1251 O   0  0  0  0  0  0  0  0  0  0  0  0
    1.6395   -4.0779   -0.0301 C   0  0  0  0  0  0  0  0  0  0  0  0
   -0.8741   -5.1235    0.8083 H   0  0  0  0  0  0  0  0  0  0  0  0
    1.1738   -3.3062    1.9318 H   0  0  0  0  0  0  0  0  0  0  0  0
    1.1270   -4.4358   -0.9305 H   0  0  0  0  0  0  0  0  0  0  0  0
    2.2797   -3.2400   -0.3251 H   0  0  0  0  0  0  0  0  0  0  0  0
    2.2827   -4.8880    0.3303 H   0  0  0  0  0  0  0  0  0  0  0  0
    0.3351   -1.3153    0.5316 N   0  0  0  0  0  0  0  0  0  0  0  0
   -0.3268   -0.1184    0.0807 C   0  0  2  0  0  0  0  0  0  0  0  0
   -0.0660    0.0538   -1.4125 C   0  0  0  0  0  0  0  0  0  0  0  0
    0.1361   -0.8932   -2.1698 O   0  0  0  0  0  0  0  0  0  0  0  0
    0.0807    1.1126    0.9019 C   0  0  0  0  0  0  0  0  0  0  0  0
   -0.3736    1.0546    2.3623 C   0  0  0  0  0  0  0  0  0  0  0  0
   -2.1862    0.9642    2.4627 S   0  0  0  0  0  0  0  0  0  0  0  0
   -2.5629    2.6321    1.8784 C   0  0  0  0  0  0  0  0  0  0  0  0
    1.2790   -1.2290    0.9021 H   0  0  0  0  0  0  0  0  0  0  0  0
   -1.3997   -0.3000    0.2185 H   0  0  0  0  0  0  0  0  0  0  0  0
   -0.3462    2.0042    0.4233 H   0  0  0  0  0  0  0  0  0  0  0  0
    1.1722    1.2222    0.8645 H   0  0  0  0  0  0  0  0  0  0  0  0
   -0.0516    1.9460    2.9089 H   0  0  0  0  0  0  0  0  0  0  0  0
    0.0380    0.1764    2.8684 H   0  0  0  0  0  0  0  0  0  0  0  0
   -3.6447    2.7855    1.8639 H   0  0  0  0  0  0  0  0  0  0  0  0
   -2.1700    2.7689    0.8678 H   0  0  0  0  0  0  0  0  0  0  0  0
   -2.1061    3.3700    2.5424 H   0  0  0  0  0  0  0  0  0  0  0  0
   -0.0529    1.3881   -1.7928 N   0  0  0  0  0  0  0  0  0  0  0  0
    0.1871    1.8068   -3.1539 C   0  0  2  0  0  0  0  0  0  0  0  0
    1.0553    3.0575   -3.1150 C   0  0  0  0  0  0  0  0  0  0  0  0
    1.1242    3.7960   -2.1348 O   0  0  0  0  0  0  0  0  0  0  0  0
   -1.1172    2.0731   -3.8891 C   0  0  0  0  0  0  0  0  0  0  0  0
   -0.2577    2.1064   -1.1045 H   0  0  0  0  0  0  0  0  0  0  0  0
    0.7370    0.9948   -3.6422 H   0  0  0  0  0  0  0  0  0  0  0  0
   -1.6821    2.8836   -3.4143 H   0  0  0  0  0  0  0  0  0  0  0  0
   -0.9344    2.3628   -4.9291 H   0  0  0  0  0  0  0  0  0  0  0  0
   -1.7531    1.1812   -3.8902 H   0  0  0  0  0  0  0  0  0  0  0  0
    1.7105    3.2755   -4.3189 N   0  0  0  0  0  0  0  0  0  0  0  0
    2.5842    4.4046   -4.5377 C   0  0  0  0  0  0  0  0  0  0  0  0
    1.6100    2.6011   -5.0718 H   0  0  0  0  0  0  0  0  0  0  0  0
    2.0091    5.2349   -4.9735 H   0  0  0  0  0  0  0  0  0  0  0  0
    3.0184    4.7233   -3.5786 H   0  0  0  0  0  0  0  0  0  0  0  0
    3.3908    4.1156   -5.2274 H   0  0  0  0  0  0  0  0  0  0  0  0
  1  3  1  0  0  0  0
  1  7  1  0  0  0  0
  1  2  2  0  0  0  0
 35 36  1  0  0  0  0
 36 44  1  0  0  0  0
 36 37  2  0  0  0  0
  8  9  1  0  0  0  0
  9 17  1  0  0  0  0
  9 10  2  0  0  0  0
 18 19  1  0  0  0  0
 19 34  1  0  0  0  0
 19 20  2  0  0  0  0
 35 38  1  0  0  0  0
  8 11  1  0  0  0  0
 44 45  1  0  0  0  0
 23 24  1  0  0  0  0
 21 22  1  0  0  0  0
 18 21  1  0  0  0  0
 22 23  1  0  0  0  0
 34 35  1  0  0  0  0
  7  8  1  0  0  0  0
 17 18  1  0  0  0  0
  3  4  1  0  0  0  0
  3  5  1  0  0  0  0
  3  6  1  0  0  0  0
 38 41  1  0  0  0  0
 38 42  1  0  0  0  0
 38 43  1  0  0  0  0
 11 14  1  0  0  0  0
 11 15  1  0  0  0  0
 11 16  1  0  0  0  0
 45 47  1  0  0  0  0
 45 48  1  0  0  0  0
 45 49  1  0  0  0  0
 24 31  1  0  0  0  0
 24 32  1  0  0  0  0
 24 33  1  0  0  0  0
 21 27  1  0  0  0  0
 21 28  1  0  0  0  0
 22 29  1  0  0  0  0
 22 30  1  0  0  0  0
 35 40  1  0  0  0  0
  8 13  1  0  0  0  0
 18 26  1  0  0  0  0
 44 46  1  0  0  0  0
  7 12  1  0  0  0  0
 34 39  1  0  0  0  0
 17 25  1  0  0  0  0
M  END
$$$$

  -OEChem-05262214473D

 49 48  0     1  0  0  0  0  0999 V2000
   -0.0561   -5.3799    2.6949 C   0  0  0  0  0  0  0  0  0  0  0  0
    0.7325   -5.0736    3.5815 O   0  0  0  0  0  0  0  0  0  0  0  0
   -1.0067   -6.5099    2.9135 C   0  0  0  0  0  0  0  0  0  0  0  0
   -0.5910   -7.4777    2.5899 H   0  0  0  0  0  0  0  0  0  0  0  0
   -1.2629   -6.6440    3.9767 H   0  0  0  0  0  0  0  0  0  0  0  0
   -1.9729   -6.4206    2.3918 H   0  0  0  0  0  0  0  0  0  0  0  0
   -0.1735   -4.7694    1.4571 N   0  0  0  0  0  0  0  0  0  0  0  0
    0.6439   -3.6603    1.0409 C   0  0  2  0  0  0  0  0  0  0  0  0
   -0.2788   -2.5625    0.5280 C   0  0  0  0  0  0  0  0  0  0  0  0
   -1.4197   -2.7791    0.1251 O   0  0  0  0  0  0  0  0  0  0  0  0
    1.6395   -4.0779   -0.0301 C   0  0  0  0  0  0  0  0  0  0  0  0
   -0.8741   -5.1235    0.8083 H   0  0  0  0  0  0  0  0  0  0  0  0
    1.1738   -3.3062    1.9318 H   0  0  0  0  0  0  0  0  0  0  0  0
    1.1270   -4.4358   -0.9305 H   0  0  0  0  0  0  0  0  0  0  0  0
    2.2797   -3.2400   -0.3251 H   0  0  0  0  0  0  0  0  0  0  0  0
    2.2827   -4.8880    0.3303 H   0  0  0  0  0  0  0  0  0  0  0  0
    0.3351   -1.3153    0.5316 N   0  0  0  0  0  0  0  0  0  0  0  0
   -0.3268   -0.1184    0.0807 C   0  0  2  0  0  0  0  0  0  0  0  0
   -0.0660    0.0538   -1.4125 C   0  0  0  0  0  0  0  0  0  0  0  0
   -0.1289   -0.8760   -2.2142 O   0  0  0  0  0  0  0  0  0  0  0  0
    0.0807    1.1126    0.9019 C   0  0  0  0  0  0  0  0  0  0  0  0
   -0.3736    1.0546    2.3623 C   0  0  0  0  0  0  0  0  0  0  0  0
   -2.1862    0.9642    2.4627 S   0  0  0  0  0  0  0  0  0  0  0  0
   -2.5629    2.6321    1.8784 C   0  0  0  0  0  0  0  0  0  0  0  0
    1.2790   -1.2290    0.9021 H   0  0  0  0  0  0  0  0  0  0  0  0
   -1.3997   -0.3000    0.2185 H   0  0  0  0  0  0  0  0  0  0  0  0
   -0.3462    2.0042    0.4233 H   0  0  0  0  0  0  0  0  0  0  0  0
    1.1722    1.2222    0.8645 H   0  0  0  0  0  0  0  0  0  0  0  0
   -0.0516    1.9460    2.9089 H   0  0  0  0  0  0  0  0  0  0  0  0
    0.0380    0.1764    2.8684 H   0  0  0  0  0  0  0  0  0  0  0  0
   -3.6447    2.7855    1.8639 H   0  0  0  0  0  0  0  0  0  0  0  0
   -2.1700    2.7689    0.8678 H   0  0  0  0  0  0  0  0  0  0  0  0
   -2.1061    3.3700    2.5424 H   0  0  0  0  0  0  0  0  0  0  0  0
    0.2766    1.3582   -1.7387 N   0  0  0  0  0  0  0  0  0  0  0  0
    0.5830    1.7675   -3.0892 C   0  0  2  0  0  0  0  0  0  0  0  0
    1.7410    2.7549   -3.0301 C   0  0  0  0  0  0  0  0  0  0  0  0
    2.0184    3.4040   -2.0237 O   0  0  0  0  0  0  0  0  0  0  0  0
   -0.6278    2.3897   -3.7671 C   0  0  0  0  0  0  0  0  0  0  0  0
    0.2772    2.0711   -1.0151 H   0  0  0  0  0  0  0  0  0  0  0  0
    0.8970    0.8674   -3.6289 H   0  0  0  0  0  0  0  0  0  0  0  0
   -0.9569    3.2929   -3.2404 H   0  0  0  0  0  0  0  0  0  0  0  0
   -0.4019    2.6734   -4.8003 H   0  0  0  0  0  0  0  0  0  0  0  0
   -1.4692    1.6885   -3.7821 H   0  0  0  0  0  0  0  0  0  0  0  0
    2.4017    2.8579   -4.2463 N   0  0  0  0  0  0  0  0  0  0  0  0
    3.5281    3.7387   -4.4495 C   0  0  0  0  0  0  0  0  0  0  0  0
    2.1156    2.2677   -5.0219 H   0  0  0  0  0  0  0  0  0  0  0  0
    3.1726    4.7073   -4.8311 H   0  0  0  0  0  0  0  0  0  0  0  0
    4.0515    3.8909   -3.4941 H   0  0  0  0  0  0  0  0  0  0  0  0
    4.2185    3.2888   -5.1782 H   0  0  0  0  0  0  0  0  0  0  0  0
  1  3  1  0  0  0  0
  1  7  1  0  0  0  0
  1  2  2  0  0  0  0
 35 36  1  0  0  0  0
 36 44  1  0  0  0  0
 36 37  2  0  0  0  0
  8  9  1  0  0  0  0
  9 17  1  0  0  0  0
  9 10  2  0  0  0  0
 18 19  1  0  0  0  0
 19 34  1  0  0  0  0
 19 20  2  0  0  0  0
 35 38  1  0  0  0  0
  8 11  1  0  0  0  0
 44 45  1  0  0  0  0
 23 24  1  0  0  0  0
 21 22  1  0  0  0  0
 18 21  1  0  0  0  0
 22 23  1  0  0  0  0
 34 35  1  0  0  0  0
  7  8  1  0  0  0  0
 17 18  1  0  0  0  0
  3  4  1  0  0  0  0
  3  5  1  0  0  0  0
  3  6  1  0  0  0  0
 38 41  1  0  0  0  0
 38 42  1  0  0  0  0
 38 43  1  0  0  0  0
 11 14  1  0  0  0  0
 11 15  1  0  0  0  0
 11 16  1  0  0  0  0
 45 47  1  0  0  0  0
 45 48  1  0  0  0  0
 45 49  1  0  0  0  0
 24 31  1  0  0  0  0
 24 32  1  0  0  0  0
 24 33  1  0  0  0  0
 21 27  1  0  0  0  0
 21 28  1  0  0  0  0
 22 29  1  0  0  0  0
 22 30  1  0  0  0  0
 35 40  1  0  0  0  0
  8 13  1  0  0  0  0
 18 26  1  0  0  0  0
 44 46  1  0  0  0  0
  7 12  1  0  0  0  0
 34 39  1  0  0  0  0
 17 25  1  0  0  0  0
M  END
$$$$

  -OEChem-05262214473D

 49 48  0     1  0  0  0  0  0999 V2000
   -0.0561   -5.3799    2.6949 C   0  0  0  0  0  0  0  0  0  0  0  0
    0.7325   -5.0736    3.5815 O   0  0  0  0  0  0  0  0  0  0  0  0
   -1.0067   -6.5099    2.9135 C   0  0  0  0  0  0  0  0  0  0  0  0
   -0.5910   -7.4777    2.5899 H   0  0  0  0  0  0  0  0  0  0  0  0
   -1.2629   -6.6440    3.9767 H   0  0  0  0  0  0  0  0  0  0  0  0
   -1.9729   -6.4206    2.3918 H   0  0  0  0  0  0  0  0  0  0  0  0
   -0.1735   -4.7694    1.4571 N   0  0  0  0  0  0  0  0  0  0  0  0
    0.6439   -3.6603    1.0409 C   0  0  2  0  0  0  0  0  0  0  0  0
   -0.2788   -2.5625    0.5280 C   0  0  0  0  0  0  0  0  0  0  0  0
   -1.4197   -2.7791    0.1251 O   0  0  0  0  0  0  0  0  0  0  0  0
    1.6395   -4.0779   -0.0301 C   0  0  0  0  0  0  0  0  0  0  0  0
   -0.8741   -5.1235    0.8083 H   0  0  0  0  0  0  0  0  0  0  0  0
    1.1738   -3.3062    1.9318 H   0  0  0  0  0  0  0  0  0  0  0  0
    1.1270   -4.4358   -0.9305 H   0  0  0  0  0  0  0  0  0  0  0  0
    2.2797   -3.2400   -0.3251 H   0  0  0  0  0  0  0  0  0  0  0  0
    2.2827   -4.8880    0.3303 H   0  0  0  0  0  0  0  0  0  0  0  0
    0.3351   -1.3153    0.5316 N   0  0  0  0  0  0  0  0  0  0  0  0
   -0.3268   -0.1184    0.0807 C   0  0  2  0  0  0  0  0  0  0  0  0
   -0.0660    0.0538   -1.4125 C   0  0  0  0  0  0  0  0  0  0  0  0
   -0.3819   -0.7904   -2.2485 O   0  0  0  0  0  0  0  0  0  0  0  0
    0.0807    1.1126    0.9019 C   0  0  0  0  0  0  0  0  0  0  0  0
   -0.3736    1.0546    2.3623 C   0  0  0  0  0  0  0  0  0  0  0  0
   -2.1862    0.9642    2.4627 S   0  0  0  0  0  0  0  0  0  0  0  0
   -2.5629    2.6321    1.8784 C   0  0  0  0  0  0  0  0  0  0  0  0
    1.2790   -1.2290    0.9021 H   0  0  0  0  0  0  0  0  0  0  0  0
   -1.3997   -0.3000    0.2185 H   0  0  0  0  0  0  0  0  0  0  0  0
   -0.3462    2.0042    0.4233 H   0  0  0  0  0  0  0  0  0  0  0  0
    1.1722    1.2222    0.8645 H   0  0  0  0  0  0  0  0  0  0  0  0
   -0.0516    1.9460    2.9089 H   0  0  0  0  0  0  0  0  0  0  0  0
    0.0380    0.1764    2.8684 H   0  0  0  0  0  0  0  0  0  0  0  0
   -3.6447    2.7855    1.8639 H   0  0  0  0  0  0  0  0  0  0  0  0
   -2.1700    2.7689    0.8678 H   0  0  0  0  0  0  0  0  0  0  0  0
   -2.1061    3.3700    2.5424 H   0  0  0  0  0  0  0  0  0  0  0  0
    0.5889    1.2434   -1.6973 N   0  0  0  0  0  0  0  0  0  0  0  0
    0.9574    1.6264   -3.0401 C   0  0  2  0  0  0  0  0  0  0  0  0
    2.3293    2.2851   -2.9815 C   0  0  0  0  0  0  0  0  0  0  0  0
    2.7859    2.7940   -1.9600 O   0  0  0  0  0  0  0  0  0  0  0  0
   -0.0713    2.5661   -3.6495 C   0  0  0  0  0  0  0  0  0  0  0  0
    0.7875    1.8974   -0.9460 H   0  0  0  0  0  0  0  0  0  0  0  0
    1.0197    0.7031   -3.6264 H   0  0  0  0  0  0  0  0  0  0  0  0
   -0.1477    3.4968   -3.0755 H   0  0  0  0  0  0  0  0  0  0  0  0
    0.1949    2.8328   -4.6776 H   0  0  0  0  0  0  0  0  0  0  0  0
   -1.0633    2.1019   -3.6635 H   0  0  0  0  0  0  0  0  0  0  0  0
    2.9656    2.2761   -4.2149 N   0  0  0  0  0  0  0  0  0  0  0  0
    4.2737    2.8525   -4.4215 C   0  0  0  0  0  0  0  0  0  0  0  0
    2.5209    1.8153   -5.0033 H   0  0  0  0  0  0  0  0  0  0  0  0
    4.1671    3.8966   -4.7508 H   0  0  0  0  0  0  0  0  0  0  0  0
    4.8409    2.8214   -3.4795 H   0  0  0  0  0  0  0  0  0  0  0  0
    4.8099    2.2782   -5.1914 H   0  0  0  0  0  0  0  0  0  0  0  0
  1  3  1  0  0  0  0
  1  7  1  0  0  0  0
  1  2  2  0  0  0  0
 35 36  1  0  0  0  0
 36 44  1  0  0  0  0
 36 37  2  0  0  0  0
  8  9  1  0  0  0  0
  9 17  1  0  0  0  0
  9 10  2  0  0  0  0
 18 19  1  0  0  0  0
 19 34  1  0  0  0  0
 19 20  2  0  0  0  0
 35 38  1  0  0  0  0
  8 11  1  0  0  0  0
 44 45  1  0  0  0  0
 23 24  1  0  0  0  0
 21 22  1  0  0  0  0
 18 21  1  0  0  0  0
 22 23  1  0  0  0  0
 34 35  1  0  0  0  0
  7  8  1  0  0  0  0
 17 18  1  0  0  0  0
  3  4  1  0  0  0  0
  3  5  1  0  0  0  0
  3  6  1  0  0  0  0
 38 41  1  0  0  0  0
 38 42  1  0  0  0  0
 38 43  1  0  0  0  0
 11 14  1  0  0  0  0
 11 15  1  0  0  0  0
 11 16  1  0  0  0  0
 45 47  1  0  0  0  0
 45 48  1  0  0  0  0
 45 49  1  0  0  0  0
 24 31  1  0  0  0  0
 24 32  1  0  0  0  0
 24 33  1  0  0  0  0
 21 27  1  0  0  0  0
 21 28  1  0  0  0  0
 22 29  1  0  0  0  0
 22 30  1  0  0  0  0
 35 40  1  0  0  0  0
  8 13  1  0  0  0  0
 18 26  1  0  0  0  0
 44 46  1  0  0  0  0
  7 12  1  0  0  0  0
 34 39  1  0  0  0  0
 17 25  1  0  0  0  0
M  END
$$$$

  -OEChem-05262214473D

 49 48  0     1  0  0  0  0  0999 V2000
   -0.0561   -5.3799    2.6949 C   0  0  0  0  0  0  0  0  0  0  0  0
    0.7325   -5.0736    3.5815 O   0  0  0  0  0  0  0  0  0  0  0  0
   -1.0067   -6.5099    2.9135 C   0  0  0  0  0  0  0  0  0  0  0  0
   -0.5910   -7.4777    2.5899 H   0  0  0  0  0  0  0  0  0  0  0  0
   -1.2629   -6.6440    3.9767 H   0  0  0  0  0  0  0  0  0  0  0  0
   -1.9729   -6.4206    2.3918 H   0  0  0  0  0  0  0  0  0  0  0  0
   -0.1735   -4.7694    1.4571 N   0  0  0  0  0  0  0  0  0  0  0  0
    0.6439   -3.6603    1.0409 C   0  0  2  0  0  0  0  0  0  0  0  0
   -0.2788   -2.5625    0.5280 C   0  0  0  0  0  0  0  0  0  0  0  0
   -1.4197   -2.7791    0.1251 O   0  0  0  0  0  0  0  0  0  0  0  0
    1.6395   -4.0779   -0.0301 C   0  0  0  0  0  0  0  0  0  0  0  0
   -0.8741   -5.1235    0.8083 H   0  0  0  0  0  0  0  0  0  0  0  0
    1.1738   -3.3062    1.9318 H   0  0  0  0  0  0  0  0  0  0  0  0
    1.1270   -4.4358   -0.9305 H   0  0  0  0  0  0  0  0  0  0  0  0
    2.2797   -3.2400   -0.3251 H   0  0  0  0  0  0  0  0  0  0  0  0
    2.2827   -4.8880    0.3303 H   0  0  0  0  0  0  0  0  0  0  0  0
    0.3351   -1.3153    0.5316 N   0  0  0  0  0  0  0  0  0  0  0  0
   -0.3268   -0.1184    0.0807 C   0  0  2  0  0  0  0  0  0  0  0  0
   -0.0660    0.0538   -1.4125 C   0  0  0  0  0  0  0  0  0  0  0  0
   -0.6055   -0.6420   -2.2704 O   0  0  0  0  0  0  0  0  0  0  0  0
    0.0807    1.1126    0.9019 C   0  0  0  0  0  0  0  0  0  0  0  0
   -0.3736    1.0546    2.3623 C   0  0  0  0  0  0  0  0  0  0  0  0
   -2.1862    0.9642    2.4627 S   0  0  0  0  0  0  0  0  0  0  0  0
   -2.5629    2.6321    1.8784 C   0  0  0  0  0  0  0  0  0  0  0  0
    1.2790   -1.2290    0.9021 H   0  0  0  0  0  0  0  0  0  0  0  0
   -1.3997   -0.3000    0.2185 H   0  0  0  0  0  0  0  0  0  0  0  0
   -0.3462    2.0042    0.4233 H   0  0  0  0  0  0  0  0  0  0  0  0
    1.1722    1.2222    0.8645 H   0  0  0  0  0  0  0  0  0  0  0  0
   -0.0516    1.9460    2.9089 H   0  0  0  0  0  0  0  0  0  0  0  0
    0.0380    0.1764    2.8684 H   0  0  0  0  0  0  0  0  0  0  0  0
   -3.6447    2.7855    1.8639 H   0  0  0  0  0  0  0  0  0  0  0  0
   -2.1700    2.7689    0.8678 H   0  0  0  0  0  0  0  0  0  0  0  0
   -2.1061    3.3700    2.5424 H   0  0  0  0  0  0  0  0  0  0  0  0
    0.8627    1.0516   -1.6716 N   0  0  0  0  0  0  0  0  0  0  0  0
    1.2847    1.3930   -3.0098 C   0  0  2  0  0  0  0  0  0  0  0  0
    2.7799    1.6802   -2.9725 C   0  0  0  0  0  0  0  0  0  0  0  0
    3.3747    2.0075   -1.9478 O   0  0  0  0  0  0  0  0  0  0  0  0
    0.5144    2.5904   -3.5444 C   0  0  0  0  0  0  0  0  0  0  0  0
    1.2385    1.5973   -0.9018 H   0  0  0  0  0  0  0  0  0  0  0  0
    1.0966    0.5133   -3.6349 H   0  0  0  0  0  0  0  0  0  0  0  0
    0.6904    3.4815   -2.9309 H   0  0  0  0  0  0  0  0  0  0  0  0
    0.8153    2.8302   -4.5695 H   0  0  0  0  0  0  0  0  0  0  0  0
   -0.5630    2.3931   -3.5425 H   0  0  0  0  0  0  0  0  0  0  0  0
    3.3639    1.5699   -4.2267 N   0  0  0  0  0  0  0  0  0  0  0  0
    4.7703    1.8063   -4.4553 C   0  0  0  0  0  0  0  0  0  0  0  0
    2.7983    1.2749   -5.0171 H   0  0  0  0  0  0  0  0  0  0  0  0
    4.9246    2.8581   -4.7382 H   0  0  0  0  0  0  0  0  0  0  0  0
    5.3329    1.5877   -3.5358 H   0  0  0  0  0  0  0  0  0  0  0  0
    5.1247    1.1529   -5.2661 H   0  0  0  0  0  0  0  0  0  0  0  0
  1  3  1  0  0  0  0
  1  7  1  0  0  0  0
  1  2  2  0  0  0  0
 35 36  1  0  0  0  0
 36 44  1  0  0  0  0
 36 37  2  0  0  0  0
  8  9  1  0  0  0  0
  9 17  1  0  0  0  0
  9 10  2  0  0  0  0
 18 19  1  0  0  0  0
 19 34  1  0  0  0  0
 19 20  2  0  0  0  0
 35 38  1  0  0  0  0
  8 11  1  0  0  0  0
 44 45  1  0  0  0  0
 23 24  1  0  0  0  0
 21 22  1  0  0  0  0
 18 21  1  0  0  0  0
 22 23  1  0  0  0  0
 34 35  1  0  0  0  0
  7  8  1  0  0  0  0
 17 18  1  0  0  0  0
  3  4  1  0  0  0  0
  3  5  1  0  0  0  0
  3  6  1  0  0  0  0
 38 41  1  0  0  0  0
 38 42  1  0  0  0  0
 38 43  1  0  0  0  0
 11 14  1  0  0  0  0
 11 15  1  0  0  0  0
 11 16  1  0  0  0  0
 45 47  1  0  0  0  0
 45 48  1  0  0  0  0
 45 49  1  0  0  0  0
 24 31  1  0  0  0  0
 24 32  1  0  0  0  0
 24 33  1  0  0  0  0
 21 27  1  0  0  0  0
 21 28  1  0  0  0  0
 22 29  1  0  0  0  0
 22 30  1  0  0  0  0
 35 40  1  0  0  0  0
  8 13  1  0  0  0  0
 18 26  1  0  0  0  0
 44 46  1  0  0  0  0
  7 12  1  0  0  0  0
 34 39  1  0  0  0  0
 17 25  1  0  0  0  0
M  END
$$$$

  -OEChem-05262214473D

 49 48  0     1  0  0  0  0  0999 V2000
   -0.0561   -5.3799    2.6949 C   0  0  0  0  0  0  0  0  0  0  0  0
    0.7325   -5.0736    3.5815 O   0  0  0  0  0  0  0  0  0  0  0  0
   -1.0067   -6.5099    2.9135 C   0  0  0  0  0  0  0  0  0  0  0  0
   -0.5910   -7.4777    2.5899 H   0  0  0  0  0  0  0  0  0  0  0  0
   -1.2629   -6.6440    3.9767 H   0  0  0  0  0  0  0  0  0  0  0  0
   -1.9729   -6.4206    2.3918 H   0  0  0  0  0  0  0  0  0  0  0  0
   -0.1735   -4.7694    1.4571 N   0  0  0  0  0  0  0  0  0  0  0  0
    0.6439   -3.6603    1.0409 C   0  0  2  0  0  0  0  0  0  0  0  0
   -0.2788   -2.5625    0.5280 C   0  0  0  0  0  0  0  0  0  0  0  0
   -1.4197   -2.7791    0.1251 O   0  0  0  0  0  0  0  0  0  0  0  0
    1.6395   -4.0779   -0.0301 C   0  0  0  0  0  0  0  0  0  0  0  0
   -0.8741   -5.1235    0.8083 H   0  0  0  0  0  0  0  0  0  0  0  0
    1.1738   -3.3062    1.9318 H   0  0  0  0  0  0  0  0  0  0  0  0
    1.1270   -4.4358   -0.9305 H   0  0  0  0  0  0  0  0  0  0  0  0
    2.2797   -3.2400   -0.3251 H   0  0  0  0  0  0  0  0  0  0  0  0
    2.2827   -4.8880    0.3303 H   0  0  0  0  0  0  0  0  0  0  0  0
    0.3351   -1.3153    0.5316 N   0  0  0  0  0  0  0  0  0  0  0  0
   -0.3268   -0.1184    0.0807 C   0  0  2  0  0  0  0  0  0  0  0  0
   -0.0660    0.0538   -1.4125 C   0  0  0  0  0  0  0  0  0  0  0  0
   -0.7845   -0.4411   -2.2785 O   0  0  0  0  0  0  0  0  0  0  0  0
    0.0807    1.1126    0.9019 C   0  0  0  0  0  0  0  0  0  0  0  0
   -0.3736    1.0546    2.3623 C   0  0  0  0  0  0  0  0  0  0  0  0
   -2.1862    0.9642    2.4627 S   0  0  0  0  0  0  0  0  0  0  0  0
   -2.5629    2.6321    1.8784 C   0  0  0  0  0  0  0  0  0  0  0  0
    1.2790   -1.2290    0.9021 H   0  0  0  0  0  0  0  0  0  0  0  0
   -1.3997   -0.3000    0.2185 H   0  0  0  0  0  0  0  0  0  0  0  0
   -0.3462    2.0042    0.4233 H   0  0  0  0  0  0  0  0  0  0  0  0
    1.1722    1.2222    0.8645 H   0  0  0  0  0  0  0  0  0  0  0  0
   -0.0516    1.9460    2.9089 H   0  0  0  0  0  0  0  0  0  0  0  0
    0.0380    0.1764    2.8684 H   0  0  0  0  0  0  0  0  0  0  0  0
   -3.6447    2.7855    1.8639 H   0  0  0  0  0  0  0  0  0  0  0  0
   -2.1700    2.7689    0.8678 H   0  0  0  0  0  0  0  0  0  0  0  0
   -2.1061    3.3700    2.5424 H   0  0  0  0  0  0  0  0  0  0  0  0
    1.0793    0.7959   -1.6633 N   0  0  0  0  0  0  0  0  0  0  0  0
    1.5426    1.0834   -3.0005 C   0  0  2  0  0  0  0  0  0  0  0  0
    3.0622    0.9813   -3.0038 C   0  0  0  0  0  0  0  0  0  0  0  0
    3.7446    1.0982   -1.9880 O   0  0  0  0  0  0  0  0  0  0  0  0
    1.0894    2.4608   -3.4589 C   0  0  0  0  0  0  0  0  0  0  0  0
    1.5994    1.1913   -0.8856 H   0  0  0  0  0  0  0  0  0  0  0  0
    1.1226    0.3108   -3.6537 H   0  0  0  0  0  0  0  0  0  0  0  0
    1.5002    3.2480   -2.8163 H   0  0  0  0  0  0  0  0  0  0  0  0
    1.4172    2.6658   -4.4833 H   0  0  0  0  0  0  0  0  0  0  0  0
   -0.0025    2.5423   -3.4274 H   0  0  0  0  0  0  0  0  0  0  0  0
    3.5694    0.7874   -4.2810 N   0  0  0  0  0  0  0  0  0  0  0  0
    4.9839    0.6715   -4.5489 C   0  0  0  0  0  0  0  0  0  0  0  0
    2.9289    0.6832   -5.0625 H   0  0  0  0  0  0  0  0  0  0  0  0
    5.3936    1.6625   -4.7941 H   0  0  0  0  0  0  0  0  0  0  0  0
    5.4940    0.2739   -3.6591 H   0  0  0  0  0  0  0  0  0  0  0  0
    5.1416   -0.0106   -5.3973 H   0  0  0  0  0  0  0  0  0  0  0  0
  1  3  1  0  0  0  0
  1  7  1  0  0  0  0
  1  2  2  0  0  0  0
 35 36  1  0  0  0  0
 36 44  1  0  0  0  0
 36 37  2  0  0  0  0
  8  9  1  0  0  0  0
  9 17  1  0  0  0  0
  9 10  2  0  0  0  0
 18 19  1  0  0  0  0
 19 34  1  0  0  0  0
 19 20  2  0  0  0  0
 35 38  1  0  0  0  0
  8 11  1  0  0  0  0
 44 45  1  0  0  0  0
 23 24  1  0  0  0  0
 21 22  1  0  0  0  0
 18 21  1  0  0  0  0
 22 23  1  0  0  0  0
 34 35  1  0  0  0  0
  7  8  1  0  0  0  0
 17 18  1  0  0  0  0
  3  4  1  0  0  0  0
  3  5  1  0  0  0  0
  3  6  1  0  0  0  0
 38 41  1  0  0  0  0
 38 42  1  0  0  0  0
 38 43  1  0  0  0  0
 11 14  1  0  0  0  0
 11 15  1  0  0  0  0
 11 16  1  0  0  0  0
 45 47  1  0  0  0  0
 45 48  1  0  0  0  0
 45 49  1  0  0  0  0
 24 31  1  0  0  0  0
 24 32  1  0  0  0  0
 24 33  1  0  0  0  0
 21 27  1  0  0  0  0
 21 28  1  0  0  0  0
 22 29  1  0  0  0  0
 22 30  1  0  0  0  0
 35 40  1  0  0  0  0
  8 13  1  0  0  0  0
 18 26  1  0  0  0  0
 44 46  1  0  0  0  0
  7 12  1  0  0  0  0
 34 39  1  0  0  0  0
 17 25  1  0  0  0  0
M  END
$$$$

  -OEChem-05262214473D

 49 48  0     1  0  0  0  0  0999 V2000
   -0.0561   -5.3799    2.6949 C   0  0  0  0  0  0  0  0  0  0  0  0
    0.7325   -5.0736    3.5815 O   0  0  0  0  0  0  0  0  0  0  0  0
   -1.0067   -6.5099    2.9135 C   0  0  0  0  0  0  0  0  0  0  0  0
   -0.5910   -7.4777    2.5899 H   0  0  0  0  0  0  0  0  0  0  0  0
   -1.2629   -6.6440    3.9767 H   0  0  0  0  0  0  0  0  0  0  0  0
   -1.9729   -6.4206    2.3918 H   0  0  0  0  0  0  0  0  0  0  0  0
   -0.1735   -4.7694    1.4571 N   0  0  0  0  0  0  0  0  0  0  0  0
    0.6439   -3.6603    1.0409 C   0  0  2  0  0  0  0  0  0  0  0  0
   -0.2788   -2.5625    0.5280 C   0  0  0  0  0  0  0  0  0  0  0  0
   -1.4197   -2.7791    0.1251 O   0  0  0  0  0  0  0  0  0  0  0  0
    1.6395   -4.0779   -0.0301 C   0  0  0  0  0  0  0  0  0  0  0  0
   -0.8741   -5.1235    0.8083 H   0  0  0  0  0  0  0  0  0  0  0  0
    1.1738   -3.3062    1.9318 H   0  0  0  0  0  0  0  0  0  0  0  0
    1.1270   -4.4358   -0.9305 H   0  0  0  0  0  0  0  0  0  0  0  0
    2.2797   -3.2400   -0.3251 H   0  0  0  0  0  0  0  0  0  0  0  0
    2.2827   -4.8880    0.3303 H   0  0  0  0  0  0  0  0  0  0  0  0
    0.3351   -1.3153    0.5316 N   0  0  0  0  0  0  0  0  0  0  0  0
   -0.3268   -0.1184    0.0807 C   0  0  2  0  0  0  0  0  0  0  0  0
   -0.0660    0.0538   -1.4125 C   0  0  0  0  0  0  0  0  0  0  0  0
   -0.9068   -0.2013   -2.2723 O   0  0  0  0  0  0  0  0  0  0  0  0
    0.0807    1.1126    0.9019 C   0  0  0  0  0  0  0  0  0  0  0  0
   -0.3736    1.0546    2.3623 C   0  0  0  0  0  0  0  0  0  0  0  0
   -2.1862    0.9642    2.4627 S   0  0  0  0  0  0  0  0  0  0  0  0
   -2.5629    2.6321    1.8784 C   0  0  0  0  0  0  0  0  0  0  0  0
    1.2790   -1.2290    0.9021 H   0  0  0  0  0  0  0  0  0  0  0  0
   -1.3997   -0.3000    0.2185 H   0  0  0  0  0  0  0  0  0  0  0  0
   -0.3462    2.0042    0.4233 H   0  0  0  0  0  0  0  0  0  0  0  0
    1.1722    1.2222    0.8645 H   0  0  0  0  0  0  0  0  0  0  0  0
   -0.0516    1.9460    2.9089 H   0  0  0  0  0  0  0  0  0  0  0  0
    0.0380    0.1764    2.8684 H   0  0  0  0  0  0  0  0  0  0  0  0
   -3.6447    2.7855    1.8639 H   0  0  0  0  0  0  0  0  0  0  0  0
   -2.1700    2.7689    0.8678 H   0  0  0  0  0  0  0  0  0  0  0  0
   -2.1061    3.3700    2.5424 H   0  0  0  0  0  0  0  0  0  0  0  0
    1.2240    0.4936   -1.6728 N   0  0  0  0  0  0  0  0  0  0  0  0
    1.7136    0.7186   -3.0127 C   0  0  2  0  0  0  0  0  0  0  0  0
    3.1569    0.2362   -3.0732 C   0  0  0  0  0  0  0  0  0  0  0  0
    3.8702    0.1279   -2.0780 O   0  0  0  0  0  0  0  0  0  0  0  0
    1.6144    2.1862   -3.3988 C   0  0  0  0  0  0  0  0  0  0  0  0
    1.8456    0.7069   -0.8984 H   0  0  0  0  0  0  0  0  0  0  0  0
    1.0959    0.1094   -3.6816 H   0  0  0  0  0  0  0  0  0  0  0  0
    2.2267    2.8123   -2.7396 H   0  0  0  0  0  0  0  0  0  0  0  0
    1.9593    2.3506   -4.4250 H   0  0  0  0  0  0  0  0  0  0  0  0
    0.5801    2.5393   -3.3260 H   0  0  0  0  0  0  0  0  0  0  0  0
    3.5680   -0.0180   -4.3741 N   0  0  0  0  0  0  0  0  0  0  0  0
    4.9000   -0.4746   -4.6957 C   0  0  0  0  0  0  0  0  0  0  0  0
    2.9039    0.0806   -5.1364 H   0  0  0  0  0  0  0  0  0  0  0  0
    5.5421    0.3913   -4.9148 H   0  0  0  0  0  0  0  0  0  0  0  0
    5.3132   -1.0304   -3.8411 H   0  0  0  0  0  0  0  0  0  0  0  0
    4.8593   -1.1328   -5.5761 H   0  0  0  0  0  0  0  0  0  0  0  0
  1  3  1  0  0  0  0
  1  7  1  0  0  0  0
  1  2  2  0  0  0  0
 35 36  1  0  0  0  0
 36 44  1  0  0  0  0
 36 37  2  0  0  0  0
  8  9  1  0  0  0  0
  9 17  1  0  0  0  0
  9 10  2  0  0  0  0
 18 19  1  0  0  0  0
 19 34  1  0  0  0  0
 19 20  2  0  0  0  0
 35 38  1  0  0  0  0
  8 11  1  0  0  0  0
 44 45  1  0  0  0  0
 23 24  1  0  0  0  0
 21 22  1  0  0  0  0
 18 21  1  0  0  0  0
 22 23  1  0  0  0  0
 34 35  1  0  0  0  0
  7  8  1  0  0  0  0
 17 18  1  0  0  0  0
  3  4  1  0  0  0  0
  3  5  1  0  0  0  0
  3  6  1  0  0  0  0
 38 41  1  0  0  0  0
 38 42  1  0  0  0  0
 38 43  1  0  0  0  0
 11 14  1  0  0  0  0
 11 15  1  0  0  0  0
 11 16  1  0  0  0  0
 45 47  1  0  0  0  0
 45 48  1  0  0  0  0
 45 49  1  0  0  0  0
 24 31  1  0  0  0  0
 24 32  1  0  0  0  0
 24 33  1  0  0  0  0
 21 27  1  0  0  0  0
 21 28  1  0  0  0  0
 22 29  1  0  0  0  0
 22 30  1  0  0  0  0
 35 40  1  0  0  0  0
  8 13  1  0  0  0  0
 18 26  1  0  0  0  0
 44 46  1  0  0  0  0
  7 12  1  0  0  0  0
 34 39  1  0  0  0  0
 17 25  1  0  0  0  0
M  END
$$$$

  -OEChem-05262214473D

 49 48  0     1  0  0  0  0  0999 V2000
   -0.0561   -5.3799    2.6949 C   0  0  0  0  0  0  0  0  0  0  0  0
    0.7325   -5.0736    3.5815 O   0  0  0  0  0  0  0  0  0  0  0  0
   -1.0067   -6.5099    2.9135 C   0  0  0  0  0  0  0  0  0  0  0  0
   -0.5910   -7.4777    2.5899 H   0  0  0  0  0  0  0  0  0  0  0  0
   -1.2629   -6.6440    3.9767 H   0  0  0  0  0  0  0  0  0  0  0  0
   -1.9729   -6.4206    2.3918 H   0  0  0  0  0  0  0  0  0  0  0  0
   -0.1735   -4.7694    1.4571 N   0  0  0  0  0  0  0  0  0  0  0  0
    0.6439   -3.6603    1.0409 C   0  0  2  0  0  0  0  0  0  0  0  0
   -0.2788   -2.5625    0.5280 C   0  0  0  0  0  0  0  0  0  0  0  0
   -1.4197   -2.7791    0.1251 O   0  0  0  0  0  0  0  0  0  0  0  0
    1.6395   -4.0779   -0.0301 C   0  0  0  0  0  0  0  0  0  0  0  0
   -0.8741   -5.1235    0.8083 H   0  0  0  0  0  0  0  0  0  0  0  0
    1.1738   -3.3062    1.9318 H   0  0  0  0  0  0  0  0  0  0  0  0
    1.1270   -4.4358   -0.9305 H   0  0  0  0  0  0  0  0  0  0  0  0
    2.2797   -3.2400   -0.3251 H   0  0  0  0  0  0  0  0  0  0  0  0
    2.2827   -4.8880    0.3303 H   0  0  0  0  0  0  0  0  0  0  0  0
    0.3351   -1.3153    0.5316 N   0  0  0  0  0  0  0  0  0  0  0  0
   -0.3268   -0.1184    0.0807 C   0  0  2  0  0  0  0  0  0  0  0  0
   -0.0660    0.0538   -1.4125 C   0  0  0  0  0  0  0  0  0  0  0  0
   -0.9640    0.0610   -2.2520 O   0  0  0  0  0  0  0  0  0  0  0  0
    0.0807    1.1126    0.9019 C   0  0  0  0  0  0  0  0  0  0  0  0
   -0.3736    1.0546    2.3623 C   0  0  0  0  0  0  0  0  0  0  0  0
   -2.1862    0.9642    2.4627 S   0  0  0  0  0  0  0  0  0  0  0  0
   -2.5629    2.6321    1.8784 C   0  0  0  0  0  0  0  0  0  0  0  0
    1.2790   -1.2290    0.9021 H   0  0  0  0  0  0  0  0  0  0  0  0
   -1.3997   -0.3000    0.2185 H   0  0  0  0  0  0  0  0  0  0  0  0
   -0.3462    2.0042    0.4233 H   0  0  0  0  0  0  0  0  0  0  0  0
    1.1722    1.2222    0.8645 H   0  0  0  0  0  0  0  0  0  0  0  0
   -0.0516    1.9460    2.9089 H   0  0  0  0  0  0  0  0  0  0  0  0
    0.0380    0.1764    2.8684 H   0  0  0  0  0  0  0  0  0  0  0  0
   -3.6447    2.7855    1.8639 H   0  0  0  0  0  0  0  0  0  0  0  0
   -2.1700    2.7689    0.8678 H   0  0  0  0  0  0  0  0  0  0  0  0
   -2.1061    3.3700    2.5424 H   0  0  0  0  0  0  0  0  0  0  0  0
    1.2869    0.1653   -1.6997 N   0  0  0  0  0  0  0  0  0  0  0  0
    1.7860    0.3234   -3.0456 C   0  0  2  0  0  0  0  0  0  0  0  0
    3.0575   -0.5045   -3.1759 C   0  0  0  0  0  0  0  0  0  0  0  0
    3.7432   -0.8372   -2.2114 O   0  0  0  0  0  0  0  0  0  0  0  0
    2.0537    1.7853   -3.3683 C   0  0  0  0  0  0  0  0  0  0  0  0
    1.9604    0.1773   -0.9394 H   0  0  0  0  0  0  0  0  0  0  0  0
    1.0183   -0.0770   -3.7166 H   0  0  0  0  0  0  0  0  0  0  0  0
    2.8203    2.2039   -2.7061 H   0  0  0  0  0  0  0  0  0  0  0  0
    2.4049    1.9063   -4.3984 H   0  0  0  0  0  0  0  0  0  0  0  0
    1.1450    2.3843   -3.2452 H   0  0  0  0  0  0  0  0  0  0  0  0
    3.3600   -0.7916   -4.4997 N   0  0  0  0  0  0  0  0  0  0  0  0
    4.5244   -1.5539   -4.8858 C   0  0  0  0  0  0  0  0  0  0  0  0
    2.7250   -0.4919   -5.2336 H   0  0  0  0  0  0  0  0  0  0  0  0
    5.3600   -0.8689   -5.0919 H   0  0  0  0  0  0  0  0  0  0  0  0
    4.8028   -2.2365   -4.0693 H   0  0  0  0  0  0  0  0  0  0  0  0
    4.2971   -2.1375   -5.7901 H   0  0  0  0  0  0  0  0  0  0  0  0
  1  3  1  0  0  0  0
  1  7  1  0  0  0  0
  1  2  2  0  0  0  0
 35 36  1  0  0  0  0
 36 44  1  0  0  0  0
 36 37  2  0  0  0  0
  8  9  1  0  0  0  0
  9 17  1  0  0  0  0
  9 10  2  0  0  0  0
 18 19  1  0  0  0  0
 19 34  1  0  0  0  0
 19 20  2  0  0  0  0
 35 38  1  0  0  0  0
  8 11  1  0  0  0  0
 44 45  1  0  0  0  0
 23 24  1  0  0  0  0
 21 22  1  0  0  0  0
 18 21  1  0  0  0  0
 22 23  1  0  0  0  0
 34 35  1  0  0  0  0
  7  8  1  0  0  0  0
 17 18  1  0  0  0  0
  3  4  1  0  0  0  0
  3  5  1  0  0  0  0
  3  6  1  0  0  0  0
 38 41  1  0  0  0  0
 38 42  1  0  0  0  0
 38 43  1  0  0  0  0
 11 14  1  0  0  0  0
 11 15  1  0  0  0  0
 11 16  1  0  0  0  0
 45 47  1  0  0  0  0
 45 48  1  0  0  0  0
 45 49  1  0  0  0  0
 24 31  1  0  0  0  0
 24 32  1  0  0  0  0
 24 33  1  0  0  0  0
 21 27  1  0  0  0  0
 21 28  1  0  0  0  0
 22 29  1  0  0  0  0
 22 30  1  0  0  0  0
 35 40  1  0  0  0  0
  8 13  1  0  0  0  0
 18 26  1  0  0  0  0
 44 46  1  0  0  0  0
  7 12  1  0  0  0  0
 34 39  1  0  0  0  0
 17 25  1  0  0  0  0
M  END
$$$$

  -OEChem-05262214473D

 49 48  0     1  0  0  0  0  0999 V2000
   -0.0561   -5.3799    2.6949 C   0  0  0  0  0  0  0  0  0  0  0  0
    0.7325   -5.0736    3.5815 O   0  0  0  0  0  0  0  0  0  0  0  0
   -1.0067   -6.5099    2.9135 C   0  0  0  0  0  0  0  0  0  0  0  0
   -0.5910   -7.4777    2.5899 H   0  0  0  0  0  0  0  0  0  0  0  0
   -1.2629   -6.6440    3.9767 H   0  0  0  0  0  0  0  0  0  0  0  0
   -1.9729   -6.4206    2.3918 H   0  0  0  0  0  0  0  0  0  0  0  0
   -0.1735   -4.7694    1.4571 N   0  0  0  0  0  0  0  0  0  0  0  0
    0.6439   -3.6603    1.0409 C   0  0  2  0  0  0  0  0  0  0  0  0
   -0.2788   -2.5625    0.5280 C   0  0  0  0  0  0  0  0  0  0  0  0
   -1.4197   -2.7791    0.1251 O   0  0  0  0  0  0  0  0  0  0  0  0
    1.6395   -4.0779   -0.0301 C   0  0  0  0  0  0  0  0  0  0  0  0
   -0.8741   -5.1235    0.8083 H   0  0  0  0  0  0  0  0  0  0  0  0
    1.1738   -3.3062    1.9318 H   0  0  0  0  0  0  0  0  0  0  0  0
    1.1270   -4.4358   -0.9305 H   0  0  0  0  0  0  0  0  0  0  0  0
    2.2797   -3.2400   -0.3251 H   0  0  0  0  0  0  0  0  0  0  0  0
    2.2827   -4.8880    0.3303 H   0  0  0  0  0  0  0  0  0  0  0  0
    0.3351   -1.3153    0.5316 N   0  0  0  0  0  0  0  0  0  0  0  0
   -0.3268   -0.1184    0.0807 C   0  0  2  0  0  0  0  0  0  0  0  0
   -0.0660    0.0538   -1.4125 C   0  0  0  0  0  0  0  0  0  0  0  0
   -0.9522    0.3280   -2.2192 O   0  0  0  0  0  0  0  0  0  0  0  0
    0.0807    1.1126    0.9019 C   0  0  0  0  0  0  0  0  0  0  0  0
   -0.3736    1.0546    2.3623 C   0  0  0  0  0  0  0  0  0  0  0  0
   -2.1862    0.9642    2.4627 S   0  0  0  0  0  0  0  0  0  0  0  0
   -2.5629    2.6321    1.8784 C   0  0  0  0  0  0  0  0  0  0  0  0
    1.2790   -1.2290    0.9021 H   0  0  0  0  0  0  0  0  0  0  0  0
   -1.3997   -0.3000    0.2185 H   0  0  0  0  0  0  0  0  0  0  0  0
   -0.3462    2.0042    0.4233 H   0  0  0  0  0  0  0  0  0  0  0  0
    1.1722    1.2222    0.8645 H   0  0  0  0  0  0  0  0  0  0  0  0
   -0.0516    1.9460    2.9089 H   0  0  0  0  0  0  0  0  0  0  0  0
    0.0380    0.1764    2.8684 H   0  0  0  0  0  0  0  0  0  0  0  0
   -3.6447    2.7855    1.8639 H   0  0  0  0  0  0  0  0  0  0  0  0
   -2.1700    2.7689    0.8678 H   0  0  0  0  0  0  0  0  0  0  0  0
   -2.1061    3.3700    2.5424 H   0  0  0  0  0  0  0  0  0  0  0  0
    1.2637   -0.1664   -1.7420 N   0  0  0  0  0  0  0  0  0  0  0  0
    1.7548   -0.0751   -3.0970 C   0  0  2  0  0  0  0  0  0  0  0  0
    2.7710   -1.1903   -3.3051 C   0  0  0  0  0  0  0  0  0  0  0  0
    3.3721   -1.7314   -2.3794 O   0  0  0  0  0  0  0  0  0  0  0  0
    2.3774    1.2853   -3.3694 C   0  0  0  0  0  0  0  0  0  0  0  0
    1.9358   -0.3616   -1.0059 H   0  0  0  0  0  0  0  0  0  0  0  0
    0.8950   -0.2359   -3.7565 H   0  0  0  0  0  0  0  0  0  0  0  0
    3.2405    1.4644   -2.7179 H   0  0  0  0  0  0  0  0  0  0  0  0
    2.7235    1.3631   -4.4053 H   0  0  0  0  0  0  0  0  0  0  0  0
    1.6538    2.0880   -3.1904 H   0  0  0  0  0  0  0  0  0  0  0  0
    2.9594   -1.4806   -4.6491 N   0  0  0  0  0  0  0  0  0  0  0  0
    3.8825   -2.4929   -5.1061 C   0  0  0  0  0  0  0  0  0  0  0  0
    2.4042   -0.9952   -5.3477 H   0  0  0  0  0  0  0  0  0  0  0  0
    4.8597   -2.0321   -5.3134 H   0  0  0  0  0  0  0  0  0  0  0  0
    3.9976   -3.2621   -4.3282 H   0  0  0  0  0  0  0  0  0  0  0  0
    3.4934   -2.9559   -6.0249 H   0  0  0  0  0  0  0  0  0  0  0  0
  1  3  1  0  0  0  0
  1  7  1  0  0  0  0
  1  2  2  0  0  0  0
 35 36  1  0  0  0  0
 36 44  1  0  0  0  0
 36 37  2  0  0  0  0
  8  9  1  0  0  0  0
  9 17  1  0  0  0  0
  9 10  2  0  0  0  0
 18 19  1  0  0  0  0
 19 34  1  0  0  0  0
 19 20  2  0  0  0  0
 35 38  1  0  0  0  0
  8 11  1  0  0  0  0
 44 45  1  0  0  0  0
 23 24  1  0  0  0  0
 21 22  1  0  0  0  0
 18 21  1  0  0  0  0
 22 23  1  0  0  0  0
 34 35  1  0  0  0  0
  7  8  1  0  0  0  0
 17 18  1  0  0  0  0
  3  4  1  0  0  0  0
  3  5  1  0  0  0  0
  3  6  1  0  0  0  0
 38 41  1  0  0  0  0
 38 42  1  0  0  0  0
 38 43  1  0  0  0  0
 11 14  1  0  0  0  0
 11 15  1  0  0  0  0
 11 16  1  0  0  0  0
 45 47  1  0  0  0  0
 45 48  1  0  0  0  0
 45 49  1  0  0  0  0
 24 31  1  0  0  0  0
 24 32  1  0  0  0  0
 24 33  1  0  0  0  0
 21 27  1  0  0  0  0
 21 28  1  0  0  0  0
 22 29  1  0  0  0  0
 22 30  1  0  0  0  0
 35 40  1  0  0  0  0
  8 13  1  0  0  0  0
 18 26  1  0  0  0  0
 44 46  1  0  0  0  0
  7 12  1  0  0  0  0
 34 39  1  0  0  0  0
 17 25  1  0  0  0  0
M  END
$$$$

  -OEChem-05262214473D

 49 48  0     1  0  0  0  0  0999 V2000
   -0.0561   -5.3799    2.6949 C   0  0  0  0  0  0  0  0  0  0  0  0
    0.7325   -5.0736    3.5815 O   0  0  0  0  0  0  0  0  0  0  0  0
   -1.0067   -6.5099    2.9135 C   0  0  0  0  0  0  0  0  0  0  0  0
   -0.5910   -7.4777    2.5899 H   0  0  0  0  0  0  0  0  0  0  0  0
   -1.2629   -6.6440    3.9767 H   0  0  0  0  0  0  0  0  0  0  0  0
   -1.9729   -6.4206    2.3918 H   0  0  0  0  0  0  0  0  0  0  0  0
   -0.1735   -4.7694    1.4571 N   0  0  0  0  0  0  0  0  0  0  0  0
    0.6439   -3.6603    1.0409 C   0  0  2  0  0  0  0  0  0  0  0  0
   -0.2788   -2.5625    0.5280 C   0  0  0  0  0  0  0  0  0  0  0  0
   -1.4197   -2.7791    0.1251 O   0  0  0  0  0  0  0  0  0  0  0  0
    1.6395   -4.0779   -0.0301 C   0  0  0  0  0  0  0  0  0  0  0  0
   -0.8741   -5.1235    0.8083 H   0  0  0  0  0  0  0  0  0  0  0  0
    1.1738   -3.3062    1.9318 H   0  0  0  0  0  0  0  0  0  0  0  0
    1.1270   -4.4358   -0.9305 H   0  0  0  0  0  0  0  0  0  0  0  0
    2.2797   -3.2400   -0.3251 H   0  0  0  0  0  0  0  0  0  0  0  0
    2.2827   -4.8880    0.3303 H   0  0  0  0  0  0  0  0  0  0  0  0
    0.3351   -1.3153    0.5316 N   0  0  0  0  0  0  0  0  0  0  0  0
   -0.3268   -0.1184    0.0807 C   0  0  2  0  0  0  0  0  0  0  0  0
   -0.0660    0.0538   -1.4125 C   0  0  0  0  0  0  0  0  0  0  0  0
   -0.8722    0.5814   -2.1760 O   0  0  0  0  0  0  0  0  0  0  0  0
    0.0807    1.1126    0.9019 C   0  0  0  0  0  0  0  0  0  0  0  0
   -0.3736    1.0546    2.3623 C   0  0  0  0  0  0  0  0  0  0  0  0
   -2.1862    0.9642    2.4627 S   0  0  0  0  0  0  0  0  0  0  0  0
   -2.5629    2.6321    1.8784 C   0  0  0  0  0  0  0  0  0  0  0  0
    1.2790   -1.2290    0.9021 H   0  0  0  0  0  0  0  0  0  0  0  0
   -1.3997   -0.3000    0.2185 H   0  0  0  0  0  0  0  0  0  0  0  0
   -0.3462    2.0042    0.4233 H   0  0  0  0  0  0  0  0  0  0  0  0
    1.1722    1.2222    0.8645 H   0  0  0  0  0  0  0  0  0  0  0  0
   -0.0516    1.9460    2.9089 H   0  0  0  0  0  0  0  0  0  0  0  0
    0.0380    0.1764    2.8684 H   0  0  0  0  0  0  0  0  0  0  0  0
   -3.6447    2.7855    1.8639 H   0  0  0  0  0  0  0  0  0  0  0  0
   -2.1700    2.7689    0.8678 H   0  0  0  0  0  0  0  0  0  0  0  0
   -2.1061    3.3700    2.5424 H   0  0  0  0  0  0  0  0  0  0  0  0
    1.1561   -0.4792   -1.7969 N   0  0  0  0  0  0  0  0  0  0  0  0
    1.6222   -0.4500   -3.1634 C   0  0  2  0  0  0  0  0  0  0  0  0
    2.3167   -1.7744   -3.4518 C   0  0  0  0  0  0  0  0  0  0  0  0
    2.7823   -2.4936   -2.5703 O   0  0  0  0  0  0  0  0  0  0  0  0
    2.5634    0.7205   -3.4020 C   0  0  0  0  0  0  0  0  0  0  0  0
    1.7737   -0.8729   -1.0932 H   0  0  0  0  0  0  0  0  0  0  0  0
    0.7345   -0.3565   -3.7984 H   0  0  0  0  0  0  0  0  0  0  0  0
    3.4587    0.6442   -2.7744 H   0  0  0  0  0  0  0  0  0  0  0  0
    2.8934    0.7579   -4.4454 H   0  0  0  0  0  0  0  0  0  0  0  0
    2.0718    1.6704   -3.1656 H   0  0  0  0  0  0  0  0  0  0  0  0
    2.3935   -2.0379   -4.8122 N   0  0  0  0  0  0  0  0  0  0  0  0
    3.0183   -3.2275   -5.3418 C   0  0  0  0  0  0  0  0  0  0  0  0
    1.9636   -1.3951   -5.4708 H   0  0  0  0  0  0  0  0  0  0  0  0
    4.0752   -3.0192   -5.5643 H   0  0  0  0  0  0  0  0  0  0  0  0
    2.9525   -4.0373   -4.6002 H   0  0  0  0  0  0  0  0  0  0  0  0
    2.5028   -3.5325   -6.2645 H   0  0  0  0  0  0  0  0  0  0  0  0
  1  3  1  0  0  0  0
  1  7  1  0  0  0  0
  1  2  2  0  0  0  0
 35 36  1  0  0  0  0
 36 44  1  0  0  0  0
 36 37  2  0  0  0  0
  8  9  1  0  0  0  0
  9 17  1  0  0  0  0
  9 10  2  0  0  0  0
 18 19  1  0  0  0  0
 19 34  1  0  0  0  0
 19 20  2  0  0  0  0
 35 38  1  0  0  0  0
  8 11  1  0  0  0  0
 44 45  1  0  0  0  0
 23 24  1  0  0  0  0
 21 22  1  0  0  0  0
 18 21  1  0  0  0  0
 22 23  1  0  0  0  0
 34 35  1  0  0  0  0
  7  8  1  0  0  0  0
 17 18  1  0  0  0  0
  3  4  1  0  0  0  0
  3  5  1  0  0  0  0
  3  6  1  0  0  0  0
 38 41  1  0  0  0  0
 38 42  1  0  0  0  0
 38 43  1  0  0  0  0
 11 14  1  0  0  0  0
 11 15  1  0  0  0  0
 11 16  1  0  0  0  0
 45 47  1  0  0  0  0
 45 48  1  0  0  0  0
 45 49  1  0  0  0  0
 24 31  1  0  0  0  0
 24 32  1  0  0  0  0
 24 33  1  0  0  0  0
 21 27  1  0  0  0  0
 21 28  1  0  0  0  0
 22 29  1  0  0  0  0
 22 30  1  0  0  0  0
 35 40  1  0  0  0  0
  8 13  1  0  0  0  0
 18 26  1  0  0  0  0
 44 46  1  0  0  0  0
  7 12  1  0  0  0  0
 34 39  1  0  0  0  0
 17 25  1  0  0  0  0
M  END
$$$$

  -OEChem-05262214473D

 49 48  0     1  0  0  0  0  0999 V2000
   -0.0561   -5.3799    2.6949 C   0  0  0  0  0  0  0  0  0  0  0  0
    0.7325   -5.0736    3.5815 O   0  0  0  0  0  0  0  0  0  0  0  0
   -1.0067   -6.5099    2.9135 C   0  0  0  0  0  0  0  0  0  0  0  0
   -0.5910   -7.4777    2.5899 H   0  0  0  0  0  0  0  0  0  0  0  0
   -1.2629   -6.6440    3.9767 H   0  0  0  0  0  0  0  0  0  0  0  0
   -1.9729   -6.4206    2.3918 H   0  0  0  0  0  0  0  0  0  0  0  0
   -0.1735   -4.7694    1.4571 N   0  0  0  0  0  0  0  0  0  0  0  0
    0.6439   -3.6603    1.0409 C   0  0  2  0  0  0  0  0  0  0  0  0
   -0.2788   -2.5625    0.5280 C   0  0  0  0  0  0  0  0  0  0  0  0
   -1.4197   -2.7791    0.1251 O   0  0  0  0  0  0  0  0  0  0  0  0
    1.6395   -4.0779   -0.0301 C   0  0  0  0  0  0  0  0  0  0  0  0
   -0.8741   -5.1235    0.8083 H   0  0  0  0  0  0  0  0  0  0  0  0
    1.1738   -3.3062    1.9318 H   0  0  0  0  0  0  0  0  0  0  0  0
    1.1270   -4.4358   -0.9305 H   0  0  0  0  0  0  0  0  0  0  0  0
    2.2797   -3.2400   -0.3251 H   0  0  0  0  0  0  0  0  0  0  0  0
    2.2827   -4.8880    0.3303 H   0  0  0  0  0  0  0  0  0  0  0  0
    0.3351   -1.3153    0.5316 N   0  0  0  0  0  0  0  0  0  0  0  0
   -0.3268   -0.1184    0.0807 C   0  0  2  0  0  0  0  0  0  0  0  0
   -0.0660    0.0538   -1.4125 C   0  0  0  0  0  0  0  0  0  0  0  0
   -0.7294    0.8041   -2.1254 O   0  0  0  0  0  0  0  0  0  0  0  0
    0.0807    1.1126    0.9019 C   0  0  0  0  0  0  0  0  0  0  0  0
   -0.3736    1.0546    2.3623 C   0  0  0  0  0  0  0  0  0  0  0  0
   -2.1862    0.9642    2.4627 S   0  0  0  0  0  0  0  0  0  0  0  0
   -2.5629    2.6321    1.8784 C   0  0  0  0  0  0  0  0  0  0  0  0
    1.2790   -1.2290    0.9021 H   0  0  0  0  0  0  0  0  0  0  0  0
   -1.3997   -0.3000    0.2185 H   0  0  0  0  0  0  0  0  0  0  0  0
   -0.3462    2.0042    0.4233 H   0  0  0  0  0  0  0  0  0  0  0  0
    1.1722    1.2222    0.8645 H   0  0  0  0  0  0  0  0  0  0  0  0
   -0.0516    1.9460    2.9089 H   0  0  0  0  0  0  0  0  0  0  0  0
    0.0380    0.1764    2.8684 H   0  0  0  0  0  0  0  0  0  0  0  0
   -3.6447    2.7855    1.8639 H   0  0  0  0  0  0  0  0  0  0  0  0
   -2.1700    2.7689    0.8678 H   0  0  0  0  0  0  0  0  0  0  0  0
   -2.1061    3.3700    2.5424 H   0  0  0  0  0  0  0  0  0  0  0  0
    0.9712   -0.7516   -1.8606 N   0  0  0  0  0  0  0  0  0  0  0  0
    1.3973   -0.7755   -3.2402 C   0  0  2  0  0  0  0  0  0  0  0  0
    1.7256   -2.2170   -3.6061 C   0  0  0  0  0  0  0  0  0  0  0  0
    2.0138   -3.0719   -2.7712 O   0  0  0  0  0  0  0  0  0  0  0  0
    2.5990    0.1293   -3.4640 C   0  0  0  0  0  0  0  0  0  0  0  0
    1.4849   -1.3219   -1.1954 H   0  0  0  0  0  0  0  0  0  0  0  0
    0.5478   -0.4303   -3.8396 H   0  0  0  0  0  0  0  0  0  0  0  0
    3.4601   -0.2009   -2.8716 H   0  0  0  0  0  0  0  0  0  0  0  0
    2.9030    0.1321   -4.5159 H   0  0  0  0  0  0  0  0  0  0  0  0
    2.3704    1.1600   -3.1722 H   0  0  0  0  0  0  0  0  0  0  0  0
    1.7010   -2.4257   -4.9779 N   0  0  0  0  0  0  0  0  0  0  0  0
    1.9905   -3.7077   -5.5768 C   0  0  0  0  0  0  0  0  0  0  0  0
    1.4330   -1.6643   -5.5945 H   0  0  0  0  0  0  0  0  0  0  0  0
    3.0601   -3.7628   -5.8274 H   0  0  0  0  0  0  0  0  0  0  0  0
    1.7386   -4.5092   -4.8667 H   0  0  0  0  0  0  0  0  0  0  0  0
    1.3929   -3.8279   -6.4924 H   0  0  0  0  0  0  0  0  0  0  0  0
  1  3  1  0  0  0  0
  1  7  1  0  0  0  0
  1  2  2  0  0  0  0
 35 36  1  0  0  0  0
 36 44  1  0  0  0  0
 36 37  2  0  0  0  0
  8  9  1  0  0  0  0
  9 17  1  0  0  0  0
  9 10  2  0  0  0  0
 18 19  1  0  0  0  0
 19 34  1  0  0  0  0
 19 20  2  0  0  0  0
 35 38  1  0  0  0  0
  8 11  1  0  0  0  0
 44 45  1  0  0  0  0
 23 24  1  0  0  0  0
 21 22  1  0  0  0  0
 18 21  1  0  0  0  0
 22 23  1  0  0  0  0
 34 35  1  0  0  0  0
  7  8  1  0  0  0  0
 17 18  1  0  0  0  0
  3  4  1  0  0  0  0
  3  5  1  0  0  0  0
  3  6  1  0  0  0  0
 38 41  1  0  0  0  0
 38 42  1  0  0  0  0
 38 43  1  0  0  0  0
 11 14  1  0  0  0  0
 11 15  1  0  0  0  0
 11 16  1  0  0  0  0
 45 47  1  0  0  0  0
 45 48  1  0  0  0  0
 45 49  1  0  0  0  0
 24 31  1  0  0  0  0
 24 32  1  0  0  0  0
 24 33  1  0  0  0  0
 21 27  1  0  0  0  0
 21 28  1  0  0  0  0
 22 29  1  0  0  0  0
 22 30  1  0  0  0  0
 35 40  1  0  0  0  0
  8 13  1  0  0  0  0
 18 26  1  0  0  0  0
 44 46  1  0  0  0  0
  7 12  1  0  0  0  0
 34 39  1  0  0  0  0
 17 25  1  0  0  0  0
M  END
$$$$

  -OEChem-05262214473D

 49 48  0     1  0  0  0  0  0999 V2000
   -0.0561   -5.3799    2.6949 C   0  0  0  0  0  0  0  0  0  0  0  0
    0.7325   -5.0736    3.5815 O   0  0  0  0  0  0  0  0  0  0  0  0
   -1.0067   -6.5099    2.9135 C   0  0  0  0  0  0  0  0  0  0  0  0
   -0.5910   -7.4777    2.5899 H   0  0  0  0  0  0  0  0  0  0  0  0
   -1.2629   -6.6440    3.9767 H   0  0  0  0  0  0  0  0  0  0  0  0
   -1.9729   -6.4206    2.3918 H   0  0  0  0  0  0  0  0  0  0  0  0
   -0.1735   -4.7694    1.4571 N   0  0  0  0  0  0  0  0  0  0  0  0
    0.6439   -3.6603    1.0409 C   0  0  2  0  0  0  0  0  0  0  0  0
   -0.2788   -2.5625    0.5280 C   0  0  0  0  0  0  0  0  0  0  0  0
   -1.4197   -2.7791    0.1251 O   0  0  0  0  0  0  0  0  0  0  0  0
    1.6395   -4.0779   -0.0301 C   0  0  0  0  0  0  0  0  0  0  0  0
   -0.8741   -5.1235    0.8083 H   0  0  0  0  0  0  0  0  0  0  0  0
    1.1738   -3.3062    1.9318 H   0  0  0  0  0  0  0  0  0  0  0  0
    1.1270   -4.4358   -0.9305 H   0  0  0  0  0  0  0  0  0  0  0  0
    2.2797   -3.2400   -0.3251 H   0  0  0  0  0  0  0  0  0  0  0  0
    2.2827   -4.8880    0.3303 H   0  0  0  0  0  0  0  0  0  0  0  0
    0.3351   -1.3153    0.5316 N   0  0  0  0  0  0  0  0  0  0  0  0
   -0.3268   -0.1184    0.0807 C   0  0  2  0  0  0  0  0  0  0  0  0
   -0.0660    0.0538   -1.4125 C   0  0  0  0  0  0  0  0  0  0  0  0
   -0.5337    0.9807   -2.0708 O   0  0  0  0  0  0  0  0  0  0  0  0
    0.0807    1.1126    0.9019 C   0  0  0  0  0  0  0  0  0  0  0  0
   -0.3736    1.0546    2.3623 C   0  0  0  0  0  0  0  0  0  0  0  0
   -2.1862    0.9642    2.4627 S   0  0  0  0  0  0  0  0  0  0  0  0
   -2.5629    2.6321    1.8784 C   0  0  0  0  0  0  0  0  0  0  0  0
    1.2790   -1.2290    0.9021 H   0  0  0  0  0  0  0  0  0  0  0  0
   -1.3997   -0.3000    0.2185 H   0  0  0  0  0  0  0  0  0  0  0  0
   -0.3462    2.0042    0.4233 H   0  0  0  0  0  0  0  0  0  0  0  0
    1.1722    1.2222    0.8645 H   0  0  0  0  0  0  0  0  0  0  0  0
   -0.0516    1.9460    2.9089 H   0  0  0  0  0  0  0  0  0  0  0  0
    0.0380    0.1764    2.8684 H   0  0  0  0  0  0  0  0  0  0  0  0
   -3.6447    2.7855    1.8639 H   0  0  0  0  0  0  0  0  0  0  0  0
   -2.1700    2.7689    0.8678 H   0  0  0  0  0  0  0  0  0  0  0  0
   -2.1061    3.3700    2.5424 H   0  0  0  0  0  0  0  0  0  0  0  0
    0.7218   -0.9650   -1.9287 N   0  0  0  0  0  0  0  0  0  0  0  0
    1.0953   -1.0295   -3.3222 C   0  0  2  0  0  0  0  0  0  0  0  0
    1.0380   -2.4879   -3.7575 C   0  0  0  0  0  0  0  0  0  0  0  0
    1.1192   -3.4270   -2.9685 O   0  0  0  0  0  0  0  0  0  0  0  0
    2.4818   -0.4481   -3.5510 C   0  0  0  0  0  0  0  0  0  0  0  0
    1.0893   -1.6779   -1.3055 H   0  0  0  0  0  0  0  0  0  0  0  0
    0.3475   -0.4526   -3.8771 H   0  0  0  0  0  0  0  0  0  0  0  0
    3.2445   -1.0132   -3.0029 H   0  0  0  0  0  0  0  0  0  0  0  0
    2.7518   -0.4716   -4.6119 H   0  0  0  0  0  0  0  0  0  0  0  0
    2.5294    0.5917   -3.2100 H   0  0  0  0  0  0  0  0  0  0  0  0
    0.9289   -2.6176   -5.1349 N   0  0  0  0  0  0  0  0  0  0  0  0
    0.8692   -3.9008   -5.7949 C   0  0  0  0  0  0  0  0  0  0  0  0
    0.8488   -1.7844   -5.7104 H   0  0  0  0  0  0  0  0  0  0  0  0
    1.8836   -4.2123   -6.0847 H   0  0  0  0  0  0  0  0  0  0  0  0
    0.4388   -4.6458   -5.1095 H   0  0  0  0  0  0  0  0  0  0  0  0
    0.2393   -3.8220   -6.6933 H   0  0  0  0  0  0  0  0  0  0  0  0
  1  3  1  0  0  0  0
  1  7  1  0  0  0  0
  1  2  2  0  0  0  0
 35 36  1  0  0  0  0
 36 44  1  0  0  0  0
 36 37  2  0  0  0  0
  8  9  1  0  0  0  0
  9 17  1  0  0  0  0
  9 10  2  0  0  0  0
 18 19  1  0  0  0  0
 19 34  1  0  0  0  0
 19 20  2  0  0  0  0
 35 38  1  0  0  0  0
  8 11  1  0  0  0  0
 44 45  1  0  0  0  0
 23 24  1  0  0  0  0
 21 22  1  0  0  0  0
 18 21  1  0  0  0  0
 22 23  1  0  0  0  0
 34 35  1  0  0  0  0
  7  8  1  0  0  0  0
 17 18  1  0  0  0  0
  3  4  1  0  0  0  0
  3  5  1  0  0  0  0
  3  6  1  0  0  0  0
 38 41  1  0  0  0  0
 38 42  1  0  0  0  0
 38 43  1  0  0  0  0
 11 14  1  0  0  0  0
 11 15  1  0  0  0  0
 11 16  1  0  0  0  0
 45 47  1  0  0  0  0
 45 48  1  0  0  0  0
 45 49  1  0  0  0  0
 24 31  1  0  0  0  0
 24 32  1  0  0  0  0
 24 33  1  0  0  0  0
 21 27  1  0  0  0  0
 21 28  1  0  0  0  0
 22 29  1  0  0  0  0
 22 30  1  0  0  0  0
 35 40  1  0  0  0  0
  8 13  1  0  0  0  0
 18 26  1  0  0  0  0
 44 46  1  0  0  0  0
  7 12  1  0  0  0  0
 34 39  1  0  0  0  0
 17 25  1  0  0  0  0
M  END
$$$$

  -OEChem-05262214473D

 49 48  0     1  0  0  0  0  0999 V2000
   -0.0561   -5.3799    2.6949 C   0  0  0  0  0  0  0  0  0  0  0  0
    0.7325   -5.0736    3.5815 O   0  0  0  0  0  0  0  0  0  0  0  0
   -1.0067   -6.5099    2.9135 C   0  0  0  0  0  0  0  0  0  0  0  0
   -0.5910   -7.4777    2.5899 H   0  0  0  0  0  0  0  0  0  0  0  0
   -1.2629   -6.6440    3.9767 H   0  0  0  0  0  0  0  0  0  0  0  0
   -1.9729   -6.4206    2.3918 H   0  0  0  0  0  0  0  0  0  0  0  0
   -0.1735   -4.7694    1.4571 N   0  0  0  0  0  0  0  0  0  0  0  0
    0.6439   -3.6603    1.0409 C   0  0  2  0  0  0  0  0  0  0  0  0
   -0.2788   -2.5625    0.5280 C   0  0  0  0  0  0  0  0  0  0  0  0
   -1.4197   -2.7791    0.1251 O   0  0  0  0  0  0  0  0  0  0  0  0
    1.6395   -4.0779   -0.0301 C   0  0  0  0  0  0  0  0  0  0  0  0
   -0.8741   -5.1235    0.8083 H   0  0  0  0  0  0  0  0  0  0  0  0
    1.1738   -3.3062    1.9318 H   0  0  0  0  0  0  0  0  0  0  0  0
    1.1270   -4.4358   -0.9305 H   0  0  0  0  0  0  0  0  0  0  0  0
    2.2797   -3.2400   -0.3251 H   0  0  0  0  0  0  0  0  0  0  0  0
    2.2827   -4.8880    0.3303 H   0  0  0  0  0  0  0  0  0  0  0  0
    0.3351   -1.3153    0.5316 N   0  0  0  0  0  0  0  0  0  0  0  0
   -0.3268   -0.1184    0.0807 C   0  0  2  0  0  0  0  0  0  0  0  0
   -0.0660    0.0538   -1.4125 C   0  0  0  0  0  0  0  0  0  0  0  0
   -0.2983    1.0993   -2.0160 O   0  0  0  0  0  0  0  0  0  0  0  0
    0.0807    1.1126    0.9019 C   0  0  0  0  0  0  0  0  0  0  0  0
   -0.3736    1.0546    2.3623 C   0  0  0  0  0  0  0  0  0  0  0  0
   -2.1862    0.9642    2.4627 S   0  0  0  0  0  0  0  0  0  0  0  0
   -2.5629    2.6321    1.8784 C   0  0  0  0  0  0  0  0  0  0  0  0
    1.2790   -1.2290    0.9021 H   0  0  0  0  0  0  0  0  0  0  0  0
   -1.3997   -0.3000    0.2185 H   0  0  0  0  0  0  0  0  0  0  0  0
   -0.3462    2.0042    0.4233 H   0  0  0  0  0  0  0  0  0  0  0  0
    1.1722    1.2222    0.8645 H   0  0  0  0  0  0  0  0  0  0  0  0
   -0.0516    1.9460    2.9089 H   0  0  0  0  0  0  0  0  0  0  0  0
    0.0380    0.1764    2.8684 H   0  0  0  0  0  0  0  0  0  0  0  0
   -3.6447    2.7855    1.8639 H   0  0  0  0  0  0  0  0  0  0  0  0
   -2.1700    2.7689    0.8678 H   0  0  0  0  0  0  0  0  0  0  0  0
   -2.1061    3.3700    2.5424 H   0  0  0  0  0  0  0  0  0  0  0  0
    0.4249   -1.1050   -1.9968 N   0  0  0  0  0  0  0  0  0  0  0  0
    0.7368   -1.1948   -3.4039 C   0  0  2  0  0  0  0  0  0  0  0  0
    0.3008   -2.5687   -3.8956 C   0  0  0  0  0  0  0  0  0  0  0  0
    0.1593   -3.5347   -3.1486 O   0  0  0  0  0  0  0  0  0  0  0  0
    2.2197   -0.9722   -3.6572 C   0  0  0  0  0  0  0  0  0  0  0  0
    0.6138   -1.9167   -1.4161 H   0  0  0  0  0  0  0  0  0  0  0  0
    0.1472   -0.4217   -3.9085 H   0  0  0  0  0  0  0  0  0  0  0  0
    2.8266   -1.7373   -3.1594 H   0  0  0  0  0  0  0  0  0  0  0  0
    2.4499   -1.0123   -4.7270 H   0  0  0  0  0  0  0  0  0  0  0  0
    2.5380    0.0042   -3.2763 H   0  0  0  0  0  0  0  0  0  0  0  0
    0.1300   -2.6003   -5.2725 N   0  0  0  0  0  0  0  0  0  0  0  0
   -0.2692   -3.7936   -5.9814 C   0  0  0  0  0  0  0  0  0  0  0  0
    0.2506   -1.7473   -5.8107 H   0  0  0  0  0  0  0  0  0  0  0  0
    0.6258   -4.3370   -6.3189 H   0  0  0  0  0  0  0  0  0  0  0  0
   -0.8584   -4.4377   -5.3122 H   0  0  0  0  0  0  0  0  0  0  0  0
   -0.8793   -3.5152   -6.8533 H   0  0  0  0  0  0  0  0  0  0  0  0
  1  3  1  0  0  0  0
  1  7  1  0  0  0  0
  1  2  2  0  0  0  0
 35 36  1  0  0  0  0
 36 44  1  0  0  0  0
 36 37  2  0  0  0  0
  8  9  1  0  0  0  0
  9 17  1  0  0  0  0
  9 10  2  0  0  0  0
 18 19  1  0  0  0  0
 19 34  1  0  0  0  0
 19 20  2  0  0  0  0
 35 38  1  0  0  0  0
  8 11  1  0  0  0  0
 44 45  1  0  0  0  0
 23 24  1  0  0  0  0
 21 22  1  0  0  0  0
 18 21  1  0  0  0  0
 22 23  1  0  0  0  0
 34 35  1  0  0  0  0
  7  8  1  0  0  0  0
 17 18  1  0  0  0  0
  3  4  1  0  0  0  0
  3  5  1  0  0  0  0
  3  6  1  0  0  0  0
 38 41  1  0  0  0  0
 38 42  1  0  0  0  0
 38 43  1  0  0  0  0
 11 14  1  0  0  0  0
 11 15  1  0  0  0  0
 11 16  1  0  0  0  0
 45 47  1  0  0  0  0
 45 48  1  0  0  0  0
 45 49  1  0  0  0  0
 24 31  1  0  0  0  0
 24 32  1  0  0  0  0
 24 33  1  0  0  0  0
 21 27  1  0  0  0  0
 21 28  1  0  0  0  0
 22 29  1  0  0  0  0
 22 30  1  0  0  0  0
 35 40  1  0  0  0  0
  8 13  1  0  0  0  0
 18 26  1  0  0  0  0
 44 46  1  0  0  0  0
  7 12  1  0  0  0  0
 34 39  1  0  0  0  0
 17 25  1  0  0  0  0
M  END
$$$$

  -OEChem-05262214473D

 49 48  0     1  0  0  0  0  0999 V2000
   -0.0561   -5.3799    2.6949 C   0  0  0  0  0  0  0  0  0  0  0  0
    0.7325   -5.0736    3.5815 O   0  0  0  0  0  0  0  0  0  0  0  0
   -1.0067   -6.5099    2.9135 C   0  0  0  0  0  0  0  0  0  0  0  0
   -0.5910   -7.4777    2.5899 H   0  0  0  0  0  0  0  0  0  0  0  0
   -1.2629   -6.6440    3.9767 H   0  0  0  0  0  0  0  0  0  0  0  0
   -1.9729   -6.4206    2.3918 H   0  0  0  0  0  0  0  0  0  0  0  0
   -0.1735   -4.7694    1.4571 N   0  0  0  0  0  0  0  0  0  0  0  0
    0.6439   -3.6603    1.0409 C   0  0  2  0  0  0  0  0  0  0  0  0
   -0.2788   -2.5625    0.5280 C   0  0  0  0  0  0  0  0  0  0  0  0
   -1.4197   -2.7791    0.1251 O   0  0  0  0  0  0  0  0  0  0  0  0
    1.6395   -4.0779   -0.0301 C   0  0  0  0  0  0  0  0  0  0  0  0
   -0.8741   -5.1235    0.8083 H   0  0  0  0  0  0  0  0  0  0  0  0
    1.1738   -3.3062    1.9318 H   0  0  0  0  0  0  0  0  0  0  0  0
    1.1270   -4.4358   -0.9305 H   0  0  0  0  0  0  0  0  0  0  0  0
    2.2797   -3.2400   -0.3251 H   0  0  0  0  0  0  0  0  0  0  0  0
    2.2827   -4.8880    0.3303 H   0  0  0  0  0  0  0  0  0  0  0  0
    0.3351   -1.3153    0.5316 N   0  0  0  0  0  0  0  0  0  0  0  0
   -0.3268   -0.1184    0.0807 C   0  0  2  0  0  0  0  0  0  0  0  0
   -0.0660    0.0538   -1.4125 C   0  0  0  0  0  0  0  0  0  0  0  0
   -0.0392    1.1518   -1.9647 O   0  0  0  0  0  0  0  0  0  0  0  0
    0.0807    1.1126    0.9019 C   0  0  0  0  0  0  0  0  0  0  0  0
   -0.3736    1.0546    2.3623 C   0  0  0  0  0  0  0  0  0  0  0  0
   -2.1862    0.9642    2.4627 S   0  0  0  0  0  0  0  0  0  0  0  0
   -2.5629    2.6321    1.8784 C   0  0  0  0  0  0  0  0  0  0  0  0
    1.2790   -1.2290    0.9021 H   0  0  0  0  0  0  0  0  0  0  0  0
   -1.3997   -0.3000    0.2185 H   0  0  0  0  0  0  0  0  0  0  0  0
   -0.3462    2.0042    0.4233 H   0  0  0  0  0  0  0  0  0  0  0  0
    1.1722    1.2222    0.8645 H   0  0  0  0  0  0  0  0  0  0  0  0
   -0.0516    1.9460    2.9089 H   0  0  0  0  0  0  0  0  0  0  0  0
    0.0380    0.1764    2.8684 H   0  0  0  0  0  0  0  0  0  0  0  0
   -3.6447    2.7855    1.8639 H   0  0  0  0  0  0  0  0  0  0  0  0
   -2.1700    2.7689    0.8678 H   0  0  0  0  0  0  0  0  0  0  0  0
   -2.1061    3.3700    2.5424 H   0  0  0  0  0  0  0  0  0  0  0  0
    0.1006   -1.1620   -2.0600 N   0  0  0  0  0  0  0  0  0  0  0  0
    0.3463   -1.2600   -3.4797 C   0  0  2  0  0  0  0  0  0  0  0  0
   -0.4358   -2.4539   -4.0110 C   0  0  0  0  0  0  0  0  0  0  0  0
   -0.8004   -3.3875   -3.2993 O   0  0  0  0  0  0  0  0  0  0  0  0
    1.8308   -1.4075   -3.7754 C   0  0  0  0  0  0  0  0  0  0  0  0
    0.0907   -2.0220   -1.5197 H   0  0  0  0  0  0  0  0  0  0  0  0
   -0.0392   -0.3397   -3.9317 H   0  0  0  0  0  0  0  0  0  0  0  0
    2.2349   -2.3241   -3.3304 H   0  0  0  0  0  0  0  0  0  0  0  0
    2.0180   -1.4529   -4.8533 H   0  0  0  0  0  0  0  0  0  0  0  0
    2.3954   -0.5626   -3.3665 H   0  0  0  0  0  0  0  0  0  0  0  0
   -0.6413   -2.3752   -5.3813 N   0  0  0  0  0  0  0  0  0  0  0  0
   -1.3471   -3.3935   -6.1236 C   0  0  0  0  0  0  0  0  0  0  0  0
   -0.3207   -1.5555   -5.8884 H   0  0  0  0  0  0  0  0  0  0  0  0
   -0.6277   -4.1285   -6.5138 H   0  0  0  0  0  0  0  0  0  0  0  0
   -2.0647   -3.8991   -5.4608 H   0  0  0  0  0  0  0  0  0  0  0  0
   -1.8868   -2.9283   -6.9617 H   0  0  0  0  0  0  0  0  0  0  0  0
  1  3  1  0  0  0  0
  1  7  1  0  0  0  0
  1  2  2  0  0  0  0
 35 36  1  0  0  0  0
 36 44  1  0  0  0  0
 36 37  2  0  0  0  0
  8  9  1  0  0  0  0
  9 17  1  0  0  0  0
  9 10  2  0  0  0  0
 18 19  1  0  0  0  0
 19 34  1  0  0  0  0
 19 20  2  0  0  0  0
 35 38  1  0  0  0  0
  8 11  1  0  0  0  0
 44 45  1  0  0  0  0
 23 24  1  0  0  0  0
 21 22  1  0  0  0  0
 18 21  1  0  0  0  0
 22 23  1  0  0  0  0
 34 35  1  0  0  0  0
  7  8  1  0  0  0  0
 17 18  1  0  0  0  0
  3  4  1  0  0  0  0
  3  5  1  0  0  0  0
  3  6  1  0  0  0  0
 38 41  1  0  0  0  0
 38 42  1  0  0  0  0
 38 43  1  0  0  0  0
 11 14  1  0  0  0  0
 11 15  1  0  0  0  0
 11 16  1  0  0  0  0
 45 47  1  0  0  0  0
 45 48  1  0  0  0  0
 45 49  1  0  0  0  0
 24 31  1  0  0  0  0
 24 32  1  0  0  0  0
 24 33  1  0  0  0  0
 21 27  1  0  0  0  0
 21 28  1  0  0  0  0
 22 29  1  0  0  0  0
 22 30  1  0  0  0  0
 35 40  1  0  0  0  0
  8 13  1  0  0  0  0
 18 26  1  0  0  0  0
 44 46  1  0  0  0  0
  7 12  1  0  0  0  0
 34 39  1  0  0  0  0
 17 25  1  0  0  0  0
M  END
$$$$

  -OEChem-05262214473D

 49 48  0     1  0  0  0  0  0999 V2000
   -0.0561   -5.3799    2.6949 C   0  0  0  0  0  0  0  0  0  0  0  0
    0.7325   -5.0736    3.5815 O   0  0  0  0  0  0  0  0  0  0  0  0
   -1.0067   -6.5099    2.9135 C   0  0  0  0  0  0  0  0  0  0  0  0
   -0.5910   -7.4777    2.5899 H   0  0  0  0  0  0  0  0  0  0  0  0
   -1.2629   -6.6440    3.9767 H   0  0  0  0  0  0  0  0  0  0  0  0
   -1.9729   -6.4206    2.3918 H   0  0  0  0  0  0  0  0  0  0  0  0
   -0.1735   -4.7694    1.4571 N   0  0  0  0  0  0  0  0  0  0  0  0
    0.6439   -3.6603    1.0409 C   0  0  2  0  0  0  0  0  0  0  0  0
   -0.2788   -2.5625    0.5280 C   0  0  0  0  0  0  0  0  0  0  0  0
   -1.4197   -2.7791    0.1251 O   0  0  0  0  0  0  0  0  0  0  0  0
    1.6395   -4.0779   -0.0301 C   0  0  0  0  0  0  0  0  0  0  0  0
   -0.8741   -5.1235    0.8083 H   0  0  0  0  0  0  0  0  0  0  0  0
    1.1738   -3.3062    1.9318 H   0  0  0  0  0  0  0  0  0  0  0  0
    1.1270   -4.4358   -0.9305 H   0  0  0  0  0  0  0  0  0  0  0  0
    2.2797   -3.2400   -0.3251 H   0  0  0  0  0  0  0  0  0  0  0  0
    2.2827   -4.8880    0.3303 H   0  0  0  0  0  0  0  0  0  0  0  0
    0.3351   -1.3153    0.5316 N   0  0  0  0  0  0  0  0  0  0  0  0
   -0.3268   -0.1184    0.0807 C   0  0  2  0  0  0  0  0  0  0  0  0
   -0.0660    0.0538   -1.4125 C   0  0  0  0  0  0  0  0  0  0  0  0
    0.2258    1.1346   -1.9204 O   0  0  0  0  0  0  0  0  0  0  0  0
    0.0807    1.1126    0.9019 C   0  0  0  0  0  0  0  0  0  0  0  0
   -0.3736    1.0546    2.3623 C   0  0  0  0  0  0  0  0  0  0  0  0
   -2.1862    0.9642    2.4627 S   0  0  0  0  0  0  0  0  0  0  0  0
   -2.5629    2.6321    1.8784 C   0  0  0  0  0  0  0  0  0  0  0  0
    1.2790   -1.2290    0.9021 H   0  0  0  0  0  0  0  0  0  0  0  0
   -1.3997   -0.3000    0.2185 H   0  0  0  0  0  0  0  0  0  0  0  0
   -0.3462    2.0042    0.4233 H   0  0  0  0  0  0  0  0  0  0  0  0
    1.1722    1.2222    0.8645 H   0  0  0  0  0  0  0  0  0  0  0  0
   -0.0516    1.9460    2.9089 H   0  0  0  0  0  0  0  0  0  0  0  0
    0.0380    0.1764    2.8684 H   0  0  0  0  0  0  0  0  0  0  0  0
   -3.6447    2.7855    1.8639 H   0  0  0  0  0  0  0  0  0  0  0  0
   -2.1700    2.7689    0.8678 H   0  0  0  0  0  0  0  0  0  0  0  0
   -2.1061    3.3700    2.5424 H   0  0  0  0  0  0  0  0  0  0  0  0
   -0.2289   -1.1321   -2.1141 N   0  0  0  0  0  0  0  0  0  0  0  0
   -0.0496   -1.2207   -3.5443 C   0  0  2  0  0  0  0  0  0  0  0  0
   -1.1215   -2.1514   -4.0959 C   0  0  0  0  0  0  0  0  0  0  0  0
   -1.6945   -2.9956   -3.4103 O   0  0  0  0  0  0  0  0  0  0  0  0
    1.3413   -1.7241   -3.8974 C   0  0  0  0  0  0  0  0  0  0  0  0
   -0.4442   -1.9866   -1.6090 H   0  0  0  0  0  0  0  0  0  0  0  0
   -0.1993   -0.2122   -3.9449 H   0  0  0  0  0  0  0  0  0  0  0  0
    1.5098   -2.7333   -3.5043 H   0  0  0  0  0  0  0  0  0  0  0  0
    1.4855   -1.7636   -4.9821 H   0  0  0  0  0  0  0  0  0  0  0  0
    2.1115   -1.0699   -3.4746 H   0  0  0  0  0  0  0  0  0  0  0  0
   -1.3325   -1.9575   -5.4539 N   0  0  0  0  0  0  0  0  0  0  0  0
   -2.2910   -2.7276   -6.2117 C   0  0  0  0  0  0  0  0  0  0  0  0
   -0.8263   -1.2221   -5.9382 H   0  0  0  0  0  0  0  0  0  0  0  0
   -1.7912   -3.6009   -6.6562 H   0  0  0  0  0  0  0  0  0  0  0  0
   -3.0977   -3.0667   -5.5453 H   0  0  0  0  0  0  0  0  0  0  0  0
   -2.7144   -2.1015   -7.0109 H   0  0  0  0  0  0  0  0  0  0  0  0
  1  3  1  0  0  0  0
  1  7  1  0  0  0  0
  1  2  2  0  0  0  0
 35 36  1  0  0  0  0
 36 44  1  0  0  0  0
 36 37  2  0  0  0  0
  8  9  1  0  0  0  0
  9 17  1  0  0  0  0
  9 10  2  0  0  0  0
 18 19  1  0  0  0  0
 19 34  1  0  0  0  0
 19 20  2  0  0  0  0
 35 38  1  0  0  0  0
  8 11  1  0  0  0  0
 44 45  1  0  0  0  0
 23 24  1  0  0  0  0
 21 22  1  0  0  0  0
 18 21  1  0  0  0  0
 22 23  1  0  0  0  0
 34 35  1  0  0  0  0
  7  8  1  0  0  0  0
 17 18  1  0  0  0  0
  3  4  1  0  0  0  0
  3  5  1  0  0  0  0
  3  6  1  0  0  0  0
 38 41  1  0  0  0  0
 38 42  1  0  0  0  0
 38 43  1  0  0  0  0
 11 14  1  0  0  0  0
 11 15  1  0  0  0  0
 11 16  1  0  0  0  0
 45 47  1  0  0  0  0
 45 48  1  0  0  0  0
 45 49  1  0  0  0  0
 24 31  1  0  0  0  0
 24 32  1  0  0  0  0
 24 33  1  0  0  0  0
 21 27  1  0  0  0  0
 21 28  1  0  0  0  0
 22 29  1  0  0  0  0
 22 30  1  0  0  0  0
 35 40  1  0  0  0  0
  8 13  1  0  0  0  0
 18 26  1  0  0  0  0
 44 46  1  0  0  0  0
  7 12  1  0  0  0  0
 34 39  1  0  0  0  0
 17 25  1  0  0  0  0
M  END
$$$$

  -OEChem-05262214473D

 49 48  0     1  0  0  0  0  0999 V2000
   -0.0561   -5.3799    2.6949 C   0  0  0  0  0  0  0  0  0  0  0  0
    0.7325   -5.0736    3.5815 O   0  0  0  0  0  0  0  0  0  0  0  0
   -1.0067   -6.5099    2.9135 C   0  0  0  0  0  0  0  0  0  0  0  0
   -0.5910   -7.4777    2.5899 H   0  0  0  0  0  0  0  0  0  0  0  0
   -1.2629   -6.6440    3.9767 H   0  0  0  0  0  0  0  0  0  0  0  0
   -1.9729   -6.4206    2.3918 H   0  0  0  0  0  0  0  0  0  0  0  0
   -0.1735   -4.7694    1.4571 N   0  0  0  0  0  0  0  0  0  0  0  0
    0.6439   -3.6603    1.0409 C   0  0  2  0  0  0  0  0  0  0  0  0
   -0.2788   -2.5625    0.5280 C   0  0  0  0  0  0  0  0  0  0  0  0
   -1.4197   -2.7791    0.1251 O   0  0  0  0  0  0  0  0  0  0  0  0
    1.6395   -4.0779   -0.0301 C   0  0  0  0  0  0  0  0  0  0  0  0
   -0.8741   -5.1235    0.8083 H   0  0  0  0  0  0  0  0  0  0  0  0
    1.1738   -3.3062    1.9318 H   0  0  0  0  0  0  0  0  0  0  0  0
    1.1270   -4.4358   -0.9305 H   0  0  0  0  0  0  0  0  0  0  0  0
    2.2797   -3.2400   -0.3251 H   0  0  0  0  0  0  0  0  0  0  0  0
    2.2827   -4.8880    0.3303 H   0  0  0  0  0  0  0  0  0  0  0  0
    0.3351   -1.3153    0.5316 N   0  0  0  0  0  0  0  0  0  0  0  0
   -0.3268   -0.1184    0.0807 C   0  0  2  0  0  0  0  0  0  0  0  0
   -0.0660    0.0538   -1.4125 C   0  0  0  0  0  0  0  0  0  0  0  0
    0.4787    1.0489   -1.8860 O   0  0  0  0  0  0  0  0  0  0  0  0
    0.0807    1.1126    0.9019 C   0  0  0  0  0  0  0  0  0  0  0  0
   -0.3736    1.0546    2.3623 C   0  0  0  0  0  0  0  0  0  0  0  0
   -2.1862    0.9642    2.4627 S   0  0  0  0  0  0  0  0  0  0  0  0
   -2.5629    2.6321    1.8784 C   0  0  0  0  0  0  0  0  0  0  0  0
    1.2790   -1.2290    0.9021 H   0  0  0  0  0  0  0  0  0  0  0  0
   -1.3997   -0.3000    0.2185 H   0  0  0  0  0  0  0  0  0  0  0  0
   -0.3462    2.0042    0.4233 H   0  0  0  0  0  0  0  0  0  0  0  0
    1.1722    1.2222    0.8645 H   0  0  0  0  0  0  0  0  0  0  0  0
   -0.0516    1.9460    2.9089 H   0  0  0  0  0  0  0  0  0  0  0  0
    0.0380    0.1764    2.8684 H   0  0  0  0  0  0  0  0  0  0  0  0
   -3.6447    2.7855    1.8639 H   0  0  0  0  0  0  0  0  0  0  0  0
   -2.1700    2.7689    0.8678 H   0  0  0  0  0  0  0  0  0  0  0  0
   -2.1061    3.3700    2.5424 H   0  0  0  0  0  0  0  0  0  0  0  0
   -0.5412   -1.0173   -2.1554 N   0  0  0  0  0  0  0  0  0  0  0  0
   -0.4239   -1.0796   -3.5934 C   0  0  2  0  0  0  0  0  0  0  0  0
   -1.7098   -1.6816   -4.1445 C   0  0  0  0  0  0  0  0  0  0  0  0
   -2.4621   -2.3856   -3.4740 O   0  0  0  0  0  0  0  0  0  0  0  0
    0.7848   -1.9005   -4.0150 C   0  0  0  0  0  0  0  0  0  0  0  0
   -0.9545   -1.8130   -1.6782 H   0  0  0  0  0  0  0  0  0  0  0  0
   -0.3220   -0.0480   -3.9474 H   0  0  0  0  0  0  0  0  0  0  0  0
    0.7006   -2.9373   -3.6692 H   0  0  0  0  0  0  0  0  0  0  0  0
    0.8887   -1.9230   -5.1048 H   0  0  0  0  0  0  0  0  0  0  0  0
    1.7056   -1.4833   -3.5932 H   0  0  0  0  0  0  0  0  0  0  0  0
   -1.8964   -1.3758   -5.4854 N   0  0  0  0  0  0  0  0  0  0  0  0
   -3.0366   -1.8413   -6.2398 C   0  0  0  0  0  0  0  0  0  0  0  0
   -1.2315   -0.7697   -5.9569 H   0  0  0  0  0  0  0  0  0  0  0  0
   -2.7857   -2.7902   -6.7365 H   0  0  0  0  0  0  0  0  0  0  0  0
   -3.8872   -1.9973   -5.5599 H   0  0  0  0  0  0  0  0  0  0  0  0
   -3.3058   -1.0909   -6.9977 H   0  0  0  0  0  0  0  0  0  0  0  0
  1  3  1  0  0  0  0
  1  7  1  0  0  0  0
  1  2  2  0  0  0  0
 35 36  1  0  0  0  0
 36 44  1  0  0  0  0
 36 37  2  0  0  0  0
  8  9  1  0  0  0  0
  9 17  1  0  0  0  0
  9 10  2  0  0  0  0
 18 19  1  0  0  0  0
 19 34  1  0  0  0  0
 19 20  2  0  0  0  0
 35 38  1  0  0  0  0
  8 11  1  0  0  0  0
 44 45  1  0  0  0  0
 23 24  1  0  0  0  0
 21 22  1  0  0  0  0
 18 21  1  0  0  0  0
 22 23  1  0  0  0  0
 34 35  1  0  0  0  0
  7  8  1  0  0  0  0
 17 18  1  0  0  0  0
  3  4  1  0  0  0  0
  3  5  1  0  0  0  0
  3  6  1  0  0  0  0
 38 41  1  0  0  0  0
 38 42  1  0  0  0  0
 38 43  1  0  0  0  0
 11 14  1  0  0  0  0
 11 15  1  0  0  0  0
 11 16  1  0  0  0  0
 45 47  1  0  0  0  0
 45 48  1  0  0  0  0
 45 49  1  0  0  0  0
 24 31  1  0  0  0  0
 24 32  1  0  0  0  0
 24 33  1  0  0  0  0
 21 27  1  0  0  0  0
 21 28  1  0  0  0  0
 22 29  1  0  0  0  0
 22 30  1  0  0  0  0
 35 40  1  0  0  0  0
  8 13  1  0  0  0  0
 18 26  1  0  0  0  0
 44 46  1  0  0  0  0
  7 12  1  0  0  0  0
 34 39  1  0  0  0  0
 17 25  1  0  0  0  0
M  END
$$$$

  -OEChem-05262214473D

 49 48  0     1  0  0  0  0  0999 V2000
   -0.0561   -5.3799    2.6949 C   0  0  0  0  0  0  0  0  0  0  0  0
    0.7325   -5.0736    3.5815 O   0  0  0  0  0  0  0  0  0  0  0  0
   -1.0067   -6.5099    2.9135 C   0  0  0  0  0  0  0  0  0  0  0  0
   -0.5910   -7.4777    2.5899 H   0  0  0  0  0  0  0  0  0  0  0  0
   -1.2629   -6.6440    3.9767 H   0  0  0  0  0  0  0  0  0  0  0  0
   -1.9729   -6.4206    2.3918 H   0  0  0  0  0  0  0  0  0  0  0  0
   -0.1735   -4.7694    1.4571 N   0  0  0  0  0  0  0  0  0  0  0  0
    0.6439   -3.6603    1.0409 C   0  0  2  0  0  0  0  0  0  0  0  0
   -0.2788   -2.5625    0.5280 C   0  0  0  0  0  0  0  0  0  0  0  0
   -1.4197   -2.7791    0.1251 O   0  0  0  0  0  0  0  0  0  0  0  0
    1.6395   -4.0779   -0.0301 C   0  0  0  0  0  0  0  0  0  0  0  0
   -0.8741   -5.1235    0.8083 H   0  0  0  0  0  0  0  0  0  0  0  0
    1.1738   -3.3062    1.9318 H   0  0  0  0  0  0  0  0  0  0  0  0
    1.1270   -4.4358   -0.9305 H   0  0  0  0  0  0  0  0  0  0  0  0
    2.2797   -3.2400   -0.3251 H   0  0  0  0  0  0  0  0  0  0  0  0
    2.2827   -4.8880    0.3303 H   0  0  0  0  0  0  0  0  0  0  0  0
    0.3351   -1.3153    0.5316 N   0  0  0  0  0  0  0  0  0  0  0  0
   -0.3268   -0.1184    0.0807 C   0  0  2  0  0  0  0  0  0  0  0  0
   -0.0660    0.0538   -1.4125 C   0  0  0  0  0  0  0  0  0  0  0  0
    0.7023    0.9006   -1.8641 O   0  0  0  0  0  0  0  0  0  0  0  0
    0.0807    1.1126    0.9019 C   0  0  0  0  0  0  0  0  0  0  0  0
   -0.3736    1.0546    2.3623 C   0  0  0  0  0  0  0  0  0  0  0  0
   -2.1862    0.9642    2.4627 S   0  0  0  0  0  0  0  0  0  0  0  0
   -2.5629    2.6321    1.8784 C   0  0  0  0  0  0  0  0  0  0  0  0
    1.2790   -1.2290    0.9021 H   0  0  0  0  0  0  0  0  0  0  0  0
   -1.3997   -0.3000    0.2185 H   0  0  0  0  0  0  0  0  0  0  0  0
   -0.3462    2.0042    0.4233 H   0  0  0  0  0  0  0  0  0  0  0  0
    1.1722    1.2222    0.8645 H   0  0  0  0  0  0  0  0  0  0  0  0
   -0.0516    1.9460    2.9089 H   0  0  0  0  0  0  0  0  0  0  0  0
    0.0380    0.1764    2.8684 H   0  0  0  0  0  0  0  0  0  0  0  0
   -3.6447    2.7855    1.8639 H   0  0  0  0  0  0  0  0  0  0  0  0
   -2.1700    2.7689    0.8678 H   0  0  0  0  0  0  0  0  0  0  0  0
   -2.1061    3.3700    2.5424 H   0  0  0  0  0  0  0  0  0  0  0  0
   -0.8150   -0.8255   -2.1812 N   0  0  0  0  0  0  0  0  0  0  0  0
   -0.7512   -0.8463   -3.6237 C   0  0  2  0  0  0  0  0  0  0  0  0
   -2.1604   -1.0767   -4.1535 C   0  0  0  0  0  0  0  0  0  0  0  0
   -3.0508   -1.5991   -3.4862 O   0  0  0  0  0  0  0  0  0  0  0  0
    0.1991   -1.9248   -4.1201 C   0  0  0  0  0  0  0  0  0  0  0  0
   -1.4055   -1.5129   -1.7224 H   0  0  0  0  0  0  0  0  0  0  0  0
   -0.3989    0.1419   -3.9390 H   0  0  0  0  0  0  0  0  0  0  0  0
   -0.1375   -2.9220   -3.8138 H   0  0  0  0  0  0  0  0  0  0  0  0
    0.2682   -1.9204   -5.2129 H   0  0  0  0  0  0  0  0  0  0  0  0
    1.2053   -1.7745   -3.7142 H   0  0  0  0  0  0  0  0  0  0  0  0
   -2.2947   -0.6696   -5.4735 N   0  0  0  0  0  0  0  0  0  0  0  0
   -3.5332   -0.7952   -6.2059 C   0  0  0  0  0  0  0  0  0  0  0  0
   -1.5090   -0.2293   -5.9430 H   0  0  0  0  0  0  0  0  0  0  0  0
   -3.5432   -1.7517   -6.7491 H   0  0  0  0  0  0  0  0  0  0  0  0
   -4.3792   -0.7636   -5.5036 H   0  0  0  0  0  0  0  0  0  0  0  0
   -3.6207    0.0344   -6.9229 H   0  0  0  0  0  0  0  0  0  0  0  0
  1  3  1  0  0  0  0
  1  7  1  0  0  0  0
  1  2  2  0  0  0  0
 35 36  1  0  0  0  0
 36 44  1  0  0  0  0
 36 37  2  0  0  0  0
  8  9  1  0  0  0  0
  9 17  1  0  0  0  0
  9 10  2  0  0  0  0
 18 19  1  0  0  0  0
 19 34  1  0  0  0  0
 19 20  2  0  0  0  0
 35 38  1  0  0  0  0
  8 11  1  0  0  0  0
 44 45  1  0  0  0  0
 23 24  1  0  0  0  0
 21 22  1  0  0  0  0
 18 21  1  0  0  0  0
 22 23  1  0  0  0  0
 34 35  1  0  0  0  0
  7  8  1  0  0  0  0
 17 18  1  0  0  0  0
  3  4  1  0  0  0  0
  3  5  1  0  0  0  0
  3  6  1  0  0  0  0
 38 41  1  0  0  0  0
 38 42  1  0  0  0  0
 38 43  1  0  0  0  0
 11 14  1  0  0  0  0
 11 15  1  0  0  0  0
 11 16  1  0  0  0  0
 45 47  1  0  0  0  0
 45 48  1  0  0  0  0
 45 49  1  0  0  0  0
 24 31  1  0  0  0  0
 24 32  1  0  0  0  0
 24 33  1  0  0  0  0
 21 27  1  0  0  0  0
 21 28  1  0  0  0  0
 22 29  1  0  0  0  0
 22 30  1  0  0  0  0
 35 40  1  0  0  0  0
  8 13  1  0  0  0  0
 18 26  1  0  0  0  0
 44 46  1  0  0  0  0
  7 12  1  0  0  0  0
 34 39  1  0  0  0  0
 17 25  1  0  0  0  0
M  END
$$$$

  -OEChem-05262214473D

 49 48  0     1  0  0  0  0  0999 V2000
   -0.0561   -5.3799    2.6949 C   0  0  0  0  0  0  0  0  0  0  0  0
    0.7325   -5.0736    3.5815 O   0  0  0  0  0  0  0  0  0  0  0  0
   -1.0067   -6.5099    2.9135 C   0  0  0  0  0  0  0  0  0  0  0  0
   -0.5910   -7.4777    2.5899 H   0  0  0  0  0  0  0  0  0  0  0  0
   -1.2629   -6.6440    3.9767 H   0  0  0  0  0  0  0  0  0  0  0  0
   -1.9729   -6.4206    2.3918 H   0  0  0  0  0  0  0  0  0  0  0  0
   -0.1735   -4.7694    1.4571 N   0  0  0  0  0  0  0  0  0  0  0  0
    0.6439   -3.6603    1.0409 C   0  0  2  0  0  0  0  0  0  0  0  0
   -0.2788   -2.5625    0.5280 C   0  0  0  0  0  0  0  0  0  0  0  0
   -1.4197   -2.7791    0.1251 O   0  0  0  0  0  0  0  0  0  0  0  0
    1.6395   -4.0779   -0.0301 C   0  0  0  0  0  0  0  0  0  0  0  0
   -0.8741   -5.1235    0.8083 H   0  0  0  0  0  0  0  0  0  0  0  0
    1.1738   -3.3062    1.9318 H   0  0  0  0  0  0  0  0  0  0  0  0
    1.1270   -4.4358   -0.9305 H   0  0  0  0  0  0  0  0  0  0  0  0
    2.2797   -3.2400   -0.3251 H   0  0  0  0  0  0  0  0  0  0  0  0
    2.2827   -4.8880    0.3303 H   0  0  0  0  0  0  0  0  0  0  0  0
    0.3351   -1.3153    0.5316 N   0  0  0  0  0  0  0  0  0  0  0  0
   -0.3268   -0.1184    0.0807 C   0  0  2  0  0  0  0  0  0  0  0  0
   -0.0660    0.0538   -1.4125 C   0  0  0  0  0  0  0  0  0  0  0  0
    0.8814    0.6997   -1.8560 O   0  0  0  0  0  0  0  0  0  0  0  0
    0.0807    1.1126    0.9019 C   0  0  0  0  0  0  0  0  0  0  0  0
   -0.3736    1.0546    2.3623 C   0  0  0  0  0  0  0  0  0  0  0  0
   -2.1862    0.9642    2.4627 S   0  0  0  0  0  0  0  0  0  0  0  0
   -2.5629    2.6321    1.8784 C   0  0  0  0  0  0  0  0  0  0  0  0
    1.2790   -1.2290    0.9021 H   0  0  0  0  0  0  0  0  0  0  0  0
   -1.3997   -0.3000    0.2185 H   0  0  0  0  0  0  0  0  0  0  0  0
   -0.3462    2.0042    0.4233 H   0  0  0  0  0  0  0  0  0  0  0  0
    1.1722    1.2222    0.8645 H   0  0  0  0  0  0  0  0  0  0  0  0
   -0.0516    1.9460    2.9089 H   0  0  0  0  0  0  0  0  0  0  0  0
    0.0380    0.1764    2.8684 H   0  0  0  0  0  0  0  0  0  0  0  0
   -3.6447    2.7855    1.8639 H   0  0  0  0  0  0  0  0  0  0  0  0
   -2.1700    2.7689    0.8678 H   0  0  0  0  0  0  0  0  0  0  0  0
   -2.1061    3.3700    2.5424 H   0  0  0  0  0  0  0  0  0  0  0  0
   -1.0317   -0.5698   -2.1895 N   0  0  0  0  0  0  0  0  0  0  0  0
   -1.0092   -0.5367   -3.6331 C   0  0  2  0  0  0  0  0  0  0  0  0
   -2.4427   -0.3778   -4.1222 C   0  0  0  0  0  0  0  0  0  0  0  0
   -3.4207   -0.6897   -3.4460 O   0  0  0  0  0  0  0  0  0  0  0  0
   -0.3758   -1.7952   -4.2056 C   0  0  0  0  0  0  0  0  0  0  0  0
   -1.7664   -1.1068   -1.7386 H   0  0  0  0  0  0  0  0  0  0  0  0
   -0.4249    0.3444   -3.9202 H   0  0  0  0  0  0  0  0  0  0  0  0
   -0.9474   -2.6885   -3.9284 H   0  0  0  0  0  0  0  0  0  0  0  0
   -0.3336   -1.7560   -5.2991 H   0  0  0  0  0  0  0  0  0  0  0  0
    0.6448   -1.9237   -3.8293 H   0  0  0  0  0  0  0  0  0  0  0  0
   -2.5002    0.1129   -5.4192 N   0  0  0  0  0  0  0  0  0  0  0  0
   -3.7468    0.3396   -6.1124 C   0  0  0  0  0  0  0  0  0  0  0  0
   -1.6396    0.3624   -5.8976 H   0  0  0  0  0  0  0  0  0  0  0  0
   -4.0122   -0.5561   -6.6931 H   0  0  0  0  0  0  0  0  0  0  0  0
   -4.5403    0.5502   -5.3803 H   0  0  0  0  0  0  0  0  0  0  0  0
   -3.6376    1.1979   -6.7917 H   0  0  0  0  0  0  0  0  0  0  0  0
  1  3  1  0  0  0  0
  1  7  1  0  0  0  0
  1  2  2  0  0  0  0
 35 36  1  0  0  0  0
 36 44  1  0  0  0  0
 36 37  2  0  0  0  0
  8  9  1  0  0  0  0
  9 17  1  0  0  0  0
  9 10  2  0  0  0  0
 18 19  1  0  0  0  0
 19 34  1  0  0  0  0
 19 20  2  0  0  0  0
 35 38  1  0  0  0  0
  8 11  1  0  0  0  0
 44 45  1  0  0  0  0
 23 24  1  0  0  0  0
 21 22  1  0  0  0  0
 18 21  1  0  0  0  0
 22 23  1  0  0  0  0
 34 35  1  0  0  0  0
  7  8  1  0  0  0  0
 17 18  1  0  0  0  0
  3  4  1  0  0  0  0
  3  5  1  0  0  0  0
  3  6  1  0  0  0  0
 38 41  1  0  0  0  0
 38 42  1  0  0  0  0
 38 43  1  0  0  0  0
 11 14  1  0  0  0  0
 11 15  1  0  0  0  0
 11 16  1  0  0  0  0
 45 47  1  0  0  0  0
 45 48  1  0  0  0  0
 45 49  1  0  0  0  0
 24 31  1  0  0  0  0
 24 32  1  0  0  0  0
 24 33  1  0  0  0  0
 21 27  1  0  0  0  0
 21 28  1  0  0  0  0
 22 29  1  0  0  0  0
 22 30  1  0  0  0  0
 35 40  1  0  0  0  0
  8 13  1  0  0  0  0
 18 26  1  0  0  0  0
 44 46  1  0  0  0  0
  7 12  1  0  0  0  0
 34 39  1  0  0  0  0
 17 25  1  0  0  0  0
M  END
$$$$

  -OEChem-05262214473D

 49 48  0     1  0  0  0  0  0999 V2000
   -0.0561   -5.3799    2.6949 C   0  0  0  0  0  0  0  0  0  0  0  0
    0.7325   -5.0736    3.5815 O   0  0  0  0  0  0  0  0  0  0  0  0
   -1.0067   -6.5099    2.9135 C   0  0  0  0  0  0  0  0  0  0  0  0
   -0.5910   -7.4777    2.5899 H   0  0  0  0  0  0  0  0  0  0  0  0
   -1.2629   -6.6440    3.9767 H   0  0  0  0  0  0  0  0  0  0  0  0
   -1.9729   -6.4206    2.3918 H   0  0  0  0  0  0  0  0  0  0  0  0
   -0.1735   -4.7694    1.4571 N   0  0  0  0  0  0  0  0  0  0  0  0
    0.6439   -3.6603    1.0409 C   0  0  2  0  0  0  0  0  0  0  0  0
   -0.2788   -2.5625    0.5280 C   0  0  0  0  0  0  0  0  0  0  0  0
   -1.4197   -2.7791    0.1251 O   0  0  0  0  0  0  0  0  0  0  0  0
    1.6395   -4.0779   -0.0301 C   0  0  0  0  0  0  0  0  0  0  0  0
   -0.8741   -5.1235    0.8083 H   0  0  0  0  0  0  0  0  0  0  0  0
    1.1738   -3.3062    1.9318 H   0  0  0  0  0  0  0  0  0  0  0  0
    1.1270   -4.4358   -0.9305 H   0  0  0  0  0  0  0  0  0  0  0  0
    2.2797   -3.2400   -0.3251 H   0  0  0  0  0  0  0  0  0  0  0  0
    2.2827   -4.8880    0.3303 H   0  0  0  0  0  0  0  0  0  0  0  0
    0.3351   -1.3153    0.5316 N   0  0  0  0  0  0  0  0  0  0  0  0
   -0.3268   -0.1184    0.0807 C   0  0  2  0  0  0  0  0  0  0  0  0
   -0.0660    0.0538   -1.4125 C   0  0  0  0  0  0  0  0  0  0  0  0
    1.0037    0.4599   -1.8623 O   0  0  0  0  0  0  0  0  0  0  0  0
    0.0807    1.1126    0.9019 C   0  0  0  0  0  0  0  0  0  0  0  0
   -0.3736    1.0546    2.3623 C   0  0  0  0  0  0  0  0  0  0  0  0
   -2.1862    0.9642    2.4627 S   0  0  0  0  0  0  0  0  0  0  0  0
   -2.5629    2.6321    1.8784 C   0  0  0  0  0  0  0  0  0  0  0  0
    1.2790   -1.2290    0.9021 H   0  0  0  0  0  0  0  0  0  0  0  0
   -1.3997   -0.3000    0.2185 H   0  0  0  0  0  0  0  0  0  0  0  0
   -0.3462    2.0042    0.4233 H   0  0  0  0  0  0  0  0  0  0  0  0
    1.1722    1.2222    0.8645 H   0  0  0  0  0  0  0  0  0  0  0  0
   -0.0516    1.9460    2.9089 H   0  0  0  0  0  0  0  0  0  0  0  0
    0.0380    0.1764    2.8684 H   0  0  0  0  0  0  0  0  0  0  0  0
   -3.6447    2.7855    1.8639 H   0  0  0  0  0  0  0  0  0  0  0  0
   -2.1700    2.7689    0.8678 H   0  0  0  0  0  0  0  0  0  0  0  0
   -2.1061    3.3700    2.5424 H   0  0  0  0  0  0  0  0  0  0  0  0
   -1.1764   -0.2675   -2.1799 N   0  0  0  0  0  0  0  0  0  0  0  0
   -1.1801   -0.1719   -3.6209 C   0  0  2  0  0  0  0  0  0  0  0  0
   -2.5374    0.3674   -4.0529 C   0  0  0  0  0  0  0  0  0  0  0  0
   -3.5463    0.2806   -3.3561 O   0  0  0  0  0  0  0  0  0  0  0  0
   -0.9008   -1.5206   -4.2656 C   0  0  0  0  0  0  0  0  0  0  0  0
   -2.0126   -0.6225   -1.7258 H   0  0  0  0  0  0  0  0  0  0  0  0
   -0.3982    0.5457   -3.8923 H   0  0  0  0  0  0  0  0  0  0  0  0
   -1.6739   -2.2527   -4.0051 H   0  0  0  0  0  0  0  0  0  0  0  0
   -0.8758   -1.4408   -5.3574 H   0  0  0  0  0  0  0  0  0  0  0  0
    0.0622   -1.9207   -3.9307 H   0  0  0  0  0  0  0  0  0  0  0  0
   -2.4988    0.9184   -5.3261 N   0  0  0  0  0  0  0  0  0  0  0  0
   -3.6629    1.4858   -5.9656 C   0  0  0  0  0  0  0  0  0  0  0  0
   -1.6146    0.9650   -5.8238 H   0  0  0  0  0  0  0  0  0  0  0  0
   -4.1607    0.7151   -6.5725 H   0  0  0  0  0  0  0  0  0  0  0  0
   -4.3595    1.8546   -5.1983 H   0  0  0  0  0  0  0  0  0  0  0  0
   -3.3553    2.3202   -6.6130 H   0  0  0  0  0  0  0  0  0  0  0  0
  1  3  1  0  0  0  0
  1  7  1  0  0  0  0
  1  2  2  0  0  0  0
 35 36  1  0  0  0  0
 36 44  1  0  0  0  0
 36 37  2  0  0  0  0
  8  9  1  0  0  0  0
  9 17  1  0  0  0  0
  9 10  2  0  0  0  0
 18 19  1  0  0  0  0
 19 34  1  0  0  0  0
 19 20  2  0  0  0  0
 35 38  1  0  0  0  0
  8 11  1  0  0  0  0
 44 45  1  0  0  0  0
 23 24  1  0  0  0  0
 21 22  1  0  0  0  0
 18 21  1  0  0  0  0
 22 23  1  0  0  0  0
 34 35  1  0  0  0  0
  7  8  1  0  0  0  0
 17 18  1  0  0  0  0
  3  4  1  0  0  0  0
  3  5  1  0  0  0  0
  3  6  1  0  0  0  0
 38 41  1  0  0  0  0
 38 42  1  0  0  0  0
 38 43  1  0  0  0  0
 11 14  1  0  0  0  0
 11 15  1  0  0  0  0
 11 16  1  0  0  0  0
 45 47  1  0  0  0  0
 45 48  1  0  0  0  0
 45 49  1  0  0  0  0
 24 31  1  0  0  0  0
 24 32  1  0  0  0  0
 24 33  1  0  0  0  0
 21 27  1  0  0  0  0
 21 28  1  0  0  0  0
 22 29  1  0  0  0  0
 22 30  1  0  0  0  0
 35 40  1  0  0  0  0
  8 13  1  0  0  0  0
 18 26  1  0  0  0  0
 44 46  1  0  0  0  0
  7 12  1  0  0  0  0
 34 39  1  0  0  0  0
 17 25  1  0  0  0  0
M  END
$$$$

  -OEChem-05262214473D

 49 48  0     1  0  0  0  0  0999 V2000
   -0.0561   -5.3799    2.6949 C   0  0  0  0  0  0  0  0  0  0  0  0
    0.7325   -5.0736    3.5815 O   0  0  0  0  0  0  0  0  0  0  0  0
   -1.0067   -6.5099    2.9135 C   0  0  0  0  0  0  0  0  0  0  0  0
   -0.5910   -7.4777    2.5899 H   0  0  0  0  0  0  0  0  0  0  0  0
   -1.2629   -6.6440    3.9767 H   0  0  0  0  0  0  0  0  0  0  0  0
   -1.9729   -6.4206    2.3918 H   0  0  0  0  0  0  0  0  0  0  0  0
   -0.1735   -4.7694    1.4571 N   0  0  0  0  0  0  0  0  0  0  0  0
    0.6439   -3.6603    1.0409 C   0  0  2  0  0  0  0  0  0  0  0  0
   -0.2788   -2.5625    0.5280 C   0  0  0  0  0  0  0  0  0  0  0  0
   -1.4197   -2.7791    0.1251 O   0  0  0  0  0  0  0  0  0  0  0  0
    1.6395   -4.0779   -0.0301 C   0  0  0  0  0  0  0  0  0  0  0  0
   -0.8741   -5.1235    0.8083 H   0  0  0  0  0  0  0  0  0  0  0  0
    1.1738   -3.3062    1.9318 H   0  0  0  0  0  0  0  0  0  0  0  0
    1.1270   -4.4358   -0.9305 H   0  0  0  0  0  0  0  0  0  0  0  0
    2.2797   -3.2400   -0.3251 H   0  0  0  0  0  0  0  0  0  0  0  0
    2.2827   -4.8880    0.3303 H   0  0  0  0  0  0  0  0  0  0  0  0
    0.3351   -1.3153    0.5316 N   0  0  0  0  0  0  0  0  0  0  0  0
   -0.3268   -0.1184    0.0807 C   0  0  2  0  0  0  0  0  0  0  0  0
   -0.0660    0.0538   -1.4125 C   0  0  0  0  0  0  0  0  0  0  0  0
    1.0608    0.1975   -1.8825 O   0  0  0  0  0  0  0  0  0  0  0  0
    0.0807    1.1126    0.9019 C   0  0  0  0  0  0  0  0  0  0  0  0
   -0.3736    1.0546    2.3623 C   0  0  0  0  0  0  0  0  0  0  0  0
   -2.1862    0.9642    2.4627 S   0  0  0  0  0  0  0  0  0  0  0  0
   -2.5629    2.6321    1.8784 C   0  0  0  0  0  0  0  0  0  0  0  0
    1.2790   -1.2290    0.9021 H   0  0  0  0  0  0  0  0  0  0  0  0
   -1.3997   -0.3000    0.2185 H   0  0  0  0  0  0  0  0  0  0  0  0
   -0.3462    2.0042    0.4233 H   0  0  0  0  0  0  0  0  0  0  0  0
    1.1722    1.2222    0.8645 H   0  0  0  0  0  0  0  0  0  0  0  0
   -0.0516    1.9460    2.9089 H   0  0  0  0  0  0  0  0  0  0  0  0
    0.0380    0.1764    2.8684 H   0  0  0  0  0  0  0  0  0  0  0  0
   -3.6447    2.7855    1.8639 H   0  0  0  0  0  0  0  0  0  0  0  0
   -2.1700    2.7689    0.8678 H   0  0  0  0  0  0  0  0  0  0  0  0
   -2.1061    3.3700    2.5424 H   0  0  0  0  0  0  0  0  0  0  0  0
   -1.2393    0.0608   -2.1531 N   0  0  0  0  0  0  0  0  0  0  0  0
   -1.2525    0.2233   -3.5880 C   0  0  2  0  0  0  0  0  0  0  0  0
   -2.4381    1.1081   -3.9501 C   0  0  0  0  0  0  0  0  0  0  0  0
   -3.4193    1.2457   -3.2226 O   0  0  0  0  0  0  0  0  0  0  0  0
   -1.3402   -1.1196   -4.2961 C   0  0  0  0  0  0  0  0  0  0  0  0
   -2.1274   -0.0928   -1.6847 H   0  0  0  0  0  0  0  0  0  0  0  0
   -0.3206    0.7322   -3.8572 H   0  0  0  0  0  0  0  0  0  0  0  0
   -2.2674   -1.6443   -4.0386 H   0  0  0  0  0  0  0  0  0  0  0  0
   -1.3213   -0.9965   -5.3840 H   0  0  0  0  0  0  0  0  0  0  0  0
   -0.5027   -1.7657   -4.0115 H   0  0  0  0  0  0  0  0  0  0  0  0
   -2.2908    1.6919   -5.2005 N   0  0  0  0  0  0  0  0  0  0  0  0
   -3.2873    2.5651   -5.7755 C   0  0  0  0  0  0  0  0  0  0  0  0
   -1.4356    1.5375   -5.7265 H   0  0  0  0  0  0  0  0  0  0  0  0
   -3.9786    1.9753   -6.3954 H   0  0  0  0  0  0  0  0  0  0  0  0
   -3.8491    3.0606   -4.9700 H   0  0  0  0  0  0  0  0  0  0  0  0
   -2.7931    3.3248   -6.3990 H   0  0  0  0  0  0  0  0  0  0  0  0
  1  3  1  0  0  0  0
  1  7  1  0  0  0  0
  1  2  2  0  0  0  0
 35 36  1  0  0  0  0
 36 44  1  0  0  0  0
 36 37  2  0  0  0  0
  8  9  1  0  0  0  0
  9 17  1  0  0  0  0
  9 10  2  0  0  0  0
 18 19  1  0  0  0  0
 19 34  1  0  0  0  0
 19 20  2  0  0  0  0
 35 38  1  0  0  0  0
  8 11  1  0  0  0  0
 44 45  1  0  0  0  0
 23 24  1  0  0  0  0
 21 22  1  0  0  0  0
 18 21  1  0  0  0  0
 22 23  1  0  0  0  0
 34 35  1  0  0  0  0
  7  8  1  0  0  0  0
 17 18  1  0  0  0  0
  3  4  1  0  0  0  0
  3  5  1  0  0  0  0
  3  6  1  0  0  0  0
 38 41  1  0  0  0  0
 38 42  1  0  0  0  0
 38 43  1  0  0  0  0
 11 14  1  0  0  0  0
 11 15  1  0  0  0  0
 11 16  1  0  0  0  0
 45 47  1  0  0  0  0
 45 48  1  0  0  0  0
 45 49  1  0  0  0  0
 24 31  1  0  0  0  0
 24 32  1  0  0  0  0
 24 33  1  0  0  0  0
 21 27  1  0  0  0  0
 21 28  1  0  0  0  0
 22 29  1  0  0  0  0
 22 30  1  0  0  0  0
 35 40  1  0  0  0  0
  8 13  1  0  0  0  0
 18 26  1  0  0  0  0
 44 46  1  0  0  0  0
  7 12  1  0  0  0  0
 34 39  1  0  0  0  0
 17 25  1  0  0  0  0
M  END
$$$$

  -OEChem-05262214473D

 49 48  0     1  0  0  0  0  0999 V2000
   -0.0561   -5.3799    2.6949 C   0  0  0  0  0  0  0  0  0  0  0  0
    0.7325   -5.0736    3.5815 O   0  0  0  0  0  0  0  0  0  0  0  0
   -1.0067   -6.5099    2.9135 C   0  0  0  0  0  0  0  0  0  0  0  0
   -0.5910   -7.4777    2.5899 H   0  0  0  0  0  0  0  0  0  0  0  0
   -1.2629   -6.6440    3.9767 H   0  0  0  0  0  0  0  0  0  0  0  0
   -1.9729   -6.4206    2.3918 H   0  0  0  0  0  0  0  0  0  0  0  0
   -0.1735   -4.7694    1.4571 N   0  0  0  0  0  0  0  0  0  0  0  0
    0.6439   -3.6603    1.0409 C   0  0  2  0  0  0  0  0  0  0  0  0
   -0.2788   -2.5625    0.5280 C   0  0  0  0  0  0  0  0  0  0  0  0
   -1.4197   -2.7791    0.1251 O   0  0  0  0  0  0  0  0  0  0  0  0
    1.6395   -4.0779   -0.0301 C   0  0  0  0  0  0  0  0  0  0  0  0
   -0.8741   -5.1235    0.8083 H   0  0  0  0  0  0  0  0  0  0  0  0
    1.1738   -3.3062    1.9318 H   0  0  0  0  0  0  0  0  0  0  0  0
    1.1270   -4.4358   -0.9305 H   0  0  0  0  0  0  0  0  0  0  0  0
    2.2797   -3.2400   -0.3251 H   0  0  0  0  0  0  0  0  0  0  0  0
    2.2827   -4.8880    0.3303 H   0  0  0  0  0  0  0  0  0  0  0  0
    0.3351   -1.3153    0.5316 N   0  0  0  0  0  0  0  0  0  0  0  0
   -0.3268   -0.1184    0.0807 C   0  0  2  0  0  0  0  0  0  0  0  0
   -0.0660    0.0538   -1.4125 C   0  0  0  0  0  0  0  0  0  0  0  0
    1.0490   -0.0694   -1.9154 O   0  0  0  0  0  0  0  0  0  0  0  0
    0.0807    1.1126    0.9019 C   0  0  0  0  0  0  0  0  0  0  0  0
   -0.3736    1.0546    2.3623 C   0  0  0  0  0  0  0  0  0  0  0  0
   -2.1862    0.9642    2.4627 S   0  0  0  0  0  0  0  0  0  0  0  0
   -2.5629    2.6321    1.8784 C   0  0  0  0  0  0  0  0  0  0  0  0
    1.2790   -1.2290    0.9021 H   0  0  0  0  0  0  0  0  0  0  0  0
   -1.3997   -0.3000    0.2185 H   0  0  0  0  0  0  0  0  0  0  0  0
   -0.3462    2.0042    0.4233 H   0  0  0  0  0  0  0  0  0  0  0  0
    1.1722    1.2222    0.8645 H   0  0  0  0  0  0  0  0  0  0  0  0
   -0.0516    1.9460    2.9089 H   0  0  0  0  0  0  0  0  0  0  0  0
    0.0380    0.1764    2.8684 H   0  0  0  0  0  0  0  0  0  0  0  0
   -3.6447    2.7855    1.8639 H   0  0  0  0  0  0  0  0  0  0  0  0
   -2.1700    2.7689    0.8678 H   0  0  0  0  0  0  0  0  0  0  0  0
   -2.1061    3.3700    2.5424 H   0  0  0  0  0  0  0  0  0  0  0  0
   -1.2161    0.3925   -2.1108 N   0  0  0  0  0  0  0  0  0  0  0  0
   -1.2214    0.6219   -3.5366 C   0  0  2  0  0  0  0  0  0  0  0  0
   -2.1515    1.7938   -3.8210 C   0  0  0  0  0  0  0  0  0  0  0  0
   -3.0482    2.1398   -3.0547 O   0  0  0  0  0  0  0  0  0  0  0  0
   -1.6638   -0.6197   -4.2951 C   0  0  0  0  0  0  0  0  0  0  0  0
   -2.1028    0.4460   -1.6183 H   0  0  0  0  0  0  0  0  0  0  0  0
   -0.1973    0.8911   -3.8174 H   0  0  0  0  0  0  0  0  0  0  0  0
   -2.6877   -0.9049   -4.0268 H   0  0  0  0  0  0  0  0  0  0  0  0
   -1.6399   -0.4532   -5.3771 H   0  0  0  0  0  0  0  0  0  0  0  0
   -1.0115   -1.4694   -4.0662 H   0  0  0  0  0  0  0  0  0  0  0  0
   -1.8902    2.3809   -5.0511 N   0  0  0  0  0  0  0  0  0  0  0  0
   -2.6454    3.5040   -5.5551 C   0  0  0  0  0  0  0  0  0  0  0  0
   -1.1149    2.0409   -5.6124 H   0  0  0  0  0  0  0  0  0  0  0  0
   -3.4782    3.1385   -6.1739 H   0  0  0  0  0  0  0  0  0  0  0  0
   -3.0439    4.0862   -4.7111 H   0  0  0  0  0  0  0  0  0  0  0  0
   -1.9893    4.1433   -6.1642 H   0  0  0  0  0  0  0  0  0  0  0  0
  1  3  1  0  0  0  0
  1  7  1  0  0  0  0
  1  2  2  0  0  0  0
 35 36  1  0  0  0  0
 36 44  1  0  0  0  0
 36 37  2  0  0  0  0
  8  9  1  0  0  0  0
  9 17  1  0  0  0  0
  9 10  2  0  0  0  0
 18 19  1  0  0  0  0
 19 34  1  0  0  0  0
 19 20  2  0  0  0  0
 35 38  1  0  0  0  0
  8 11  1  0  0  0  0
 44 45  1  0  0  0  0
 23 24  1  0  0  0  0
 21 22  1  0  0  0  0
 18 21  1  0  0  0  0
 22 23  1  0  0  0  0
 34 35  1  0  0  0  0
  7  8  1  0  0  0  0
 17 18  1  0  0  0  0
  3  4  1  0  0  0  0
  3  5  1  0  0  0  0
  3  6  1  0  0  0  0
 38 41  1  0  0  0  0
 38 42  1  0  0  0  0
 38 43  1  0  0  0  0
 11 14  1  0  0  0  0
 11 15  1  0  0  0  0
 11 16  1  0  0  0  0
 45 47  1  0  0  0  0
 45 48  1  0  0  0  0
 45 49  1  0  0  0  0
 24 31  1  0  0  0  0
 24 32  1  0  0  0  0
 24 33  1  0  0  0  0
 21 27  1  0  0  0  0
 21 28  1  0  0  0  0
 22 29  1  0  0  0  0
 22 30  1  0  0  0  0
 35 40  1  0  0  0  0
  8 13  1  0  0  0  0
 18 26  1  0  0  0  0
 44 46  1  0  0  0  0
  7 12  1  0  0  0  0
 34 39  1  0  0  0  0
 17 25  1  0  0  0  0
M  END
$$$$

  -OEChem-05262214473D

 49 48  0     1  0  0  0  0  0999 V2000
   -0.0561   -5.3799    2.6949 C   0  0  0  0  0  0  0  0  0  0  0  0
    0.7325   -5.0736    3.5815 O   0  0  0  0  0  0  0  0  0  0  0  0
   -1.0067   -6.5099    2.9135 C   0  0  0  0  0  0  0  0  0  0  0  0
   -0.5910   -7.4777    2.5899 H   0  0  0  0  0  0  0  0  0  0  0  0
   -1.2629   -6.6440    3.9767 H   0  0  0  0  0  0  0  0  0  0  0  0
   -1.9729   -6.4206    2.3918 H   0  0  0  0  0  0  0  0  0  0  0  0
   -0.1735   -4.7694    1.4571 N   0  0  0  0  0  0  0  0  0  0  0  0
    0.6439   -3.6603    1.0409 C   0  0  2  0  0  0  0  0  0  0  0  0
   -0.2788   -2.5625    0.5280 C   0  0  0  0  0  0  0  0  0  0  0  0
   -1.4197   -2.7791    0.1251 O   0  0  0  0  0  0  0  0  0  0  0  0
    1.6395   -4.0779   -0.0301 C   0  0  0  0  0  0  0  0  0  0  0  0
   -0.8741   -5.1235    0.8083 H   0  0  0  0  0  0  0  0  0  0  0  0
    1.1738   -3.3062    1.9318 H   0  0  0  0  0  0  0  0  0  0  0  0
    1.1270   -4.4358   -0.9305 H   0  0  0  0  0  0  0  0  0  0  0  0
    2.2797   -3.2400   -0.3251 H   0  0  0  0  0  0  0  0  0  0  0  0
    2.2827   -4.8880    0.3303 H   0  0  0  0  0  0  0  0  0  0  0  0
    0.3351   -1.3153    0.5316 N   0  0  0  0  0  0  0  0  0  0  0  0
   -0.3268   -0.1184    0.0807 C   0  0  2  0  0  0  0  0  0  0  0  0
   -0.0660    0.0538   -1.4125 C   0  0  0  0  0  0  0  0  0  0  0  0
    0.9690   -0.3229   -1.9586 O   0  0  0  0  0  0  0  0  0  0  0  0
    0.0807    1.1126    0.9019 C   0  0  0  0  0  0  0  0  0  0  0  0
   -0.3736    1.0546    2.3623 C   0  0  0  0  0  0  0  0  0  0  0  0
   -2.1862    0.9642    2.4627 S   0  0  0  0  0  0  0  0  0  0  0  0
   -2.5629    2.6321    1.8784 C   0  0  0  0  0  0  0  0  0  0  0  0
    1.2790   -1.2290    0.9021 H   0  0  0  0  0  0  0  0  0  0  0  0
   -1.3997   -0.3000    0.2185 H   0  0  0  0  0  0  0  0  0  0  0  0
   -0.3462    2.0042    0.4233 H   0  0  0  0  0  0  0  0  0  0  0  0
    1.1722    1.2222    0.8645 H   0  0  0  0  0  0  0  0  0  0  0  0
   -0.0516    1.9460    2.9089 H   0  0  0  0  0  0  0  0  0  0  0  0
    0.0380    0.1764    2.8684 H   0  0  0  0  0  0  0  0  0  0  0  0
   -3.6447    2.7855    1.8639 H   0  0  0  0  0  0  0  0  0  0  0  0
   -2.1700    2.7689    0.8678 H   0  0  0  0  0  0  0  0  0  0  0  0
   -2.1061    3.3700    2.5424 H   0  0  0  0  0  0  0  0  0  0  0  0
   -1.1084    0.7053   -2.0559 N   0  0  0  0  0  0  0  0  0  0  0  0
   -1.0888    0.9967   -3.4702 C   0  0  2  0  0  0  0  0  0  0  0  0
   -1.6972    2.3779   -3.6742 C   0  0  0  0  0  0  0  0  0  0  0  0
   -2.4584    2.9020   -2.8637 O   0  0  0  0  0  0  0  0  0  0  0  0
   -1.8498   -0.0549   -4.2624 C   0  0  0  0  0  0  0  0  0  0  0  0
   -1.9407    0.9574   -1.5310 H   0  0  0  0  0  0  0  0  0  0  0  0
   -0.0368    1.0116   -3.7754 H   0  0  0  0  0  0  0  0  0  0  0  0
   -2.9059   -0.0846   -3.9703 H   0  0  0  0  0  0  0  0  0  0  0  0
   -1.8098    0.1519   -5.3370 H   0  0  0  0  0  0  0  0  0  0  0  0
   -1.4294   -1.0518   -4.0911 H   0  0  0  0  0  0  0  0  0  0  0  0
   -1.3243    2.9383   -4.8880 N   0  0  0  0  0  0  0  0  0  0  0  0
   -1.7812    4.2387   -5.3194 C   0  0  0  0  0  0  0  0  0  0  0  0
   -0.6742    2.4407   -5.4893 H   0  0  0  0  0  0  0  0  0  0  0  0
   -2.6938    4.1256   -5.9230 H   0  0  0  0  0  0  0  0  0  0  0  0
   -1.9987    4.8614   -4.4391 H   0  0  0  0  0  0  0  0  0  0  0  0
   -0.9988    4.7199   -5.9246 H   0  0  0  0  0  0  0  0  0  0  0  0
  1  3  1  0  0  0  0
  1  7  1  0  0  0  0
  1  2  2  0  0  0  0
 35 36  1  0  0  0  0
 36 44  1  0  0  0  0
 36 37  2  0  0  0  0
  8  9  1  0  0  0  0
  9 17  1  0  0  0  0
  9 10  2  0  0  0  0
 18 19  1  0  0  0  0
 19 34  1  0  0  0  0
 19 20  2  0  0  0  0
 35 38  1  0  0  0  0
  8 11  1  0  0  0  0
 44 45  1  0  0  0  0
 23 24  1  0  0  0  0
 21 22  1  0  0  0  0
 18 21  1  0  0  0  0
 22 23  1  0  0  0  0
 34 35  1  0  0  0  0
  7  8  1  0  0  0  0
 17 18  1  0  0  0  0
  3  4  1  0  0  0  0
  3  5  1  0  0  0  0
  3  6  1  0  0  0  0
 38 41  1  0  0  0  0
 38 42  1  0  0  0  0
 38 43  1  0  0  0  0
 11 14  1  0  0  0  0
 11 15  1  0  0  0  0
 11 16  1  0  0  0  0
 45 47  1  0  0  0  0
 45 48  1  0  0  0  0
 45 49  1  0  0  0  0
 24 31  1  0  0  0  0
 24 32  1  0  0  0  0
 24 33  1  0  0  0  0
 21 27  1  0  0  0  0
 21 28  1  0  0  0  0
 22 29  1  0  0  0  0
 22 30  1  0  0  0  0
 35 40  1  0  0  0  0
  8 13  1  0  0  0  0
 18 26  1  0  0  0  0
 44 46  1  0  0  0  0
  7 12  1  0  0  0  0
 34 39  1  0  0  0  0
 17 25  1  0  0  0  0
M  END
$$$$

  -OEChem-05262214473D

 49 48  0     1  0  0  0  0  0999 V2000
   -0.0561   -5.3799    2.6949 C   0  0  0  0  0  0  0  0  0  0  0  0
    0.7325   -5.0736    3.5815 O   0  0  0  0  0  0  0  0  0  0  0  0
   -1.0067   -6.5099    2.9135 C   0  0  0  0  0  0  0  0  0  0  0  0
   -0.5910   -7.4777    2.5899 H   0  0  0  0  0  0  0  0  0  0  0  0
   -1.2629   -6.6440    3.9767 H   0  0  0  0  0  0  0  0  0  0  0  0
   -1.9729   -6.4206    2.3918 H   0  0  0  0  0  0  0  0  0  0  0  0
   -0.1735   -4.7694    1.4571 N   0  0  0  0  0  0  0  0  0  0  0  0
    0.6439   -3.6603    1.0409 C   0  0  2  0  0  0  0  0  0  0  0  0
   -0.2788   -2.5625    0.5280 C   0  0  0  0  0  0  0  0  0  0  0  0
   -1.4197   -2.7791    0.1251 O   0  0  0  0  0  0  0  0  0  0  0  0
    1.6395   -4.0779   -0.0301 C   0  0  0  0  0  0  0  0  0  0  0  0
   -0.8741   -5.1235    0.8083 H   0  0  0  0  0  0  0  0  0  0  0  0
    1.1738   -3.3062    1.9318 H   0  0  0  0  0  0  0  0  0  0  0  0
    1.1270   -4.4358   -0.9305 H   0  0  0  0  0  0  0  0  0  0  0  0
    2.2797   -3.2400   -0.3251 H   0  0  0  0  0  0  0  0  0  0  0  0
    2.2827   -4.8880    0.3303 H   0  0  0  0  0  0  0  0  0  0  0  0
    0.3351   -1.3153    0.5316 N   0  0  0  0  0  0  0  0  0  0  0  0
   -0.3268   -0.1184    0.0807 C   0  0  2  0  0  0  0  0  0  0  0  0
   -0.0660    0.0538   -1.4125 C   0  0  0  0  0  0  0  0  0  0  0  0
    0.8263   -0.5455   -2.0092 O   0  0  0  0  0  0  0  0  0  0  0  0
    0.0807    1.1126    0.9019 C   0  0  0  0  0  0  0  0  0  0  0  0
   -0.3736    1.0546    2.3623 C   0  0  0  0  0  0  0  0  0  0  0  0
   -2.1862    0.9642    2.4627 S   0  0  0  0  0  0  0  0  0  0  0  0
   -2.5629    2.6321    1.8784 C   0  0  0  0  0  0  0  0  0  0  0  0
    1.2790   -1.2290    0.9021 H   0  0  0  0  0  0  0  0  0  0  0  0
   -1.3997   -0.3000    0.2185 H   0  0  0  0  0  0  0  0  0  0  0  0
   -0.3462    2.0042    0.4233 H   0  0  0  0  0  0  0  0  0  0  0  0
    1.1722    1.2222    0.8645 H   0  0  0  0  0  0  0  0  0  0  0  0
   -0.0516    1.9460    2.9089 H   0  0  0  0  0  0  0  0  0  0  0  0
    0.0380    0.1764    2.8684 H   0  0  0  0  0  0  0  0  0  0  0  0
   -3.6447    2.7855    1.8639 H   0  0  0  0  0  0  0  0  0  0  0  0
   -2.1700    2.7689    0.8678 H   0  0  0  0  0  0  0  0  0  0  0  0
   -2.1061    3.3700    2.5424 H   0  0  0  0  0  0  0  0  0  0  0  0
   -0.9236    0.9777   -1.9922 N   0  0  0  0  0  0  0  0  0  0  0  0
   -0.8638    1.3222   -3.3933 C   0  0  2  0  0  0  0  0  0  0  0  0
   -1.1061    2.8205   -3.5200 C   0  0  0  0  0  0  0  0  0  0  0  0
   -1.6899    3.4804   -2.6628 O   0  0  0  0  0  0  0  0  0  0  0  0
   -1.8854    0.5363   -4.2005 C   0  0  0  0  0  0  0  0  0  0  0  0
   -1.6519    1.4064   -1.4288 H   0  0  0  0  0  0  0  0  0  0  0  0
    0.1499    1.0855   -3.7343 H   0  0  0  0  0  0  0  0  0  0  0  0
   -2.9072    0.7604   -3.8731 H   0  0  0  0  0  0  0  0  0  0  0  0
   -1.8195    0.7777   -5.2665 H   0  0  0  0  0  0  0  0  0  0  0  0
   -1.7281   -0.5415   -4.0845 H   0  0  0  0  0  0  0  0  0  0  0  0
   -0.6318    3.3261   -4.7223 N   0  0  0  0  0  0  0  0  0  0  0  0
   -0.7534    4.7189   -5.0845 C   0  0  0  0  0  0  0  0  0  0  0  0
   -0.1437    2.7099   -5.3656 H   0  0  0  0  0  0  0  0  0  0  0  0
   -1.6787    4.8692   -5.6599 H   0  0  0  0  0  0  0  0  0  0  0  0
   -0.7849    5.3334   -4.1727 H   0  0  0  0  0  0  0  0  0  0  0  0
    0.1111    5.0153   -5.6967 H   0  0  0  0  0  0  0  0  0  0  0  0
  1  3  1  0  0  0  0
  1  7  1  0  0  0  0
  1  2  2  0  0  0  0
 35 36  1  0  0  0  0
 36 44  1  0  0  0  0
 36 37  2  0  0  0  0
  8  9  1  0  0  0  0
  9 17  1  0  0  0  0
  9 10  2  0  0  0  0
 18 19  1  0  0  0  0
 19 34  1  0  0  0  0
 19 20  2  0  0  0  0
 35 38  1  0  0  0  0
  8 11  1  0  0  0  0
 44 45  1  0  0  0  0
 23 24  1  0  0  0  0
 21 22  1  0  0  0  0
 18 21  1  0  0  0  0
 22 23  1  0  0  0  0
 34 35  1  0  0  0  0
  7  8  1  0  0  0  0
 17 18  1  0  0  0  0
  3  4  1  0  0  0  0
  3  5  1  0  0  0  0
  3  6  1  0  0  0  0
 38 41  1  0  0  0  0
 38 42  1  0  0  0  0
 38 43  1  0  0  0  0
 11 14  1  0  0  0  0
 11 15  1  0  0  0  0
 11 16  1  0  0  0  0
 45 47  1  0  0  0  0
 45 48  1  0  0  0  0
 45 49  1  0  0  0  0
 24 31  1  0  0  0  0
 24 32  1  0  0  0  0
 24 33  1  0  0  0  0
 21 27  1  0  0  0  0
 21 28  1  0  0  0  0
 22 29  1  0  0  0  0
 22 30  1  0  0  0  0
 35 40  1  0  0  0  0
  8 13  1  0  0  0  0
 18 26  1  0  0  0  0
 44 46  1  0  0  0  0
  7 12  1  0  0  0  0
 34 39  1  0  0  0  0
 17 25  1  0  0  0  0
M  END
$$$$

  -OEChem-05262214473D

 49 48  0     1  0  0  0  0  0999 V2000
   -0.0561   -5.3799    2.6949 C   0  0  0  0  0  0  0  0  0  0  0  0
    0.7325   -5.0736    3.5815 O   0  0  0  0  0  0  0  0  0  0  0  0
   -1.0067   -6.5099    2.9135 C   0  0  0  0  0  0  0  0  0  0  0  0
   -0.5910   -7.4777    2.5899 H   0  0  0  0  0  0  0  0  0  0  0  0
   -1.2629   -6.6440    3.9767 H   0  0  0  0  0  0  0  0  0  0  0  0
   -1.9729   -6.4206    2.3918 H   0  0  0  0  0  0  0  0  0  0  0  0
   -0.1735   -4.7694    1.4571 N   0  0  0  0  0  0  0  0  0  0  0  0
    0.6439   -3.6603    1.0409 C   0  0  2  0  0  0  0  0  0  0  0  0
   -0.2788   -2.5625    0.5280 C   0  0  0  0  0  0  0  0  0  0  0  0
   -1.4197   -2.7791    0.1251 O   0  0  0  0  0  0  0  0  0  0  0  0
    1.6395   -4.0779   -0.0301 C   0  0  0  0  0  0  0  0  0  0  0  0
   -0.8741   -5.1235    0.8083 H   0  0  0  0  0  0  0  0  0  0  0  0
    1.1738   -3.3062    1.9318 H   0  0  0  0  0  0  0  0  0  0  0  0
    1.1270   -4.4358   -0.9305 H   0  0  0  0  0  0  0  0  0  0  0  0
    2.2797   -3.2400   -0.3251 H   0  0  0  0  0  0  0  0  0  0  0  0
    2.2827   -4.8880    0.3303 H   0  0  0  0  0  0  0  0  0  0  0  0
    0.3351   -1.3153    0.5316 N   0  0  0  0  0  0  0  0  0  0  0  0
   -0.3268   -0.1184    0.0807 C   0  0  2  0  0  0  0  0  0  0  0  0
   -0.3898   -0.1369   -1.4435 C   0  0  0  0  0  0  0  0  0  0  0  0
    0.0920   -1.0419   -2.1219 O   0  0  0  0  0  0  0  0  0  0  0  0
    0.3342    1.1517    0.6336 C   0  0  0  0  0  0  0  0  0  0  0  0
    0.2094    1.2979    2.1520 C   0  0  0  0  0  0  0  0  0  0  0  0
   -1.5386    1.3898    2.6419 S   0  0  0  0  0  0  0  0  0  0  0  0
   -1.9203    3.0114    1.9416 C   0  0  0  0  0  0  0  0  0  0  0  0
    1.2790   -1.2290    0.9021 H   0  0  0  0  0  0  0  0  0  0  0  0
   -1.3529   -0.1821    0.4631 H   0  0  0  0  0  0  0  0  0  0  0  0
   -0.1260    2.0214    0.1455 H   0  0  0  0  0  0  0  0  0  0  0  0
    1.3955    1.1534    0.3539 H   0  0  0  0  0  0  0  0  0  0  0  0
    0.7036    2.2097    2.5002 H   0  0  0  0  0  0  0  0  0  0  0  0
    0.6616    0.4459    2.6683 H   0  0  0  0  0  0  0  0  0  0  0  0
   -2.9658    3.2632    2.1353 H   0  0  0  0  0  0  0  0  0  0  0  0
   -1.7510    2.9985    0.8620 H   0  0  0  0  0  0  0  0  0  0  0  0
   -1.2795    3.7716    2.3948 H   0  0  0  0  0  0  0  0  0  0  0  0
   -1.0169    0.9893   -1.9568 N   0  0  0  0  0  0  0  0  0  0  0  0
   -1.1866    1.2071   -3.3742 C   0  0  2  0  0  0  0  0  0  0  0  0
   -0.9567    2.6865   -3.6536 C   0  0  0  0  0  0  0  0  0  0  0  0
   -1.0740    3.5575   -2.7942 O   0  0  0  0  0  0  0  0  0  0  0  0
   -2.5684    0.7745   -3.8390 C   0  0  0  0  0  0  0  0  0  0  0  0
   -1.4113    1.6759   -1.3207 H   0  0  0  0  0  0  0  0  0  0  0  0
   -0.4156    0.6153   -3.8797 H   0  0  0  0  0  0  0  0  0  0  0  0
   -3.3540    1.3564   -3.3434 H   0  0  0  0  0  0  0  0  0  0  0  0
   -2.6855    0.9137   -4.9188 H   0  0  0  0  0  0  0  0  0  0  0  0
   -2.7434   -0.2824   -3.6104 H   0  0  0  0  0  0  0  0  0  0  0  0
   -0.6472    2.9241   -4.9855 N   0  0  0  0  0  0  0  0  0  0  0  0
   -0.3971    4.2490   -5.5033 C   0  0  0  0  0  0  0  0  0  0  0  0
   -0.5523    2.1399   -5.6241 H   0  0  0  0  0  0  0  0  0  0  0  0
   -1.3341    4.6742   -5.8922 H   0  0  0  0  0  0  0  0  0  0  0  0
   -0.0100    4.8904   -4.6978 H   0  0  0  0  0  0  0  0  0  0  0  0
    0.3438    4.1917   -6.3144 H   0  0  0  0  0  0  0  0  0  0  0  0
  1  3  1  0  0  0  0
  1  7  1  0  0  0  0
  1  2  2  0  0  0  0
 35 36  1  0  0  0  0
 36 44  1  0  0  0  0
 36 37  2  0  0  0  0
  8  9  1  0  0  0  0
  9 17  1  0  0  0  0
  9 10  2  0  0  0  0
 18 19  1  0  0  0  0
 19 34  1  0  0  0  0
 19 20  2  0  0  0  0
 35 38  1  0  0  0  0
  8 11  1  0  0  0  0
 44 45  1  0  0  0  0
 23 24  1  0  0  0  0
 21 22  1  0  0  0  0
 18 21  1  0  0  0  0
 22 23  1  0  0  0  0
 34 35  1  0  0  0  0
  7  8  1  0  0  0  0
 17 18  1  0  0  0  0
  3  4  1  0  0  0  0
  3  5  1  0  0  0  0
  3  6  1  0  0  0  0
 38 41  1  0  0  0  0
 38 42  1  0  0  0  0
 38 43  1  0  0  0  0
 11 14  1  0  0  0  0
 11 15  1  0  0  0  0
 11 16  1  0  0  0  0
 45 47  1  0  0  0  0
 45 48  1  0  0  0  0
 45 49  1  0  0  0  0
 24 31  1  0  0  0  0
 24 32  1  0  0  0  0
 24 33  1  0  0  0  0
 21 27  1  0  0  0  0
 21 28  1  0  0  0  0
 22 29  1  0  0  0  0
 22 30  1  0  0  0  0
 35 40  1  0  0  0  0
  8 13  1  0  0  0  0
 18 26  1  0  0  0  0
 44 46  1  0  0  0  0
  7 12  1  0  0  0  0
 34 39  1  0  0  0  0
 17 25  1  0  0  0  0
M  END
$$$$

  -OEChem-05262214473D

 49 48  0     1  0  0  0  0  0999 V2000
   -0.0561   -5.3799    2.6949 C   0  0  0  0  0  0  0  0  0  0  0  0
    0.7325   -5.0736    3.5815 O   0  0  0  0  0  0  0  0  0  0  0  0
   -1.0067   -6.5099    2.9135 C   0  0  0  0  0  0  0  0  0  0  0  0
   -0.5910   -7.4777    2.5899 H   0  0  0  0  0  0  0  0  0  0  0  0
   -1.2629   -6.6440    3.9767 H   0  0  0  0  0  0  0  0  0  0  0  0
   -1.9729   -6.4206    2.3918 H   0  0  0  0  0  0  0  0  0  0  0  0
   -0.1735   -4.7694    1.4571 N   0  0  0  0  0  0  0  0  0  0  0  0
    0.6439   -3.6603    1.0409 C   0  0  2  0  0  0  0  0  0  0  0  0
   -0.2788   -2.5625    0.5280 C   0  0  0  0  0  0  0  0  0  0  0  0
   -1.4197   -2.7791    0.1251 O   0  0  0  0  0  0  0  0  0  0  0  0
    1.6395   -4.0779   -0.0301 C   0  0  0  0  0  0  0  0  0  0  0  0
   -0.8741   -5.1235    0.8083 H   0  0  0  0  0  0  0  0  0  0  0  0
    1.1738   -3.3062    1.9318 H   0  0  0  0  0  0  0  0  0  0  0  0
    1.1270   -4.4358   -0.9305 H   0  0  0  0  0  0  0  0  0  0  0  0
    2.2797   -3.2400   -0.3251 H   0  0  0  0  0  0  0  0  0  0  0  0
    2.2827   -4.8880    0.3303 H   0  0  0  0  0  0  0  0  0  0  0  0
    0.3351   -1.3153    0.5316 N   0  0  0  0  0  0  0  0  0  0  0  0
   -0.3268   -0.1184    0.0807 C   0  0  2  0  0  0  0  0  0  0  0  0
   -0.3898   -0.1369   -1.4435 C   0  0  0  0  0  0  0  0  0  0  0  0
   -0.1573   -1.1431   -2.1104 O   0  0  0  0  0  0  0  0  0  0  0  0
    0.3342    1.1517    0.6336 C   0  0  0  0  0  0  0  0  0  0  0  0
    0.2094    1.2979    2.1520 C   0  0  0  0  0  0  0  0  0  0  0  0
   -1.5386    1.3898    2.6419 S   0  0  0  0  0  0  0  0  0  0  0  0
   -1.9203    3.0114    1.9416 C   0  0  0  0  0  0  0  0  0  0  0  0
    1.2790   -1.2290    0.9021 H   0  0  0  0  0  0  0  0  0  0  0  0
   -1.3529   -0.1821    0.4631 H   0  0  0  0  0  0  0  0  0  0  0  0
   -0.1260    2.0214    0.1455 H   0  0  0  0  0  0  0  0  0  0  0  0
    1.3955    1.1534    0.3539 H   0  0  0  0  0  0  0  0  0  0  0  0
    0.7036    2.2097    2.5002 H   0  0  0  0  0  0  0  0  0  0  0  0
    0.6616    0.4459    2.6683 H   0  0  0  0  0  0  0  0  0  0  0  0
   -2.9658    3.2632    2.1353 H   0  0  0  0  0  0  0  0  0  0  0  0
   -1.7510    2.9985    0.8620 H   0  0  0  0  0  0  0  0  0  0  0  0
   -1.2795    3.7716    2.3948 H   0  0  0  0  0  0  0  0  0  0  0  0
   -0.7034    1.1074   -1.9712 N   0  0  0  0  0  0  0  0  0  0  0  0
   -0.8085    1.3459   -3.3916 C   0  0  2  0  0  0  0  0  0  0  0  0
   -0.2034    2.7123   -3.6850 C   0  0  0  0  0  0  0  0  0  0  0  0
   -0.0930    3.5936   -2.8352 O   0  0  0  0  0  0  0  0  0  0  0  0
   -2.2545    1.2802   -3.8581 C   0  0  0  0  0  0  0  0  0  0  0  0
   -0.9080    1.8796   -1.3439 H   0  0  0  0  0  0  0  0  0  0  0  0
   -0.2160    0.5693   -3.8874 H   0  0  0  0  0  0  0  0  0  0  0  0
   -2.8637    2.0509   -3.3721 H   0  0  0  0  0  0  0  0  0  0  0  0
   -2.3296    1.4329   -4.9398 H   0  0  0  0  0  0  0  0  0  0  0  0
   -2.6971    0.3071   -3.6195 H   0  0  0  0  0  0  0  0  0  0  0  0
    0.1594    2.8471   -5.0178 N   0  0  0  0  0  0  0  0  0  0  0  0
    0.7444    4.0564   -5.5481 C   0  0  0  0  0  0  0  0  0  0  0  0
    0.0493    2.0580   -5.6479 H   0  0  0  0  0  0  0  0  0  0  0  0
   -0.0501    4.7051   -5.9456 H   0  0  0  0  0  0  0  0  0  0  0  0
    1.2828    4.5848   -4.7475 H   0  0  0  0  0  0  0  0  0  0  0  0
    1.4467    3.8005   -6.3552 H   0  0  0  0  0  0  0  0  0  0  0  0
  1  3  1  0  0  0  0
  1  7  1  0  0  0  0
  1  2  2  0  0  0  0
 35 36  1  0  0  0  0
 36 44  1  0  0  0  0
 36 37  2  0  0  0  0
  8  9  1  0  0  0  0
  9 17  1  0  0  0  0
  9 10  2  0  0  0  0
 18 19  1  0  0  0  0
 19 34  1  0  0  0  0
 19 20  2  0  0  0  0
 35 38  1  0  0  0  0
  8 11  1  0  0  0  0
 44 45  1  0  0  0  0
 23 24  1  0  0  0  0
 21 22  1  0  0  0  0
 18 21  1  0  0  0  0
 22 23  1  0  0  0  0
 34 35  1  0  0  0  0
  7  8  1  0  0  0  0
 17 18  1  0  0  0  0
  3  4  1  0  0  0  0
  3  5  1  0  0  0  0
  3  6  1  0  0  0  0
 38 41  1  0  0  0  0
 38 42  1  0  0  0  0
 38 43  1  0  0  0  0
 11 14  1  0  0  0  0
 11 15  1  0  0  0  0
 11 16  1  0  0  0  0
 45 47  1  0  0  0  0
 45 48  1  0  0  0  0
 45 49  1  0  0  0  0
 24 31  1  0  0  0  0
 24 32  1  0  0  0  0
 24 33  1  0  0  0  0
 21 27  1  0  0  0  0
 21 28  1  0  0  0  0
 22 29  1  0  0  0  0
 22 30  1  0  0  0  0
 35 40  1  0  0  0  0
  8 13  1  0  0  0  0
 18 26  1  0  0  0  0
 44 46  1  0  0  0  0
  7 12  1  0  0  0  0
 34 39  1  0  0  0  0
 17 25  1  0  0  0  0
M  END
$$$$

  -OEChem-05262214473D

 49 48  0     1  0  0  0  0  0999 V2000
   -0.0561   -5.3799    2.6949 C   0  0  0  0  0  0  0  0  0  0  0  0
    0.7325   -5.0736    3.5815 O   0  0  0  0  0  0  0  0  0  0  0  0
   -1.0067   -6.5099    2.9135 C   0  0  0  0  0  0  0  0  0  0  0  0
   -0.5910   -7.4777    2.5899 H   0  0  0  0  0  0  0  0  0  0  0  0
   -1.2629   -6.6440    3.9767 H   0  0  0  0  0  0  0  0  0  0  0  0
   -1.9729   -6.4206    2.3918 H   0  0  0  0  0  0  0  0  0  0  0  0
   -0.1735   -4.7694    1.4571 N   0  0  0  0  0  0  0  0  0  0  0  0
    0.6439   -3.6603    1.0409 C   0  0  2  0  0  0  0  0  0  0  0  0
   -0.2788   -2.5625    0.5280 C   0  0  0  0  0  0  0  0  0  0  0  0
   -1.4197   -2.7791    0.1251 O   0  0  0  0  0  0  0  0  0  0  0  0
    1.6395   -4.0779   -0.0301 C   0  0  0  0  0  0  0  0  0  0  0  0
   -0.8741   -5.1235    0.8083 H   0  0  0  0  0  0  0  0  0  0  0  0
    1.1738   -3.3062    1.9318 H   0  0  0  0  0  0  0  0  0  0  0  0
    1.1270   -4.4358   -0.9305 H   0  0  0  0  0  0  0  0  0  0  0  0
    2.2797   -3.2400   -0.3251 H   0  0  0  0  0  0  0  0  0  0  0  0
    2.2827   -4.8880    0.3303 H   0  0  0  0  0  0  0  0  0  0  0  0
    0.3351   -1.3153    0.5316 N   0  0  0  0  0  0  0  0  0  0  0  0
   -0.3268   -0.1184    0.0807 C   0  0  2  0  0  0  0  0  0  0  0  0
   -0.3898   -0.1369   -1.4435 C   0  0  0  0  0  0  0  0  0  0  0  0
   -0.4242   -1.1764   -2.0989 O   0  0  0  0  0  0  0  0  0  0  0  0
    0.3342    1.1517    0.6336 C   0  0  0  0  0  0  0  0  0  0  0  0
    0.2094    1.2979    2.1520 C   0  0  0  0  0  0  0  0  0  0  0  0
   -1.5386    1.3898    2.6419 S   0  0  0  0  0  0  0  0  0  0  0  0
   -1.9203    3.0114    1.9416 C   0  0  0  0  0  0  0  0  0  0  0  0
    1.2790   -1.2290    0.9021 H   0  0  0  0  0  0  0  0  0  0  0  0
   -1.3529   -0.1821    0.4631 H   0  0  0  0  0  0  0  0  0  0  0  0
   -0.1260    2.0214    0.1455 H   0  0  0  0  0  0  0  0  0  0  0  0
    1.3955    1.1534    0.3539 H   0  0  0  0  0  0  0  0  0  0  0  0
    0.7036    2.2097    2.5002 H   0  0  0  0  0  0  0  0  0  0  0  0
    0.6616    0.4459    2.6683 H   0  0  0  0  0  0  0  0  0  0  0  0
   -2.9658    3.2632    2.1353 H   0  0  0  0  0  0  0  0  0  0  0  0
   -1.7510    2.9985    0.8620 H   0  0  0  0  0  0  0  0  0  0  0  0
   -1.2795    3.7716    2.3948 H   0  0  0  0  0  0  0  0  0  0  0  0
   -0.3700    1.1402   -1.9853 N   0  0  0  0  0  0  0  0  0  0  0  0
   -0.4074    1.3820   -3.4086 C   0  0  2  0  0  0  0  0  0  0  0  0
    0.5310    2.5422   -3.7133 C   0  0  0  0  0  0  0  0  0  0  0  0
    0.8640    3.3743   -2.8720 O   0  0  0  0  0  0  0  0  0  0  0  0
   -1.8203    1.6872   -3.8810 C   0  0  0  0  0  0  0  0  0  0  0  0
   -0.3691    1.9460   -1.3670 H   0  0  0  0  0  0  0  0  0  0  0  0
   -0.0350    0.4732   -3.8937 H   0  0  0  0  0  0  0  0  0  0  0  0
   -2.2104    2.5946   -3.4057 H   0  0  0  0  0  0  0  0  0  0  0  0
   -1.8516    1.8422   -4.9646 H   0  0  0  0  0  0  0  0  0  0  0  0
   -2.5000    0.8644   -3.6345 H   0  0  0  0  0  0  0  0  0  0  0  0
    0.9186    2.5638   -5.0458 N   0  0  0  0  0  0  0  0  0  0  0  0
    1.7974    3.5747   -5.5858 C   0  0  0  0  0  0  0  0  0  0  0  0
    0.6093    1.8231   -5.6682 H   0  0  0  0  0  0  0  0  0  0  0  0
    1.1984    4.4023   -5.9935 H   0  0  0  0  0  0  0  0  0  0  0  0
    2.4527    3.9548   -4.7882 H   0  0  0  0  0  0  0  0  0  0  0  0
    2.4110    3.1370   -6.3870 H   0  0  0  0  0  0  0  0  0  0  0  0
  1  3  1  0  0  0  0
  1  7  1  0  0  0  0
  1  2  2  0  0  0  0
 35 36  1  0  0  0  0
 36 44  1  0  0  0  0
 36 37  2  0  0  0  0
  8  9  1  0  0  0  0
  9 17  1  0  0  0  0
  9 10  2  0  0  0  0
 18 19  1  0  0  0  0
 19 34  1  0  0  0  0
 19 20  2  0  0  0  0
 35 38  1  0  0  0  0
  8 11  1  0  0  0  0
 44 45  1  0  0  0  0
 23 24  1  0  0  0  0
 21 22  1  0  0  0  0
 18 21  1  0  0  0  0
 22 23  1  0  0  0  0
 34 35  1  0  0  0  0
  7  8  1  0  0  0  0
 17 18  1  0  0  0  0
  3  4  1  0  0  0  0
  3  5  1  0  0  0  0
  3  6  1  0  0  0  0
 38 41  1  0  0  0  0
 38 42  1  0  0  0  0
 38 43  1  0  0  0  0
 11 14  1  0  0  0  0
 11 15  1  0  0  0  0
 11 16  1  0  0  0  0
 45 47  1  0  0  0  0
 45 48  1  0  0  0  0
 45 49  1  0  0  0  0
 24 31  1  0  0  0  0
 24 32  1  0  0  0  0
 24 33  1  0  0  0  0
 21 27  1  0  0  0  0
 21 28  1  0  0  0  0
 22 29  1  0  0  0  0
 22 30  1  0  0  0  0
 35 40  1  0  0  0  0
  8 13  1  0  0  0  0
 18 26  1  0  0  0  0
 44 46  1  0  0  0  0
  7 12  1  0  0  0  0
 34 39  1  0  0  0  0
 17 25  1  0  0  0  0
M  END
$$$$

  -OEChem-05262214473D

 49 48  0     1  0  0  0  0  0999 V2000
   -0.0561   -5.3799    2.6949 C   0  0  0  0  0  0  0  0  0  0  0  0
    0.7325   -5.0736    3.5815 O   0  0  0  0  0  0  0  0  0  0  0  0
   -1.0067   -6.5099    2.9135 C   0  0  0  0  0  0  0  0  0  0  0  0
   -0.5910   -7.4777    2.5899 H   0  0  0  0  0  0  0  0  0  0  0  0
   -1.2629   -6.6440    3.9767 H   0  0  0  0  0  0  0  0  0  0  0  0
   -1.9729   -6.4206    2.3918 H   0  0  0  0  0  0  0  0  0  0  0  0
   -0.1735   -4.7694    1.4571 N   0  0  0  0  0  0  0  0  0  0  0  0
    0.6439   -3.6603    1.0409 C   0  0  2  0  0  0  0  0  0  0  0  0
   -0.2788   -2.5625    0.5280 C   0  0  0  0  0  0  0  0  0  0  0  0
   -1.4197   -2.7791    0.1251 O   0  0  0  0  0  0  0  0  0  0  0  0
    1.6395   -4.0779   -0.0301 C   0  0  0  0  0  0  0  0  0  0  0  0
   -0.8741   -5.1235    0.8083 H   0  0  0  0  0  0  0  0  0  0  0  0
    1.1738   -3.3062    1.9318 H   0  0  0  0  0  0  0  0  0  0  0  0
    1.1270   -4.4358   -0.9305 H   0  0  0  0  0  0  0  0  0  0  0  0
    2.2797   -3.2400   -0.3251 H   0  0  0  0  0  0  0  0  0  0  0  0
    2.2827   -4.8880    0.3303 H   0  0  0  0  0  0  0  0  0  0  0  0
    0.3351   -1.3153    0.5316 N   0  0  0  0  0  0  0  0  0  0  0  0
   -0.3268   -0.1184    0.0807 C   0  0  2  0  0  0  0  0  0  0  0  0
   -0.3898   -0.1369   -1.4435 C   0  0  0  0  0  0  0  0  0  0  0  0
   -0.6907   -1.1393   -2.0884 O   0  0  0  0  0  0  0  0  0  0  0  0
    0.3342    1.1517    0.6336 C   0  0  0  0  0  0  0  0  0  0  0  0
    0.2094    1.2979    2.1520 C   0  0  0  0  0  0  0  0  0  0  0  0
   -1.5386    1.3898    2.6419 S   0  0  0  0  0  0  0  0  0  0  0  0
   -1.9203    3.0114    1.9416 C   0  0  0  0  0  0  0  0  0  0  0  0
    1.2790   -1.2290    0.9021 H   0  0  0  0  0  0  0  0  0  0  0  0
   -1.3529   -0.1821    0.4631 H   0  0  0  0  0  0  0  0  0  0  0  0
   -0.1260    2.0214    0.1455 H   0  0  0  0  0  0  0  0  0  0  0  0
    1.3955    1.1534    0.3539 H   0  0  0  0  0  0  0  0  0  0  0  0
    0.7036    2.2097    2.5002 H   0  0  0  0  0  0  0  0  0  0  0  0
    0.6616    0.4459    2.6683 H   0  0  0  0  0  0  0  0  0  0  0  0
   -2.9658    3.2632    2.1353 H   0  0  0  0  0  0  0  0  0  0  0  0
   -1.7510    2.9985    0.8620 H   0  0  0  0  0  0  0  0  0  0  0  0
   -1.2795    3.7716    2.3948 H   0  0  0  0  0  0  0  0  0  0  0  0
   -0.0395    1.0856   -1.9983 N   0  0  0  0  0  0  0  0  0  0  0  0
   -0.0106    1.3130   -3.4241 C   0  0  2  0  0  0  0  0  0  0  0  0
    1.1964    2.1877   -3.7365 C   0  0  0  0  0  0  0  0  0  0  0  0
    1.7319    2.9147   -2.9023 O   0  0  0  0  0  0  0  0  0  0  0  0
   -1.2957    1.9679   -3.9061 C   0  0  0  0  0  0  0  0  0  0  0  0
    0.1688    1.8705   -1.3883 H   0  0  0  0  0  0  0  0  0  0  0  0
    0.1150    0.3335   -3.8982 H   0  0  0  0  0  0  0  0  0  0  0  0
   -1.4387    2.9506   -3.4419 H   0  0  0  0  0  0  0  0  0  0  0  0
   -1.2839    2.1137   -4.9913 H   0  0  0  0  0  0  0  0  0  0  0  0
   -2.1655    1.3516   -3.6542 H   0  0  0  0  0  0  0  0  0  0  0  0
    1.5788    2.0935   -5.0673 N   0  0  0  0  0  0  0  0  0  0  0  0
    2.6901    2.8368   -5.6137 C   0  0  0  0  0  0  0  0  0  0  0  0
    1.0896    1.4511   -5.6835 H   0  0  0  0  0  0  0  0  0  0  0  0
    2.3261    3.7866   -6.0325 H   0  0  0  0  0  0  0  0  0  0  0  0
    3.4200    3.0433   -4.8170 H   0  0  0  0  0  0  0  0  0  0  0  0
    3.1710    2.2465   -6.4075 H   0  0  0  0  0  0  0  0  0  0  0  0
  1  3  1  0  0  0  0
  1  7  1  0  0  0  0
  1  2  2  0  0  0  0
 35 36  1  0  0  0  0
 36 44  1  0  0  0  0
 36 37  2  0  0  0  0
  8  9  1  0  0  0  0
  9 17  1  0  0  0  0
  9 10  2  0  0  0  0
 18 19  1  0  0  0  0
 19 34  1  0  0  0  0
 19 20  2  0  0  0  0
 35 38  1  0  0  0  0
  8 11  1  0  0  0  0
 44 45  1  0  0  0  0
 23 24  1  0  0  0  0
 21 22  1  0  0  0  0
 18 21  1  0  0  0  0
 22 23  1  0  0  0  0
 34 35  1  0  0  0  0
  7  8  1  0  0  0  0
 17 18  1  0  0  0  0
  3  4  1  0  0  0  0
  3  5  1  0  0  0  0
  3  6  1  0  0  0  0
 38 41  1  0  0  0  0
 38 42  1  0  0  0  0
 38 43  1  0  0  0  0
 11 14  1  0  0  0  0
 11 15  1  0  0  0  0
 11 16  1  0  0  0  0
 45 47  1  0  0  0  0
 45 48  1  0  0  0  0
 45 49  1  0  0  0  0
 24 31  1  0  0  0  0
 24 32  1  0  0  0  0
 24 33  1  0  0  0  0
 21 27  1  0  0  0  0
 21 28  1  0  0  0  0
 22 29  1  0  0  0  0
 22 30  1  0  0  0  0
 35 40  1  0  0  0  0
  8 13  1  0  0  0  0
 18 26  1  0  0  0  0
 44 46  1  0  0  0  0
  7 12  1  0  0  0  0
 34 39  1  0  0  0  0
 17 25  1  0  0  0  0
M  END
$$$$

  -OEChem-05262214473D

 49 48  0     1  0  0  0  0  0999 V2000
   -0.0561   -5.3799    2.6949 C   0  0  0  0  0  0  0  0  0  0  0  0
    0.7325   -5.0736    3.5815 O   0  0  0  0  0  0  0  0  0  0  0  0
   -1.0067   -6.5099    2.9135 C   0  0  0  0  0  0  0  0  0  0  0  0
   -0.5910   -7.4777    2.5899 H   0  0  0  0  0  0  0  0  0  0  0  0
   -1.2629   -6.6440    3.9767 H   0  0  0  0  0  0  0  0  0  0  0  0
   -1.9729   -6.4206    2.3918 H   0  0  0  0  0  0  0  0  0  0  0  0
   -0.1735   -4.7694    1.4571 N   0  0  0  0  0  0  0  0  0  0  0  0
    0.6439   -3.6603    1.0409 C   0  0  2  0  0  0  0  0  0  0  0  0
   -0.2788   -2.5625    0.5280 C   0  0  0  0  0  0  0  0  0  0  0  0
   -1.4197   -2.7791    0.1251 O   0  0  0  0  0  0  0  0  0  0  0  0
    1.6395   -4.0779   -0.0301 C   0  0  0  0  0  0  0  0  0  0  0  0
   -0.8741   -5.1235    0.8083 H   0  0  0  0  0  0  0  0  0  0  0  0
    1.1738   -3.3062    1.9318 H   0  0  0  0  0  0  0  0  0  0  0  0
    1.1270   -4.4358   -0.9305 H   0  0  0  0  0  0  0  0  0  0  0  0
    2.2797   -3.2400   -0.3251 H   0  0  0  0  0  0  0  0  0  0  0  0
    2.2827   -4.8880    0.3303 H   0  0  0  0  0  0  0  0  0  0  0  0
    0.3351   -1.3153    0.5316 N   0  0  0  0  0  0  0  0  0  0  0  0
   -0.3268   -0.1184    0.0807 C   0  0  2  0  0  0  0  0  0  0  0  0
   -0.3898   -0.1369   -1.4435 C   0  0  0  0  0  0  0  0  0  0  0  0
   -0.9385   -1.0345   -2.0794 O   0  0  0  0  0  0  0  0  0  0  0  0
    0.3342    1.1517    0.6336 C   0  0  0  0  0  0  0  0  0  0  0  0
    0.2094    1.2979    2.1520 C   0  0  0  0  0  0  0  0  0  0  0  0
   -1.5386    1.3898    2.6419 S   0  0  0  0  0  0  0  0  0  0  0  0
   -1.9203    3.0114    1.9416 C   0  0  0  0  0  0  0  0  0  0  0  0
    1.2790   -1.2290    0.9021 H   0  0  0  0  0  0  0  0  0  0  0  0
   -1.3529   -0.1821    0.4631 H   0  0  0  0  0  0  0  0  0  0  0  0
   -0.1260    2.0214    0.1455 H   0  0  0  0  0  0  0  0  0  0  0  0
    1.3955    1.1534    0.3539 H   0  0  0  0  0  0  0  0  0  0  0  0
    0.7036    2.2097    2.5002 H   0  0  0  0  0  0  0  0  0  0  0  0
    0.6616    0.4459    2.6683 H   0  0  0  0  0  0  0  0  0  0  0  0
   -2.9658    3.2632    2.1353 H   0  0  0  0  0  0  0  0  0  0  0  0
   -1.7510    2.9985    0.8620 H   0  0  0  0  0  0  0  0  0  0  0  0
   -1.2795    3.7716    2.3948 H   0  0  0  0  0  0  0  0  0  0  0  0
    0.2657    0.9472   -2.0092 N   0  0  0  0  0  0  0  0  0  0  0  0
    0.3549    1.1436   -3.4371 C   0  0  2  0  0  0  0  0  0  0  0  0
    1.7476    1.6729   -3.7530 C   0  0  0  0  0  0  0  0  0  0  0  0
    2.4514    2.2459   -2.9239 O   0  0  0  0  0  0  0  0  0  0  0  0
   -0.7163    2.1031   -3.9317 C   0  0  0  0  0  0  0  0  0  0  0  0
    0.6688    1.6583   -1.4064 H   0  0  0  0  0  0  0  0  0  0  0  0
    0.2237    0.1597   -3.9005 H   0  0  0  0  0  0  0  0  0  0  0  0
   -0.6011    3.0944   -3.4783 H   0  0  0  0  0  0  0  0  0  0  0  0
   -0.6653    2.2288   -5.0183 H   0  0  0  0  0  0  0  0  0  0  0  0
   -1.7163    1.7355   -3.6774 H   0  0  0  0  0  0  0  0  0  0  0  0
    2.0949    1.4683   -5.0810 N   0  0  0  0  0  0  0  0  0  0  0  0
    3.3616    1.8929   -5.6299 C   0  0  0  0  0  0  0  0  0  0  0  0
    1.4573    0.9674   -5.6928 H   0  0  0  0  0  0  0  0  0  0  0  0
    3.2564    2.8998   -6.0602 H   0  0  0  0  0  0  0  0  0  0  0  0
    4.1187    1.9125   -4.8321 H   0  0  0  0  0  0  0  0  0  0  0  0
    3.6749    1.1895   -6.4155 H   0  0  0  0  0  0  0  0  0  0  0  0
  1  3  1  0  0  0  0
  1  7  1  0  0  0  0
  1  2  2  0  0  0  0
 35 36  1  0  0  0  0
 36 44  1  0  0  0  0
 36 37  2  0  0  0  0
  8  9  1  0  0  0  0
  9 17  1  0  0  0  0
  9 10  2  0  0  0  0
 18 19  1  0  0  0  0
 19 34  1  0  0  0  0
 19 20  2  0  0  0  0
 35 38  1  0  0  0  0
  8 11  1  0  0  0  0
 44 45  1  0  0  0  0
 23 24  1  0  0  0  0
 21 22  1  0  0  0  0
 18 21  1  0  0  0  0
 22 23  1  0  0  0  0
 34 35  1  0  0  0  0
  7  8  1  0  0  0  0
 17 18  1  0  0  0  0
  3  4  1  0  0  0  0
  3  5  1  0  0  0  0
  3  6  1  0  0  0  0
 38 41  1  0  0  0  0
 38 42  1  0  0  0  0
 38 43  1  0  0  0  0
 11 14  1  0  0  0  0
 11 15  1  0  0  0  0
 11 16  1  0  0  0  0
 45 47  1  0  0  0  0
 45 48  1  0  0  0  0
 45 49  1  0  0  0  0
 24 31  1  0  0  0  0
 24 32  1  0  0  0  0
 24 33  1  0  0  0  0
 21 27  1  0  0  0  0
 21 28  1  0  0  0  0
 22 29  1  0  0  0  0
 22 30  1  0  0  0  0
 35 40  1  0  0  0  0
  8 13  1  0  0  0  0
 18 26  1  0  0  0  0
 44 46  1  0  0  0  0
  7 12  1  0  0  0  0
 34 39  1  0  0  0  0
 17 25  1  0  0  0  0
M  END
$$$$

  -OEChem-05262214473D

 49 48  0     1  0  0  0  0  0999 V2000
   -0.0561   -5.3799    2.6949 C   0  0  0  0  0  0  0  0  0  0  0  0
    0.7325   -5.0736    3.5815 O   0  0  0  0  0  0  0  0  0  0  0  0
   -1.0067   -6.5099    2.9135 C   0  0  0  0  0  0  0  0  0  0  0  0
   -0.5910   -7.4777    2.5899 H   0  0  0  0  0  0  0  0  0  0  0  0
   -1.2629   -6.6440    3.9767 H   0  0  0  0  0  0  0  0  0  0  0  0
   -1.9729   -6.4206    2.3918 H   0  0  0  0  0  0  0  0  0  0  0  0
   -0.1735   -4.7694    1.4571 N   0  0  0  0  0  0  0  0  0  0  0  0
    0.6439   -3.6603    1.0409 C   0  0  2  0  0  0  0  0  0  0  0  0
   -0.2788   -2.5625    0.5280 C   0  0  0  0  0  0  0  0  0  0  0  0
   -1.4197   -2.7791    0.1251 O   0  0  0  0  0  0  0  0  0  0  0  0
    1.6395   -4.0779   -0.0301 C   0  0  0  0  0  0  0  0  0  0  0  0
   -0.8741   -5.1235    0.8083 H   0  0  0  0  0  0  0  0  0  0  0  0
    1.1738   -3.3062    1.9318 H   0  0  0  0  0  0  0  0  0  0  0  0
    1.1270   -4.4358   -0.9305 H   0  0  0  0  0  0  0  0  0  0  0  0
    2.2797   -3.2400   -0.3251 H   0  0  0  0  0  0  0  0  0  0  0  0
    2.2827   -4.8880    0.3303 H   0  0  0  0  0  0  0  0  0  0  0  0
    0.3351   -1.3153    0.5316 N   0  0  0  0  0  0  0  0  0  0  0  0
   -0.3268   -0.1184    0.0807 C   0  0  2  0  0  0  0  0  0  0  0  0
   -0.3898   -0.1369   -1.4435 C   0  0  0  0  0  0  0  0  0  0  0  0
   -1.1509   -0.8691   -2.0727 O   0  0  0  0  0  0  0  0  0  0  0  0
    0.3342    1.1517    0.6336 C   0  0  0  0  0  0  0  0  0  0  0  0
    0.2094    1.2979    2.1520 C   0  0  0  0  0  0  0  0  0  0  0  0
   -1.5386    1.3898    2.6419 S   0  0  0  0  0  0  0  0  0  0  0  0
   -1.9203    3.0114    1.9416 C   0  0  0  0  0  0  0  0  0  0  0  0
    1.2790   -1.2290    0.9021 H   0  0  0  0  0  0  0  0  0  0  0  0
   -1.3529   -0.1821    0.4631 H   0  0  0  0  0  0  0  0  0  0  0  0
   -0.1260    2.0214    0.1455 H   0  0  0  0  0  0  0  0  0  0  0  0
    1.3955    1.1534    0.3539 H   0  0  0  0  0  0  0  0  0  0  0  0
    0.7036    2.2097    2.5002 H   0  0  0  0  0  0  0  0  0  0  0  0
    0.6616    0.4459    2.6683 H   0  0  0  0  0  0  0  0  0  0  0  0
   -2.9658    3.2632    2.1353 H   0  0  0  0  0  0  0  0  0  0  0  0
   -1.7510    2.9985    0.8620 H   0  0  0  0  0  0  0  0  0  0  0  0
   -1.2795    3.7716    2.3948 H   0  0  0  0  0  0  0  0  0  0  0  0
    0.5247    0.7345   -2.0173 N   0  0  0  0  0  0  0  0  0  0  0  0
    0.6642    0.8853   -3.4468 C   0  0  2  0  0  0  0  0  0  0  0  0
    2.1470    1.0329   -3.7617 C   0  0  0  0  0  0  0  0  0  0  0  0
    2.9735    1.4137   -2.9353 O   0  0  0  0  0  0  0  0  0  0  0  0
   -0.1215    2.0836   -3.9560 C   0  0  0  0  0  0  0  0  0  0  0  0
    1.0970    1.3239   -1.4200 H   0  0  0  0  0  0  0  0  0  0  0  0
    0.2839   -0.0363   -3.9006 H   0  0  0  0  0  0  0  0  0  0  0  0
    0.2453    3.0164   -3.5123 H   0  0  0  0  0  0  0  0  0  0  0  0
   -0.0379    2.1798   -5.0436 H   0  0  0  0  0  0  0  0  0  0  0  0
   -1.1830    1.9899   -3.7026 H   0  0  0  0  0  0  0  0  0  0  0  0
    2.4319    0.7308   -5.0859 N   0  0  0  0  0  0  0  0  0  0  0  0
    3.7662    0.8073   -5.6334 C   0  0  0  0  0  0  0  0  0  0  0  0
    1.6875    0.4051   -5.6954 H   0  0  0  0  0  0  0  0  0  0  0  0
    3.9257    1.8023   -6.0744 H   0  0  0  0  0  0  0  0  0  0  0  0
    4.5012    0.6394   -4.8324 H   0  0  0  0  0  0  0  0  0  0  0  0
    3.8883    0.0382   -6.4102 H   0  0  0  0  0  0  0  0  0  0  0  0
  1  3  1  0  0  0  0
  1  7  1  0  0  0  0
  1  2  2  0  0  0  0
 35 36  1  0  0  0  0
 36 44  1  0  0  0  0
 36 37  2  0  0  0  0
  8  9  1  0  0  0  0
  9 17  1  0  0  0  0
  9 10  2  0  0  0  0
 18 19  1  0  0  0  0
 19 34  1  0  0  0  0
 19 20  2  0  0  0  0
 35 38  1  0  0  0  0
  8 11  1  0  0  0  0
 44 45  1  0  0  0  0
 23 24  1  0  0  0  0
 21 22  1  0  0  0  0
 18 21  1  0  0  0  0
 22 23  1  0  0  0  0
 34 35  1  0  0  0  0
  7  8  1  0  0  0  0
 17 18  1  0  0  0  0
  3  4  1  0  0  0  0
  3  5  1  0  0  0  0
  3  6  1  0  0  0  0
 38 41  1  0  0  0  0
 38 42  1  0  0  0  0
 38 43  1  0  0  0  0
 11 14  1  0  0  0  0
 11 15  1  0  0  0  0
 11 16  1  0  0  0  0
 45 47  1  0  0  0  0
 45 48  1  0  0  0  0
 45 49  1  0  0  0  0
 24 31  1  0  0  0  0
 24 32  1  0  0  0  0
 24 33  1  0  0  0  0
 21 27  1  0  0  0  0
 21 28  1  0  0  0  0
 22 29  1  0  0  0  0
 22 30  1  0  0  0  0
 35 40  1  0  0  0  0
  8 13  1  0  0  0  0
 18 26  1  0  0  0  0
 44 46  1  0  0  0  0
  7 12  1  0  0  0  0
 34 39  1  0  0  0  0
 17 25  1  0  0  0  0
M  END
$$$$

  -OEChem-05262214473D

 49 48  0     1  0  0  0  0  0999 V2000
   -0.0561   -5.3799    2.6949 C   0  0  0  0  0  0  0  0  0  0  0  0
    0.7325   -5.0736    3.5815 O   0  0  0  0  0  0  0  0  0  0  0  0
   -1.0067   -6.5099    2.9135 C   0  0  0  0  0  0  0  0  0  0  0  0
   -0.5910   -7.4777    2.5899 H   0  0  0  0  0  0  0  0  0  0  0  0
   -1.2629   -6.6440    3.9767 H   0  0  0  0  0  0  0  0  0  0  0  0
   -1.9729   -6.4206    2.3918 H   0  0  0  0  0  0  0  0  0  0  0  0
   -0.1735   -4.7694    1.4571 N   0  0  0  0  0  0  0  0  0  0  0  0
    0.6439   -3.6603    1.0409 C   0  0  2  0  0  0  0  0  0  0  0  0
   -0.2788   -2.5625    0.5280 C   0  0  0  0  0  0  0  0  0  0  0  0
   -1.4197   -2.7791    0.1251 O   0  0  0  0  0  0  0  0  0  0  0  0
    1.6395   -4.0779   -0.0301 C   0  0  0  0  0  0  0  0  0  0  0  0
   -0.8741   -5.1235    0.8083 H   0  0  0  0  0  0  0  0  0  0  0  0
    1.1738   -3.3062    1.9318 H   0  0  0  0  0  0  0  0  0  0  0  0
    1.1270   -4.4358   -0.9305 H   0  0  0  0  0  0  0  0  0  0  0  0
    2.2797   -3.2400   -0.3251 H   0  0  0  0  0  0  0  0  0  0  0  0
    2.2827   -4.8880    0.3303 H   0  0  0  0  0  0  0  0  0  0  0  0
    0.3351   -1.3153    0.5316 N   0  0  0  0  0  0  0  0  0  0  0  0
   -0.3268   -0.1184    0.0807 C   0  0  2  0  0  0  0  0  0  0  0  0
   -0.3898   -0.1369   -1.4435 C   0  0  0  0  0  0  0  0  0  0  0  0
   -1.3132   -0.6544   -2.0686 O   0  0  0  0  0  0  0  0  0  0  0  0
    0.3342    1.1517    0.6336 C   0  0  0  0  0  0  0  0  0  0  0  0
    0.2094    1.2979    2.1520 C   0  0  0  0  0  0  0  0  0  0  0  0
   -1.5386    1.3898    2.6419 S   0  0  0  0  0  0  0  0  0  0  0  0
   -1.9203    3.0114    1.9416 C   0  0  0  0  0  0  0  0  0  0  0  0
    1.2790   -1.2290    0.9021 H   0  0  0  0  0  0  0  0  0  0  0  0
   -1.3529   -0.1821    0.4631 H   0  0  0  0  0  0  0  0  0  0  0  0
   -0.1260    2.0214    0.1455 H   0  0  0  0  0  0  0  0  0  0  0  0
    1.3955    1.1534    0.3539 H   0  0  0  0  0  0  0  0  0  0  0  0
    0.7036    2.2097    2.5002 H   0  0  0  0  0  0  0  0  0  0  0  0
    0.6616    0.4459    2.6683 H   0  0  0  0  0  0  0  0  0  0  0  0
   -2.9658    3.2632    2.1353 H   0  0  0  0  0  0  0  0  0  0  0  0
   -1.7510    2.9985    0.8620 H   0  0  0  0  0  0  0  0  0  0  0  0
   -1.2795    3.7716    2.3948 H   0  0  0  0  0  0  0  0  0  0  0  0
    0.7200    0.4620   -2.0221 N   0  0  0  0  0  0  0  0  0  0  0  0
    0.8962    0.5557   -3.4523 C   0  0  2  0  0  0  0  0  0  0  0  0
    2.3672    0.3115   -3.7620 C   0  0  0  0  0  0  0  0  0  0  0  0
    3.2627    0.4747   -2.9358 O   0  0  0  0  0  0  0  0  0  0  0  0
    0.4480    1.9107   -3.9774 C   0  0  0  0  0  0  0  0  0  0  0  0
    1.4241    0.8900   -1.4282 H   0  0  0  0  0  0  0  0  0  0  0  0
    0.2913   -0.2412   -3.8984 H   0  0  0  0  0  0  0  0  0  0  0  0
    1.0427    2.7218   -3.5416 H   0  0  0  0  0  0  0  0  0  0  0  0
    0.5555    1.9700   -5.0656 H   0  0  0  0  0  0  0  0  0  0  0  0
   -0.6021    2.0975   -3.7279 H   0  0  0  0  0  0  0  0  0  0  0  0
    2.5666   -0.0687   -5.0818 N   0  0  0  0  0  0  0  0  0  0  0  0
    3.8763   -0.3459   -5.6239 C   0  0  0  0  0  0  0  0  0  0  0  0
    1.7644   -0.1977   -5.6913 H   0  0  0  0  0  0  0  0  0  0  0  0
    4.2884    0.5691   -6.0744 H   0  0  0  0  0  0  0  0  0  0  0  0
    4.5415   -0.6893   -4.8179 H   0  0  0  0  0  0  0  0  0  0  0  0
    3.7967   -1.1290   -6.3922 H   0  0  0  0  0  0  0  0  0  0  0  0
  1  3  1  0  0  0  0
  1  7  1  0  0  0  0
  1  2  2  0  0  0  0
 35 36  1  0  0  0  0
 36 44  1  0  0  0  0
 36 37  2  0  0  0  0
  8  9  1  0  0  0  0
  9 17  1  0  0  0  0
  9 10  2  0  0  0  0
 18 19  1  0  0  0  0
 19 34  1  0  0  0  0
 19 20  2  0  0  0  0
 35 38  1  0  0  0  0
  8 11  1  0  0  0  0
 44 45  1  0  0  0  0
 23 24  1  0  0  0  0
 21 22  1  0  0  0  0
 18 21  1  0  0  0  0
 22 23  1  0  0  0  0
 34 35  1  0  0  0  0
  7  8  1  0  0  0  0
 17 18  1  0  0  0  0
  3  4  1  0  0  0  0
  3  5  1  0  0  0  0
  3  6  1  0  0  0  0
 38 41  1  0  0  0  0
 38 42  1  0  0  0  0
 38 43  1  0  0  0  0
 11 14  1  0  0  0  0
 11 15  1  0  0  0  0
 11 16  1  0  0  0  0
 45 47  1  0  0  0  0
 45 48  1  0  0  0  0
 45 49  1  0  0  0  0
 24 31  1  0  0  0  0
 24 32  1  0  0  0  0
 24 33  1  0  0  0  0
 21 27  1  0  0  0  0
 21 28  1  0  0  0  0
 22 29  1  0  0  0  0
 22 30  1  0  0  0  0
 35 40  1  0  0  0  0
  8 13  1  0  0  0  0
 18 26  1  0  0  0  0
 44 46  1  0  0  0  0
  7 12  1  0  0  0  0
 34 39  1  0  0  0  0
 17 25  1  0  0  0  0
M  END
$$$$

  -OEChem-05262214473D

 49 48  0     1  0  0  0  0  0999 V2000
   -0.0561   -5.3799    2.6949 C   0  0  0  0  0  0  0  0  0  0  0  0
    0.7325   -5.0736    3.5815 O   0  0  0  0  0  0  0  0  0  0  0  0
   -1.0067   -6.5099    2.9135 C   0  0  0  0  0  0  0  0  0  0  0  0
   -0.5910   -7.4777    2.5899 H   0  0  0  0  0  0  0  0  0  0  0  0
   -1.2629   -6.6440    3.9767 H   0  0  0  0  0  0  0  0  0  0  0  0
   -1.9729   -6.4206    2.3918 H   0  0  0  0  0  0  0  0  0  0  0  0
   -0.1735   -4.7694    1.4571 N   0  0  0  0  0  0  0  0  0  0  0  0
    0.6439   -3.6603    1.0409 C   0  0  2  0  0  0  0  0  0  0  0  0
   -0.2788   -2.5625    0.5280 C   0  0  0  0  0  0  0  0  0  0  0  0
   -1.4197   -2.7791    0.1251 O   0  0  0  0  0  0  0  0  0  0  0  0
    1.6395   -4.0779   -0.0301 C   0  0  0  0  0  0  0  0  0  0  0  0
   -0.8741   -5.1235    0.8083 H   0  0  0  0  0  0  0  0  0  0  0  0
    1.1738   -3.3062    1.9318 H   0  0  0  0  0  0  0  0  0  0  0  0
    1.1270   -4.4358   -0.9305 H   0  0  0  0  0  0  0  0  0  0  0  0
    2.2797   -3.2400   -0.3251 H   0  0  0  0  0  0  0  0  0  0  0  0
    2.2827   -4.8880    0.3303 H   0  0  0  0  0  0  0  0  0  0  0  0
    0.3351   -1.3153    0.5316 N   0  0  0  0  0  0  0  0  0  0  0  0
   -0.3268   -0.1184    0.0807 C   0  0  2  0  0  0  0  0  0  0  0  0
   -0.3898   -0.1369   -1.4435 C   0  0  0  0  0  0  0  0  0  0  0  0
   -1.4145   -0.4049   -2.0674 O   0  0  0  0  0  0  0  0  0  0  0  0
    0.3342    1.1517    0.6336 C   0  0  0  0  0  0  0  0  0  0  0  0
    0.2094    1.2979    2.1520 C   0  0  0  0  0  0  0  0  0  0  0  0
   -1.5386    1.3898    2.6419 S   0  0  0  0  0  0  0  0  0  0  0  0
   -1.9203    3.0114    1.9416 C   0  0  0  0  0  0  0  0  0  0  0  0
    1.2790   -1.2290    0.9021 H   0  0  0  0  0  0  0  0  0  0  0  0
   -1.3529   -0.1821    0.4631 H   0  0  0  0  0  0  0  0  0  0  0  0
   -0.1260    2.0214    0.1455 H   0  0  0  0  0  0  0  0  0  0  0  0
    1.3955    1.1534    0.3539 H   0  0  0  0  0  0  0  0  0  0  0  0
    0.7036    2.2097    2.5002 H   0  0  0  0  0  0  0  0  0  0  0  0
    0.6616    0.4459    2.6683 H   0  0  0  0  0  0  0  0  0  0  0  0
   -2.9658    3.2632    2.1353 H   0  0  0  0  0  0  0  0  0  0  0  0
   -1.7510    2.9985    0.8620 H   0  0  0  0  0  0  0  0  0  0  0  0
   -1.2795    3.7716    2.3948 H   0  0  0  0  0  0  0  0  0  0  0  0
    0.8381    0.1482   -2.0231 N   0  0  0  0  0  0  0  0  0  0  0  0
    1.0351    0.1773   -3.4535 C   0  0  2  0  0  0  0  0  0  0  0  0
    2.3935   -0.4424   -3.7539 C   0  0  0  0  0  0  0  0  0  0  0  0
    3.2992   -0.5071   -2.9253 O   0  0  0  0  0  0  0  0  0  0  0  0
    0.9534    1.5963   -3.9945 C   0  0  0  0  0  0  0  0  0  0  0  0
    1.6279    0.3861   -1.4305 H   0  0  0  0  0  0  0  0  0  0  0  0
    0.2454   -0.4410   -3.8941 H   0  0  0  0  0  0  0  0  0  0  0  0
    1.7369    2.2307   -3.5643 H   0  0  0  0  0  0  0  0  0  0  0  0
    1.0745    1.6136   -5.0826 H   0  0  0  0  0  0  0  0  0  0  0  0
   -0.0131    2.0509   -3.7516 H   0  0  0  0  0  0  0  0  0  0  0  0
    2.4901   -0.8758   -5.0688 N   0  0  0  0  0  0  0  0  0  0  0  0
    3.6845   -1.4882   -5.6020 C   0  0  0  0  0  0  0  0  0  0  0  0
    1.6828   -0.7997   -5.6806 H   0  0  0  0  0  0  0  0  0  0  0  0
    4.3200   -0.7160   -6.0601 H   0  0  0  0  0  0  0  0  0  0  0  0
    4.2368   -1.9830   -4.7895 H   0  0  0  0  0  0  0  0  0  0  0  0
    3.4064   -2.2326   -6.3627 H   0  0  0  0  0  0  0  0  0  0  0  0
  1  3  1  0  0  0  0
  1  7  1  0  0  0  0
  1  2  2  0  0  0  0
 35 36  1  0  0  0  0
 36 44  1  0  0  0  0
 36 37  2  0  0  0  0
  8  9  1  0  0  0  0
  9 17  1  0  0  0  0
  9 10  2  0  0  0  0
 18 19  1  0  0  0  0
 19 34  1  0  0  0  0
 19 20  2  0  0  0  0
 35 38  1  0  0  0  0
  8 11  1  0  0  0  0
 44 45  1  0  0  0  0
 23 24  1  0  0  0  0
 21 22  1  0  0  0  0
 18 21  1  0  0  0  0
 22 23  1  0  0  0  0
 34 35  1  0  0  0  0
  7  8  1  0  0  0  0
 17 18  1  0  0  0  0
  3  4  1  0  0  0  0
  3  5  1  0  0  0  0
  3  6  1  0  0  0  0
 38 41  1  0  0  0  0
 38 42  1  0  0  0  0
 38 43  1  0  0  0  0
 11 14  1  0  0  0  0
 11 15  1  0  0  0  0
 11 16  1  0  0  0  0
 45 47  1  0  0  0  0
 45 48  1  0  0  0  0
 45 49  1  0  0  0  0
 24 31  1  0  0  0  0
 24 32  1  0  0  0  0
 24 33  1  0  0  0  0
 21 27  1  0  0  0  0
 21 28  1  0  0  0  0
 22 29  1  0  0  0  0
 22 30  1  0  0  0  0
 35 40  1  0  0  0  0
  8 13  1  0  0  0  0
 18 26  1  0  0  0  0
 44 46  1  0  0  0  0
  7 12  1  0  0  0  0
 34 39  1  0  0  0  0
 17 25  1  0  0  0  0
M  END
$$$$

  -OEChem-05262214473D

 49 48  0     1  0  0  0  0  0999 V2000
   -0.0561   -5.3799    2.6949 C   0  0  0  0  0  0  0  0  0  0  0  0
    0.7325   -5.0736    3.5815 O   0  0  0  0  0  0  0  0  0  0  0  0
   -1.0067   -6.5099    2.9135 C   0  0  0  0  0  0  0  0  0  0  0  0
   -0.5910   -7.4777    2.5899 H   0  0  0  0  0  0  0  0  0  0  0  0
   -1.2629   -6.6440    3.9767 H   0  0  0  0  0  0  0  0  0  0  0  0
   -1.9729   -6.4206    2.3918 H   0  0  0  0  0  0  0  0  0  0  0  0
   -0.1735   -4.7694    1.4571 N   0  0  0  0  0  0  0  0  0  0  0  0
    0.6439   -3.6603    1.0409 C   0  0  2  0  0  0  0  0  0  0  0  0
   -0.2788   -2.5625    0.5280 C   0  0  0  0  0  0  0  0  0  0  0  0
   -1.4197   -2.7791    0.1251 O   0  0  0  0  0  0  0  0  0  0  0  0
    1.6395   -4.0779   -0.0301 C   0  0  0  0  0  0  0  0  0  0  0  0
   -0.8741   -5.1235    0.8083 H   0  0  0  0  0  0  0  0  0  0  0  0
    1.1738   -3.3062    1.9318 H   0  0  0  0  0  0  0  0  0  0  0  0
    1.1270   -4.4358   -0.9305 H   0  0  0  0  0  0  0  0  0  0  0  0
    2.2797   -3.2400   -0.3251 H   0  0  0  0  0  0  0  0  0  0  0  0
    2.2827   -4.8880    0.3303 H   0  0  0  0  0  0  0  0  0  0  0  0
    0.3351   -1.3153    0.5316 N   0  0  0  0  0  0  0  0  0  0  0  0
   -0.3268   -0.1184    0.0807 C   0  0  2  0  0  0  0  0  0  0  0  0
   -0.3898   -0.1369   -1.4435 C   0  0  0  0  0  0  0  0  0  0  0  0
   -1.4479   -0.1378   -2.0693 O   0  0  0  0  0  0  0  0  0  0  0  0
    0.3342    1.1517    0.6336 C   0  0  0  0  0  0  0  0  0  0  0  0
    0.2094    1.2979    2.1520 C   0  0  0  0  0  0  0  0  0  0  0  0
   -1.5386    1.3898    2.6419 S   0  0  0  0  0  0  0  0  0  0  0  0
   -1.9203    3.0114    1.9416 C   0  0  0  0  0  0  0  0  0  0  0  0
    1.2790   -1.2290    0.9021 H   0  0  0  0  0  0  0  0  0  0  0  0
   -1.3529   -0.1821    0.4631 H   0  0  0  0  0  0  0  0  0  0  0  0
   -0.1260    2.0214    0.1455 H   0  0  0  0  0  0  0  0  0  0  0  0
    1.3955    1.1534    0.3539 H   0  0  0  0  0  0  0  0  0  0  0  0
    0.7036    2.2097    2.5002 H   0  0  0  0  0  0  0  0  0  0  0  0
    0.6616    0.4459    2.6683 H   0  0  0  0  0  0  0  0  0  0  0  0
   -2.9658    3.2632    2.1353 H   0  0  0  0  0  0  0  0  0  0  0  0
   -1.7510    2.9985    0.8620 H   0  0  0  0  0  0  0  0  0  0  0  0
   -1.2795    3.7716    2.3948 H   0  0  0  0  0  0  0  0  0  0  0  0
    0.8711   -0.1854   -2.0204 N   0  0  0  0  0  0  0  0  0  0  0  0
    1.0714   -0.2241   -3.4501 C   0  0  2  0  0  0  0  0  0  0  0  0
    2.2238   -1.1773   -3.7379 C   0  0  0  0  0  0  0  0  0  0  0  0
    3.0806   -1.4648   -2.9046 O   0  0  0  0  0  0  0  0  0  0  0  0
    1.3604    1.1616   -4.0060 C   0  0  0  0  0  0  0  0  0  0  0  0
    1.6946   -0.1533   -1.4267 H   0  0  0  0  0  0  0  0  0  0  0  0
    0.1495   -0.6220   -3.8879 H   0  0  0  0  0  0  0  0  0  0  0  0
    2.2805    1.5767   -3.5788 H   0  0  0  0  0  0  0  0  0  0  0  0
    1.4837    1.1350   -5.0937 H   0  0  0  0  0  0  0  0  0  0  0  0
    0.5439    1.8534   -3.7722 H   0  0  0  0  0  0  0  0  0  0  0  0
    2.2074   -1.6355   -5.0478 N   0  0  0  0  0  0  0  0  0  0  0  0
    3.2037   -2.5418   -5.5694 C   0  0  0  0  0  0  0  0  0  0  0  0
    1.4483   -1.3600   -5.6641 H   0  0  0  0  0  0  0  0  0  0  0  0
    4.0181   -1.9652   -6.0324 H   0  0  0  0  0  0  0  0  0  0  0  0
    3.6079   -3.1535   -4.7493 H   0  0  0  0  0  0  0  0  0  0  0  0
    2.7439   -3.1974   -6.3236 H   0  0  0  0  0  0  0  0  0  0  0  0
  1  3  1  0  0  0  0
  1  7  1  0  0  0  0
  1  2  2  0  0  0  0
 35 36  1  0  0  0  0
 36 44  1  0  0  0  0
 36 37  2  0  0  0  0
  8  9  1  0  0  0  0
  9 17  1  0  0  0  0
  9 10  2  0  0  0  0
 18 19  1  0  0  0  0
 19 34  1  0  0  0  0
 19 20  2  0  0  0  0
 35 38  1  0  0  0  0
  8 11  1  0  0  0  0
 44 45  1  0  0  0  0
 23 24  1  0  0  0  0
 21 22  1  0  0  0  0
 18 21  1  0  0  0  0
 22 23  1  0  0  0  0
 34 35  1  0  0  0  0
  7  8  1  0  0  0  0
 17 18  1  0  0  0  0
  3  4  1  0  0  0  0
  3  5  1  0  0  0  0
  3  6  1  0  0  0  0
 38 41  1  0  0  0  0
 38 42  1  0  0  0  0
 38 43  1  0  0  0  0
 11 14  1  0  0  0  0
 11 15  1  0  0  0  0
 11 16  1  0  0  0  0
 45 47  1  0  0  0  0
 45 48  1  0  0  0  0
 45 49  1  0  0  0  0
 24 31  1  0  0  0  0
 24 32  1  0  0  0  0
 24 33  1  0  0  0  0
 21 27  1  0  0  0  0
 21 28  1  0  0  0  0
 22 29  1  0  0  0  0
 22 30  1  0  0  0  0
 35 40  1  0  0  0  0
  8 13  1  0  0  0  0
 18 26  1  0  0  0  0
 44 46  1  0  0  0  0
  7 12  1  0  0  0  0
 34 39  1  0  0  0  0
 17 25  1  0  0  0  0
M  END
$$$$

  -OEChem-05262214473D

 49 48  0     1  0  0  0  0  0999 V2000
   -0.0561   -5.3799    2.6949 C   0  0  0  0  0  0  0  0  0  0  0  0
    0.7325   -5.0736    3.5815 O   0  0  0  0  0  0  0  0  0  0  0  0
   -1.0067   -6.5099    2.9135 C   0  0  0  0  0  0  0  0  0  0  0  0
   -0.5910   -7.4777    2.5899 H   0  0  0  0  0  0  0  0  0  0  0  0
   -1.2629   -6.6440    3.9767 H   0  0  0  0  0  0  0  0  0  0  0  0
   -1.9729   -6.4206    2.3918 H   0  0  0  0  0  0  0  0  0  0  0  0
   -0.1735   -4.7694    1.4571 N   0  0  0  0  0  0  0  0  0  0  0  0
    0.6439   -3.6603    1.0409 C   0  0  2  0  0  0  0  0  0  0  0  0
   -0.2788   -2.5625    0.5280 C   0  0  0  0  0  0  0  0  0  0  0  0
   -1.4197   -2.7791    0.1251 O   0  0  0  0  0  0  0  0  0  0  0  0
    1.6395   -4.0779   -0.0301 C   0  0  0  0  0  0  0  0  0  0  0  0
   -0.8741   -5.1235    0.8083 H   0  0  0  0  0  0  0  0  0  0  0  0
    1.1738   -3.3062    1.9318 H   0  0  0  0  0  0  0  0  0  0  0  0
    1.1270   -4.4358   -0.9305 H   0  0  0  0  0  0  0  0  0  0  0  0
    2.2797   -3.2400   -0.3251 H   0  0  0  0  0  0  0  0  0  0  0  0
    2.2827   -4.8880    0.3303 H   0  0  0  0  0  0  0  0  0  0  0  0
    0.3351   -1.3153    0.5316 N   0  0  0  0  0  0  0  0  0  0  0  0
   -0.3268   -0.1184    0.0807 C   0  0  2  0  0  0  0  0  0  0  0  0
   -0.3898   -0.1369   -1.4435 C   0  0  0  0  0  0  0  0  0  0  0  0
   -1.4110    0.1289   -2.0741 O   0  0  0  0  0  0  0  0  0  0  0  0
    0.3342    1.1517    0.6336 C   0  0  0  0  0  0  0  0  0  0  0  0
    0.2094    1.2979    2.1520 C   0  0  0  0  0  0  0  0  0  0  0  0
   -1.5386    1.3898    2.6419 S   0  0  0  0  0  0  0  0  0  0  0  0
   -1.9203    3.0114    1.9416 C   0  0  0  0  0  0  0  0  0  0  0  0
    1.2790   -1.2290    0.9021 H   0  0  0  0  0  0  0  0  0  0  0  0
   -1.3529   -0.1821    0.4631 H   0  0  0  0  0  0  0  0  0  0  0  0
   -0.1260    2.0214    0.1455 H   0  0  0  0  0  0  0  0  0  0  0  0
    1.3955    1.1534    0.3539 H   0  0  0  0  0  0  0  0  0  0  0  0
    0.7036    2.2097    2.5002 H   0  0  0  0  0  0  0  0  0  0  0  0
    0.6616    0.4459    2.6683 H   0  0  0  0  0  0  0  0  0  0  0  0
   -2.9658    3.2632    2.1353 H   0  0  0  0  0  0  0  0  0  0  0  0
   -1.7510    2.9985    0.8620 H   0  0  0  0  0  0  0  0  0  0  0  0
   -1.2795    3.7716    2.3948 H   0  0  0  0  0  0  0  0  0  0  0  0
    0.8167   -0.5162   -2.0142 N   0  0  0  0  0  0  0  0  0  0  0  0
    1.0027   -0.6212   -3.4424 C   0  0  2  0  0  0  0  0  0  0  0  0
    1.8699   -1.8431   -3.7152 C   0  0  0  0  0  0  0  0  0  0  0  0
    2.6218   -2.3331   -2.8751 O   0  0  0  0  0  0  0  0  0  0  0  0
    1.6411    0.6364   -4.0112 C   0  0  0  0  0  0  0  0  0  0  0  0
    1.6194   -0.6914   -1.4170 H   0  0  0  0  0  0  0  0  0  0  0  0
    0.0100   -0.7721   -3.8804 H   0  0  0  0  0  0  0  0  0  0  0  0
    2.6366    0.8041   -3.5841 H   0  0  0  0  0  0  0  0  0  0  0  0
    1.7553    0.5667   -5.0980 H   0  0  0  0  0  0  0  0  0  0  0  0
    1.0309    1.5183   -3.7883 H   0  0  0  0  0  0  0  0  0  0  0  0
    1.7378   -2.2960   -5.0204 N   0  0  0  0  0  0  0  0  0  0  0  0
    2.4668   -3.4348   -5.5280 C   0  0  0  0  0  0  0  0  0  0  0  0
    1.0769   -1.8405   -5.6429 H   0  0  0  0  0  0  0  0  0  0  0  0
    3.4033   -3.0936   -5.9932 H   0  0  0  0  0  0  0  0  0  0  0  0
    2.6976   -4.1210   -4.6999 H   0  0  0  0  0  0  0  0  0  0  0  0
    1.8544   -3.9575   -6.2776 H   0  0  0  0  0  0  0  0  0  0  0  0
  1  3  1  0  0  0  0
  1  7  1  0  0  0  0
  1  2  2  0  0  0  0
 35 36  1  0  0  0  0
 36 44  1  0  0  0  0
 36 37  2  0  0  0  0
  8  9  1  0  0  0  0
  9 17  1  0  0  0  0
  9 10  2  0  0  0  0
 18 19  1  0  0  0  0
 19 34  1  0  0  0  0
 19 20  2  0  0  0  0
 35 38  1  0  0  0  0
  8 11  1  0  0  0  0
 44 45  1  0  0  0  0
 23 24  1  0  0  0  0
 21 22  1  0  0  0  0
 18 21  1  0  0  0  0
 22 23  1  0  0  0  0
 34 35  1  0  0  0  0
  7  8  1  0  0  0  0
 17 18  1  0  0  0  0
  3  4  1  0  0  0  0
  3  5  1  0  0  0  0
  3  6  1  0  0  0  0
 38 41  1  0  0  0  0
 38 42  1  0  0  0  0
 38 43  1  0  0  0  0
 11 14  1  0  0  0  0
 11 15  1  0  0  0  0
 11 16  1  0  0  0  0
 45 47  1  0  0  0  0
 45 48  1  0  0  0  0
 45 49  1  0  0  0  0
 24 31  1  0  0  0  0
 24 32  1  0  0  0  0
 24 33  1  0  0  0  0
 21 27  1  0  0  0  0
 21 28  1  0  0  0  0
 22 29  1  0  0  0  0
 22 30  1  0  0  0  0
 35 40  1  0  0  0  0
  8 13  1  0  0  0  0
 18 26  1  0  0  0  0
 44 46  1  0  0  0  0
  7 12  1  0  0  0  0
 34 39  1  0  0  0  0
 17 25  1  0  0  0  0
M  END
$$$$

  -OEChem-05262214473D

 49 48  0     1  0  0  0  0  0999 V2000
   -0.0561   -5.3799    2.6949 C   0  0  0  0  0  0  0  0  0  0  0  0
    0.7325   -5.0736    3.5815 O   0  0  0  0  0  0  0  0  0  0  0  0
   -1.0067   -6.5099    2.9135 C   0  0  0  0  0  0  0  0  0  0  0  0
   -0.5910   -7.4777    2.5899 H   0  0  0  0  0  0  0  0  0  0  0  0
   -1.2629   -6.6440    3.9767 H   0  0  0  0  0  0  0  0  0  0  0  0
   -1.9729   -6.4206    2.3918 H   0  0  0  0  0  0  0  0  0  0  0  0
   -0.1735   -4.7694    1.4571 N   0  0  0  0  0  0  0  0  0  0  0  0
    0.6439   -3.6603    1.0409 C   0  0  2  0  0  0  0  0  0  0  0  0
   -0.2788   -2.5625    0.5280 C   0  0  0  0  0  0  0  0  0  0  0  0
   -1.4197   -2.7791    0.1251 O   0  0  0  0  0  0  0  0  0  0  0  0
    1.6395   -4.0779   -0.0301 C   0  0  0  0  0  0  0  0  0  0  0  0
   -0.8741   -5.1235    0.8083 H   0  0  0  0  0  0  0  0  0  0  0  0
    1.1738   -3.3062    1.9318 H   0  0  0  0  0  0  0  0  0  0  0  0
    1.1270   -4.4358   -0.9305 H   0  0  0  0  0  0  0  0  0  0  0  0
    2.2797   -3.2400   -0.3251 H   0  0  0  0  0  0  0  0  0  0  0  0
    2.2827   -4.8880    0.3303 H   0  0  0  0  0  0  0  0  0  0  0  0
    0.3351   -1.3153    0.5316 N   0  0  0  0  0  0  0  0  0  0  0  0
   -0.3268   -0.1184    0.0807 C   0  0  2  0  0  0  0  0  0  0  0  0
   -0.3898   -0.1369   -1.4435 C   0  0  0  0  0  0  0  0  0  0  0  0
   -1.3064    0.3769   -2.0814 O   0  0  0  0  0  0  0  0  0  0  0  0
    0.3342    1.1517    0.6336 C   0  0  0  0  0  0  0  0  0  0  0  0
    0.2094    1.2979    2.1520 C   0  0  0  0  0  0  0  0  0  0  0  0
   -1.5386    1.3898    2.6419 S   0  0  0  0  0  0  0  0  0  0  0  0
   -1.9203    3.0114    1.9416 C   0  0  0  0  0  0  0  0  0  0  0  0
    1.2790   -1.2290    0.9021 H   0  0  0  0  0  0  0  0  0  0  0  0
   -1.3529   -0.1821    0.4631 H   0  0  0  0  0  0  0  0  0  0  0  0
   -0.1260    2.0214    0.1455 H   0  0  0  0  0  0  0  0  0  0  0  0
    1.3955    1.1534    0.3539 H   0  0  0  0  0  0  0  0  0  0  0  0
    0.7036    2.2097    2.5002 H   0  0  0  0  0  0  0  0  0  0  0  0
    0.6616    0.4459    2.6683 H   0  0  0  0  0  0  0  0  0  0  0  0
   -2.9658    3.2632    2.1353 H   0  0  0  0  0  0  0  0  0  0  0  0
   -1.7510    2.9985    0.8620 H   0  0  0  0  0  0  0  0  0  0  0  0
   -1.2795    3.7716    2.3948 H   0  0  0  0  0  0  0  0  0  0  0  0
    0.6786   -0.8215   -2.0047 N   0  0  0  0  0  0  0  0  0  0  0  0
    0.8336   -0.9869   -3.4310 C   0  0  2  0  0  0  0  0  0  0  0  0
    1.3558   -2.3944   -3.6872 C   0  0  0  0  0  0  0  0  0  0  0  0
    1.9539   -3.0528   -2.8388 O   0  0  0  0  0  0  0  0  0  0  0  0
    1.7765    0.0565   -4.0097 C   0  0  0  0  0  0  0  0  0  0  0  0
    1.4076   -1.1918   -1.4022 H   0  0  0  0  0  0  0  0  0  0  0  0
   -0.1636   -0.8808   -3.8719 H   0  0  0  0  0  0  0  0  0  0  0  0
    2.7807   -0.0342   -3.5798 H   0  0  0  0  0  0  0  0  0  0  0  0
    1.8706   -0.0524   -5.0952 H   0  0  0  0  0  0  0  0  0  0  0  0
    1.4147    1.0686   -3.7986 H   0  0  0  0  0  0  0  0  0  0  0  0
    1.1133   -2.8122   -4.9883 N   0  0  0  0  0  0  0  0  0  0  0  0
    1.5239   -4.1063   -5.4809 C   0  0  0  0  0  0  0  0  0  0  0  0
    0.5938   -2.2082   -5.6184 H   0  0  0  0  0  0  0  0  0  0  0  0
    2.5177   -4.0241   -5.9453 H   0  0  0  0  0  0  0  0  0  0  0  0
    1.5680   -4.8197   -4.6447 H   0  0  0  0  0  0  0  0  0  0  0  0
    0.7985   -4.4612   -6.2278 H   0  0  0  0  0  0  0  0  0  0  0  0
  1  3  1  0  0  0  0
  1  7  1  0  0  0  0
  1  2  2  0  0  0  0
 35 36  1  0  0  0  0
 36 44  1  0  0  0  0
 36 37  2  0  0  0  0
  8  9  1  0  0  0  0
  9 17  1  0  0  0  0
  9 10  2  0  0  0  0
 18 19  1  0  0  0  0
 19 34  1  0  0  0  0
 19 20  2  0  0  0  0
 35 38  1  0  0  0  0
  8 11  1  0  0  0  0
 44 45  1  0  0  0  0
 23 24  1  0  0  0  0
 21 22  1  0  0  0  0
 18 21  1  0  0  0  0
 22 23  1  0  0  0  0
 34 35  1  0  0  0  0
  7  8  1  0  0  0  0
 17 18  1  0  0  0  0
  3  4  1  0  0  0  0
  3  5  1  0  0  0  0
  3  6  1  0  0  0  0
 38 41  1  0  0  0  0
 38 42  1  0  0  0  0
 38 43  1  0  0  0  0
 11 14  1  0  0  0  0
 11 15  1  0  0  0  0
 11 16  1  0  0  0  0
 45 47  1  0  0  0  0
 45 48  1  0  0  0  0
 45 49  1  0  0  0  0
 24 31  1  0  0  0  0
 24 32  1  0  0  0  0
 24 33  1  0  0  0  0
 21 27  1  0  0  0  0
 21 28  1  0  0  0  0
 22 29  1  0  0  0  0
 22 30  1  0  0  0  0
 35 40  1  0  0  0  0
  8 13  1  0  0  0  0
 18 26  1  0  0  0  0
 44 46  1  0  0  0  0
  7 12  1  0  0  0  0
 34 39  1  0  0  0  0
 17 25  1  0  0  0  0
M  END
$$$$

  -OEChem-05262214473D

 49 48  0     1  0  0  0  0  0999 V2000
   -0.0561   -5.3799    2.6949 C   0  0  0  0  0  0  0  0  0  0  0  0
    0.7325   -5.0736    3.5815 O   0  0  0  0  0  0  0  0  0  0  0  0
   -1.0067   -6.5099    2.9135 C   0  0  0  0  0  0  0  0  0  0  0  0
   -0.5910   -7.4777    2.5899 H   0  0  0  0  0  0  0  0  0  0  0  0
   -1.2629   -6.6440    3.9767 H   0  0  0  0  0  0  0  0  0  0  0  0
   -1.9729   -6.4206    2.3918 H   0  0  0  0  0  0  0  0  0  0  0  0
   -0.1735   -4.7694    1.4571 N   0  0  0  0  0  0  0  0  0  0  0  0
    0.6439   -3.6603    1.0409 C   0  0  2  0  0  0  0  0  0  0  0  0
   -0.2788   -2.5625    0.5280 C   0  0  0  0  0  0  0  0  0  0  0  0
   -1.4197   -2.7791    0.1251 O   0  0  0  0  0  0  0  0  0  0  0  0
    1.6395   -4.0779   -0.0301 C   0  0  0  0  0  0  0  0  0  0  0  0
   -0.8741   -5.1235    0.8083 H   0  0  0  0  0  0  0  0  0  0  0  0
    1.1738   -3.3062    1.9318 H   0  0  0  0  0  0  0  0  0  0  0  0
    1.1270   -4.4358   -0.9305 H   0  0  0  0  0  0  0  0  0  0  0  0
    2.2797   -3.2400   -0.3251 H   0  0  0  0  0  0  0  0  0  0  0  0
    2.2827   -4.8880    0.3303 H   0  0  0  0  0  0  0  0  0  0  0  0
    0.3351   -1.3153    0.5316 N   0  0  0  0  0  0  0  0  0  0  0  0
   -0.3268   -0.1184    0.0807 C   0  0  2  0  0  0  0  0  0  0  0  0
   -0.3898   -0.1369   -1.4435 C   0  0  0  0  0  0  0  0  0  0  0  0
   -1.1412    0.5893   -2.0908 O   0  0  0  0  0  0  0  0  0  0  0  0
    0.3342    1.1517    0.6336 C   0  0  0  0  0  0  0  0  0  0  0  0
    0.2094    1.2979    2.1520 C   0  0  0  0  0  0  0  0  0  0  0  0
   -1.5386    1.3898    2.6419 S   0  0  0  0  0  0  0  0  0  0  0  0
   -1.9203    3.0114    1.9416 C   0  0  0  0  0  0  0  0  0  0  0  0
    1.2790   -1.2290    0.9021 H   0  0  0  0  0  0  0  0  0  0  0  0
   -1.3529   -0.1821    0.4631 H   0  0  0  0  0  0  0  0  0  0  0  0
   -0.1260    2.0214    0.1455 H   0  0  0  0  0  0  0  0  0  0  0  0
    1.3955    1.1534    0.3539 H   0  0  0  0  0  0  0  0  0  0  0  0
    0.7036    2.2097    2.5002 H   0  0  0  0  0  0  0  0  0  0  0  0
    0.6616    0.4459    2.6683 H   0  0  0  0  0  0  0  0  0  0  0  0
   -2.9658    3.2632    2.1353 H   0  0  0  0  0  0  0  0  0  0  0  0
   -1.7510    2.9985    0.8620 H   0  0  0  0  0  0  0  0  0  0  0  0
   -1.2795    3.7716    2.3948 H   0  0  0  0  0  0  0  0  0  0  0  0
    0.4662   -1.0807   -1.9928 N   0  0  0  0  0  0  0  0  0  0  0  0
    0.5756   -1.2963   -3.4165 C   0  0  2  0  0  0  0  0  0  0  0  0
    0.7166   -2.7937   -3.6560 C   0  0  0  0  0  0  0  0  0  0  0  0
    1.1226   -3.5749   -2.7981 O   0  0  0  0  0  0  0  0  0  0  0  0
    1.7573   -0.5387   -4.0017 C   0  0  0  0  0  0  0  0  0  0  0  0
    1.0736   -1.6201   -1.3831 H   0  0  0  0  0  0  0  0  0  0  0  0
   -0.3594   -0.9409   -3.8630 H   0  0  0  0  0  0  0  0  0  0  0  0
    2.7032   -0.8811   -3.5663 H   0  0  0  0  0  0  0  0  0  0  0  0
    1.8220   -0.6803   -5.0856 H   0  0  0  0  0  0  0  0  0  0  0  0
    1.6692    0.5348   -3.8027 H   0  0  0  0  0  0  0  0  0  0  0  0
    0.3766   -3.1490   -4.9538 N   0  0  0  0  0  0  0  0  0  0  0  0
    0.4394   -4.5107   -5.4312 C   0  0  0  0  0  0  0  0  0  0  0  0
    0.0320   -2.4383   -5.5924 H   0  0  0  0  0  0  0  0  0  0  0  0
    1.4214   -4.6934   -5.8919 H   0  0  0  0  0  0  0  0  0  0  0  0
    0.2960   -5.2019   -4.5875 H   0  0  0  0  0  0  0  0  0  0  0  0
   -0.3518   -4.6742   -6.1777 H   0  0  0  0  0  0  0  0  0  0  0  0
  1  3  1  0  0  0  0
  1  7  1  0  0  0  0
  1  2  2  0  0  0  0
 35 36  1  0  0  0  0
 36 44  1  0  0  0  0
 36 37  2  0  0  0  0
  8  9  1  0  0  0  0
  9 17  1  0  0  0  0
  9 10  2  0  0  0  0
 18 19  1  0  0  0  0
 19 34  1  0  0  0  0
 19 20  2  0  0  0  0
 35 38  1  0  0  0  0
  8 11  1  0  0  0  0
 44 45  1  0  0  0  0
 23 24  1  0  0  0  0
 21 22  1  0  0  0  0
 18 21  1  0  0  0  0
 22 23  1  0  0  0  0
 34 35  1  0  0  0  0
  7  8  1  0  0  0  0
 17 18  1  0  0  0  0
  3  4  1  0  0  0  0
  3  5  1  0  0  0  0
  3  6  1  0  0  0  0
 38 41  1  0  0  0  0
 38 42  1  0  0  0  0
 38 43  1  0  0  0  0
 11 14  1  0  0  0  0
 11 15  1  0  0  0  0
 11 16  1  0  0  0  0
 45 47  1  0  0  0  0
 45 48  1  0  0  0  0
 45 49  1  0  0  0  0
 24 31  1  0  0  0  0
 24 32  1  0  0  0  0
 24 33  1  0  0  0  0
 21 27  1  0  0  0  0
 21 28  1  0  0  0  0
 22 29  1  0  0  0  0
 22 30  1  0  0  0  0
 35 40  1  0  0  0  0
  8 13  1  0  0  0  0
 18 26  1  0  0  0  0
 44 46  1  0  0  0  0
  7 12  1  0  0  0  0
 34 39  1  0  0  0  0
 17 25  1  0  0  0  0
M  END
$$$$

  -OEChem-05262214473D

 49 48  0     1  0  0  0  0  0999 V2000
   -0.0561   -5.3799    2.6949 C   0  0  0  0  0  0  0  0  0  0  0  0
    0.7325   -5.0736    3.5815 O   0  0  0  0  0  0  0  0  0  0  0  0
   -1.0067   -6.5099    2.9135 C   0  0  0  0  0  0  0  0  0  0  0  0
   -0.5910   -7.4777    2.5899 H   0  0  0  0  0  0  0  0  0  0  0  0
   -1.2629   -6.6440    3.9767 H   0  0  0  0  0  0  0  0  0  0  0  0
   -1.9729   -6.4206    2.3918 H   0  0  0  0  0  0  0  0  0  0  0  0
   -0.1735   -4.7694    1.4571 N   0  0  0  0  0  0  0  0  0  0  0  0
    0.6439   -3.6603    1.0409 C   0  0  2  0  0  0  0  0  0  0  0  0
   -0.2788   -2.5625    0.5280 C   0  0  0  0  0  0  0  0  0  0  0  0
   -1.4197   -2.7791    0.1251 O   0  0  0  0  0  0  0  0  0  0  0  0
    1.6395   -4.0779   -0.0301 C   0  0  0  0  0  0  0  0  0  0  0  0
   -0.8741   -5.1235    0.8083 H   0  0  0  0  0  0  0  0  0  0  0  0
    1.1738   -3.3062    1.9318 H   0  0  0  0  0  0  0  0  0  0  0  0
    1.1270   -4.4358   -0.9305 H   0  0  0  0  0  0  0  0  0  0  0  0
    2.2797   -3.2400   -0.3251 H   0  0  0  0  0  0  0  0  0  0  0  0
    2.2827   -4.8880    0.3303 H   0  0  0  0  0  0  0  0  0  0  0  0
    0.3351   -1.3153    0.5316 N   0  0  0  0  0  0  0  0  0  0  0  0
   -0.3268   -0.1184    0.0807 C   0  0  2  0  0  0  0  0  0  0  0  0
   -0.3898   -0.1369   -1.4435 C   0  0  0  0  0  0  0  0  0  0  0  0
   -0.9267    0.7517   -2.1017 O   0  0  0  0  0  0  0  0  0  0  0  0
    0.3342    1.1517    0.6336 C   0  0  0  0  0  0  0  0  0  0  0  0
    0.2094    1.2979    2.1520 C   0  0  0  0  0  0  0  0  0  0  0  0
   -1.5386    1.3898    2.6419 S   0  0  0  0  0  0  0  0  0  0  0  0
   -1.9203    3.0114    1.9416 C   0  0  0  0  0  0  0  0  0  0  0  0
    1.2790   -1.2290    0.9021 H   0  0  0  0  0  0  0  0  0  0  0  0
   -1.3529   -0.1821    0.4631 H   0  0  0  0  0  0  0  0  0  0  0  0
   -0.1260    2.0214    0.1455 H   0  0  0  0  0  0  0  0  0  0  0  0
    1.3955    1.1534    0.3539 H   0  0  0  0  0  0  0  0  0  0  0  0
    0.7036    2.2097    2.5002 H   0  0  0  0  0  0  0  0  0  0  0  0
    0.6616    0.4459    2.6683 H   0  0  0  0  0  0  0  0  0  0  0  0
   -2.9658    3.2632    2.1353 H   0  0  0  0  0  0  0  0  0  0  0  0
   -1.7510    2.9985    0.8620 H   0  0  0  0  0  0  0  0  0  0  0  0
   -1.2795    3.7716    2.3948 H   0  0  0  0  0  0  0  0  0  0  0  0
    0.1940   -1.2760   -1.9792 N   0  0  0  0  0  0  0  0  0  0  0  0
    0.2464   -1.5283   -3.4001 C   0  0  2  0  0  0  0  0  0  0  0  0
   -0.0042   -3.0138   -3.6235 C   0  0  0  0  0  0  0  0  0  0  0  0
    0.1845   -3.8639   -2.7558 O   0  0  0  0  0  0  0  0  0  0  0  0
    1.5848   -1.1086   -3.9876 C   0  0  0  0  0  0  0  0  0  0  0  0
    0.6402   -1.9473   -1.3613 H   0  0  0  0  0  0  0  0  0  0  0  0
   -0.5641   -0.9482   -3.8545 H   0  0  0  0  0  0  0  0  0  0  0  0
    2.4092   -1.6791   -3.5445 H   0  0  0  0  0  0  0  0  0  0  0  0
    1.6126   -1.2741   -5.0697 H   0  0  0  0  0  0  0  0  0  0  0  0
    1.7770   -0.0466   -3.8000 H   0  0  0  0  0  0  0  0  0  0  0  0
   -0.4223   -3.2835   -4.9191 N   0  0  0  0  0  0  0  0  0  0  0  0
   -0.7129   -4.6203   -5.3823 C   0  0  0  0  0  0  0  0  0  0  0  0
   -0.5703   -2.5150   -5.5666 H   0  0  0  0  0  0  0  0  0  0  0  0
    0.1893   -5.0558   -5.8366 H   0  0  0  0  0  0  0  0  0  0  0  0
   -1.0316   -5.2415   -4.5322 H   0  0  0  0  0  0  0  0  0  0  0  0
   -1.5181   -4.5820   -6.1306 H   0  0  0  0  0  0  0  0  0  0  0  0
  1  3  1  0  0  0  0
  1  7  1  0  0  0  0
  1  2  2  0  0  0  0
 35 36  1  0  0  0  0
 36 44  1  0  0  0  0
 36 37  2  0  0  0  0
  8  9  1  0  0  0  0
  9 17  1  0  0  0  0
  9 10  2  0  0  0  0
 18 19  1  0  0  0  0
 19 34  1  0  0  0  0
 19 20  2  0  0  0  0
 35 38  1  0  0  0  0
  8 11  1  0  0  0  0
 44 45  1  0  0  0  0
 23 24  1  0  0  0  0
 21 22  1  0  0  0  0
 18 21  1  0  0  0  0
 22 23  1  0  0  0  0
 34 35  1  0  0  0  0
  7  8  1  0  0  0  0
 17 18  1  0  0  0  0
  3  4  1  0  0  0  0
  3  5  1  0  0  0  0
  3  6  1  0  0  0  0
 38 41  1  0  0  0  0
 38 42  1  0  0  0  0
 38 43  1  0  0  0  0
 11 14  1  0  0  0  0
 11 15  1  0  0  0  0
 11 16  1  0  0  0  0
 45 47  1  0  0  0  0
 45 48  1  0  0  0  0
 45 49  1  0  0  0  0
 24 31  1  0  0  0  0
 24 32  1  0  0  0  0
 24 33  1  0  0  0  0
 21 27  1  0  0  0  0
 21 28  1  0  0  0  0
 22 29  1  0  0  0  0
 22 30  1  0  0  0  0
 35 40  1  0  0  0  0
  8 13  1  0  0  0  0
 18 26  1  0  0  0  0
 44 46  1  0  0  0  0
  7 12  1  0  0  0  0
 34 39  1  0  0  0  0
 17 25  1  0  0  0  0
M  END
$$$$

  -OEChem-05262214473D

 49 48  0     1  0  0  0  0  0999 V2000
   -0.0561   -5.3799    2.6949 C   0  0  0  0  0  0  0  0  0  0  0  0
    0.7325   -5.0736    3.5815 O   0  0  0  0  0  0  0  0  0  0  0  0
   -1.0067   -6.5099    2.9135 C   0  0  0  0  0  0  0  0  0  0  0  0
   -0.5910   -7.4777    2.5899 H   0  0  0  0  0  0  0  0  0  0  0  0
   -1.2629   -6.6440    3.9767 H   0  0  0  0  0  0  0  0  0  0  0  0
   -1.9729   -6.4206    2.3918 H   0  0  0  0  0  0  0  0  0  0  0  0
   -0.1735   -4.7694    1.4571 N   0  0  0  0  0  0  0  0  0  0  0  0
    0.6439   -3.6603    1.0409 C   0  0  2  0  0  0  0  0  0  0  0  0
   -0.2788   -2.5625    0.5280 C   0  0  0  0  0  0  0  0  0  0  0  0
   -1.4197   -2.7791    0.1251 O   0  0  0  0  0  0  0  0  0  0  0  0
    1.6395   -4.0779   -0.0301 C   0  0  0  0  0  0  0  0  0  0  0  0
   -0.8741   -5.1235    0.8083 H   0  0  0  0  0  0  0  0  0  0  0  0
    1.1738   -3.3062    1.9318 H   0  0  0  0  0  0  0  0  0  0  0  0
    1.1270   -4.4358   -0.9305 H   0  0  0  0  0  0  0  0  0  0  0  0
    2.2797   -3.2400   -0.3251 H   0  0  0  0  0  0  0  0  0  0  0  0
    2.2827   -4.8880    0.3303 H   0  0  0  0  0  0  0  0  0  0  0  0
    0.3351   -1.3153    0.5316 N   0  0  0  0  0  0  0  0  0  0  0  0
   -0.3268   -0.1184    0.0807 C   0  0  2  0  0  0  0  0  0  0  0  0
   -0.3898   -0.1369   -1.4435 C   0  0  0  0  0  0  0  0  0  0  0  0
   -0.6775    0.8529   -2.1132 O   0  0  0  0  0  0  0  0  0  0  0  0
    0.3342    1.1517    0.6336 C   0  0  0  0  0  0  0  0  0  0  0  0
    0.2094    1.2979    2.1520 C   0  0  0  0  0  0  0  0  0  0  0  0
   -1.5386    1.3898    2.6419 S   0  0  0  0  0  0  0  0  0  0  0  0
   -1.9203    3.0114    1.9416 C   0  0  0  0  0  0  0  0  0  0  0  0
    1.2790   -1.2290    0.9021 H   0  0  0  0  0  0  0  0  0  0  0  0
   -1.3529   -0.1821    0.4631 H   0  0  0  0  0  0  0  0  0  0  0  0
   -0.1260    2.0214    0.1455 H   0  0  0  0  0  0  0  0  0  0  0  0
    1.3955    1.1534    0.3539 H   0  0  0  0  0  0  0  0  0  0  0  0
    0.7036    2.2097    2.5002 H   0  0  0  0  0  0  0  0  0  0  0  0
    0.6616    0.4459    2.6683 H   0  0  0  0  0  0  0  0  0  0  0  0
   -2.9658    3.2632    2.1353 H   0  0  0  0  0  0  0  0  0  0  0  0
   -1.7510    2.9985    0.8620 H   0  0  0  0  0  0  0  0  0  0  0  0
   -1.2795    3.7716    2.3948 H   0  0  0  0  0  0  0  0  0  0  0  0
   -0.1195   -1.3940   -1.9648 N   0  0  0  0  0  0  0  0  0  0  0  0
   -0.1316   -1.6671   -3.3828 C   0  0  2  0  0  0  0  0  0  0  0  0
   -0.7575   -3.0397   -3.5921 C   0  0  0  0  0  0  0  0  0  0  0  0
   -0.7965   -3.8999   -2.7148 O   0  0  0  0  0  0  0  0  0  0  0  0
    1.2708   -1.6143   -3.9685 C   0  0  0  0  0  0  0  0  0  0  0  0
    0.1369   -2.1510   -1.3380 H   0  0  0  0  0  0  0  0  0  0  0  0
   -0.7638   -0.9022   -3.8468 H   0  0  0  0  0  0  0  0  0  0  0  0
    1.9189   -2.3735   -3.5157 H   0  0  0  0  0  0  0  0  0  0  0  0
    1.2567   -1.7933   -5.0487 H   0  0  0  0  0  0  0  0  0  0  0  0
    1.7307   -0.6361   -3.7909 H   0  0  0  0  0  0  0  0  0  0  0  0
   -1.2288   -3.2065   -4.8868 N   0  0  0  0  0  0  0  0  0  0  0  0
   -1.8544   -4.4277   -5.3374 C   0  0  0  0  0  0  0  0  0  0  0  0
   -1.1719   -2.4331   -5.5428 H   0  0  0  0  0  0  0  0  0  0  0  0
   -1.0947   -5.0867   -5.7832 H   0  0  0  0  0  0  0  0  0  0  0  0
   -2.3244   -4.9360   -4.4825 H   0  0  0  0  0  0  0  0  0  0  0  0
   -2.6211   -4.1908   -6.0899 H   0  0  0  0  0  0  0  0  0  0  0  0
  1  3  1  0  0  0  0
  1  7  1  0  0  0  0
  1  2  2  0  0  0  0
 35 36  1  0  0  0  0
 36 44  1  0  0  0  0
 36 37  2  0  0  0  0
  8  9  1  0  0  0  0
  9 17  1  0  0  0  0
  9 10  2  0  0  0  0
 18 19  1  0  0  0  0
 19 34  1  0  0  0  0
 19 20  2  0  0  0  0
 35 38  1  0  0  0  0
  8 11  1  0  0  0  0
 44 45  1  0  0  0  0
 23 24  1  0  0  0  0
 21 22  1  0  0  0  0
 18 21  1  0  0  0  0
 22 23  1  0  0  0  0
 34 35  1  0  0  0  0
  7  8  1  0  0  0  0
 17 18  1  0  0  0  0
  3  4  1  0  0  0  0
  3  5  1  0  0  0  0
  3  6  1  0  0  0  0
 38 41  1  0  0  0  0
 38 42  1  0  0  0  0
 38 43  1  0  0  0  0
 11 14  1  0  0  0  0
 11 15  1  0  0  0  0
 11 16  1  0  0  0  0
 45 47  1  0  0  0  0
 45 48  1  0  0  0  0
 45 49  1  0  0  0  0
 24 31  1  0  0  0  0
 24 32  1  0  0  0  0
 24 33  1  0  0  0  0
 21 27  1  0  0  0  0
 21 28  1  0  0  0  0
 22 29  1  0  0  0  0
 22 30  1  0  0  0  0
 35 40  1  0  0  0  0
  8 13  1  0  0  0  0
 18 26  1  0  0  0  0
 44 46  1  0  0  0  0
  7 12  1  0  0  0  0
 34 39  1  0  0  0  0
 17 25  1  0  0  0  0
M  END
$$$$

  -OEChem-05262214473D

 49 48  0     1  0  0  0  0  0999 V2000
   -0.0561   -5.3799    2.6949 C   0  0  0  0  0  0  0  0  0  0  0  0
    0.7325   -5.0736    3.5815 O   0  0  0  0  0  0  0  0  0  0  0  0
   -1.0067   -6.5099    2.9135 C   0  0  0  0  0  0  0  0  0  0  0  0
   -0.5910   -7.4777    2.5899 H   0  0  0  0  0  0  0  0  0  0  0  0
   -1.2629   -6.6440    3.9767 H   0  0  0  0  0  0  0  0  0  0  0  0
   -1.9729   -6.4206    2.3918 H   0  0  0  0  0  0  0  0  0  0  0  0
   -0.1735   -4.7694    1.4571 N   0  0  0  0  0  0  0  0  0  0  0  0
    0.6439   -3.6603    1.0409 C   0  0  2  0  0  0  0  0  0  0  0  0
   -0.2788   -2.5625    0.5280 C   0  0  0  0  0  0  0  0  0  0  0  0
   -1.4197   -2.7791    0.1251 O   0  0  0  0  0  0  0  0  0  0  0  0
    1.6395   -4.0779   -0.0301 C   0  0  0  0  0  0  0  0  0  0  0  0
   -0.8741   -5.1235    0.8083 H   0  0  0  0  0  0  0  0  0  0  0  0
    1.1738   -3.3062    1.9318 H   0  0  0  0  0  0  0  0  0  0  0  0
    1.1270   -4.4358   -0.9305 H   0  0  0  0  0  0  0  0  0  0  0  0
    2.2797   -3.2400   -0.3251 H   0  0  0  0  0  0  0  0  0  0  0  0
    2.2827   -4.8880    0.3303 H   0  0  0  0  0  0  0  0  0  0  0  0
    0.3351   -1.3153    0.5316 N   0  0  0  0  0  0  0  0  0  0  0  0
   -0.3268   -0.1184    0.0807 C   0  0  2  0  0  0  0  0  0  0  0  0
   -0.3898   -0.1369   -1.4435 C   0  0  0  0  0  0  0  0  0  0  0  0
   -0.4106    0.8862   -2.1246 O   0  0  0  0  0  0  0  0  0  0  0  0
    0.3342    1.1517    0.6336 C   0  0  0  0  0  0  0  0  0  0  0  0
    0.2094    1.2979    2.1520 C   0  0  0  0  0  0  0  0  0  0  0  0
   -1.5386    1.3898    2.6419 S   0  0  0  0  0  0  0  0  0  0  0  0
   -1.9203    3.0114    1.9416 C   0  0  0  0  0  0  0  0  0  0  0  0
    1.2790   -1.2290    0.9021 H   0  0  0  0  0  0  0  0  0  0  0  0
   -1.3529   -0.1821    0.4631 H   0  0  0  0  0  0  0  0  0  0  0  0
   -0.1260    2.0214    0.1455 H   0  0  0  0  0  0  0  0  0  0  0  0
    1.3955    1.1534    0.3539 H   0  0  0  0  0  0  0  0  0  0  0  0
    0.7036    2.2097    2.5002 H   0  0  0  0  0  0  0  0  0  0  0  0
    0.6616    0.4459    2.6683 H   0  0  0  0  0  0  0  0  0  0  0  0
   -2.9658    3.2632    2.1353 H   0  0  0  0  0  0  0  0  0  0  0  0
   -1.7510    2.9985    0.8620 H   0  0  0  0  0  0  0  0  0  0  0  0
   -1.2795    3.7716    2.3948 H   0  0  0  0  0  0  0  0  0  0  0  0
   -0.4528   -1.4269   -1.9506 N   0  0  0  0  0  0  0  0  0  0  0  0
   -0.5327   -1.7033   -3.3658 C   0  0  2  0  0  0  0  0  0  0  0  0
   -1.4919   -2.8696   -3.5638 C   0  0  0  0  0  0  0  0  0  0  0  0
   -1.7536   -3.6807   -2.6780 O   0  0  0  0  0  0  0  0  0  0  0  0
    0.8367   -2.0213   -3.9456 C   0  0  0  0  0  0  0  0  0  0  0  0
   -0.4020   -2.2174   -1.3149 H   0  0  0  0  0  0  0  0  0  0  0  0
   -0.9448   -0.8061   -3.8405 H   0  0  0  0  0  0  0  0  0  0  0  0
    1.2656   -2.9173   -3.4821 H   0  0  0  0  0  0  0  0  0  0  0  0
    0.7787   -2.2026   -5.0239 H   0  0  0  0  0  0  0  0  0  0  0  0
    1.5336   -1.1934   -3.7760 H   0  0  0  0  0  0  0  0  0  0  0  0
   -1.9880   -2.9232   -4.8589 N   0  0  0  0  0  0  0  0  0  0  0  0
   -2.9074   -3.9461   -5.2998 C   0  0  0  0  0  0  0  0  0  0  0  0
   -1.7319   -2.1981   -5.5225 H   0  0  0  0  0  0  0  0  0  0  0  0
   -2.3431   -4.7839   -5.7353 H   0  0  0  0  0  0  0  0  0  0  0  0
   -3.4943   -4.3060   -4.4419 H   0  0  0  0  0  0  0  0  0  0  0  0
   -3.5854   -3.5273   -6.0581 H   0  0  0  0  0  0  0  0  0  0  0  0
  1  3  1  0  0  0  0
  1  7  1  0  0  0  0
  1  2  2  0  0  0  0
 35 36  1  0  0  0  0
 36 44  1  0  0  0  0
 36 37  2  0  0  0  0
  8  9  1  0  0  0  0
  9 17  1  0  0  0  0
  9 10  2  0  0  0  0
 18 19  1  0  0  0  0
 19 34  1  0  0  0  0
 19 20  2  0  0  0  0
 35 38  1  0  0  0  0
  8 11  1  0  0  0  0
 44 45  1  0  0  0  0
 23 24  1  0  0  0  0
 21 22  1  0  0  0  0
 18 21  1  0  0  0  0
 22 23  1  0  0  0  0
 34 35  1  0  0  0  0
  7  8  1  0  0  0  0
 17 18  1  0  0  0  0
  3  4  1  0  0  0  0
  3  5  1  0  0  0  0
  3  6  1  0  0  0  0
 38 41  1  0  0  0  0
 38 42  1  0  0  0  0
 38 43  1  0  0  0  0
 11 14  1  0  0  0  0
 11 15  1  0  0  0  0
 11 16  1  0  0  0  0
 45 47  1  0  0  0  0
 45 48  1  0  0  0  0
 45 49  1  0  0  0  0
 24 31  1  0  0  0  0
 24 32  1  0  0  0  0
 24 33  1  0  0  0  0
 21 27  1  0  0  0  0
 21 28  1  0  0  0  0
 22 29  1  0  0  0  0
 22 30  1  0  0  0  0
 35 40  1  0  0  0  0
  8 13  1  0  0  0  0
 18 26  1  0  0  0  0
 44 46  1  0  0  0  0
  7 12  1  0  0  0  0
 34 39  1  0  0  0  0
 17 25  1  0  0  0  0
M  END
$$$$

  -OEChem-05262214473D

 49 48  0     1  0  0  0  0  0999 V2000
   -0.0561   -5.3799    2.6949 C   0  0  0  0  0  0  0  0  0  0  0  0
    0.7325   -5.0736    3.5815 O   0  0  0  0  0  0  0  0  0  0  0  0
   -1.0067   -6.5099    2.9135 C   0  0  0  0  0  0  0  0  0  0  0  0
   -0.5910   -7.4777    2.5899 H   0  0  0  0  0  0  0  0  0  0  0  0
   -1.2629   -6.6440    3.9767 H   0  0  0  0  0  0  0  0  0  0  0  0
   -1.9729   -6.4206    2.3918 H   0  0  0  0  0  0  0  0  0  0  0  0
   -0.1735   -4.7694    1.4571 N   0  0  0  0  0  0  0  0  0  0  0  0
    0.6439   -3.6603    1.0409 C   0  0  2  0  0  0  0  0  0  0  0  0
   -0.2788   -2.5625    0.5280 C   0  0  0  0  0  0  0  0  0  0  0  0
   -1.4197   -2.7791    0.1251 O   0  0  0  0  0  0  0  0  0  0  0  0
    1.6395   -4.0779   -0.0301 C   0  0  0  0  0  0  0  0  0  0  0  0
   -0.8741   -5.1235    0.8083 H   0  0  0  0  0  0  0  0  0  0  0  0
    1.1738   -3.3062    1.9318 H   0  0  0  0  0  0  0  0  0  0  0  0
    1.1270   -4.4358   -0.9305 H   0  0  0  0  0  0  0  0  0  0  0  0
    2.2797   -3.2400   -0.3251 H   0  0  0  0  0  0  0  0  0  0  0  0
    2.2827   -4.8880    0.3303 H   0  0  0  0  0  0  0  0  0  0  0  0
    0.3351   -1.3153    0.5316 N   0  0  0  0  0  0  0  0  0  0  0  0
   -0.3268   -0.1184    0.0807 C   0  0  2  0  0  0  0  0  0  0  0  0
   -0.3898   -0.1369   -1.4435 C   0  0  0  0  0  0  0  0  0  0  0  0
   -0.1441    0.8492   -2.1352 O   0  0  0  0  0  0  0  0  0  0  0  0
    0.3342    1.1517    0.6336 C   0  0  0  0  0  0  0  0  0  0  0  0
    0.2094    1.2979    2.1520 C   0  0  0  0  0  0  0  0  0  0  0  0
   -1.5386    1.3898    2.6419 S   0  0  0  0  0  0  0  0  0  0  0  0
   -1.9203    3.0114    1.9416 C   0  0  0  0  0  0  0  0  0  0  0  0
    1.2790   -1.2290    0.9021 H   0  0  0  0  0  0  0  0  0  0  0  0
   -1.3529   -0.1821    0.4631 H   0  0  0  0  0  0  0  0  0  0  0  0
   -0.1260    2.0214    0.1455 H   0  0  0  0  0  0  0  0  0  0  0  0
    1.3955    1.1534    0.3539 H   0  0  0  0  0  0  0  0  0  0  0  0
    0.7036    2.2097    2.5002 H   0  0  0  0  0  0  0  0  0  0  0  0
    0.6616    0.4459    2.6683 H   0  0  0  0  0  0  0  0  0  0  0  0
   -2.9658    3.2632    2.1353 H   0  0  0  0  0  0  0  0  0  0  0  0
   -1.7510    2.9985    0.8620 H   0  0  0  0  0  0  0  0  0  0  0  0
   -1.2795    3.7716    2.3948 H   0  0  0  0  0  0  0  0  0  0  0  0
   -0.7834   -1.3723   -1.9376 N   0  0  0  0  0  0  0  0  0  0  0  0
   -0.9295   -1.6343   -3.3503 C   0  0  2  0  0  0  0  0  0  0  0  0
   -2.1573   -2.5150   -3.5406 C   0  0  0  0  0  0  0  0  0  0  0  0
   -2.6214   -3.2210   -2.6477 O   0  0  0  0  0  0  0  0  0  0  0  0
    0.3121   -2.3020   -3.9205 C   0  0  0  0  0  0  0  0  0  0  0  0
   -0.9399   -2.1419   -1.2936 H   0  0  0  0  0  0  0  0  0  0  0  0
   -1.0948   -0.6664   -3.8360 H   0  0  0  0  0  0  0  0  0  0  0  0
    0.4939   -3.2732   -3.4459 H   0  0  0  0  0  0  0  0  0  0  0  0
    0.2110   -2.4741   -4.9972 H   0  0  0  0  0  0  0  0  0  0  0  0
    1.1991   -1.6806   -3.7562 H   0  0  0  0  0  0  0  0  0  0  0  0
   -2.6482   -2.4529   -4.8373 N   0  0  0  0  0  0  0  0  0  0  0  0
   -3.8000   -3.2081   -5.2719 C   0  0  0  0  0  0  0  0  0  0  0  0
   -2.2121   -1.8261   -5.5072 H   0  0  0  0  0  0  0  0  0  0  0  0
   -3.4709   -4.1682   -5.6962 H   0  0  0  0  0  0  0  0  0  0  0  0
   -4.4615   -3.3945   -4.4130 H   0  0  0  0  0  0  0  0  0  0  0  0
   -4.3454   -2.6368   -6.0376 H   0  0  0  0  0  0  0  0  0  0  0  0
  1  3  1  0  0  0  0
  1  7  1  0  0  0  0
  1  2  2  0  0  0  0
 35 36  1  0  0  0  0
 36 44  1  0  0  0  0
 36 37  2  0  0  0  0
  8  9  1  0  0  0  0
  9 17  1  0  0  0  0
  9 10  2  0  0  0  0
 18 19  1  0  0  0  0
 19 34  1  0  0  0  0
 19 20  2  0  0  0  0
 35 38  1  0  0  0  0
  8 11  1  0  0  0  0
 44 45  1  0  0  0  0
 23 24  1  0  0  0  0
 21 22  1  0  0  0  0
 18 21  1  0  0  0  0
 22 23  1  0  0  0  0
 34 35  1  0  0  0  0
  7  8  1  0  0  0  0
 17 18  1  0  0  0  0
  3  4  1  0  0  0  0
  3  5  1  0  0  0  0
  3  6  1  0  0  0  0
 38 41  1  0  0  0  0
 38 42  1  0  0  0  0
 38 43  1  0  0  0  0
 11 14  1  0  0  0  0
 11 15  1  0  0  0  0
 11 16  1  0  0  0  0
 45 47  1  0  0  0  0
 45 48  1  0  0  0  0
 45 49  1  0  0  0  0
 24 31  1  0  0  0  0
 24 32  1  0  0  0  0
 24 33  1  0  0  0  0
 21 27  1  0  0  0  0
 21 28  1  0  0  0  0
 22 29  1  0  0  0  0
 22 30  1  0  0  0  0
 35 40  1  0  0  0  0
  8 13  1  0  0  0  0
 18 26  1  0  0  0  0
 44 46  1  0  0  0  0
  7 12  1  0  0  0  0
 34 39  1  0  0  0  0
 17 25  1  0  0  0  0
M  END
$$$$

  -OEChem-05262214473D

 49 48  0     1  0  0  0  0  0999 V2000
   -0.0561   -5.3799    2.6949 C   0  0  0  0  0  0  0  0  0  0  0  0
    0.7325   -5.0736    3.5815 O   0  0  0  0  0  0  0  0  0  0  0  0
   -1.0067   -6.5099    2.9135 C   0  0  0  0  0  0  0  0  0  0  0  0
   -0.5910   -7.4777    2.5899 H   0  0  0  0  0  0  0  0  0  0  0  0
   -1.2629   -6.6440    3.9767 H   0  0  0  0  0  0  0  0  0  0  0  0
   -1.9729   -6.4206    2.3918 H   0  0  0  0  0  0  0  0  0  0  0  0
   -0.1735   -4.7694    1.4571 N   0  0  0  0  0  0  0  0  0  0  0  0
    0.6439   -3.6603    1.0409 C   0  0  2  0  0  0  0  0  0  0  0  0
   -0.2788   -2.5625    0.5280 C   0  0  0  0  0  0  0  0  0  0  0  0
   -1.4197   -2.7791    0.1251 O   0  0  0  0  0  0  0  0  0  0  0  0
    1.6395   -4.0779   -0.0301 C   0  0  0  0  0  0  0  0  0  0  0  0
   -0.8741   -5.1235    0.8083 H   0  0  0  0  0  0  0  0  0  0  0  0
    1.1738   -3.3062    1.9318 H   0  0  0  0  0  0  0  0  0  0  0  0
    1.1270   -4.4358   -0.9305 H   0  0  0  0  0  0  0  0  0  0  0  0
    2.2797   -3.2400   -0.3251 H   0  0  0  0  0  0  0  0  0  0  0  0
    2.2827   -4.8880    0.3303 H   0  0  0  0  0  0  0  0  0  0  0  0
    0.3351   -1.3153    0.5316 N   0  0  0  0  0  0  0  0  0  0  0  0
   -0.3268   -0.1184    0.0807 C   0  0  2  0  0  0  0  0  0  0  0  0
   -0.3898   -0.1369   -1.4435 C   0  0  0  0  0  0  0  0  0  0  0  0
    0.1037    0.7444   -2.1441 O   0  0  0  0  0  0  0  0  0  0  0  0
    0.3342    1.1517    0.6336 C   0  0  0  0  0  0  0  0  0  0  0  0
    0.2094    1.2979    2.1520 C   0  0  0  0  0  0  0  0  0  0  0  0
   -1.5386    1.3898    2.6419 S   0  0  0  0  0  0  0  0  0  0  0  0
   -1.9203    3.0114    1.9416 C   0  0  0  0  0  0  0  0  0  0  0  0
    1.2790   -1.2290    0.9021 H   0  0  0  0  0  0  0  0  0  0  0  0
   -1.3529   -0.1821    0.4631 H   0  0  0  0  0  0  0  0  0  0  0  0
   -0.1260    2.0214    0.1455 H   0  0  0  0  0  0  0  0  0  0  0  0
    1.3955    1.1534    0.3539 H   0  0  0  0  0  0  0  0  0  0  0  0
    0.7036    2.2097    2.5002 H   0  0  0  0  0  0  0  0  0  0  0  0
    0.6616    0.4459    2.6683 H   0  0  0  0  0  0  0  0  0  0  0  0
   -2.9658    3.2632    2.1353 H   0  0  0  0  0  0  0  0  0  0  0  0
   -1.7510    2.9985    0.8620 H   0  0  0  0  0  0  0  0  0  0  0  0
   -1.2795    3.7716    2.3948 H   0  0  0  0  0  0  0  0  0  0  0  0
   -1.0886   -1.2339   -1.9267 N   0  0  0  0  0  0  0  0  0  0  0  0
   -1.2951   -1.4649   -3.3372 C   0  0  2  0  0  0  0  0  0  0  0  0
   -2.7085   -2.0002   -3.5241 C   0  0  0  0  0  0  0  0  0  0  0  0
   -3.3409   -2.5523   -2.6261 O   0  0  0  0  0  0  0  0  0  0  0  0
   -0.2673   -2.4372   -3.8949 C   0  0  0  0  0  0  0  0  0  0  0  0
   -1.4399   -1.9297   -1.2756 H   0  0  0  0  0  0  0  0  0  0  0  0
   -1.2035   -0.4926   -3.8336 H   0  0  0  0  0  0  0  0  0  0  0  0
   -0.3437   -3.4170   -3.4096 H   0  0  0  0  0  0  0  0  0  0  0  0
   -0.4076   -2.5892   -4.9702 H   0  0  0  0  0  0  0  0  0  0  0  0
    0.7499   -2.0645   -3.7330 H   0  0  0  0  0  0  0  0  0  0  0  0
   -3.1644   -1.8277   -4.8236 N   0  0  0  0  0  0  0  0  0  0  0  0
   -4.4715   -2.2642   -5.2557 C   0  0  0  0  0  0  0  0  0  0  0  0
   -2.5798   -1.3425   -5.4979 H   0  0  0  0  0  0  0  0  0  0  0  0
   -4.4011   -3.2814   -5.6686 H   0  0  0  0  0  0  0  0  0  0  0  0
   -5.1602   -2.2637   -4.3980 H   0  0  0  0  0  0  0  0  0  0  0  0
   -4.8492   -1.5798   -6.0296 H   0  0  0  0  0  0  0  0  0  0  0  0
  1  3  1  0  0  0  0
  1  7  1  0  0  0  0
  1  2  2  0  0  0  0
 35 36  1  0  0  0  0
 36 44  1  0  0  0  0
 36 37  2  0  0  0  0
  8  9  1  0  0  0  0
  9 17  1  0  0  0  0
  9 10  2  0  0  0  0
 18 19  1  0  0  0  0
 19 34  1  0  0  0  0
 19 20  2  0  0  0  0
 35 38  1  0  0  0  0
  8 11  1  0  0  0  0
 44 45  1  0  0  0  0
 23 24  1  0  0  0  0
 21 22  1  0  0  0  0
 18 21  1  0  0  0  0
 22 23  1  0  0  0  0
 34 35  1  0  0  0  0
  7  8  1  0  0  0  0
 17 18  1  0  0  0  0
  3  4  1  0  0  0  0
  3  5  1  0  0  0  0
  3  6  1  0  0  0  0
 38 41  1  0  0  0  0
 38 42  1  0  0  0  0
 38 43  1  0  0  0  0
 11 14  1  0  0  0  0
 11 15  1  0  0  0  0
 11 16  1  0  0  0  0
 45 47  1  0  0  0  0
 45 48  1  0  0  0  0
 45 49  1  0  0  0  0
 24 31  1  0  0  0  0
 24 32  1  0  0  0  0
 24 33  1  0  0  0  0
 21 27  1  0  0  0  0
 21 28  1  0  0  0  0
 22 29  1  0  0  0  0
 22 30  1  0  0  0  0
 35 40  1  0  0  0  0
  8 13  1  0  0  0  0
 18 26  1  0  0  0  0
 44 46  1  0  0  0  0
  7 12  1  0  0  0  0
 34 39  1  0  0  0  0
 17 25  1  0  0  0  0
M  END
$$$$

  -OEChem-05262214473D

 49 48  0     1  0  0  0  0  0999 V2000
   -0.0561   -5.3799    2.6949 C   0  0  0  0  0  0  0  0  0  0  0  0
    0.7325   -5.0736    3.5815 O   0  0  0  0  0  0  0  0  0  0  0  0
   -1.0067   -6.5099    2.9135 C   0  0  0  0  0  0  0  0  0  0  0  0
   -0.5910   -7.4777    2.5899 H   0  0  0  0  0  0  0  0  0  0  0  0
   -1.2629   -6.6440    3.9767 H   0  0  0  0  0  0  0  0  0  0  0  0
   -1.9729   -6.4206    2.3918 H   0  0  0  0  0  0  0  0  0  0  0  0
   -0.1735   -4.7694    1.4571 N   0  0  0  0  0  0  0  0  0  0  0  0
    0.6439   -3.6603    1.0409 C   0  0  2  0  0  0  0  0  0  0  0  0
   -0.2788   -2.5625    0.5280 C   0  0  0  0  0  0  0  0  0  0  0  0
   -1.4197   -2.7791    0.1251 O   0  0  0  0  0  0  0  0  0  0  0  0
    1.6395   -4.0779   -0.0301 C   0  0  0  0  0  0  0  0  0  0  0  0
   -0.8741   -5.1235    0.8083 H   0  0  0  0  0  0  0  0  0  0  0  0
    1.1738   -3.3062    1.9318 H   0  0  0  0  0  0  0  0  0  0  0  0
    1.1270   -4.4358   -0.9305 H   0  0  0  0  0  0  0  0  0  0  0  0
    2.2797   -3.2400   -0.3251 H   0  0  0  0  0  0  0  0  0  0  0  0
    2.2827   -4.8880    0.3303 H   0  0  0  0  0  0  0  0  0  0  0  0
    0.3351   -1.3153    0.5316 N   0  0  0  0  0  0  0  0  0  0  0  0
   -0.3268   -0.1184    0.0807 C   0  0  2  0  0  0  0  0  0  0  0  0
   -0.3898   -0.1369   -1.4435 C   0  0  0  0  0  0  0  0  0  0  0  0
    0.3161    0.5790   -2.1509 O   0  0  0  0  0  0  0  0  0  0  0  0
    0.3342    1.1517    0.6336 C   0  0  0  0  0  0  0  0  0  0  0  0
    0.2094    1.2979    2.1520 C   0  0  0  0  0  0  0  0  0  0  0  0
   -1.5386    1.3898    2.6419 S   0  0  0  0  0  0  0  0  0  0  0  0
   -1.9203    3.0114    1.9416 C   0  0  0  0  0  0  0  0  0  0  0  0
    1.2790   -1.2290    0.9021 H   0  0  0  0  0  0  0  0  0  0  0  0
   -1.3529   -0.1821    0.4631 H   0  0  0  0  0  0  0  0  0  0  0  0
   -0.1260    2.0214    0.1455 H   0  0  0  0  0  0  0  0  0  0  0  0
    1.3955    1.1534    0.3539 H   0  0  0  0  0  0  0  0  0  0  0  0
    0.7036    2.2097    2.5002 H   0  0  0  0  0  0  0  0  0  0  0  0
    0.6616    0.4459    2.6683 H   0  0  0  0  0  0  0  0  0  0  0  0
   -2.9658    3.2632    2.1353 H   0  0  0  0  0  0  0  0  0  0  0  0
   -1.7510    2.9985    0.8620 H   0  0  0  0  0  0  0  0  0  0  0  0
   -1.2795    3.7716    2.3948 H   0  0  0  0  0  0  0  0  0  0  0  0
   -1.3476   -1.0212   -1.9186 N   0  0  0  0  0  0  0  0  0  0  0  0
   -1.6044   -1.2066   -3.3276 C   0  0  2  0  0  0  0  0  0  0  0  0
   -3.1079   -1.3603   -3.5154 C   0  0  0  0  0  0  0  0  0  0  0  0
   -3.8631   -1.7201   -2.6147 O   0  0  0  0  0  0  0  0  0  0  0  0
   -0.8621   -2.4177   -3.8706 C   0  0  0  0  0  0  0  0  0  0  0  0
   -1.8681   -1.5953   -1.2619 H   0  0  0  0  0  0  0  0  0  0  0  0
   -1.2637   -0.2966   -3.8335 H   0  0  0  0  0  0  0  0  0  0  0  0
   -1.1901   -3.3390   -3.3756 H   0  0  0  0  0  0  0  0  0  0  0  0
   -1.0350   -2.5402   -4.9449 H   0  0  0  0  0  0  0  0  0  0  0  0
    0.2166   -2.3189   -3.7079 H   0  0  0  0  0  0  0  0  0  0  0  0
   -3.5013   -1.0902   -4.8187 N   0  0  0  0  0  0  0  0  0  0  0  0
   -4.8762   -1.1786   -5.2522 C   0  0  0  0  0  0  0  0  0  0  0  0
   -2.8100   -0.7801   -5.4952 H   0  0  0  0  0  0  0  0  0  0  0  0
   -5.0704   -2.1839   -5.6543 H   0  0  0  0  0  0  0  0  0  0  0  0
   -5.5428   -0.9905   -4.3977 H   0  0  0  0  0  0  0  0  0  0  0  0
   -5.0627   -0.4285   -6.0348 H   0  0  0  0  0  0  0  0  0  0  0  0
  1  3  1  0  0  0  0
  1  7  1  0  0  0  0
  1  2  2  0  0  0  0
 35 36  1  0  0  0  0
 36 44  1  0  0  0  0
 36 37  2  0  0  0  0
  8  9  1  0  0  0  0
  9 17  1  0  0  0  0
  9 10  2  0  0  0  0
 18 19  1  0  0  0  0
 19 34  1  0  0  0  0
 19 20  2  0  0  0  0
 35 38  1  0  0  0  0
  8 11  1  0  0  0  0
 44 45  1  0  0  0  0
 23 24  1  0  0  0  0
 21 22  1  0  0  0  0
 18 21  1  0  0  0  0
 22 23  1  0  0  0  0
 34 35  1  0  0  0  0
  7  8  1  0  0  0  0
 17 18  1  0  0  0  0
  3  4  1  0  0  0  0
  3  5  1  0  0  0  0
  3  6  1  0  0  0  0
 38 41  1  0  0  0  0
 38 42  1  0  0  0  0
 38 43  1  0  0  0  0
 11 14  1  0  0  0  0
 11 15  1  0  0  0  0
 11 16  1  0  0  0  0
 45 47  1  0  0  0  0
 45 48  1  0  0  0  0
 45 49  1  0  0  0  0
 24 31  1  0  0  0  0
 24 32  1  0  0  0  0
 24 33  1  0  0  0  0
 21 27  1  0  0  0  0
 21 28  1  0  0  0  0
 22 29  1  0  0  0  0
 22 30  1  0  0  0  0
 35 40  1  0  0  0  0
  8 13  1  0  0  0  0
 18 26  1  0  0  0  0
 44 46  1  0  0  0  0
  7 12  1  0  0  0  0
 34 39  1  0  0  0  0
 17 25  1  0  0  0  0
M  END
$$$$

  -OEChem-05262214473D

 49 48  0     1  0  0  0  0  0999 V2000
   -0.0561   -5.3799    2.6949 C   0  0  0  0  0  0  0  0  0  0  0  0
    0.7325   -5.0736    3.5815 O   0  0  0  0  0  0  0  0  0  0  0  0
   -1.0067   -6.5099    2.9135 C   0  0  0  0  0  0  0  0  0  0  0  0
   -0.5910   -7.4777    2.5899 H   0  0  0  0  0  0  0  0  0  0  0  0
   -1.2629   -6.6440    3.9767 H   0  0  0  0  0  0  0  0  0  0  0  0
   -1.9729   -6.4206    2.3918 H   0  0  0  0  0  0  0  0  0  0  0  0
   -0.1735   -4.7694    1.4571 N   0  0  0  0  0  0  0  0  0  0  0  0
    0.6439   -3.6603    1.0409 C   0  0  2  0  0  0  0  0  0  0  0  0
   -0.2788   -2.5625    0.5280 C   0  0  0  0  0  0  0  0  0  0  0  0
   -1.4197   -2.7791    0.1251 O   0  0  0  0  0  0  0  0  0  0  0  0
    1.6395   -4.0779   -0.0301 C   0  0  0  0  0  0  0  0  0  0  0  0
   -0.8741   -5.1235    0.8083 H   0  0  0  0  0  0  0  0  0  0  0  0
    1.1738   -3.3062    1.9318 H   0  0  0  0  0  0  0  0  0  0  0  0
    1.1270   -4.4358   -0.9305 H   0  0  0  0  0  0  0  0  0  0  0  0
    2.2797   -3.2400   -0.3251 H   0  0  0  0  0  0  0  0  0  0  0  0
    2.2827   -4.8880    0.3303 H   0  0  0  0  0  0  0  0  0  0  0  0
    0.3351   -1.3153    0.5316 N   0  0  0  0  0  0  0  0  0  0  0  0
   -0.3268   -0.1184    0.0807 C   0  0  2  0  0  0  0  0  0  0  0  0
   -0.3898   -0.1369   -1.4435 C   0  0  0  0  0  0  0  0  0  0  0  0
    0.4784    0.3642   -2.1550 O   0  0  0  0  0  0  0  0  0  0  0  0
    0.3342    1.1517    0.6336 C   0  0  0  0  0  0  0  0  0  0  0  0
    0.2094    1.2979    2.1520 C   0  0  0  0  0  0  0  0  0  0  0  0
   -1.5386    1.3898    2.6419 S   0  0  0  0  0  0  0  0  0  0  0  0
   -1.9203    3.0114    1.9416 C   0  0  0  0  0  0  0  0  0  0  0  0
    1.2790   -1.2290    0.9021 H   0  0  0  0  0  0  0  0  0  0  0  0
   -1.3529   -0.1821    0.4631 H   0  0  0  0  0  0  0  0  0  0  0  0
   -0.1260    2.0214    0.1455 H   0  0  0  0  0  0  0  0  0  0  0  0
    1.3955    1.1534    0.3539 H   0  0  0  0  0  0  0  0  0  0  0  0
    0.7036    2.2097    2.5002 H   0  0  0  0  0  0  0  0  0  0  0  0
    0.6616    0.4459    2.6683 H   0  0  0  0  0  0  0  0  0  0  0  0
   -2.9658    3.2632    2.1353 H   0  0  0  0  0  0  0  0  0  0  0  0
   -1.7510    2.9985    0.8620 H   0  0  0  0  0  0  0  0  0  0  0  0
   -1.2795    3.7716    2.3948 H   0  0  0  0  0  0  0  0  0  0  0  0
   -1.5429   -0.7487   -1.9139 N   0  0  0  0  0  0  0  0  0  0  0  0
   -1.8363   -0.8770   -3.3220 C   0  0  2  0  0  0  0  0  0  0  0  0
   -3.3281   -0.6388   -3.5151 C   0  0  0  0  0  0  0  0  0  0  0  0
   -4.1523   -0.7810   -2.6142 O   0  0  0  0  0  0  0  0  0  0  0  0
   -1.4316   -2.2448   -3.8492 C   0  0  0  0  0  0  0  0  0  0  0  0
   -2.1952   -1.1614   -1.2537 H   0  0  0  0  0  0  0  0  0  0  0  0
   -1.2711   -0.0918   -3.8357 H   0  0  0  0  0  0  0  0  0  0  0  0
   -1.9875   -3.0444   -3.3462 H   0  0  0  0  0  0  0  0  0  0  0  0
   -1.6284   -2.3304   -4.9230 H   0  0  0  0  0  0  0  0  0  0  0  0
   -0.3643   -2.4265   -3.6826 H   0  0  0  0  0  0  0  0  0  0  0  0
   -3.6361   -0.2907   -4.8228 N   0  0  0  0  0  0  0  0  0  0  0  0
   -4.9863   -0.0254   -5.2617 C   0  0  0  0  0  0  0  0  0  0  0  0
   -2.8869   -0.1774   -5.4994 H   0  0  0  0  0  0  0  0  0  0  0  0
   -5.4332   -0.9507   -5.6543 H   0  0  0  0  0  0  0  0  0  0  0  0
   -5.5831    0.3381   -4.4122 H   0  0  0  0  0  0  0  0  0  0  0  0
   -4.9711    0.7387   -6.0528 H   0  0  0  0  0  0  0  0  0  0  0  0
  1  3  1  0  0  0  0
  1  7  1  0  0  0  0
  1  2  2  0  0  0  0
 35 36  1  0  0  0  0
 36 44  1  0  0  0  0
 36 37  2  0  0  0  0
  8  9  1  0  0  0  0
  9 17  1  0  0  0  0
  9 10  2  0  0  0  0
 18 19  1  0  0  0  0
 19 34  1  0  0  0  0
 19 20  2  0  0  0  0
 35 38  1  0  0  0  0
  8 11  1  0  0  0  0
 44 45  1  0  0  0  0
 23 24  1  0  0  0  0
 21 22  1  0  0  0  0
 18 21  1  0  0  0  0
 22 23  1  0  0  0  0
 34 35  1  0  0  0  0
  7  8  1  0  0  0  0
 17 18  1  0  0  0  0
  3  4  1  0  0  0  0
  3  5  1  0  0  0  0
  3  6  1  0  0  0  0
 38 41  1  0  0  0  0
 38 42  1  0  0  0  0
 38 43  1  0  0  0  0
 11 14  1  0  0  0  0
 11 15  1  0  0  0  0
 11 16  1  0  0  0  0
 45 47  1  0  0  0  0
 45 48  1  0  0  0  0
 45 49  1  0  0  0  0
 24 31  1  0  0  0  0
 24 32  1  0  0  0  0
 24 33  1  0  0  0  0
 21 27  1  0  0  0  0
 21 28  1  0  0  0  0
 22 29  1  0  0  0  0
 22 30  1  0  0  0  0
 35 40  1  0  0  0  0
  8 13  1  0  0  0  0
 18 26  1  0  0  0  0
 44 46  1  0  0  0  0
  7 12  1  0  0  0  0
 34 39  1  0  0  0  0
 17 25  1  0  0  0  0
M  END
$$$$

  -OEChem-05262214473D

 49 48  0     1  0  0  0  0  0999 V2000
   -0.0561   -5.3799    2.6949 C   0  0  0  0  0  0  0  0  0  0  0  0
    0.7325   -5.0736    3.5815 O   0  0  0  0  0  0  0  0  0  0  0  0
   -1.0067   -6.5099    2.9135 C   0  0  0  0  0  0  0  0  0  0  0  0
   -0.5910   -7.4777    2.5899 H   0  0  0  0  0  0  0  0  0  0  0  0
   -1.2629   -6.6440    3.9767 H   0  0  0  0  0  0  0  0  0  0  0  0
   -1.9729   -6.4206    2.3918 H   0  0  0  0  0  0  0  0  0  0  0  0
   -0.1735   -4.7694    1.4571 N   0  0  0  0  0  0  0  0  0  0  0  0
    0.6439   -3.6603    1.0409 C   0  0  2  0  0  0  0  0  0  0  0  0
   -0.2788   -2.5625    0.5280 C   0  0  0  0  0  0  0  0  0  0  0  0
   -1.4197   -2.7791    0.1251 O   0  0  0  0  0  0  0  0  0  0  0  0
    1.6395   -4.0779   -0.0301 C   0  0  0  0  0  0  0  0  0  0  0  0
   -0.8741   -5.1235    0.8083 H   0  0  0  0  0  0  0  0  0  0  0  0
    1.1738   -3.3062    1.9318 H   0  0  0  0  0  0  0  0  0  0  0  0
    1.1270   -4.4358   -0.9305 H   0  0  0  0  0  0  0  0  0  0  0  0
    2.2797   -3.2400   -0.3251 H   0  0  0  0  0  0  0  0  0  0  0  0
    2.2827   -4.8880    0.3303 H   0  0  0  0  0  0  0  0  0  0  0  0
    0.3351   -1.3153    0.5316 N   0  0  0  0  0  0  0  0  0  0  0  0
   -0.3268   -0.1184    0.0807 C   0  0  2  0  0  0  0  0  0  0  0  0
   -0.3898   -0.1369   -1.4435 C   0  0  0  0  0  0  0  0  0  0  0  0
    0.5797    0.1147   -2.1561 O   0  0  0  0  0  0  0  0  0  0  0  0
    0.3342    1.1517    0.6336 C   0  0  0  0  0  0  0  0  0  0  0  0
    0.2094    1.2979    2.1520 C   0  0  0  0  0  0  0  0  0  0  0  0
   -1.5386    1.3898    2.6419 S   0  0  0  0  0  0  0  0  0  0  0  0
   -1.9203    3.0114    1.9416 C   0  0  0  0  0  0  0  0  0  0  0  0
    1.2790   -1.2290    0.9021 H   0  0  0  0  0  0  0  0  0  0  0  0
   -1.3529   -0.1821    0.4631 H   0  0  0  0  0  0  0  0  0  0  0  0
   -0.1260    2.0214    0.1455 H   0  0  0  0  0  0  0  0  0  0  0  0
    1.3955    1.1534    0.3539 H   0  0  0  0  0  0  0  0  0  0  0  0
    0.7036    2.2097    2.5002 H   0  0  0  0  0  0  0  0  0  0  0  0
    0.6616    0.4459    2.6683 H   0  0  0  0  0  0  0  0  0  0  0  0
   -2.9658    3.2632    2.1353 H   0  0  0  0  0  0  0  0  0  0  0  0
   -1.7510    2.9985    0.8620 H   0  0  0  0  0  0  0  0  0  0  0  0
   -1.2795    3.7716    2.3948 H   0  0  0  0  0  0  0  0  0  0  0  0
   -1.6610   -0.4349   -1.9128 N   0  0  0  0  0  0  0  0  0  0  0  0
   -1.9752   -0.4986   -3.3209 C   0  0  2  0  0  0  0  0  0  0  0  0
   -3.3544    0.1150   -3.5232 C   0  0  0  0  0  0  0  0  0  0  0  0
   -4.1888    0.2007   -2.6247 O   0  0  0  0  0  0  0  0  0  0  0  0
   -1.9370   -1.9303   -3.8321 C   0  0  0  0  0  0  0  0  0  0  0  0
   -2.3990   -0.6575   -1.2514 H   0  0  0  0  0  0  0  0  0  0  0  0
   -1.2252    0.1080   -3.8401 H   0  0  0  0  0  0  0  0  0  0  0  0
   -2.6817   -2.5534   -3.3235 H   0  0  0  0  0  0  0  0  0  0  0  0
   -2.1474   -1.9740   -4.9059 H   0  0  0  0  0  0  0  0  0  0  0  0
   -0.9533   -2.3799   -3.6588 H   0  0  0  0  0  0  0  0  0  0  0  0
   -3.5595    0.5164   -4.8358 N   0  0  0  0  0  0  0  0  0  0  0  0
   -4.7944    1.1169   -5.2835 C   0  0  0  0  0  0  0  0  0  0  0  0
   -2.8054    0.4247   -5.5101 H   0  0  0  0  0  0  0  0  0  0  0  0
   -5.4647    0.3344   -5.6687 H   0  0  0  0  0  0  0  0  0  0  0  0
   -5.2784    1.6318   -4.4405 H   0  0  0  0  0  0  0  0  0  0  0  0
   -4.5808    1.8423   -6.0824 H   0  0  0  0  0  0  0  0  0  0  0  0
  1  3  1  0  0  0  0
  1  7  1  0  0  0  0
  1  2  2  0  0  0  0
 35 36  1  0  0  0  0
 36 44  1  0  0  0  0
 36 37  2  0  0  0  0
  8  9  1  0  0  0  0
  9 17  1  0  0  0  0
  9 10  2  0  0  0  0
 18 19  1  0  0  0  0
 19 34  1  0  0  0  0
 19 20  2  0  0  0  0
 35 38  1  0  0  0  0
  8 11  1  0  0  0  0
 44 45  1  0  0  0  0
 23 24  1  0  0  0  0
 21 22  1  0  0  0  0
 18 21  1  0  0  0  0
 22 23  1  0  0  0  0
 34 35  1  0  0  0  0
  7  8  1  0  0  0  0
 17 18  1  0  0  0  0
  3  4  1  0  0  0  0
  3  5  1  0  0  0  0
  3  6  1  0  0  0  0
 38 41  1  0  0  0  0
 38 42  1  0  0  0  0
 38 43  1  0  0  0  0
 11 14  1  0  0  0  0
 11 15  1  0  0  0  0
 11 16  1  0  0  0  0
 45 47  1  0  0  0  0
 45 48  1  0  0  0  0
 45 49  1  0  0  0  0
 24 31  1  0  0  0  0
 24 32  1  0  0  0  0
 24 33  1  0  0  0  0
 21 27  1  0  0  0  0
 21 28  1  0  0  0  0
 22 29  1  0  0  0  0
 22 30  1  0  0  0  0
 35 40  1  0  0  0  0
  8 13  1  0  0  0  0
 18 26  1  0  0  0  0
 44 46  1  0  0  0  0
  7 12  1  0  0  0  0
 34 39  1  0  0  0  0
 17 25  1  0  0  0  0
M  END
$$$$

  -OEChem-05262214473D

 49 48  0     1  0  0  0  0  0999 V2000
   -0.0561   -5.3799    2.6949 C   0  0  0  0  0  0  0  0  0  0  0  0
    0.7325   -5.0736    3.5815 O   0  0  0  0  0  0  0  0  0  0  0  0
   -1.0067   -6.5099    2.9135 C   0  0  0  0  0  0  0  0  0  0  0  0
   -0.5910   -7.4777    2.5899 H   0  0  0  0  0  0  0  0  0  0  0  0
   -1.2629   -6.6440    3.9767 H   0  0  0  0  0  0  0  0  0  0  0  0
   -1.9729   -6.4206    2.3918 H   0  0  0  0  0  0  0  0  0  0  0  0
   -0.1735   -4.7694    1.4571 N   0  0  0  0  0  0  0  0  0  0  0  0
    0.6439   -3.6603    1.0409 C   0  0  2  0  0  0  0  0  0  0  0  0
   -0.2788   -2.5625    0.5280 C   0  0  0  0  0  0  0  0  0  0  0  0
   -1.4197   -2.7791    0.1251 O   0  0  0  0  0  0  0  0  0  0  0  0
    1.6395   -4.0779   -0.0301 C   0  0  0  0  0  0  0  0  0  0  0  0
   -0.8741   -5.1235    0.8083 H   0  0  0  0  0  0  0  0  0  0  0  0
    1.1738   -3.3062    1.9318 H   0  0  0  0  0  0  0  0  0  0  0  0
    1.1270   -4.4358   -0.9305 H   0  0  0  0  0  0  0  0  0  0  0  0
    2.2797   -3.2400   -0.3251 H   0  0  0  0  0  0  0  0  0  0  0  0
    2.2827   -4.8880    0.3303 H   0  0  0  0  0  0  0  0  0  0  0  0
    0.3351   -1.3153    0.5316 N   0  0  0  0  0  0  0  0  0  0  0  0
   -0.3268   -0.1184    0.0807 C   0  0  2  0  0  0  0  0  0  0  0  0
   -0.3898   -0.1369   -1.4435 C   0  0  0  0  0  0  0  0  0  0  0  0
    0.6131   -0.1524   -2.1543 O   0  0  0  0  0  0  0  0  0  0  0  0
    0.3342    1.1517    0.6336 C   0  0  0  0  0  0  0  0  0  0  0  0
    0.2094    1.2979    2.1520 C   0  0  0  0  0  0  0  0  0  0  0  0
   -1.5386    1.3898    2.6419 S   0  0  0  0  0  0  0  0  0  0  0  0
   -1.9203    3.0114    1.9416 C   0  0  0  0  0  0  0  0  0  0  0  0
    1.2790   -1.2290    0.9021 H   0  0  0  0  0  0  0  0  0  0  0  0
   -1.3529   -0.1821    0.4631 H   0  0  0  0  0  0  0  0  0  0  0  0
   -0.1260    2.0214    0.1455 H   0  0  0  0  0  0  0  0  0  0  0  0
    1.3955    1.1534    0.3539 H   0  0  0  0  0  0  0  0  0  0  0  0
    0.7036    2.2097    2.5002 H   0  0  0  0  0  0  0  0  0  0  0  0
    0.6616    0.4459    2.6683 H   0  0  0  0  0  0  0  0  0  0  0  0
   -2.9658    3.2632    2.1353 H   0  0  0  0  0  0  0  0  0  0  0  0
   -1.7510    2.9985    0.8620 H   0  0  0  0  0  0  0  0  0  0  0  0
   -1.2795    3.7716    2.3948 H   0  0  0  0  0  0  0  0  0  0  0  0
   -1.6940   -0.1013   -1.9155 N   0  0  0  0  0  0  0  0  0  0  0  0
   -2.0115   -0.0972   -3.3243 C   0  0  2  0  0  0  0  0  0  0  0  0
   -3.1847    0.8499   -3.5392 C   0  0  0  0  0  0  0  0  0  0  0  0
   -3.9702    1.1584   -2.6454 O   0  0  0  0  0  0  0  0  0  0  0  0
   -2.3440   -1.4957   -3.8206 C   0  0  0  0  0  0  0  0  0  0  0  0
   -2.4656   -0.1181   -1.2552 H   0  0  0  0  0  0  0  0  0  0  0  0
   -1.1293    0.2891   -3.8462 H   0  0  0  0  0  0  0  0  0  0  0  0
   -3.2254   -1.8993   -3.3090 H   0  0  0  0  0  0  0  0  0  0  0  0
   -2.5566   -1.4954   -4.8948 H   0  0  0  0  0  0  0  0  0  0  0  0
   -1.5103   -2.1824   -3.6382 H   0  0  0  0  0  0  0  0  0  0  0  0
   -3.2768    1.2761   -4.8568 N   0  0  0  0  0  0  0  0  0  0  0  0
   -4.3136    2.1705   -5.3162 C   0  0  0  0  0  0  0  0  0  0  0  0
   -2.5709    0.9850   -5.5266 H   0  0  0  0  0  0  0  0  0  0  0  0
   -5.1629    1.5836   -5.6964 H   0  0  0  0  0  0  0  0  0  0  0  0
   -4.6495    2.8023   -4.4808 H   0  0  0  0  0  0  0  0  0  0  0  0
   -3.9183    2.8070   -6.1215 H   0  0  0  0  0  0  0  0  0  0  0  0
  1  3  1  0  0  0  0
  1  7  1  0  0  0  0
  1  2  2  0  0  0  0
 35 36  1  0  0  0  0
 36 44  1  0  0  0  0
 36 37  2  0  0  0  0
  8  9  1  0  0  0  0
  9 17  1  0  0  0  0
  9 10  2  0  0  0  0
 18 19  1  0  0  0  0
 19 34  1  0  0  0  0
 19 20  2  0  0  0  0
 35 38  1  0  0  0  0
  8 11  1  0  0  0  0
 44 45  1  0  0  0  0
 23 24  1  0  0  0  0
 21 22  1  0  0  0  0
 18 21  1  0  0  0  0
 22 23  1  0  0  0  0
 34 35  1  0  0  0  0
  7  8  1  0  0  0  0
 17 18  1  0  0  0  0
  3  4  1  0  0  0  0
  3  5  1  0  0  0  0
  3  6  1  0  0  0  0
 38 41  1  0  0  0  0
 38 42  1  0  0  0  0
 38 43  1  0  0  0  0
 11 14  1  0  0  0  0
 11 15  1  0  0  0  0
 11 16  1  0  0  0  0
 45 47  1  0  0  0  0
 45 48  1  0  0  0  0
 45 49  1  0  0  0  0
 24 31  1  0  0  0  0
 24 32  1  0  0  0  0
 24 33  1  0  0  0  0
 21 27  1  0  0  0  0
 21 28  1  0  0  0  0
 22 29  1  0  0  0  0
 22 30  1  0  0  0  0
 35 40  1  0  0  0  0
  8 13  1  0  0  0  0
 18 26  1  0  0  0  0
 44 46  1  0  0  0  0
  7 12  1  0  0  0  0
 34 39  1  0  0  0  0
 17 25  1  0  0  0  0
M  END
$$$$

  -OEChem-05262214473D

 49 48  0     1  0  0  0  0  0999 V2000
   -0.0561   -5.3799    2.6949 C   0  0  0  0  0  0  0  0  0  0  0  0
    0.7325   -5.0736    3.5815 O   0  0  0  0  0  0  0  0  0  0  0  0
   -1.0067   -6.5099    2.9135 C   0  0  0  0  0  0  0  0  0  0  0  0
   -0.5910   -7.4777    2.5899 H   0  0  0  0  0  0  0  0  0  0  0  0
   -1.2629   -6.6440    3.9767 H   0  0  0  0  0  0  0  0  0  0  0  0
   -1.9729   -6.4206    2.3918 H   0  0  0  0  0  0  0  0  0  0  0  0
   -0.1735   -4.7694    1.4571 N   0  0  0  0  0  0  0  0  0  0  0  0
    0.6439   -3.6603    1.0409 C   0  0  2  0  0  0  0  0  0  0  0  0
   -0.2788   -2.5625    0.5280 C   0  0  0  0  0  0  0  0  0  0  0  0
   -1.4197   -2.7791    0.1251 O   0  0  0  0  0  0  0  0  0  0  0  0
    1.6395   -4.0779   -0.0301 C   0  0  0  0  0  0  0  0  0  0  0  0
   -0.8741   -5.1235    0.8083 H   0  0  0  0  0  0  0  0  0  0  0  0
    1.1738   -3.3062    1.9318 H   0  0  0  0  0  0  0  0  0  0  0  0
    1.1270   -4.4358   -0.9305 H   0  0  0  0  0  0  0  0  0  0  0  0
    2.2797   -3.2400   -0.3251 H   0  0  0  0  0  0  0  0  0  0  0  0
    2.2827   -4.8880    0.3303 H   0  0  0  0  0  0  0  0  0  0  0  0
    0.3351   -1.3153    0.5316 N   0  0  0  0  0  0  0  0  0  0  0  0
   -0.3268   -0.1184    0.0807 C   0  0  2  0  0  0  0  0  0  0  0  0
   -0.3898   -0.1369   -1.4435 C   0  0  0  0  0  0  0  0  0  0  0  0
    0.5762   -0.4191   -2.1495 O   0  0  0  0  0  0  0  0  0  0  0  0
    0.3342    1.1517    0.6336 C   0  0  0  0  0  0  0  0  0  0  0  0
    0.2094    1.2979    2.1520 C   0  0  0  0  0  0  0  0  0  0  0  0
   -1.5386    1.3898    2.6419 S   0  0  0  0  0  0  0  0  0  0  0  0
   -1.9203    3.0114    1.9416 C   0  0  0  0  0  0  0  0  0  0  0  0
    1.2790   -1.2290    0.9021 H   0  0  0  0  0  0  0  0  0  0  0  0
   -1.3529   -0.1821    0.4631 H   0  0  0  0  0  0  0  0  0  0  0  0
   -0.1260    2.0214    0.1455 H   0  0  0  0  0  0  0  0  0  0  0  0
    1.3955    1.1534    0.3539 H   0  0  0  0  0  0  0  0  0  0  0  0
    0.7036    2.2097    2.5002 H   0  0  0  0  0  0  0  0  0  0  0  0
    0.6616    0.4459    2.6683 H   0  0  0  0  0  0  0  0  0  0  0  0
   -2.9658    3.2632    2.1353 H   0  0  0  0  0  0  0  0  0  0  0  0
   -1.7510    2.9985    0.8620 H   0  0  0  0  0  0  0  0  0  0  0  0
   -1.2795    3.7716    2.3948 H   0  0  0  0  0  0  0  0  0  0  0  0
   -1.6396    0.2295   -1.9218 N   0  0  0  0  0  0  0  0  0  0  0  0
   -1.9428    0.2999   -3.3320 C   0  0  2  0  0  0  0  0  0  0  0  0
   -2.8308    1.5157   -3.5619 C   0  0  0  0  0  0  0  0  0  0  0  0
   -3.5113    2.0267   -2.6749 O   0  0  0  0  0  0  0  0  0  0  0  0
   -2.6247   -0.9705   -3.8154 C   0  0  0  0  0  0  0  0  0  0  0  0
   -2.3905    0.4200   -1.2649 H   0  0  0  0  0  0  0  0  0  0  0  0
   -0.9898    0.4391   -3.8538 H   0  0  0  0  0  0  0  0  0  0  0  0
   -3.5814   -1.1268   -3.3037 H   0  0  0  0  0  0  0  0  0  0  0  0
   -2.8282   -0.9271   -4.8905 H   0  0  0  0  0  0  0  0  0  0  0  0
   -1.9973   -1.8473   -3.6222 H   0  0  0  0  0  0  0  0  0  0  0  0
   -2.8072    1.9366   -4.8842 N   0  0  0  0  0  0  0  0  0  0  0  0
   -3.5767    3.0634   -5.3576 C   0  0  0  0  0  0  0  0  0  0  0  0
   -2.1994    1.4654   -5.5478 H   0  0  0  0  0  0  0  0  0  0  0  0
   -4.5481    2.7120   -5.7355 H   0  0  0  0  0  0  0  0  0  0  0  0
   -3.7392    3.7699   -4.5302 H   0  0  0  0  0  0  0  0  0  0  0  0
   -3.0288    3.5672   -6.1675 H   0  0  0  0  0  0  0  0  0  0  0  0
  1  3  1  0  0  0  0
  1  7  1  0  0  0  0
  1  2  2  0  0  0  0
 35 36  1  0  0  0  0
 36 44  1  0  0  0  0
 36 37  2  0  0  0  0
  8  9  1  0  0  0  0
  9 17  1  0  0  0  0
  9 10  2  0  0  0  0
 18 19  1  0  0  0  0
 19 34  1  0  0  0  0
 19 20  2  0  0  0  0
 35 38  1  0  0  0  0
  8 11  1  0  0  0  0
 44 45  1  0  0  0  0
 23 24  1  0  0  0  0
 21 22  1  0  0  0  0
 18 21  1  0  0  0  0
 22 23  1  0  0  0  0
 34 35  1  0  0  0  0
  7  8  1  0  0  0  0
 17 18  1  0  0  0  0
  3  4  1  0  0  0  0
  3  5  1  0  0  0  0
  3  6  1  0  0  0  0
 38 41  1  0  0  0  0
 38 42  1  0  0  0  0
 38 43  1  0  0  0  0
 11 14  1  0  0  0  0
 11 15  1  0  0  0  0
 11 16  1  0  0  0  0
 45 47  1  0  0  0  0
 45 48  1  0  0  0  0
 45 49  1  0  0  0  0
 24 31  1  0  0  0  0
 24 32  1  0  0  0  0
 24 33  1  0  0  0  0
 21 27  1  0  0  0  0
 21 28  1  0  0  0  0
 22 29  1  0  0  0  0
 22 30  1  0  0  0  0
 35 40  1  0  0  0  0
  8 13  1  0  0  0  0
 18 26  1  0  0  0  0
 44 46  1  0  0  0  0
  7 12  1  0  0  0  0
 34 39  1  0  0  0  0
 17 25  1  0  0  0  0
M  END
$$$$

  -OEChem-05262214473D

 49 48  0     1  0  0  0  0  0999 V2000
   -0.0561   -5.3799    2.6949 C   0  0  0  0  0  0  0  0  0  0  0  0
    0.7325   -5.0736    3.5815 O   0  0  0  0  0  0  0  0  0  0  0  0
   -1.0067   -6.5099    2.9135 C   0  0  0  0  0  0  0  0  0  0  0  0
   -0.5910   -7.4777    2.5899 H   0  0  0  0  0  0  0  0  0  0  0  0
   -1.2629   -6.6440    3.9767 H   0  0  0  0  0  0  0  0  0  0  0  0
   -1.9729   -6.4206    2.3918 H   0  0  0  0  0  0  0  0  0  0  0  0
   -0.1735   -4.7694    1.4571 N   0  0  0  0  0  0  0  0  0  0  0  0
    0.6439   -3.6603    1.0409 C   0  0  2  0  0  0  0  0  0  0  0  0
   -0.2788   -2.5625    0.5280 C   0  0  0  0  0  0  0  0  0  0  0  0
   -1.4197   -2.7791    0.1251 O   0  0  0  0  0  0  0  0  0  0  0  0
    1.6395   -4.0779   -0.0301 C   0  0  0  0  0  0  0  0  0  0  0  0
   -0.8741   -5.1235    0.8083 H   0  0  0  0  0  0  0  0  0  0  0  0
    1.1738   -3.3062    1.9318 H   0  0  0  0  0  0  0  0  0  0  0  0
    1.1270   -4.4358   -0.9305 H   0  0  0  0  0  0  0  0  0  0  0  0
    2.2797   -3.2400   -0.3251 H   0  0  0  0  0  0  0  0  0  0  0  0
    2.2827   -4.8880    0.3303 H   0  0  0  0  0  0  0  0  0  0  0  0
    0.3351   -1.3153    0.5316 N   0  0  0  0  0  0  0  0  0  0  0  0
   -0.3268   -0.1184    0.0807 C   0  0  2  0  0  0  0  0  0  0  0  0
   -0.3898   -0.1369   -1.4435 C   0  0  0  0  0  0  0  0  0  0  0  0
    0.4716   -0.6671   -2.1421 O   0  0  0  0  0  0  0  0  0  0  0  0
    0.3342    1.1517    0.6336 C   0  0  0  0  0  0  0  0  0  0  0  0
    0.2094    1.2979    2.1520 C   0  0  0  0  0  0  0  0  0  0  0  0
   -1.5386    1.3898    2.6419 S   0  0  0  0  0  0  0  0  0  0  0  0
   -1.9203    3.0114    1.9416 C   0  0  0  0  0  0  0  0  0  0  0  0
    1.2790   -1.2290    0.9021 H   0  0  0  0  0  0  0  0  0  0  0  0
   -1.3529   -0.1821    0.4631 H   0  0  0  0  0  0  0  0  0  0  0  0
   -0.1260    2.0214    0.1455 H   0  0  0  0  0  0  0  0  0  0  0  0
    1.3955    1.1534    0.3539 H   0  0  0  0  0  0  0  0  0  0  0  0
    0.7036    2.2097    2.5002 H   0  0  0  0  0  0  0  0  0  0  0  0
    0.6616    0.4459    2.6683 H   0  0  0  0  0  0  0  0  0  0  0  0
   -2.9658    3.2632    2.1353 H   0  0  0  0  0  0  0  0  0  0  0  0
   -1.7510    2.9985    0.8620 H   0  0  0  0  0  0  0  0  0  0  0  0
   -1.2795    3.7716    2.3948 H   0  0  0  0  0  0  0  0  0  0  0  0
   -1.5015    0.5349   -1.9312 N   0  0  0  0  0  0  0  0  0  0  0  0
   -1.7737    0.6657   -3.3434 C   0  0  2  0  0  0  0  0  0  0  0  0
   -2.3167    2.0670   -3.5899 C   0  0  0  0  0  0  0  0  0  0  0  0
   -2.8435    2.7465   -2.7112 O   0  0  0  0  0  0  0  0  0  0  0  0
   -2.7601   -0.3905   -3.8169 C   0  0  0  0  0  0  0  0  0  0  0  0
   -2.1787    0.9204   -1.2797 H   0  0  0  0  0  0  0  0  0  0  0  0
   -0.8162    0.5479   -3.8623 H   0  0  0  0  0  0  0  0  0  0  0  0
   -3.7255   -0.2885   -3.3080 H   0  0  0  0  0  0  0  0  0  0  0  0
   -2.9435   -0.3080   -4.8933 H   0  0  0  0  0  0  0  0  0  0  0  0
   -2.3811   -1.3976   -3.6118 H   0  0  0  0  0  0  0  0  0  0  0  0
   -2.1828    2.4528   -4.9163 N   0  0  0  0  0  0  0  0  0  0  0  0
   -2.6339    3.7350   -5.4047 C   0  0  0  0  0  0  0  0  0  0  0  0
   -1.7163    1.8332   -5.5722 H   0  0  0  0  0  0  0  0  0  0  0  0
   -3.6625    3.6425   -5.7834 H   0  0  0  0  0  0  0  0  0  0  0  0
   -2.6096    4.4685   -4.5853 H   0  0  0  0  0  0  0  0  0  0  0  0
   -1.9729    4.0709   -6.2173 H   0  0  0  0  0  0  0  0  0  0  0  0
  1  3  1  0  0  0  0
  1  7  1  0  0  0  0
  1  2  2  0  0  0  0
 35 36  1  0  0  0  0
 36 44  1  0  0  0  0
 36 37  2  0  0  0  0
  8  9  1  0  0  0  0
  9 17  1  0  0  0  0
  9 10  2  0  0  0  0
 18 19  1  0  0  0  0
 19 34  1  0  0  0  0
 19 20  2  0  0  0  0
 35 38  1  0  0  0  0
  8 11  1  0  0  0  0
 44 45  1  0  0  0  0
 23 24  1  0  0  0  0
 21 22  1  0  0  0  0
 18 21  1  0  0  0  0
 22 23  1  0  0  0  0
 34 35  1  0  0  0  0
  7  8  1  0  0  0  0
 17 18  1  0  0  0  0
  3  4  1  0  0  0  0
  3  5  1  0  0  0  0
  3  6  1  0  0  0  0
 38 41  1  0  0  0  0
 38 42  1  0  0  0  0
 38 43  1  0  0  0  0
 11 14  1  0  0  0  0
 11 15  1  0  0  0  0
 11 16  1  0  0  0  0
 45 47  1  0  0  0  0
 45 48  1  0  0  0  0
 45 49  1  0  0  0  0
 24 31  1  0  0  0  0
 24 32  1  0  0  0  0
 24 33  1  0  0  0  0
 21 27  1  0  0  0  0
 21 28  1  0  0  0  0
 22 29  1  0  0  0  0
 22 30  1  0  0  0  0
 35 40  1  0  0  0  0
  8 13  1  0  0  0  0
 18 26  1  0  0  0  0
 44 46  1  0  0  0  0
  7 12  1  0  0  0  0
 34 39  1  0  0  0  0
 17 25  1  0  0  0  0
M  END
$$$$

  -OEChem-05262214473D

 49 48  0     1  0  0  0  0  0999 V2000
   -0.0561   -5.3799    2.6949 C   0  0  0  0  0  0  0  0  0  0  0  0
    0.7325   -5.0736    3.5815 O   0  0  0  0  0  0  0  0  0  0  0  0
   -1.0067   -6.5099    2.9135 C   0  0  0  0  0  0  0  0  0  0  0  0
   -0.5910   -7.4777    2.5899 H   0  0  0  0  0  0  0  0  0  0  0  0
   -1.2629   -6.6440    3.9767 H   0  0  0  0  0  0  0  0  0  0  0  0
   -1.9729   -6.4206    2.3918 H   0  0  0  0  0  0  0  0  0  0  0  0
   -0.1735   -4.7694    1.4571 N   0  0  0  0  0  0  0  0  0  0  0  0
    0.6439   -3.6603    1.0409 C   0  0  2  0  0  0  0  0  0  0  0  0
   -0.2788   -2.5625    0.5280 C   0  0  0  0  0  0  0  0  0  0  0  0
   -1.4197   -2.7791    0.1251 O   0  0  0  0  0  0  0  0  0  0  0  0
    1.6395   -4.0779   -0.0301 C   0  0  0  0  0  0  0  0  0  0  0  0
   -0.8741   -5.1235    0.8083 H   0  0  0  0  0  0  0  0  0  0  0  0
    1.1738   -3.3062    1.9318 H   0  0  0  0  0  0  0  0  0  0  0  0
    1.1270   -4.4358   -0.9305 H   0  0  0  0  0  0  0  0  0  0  0  0
    2.2797   -3.2400   -0.3251 H   0  0  0  0  0  0  0  0  0  0  0  0
    2.2827   -4.8880    0.3303 H   0  0  0  0  0  0  0  0  0  0  0  0
    0.3351   -1.3153    0.5316 N   0  0  0  0  0  0  0  0  0  0  0  0
   -0.3268   -0.1184    0.0807 C   0  0  2  0  0  0  0  0  0  0  0  0
   -0.3898   -0.1369   -1.4435 C   0  0  0  0  0  0  0  0  0  0  0  0
    0.3065   -0.8795   -2.1327 O   0  0  0  0  0  0  0  0  0  0  0  0
    0.3342    1.1517    0.6336 C   0  0  0  0  0  0  0  0  0  0  0  0
    0.2094    1.2979    2.1520 C   0  0  0  0  0  0  0  0  0  0  0  0
   -1.5386    1.3898    2.6419 S   0  0  0  0  0  0  0  0  0  0  0  0
   -1.9203    3.0114    1.9416 C   0  0  0  0  0  0  0  0  0  0  0  0
    1.2790   -1.2290    0.9021 H   0  0  0  0  0  0  0  0  0  0  0  0
   -1.3529   -0.1821    0.4631 H   0  0  0  0  0  0  0  0  0  0  0  0
   -0.1260    2.0214    0.1455 H   0  0  0  0  0  0  0  0  0  0  0  0
    1.3955    1.1534    0.3539 H   0  0  0  0  0  0  0  0  0  0  0  0
    0.7036    2.2097    2.5002 H   0  0  0  0  0  0  0  0  0  0  0  0
    0.6616    0.4459    2.6683 H   0  0  0  0  0  0  0  0  0  0  0  0
   -2.9658    3.2632    2.1353 H   0  0  0  0  0  0  0  0  0  0  0  0
   -1.7510    2.9985    0.8620 H   0  0  0  0  0  0  0  0  0  0  0  0
   -1.2795    3.7716    2.3948 H   0  0  0  0  0  0  0  0  0  0  0  0
   -1.2891    0.7940   -1.9431 N   0  0  0  0  0  0  0  0  0  0  0  0
   -1.5158    0.9751   -3.3578 C   0  0  2  0  0  0  0  0  0  0  0  0
   -1.6775    2.4664   -3.6211 C   0  0  0  0  0  0  0  0  0  0  0  0
   -2.0122    3.2686   -2.7519 O   0  0  0  0  0  0  0  0  0  0  0  0
   -2.7409    0.2046   -3.8249 C   0  0  0  0  0  0  0  0  0  0  0  0
   -1.8447    1.3487   -1.2988 H   0  0  0  0  0  0  0  0  0  0  0  0
   -0.6203    0.6080   -3.8711 H   0  0  0  0  0  0  0  0  0  0  0  0
   -3.6480    0.5585   -3.3215 H   0  0  0  0  0  0  0  0  0  0  0  0
   -2.8949    0.3199   -4.9029 H   0  0  0  0  0  0  0  0  0  0  0  0
   -2.6356   -0.8638   -3.6078 H   0  0  0  0  0  0  0  0  0  0  0  0
   -1.4460    2.7897   -4.9508 N   0  0  0  0  0  0  0  0  0  0  0  0
   -1.5494    4.1394   -5.4544 C   0  0  0  0  0  0  0  0  0  0  0  0
   -1.1545    2.0633   -5.5982 H   0  0  0  0  0  0  0  0  0  0  0  0
   -2.5662    4.3118   -5.8369 H   0  0  0  0  0  0  0  0  0  0  0  0
   -1.3376    4.8507   -4.6425 H   0  0  0  0  0  0  0  0  0  0  0  0
   -0.8226    4.2839   -6.2674 H   0  0  0  0  0  0  0  0  0  0  0  0
  1  3  1  0  0  0  0
  1  7  1  0  0  0  0
  1  2  2  0  0  0  0
 35 36  1  0  0  0  0
 36 44  1  0  0  0  0
 36 37  2  0  0  0  0
  8  9  1  0  0  0  0
  9 17  1  0  0  0  0
  9 10  2  0  0  0  0
 18 19  1  0  0  0  0
 19 34  1  0  0  0  0
 19 20  2  0  0  0  0
 35 38  1  0  0  0  0
  8 11  1  0  0  0  0
 44 45  1  0  0  0  0
 23 24  1  0  0  0  0
 21 22  1  0  0  0  0
 18 21  1  0  0  0  0
 22 23  1  0  0  0  0
 34 35  1  0  0  0  0
  7  8  1  0  0  0  0
 17 18  1  0  0  0  0
  3  4  1  0  0  0  0
  3  5  1  0  0  0  0
  3  6  1  0  0  0  0
 38 41  1  0  0  0  0
 38 42  1  0  0  0  0
 38 43  1  0  0  0  0
 11 14  1  0  0  0  0
 11 15  1  0  0  0  0
 11 16  1  0  0  0  0
 45 47  1  0  0  0  0
 45 48  1  0  0  0  0
 45 49  1  0  0  0  0
 24 31  1  0  0  0  0
 24 32  1  0  0  0  0
 24 33  1  0  0  0  0
 21 27  1  0  0  0  0
 21 28  1  0  0  0  0
 22 29  1  0  0  0  0
 22 30  1  0  0  0  0
 35 40  1  0  0  0  0
  8 13  1  0  0  0  0
 18 26  1  0  0  0  0
 44 46  1  0  0  0  0
  7 12  1  0  0  0  0
 34 39  1  0  0  0  0
 17 25  1  0  0  0  0
M  END
$$$$

  -OEChem-05262214473D

 49 48  0     1  0  0  0  0  0999 V2000
   -0.0561   -5.3799    2.6949 C   0  0  0  0  0  0  0  0  0  0  0  0
    0.7325   -5.0736    3.5815 O   0  0  0  0  0  0  0  0  0  0  0  0
   -1.0067   -6.5099    2.9135 C   0  0  0  0  0  0  0  0  0  0  0  0
   -0.5910   -7.4777    2.5899 H   0  0  0  0  0  0  0  0  0  0  0  0
   -1.2629   -6.6440    3.9767 H   0  0  0  0  0  0  0  0  0  0  0  0
   -1.9729   -6.4206    2.3918 H   0  0  0  0  0  0  0  0  0  0  0  0
   -0.1735   -4.7694    1.4571 N   0  0  0  0  0  0  0  0  0  0  0  0
    0.6439   -3.6603    1.0409 C   0  0  2  0  0  0  0  0  0  0  0  0
   -0.2788   -2.5625    0.5280 C   0  0  0  0  0  0  0  0  0  0  0  0
   -1.4197   -2.7791    0.1251 O   0  0  0  0  0  0  0  0  0  0  0  0
    1.6395   -4.0779   -0.0301 C   0  0  0  0  0  0  0  0  0  0  0  0
   -0.8741   -5.1235    0.8083 H   0  0  0  0  0  0  0  0  0  0  0  0
    1.1738   -3.3062    1.9318 H   0  0  0  0  0  0  0  0  0  0  0  0
    1.1270   -4.4358   -0.9305 H   0  0  0  0  0  0  0  0  0  0  0  0
    2.2797   -3.2400   -0.3251 H   0  0  0  0  0  0  0  0  0  0  0  0
    2.2827   -4.8880    0.3303 H   0  0  0  0  0  0  0  0  0  0  0  0
    0.3351   -1.3153    0.5316 N   0  0  0  0  0  0  0  0  0  0  0  0
   -0.3268   -0.1184    0.0807 C   0  0  2  0  0  0  0  0  0  0  0  0
   -0.7247   -0.2986   -1.3810 C   0  0  0  0  0  0  0  0  0  0  0  0
   -0.4667   -1.3140   -2.0242 O   0  0  0  0  0  0  0  0  0  0  0  0
    0.5244    1.1371    0.3153 C   0  0  0  0  0  0  0  0  0  0  0  0
    0.7470    1.4606    1.7946 C   0  0  0  0  0  0  0  0  0  0  0  0
   -0.8400    1.7699    2.6251 S   0  0  0  0  0  0  0  0  0  0  0  0
   -1.2552    3.3331    1.8193 C   0  0  0  0  0  0  0  0  0  0  0  0
    1.2790   -1.2290    0.9021 H   0  0  0  0  0  0  0  0  0  0  0  0
   -1.2455   -0.0428    0.6751 H   0  0  0  0  0  0  0  0  0  0  0  0
    0.0284    1.9871   -0.1722 H   0  0  0  0  0  0  0  0  0  0  0  0
    1.4958    1.0081   -0.1791 H   0  0  0  0  0  0  0  0  0  0  0  0
    1.3666    2.3547    1.9116 H   0  0  0  0  0  0  0  0  0  0  0  0
    1.2427    0.6319    2.3089 H   0  0  0  0  0  0  0  0  0  0  0  0
   -2.2129    3.7020    2.1946 H   0  0  0  0  0  0  0  0  0  0  0  0
   -1.3288    3.1855    0.7390 H   0  0  0  0  0  0  0  0  0  0  0  0
   -0.4802    4.0749    2.0267 H   0  0  0  0  0  0  0  0  0  0  0  0
   -1.3713    0.8182   -1.8907 N   0  0  0  0  0  0  0  0  0  0  0  0
   -1.8335    0.8936   -3.2568 C   0  0  2  0  0  0  0  0  0  0  0  0
   -1.5706    2.3050   -3.7650 C   0  0  0  0  0  0  0  0  0  0  0  0
   -1.4365    3.2725   -3.0187 O   0  0  0  0  0  0  0  0  0  0  0  0
   -3.3099    0.5443   -3.3615 C   0  0  0  0  0  0  0  0  0  0  0  0
   -1.5685    1.6047   -1.2790 H   0  0  0  0  0  0  0  0  0  0  0  0
   -1.2347    0.1799   -3.8331 H   0  0  0  0  0  0  0  0  0  0  0  0
   -3.9257    1.2486   -2.7903 H   0  0  0  0  0  0  0  0  0  0  0  0
   -3.6519    0.5742   -4.4013 H   0  0  0  0  0  0  0  0  0  0  0  0
   -3.5017   -0.4598   -2.9681 H   0  0  0  0  0  0  0  0  0  0  0  0
   -1.5463    2.3644   -5.1513 N   0  0  0  0  0  0  0  0  0  0  0  0
   -1.3267    3.5948   -5.8752 C   0  0  0  0  0  0  0  0  0  0  0  0
   -1.6478    1.5093   -5.6900 H   0  0  0  0  0  0  0  0  0  0  0  0
   -2.2952    4.0608   -6.1095 H   0  0  0  0  0  0  0  0  0  0  0  0
   -0.7292    4.2817   -5.2578 H   0  0  0  0  0  0  0  0  0  0  0  0
   -0.7881    3.3791   -6.8098 H   0  0  0  0  0  0  0  0  0  0  0  0
  1  3  1  0  0  0  0
  1  7  1  0  0  0  0
  1  2  2  0  0  0  0
 35 36  1  0  0  0  0
 36 44  1  0  0  0  0
 36 37  2  0  0  0  0
  8  9  1  0  0  0  0
  9 17  1  0  0  0  0
  9 10  2  0  0  0  0
 18 19  1  0  0  0  0
 19 34  1  0  0  0  0
 19 20  2  0  0  0  0
 35 38  1  0  0  0  0
  8 11  1  0  0  0  0
 44 45  1  0  0  0  0
 23 24  1  0  0  0  0
 21 22  1  0  0  0  0
 18 21  1  0  0  0  0
 22 23  1  0  0  0  0
 34 35  1  0  0  0  0
  7  8  1  0  0  0  0
 17 18  1  0  0  0  0
  3  4  1  0  0  0  0
  3  5  1  0  0  0  0
  3  6  1  0  0  0  0
 38 41  1  0  0  0  0
 38 42  1  0  0  0  0
 38 43  1  0  0  0  0
 11 14  1  0  0  0  0
 11 15  1  0  0  0  0
 11 16  1  0  0  0  0
 45 47  1  0  0  0  0
 45 48  1  0  0  0  0
 45 49  1  0  0  0  0
 24 31  1  0  0  0  0
 24 32  1  0  0  0  0
 24 33  1  0  0  0  0
 21 27  1  0  0  0  0
 21 28  1  0  0  0  0
 22 29  1  0  0  0  0
 22 30  1  0  0  0  0
 35 40  1  0  0  0  0
  8 13  1  0  0  0  0
 18 26  1  0  0  0  0
 44 46  1  0  0  0  0
  7 12  1  0  0  0  0
 34 39  1  0  0  0  0
 17 25  1  0  0  0  0
M  END
$$$$

  -OEChem-05262214473D

 49 48  0     1  0  0  0  0  0999 V2000
   -0.0561   -5.3799    2.6949 C   0  0  0  0  0  0  0  0  0  0  0  0
    0.7325   -5.0736    3.5815 O   0  0  0  0  0  0  0  0  0  0  0  0
   -1.0067   -6.5099    2.9135 C   0  0  0  0  0  0  0  0  0  0  0  0
   -0.5910   -7.4777    2.5899 H   0  0  0  0  0  0  0  0  0  0  0  0
   -1.2629   -6.6440    3.9767 H   0  0  0  0  0  0  0  0  0  0  0  0
   -1.9729   -6.4206    2.3918 H   0  0  0  0  0  0  0  0  0  0  0  0
   -0.1735   -4.7694    1.4571 N   0  0  0  0  0  0  0  0  0  0  0  0
    0.6439   -3.6603    1.0409 C   0  0  2  0  0  0  0  0  0  0  0  0
   -0.2788   -2.5625    0.5280 C   0  0  0  0  0  0  0  0  0  0  0  0
   -1.4197   -2.7791    0.1251 O   0  0  0  0  0  0  0  0  0  0  0  0
    1.6395   -4.0779   -0.0301 C   0  0  0  0  0  0  0  0  0  0  0  0
   -0.8741   -5.1235    0.8083 H   0  0  0  0  0  0  0  0  0  0  0  0
    1.1738   -3.3062    1.9318 H   0  0  0  0  0  0  0  0  0  0  0  0
    1.1270   -4.4358   -0.9305 H   0  0  0  0  0  0  0  0  0  0  0  0
    2.2797   -3.2400   -0.3251 H   0  0  0  0  0  0  0  0  0  0  0  0
    2.2827   -4.8880    0.3303 H   0  0  0  0  0  0  0  0  0  0  0  0
    0.3351   -1.3153    0.5316 N   0  0  0  0  0  0  0  0  0  0  0  0
   -0.3268   -0.1184    0.0807 C   0  0  2  0  0  0  0  0  0  0  0  0
   -0.7247   -0.2986   -1.3810 C   0  0  0  0  0  0  0  0  0  0  0  0
   -0.7136   -1.3895   -1.9477 O   0  0  0  0  0  0  0  0  0  0  0  0
    0.5244    1.1371    0.3153 C   0  0  0  0  0  0  0  0  0  0  0  0
    0.7470    1.4606    1.7946 C   0  0  0  0  0  0  0  0  0  0  0  0
   -0.8400    1.7699    2.6251 S   0  0  0  0  0  0  0  0  0  0  0  0
   -1.2552    3.3331    1.8193 C   0  0  0  0  0  0  0  0  0  0  0  0
    1.2790   -1.2290    0.9021 H   0  0  0  0  0  0  0  0  0  0  0  0
   -1.2455   -0.0428    0.6751 H   0  0  0  0  0  0  0  0  0  0  0  0
    0.0284    1.9871   -0.1722 H   0  0  0  0  0  0  0  0  0  0  0  0
    1.4958    1.0081   -0.1791 H   0  0  0  0  0  0  0  0  0  0  0  0
    1.3666    2.3547    1.9116 H   0  0  0  0  0  0  0  0  0  0  0  0
    1.2427    0.6319    2.3089 H   0  0  0  0  0  0  0  0  0  0  0  0
   -2.2129    3.7020    2.1946 H   0  0  0  0  0  0  0  0  0  0  0  0
   -1.3288    3.1855    0.7390 H   0  0  0  0  0  0  0  0  0  0  0  0
   -0.4802    4.0749    2.0267 H   0  0  0  0  0  0  0  0  0  0  0  0
   -1.0614    0.9040   -1.9856 N   0  0  0  0  0  0  0  0  0  0  0  0
   -1.4599    0.9935   -3.3707 C   0  0  2  0  0  0  0  0  0  0  0  0
   -0.8427    2.2563   -3.9571 C   0  0  0  0  0  0  0  0  0  0  0  0
   -0.4884    3.2115   -3.2692 O   0  0  0  0  0  0  0  0  0  0  0  0
   -2.9741    1.0131   -3.5107 C   0  0  0  0  0  0  0  0  0  0  0  0
   -1.0699    1.7564   -1.4334 H   0  0  0  0  0  0  0  0  0  0  0  0
   -1.0452    0.1148   -3.8766 H   0  0  0  0  0  0  0  0  0  0  0  0
   -3.4077    1.8865   -3.0100 H   0  0  0  0  0  0  0  0  0  0  0  0
   -3.2749    1.0522   -4.5628 H   0  0  0  0  0  0  0  0  0  0  0  0
   -3.4186    0.1181   -3.0619 H   0  0  0  0  0  0  0  0  0  0  0  0
   -0.7738    2.2088   -5.3424 N   0  0  0  0  0  0  0  0  0  0  0  0
   -0.2388    3.2920   -6.1340 C   0  0  0  0  0  0  0  0  0  0  0  0
   -1.0731    1.3690   -5.8291 H   0  0  0  0  0  0  0  0  0  0  0  0
   -1.0553    3.9648   -6.4351 H   0  0  0  0  0  0  0  0  0  0  0  0
    0.4971    3.8523   -5.5387 H   0  0  0  0  0  0  0  0  0  0  0  0
    0.2496    2.8839   -7.0311 H   0  0  0  0  0  0  0  0  0  0  0  0
  1  3  1  0  0  0  0
  1  7  1  0  0  0  0
  1  2  2  0  0  0  0
 35 36  1  0  0  0  0
 36 44  1  0  0  0  0
 36 37  2  0  0  0  0
  8  9  1  0  0  0  0
  9 17  1  0  0  0  0
  9 10  2  0  0  0  0
 18 19  1  0  0  0  0
 19 34  1  0  0  0  0
 19 20  2  0  0  0  0
 35 38  1  0  0  0  0
  8 11  1  0  0  0  0
 44 45  1  0  0  0  0
 23 24  1  0  0  0  0
 21 22  1  0  0  0  0
 18 21  1  0  0  0  0
 22 23  1  0  0  0  0
 34 35  1  0  0  0  0
  7  8  1  0  0  0  0
 17 18  1  0  0  0  0
  3  4  1  0  0  0  0
  3  5  1  0  0  0  0
  3  6  1  0  0  0  0
 38 41  1  0  0  0  0
 38 42  1  0  0  0  0
 38 43  1  0  0  0  0
 11 14  1  0  0  0  0
 11 15  1  0  0  0  0
 11 16  1  0  0  0  0
 45 47  1  0  0  0  0
 45 48  1  0  0  0  0
 45 49  1  0  0  0  0
 24 31  1  0  0  0  0
 24 32  1  0  0  0  0
 24 33  1  0  0  0  0
 21 27  1  0  0  0  0
 21 28  1  0  0  0  0
 22 29  1  0  0  0  0
 22 30  1  0  0  0  0
 35 40  1  0  0  0  0
  8 13  1  0  0  0  0
 18 26  1  0  0  0  0
 44 46  1  0  0  0  0
  7 12  1  0  0  0  0
 34 39  1  0  0  0  0
 17 25  1  0  0  0  0
M  END
$$$$

  -OEChem-05262214473D

 49 48  0     1  0  0  0  0  0999 V2000
   -0.0561   -5.3799    2.6949 C   0  0  0  0  0  0  0  0  0  0  0  0
    0.7325   -5.0736    3.5815 O   0  0  0  0  0  0  0  0  0  0  0  0
   -1.0067   -6.5099    2.9135 C   0  0  0  0  0  0  0  0  0  0  0  0
   -0.5910   -7.4777    2.5899 H   0  0  0  0  0  0  0  0  0  0  0  0
   -1.2629   -6.6440    3.9767 H   0  0  0  0  0  0  0  0  0  0  0  0
   -1.9729   -6.4206    2.3918 H   0  0  0  0  0  0  0  0  0  0  0  0
   -0.1735   -4.7694    1.4571 N   0  0  0  0  0  0  0  0  0  0  0  0
    0.6439   -3.6603    1.0409 C   0  0  2  0  0  0  0  0  0  0  0  0
   -0.2788   -2.5625    0.5280 C   0  0  0  0  0  0  0  0  0  0  0  0
   -1.4197   -2.7791    0.1251 O   0  0  0  0  0  0  0  0  0  0  0  0
    1.6395   -4.0779   -0.0301 C   0  0  0  0  0  0  0  0  0  0  0  0
   -0.8741   -5.1235    0.8083 H   0  0  0  0  0  0  0  0  0  0  0  0
    1.1738   -3.3062    1.9318 H   0  0  0  0  0  0  0  0  0  0  0  0
    1.1270   -4.4358   -0.9305 H   0  0  0  0  0  0  0  0  0  0  0  0
    2.2797   -3.2400   -0.3251 H   0  0  0  0  0  0  0  0  0  0  0  0
    2.2827   -4.8880    0.3303 H   0  0  0  0  0  0  0  0  0  0  0  0
    0.3351   -1.3153    0.5316 N   0  0  0  0  0  0  0  0  0  0  0  0
   -0.3268   -0.1184    0.0807 C   0  0  2  0  0  0  0  0  0  0  0  0
   -0.7247   -0.2986   -1.3810 C   0  0  0  0  0  0  0  0  0  0  0  0
   -0.9731   -1.3960   -1.8762 O   0  0  0  0  0  0  0  0  0  0  0  0
    0.5244    1.1371    0.3153 C   0  0  0  0  0  0  0  0  0  0  0  0
    0.7470    1.4606    1.7946 C   0  0  0  0  0  0  0  0  0  0  0  0
   -0.8400    1.7699    2.6251 S   0  0  0  0  0  0  0  0  0  0  0  0
   -1.2552    3.3331    1.8193 C   0  0  0  0  0  0  0  0  0  0  0  0
    1.2790   -1.2290    0.9021 H   0  0  0  0  0  0  0  0  0  0  0  0
   -1.2455   -0.0428    0.6751 H   0  0  0  0  0  0  0  0  0  0  0  0
    0.0284    1.9871   -0.1722 H   0  0  0  0  0  0  0  0  0  0  0  0
    1.4958    1.0081   -0.1791 H   0  0  0  0  0  0  0  0  0  0  0  0
    1.3666    2.3547    1.9116 H   0  0  0  0  0  0  0  0  0  0  0  0
    1.2427    0.6319    2.3089 H   0  0  0  0  0  0  0  0  0  0  0  0
   -2.2129    3.7020    2.1946 H   0  0  0  0  0  0  0  0  0  0  0  0
   -1.3288    3.1855    0.7390 H   0  0  0  0  0  0  0  0  0  0  0  0
   -0.4802    4.0749    2.0267 H   0  0  0  0  0  0  0  0  0  0  0  0
   -0.7379    0.9035   -2.0736 N   0  0  0  0  0  0  0  0  0  0  0  0
   -1.0709    0.9896   -3.4762 C   0  0  2  0  0  0  0  0  0  0  0  0
   -0.1459    2.0158   -4.1171 C   0  0  0  0  0  0  0  0  0  0  0  0
    0.4199    2.9005   -3.4781 O   0  0  0  0  0  0  0  0  0  0  0  0
   -2.5290    1.3725   -3.6761 C   0  0  0  0  0  0  0  0  0  0  0  0
   -0.5460    1.7688   -1.5775 H   0  0  0  0  0  0  0  0  0  0  0  0
   -0.8770    0.0019   -3.9085 H   0  0  0  0  0  0  0  0  0  0  0  0
   -2.7423    2.3594   -3.2494 H   0  0  0  0  0  0  0  0  0  0  0  0
   -2.7873    1.4095   -4.7396 H   0  0  0  0  0  0  0  0  0  0  0  0
   -3.1922    0.6494   -3.1891 H   0  0  0  0  0  0  0  0  0  0  0  0
   -0.0604    1.8540   -5.4928 N   0  0  0  0  0  0  0  0  0  0  0  0
    0.7448    2.7122   -6.3302 C   0  0  0  0  0  0  0  0  0  0  0  0
   -0.5486    1.0816   -5.9364 H   0  0  0  0  0  0  0  0  0  0  0  0
    0.1284    3.5425   -6.7052 H   0  0  0  0  0  0  0  0  0  0  0  0
    1.5838    3.1145   -5.7434 H   0  0  0  0  0  0  0  0  0  0  0  0
    1.1358    2.1332   -7.1798 H   0  0  0  0  0  0  0  0  0  0  0  0
  1  3  1  0  0  0  0
  1  7  1  0  0  0  0
  1  2  2  0  0  0  0
 35 36  1  0  0  0  0
 36 44  1  0  0  0  0
 36 37  2  0  0  0  0
  8  9  1  0  0  0  0
  9 17  1  0  0  0  0
  9 10  2  0  0  0  0
 18 19  1  0  0  0  0
 19 34  1  0  0  0  0
 19 20  2  0  0  0  0
 35 38  1  0  0  0  0
  8 11  1  0  0  0  0
 44 45  1  0  0  0  0
 23 24  1  0  0  0  0
 21 22  1  0  0  0  0
 18 21  1  0  0  0  0
 22 23  1  0  0  0  0
 34 35  1  0  0  0  0
  7  8  1  0  0  0  0
 17 18  1  0  0  0  0
  3  4  1  0  0  0  0
  3  5  1  0  0  0  0
  3  6  1  0  0  0  0
 38 41  1  0  0  0  0
 38 42  1  0  0  0  0
 38 43  1  0  0  0  0
 11 14  1  0  0  0  0
 11 15  1  0  0  0  0
 11 16  1  0  0  0  0
 45 47  1  0  0  0  0
 45 48  1  0  0  0  0
 45 49  1  0  0  0  0
 24 31  1  0  0  0  0
 24 32  1  0  0  0  0
 24 33  1  0  0  0  0
 21 27  1  0  0  0  0
 21 28  1  0  0  0  0
 22 29  1  0  0  0  0
 22 30  1  0  0  0  0
 35 40  1  0  0  0  0
  8 13  1  0  0  0  0
 18 26  1  0  0  0  0
 44 46  1  0  0  0  0
  7 12  1  0  0  0  0
 34 39  1  0  0  0  0
 17 25  1  0  0  0  0
M  END
$$$$

  -OEChem-05262214473D

 49 48  0     1  0  0  0  0  0999 V2000
   -0.0561   -5.3799    2.6949 C   0  0  0  0  0  0  0  0  0  0  0  0
    0.7325   -5.0736    3.5815 O   0  0  0  0  0  0  0  0  0  0  0  0
   -1.0067   -6.5099    2.9135 C   0  0  0  0  0  0  0  0  0  0  0  0
   -0.5910   -7.4777    2.5899 H   0  0  0  0  0  0  0  0  0  0  0  0
   -1.2629   -6.6440    3.9767 H   0  0  0  0  0  0  0  0  0  0  0  0
   -1.9729   -6.4206    2.3918 H   0  0  0  0  0  0  0  0  0  0  0  0
   -0.1735   -4.7694    1.4571 N   0  0  0  0  0  0  0  0  0  0  0  0
    0.6439   -3.6603    1.0409 C   0  0  2  0  0  0  0  0  0  0  0  0
   -0.2788   -2.5625    0.5280 C   0  0  0  0  0  0  0  0  0  0  0  0
   -1.4197   -2.7791    0.1251 O   0  0  0  0  0  0  0  0  0  0  0  0
    1.6395   -4.0779   -0.0301 C   0  0  0  0  0  0  0  0  0  0  0  0
   -0.8741   -5.1235    0.8083 H   0  0  0  0  0  0  0  0  0  0  0  0
    1.1738   -3.3062    1.9318 H   0  0  0  0  0  0  0  0  0  0  0  0
    1.1270   -4.4358   -0.9305 H   0  0  0  0  0  0  0  0  0  0  0  0
    2.2797   -3.2400   -0.3251 H   0  0  0  0  0  0  0  0  0  0  0  0
    2.2827   -4.8880    0.3303 H   0  0  0  0  0  0  0  0  0  0  0  0
    0.3351   -1.3153    0.5316 N   0  0  0  0  0  0  0  0  0  0  0  0
   -0.3268   -0.1184    0.0807 C   0  0  2  0  0  0  0  0  0  0  0  0
   -0.7247   -0.2986   -1.3810 C   0  0  0  0  0  0  0  0  0  0  0  0
   -1.2276   -1.3332   -1.8147 O   0  0  0  0  0  0  0  0  0  0  0  0
    0.5244    1.1371    0.3153 C   0  0  0  0  0  0  0  0  0  0  0  0
    0.7470    1.4606    1.7946 C   0  0  0  0  0  0  0  0  0  0  0  0
   -0.8400    1.7699    2.6251 S   0  0  0  0  0  0  0  0  0  0  0  0
   -1.2552    3.3331    1.8193 C   0  0  0  0  0  0  0  0  0  0  0  0
    1.2790   -1.2290    0.9021 H   0  0  0  0  0  0  0  0  0  0  0  0
   -1.2455   -0.0428    0.6751 H   0  0  0  0  0  0  0  0  0  0  0  0
    0.0284    1.9871   -0.1722 H   0  0  0  0  0  0  0  0  0  0  0  0
    1.4958    1.0081   -0.1791 H   0  0  0  0  0  0  0  0  0  0  0  0
    1.3666    2.3547    1.9116 H   0  0  0  0  0  0  0  0  0  0  0  0
    1.2427    0.6319    2.3089 H   0  0  0  0  0  0  0  0  0  0  0  0
   -2.2129    3.7020    2.1946 H   0  0  0  0  0  0  0  0  0  0  0  0
   -1.3288    3.1855    0.7390 H   0  0  0  0  0  0  0  0  0  0  0  0
   -0.4802    4.0749    2.0267 H   0  0  0  0  0  0  0  0  0  0  0  0
   -0.4228    0.8170   -2.1487 N   0  0  0  0  0  0  0  0  0  0  0  0
   -0.6929    0.8823   -3.5658 C   0  0  2  0  0  0  0  0  0  0  0  0
    0.4725    1.5999   -4.2341 C   0  0  0  0  0  0  0  0  0  0  0  0
    1.2265    2.3607   -3.6310 O   0  0  0  0  0  0  0  0  0  0  0  0
   -2.0049    1.5981   -3.8466 C   0  0  0  0  0  0  0  0  0  0  0  0
   -0.0325    1.6412   -1.7015 H   0  0  0  0  0  0  0  0  0  0  0  0
   -0.7416   -0.1509   -3.9265 H   0  0  0  0  0  0  0  0  0  0  0  0
   -1.9751    2.6350   -3.4922 H   0  0  0  0  0  0  0  0  0  0  0  0
   -2.2223    1.6217   -4.9196 H   0  0  0  0  0  0  0  0  0  0  0  0
   -2.8378    1.0979   -3.3408 H   0  0  0  0  0  0  0  0  0  0  0  0
    0.5453    1.3243   -5.5924 N   0  0  0  0  0  0  0  0  0  0  0  0
    1.5571    1.8950   -6.4506 C   0  0  0  0  0  0  0  0  0  0  0  0
   -0.1100    0.6667   -6.0047 H   0  0  0  0  0  0  0  0  0  0  0  0
    1.1754    2.8229   -6.9015 H   0  0  0  0  0  0  0  0  0  0  0  0
    2.4567    2.1185   -5.8582 H   0  0  0  0  0  0  0  0  0  0  0  0
    1.8103    1.1783   -7.2456 H   0  0  0  0  0  0  0  0  0  0  0  0
  1  3  1  0  0  0  0
  1  7  1  0  0  0  0
  1  2  2  0  0  0  0
 35 36  1  0  0  0  0
 36 44  1  0  0  0  0
 36 37  2  0  0  0  0
  8  9  1  0  0  0  0
  9 17  1  0  0  0  0
  9 10  2  0  0  0  0
 18 19  1  0  0  0  0
 19 34  1  0  0  0  0
 19 20  2  0  0  0  0
 35 38  1  0  0  0  0
  8 11  1  0  0  0  0
 44 45  1  0  0  0  0
 23 24  1  0  0  0  0
 21 22  1  0  0  0  0
 18 21  1  0  0  0  0
 22 23  1  0  0  0  0
 34 35  1  0  0  0  0
  7  8  1  0  0  0  0
 17 18  1  0  0  0  0
  3  4  1  0  0  0  0
  3  5  1  0  0  0  0
  3  6  1  0  0  0  0
 38 41  1  0  0  0  0
 38 42  1  0  0  0  0
 38 43  1  0  0  0  0
 11 14  1  0  0  0  0
 11 15  1  0  0  0  0
 11 16  1  0  0  0  0
 45 47  1  0  0  0  0
 45 48  1  0  0  0  0
 45 49  1  0  0  0  0
 24 31  1  0  0  0  0
 24 32  1  0  0  0  0
 24 33  1  0  0  0  0
 21 27  1  0  0  0  0
 21 28  1  0  0  0  0
 22 29  1  0  0  0  0
 22 30  1  0  0  0  0
 35 40  1  0  0  0  0
  8 13  1  0  0  0  0
 18 26  1  0  0  0  0
 44 46  1  0  0  0  0
  7 12  1  0  0  0  0
 34 39  1  0  0  0  0
 17 25  1  0  0  0  0
M  END
$$$$

  -OEChem-05262214473D

 49 48  0     1  0  0  0  0  0999 V2000
   -0.0561   -5.3799    2.6949 C   0  0  0  0  0  0  0  0  0  0  0  0
    0.7325   -5.0736    3.5815 O   0  0  0  0  0  0  0  0  0  0  0  0
   -1.0067   -6.5099    2.9135 C   0  0  0  0  0  0  0  0  0  0  0  0
   -0.5910   -7.4777    2.5899 H   0  0  0  0  0  0  0  0  0  0  0  0
   -1.2629   -6.6440    3.9767 H   0  0  0  0  0  0  0  0  0  0  0  0
   -1.9729   -6.4206    2.3918 H   0  0  0  0  0  0  0  0  0  0  0  0
   -0.1735   -4.7694    1.4571 N   0  0  0  0  0  0  0  0  0  0  0  0
    0.6439   -3.6603    1.0409 C   0  0  2  0  0  0  0  0  0  0  0  0
   -0.2788   -2.5625    0.5280 C   0  0  0  0  0  0  0  0  0  0  0  0
   -1.4197   -2.7791    0.1251 O   0  0  0  0  0  0  0  0  0  0  0  0
    1.6395   -4.0779   -0.0301 C   0  0  0  0  0  0  0  0  0  0  0  0
   -0.8741   -5.1235    0.8083 H   0  0  0  0  0  0  0  0  0  0  0  0
    1.1738   -3.3062    1.9318 H   0  0  0  0  0  0  0  0  0  0  0  0
    1.1270   -4.4358   -0.9305 H   0  0  0  0  0  0  0  0  0  0  0  0
    2.2797   -3.2400   -0.3251 H   0  0  0  0  0  0  0  0  0  0  0  0
    2.2827   -4.8880    0.3303 H   0  0  0  0  0  0  0  0  0  0  0  0
    0.3351   -1.3153    0.5316 N   0  0  0  0  0  0  0  0  0  0  0  0
   -0.3268   -0.1184    0.0807 C   0  0  2  0  0  0  0  0  0  0  0  0
   -0.7247   -0.2986   -1.3810 C   0  0  0  0  0  0  0  0  0  0  0  0
   -1.4596   -1.2052   -1.7673 O   0  0  0  0  0  0  0  0  0  0  0  0
    0.5244    1.1371    0.3153 C   0  0  0  0  0  0  0  0  0  0  0  0
    0.7470    1.4606    1.7946 C   0  0  0  0  0  0  0  0  0  0  0  0
   -0.8400    1.7699    2.6251 S   0  0  0  0  0  0  0  0  0  0  0  0
   -1.2552    3.3331    1.8193 C   0  0  0  0  0  0  0  0  0  0  0  0
    1.2790   -1.2290    0.9021 H   0  0  0  0  0  0  0  0  0  0  0  0
   -1.2455   -0.0428    0.6751 H   0  0  0  0  0  0  0  0  0  0  0  0
    0.0284    1.9871   -0.1722 H   0  0  0  0  0  0  0  0  0  0  0  0
    1.4958    1.0081   -0.1791 H   0  0  0  0  0  0  0  0  0  0  0  0
    1.3666    2.3547    1.9116 H   0  0  0  0  0  0  0  0  0  0  0  0
    1.2427    0.6319    2.3089 H   0  0  0  0  0  0  0  0  0  0  0  0
   -2.2129    3.7020    2.1946 H   0  0  0  0  0  0  0  0  0  0  0  0
   -1.3288    3.1855    0.7390 H   0  0  0  0  0  0  0  0  0  0  0  0
   -0.4802    4.0749    2.0267 H   0  0  0  0  0  0  0  0  0  0  0  0
   -0.1376    0.6502   -2.2058 N   0  0  0  0  0  0  0  0  0  0  0  0
   -0.3516    0.6789   -3.6336 C   0  0  2  0  0  0  0  0  0  0  0  0
    0.9702    1.0369   -4.3002 C   0  0  0  0  0  0  0  0  0  0  0  0
    1.8765    1.6290   -3.7177 O   0  0  0  0  0  0  0  0  0  0  0  0
   -1.4375    1.6746   -4.0105 C   0  0  0  0  0  0  0  0  0  0  0  0
    0.4357    1.3823   -1.7970 H   0  0  0  0  0  0  0  0  0  0  0  0
   -0.6481   -0.3333   -3.9294 H   0  0  0  0  0  0  0  0  0  0  0  0
   -1.1583    2.6945   -3.7219 H   0  0  0  0  0  0  0  0  0  0  0  0
   -1.6184    1.6745   -5.0904 H   0  0  0  0  0  0  0  0  0  0  0  0
   -2.3797    1.4329   -3.5068 H   0  0  0  0  0  0  0  0  0  0  0  0
    1.0021    0.6556   -5.6342 N   0  0  0  0  0  0  0  0  0  0  0  0
    2.1428    0.8961   -6.4868 C   0  0  0  0  0  0  0  0  0  0  0  0
    0.2130    0.1526   -6.0292 H   0  0  0  0  0  0  0  0  0  0  0  0
    2.0142    1.8549   -7.0104 H   0  0  0  0  0  0  0  0  0  0  0  0
    3.0564    0.9322   -5.8752 H   0  0  0  0  0  0  0  0  0  0  0  0
    2.2270    0.0842   -7.2241 H   0  0  0  0  0  0  0  0  0  0  0  0
  1  3  1  0  0  0  0
  1  7  1  0  0  0  0
  1  2  2  0  0  0  0
 35 36  1  0  0  0  0
 36 44  1  0  0  0  0
 36 37  2  0  0  0  0
  8  9  1  0  0  0  0
  9 17  1  0  0  0  0
  9 10  2  0  0  0  0
 18 19  1  0  0  0  0
 19 34  1  0  0  0  0
 19 20  2  0  0  0  0
 35 38  1  0  0  0  0
  8 11  1  0  0  0  0
 44 45  1  0  0  0  0
 23 24  1  0  0  0  0
 21 22  1  0  0  0  0
 18 21  1  0  0  0  0
 22 23  1  0  0  0  0
 34 35  1  0  0  0  0
  7  8  1  0  0  0  0
 17 18  1  0  0  0  0
  3  4  1  0  0  0  0
  3  5  1  0  0  0  0
  3  6  1  0  0  0  0
 38 41  1  0  0  0  0
 38 42  1  0  0  0  0
 38 43  1  0  0  0  0
 11 14  1  0  0  0  0
 11 15  1  0  0  0  0
 11 16  1  0  0  0  0
 45 47  1  0  0  0  0
 45 48  1  0  0  0  0
 45 49  1  0  0  0  0
 24 31  1  0  0  0  0
 24 32  1  0  0  0  0
 24 33  1  0  0  0  0
 21 27  1  0  0  0  0
 21 28  1  0  0  0  0
 22 29  1  0  0  0  0
 22 30  1  0  0  0  0
 35 40  1  0  0  0  0
  8 13  1  0  0  0  0
 18 26  1  0  0  0  0
 44 46  1  0  0  0  0
  7 12  1  0  0  0  0
 34 39  1  0  0  0  0
 17 25  1  0  0  0  0
M  END
$$$$

  -OEChem-05262214473D

 49 48  0     1  0  0  0  0  0999 V2000
   -0.0561   -5.3799    2.6949 C   0  0  0  0  0  0  0  0  0  0  0  0
    0.7325   -5.0736    3.5815 O   0  0  0  0  0  0  0  0  0  0  0  0
   -1.0067   -6.5099    2.9135 C   0  0  0  0  0  0  0  0  0  0  0  0
   -0.5910   -7.4777    2.5899 H   0  0  0  0  0  0  0  0  0  0  0  0
   -1.2629   -6.6440    3.9767 H   0  0  0  0  0  0  0  0  0  0  0  0
   -1.9729   -6.4206    2.3918 H   0  0  0  0  0  0  0  0  0  0  0  0
   -0.1735   -4.7694    1.4571 N   0  0  0  0  0  0  0  0  0  0  0  0
    0.6439   -3.6603    1.0409 C   0  0  2  0  0  0  0  0  0  0  0  0
   -0.2788   -2.5625    0.5280 C   0  0  0  0  0  0  0  0  0  0  0  0
   -1.4197   -2.7791    0.1251 O   0  0  0  0  0  0  0  0  0  0  0  0
    1.6395   -4.0779   -0.0301 C   0  0  0  0  0  0  0  0  0  0  0  0
   -0.8741   -5.1235    0.8083 H   0  0  0  0  0  0  0  0  0  0  0  0
    1.1738   -3.3062    1.9318 H   0  0  0  0  0  0  0  0  0  0  0  0
    1.1270   -4.4358   -0.9305 H   0  0  0  0  0  0  0  0  0  0  0  0
    2.2797   -3.2400   -0.3251 H   0  0  0  0  0  0  0  0  0  0  0  0
    2.2827   -4.8880    0.3303 H   0  0  0  0  0  0  0  0  0  0  0  0
    0.3351   -1.3153    0.5316 N   0  0  0  0  0  0  0  0  0  0  0  0
   -0.3268   -0.1184    0.0807 C   0  0  2  0  0  0  0  0  0  0  0  0
   -0.7247   -0.2986   -1.3810 C   0  0  0  0  0  0  0  0  0  0  0  0
   -1.6535   -1.0208   -1.7373 O   0  0  0  0  0  0  0  0  0  0  0  0
    0.5244    1.1371    0.3153 C   0  0  0  0  0  0  0  0  0  0  0  0
    0.7470    1.4606    1.7946 C   0  0  0  0  0  0  0  0  0  0  0  0
   -0.8400    1.7699    2.6251 S   0  0  0  0  0  0  0  0  0  0  0  0
   -1.2552    3.3331    1.8193 C   0  0  0  0  0  0  0  0  0  0  0  0
    1.2790   -1.2290    0.9021 H   0  0  0  0  0  0  0  0  0  0  0  0
   -1.2455   -0.0428    0.6751 H   0  0  0  0  0  0  0  0  0  0  0  0
    0.0284    1.9871   -0.1722 H   0  0  0  0  0  0  0  0  0  0  0  0
    1.4958    1.0081   -0.1791 H   0  0  0  0  0  0  0  0  0  0  0  0
    1.3666    2.3547    1.9116 H   0  0  0  0  0  0  0  0  0  0  0  0
    1.2427    0.6319    2.3089 H   0  0  0  0  0  0  0  0  0  0  0  0
   -2.2129    3.7020    2.1946 H   0  0  0  0  0  0  0  0  0  0  0  0
   -1.3288    3.1855    0.7390 H   0  0  0  0  0  0  0  0  0  0  0  0
   -0.4802    4.0749    2.0267 H   0  0  0  0  0  0  0  0  0  0  0  0
    0.0983    0.4145   -2.2409 N   0  0  0  0  0  0  0  0  0  0  0  0
   -0.0703    0.3932   -3.6750 C   0  0  2  0  0  0  0  0  0  0  0  0
    1.3134    0.3652   -4.3107 C   0  0  0  0  0  0  0  0  0  0  0  0
    2.3255    0.7552   -3.7322 O   0  0  0  0  0  0  0  0  0  0  0  0
   -0.8654    1.5967   -4.1566 C   0  0  0  0  0  0  0  0  0  0  0  0
    0.8266    1.0096   -1.8575 H   0  0  0  0  0  0  0  0  0  0  0  0
   -0.6029   -0.5329   -3.9171 H   0  0  0  0  0  0  0  0  0  0  0  0
   -0.3474    2.5340   -3.9228 H   0  0  0  0  0  0  0  0  0  0  0  0
   -1.0168    1.5643   -5.2406 H   0  0  0  0  0  0  0  0  0  0  0  0
   -1.8490    1.6317   -3.6758 H   0  0  0  0  0  0  0  0  0  0  0  0
    1.2788   -0.1064   -5.6156 N   0  0  0  0  0  0  0  0  0  0  0  0
    2.4620   -0.2164   -6.4365 C   0  0  0  0  0  0  0  0  0  0  0  0
    0.3981   -0.4258   -6.0082 H   0  0  0  0  0  0  0  0  0  0  0  0
    2.5878    0.7045   -7.0247 H   0  0  0  0  0  0  0  0  0  0  0  0
    3.3420   -0.3636   -5.7931 H   0  0  0  0  0  0  0  0  0  0  0  0
    2.3576   -1.0745   -7.1168 H   0  0  0  0  0  0  0  0  0  0  0  0
  1  3  1  0  0  0  0
  1  7  1  0  0  0  0
  1  2  2  0  0  0  0
 35 36  1  0  0  0  0
 36 44  1  0  0  0  0
 36 37  2  0  0  0  0
  8  9  1  0  0  0  0
  9 17  1  0  0  0  0
  9 10  2  0  0  0  0
 18 19  1  0  0  0  0
 19 34  1  0  0  0  0
 19 20  2  0  0  0  0
 35 38  1  0  0  0  0
  8 11  1  0  0  0  0
 44 45  1  0  0  0  0
 23 24  1  0  0  0  0
 21 22  1  0  0  0  0
 18 21  1  0  0  0  0
 22 23  1  0  0  0  0
 34 35  1  0  0  0  0
  7  8  1  0  0  0  0
 17 18  1  0  0  0  0
  3  4  1  0  0  0  0
  3  5  1  0  0  0  0
  3  6  1  0  0  0  0
 38 41  1  0  0  0  0
 38 42  1  0  0  0  0
 38 43  1  0  0  0  0
 11 14  1  0  0  0  0
 11 15  1  0  0  0  0
 11 16  1  0  0  0  0
 45 47  1  0  0  0  0
 45 48  1  0  0  0  0
 45 49  1  0  0  0  0
 24 31  1  0  0  0  0
 24 32  1  0  0  0  0
 24 33  1  0  0  0  0
 21 27  1  0  0  0  0
 21 28  1  0  0  0  0
 22 29  1  0  0  0  0
 22 30  1  0  0  0  0
 35 40  1  0  0  0  0
  8 13  1  0  0  0  0
 18 26  1  0  0  0  0
 44 46  1  0  0  0  0
  7 12  1  0  0  0  0
 34 39  1  0  0  0  0
 17 25  1  0  0  0  0
M  END
$$$$

  -OEChem-05262214473D

 49 48  0     1  0  0  0  0  0999 V2000
   -0.0561   -5.3799    2.6949 C   0  0  0  0  0  0  0  0  0  0  0  0
    0.7325   -5.0736    3.5815 O   0  0  0  0  0  0  0  0  0  0  0  0
   -1.0067   -6.5099    2.9135 C   0  0  0  0  0  0  0  0  0  0  0  0
   -0.5910   -7.4777    2.5899 H   0  0  0  0  0  0  0  0  0  0  0  0
   -1.2629   -6.6440    3.9767 H   0  0  0  0  0  0  0  0  0  0  0  0
   -1.9729   -6.4206    2.3918 H   0  0  0  0  0  0  0  0  0  0  0  0
   -0.1735   -4.7694    1.4571 N   0  0  0  0  0  0  0  0  0  0  0  0
    0.6439   -3.6603    1.0409 C   0  0  2  0  0  0  0  0  0  0  0  0
   -0.2788   -2.5625    0.5280 C   0  0  0  0  0  0  0  0  0  0  0  0
   -1.4197   -2.7791    0.1251 O   0  0  0  0  0  0  0  0  0  0  0  0
    1.6395   -4.0779   -0.0301 C   0  0  0  0  0  0  0  0  0  0  0  0
   -0.8741   -5.1235    0.8083 H   0  0  0  0  0  0  0  0  0  0  0  0
    1.1738   -3.3062    1.9318 H   0  0  0  0  0  0  0  0  0  0  0  0
    1.1270   -4.4358   -0.9305 H   0  0  0  0  0  0  0  0  0  0  0  0
    2.2797   -3.2400   -0.3251 H   0  0  0  0  0  0  0  0  0  0  0  0
    2.2827   -4.8880    0.3303 H   0  0  0  0  0  0  0  0  0  0  0  0
    0.3351   -1.3153    0.5316 N   0  0  0  0  0  0  0  0  0  0  0  0
   -0.3268   -0.1184    0.0807 C   0  0  2  0  0  0  0  0  0  0  0  0
   -0.7247   -0.2986   -1.3810 C   0  0  0  0  0  0  0  0  0  0  0  0
   -1.7960   -0.7926   -1.7267 O   0  0  0  0  0  0  0  0  0  0  0  0
    0.5244    1.1371    0.3153 C   0  0  0  0  0  0  0  0  0  0  0  0
    0.7470    1.4606    1.7946 C   0  0  0  0  0  0  0  0  0  0  0  0
   -0.8400    1.7699    2.6251 S   0  0  0  0  0  0  0  0  0  0  0  0
   -1.2552    3.3331    1.8193 C   0  0  0  0  0  0  0  0  0  0  0  0
    1.2790   -1.2290    0.9021 H   0  0  0  0  0  0  0  0  0  0  0  0
   -1.2455   -0.0428    0.6751 H   0  0  0  0  0  0  0  0  0  0  0  0
    0.0284    1.9871   -0.1722 H   0  0  0  0  0  0  0  0  0  0  0  0
    1.4958    1.0081   -0.1791 H   0  0  0  0  0  0  0  0  0  0  0  0
    1.3666    2.3547    1.9116 H   0  0  0  0  0  0  0  0  0  0  0  0
    1.2427    0.6319    2.3089 H   0  0  0  0  0  0  0  0  0  0  0  0
   -2.2129    3.7020    2.1946 H   0  0  0  0  0  0  0  0  0  0  0  0
   -1.3288    3.1855    0.7390 H   0  0  0  0  0  0  0  0  0  0  0  0
   -0.4802    4.0749    2.0267 H   0  0  0  0  0  0  0  0  0  0  0  0
    0.2687    0.1259   -2.2517 N   0  0  0  0  0  0  0  0  0  0  0  0
    0.1319    0.0447   -3.6870 C   0  0  2  0  0  0  0  0  0  0  0  0
    1.4786   -0.3695   -4.2651 C   0  0  0  0  0  0  0  0  0  0  0  0
    2.5429   -0.2012   -3.6734 O   0  0  0  0  0  0  0  0  0  0  0  0
   -0.3277    1.3697   -4.2750 C   0  0  0  0  0  0  0  0  0  0  0  0
    1.1137    0.5485   -1.8788 H   0  0  0  0  0  0  0  0  0  0  0  0
   -0.6092   -0.7361   -3.8904 H   0  0  0  0  0  0  0  0  0  0  0  0
    0.4021    2.1643   -4.0812 H   0  0  0  0  0  0  0  0  0  0  0  0
   -0.4584    1.2984   -5.3598 H   0  0  0  0  0  0  0  0  0  0  0  0
   -1.2819    1.6807   -3.8362 H   0  0  0  0  0  0  0  0  0  0  0  0
    1.3565   -0.9097   -5.5377 N   0  0  0  0  0  0  0  0  0  0  0  0
    2.4928   -1.3668   -6.3030 C   0  0  0  0  0  0  0  0  0  0  0  0
    0.4329   -1.0290   -5.9433 H   0  0  0  0  0  0  0  0  0  0  0  0
    2.8570   -0.5498   -6.9432 H   0  0  0  0  0  0  0  0  0  0  0  0
    3.2941   -1.6804   -5.6177 H   0  0  0  0  0  0  0  0  0  0  0  0
    2.1930   -2.2188   -6.9309 H   0  0  0  0  0  0  0  0  0  0  0  0
  1  3  1  0  0  0  0
  1  7  1  0  0  0  0
  1  2  2  0  0  0  0
 35 36  1  0  0  0  0
 36 44  1  0  0  0  0
 36 37  2  0  0  0  0
  8  9  1  0  0  0  0
  9 17  1  0  0  0  0
  9 10  2  0  0  0  0
 18 19  1  0  0  0  0
 19 34  1  0  0  0  0
 19 20  2  0  0  0  0
 35 38  1  0  0  0  0
  8 11  1  0  0  0  0
 44 45  1  0  0  0  0
 23 24  1  0  0  0  0
 21 22  1  0  0  0  0
 18 21  1  0  0  0  0
 22 23  1  0  0  0  0
 34 35  1  0  0  0  0
  7  8  1  0  0  0  0
 17 18  1  0  0  0  0
  3  4  1  0  0  0  0
  3  5  1  0  0  0  0
  3  6  1  0  0  0  0
 38 41  1  0  0  0  0
 38 42  1  0  0  0  0
 38 43  1  0  0  0  0
 11 14  1  0  0  0  0
 11 15  1  0  0  0  0
 11 16  1  0  0  0  0
 45 47  1  0  0  0  0
 45 48  1  0  0  0  0
 45 49  1  0  0  0  0
 24 31  1  0  0  0  0
 24 32  1  0  0  0  0
 24 33  1  0  0  0  0
 21 27  1  0  0  0  0
 21 28  1  0  0  0  0
 22 29  1  0  0  0  0
 22 30  1  0  0  0  0
 35 40  1  0  0  0  0
  8 13  1  0  0  0  0
 18 26  1  0  0  0  0
 44 46  1  0  0  0  0
  7 12  1  0  0  0  0
 34 39  1  0  0  0  0
 17 25  1  0  0  0  0
M  END
$$$$

  -OEChem-05262214473D

 49 48  0     1  0  0  0  0  0999 V2000
   -0.0561   -5.3799    2.6949 C   0  0  0  0  0  0  0  0  0  0  0  0
    0.7325   -5.0736    3.5815 O   0  0  0  0  0  0  0  0  0  0  0  0
   -1.0067   -6.5099    2.9135 C   0  0  0  0  0  0  0  0  0  0  0  0
   -0.5910   -7.4777    2.5899 H   0  0  0  0  0  0  0  0  0  0  0  0
   -1.2629   -6.6440    3.9767 H   0  0  0  0  0  0  0  0  0  0  0  0
   -1.9729   -6.4206    2.3918 H   0  0  0  0  0  0  0  0  0  0  0  0
   -0.1735   -4.7694    1.4571 N   0  0  0  0  0  0  0  0  0  0  0  0
    0.6439   -3.6603    1.0409 C   0  0  2  0  0  0  0  0  0  0  0  0
   -0.2788   -2.5625    0.5280 C   0  0  0  0  0  0  0  0  0  0  0  0
   -1.4197   -2.7791    0.1251 O   0  0  0  0  0  0  0  0  0  0  0  0
    1.6395   -4.0779   -0.0301 C   0  0  0  0  0  0  0  0  0  0  0  0
   -0.8741   -5.1235    0.8083 H   0  0  0  0  0  0  0  0  0  0  0  0
    1.1738   -3.3062    1.9318 H   0  0  0  0  0  0  0  0  0  0  0  0
    1.1270   -4.4358   -0.9305 H   0  0  0  0  0  0  0  0  0  0  0  0
    2.2797   -3.2400   -0.3251 H   0  0  0  0  0  0  0  0  0  0  0  0
    2.2827   -4.8880    0.3303 H   0  0  0  0  0  0  0  0  0  0  0  0
    0.3351   -1.3153    0.5316 N   0  0  0  0  0  0  0  0  0  0  0  0
   -0.3268   -0.1184    0.0807 C   0  0  2  0  0  0  0  0  0  0  0  0
   -0.7247   -0.2986   -1.3810 C   0  0  0  0  0  0  0  0  0  0  0  0
   -1.8774   -0.5361   -1.7361 O   0  0  0  0  0  0  0  0  0  0  0  0
    0.5244    1.1371    0.3153 C   0  0  0  0  0  0  0  0  0  0  0  0
    0.7470    1.4606    1.7946 C   0  0  0  0  0  0  0  0  0  0  0  0
   -0.8400    1.7699    2.6251 S   0  0  0  0  0  0  0  0  0  0  0  0
   -1.2552    3.3331    1.8193 C   0  0  0  0  0  0  0  0  0  0  0  0
    1.2790   -1.2290    0.9021 H   0  0  0  0  0  0  0  0  0  0  0  0
   -1.2455   -0.0428    0.6751 H   0  0  0  0  0  0  0  0  0  0  0  0
    0.0284    1.9871   -0.1722 H   0  0  0  0  0  0  0  0  0  0  0  0
    1.4958    1.0081   -0.1791 H   0  0  0  0  0  0  0  0  0  0  0  0
    1.3666    2.3547    1.9116 H   0  0  0  0  0  0  0  0  0  0  0  0
    1.2427    0.6319    2.3089 H   0  0  0  0  0  0  0  0  0  0  0  0
   -2.2129    3.7020    2.1946 H   0  0  0  0  0  0  0  0  0  0  0  0
   -1.3288    3.1855    0.7390 H   0  0  0  0  0  0  0  0  0  0  0  0
   -0.4802    4.0749    2.0267 H   0  0  0  0  0  0  0  0  0  0  0  0
    0.3621   -0.1958   -2.2374 N   0  0  0  0  0  0  0  0  0  0  0  0
    0.2410   -0.3429   -3.6689 C   0  0  2  0  0  0  0  0  0  0  0  0
    1.4547   -1.1170   -4.1664 C   0  0  0  0  0  0  0  0  0  0  0  0
    2.5140   -1.1749   -3.5455 O   0  0  0  0  0  0  0  0  0  0  0  0
    0.1390    1.0091   -4.3575 C   0  0  0  0  0  0  0  0  0  0  0  0
    1.2772    0.0306   -1.8594 H   0  0  0  0  0  0  0  0  0  0  0  0
   -0.6664   -0.9290   -3.8510 H   0  0  0  0  0  0  0  0  0  0  0  0
    1.0392    1.6106   -4.1864 H   0  0  0  0  0  0  0  0  0  0  0  0
    0.0186    0.8951   -5.4399 H   0  0  0  0  0  0  0  0  0  0  0  0
   -0.7171    1.5766   -3.9771 H   0  0  0  0  0  0  0  0  0  0  0  0
    1.2299   -1.6997   -5.4058 N   0  0  0  0  0  0  0  0  0  0  0  0
    2.2332   -2.4767   -6.0955 C   0  0  0  0  0  0  0  0  0  0  0  0
    0.3149   -1.6158   -5.8388 H   0  0  0  0  0  0  0  0  0  0  0  0
    2.8034   -1.8227   -6.7717 H   0  0  0  0  0  0  0  0  0  0  0  0
    2.9158   -2.9287   -5.3608 H   0  0  0  0  0  0  0  0  0  0  0  0
    1.7447   -3.2708   -6.6791 H   0  0  0  0  0  0  0  0  0  0  0  0
  1  3  1  0  0  0  0
  1  7  1  0  0  0  0
  1  2  2  0  0  0  0
 35 36  1  0  0  0  0
 36 44  1  0  0  0  0
 36 37  2  0  0  0  0
  8  9  1  0  0  0  0
  9 17  1  0  0  0  0
  9 10  2  0  0  0  0
 18 19  1  0  0  0  0
 19 34  1  0  0  0  0
 19 20  2  0  0  0  0
 35 38  1  0  0  0  0
  8 11  1  0  0  0  0
 44 45  1  0  0  0  0
 23 24  1  0  0  0  0
 21 22  1  0  0  0  0
 18 21  1  0  0  0  0
 22 23  1  0  0  0  0
 34 35  1  0  0  0  0
  7  8  1  0  0  0  0
 17 18  1  0  0  0  0
  3  4  1  0  0  0  0
  3  5  1  0  0  0  0
  3  6  1  0  0  0  0
 38 41  1  0  0  0  0
 38 42  1  0  0  0  0
 38 43  1  0  0  0  0
 11 14  1  0  0  0  0
 11 15  1  0  0  0  0
 11 16  1  0  0  0  0
 45 47  1  0  0  0  0
 45 48  1  0  0  0  0
 45 49  1  0  0  0  0
 24 31  1  0  0  0  0
 24 32  1  0  0  0  0
 24 33  1  0  0  0  0
 21 27  1  0  0  0  0
 21 28  1  0  0  0  0
 22 29  1  0  0  0  0
 22 30  1  0  0  0  0
 35 40  1  0  0  0  0
  8 13  1  0  0  0  0
 18 26  1  0  0  0  0
 44 46  1  0  0  0  0
  7 12  1  0  0  0  0
 34 39  1  0  0  0  0
 17 25  1  0  0  0  0
M  END
$$$$

  -OEChem-05262214473D

 49 48  0     1  0  0  0  0  0999 V2000
   -0.0561   -5.3799    2.6949 C   0  0  0  0  0  0  0  0  0  0  0  0
    0.7325   -5.0736    3.5815 O   0  0  0  0  0  0  0  0  0  0  0  0
   -1.0067   -6.5099    2.9135 C   0  0  0  0  0  0  0  0  0  0  0  0
   -0.5910   -7.4777    2.5899 H   0  0  0  0  0  0  0  0  0  0  0  0
   -1.2629   -6.6440    3.9767 H   0  0  0  0  0  0  0  0  0  0  0  0
   -1.9729   -6.4206    2.3918 H   0  0  0  0  0  0  0  0  0  0  0  0
   -0.1735   -4.7694    1.4571 N   0  0  0  0  0  0  0  0  0  0  0  0
    0.6439   -3.6603    1.0409 C   0  0  2  0  0  0  0  0  0  0  0  0
   -0.2788   -2.5625    0.5280 C   0  0  0  0  0  0  0  0  0  0  0  0
   -1.4197   -2.7791    0.1251 O   0  0  0  0  0  0  0  0  0  0  0  0
    1.6395   -4.0779   -0.0301 C   0  0  0  0  0  0  0  0  0  0  0  0
   -0.8741   -5.1235    0.8083 H   0  0  0  0  0  0  0  0  0  0  0  0
    1.1738   -3.3062    1.9318 H   0  0  0  0  0  0  0  0  0  0  0  0
    1.1270   -4.4358   -0.9305 H   0  0  0  0  0  0  0  0  0  0  0  0
    2.2797   -3.2400   -0.3251 H   0  0  0  0  0  0  0  0  0  0  0  0
    2.2827   -4.8880    0.3303 H   0  0  0  0  0  0  0  0  0  0  0  0
    0.3351   -1.3153    0.5316 N   0  0  0  0  0  0  0  0  0  0  0  0
   -0.3268   -0.1184    0.0807 C   0  0  2  0  0  0  0  0  0  0  0  0
   -0.7247   -0.2986   -1.3810 C   0  0  0  0  0  0  0  0  0  0  0  0
   -1.8921   -0.2688   -1.7651 O   0  0  0  0  0  0  0  0  0  0  0  0
    0.5244    1.1371    0.3153 C   0  0  0  0  0  0  0  0  0  0  0  0
    0.7470    1.4606    1.7946 C   0  0  0  0  0  0  0  0  0  0  0  0
   -0.8400    1.7699    2.6251 S   0  0  0  0  0  0  0  0  0  0  0  0
   -1.2552    3.3331    1.8193 C   0  0  0  0  0  0  0  0  0  0  0  0
    1.2790   -1.2290    0.9021 H   0  0  0  0  0  0  0  0  0  0  0  0
   -1.2455   -0.0428    0.6751 H   0  0  0  0  0  0  0  0  0  0  0  0
    0.0284    1.9871   -0.1722 H   0  0  0  0  0  0  0  0  0  0  0  0
    1.4958    1.0081   -0.1791 H   0  0  0  0  0  0  0  0  0  0  0  0
    1.3666    2.3547    1.9116 H   0  0  0  0  0  0  0  0  0  0  0  0
    1.2427    0.6319    2.3089 H   0  0  0  0  0  0  0  0  0  0  0  0
   -2.2129    3.7020    2.1946 H   0  0  0  0  0  0  0  0  0  0  0  0
   -1.3288    3.1855    0.7390 H   0  0  0  0  0  0  0  0  0  0  0  0
   -0.4802    4.0749    2.0267 H   0  0  0  0  0  0  0  0  0  0  0  0
    0.3721   -0.5287   -2.1991 N   0  0  0  0  0  0  0  0  0  0  0  0
    0.2498   -0.7432   -3.6220 C   0  0  2  0  0  0  0  0  0  0  0  0
    1.2431   -1.8264   -4.0213 C   0  0  0  0  0  0  0  0  0  0  0  0
    2.2407   -2.0997   -3.3571 O   0  0  0  0  0  0  0  0  0  0  0  0
    0.5029    0.5395   -4.3987 C   0  0  0  0  0  0  0  0  0  0  0  0
    1.3062   -0.5089   -1.8008 H   0  0  0  0  0  0  0  0  0  0  0  0
   -0.7707   -1.0984   -3.8017 H   0  0  0  0  0  0  0  0  0  0  0  0
    1.5206    0.9107   -4.2311 H   0  0  0  0  0  0  0  0  0  0  0  0
    0.3818    0.3818   -5.4755 H   0  0  0  0  0  0  0  0  0  0  0  0
   -0.1931    1.3265   -4.0889 H   0  0  0  0  0  0  0  0  0  0  0  0
    0.9077   -2.4224   -5.2290 N   0  0  0  0  0  0  0  0  0  0  0  0
    1.7009   -3.4703   -5.8281 C   0  0  0  0  0  0  0  0  0  0  0  0
    0.0523   -2.1464   -5.7019 H   0  0  0  0  0  0  0  0  0  0  0  0
    2.4308   -3.0274   -6.5217 H   0  0  0  0  0  0  0  0  0  0  0  0
    2.2331   -4.0233   -5.0400 H   0  0  0  0  0  0  0  0  0  0  0  0
    1.0430   -4.1588   -6.3786 H   0  0  0  0  0  0  0  0  0  0  0  0
  1  3  1  0  0  0  0
  1  7  1  0  0  0  0
  1  2  2  0  0  0  0
 35 36  1  0  0  0  0
 36 44  1  0  0  0  0
 36 37  2  0  0  0  0
  8  9  1  0  0  0  0
  9 17  1  0  0  0  0
  9 10  2  0  0  0  0
 18 19  1  0  0  0  0
 19 34  1  0  0  0  0
 19 20  2  0  0  0  0
 35 38  1  0  0  0  0
  8 11  1  0  0  0  0
 44 45  1  0  0  0  0
 23 24  1  0  0  0  0
 21 22  1  0  0  0  0
 18 21  1  0  0  0  0
 22 23  1  0  0  0  0
 34 35  1  0  0  0  0
  7  8  1  0  0  0  0
 17 18  1  0  0  0  0
  3  4  1  0  0  0  0
  3  5  1  0  0  0  0
  3  6  1  0  0  0  0
 38 41  1  0  0  0  0
 38 42  1  0  0  0  0
 38 43  1  0  0  0  0
 11 14  1  0  0  0  0
 11 15  1  0  0  0  0
 11 16  1  0  0  0  0
 45 47  1  0  0  0  0
 45 48  1  0  0  0  0
 45 49  1  0  0  0  0
 24 31  1  0  0  0  0
 24 32  1  0  0  0  0
 24 33  1  0  0  0  0
 21 27  1  0  0  0  0
 21 28  1  0  0  0  0
 22 29  1  0  0  0  0
 22 30  1  0  0  0  0
 35 40  1  0  0  0  0
  8 13  1  0  0  0  0
 18 26  1  0  0  0  0
 44 46  1  0  0  0  0
  7 12  1  0  0  0  0
 34 39  1  0  0  0  0
 17 25  1  0  0  0  0
M  END
$$$$

  -OEChem-05262214473D

 49 48  0     1  0  0  0  0  0999 V2000
   -0.0561   -5.3799    2.6949 C   0  0  0  0  0  0  0  0  0  0  0  0
    0.7325   -5.0736    3.5815 O   0  0  0  0  0  0  0  0  0  0  0  0
   -1.0067   -6.5099    2.9135 C   0  0  0  0  0  0  0  0  0  0  0  0
   -0.5910   -7.4777    2.5899 H   0  0  0  0  0  0  0  0  0  0  0  0
   -1.2629   -6.6440    3.9767 H   0  0  0  0  0  0  0  0  0  0  0  0
   -1.9729   -6.4206    2.3918 H   0  0  0  0  0  0  0  0  0  0  0  0
   -0.1735   -4.7694    1.4571 N   0  0  0  0  0  0  0  0  0  0  0  0
    0.6439   -3.6603    1.0409 C   0  0  2  0  0  0  0  0  0  0  0  0
   -0.2788   -2.5625    0.5280 C   0  0  0  0  0  0  0  0  0  0  0  0
   -1.4197   -2.7791    0.1251 O   0  0  0  0  0  0  0  0  0  0  0  0
    1.6395   -4.0779   -0.0301 C   0  0  0  0  0  0  0  0  0  0  0  0
   -0.8741   -5.1235    0.8083 H   0  0  0  0  0  0  0  0  0  0  0  0
    1.1738   -3.3062    1.9318 H   0  0  0  0  0  0  0  0  0  0  0  0
    1.1270   -4.4358   -0.9305 H   0  0  0  0  0  0  0  0  0  0  0  0
    2.2797   -3.2400   -0.3251 H   0  0  0  0  0  0  0  0  0  0  0  0
    2.2827   -4.8880    0.3303 H   0  0  0  0  0  0  0  0  0  0  0  0
    0.3351   -1.3153    0.5316 N   0  0  0  0  0  0  0  0  0  0  0  0
   -0.3268   -0.1184    0.0807 C   0  0  2  0  0  0  0  0  0  0  0  0
   -0.7247   -0.2986   -1.3810 C   0  0  0  0  0  0  0  0  0  0  0  0
   -1.8391   -0.0090   -1.8116 O   0  0  0  0  0  0  0  0  0  0  0  0
    0.5244    1.1371    0.3153 C   0  0  0  0  0  0  0  0  0  0  0  0
    0.7470    1.4606    1.7946 C   0  0  0  0  0  0  0  0  0  0  0  0
   -0.8400    1.7699    2.6251 S   0  0  0  0  0  0  0  0  0  0  0  0
   -1.2552    3.3331    1.8193 C   0  0  0  0  0  0  0  0  0  0  0  0
    1.2790   -1.2290    0.9021 H   0  0  0  0  0  0  0  0  0  0  0  0
   -1.2455   -0.0428    0.6751 H   0  0  0  0  0  0  0  0  0  0  0  0
    0.0284    1.9871   -0.1722 H   0  0  0  0  0  0  0  0  0  0  0  0
    1.4958    1.0081   -0.1791 H   0  0  0  0  0  0  0  0  0  0  0  0
    1.3666    2.3547    1.9116 H   0  0  0  0  0  0  0  0  0  0  0  0
    1.2427    0.6319    2.3089 H   0  0  0  0  0  0  0  0  0  0  0  0
   -2.2129    3.7020    2.1946 H   0  0  0  0  0  0  0  0  0  0  0  0
   -1.3288    3.1855    0.7390 H   0  0  0  0  0  0  0  0  0  0  0  0
   -0.4802    4.0749    2.0267 H   0  0  0  0  0  0  0  0  0  0  0  0
    0.2980   -0.8502   -2.1393 N   0  0  0  0  0  0  0  0  0  0  0  0
    0.1576   -1.1288   -3.5493 C   0  0  2  0  0  0  0  0  0  0  0  0
    0.8584   -2.4494   -3.8398 C   0  0  0  0  0  0  0  0  0  0  0  0
    1.7416   -2.9124   -3.1210 O   0  0  0  0  0  0  0  0  0  0  0  0
    0.7393   -0.0071   -4.3956 C   0  0  0  0  0  0  0  0  0  0  0  0
    1.1986   -1.0333   -1.7068 H   0  0  0  0  0  0  0  0  0  0  0  0
   -0.9150   -1.2329   -3.7459 H   0  0  0  0  0  0  0  0  0  0  0  0
    1.8134    0.1123   -4.2123 H   0  0  0  0  0  0  0  0  0  0  0  0
    0.6065   -0.2065   -5.4641 H   0  0  0  0  0  0  0  0  0  0  0  0
    0.2545    0.9474   -4.1640 H   0  0  0  0  0  0  0  0  0  0  0  0
    0.4119   -3.0288   -5.0193 N   0  0  0  0  0  0  0  0  0  0  0  0
    0.9322   -4.2800   -5.5190 C   0  0  0  0  0  0  0  0  0  0  0  0
   -0.3372   -2.5845   -5.5419 H   0  0  0  0  0  0  0  0  0  0  0  0
    1.7644   -4.0817   -6.2103 H   0  0  0  0  0  0  0  0  0  0  0  0
    1.2923   -4.8896   -4.6771 H   0  0  0  0  0  0  0  0  0  0  0  0
    0.1358   -4.8222   -6.0499 H   0  0  0  0  0  0  0  0  0  0  0  0
  1  3  1  0  0  0  0
  1  7  1  0  0  0  0
  1  2  2  0  0  0  0
 35 36  1  0  0  0  0
 36 44  1  0  0  0  0
 36 37  2  0  0  0  0
  8  9  1  0  0  0  0
  9 17  1  0  0  0  0
  9 10  2  0  0  0  0
 18 19  1  0  0  0  0
 19 34  1  0  0  0  0
 19 20  2  0  0  0  0
 35 38  1  0  0  0  0
  8 11  1  0  0  0  0
 44 45  1  0  0  0  0
 23 24  1  0  0  0  0
 21 22  1  0  0  0  0
 18 21  1  0  0  0  0
 22 23  1  0  0  0  0
 34 35  1  0  0  0  0
  7  8  1  0  0  0  0
 17 18  1  0  0  0  0
  3  4  1  0  0  0  0
  3  5  1  0  0  0  0
  3  6  1  0  0  0  0
 38 41  1  0  0  0  0
 38 42  1  0  0  0  0
 38 43  1  0  0  0  0
 11 14  1  0  0  0  0
 11 15  1  0  0  0  0
 11 16  1  0  0  0  0
 45 47  1  0  0  0  0
 45 48  1  0  0  0  0
 45 49  1  0  0  0  0
 24 31  1  0  0  0  0
 24 32  1  0  0  0  0
 24 33  1  0  0  0  0
 21 27  1  0  0  0  0
 21 28  1  0  0  0  0
 22 29  1  0  0  0  0
 22 30  1  0  0  0  0
 35 40  1  0  0  0  0
  8 13  1  0  0  0  0
 18 26  1  0  0  0  0
 44 46  1  0  0  0  0
  7 12  1  0  0  0  0
 34 39  1  0  0  0  0
 17 25  1  0  0  0  0
M  END
$$$$

  -OEChem-05262214473D

 49 48  0     1  0  0  0  0  0999 V2000
   -0.0561   -5.3799    2.6949 C   0  0  0  0  0  0  0  0  0  0  0  0
    0.7325   -5.0736    3.5815 O   0  0  0  0  0  0  0  0  0  0  0  0
   -1.0067   -6.5099    2.9135 C   0  0  0  0  0  0  0  0  0  0  0  0
   -0.5910   -7.4777    2.5899 H   0  0  0  0  0  0  0  0  0  0  0  0
   -1.2629   -6.6440    3.9767 H   0  0  0  0  0  0  0  0  0  0  0  0
   -1.9729   -6.4206    2.3918 H   0  0  0  0  0  0  0  0  0  0  0  0
   -0.1735   -4.7694    1.4571 N   0  0  0  0  0  0  0  0  0  0  0  0
    0.6439   -3.6603    1.0409 C   0  0  2  0  0  0  0  0  0  0  0  0
   -0.2788   -2.5625    0.5280 C   0  0  0  0  0  0  0  0  0  0  0  0
   -1.4197   -2.7791    0.1251 O   0  0  0  0  0  0  0  0  0  0  0  0
    1.6395   -4.0779   -0.0301 C   0  0  0  0  0  0  0  0  0  0  0  0
   -0.8741   -5.1235    0.8083 H   0  0  0  0  0  0  0  0  0  0  0  0
    1.1738   -3.3062    1.9318 H   0  0  0  0  0  0  0  0  0  0  0  0
    1.1270   -4.4358   -0.9305 H   0  0  0  0  0  0  0  0  0  0  0  0
    2.2797   -3.2400   -0.3251 H   0  0  0  0  0  0  0  0  0  0  0  0
    2.2827   -4.8880    0.3303 H   0  0  0  0  0  0  0  0  0  0  0  0
    0.3351   -1.3153    0.5316 N   0  0  0  0  0  0  0  0  0  0  0  0
   -0.3268   -0.1184    0.0807 C   0  0  2  0  0  0  0  0  0  0  0  0
   -0.7247   -0.2986   -1.3810 C   0  0  0  0  0  0  0  0  0  0  0  0
   -1.7221    0.2258   -1.8724 O   0  0  0  0  0  0  0  0  0  0  0  0
    0.5244    1.1371    0.3153 C   0  0  0  0  0  0  0  0  0  0  0  0
    0.7470    1.4606    1.7946 C   0  0  0  0  0  0  0  0  0  0  0  0
   -0.8400    1.7699    2.6251 S   0  0  0  0  0  0  0  0  0  0  0  0
   -1.2552    3.3331    1.8193 C   0  0  0  0  0  0  0  0  0  0  0  0
    1.2790   -1.2290    0.9021 H   0  0  0  0  0  0  0  0  0  0  0  0
   -1.2455   -0.0428    0.6751 H   0  0  0  0  0  0  0  0  0  0  0  0
    0.0284    1.9871   -0.1722 H   0  0  0  0  0  0  0  0  0  0  0  0
    1.4958    1.0081   -0.1791 H   0  0  0  0  0  0  0  0  0  0  0  0
    1.3666    2.3547    1.9116 H   0  0  0  0  0  0  0  0  0  0  0  0
    1.2427    0.6319    2.3089 H   0  0  0  0  0  0  0  0  0  0  0  0
   -2.2129    3.7020    2.1946 H   0  0  0  0  0  0  0  0  0  0  0  0
   -1.3288    3.1855    0.7390 H   0  0  0  0  0  0  0  0  0  0  0  0
   -0.4802    4.0749    2.0267 H   0  0  0  0  0  0  0  0  0  0  0  0
    0.1449   -1.1383   -2.0621 N   0  0  0  0  0  0  0  0  0  0  0  0
   -0.0293   -1.4735   -3.4559 C   0  0  2  0  0  0  0  0  0  0  0  0
    0.3268   -2.9435   -3.6342 C   0  0  0  0  0  0  0  0  0  0  0  0
    1.0507   -3.5578   -2.8534 O   0  0  0  0  0  0  0  0  0  0  0  0
    0.8319   -0.5935   -4.3485 C   0  0  0  0  0  0  0  0  0  0  0  0
    0.9618   -1.5068   -1.5840 H   0  0  0  0  0  0  0  0  0  0  0  0
   -1.0895   -1.3233   -3.6872 H   0  0  0  0  0  0  0  0  0  0  0  0
    1.8976   -0.7303   -4.1313 H   0  0  0  0  0  0  0  0  0  0  0  0
    0.6773   -0.8296   -5.4065 H   0  0  0  0  0  0  0  0  0  0  0  0
    0.5951    0.4652   -4.1972 H   0  0  0  0  0  0  0  0  0  0  0  0
   -0.2238   -3.4773   -4.7909 N   0  0  0  0  0  0  0  0  0  0  0  0
   -0.0206   -4.8507   -5.1892 C   0  0  0  0  0  0  0  0  0  0  0  0
   -0.8270   -2.9002   -5.3696 H   0  0  0  0  0  0  0  0  0  0  0  0
    0.8498   -4.9139   -5.8588 H   0  0  0  0  0  0  0  0  0  0  0  0
    0.1577   -5.4686   -4.2969 H   0  0  0  0  0  0  0  0  0  0  0  0
   -0.9150   -5.2158   -5.7153 H   0  0  0  0  0  0  0  0  0  0  0  0
  1  3  1  0  0  0  0
  1  7  1  0  0  0  0
  1  2  2  0  0  0  0
 35 36  1  0  0  0  0
 36 44  1  0  0  0  0
 36 37  2  0  0  0  0
  8  9  1  0  0  0  0
  9 17  1  0  0  0  0
  9 10  2  0  0  0  0
 18 19  1  0  0  0  0
 19 34  1  0  0  0  0
 19 20  2  0  0  0  0
 35 38  1  0  0  0  0
  8 11  1  0  0  0  0
 44 45  1  0  0  0  0
 23 24  1  0  0  0  0
 21 22  1  0  0  0  0
 18 21  1  0  0  0  0
 22 23  1  0  0  0  0
 34 35  1  0  0  0  0
  7  8  1  0  0  0  0
 17 18  1  0  0  0  0
  3  4  1  0  0  0  0
  3  5  1  0  0  0  0
  3  6  1  0  0  0  0
 38 41  1  0  0  0  0
 38 42  1  0  0  0  0
 38 43  1  0  0  0  0
 11 14  1  0  0  0  0
 11 15  1  0  0  0  0
 11 16  1  0  0  0  0
 45 47  1  0  0  0  0
 45 48  1  0  0  0  0
 45 49  1  0  0  0  0
 24 31  1  0  0  0  0
 24 32  1  0  0  0  0
 24 33  1  0  0  0  0
 21 27  1  0  0  0  0
 21 28  1  0  0  0  0
 22 29  1  0  0  0  0
 22 30  1  0  0  0  0
 35 40  1  0  0  0  0
  8 13  1  0  0  0  0
 18 26  1  0  0  0  0
 44 46  1  0  0  0  0
  7 12  1  0  0  0  0
 34 39  1  0  0  0  0
 17 25  1  0  0  0  0
M  END
$$$$

  -OEChem-05262214473D

 49 48  0     1  0  0  0  0  0999 V2000
   -0.0561   -5.3799    2.6949 C   0  0  0  0  0  0  0  0  0  0  0  0
    0.7325   -5.0736    3.5815 O   0  0  0  0  0  0  0  0  0  0  0  0
   -1.0067   -6.5099    2.9135 C   0  0  0  0  0  0  0  0  0  0  0  0
   -0.5910   -7.4777    2.5899 H   0  0  0  0  0  0  0  0  0  0  0  0
   -1.2629   -6.6440    3.9767 H   0  0  0  0  0  0  0  0  0  0  0  0
   -1.9729   -6.4206    2.3918 H   0  0  0  0  0  0  0  0  0  0  0  0
   -0.1735   -4.7694    1.4571 N   0  0  0  0  0  0  0  0  0  0  0  0
    0.6439   -3.6603    1.0409 C   0  0  2  0  0  0  0  0  0  0  0  0
   -0.2788   -2.5625    0.5280 C   0  0  0  0  0  0  0  0  0  0  0  0
   -1.4197   -2.7791    0.1251 O   0  0  0  0  0  0  0  0  0  0  0  0
    1.6395   -4.0779   -0.0301 C   0  0  0  0  0  0  0  0  0  0  0  0
   -0.8741   -5.1235    0.8083 H   0  0  0  0  0  0  0  0  0  0  0  0
    1.1738   -3.3062    1.9318 H   0  0  0  0  0  0  0  0  0  0  0  0
    1.1270   -4.4358   -0.9305 H   0  0  0  0  0  0  0  0  0  0  0  0
    2.2797   -3.2400   -0.3251 H   0  0  0  0  0  0  0  0  0  0  0  0
    2.2827   -4.8880    0.3303 H   0  0  0  0  0  0  0  0  0  0  0  0
    0.3351   -1.3153    0.5316 N   0  0  0  0  0  0  0  0  0  0  0  0
   -0.3268   -0.1184    0.0807 C   0  0  2  0  0  0  0  0  0  0  0  0
   -0.7247   -0.2986   -1.3810 C   0  0  0  0  0  0  0  0  0  0  0  0
   -1.5490    0.4194   -1.9434 O   0  0  0  0  0  0  0  0  0  0  0  0
    0.5244    1.1371    0.3153 C   0  0  0  0  0  0  0  0  0  0  0  0
    0.7470    1.4606    1.7946 C   0  0  0  0  0  0  0  0  0  0  0  0
   -0.8400    1.7699    2.6251 S   0  0  0  0  0  0  0  0  0  0  0  0
   -1.2552    3.3331    1.8193 C   0  0  0  0  0  0  0  0  0  0  0  0
    1.2790   -1.2290    0.9021 H   0  0  0  0  0  0  0  0  0  0  0  0
   -1.2455   -0.0428    0.6751 H   0  0  0  0  0  0  0  0  0  0  0  0
    0.0284    1.9871   -0.1722 H   0  0  0  0  0  0  0  0  0  0  0  0
    1.4958    1.0081   -0.1791 H   0  0  0  0  0  0  0  0  0  0  0  0
    1.3666    2.3547    1.9116 H   0  0  0  0  0  0  0  0  0  0  0  0
    1.2427    0.6319    2.3089 H   0  0  0  0  0  0  0  0  0  0  0  0
   -2.2129    3.7020    2.1946 H   0  0  0  0  0  0  0  0  0  0  0  0
   -1.3288    3.1855    0.7390 H   0  0  0  0  0  0  0  0  0  0  0  0
   -0.4802    4.0749    2.0267 H   0  0  0  0  0  0  0  0  0  0  0  0
   -0.0768   -1.3734   -1.9728 N   0  0  0  0  0  0  0  0  0  0  0  0
   -0.2982   -1.7538   -3.3482 C   0  0  2  0  0  0  0  0  0  0  0  0
   -0.3155   -3.2751   -3.4185 C   0  0  0  0  0  0  0  0  0  0  0  0
    0.2152   -3.9917   -2.5724 O   0  0  0  0  0  0  0  0  0  0  0  0
    0.7745   -1.1797   -4.2606 C   0  0  0  0  0  0  0  0  0  0  0  0
    0.6118   -1.8971   -1.4406 H   0  0  0  0  0  0  0  0  0  0  0  0
   -1.2822   -1.3634   -3.6298 H   0  0  0  0  0  0  0  0  0  0  0  0
    1.7675   -1.5596   -3.9936 H   0  0  0  0  0  0  0  0  0  0  0  0
    0.5894   -1.4452   -5.3067 H   0  0  0  0  0  0  0  0  0  0  0  0
    0.8056   -0.0873   -4.1864 H   0  0  0  0  0  0  0  0  0  0  0  0
   -0.9561   -3.7375   -4.5595 N   0  0  0  0  0  0  0  0  0  0  0  0
   -1.0926   -5.1433   -4.8614 C   0  0  0  0  0  0  0  0  0  0  0  0
   -1.3836   -3.0722   -5.1969 H   0  0  0  0  0  0  0  0  0  0  0  0
   -0.2507   -5.4671   -5.4910 H   0  0  0  0  0  0  0  0  0  0  0  0
   -1.0935   -5.7208   -3.9252 H   0  0  0  0  0  0  0  0  0  0  0  0
   -2.0379   -5.3129   -5.3977 H   0  0  0  0  0  0  0  0  0  0  0  0
  1  3  1  0  0  0  0
  1  7  1  0  0  0  0
  1  2  2  0  0  0  0
 35 36  1  0  0  0  0
 36 44  1  0  0  0  0
 36 37  2  0  0  0  0
  8  9  1  0  0  0  0
  9 17  1  0  0  0  0
  9 10  2  0  0  0  0
 18 19  1  0  0  0  0
 19 34  1  0  0  0  0
 19 20  2  0  0  0  0
 35 38  1  0  0  0  0
  8 11  1  0  0  0  0
 44 45  1  0  0  0  0
 23 24  1  0  0  0  0
 21 22  1  0  0  0  0
 18 21  1  0  0  0  0
 22 23  1  0  0  0  0
 34 35  1  0  0  0  0
  7  8  1  0  0  0  0
 17 18  1  0  0  0  0
  3  4  1  0  0  0  0
  3  5  1  0  0  0  0
  3  6  1  0  0  0  0
 38 41  1  0  0  0  0
 38 42  1  0  0  0  0
 38 43  1  0  0  0  0
 11 14  1  0  0  0  0
 11 15  1  0  0  0  0
 11 16  1  0  0  0  0
 45 47  1  0  0  0  0
 45 48  1  0  0  0  0
 45 49  1  0  0  0  0
 24 31  1  0  0  0  0
 24 32  1  0  0  0  0
 24 33  1  0  0  0  0
 21 27  1  0  0  0  0
 21 28  1  0  0  0  0
 22 29  1  0  0  0  0
 22 30  1  0  0  0  0
 35 40  1  0  0  0  0
  8 13  1  0  0  0  0
 18 26  1  0  0  0  0
 44 46  1  0  0  0  0
  7 12  1  0  0  0  0
 34 39  1  0  0  0  0
 17 25  1  0  0  0  0
M  END
$$$$

  -OEChem-05262214473D

 49 48  0     1  0  0  0  0  0999 V2000
   -0.0561   -5.3799    2.6949 C   0  0  0  0  0  0  0  0  0  0  0  0
    0.7325   -5.0736    3.5815 O   0  0  0  0  0  0  0  0  0  0  0  0
   -1.0067   -6.5099    2.9135 C   0  0  0  0  0  0  0  0  0  0  0  0
   -0.5910   -7.4777    2.5899 H   0  0  0  0  0  0  0  0  0  0  0  0
   -1.2629   -6.6440    3.9767 H   0  0  0  0  0  0  0  0  0  0  0  0
   -1.9729   -6.4206    2.3918 H   0  0  0  0  0  0  0  0  0  0  0  0
   -0.1735   -4.7694    1.4571 N   0  0  0  0  0  0  0  0  0  0  0  0
    0.6439   -3.6603    1.0409 C   0  0  2  0  0  0  0  0  0  0  0  0
   -0.2788   -2.5625    0.5280 C   0  0  0  0  0  0  0  0  0  0  0  0
   -1.4197   -2.7791    0.1251 O   0  0  0  0  0  0  0  0  0  0  0  0
    1.6395   -4.0779   -0.0301 C   0  0  0  0  0  0  0  0  0  0  0  0
   -0.8741   -5.1235    0.8083 H   0  0  0  0  0  0  0  0  0  0  0  0
    1.1738   -3.3062    1.9318 H   0  0  0  0  0  0  0  0  0  0  0  0
    1.1270   -4.4358   -0.9305 H   0  0  0  0  0  0  0  0  0  0  0  0
    2.2797   -3.2400   -0.3251 H   0  0  0  0  0  0  0  0  0  0  0  0
    2.2827   -4.8880    0.3303 H   0  0  0  0  0  0  0  0  0  0  0  0
    0.3351   -1.3153    0.5316 N   0  0  0  0  0  0  0  0  0  0  0  0
   -0.3268   -0.1184    0.0807 C   0  0  2  0  0  0  0  0  0  0  0  0
   -0.7247   -0.2986   -1.3810 C   0  0  0  0  0  0  0  0  0  0  0  0
   -1.3316    0.5587   -2.0197 O   0  0  0  0  0  0  0  0  0  0  0  0
    0.5244    1.1371    0.3153 C   0  0  0  0  0  0  0  0  0  0  0  0
    0.7470    1.4606    1.7946 C   0  0  0  0  0  0  0  0  0  0  0  0
   -0.8400    1.7699    2.6251 S   0  0  0  0  0  0  0  0  0  0  0  0
   -1.2552    3.3331    1.8193 C   0  0  0  0  0  0  0  0  0  0  0  0
    1.2790   -1.2290    0.9021 H   0  0  0  0  0  0  0  0  0  0  0  0
   -1.2455   -0.0428    0.6751 H   0  0  0  0  0  0  0  0  0  0  0  0
    0.0284    1.9871   -0.1722 H   0  0  0  0  0  0  0  0  0  0  0  0
    1.4958    1.0081   -0.1791 H   0  0  0  0  0  0  0  0  0  0  0  0
    1.3666    2.3547    1.9116 H   0  0  0  0  0  0  0  0  0  0  0  0
    1.2427    0.6319    2.3089 H   0  0  0  0  0  0  0  0  0  0  0  0
   -2.2129    3.7020    2.1946 H   0  0  0  0  0  0  0  0  0  0  0  0
   -1.3288    3.1855    0.7390 H   0  0  0  0  0  0  0  0  0  0  0  0
   -0.4802    4.0749    2.0267 H   0  0  0  0  0  0  0  0  0  0  0  0
   -0.3519   -1.5395   -1.8774 N   0  0  0  0  0  0  0  0  0  0  0  0
   -0.6307   -1.9506   -3.2334 C   0  0  2  0  0  0  0  0  0  0  0  0
   -1.0248   -3.4215   -3.2073 C   0  0  0  0  0  0  0  0  0  0  0  0
   -0.7080   -4.1848   -2.2973 O   0  0  0  0  0  0  0  0  0  0  0  0
    0.5710   -1.7258   -4.1379 C   0  0  0  0  0  0  0  0  0  0  0  0
    0.1726   -2.1777   -1.2864 H   0  0  0  0  0  0  0  0  0  0  0  0
   -1.4800   -1.3504   -3.5776 H   0  0  0  0  0  0  0  0  0  0  0  0
    1.4320   -2.3190   -3.8087 H   0  0  0  0  0  0  0  0  0  0  0  0
    0.3487   -2.0113   -5.1713 H   0  0  0  0  0  0  0  0  0  0  0  0
    0.8715   -0.6725   -4.1321 H   0  0  0  0  0  0  0  0  0  0  0  0
   -1.7350   -3.7917   -4.3408 N   0  0  0  0  0  0  0  0  0  0  0  0
   -2.2106   -5.1380   -4.5577 C   0  0  0  0  0  0  0  0  0  0  0  0
   -1.9692   -3.0886   -5.0355 H   0  0  0  0  0  0  0  0  0  0  0  0
   -1.4622   -5.7038   -5.1321 H   0  0  0  0  0  0  0  0  0  0  0  0
   -2.3759   -5.6291   -3.5874 H   0  0  0  0  0  0  0  0  0  0  0  0
   -3.1562   -5.1068   -5.1188 H   0  0  0  0  0  0  0  0  0  0  0  0
  1  3  1  0  0  0  0
  1  7  1  0  0  0  0
  1  2  2  0  0  0  0
 35 36  1  0  0  0  0
 36 44  1  0  0  0  0
 36 37  2  0  0  0  0
  8  9  1  0  0  0  0
  9 17  1  0  0  0  0
  9 10  2  0  0  0  0
 18 19  1  0  0  0  0
 19 34  1  0  0  0  0
 19 20  2  0  0  0  0
 35 38  1  0  0  0  0
  8 11  1  0  0  0  0
 44 45  1  0  0  0  0
 23 24  1  0  0  0  0
 21 22  1  0  0  0  0
 18 21  1  0  0  0  0
 22 23  1  0  0  0  0
 34 35  1  0  0  0  0
  7  8  1  0  0  0  0
 17 18  1  0  0  0  0
  3  4  1  0  0  0  0
  3  5  1  0  0  0  0
  3  6  1  0  0  0  0
 38 41  1  0  0  0  0
 38 42  1  0  0  0  0
 38 43  1  0  0  0  0
 11 14  1  0  0  0  0
 11 15  1  0  0  0  0
 11 16  1  0  0  0  0
 45 47  1  0  0  0  0
 45 48  1  0  0  0  0
 45 49  1  0  0  0  0
 24 31  1  0  0  0  0
 24 32  1  0  0  0  0
 24 33  1  0  0  0  0
 21 27  1  0  0  0  0
 21 28  1  0  0  0  0
 22 29  1  0  0  0  0
 22 30  1  0  0  0  0
 35 40  1  0  0  0  0
  8 13  1  0  0  0  0
 18 26  1  0  0  0  0
 44 46  1  0  0  0  0
  7 12  1  0  0  0  0
 34 39  1  0  0  0  0
 17 25  1  0  0  0  0
M  END
$$$$

  -OEChem-05262214473D

 49 48  0     1  0  0  0  0  0999 V2000
   -0.0561   -5.3799    2.6949 C   0  0  0  0  0  0  0  0  0  0  0  0
    0.7325   -5.0736    3.5815 O   0  0  0  0  0  0  0  0  0  0  0  0
   -1.0067   -6.5099    2.9135 C   0  0  0  0  0  0  0  0  0  0  0  0
   -0.5910   -7.4777    2.5899 H   0  0  0  0  0  0  0  0  0  0  0  0
   -1.2629   -6.6440    3.9767 H   0  0  0  0  0  0  0  0  0  0  0  0
   -1.9729   -6.4206    2.3918 H   0  0  0  0  0  0  0  0  0  0  0  0
   -0.1735   -4.7694    1.4571 N   0  0  0  0  0  0  0  0  0  0  0  0
    0.6439   -3.6603    1.0409 C   0  0  2  0  0  0  0  0  0  0  0  0
   -0.2788   -2.5625    0.5280 C   0  0  0  0  0  0  0  0  0  0  0  0
   -1.4197   -2.7791    0.1251 O   0  0  0  0  0  0  0  0  0  0  0  0
    1.6395   -4.0779   -0.0301 C   0  0  0  0  0  0  0  0  0  0  0  0
   -0.8741   -5.1235    0.8083 H   0  0  0  0  0  0  0  0  0  0  0  0
    1.1738   -3.3062    1.9318 H   0  0  0  0  0  0  0  0  0  0  0  0
    1.1270   -4.4358   -0.9305 H   0  0  0  0  0  0  0  0  0  0  0  0
    2.2797   -3.2400   -0.3251 H   0  0  0  0  0  0  0  0  0  0  0  0
    2.2827   -4.8880    0.3303 H   0  0  0  0  0  0  0  0  0  0  0  0
    0.3351   -1.3153    0.5316 N   0  0  0  0  0  0  0  0  0  0  0  0
   -0.3268   -0.1184    0.0807 C   0  0  2  0  0  0  0  0  0  0  0  0
   -0.7247   -0.2986   -1.3810 C   0  0  0  0  0  0  0  0  0  0  0  0
   -1.0847    0.6342   -2.0962 O   0  0  0  0  0  0  0  0  0  0  0  0
    0.5244    1.1371    0.3153 C   0  0  0  0  0  0  0  0  0  0  0  0
    0.7470    1.4606    1.7946 C   0  0  0  0  0  0  0  0  0  0  0  0
   -0.8400    1.7699    2.6251 S   0  0  0  0  0  0  0  0  0  0  0  0
   -1.2552    3.3331    1.8193 C   0  0  0  0  0  0  0  0  0  0  0  0
    1.2790   -1.2290    0.9021 H   0  0  0  0  0  0  0  0  0  0  0  0
   -1.2455   -0.0428    0.6751 H   0  0  0  0  0  0  0  0  0  0  0  0
    0.0284    1.9871   -0.1722 H   0  0  0  0  0  0  0  0  0  0  0  0
    1.4958    1.0081   -0.1791 H   0  0  0  0  0  0  0  0  0  0  0  0
    1.3666    2.3547    1.9116 H   0  0  0  0  0  0  0  0  0  0  0  0
    1.2427    0.6319    2.3089 H   0  0  0  0  0  0  0  0  0  0  0  0
   -2.2129    3.7020    2.1946 H   0  0  0  0  0  0  0  0  0  0  0  0
   -1.3288    3.1855    0.7390 H   0  0  0  0  0  0  0  0  0  0  0  0
   -0.4802    4.0749    2.0267 H   0  0  0  0  0  0  0  0  0  0  0  0
   -0.6618   -1.6253   -1.7825 N   0  0  0  0  0  0  0  0  0  0  0  0
   -1.0042   -2.0505   -3.1194 C   0  0  2  0  0  0  0  0  0  0  0  0
   -1.7527   -3.3728   -3.0152 C   0  0  0  0  0  0  0  0  0  0  0  0
   -1.6561   -4.1237   -2.0468 O   0  0  0  0  0  0  0  0  0  0  0  0
    0.2353   -2.1945   -3.9887 C   0  0  0  0  0  0  0  0  0  0  0  0
   -0.3259   -2.3294   -1.1320 H   0  0  0  0  0  0  0  0  0  0  0  0
   -1.6695   -1.2853   -3.5340 H   0  0  0  0  0  0  0  0  0  0  0  0
    0.9139   -2.9569   -3.5890 H   0  0  0  0  0  0  0  0  0  0  0  0
   -0.0282   -2.4893   -5.0098 H   0  0  0  0  0  0  0  0  0  0  0  0
    0.7884   -1.2504   -4.0383 H   0  0  0  0  0  0  0  0  0  0  0  0
   -2.5075   -3.6360   -4.1498 N   0  0  0  0  0  0  0  0  0  0  0  0
   -3.2985   -4.8352   -4.2990 C   0  0  0  0  0  0  0  0  0  0  0  0
   -2.5438   -2.9483   -4.8964 H   0  0  0  0  0  0  0  0  0  0  0  0
   -2.7021   -5.6077   -4.8064 H   0  0  0  0  0  0  0  0  0  0  0  0
   -3.6023   -5.1997   -3.3066 H   0  0  0  0  0  0  0  0  0  0  0  0
   -4.1939   -4.6115   -4.8974 H   0  0  0  0  0  0  0  0  0  0  0  0
  1  3  1  0  0  0  0
  1  7  1  0  0  0  0
  1  2  2  0  0  0  0
 35 36  1  0  0  0  0
 36 44  1  0  0  0  0
 36 37  2  0  0  0  0
  8  9  1  0  0  0  0
  9 17  1  0  0  0  0
  9 10  2  0  0  0  0
 18 19  1  0  0  0  0
 19 34  1  0  0  0  0
 19 20  2  0  0  0  0
 35 38  1  0  0  0  0
  8 11  1  0  0  0  0
 44 45  1  0  0  0  0
 23 24  1  0  0  0  0
 21 22  1  0  0  0  0
 18 21  1  0  0  0  0
 22 23  1  0  0  0  0
 34 35  1  0  0  0  0
  7  8  1  0  0  0  0
 17 18  1  0  0  0  0
  3  4  1  0  0  0  0
  3  5  1  0  0  0  0
  3  6  1  0  0  0  0
 38 41  1  0  0  0  0
 38 42  1  0  0  0  0
 38 43  1  0  0  0  0
 11 14  1  0  0  0  0
 11 15  1  0  0  0  0
 11 16  1  0  0  0  0
 45 47  1  0  0  0  0
 45 48  1  0  0  0  0
 45 49  1  0  0  0  0
 24 31  1  0  0  0  0
 24 32  1  0  0  0  0
 24 33  1  0  0  0  0
 21 27  1  0  0  0  0
 21 28  1  0  0  0  0
 22 29  1  0  0  0  0
 22 30  1  0  0  0  0
 35 40  1  0  0  0  0
  8 13  1  0  0  0  0
 18 26  1  0  0  0  0
 44 46  1  0  0  0  0
  7 12  1  0  0  0  0
 34 39  1  0  0  0  0
 17 25  1  0  0  0  0
M  END
$$$$

  -OEChem-05262214473D

 49 48  0     1  0  0  0  0  0999 V2000
   -0.0561   -5.3799    2.6949 C   0  0  0  0  0  0  0  0  0  0  0  0
    0.7325   -5.0736    3.5815 O   0  0  0  0  0  0  0  0  0  0  0  0
   -1.0067   -6.5099    2.9135 C   0  0  0  0  0  0  0  0  0  0  0  0
   -0.5910   -7.4777    2.5899 H   0  0  0  0  0  0  0  0  0  0  0  0
   -1.2629   -6.6440    3.9767 H   0  0  0  0  0  0  0  0  0  0  0  0
   -1.9729   -6.4206    2.3918 H   0  0  0  0  0  0  0  0  0  0  0  0
   -0.1735   -4.7694    1.4571 N   0  0  0  0  0  0  0  0  0  0  0  0
    0.6439   -3.6603    1.0409 C   0  0  2  0  0  0  0  0  0  0  0  0
   -0.2788   -2.5625    0.5280 C   0  0  0  0  0  0  0  0  0  0  0  0
   -1.4197   -2.7791    0.1251 O   0  0  0  0  0  0  0  0  0  0  0  0
    1.6395   -4.0779   -0.0301 C   0  0  0  0  0  0  0  0  0  0  0  0
   -0.8741   -5.1235    0.8083 H   0  0  0  0  0  0  0  0  0  0  0  0
    1.1738   -3.3062    1.9318 H   0  0  0  0  0  0  0  0  0  0  0  0
    1.1270   -4.4358   -0.9305 H   0  0  0  0  0  0  0  0  0  0  0  0
    2.2797   -3.2400   -0.3251 H   0  0  0  0  0  0  0  0  0  0  0  0
    2.2827   -4.8880    0.3303 H   0  0  0  0  0  0  0  0  0  0  0  0
    0.3351   -1.3153    0.5316 N   0  0  0  0  0  0  0  0  0  0  0  0
   -0.3268   -0.1184    0.0807 C   0  0  2  0  0  0  0  0  0  0  0  0
   -0.7247   -0.2986   -1.3810 C   0  0  0  0  0  0  0  0  0  0  0  0
   -0.8252    0.6407   -2.1676 O   0  0  0  0  0  0  0  0  0  0  0  0
    0.5244    1.1371    0.3153 C   0  0  0  0  0  0  0  0  0  0  0  0
    0.7470    1.4606    1.7946 C   0  0  0  0  0  0  0  0  0  0  0  0
   -0.8400    1.7699    2.6251 S   0  0  0  0  0  0  0  0  0  0  0  0
   -1.2552    3.3331    1.8193 C   0  0  0  0  0  0  0  0  0  0  0  0
    1.2790   -1.2290    0.9021 H   0  0  0  0  0  0  0  0  0  0  0  0
   -1.2455   -0.0428    0.6751 H   0  0  0  0  0  0  0  0  0  0  0  0
    0.0284    1.9871   -0.1722 H   0  0  0  0  0  0  0  0  0  0  0  0
    1.4958    1.0081   -0.1791 H   0  0  0  0  0  0  0  0  0  0  0  0
    1.3666    2.3547    1.9116 H   0  0  0  0  0  0  0  0  0  0  0  0
    1.2427    0.6319    2.3089 H   0  0  0  0  0  0  0  0  0  0  0  0
   -2.2129    3.7020    2.1946 H   0  0  0  0  0  0  0  0  0  0  0  0
   -1.3288    3.1855    0.7390 H   0  0  0  0  0  0  0  0  0  0  0  0
   -0.4802    4.0749    2.0267 H   0  0  0  0  0  0  0  0  0  0  0  0
   -0.9854   -1.6249   -1.6945 N   0  0  0  0  0  0  0  0  0  0  0  0
   -1.3932   -2.0467   -3.0140 C   0  0  2  0  0  0  0  0  0  0  0  0
   -2.4495   -3.1323   -2.8552 C   0  0  0  0  0  0  0  0  0  0  0  0
   -2.5644   -3.8127   -1.8379 O   0  0  0  0  0  0  0  0  0  0  0  0
   -0.2098   -2.5540   -3.8232 C   0  0  0  0  0  0  0  0  0  0  0  0
   -0.8498   -2.3419   -0.9879 H   0  0  0  0  0  0  0  0  0  0  0  0
   -1.8377   -1.1725   -3.5022 H   0  0  0  0  0  0  0  0  0  0  0  0
    0.2486   -3.4298   -3.3496 H   0  0  0  0  0  0  0  0  0  0  0  0
   -0.5158   -2.8466   -4.8330 H   0  0  0  0  0  0  0  0  0  0  0  0
    0.5620   -1.7817   -3.9111 H   0  0  0  0  0  0  0  0  0  0  0  0
   -3.2209   -3.2812   -3.9993 N   0  0  0  0  0  0  0  0  0  0  0  0
   -4.2821   -4.2554   -4.1027 C   0  0  0  0  0  0  0  0  0  0  0  0
   -3.0683   -2.6609   -4.7891 H   0  0  0  0  0  0  0  0  0  0  0  0
   -3.8858   -5.1855   -4.5363 H   0  0  0  0  0  0  0  0  0  0  0  0
   -4.6890   -4.4619   -3.1018 H   0  0  0  0  0  0  0  0  0  0  0  0
   -5.0802   -3.8608   -4.7487 H   0  0  0  0  0  0  0  0  0  0  0  0
  1  3  1  0  0  0  0
  1  7  1  0  0  0  0
  1  2  2  0  0  0  0
 35 36  1  0  0  0  0
 36 44  1  0  0  0  0
 36 37  2  0  0  0  0
  8  9  1  0  0  0  0
  9 17  1  0  0  0  0
  9 10  2  0  0  0  0
 18 19  1  0  0  0  0
 19 34  1  0  0  0  0
 19 20  2  0  0  0  0
 35 38  1  0  0  0  0
  8 11  1  0  0  0  0
 44 45  1  0  0  0  0
 23 24  1  0  0  0  0
 21 22  1  0  0  0  0
 18 21  1  0  0  0  0
 22 23  1  0  0  0  0
 34 35  1  0  0  0  0
  7  8  1  0  0  0  0
 17 18  1  0  0  0  0
  3  4  1  0  0  0  0
  3  5  1  0  0  0  0
  3  6  1  0  0  0  0
 38 41  1  0  0  0  0
 38 42  1  0  0  0  0
 38 43  1  0  0  0  0
 11 14  1  0  0  0  0
 11 15  1  0  0  0  0
 11 16  1  0  0  0  0
 45 47  1  0  0  0  0
 45 48  1  0  0  0  0
 45 49  1  0  0  0  0
 24 31  1  0  0  0  0
 24 32  1  0  0  0  0
 24 33  1  0  0  0  0
 21 27  1  0  0  0  0
 21 28  1  0  0  0  0
 22 29  1  0  0  0  0
 22 30  1  0  0  0  0
 35 40  1  0  0  0  0
  8 13  1  0  0  0  0
 18 26  1  0  0  0  0
 44 46  1  0  0  0  0
  7 12  1  0  0  0  0
 34 39  1  0  0  0  0
 17 25  1  0  0  0  0
M  END
$$$$

  -OEChem-05262214473D

 49 48  0     1  0  0  0  0  0999 V2000
   -0.0561   -5.3799    2.6949 C   0  0  0  0  0  0  0  0  0  0  0  0
    0.7325   -5.0736    3.5815 O   0  0  0  0  0  0  0  0  0  0  0  0
   -1.0067   -6.5099    2.9135 C   0  0  0  0  0  0  0  0  0  0  0  0
   -0.5910   -7.4777    2.5899 H   0  0  0  0  0  0  0  0  0  0  0  0
   -1.2629   -6.6440    3.9767 H   0  0  0  0  0  0  0  0  0  0  0  0
   -1.9729   -6.4206    2.3918 H   0  0  0  0  0  0  0  0  0  0  0  0
   -0.1735   -4.7694    1.4571 N   0  0  0  0  0  0  0  0  0  0  0  0
    0.6439   -3.6603    1.0409 C   0  0  2  0  0  0  0  0  0  0  0  0
   -0.2788   -2.5625    0.5280 C   0  0  0  0  0  0  0  0  0  0  0  0
   -1.4197   -2.7791    0.1251 O   0  0  0  0  0  0  0  0  0  0  0  0
    1.6395   -4.0779   -0.0301 C   0  0  0  0  0  0  0  0  0  0  0  0
   -0.8741   -5.1235    0.8083 H   0  0  0  0  0  0  0  0  0  0  0  0
    1.1738   -3.3062    1.9318 H   0  0  0  0  0  0  0  0  0  0  0  0
    1.1270   -4.4358   -0.9305 H   0  0  0  0  0  0  0  0  0  0  0  0
    2.2797   -3.2400   -0.3251 H   0  0  0  0  0  0  0  0  0  0  0  0
    2.2827   -4.8880    0.3303 H   0  0  0  0  0  0  0  0  0  0  0  0
    0.3351   -1.3153    0.5316 N   0  0  0  0  0  0  0  0  0  0  0  0
   -0.3268   -0.1184    0.0807 C   0  0  2  0  0  0  0  0  0  0  0  0
   -0.7247   -0.2986   -1.3810 C   0  0  0  0  0  0  0  0  0  0  0  0
   -0.5707    0.5778   -2.2292 O   0  0  0  0  0  0  0  0  0  0  0  0
    0.5244    1.1371    0.3153 C   0  0  0  0  0  0  0  0  0  0  0  0
    0.7470    1.4606    1.7946 C   0  0  0  0  0  0  0  0  0  0  0  0
   -0.8400    1.7699    2.6251 S   0  0  0  0  0  0  0  0  0  0  0  0
   -1.2552    3.3331    1.8193 C   0  0  0  0  0  0  0  0  0  0  0  0
    1.2790   -1.2290    0.9021 H   0  0  0  0  0  0  0  0  0  0  0  0
   -1.2455   -0.0428    0.6751 H   0  0  0  0  0  0  0  0  0  0  0  0
    0.0284    1.9871   -0.1722 H   0  0  0  0  0  0  0  0  0  0  0  0
    1.4958    1.0081   -0.1791 H   0  0  0  0  0  0  0  0  0  0  0  0
    1.3666    2.3547    1.9116 H   0  0  0  0  0  0  0  0  0  0  0  0
    1.2427    0.6319    2.3089 H   0  0  0  0  0  0  0  0  0  0  0  0
   -2.2129    3.7020    2.1946 H   0  0  0  0  0  0  0  0  0  0  0  0
   -1.3288    3.1855    0.7390 H   0  0  0  0  0  0  0  0  0  0  0  0
   -0.4802    4.0749    2.0267 H   0  0  0  0  0  0  0  0  0  0  0  0
   -1.3005   -1.5383   -1.6194 N   0  0  0  0  0  0  0  0  0  0  0  0
   -1.7713   -1.9394   -2.9243 C   0  0  2  0  0  0  0  0  0  0  0  0
   -3.0679   -2.7163   -2.7382 C   0  0  0  0  0  0  0  0  0  0  0  0
   -3.3710   -3.2729   -1.6849 O   0  0  0  0  0  0  0  0  0  0  0  0
   -0.7339   -2.7796   -3.6527 C   0  0  0  0  0  0  0  0  0  0  0  0
   -1.3634   -2.2143   -0.8639 H   0  0  0  0  0  0  0  0  0  0  0  0
   -1.9731   -1.0196   -3.4842 H   0  0  0  0  0  0  0  0  0  0  0  0
   -0.5186   -3.7054   -3.1068 H   0  0  0  0  0  0  0  0  0  0  0  0
   -1.0808   -3.0589   -4.6531 H   0  0  0  0  0  0  0  0  0  0  0  0
    0.2076   -2.2301   -3.7594 H   0  0  0  0  0  0  0  0  0  0  0  0
   -3.8266   -2.7515   -3.8998 N   0  0  0  0  0  0  0  0  0  0  0  0
   -5.0945   -3.4383   -3.9824 C   0  0  0  0  0  0  0  0  0  0  0  0
   -3.5070   -2.2460   -4.7208 H   0  0  0  0  0  0  0  0  0  0  0  0
   -4.9328   -4.4658   -4.3401 H   0  0  0  0  0  0  0  0  0  0  0  0
   -5.5619   -3.4659   -2.9870 H   0  0  0  0  0  0  0  0  0  0  0  0
   -5.7547   -2.9059   -4.6829 H   0  0  0  0  0  0  0  0  0  0  0  0
  1  3  1  0  0  0  0
  1  7  1  0  0  0  0
  1  2  2  0  0  0  0
 35 36  1  0  0  0  0
 36 44  1  0  0  0  0
 36 37  2  0  0  0  0
  8  9  1  0  0  0  0
  9 17  1  0  0  0  0
  9 10  2  0  0  0  0
 18 19  1  0  0  0  0
 19 34  1  0  0  0  0
 19 20  2  0  0  0  0
 35 38  1  0  0  0  0
  8 11  1  0  0  0  0
 44 45  1  0  0  0  0
 23 24  1  0  0  0  0
 21 22  1  0  0  0  0
 18 21  1  0  0  0  0
 22 23  1  0  0  0  0
 34 35  1  0  0  0  0
  7  8  1  0  0  0  0
 17 18  1  0  0  0  0
  3  4  1  0  0  0  0
  3  5  1  0  0  0  0
  3  6  1  0  0  0  0
 38 41  1  0  0  0  0
 38 42  1  0  0  0  0
 38 43  1  0  0  0  0
 11 14  1  0  0  0  0
 11 15  1  0  0  0  0
 11 16  1  0  0  0  0
 45 47  1  0  0  0  0
 45 48  1  0  0  0  0
 45 49  1  0  0  0  0
 24 31  1  0  0  0  0
 24 32  1  0  0  0  0
 24 33  1  0  0  0  0
 21 27  1  0  0  0  0
 21 28  1  0  0  0  0
 22 29  1  0  0  0  0
 22 30  1  0  0  0  0
 35 40  1  0  0  0  0
  8 13  1  0  0  0  0
 18 26  1  0  0  0  0
 44 46  1  0  0  0  0
  7 12  1  0  0  0  0
 34 39  1  0  0  0  0
 17 25  1  0  0  0  0
M  END
$$$$

  -OEChem-05262214473D

 49 48  0     1  0  0  0  0  0999 V2000
   -0.0561   -5.3799    2.6949 C   0  0  0  0  0  0  0  0  0  0  0  0
    0.7325   -5.0736    3.5815 O   0  0  0  0  0  0  0  0  0  0  0  0
   -1.0067   -6.5099    2.9135 C   0  0  0  0  0  0  0  0  0  0  0  0
   -0.5910   -7.4777    2.5899 H   0  0  0  0  0  0  0  0  0  0  0  0
   -1.2629   -6.6440    3.9767 H   0  0  0  0  0  0  0  0  0  0  0  0
   -1.9729   -6.4206    2.3918 H   0  0  0  0  0  0  0  0  0  0  0  0
   -0.1735   -4.7694    1.4571 N   0  0  0  0  0  0  0  0  0  0  0  0
    0.6439   -3.6603    1.0409 C   0  0  2  0  0  0  0  0  0  0  0  0
   -0.2788   -2.5625    0.5280 C   0  0  0  0  0  0  0  0  0  0  0  0
   -1.4197   -2.7791    0.1251 O   0  0  0  0  0  0  0  0  0  0  0  0
    1.6395   -4.0779   -0.0301 C   0  0  0  0  0  0  0  0  0  0  0  0
   -0.8741   -5.1235    0.8083 H   0  0  0  0  0  0  0  0  0  0  0  0
    1.1738   -3.3062    1.9318 H   0  0  0  0  0  0  0  0  0  0  0  0
    1.1270   -4.4358   -0.9305 H   0  0  0  0  0  0  0  0  0  0  0  0
    2.2797   -3.2400   -0.3251 H   0  0  0  0  0  0  0  0  0  0  0  0
    2.2827   -4.8880    0.3303 H   0  0  0  0  0  0  0  0  0  0  0  0
    0.3351   -1.3153    0.5316 N   0  0  0  0  0  0  0  0  0  0  0  0
   -0.3268   -0.1184    0.0807 C   0  0  2  0  0  0  0  0  0  0  0  0
   -0.7247   -0.2986   -1.3810 C   0  0  0  0  0  0  0  0  0  0  0  0
   -0.3386    0.4498   -2.2766 O   0  0  0  0  0  0  0  0  0  0  0  0
    0.5244    1.1371    0.3153 C   0  0  0  0  0  0  0  0  0  0  0  0
    0.7470    1.4606    1.7946 C   0  0  0  0  0  0  0  0  0  0  0  0
   -0.8400    1.7699    2.6251 S   0  0  0  0  0  0  0  0  0  0  0  0
   -1.2552    3.3331    1.8193 C   0  0  0  0  0  0  0  0  0  0  0  0
    1.2790   -1.2290    0.9021 H   0  0  0  0  0  0  0  0  0  0  0  0
   -1.2455   -0.0428    0.6751 H   0  0  0  0  0  0  0  0  0  0  0  0
    0.0284    1.9871   -0.1722 H   0  0  0  0  0  0  0  0  0  0  0  0
    1.4958    1.0081   -0.1791 H   0  0  0  0  0  0  0  0  0  0  0  0
    1.3666    2.3547    1.9116 H   0  0  0  0  0  0  0  0  0  0  0  0
    1.2427    0.6319    2.3089 H   0  0  0  0  0  0  0  0  0  0  0  0
   -2.2129    3.7020    2.1946 H   0  0  0  0  0  0  0  0  0  0  0  0
   -1.3288    3.1855    0.7390 H   0  0  0  0  0  0  0  0  0  0  0  0
   -0.4802    4.0749    2.0267 H   0  0  0  0  0  0  0  0  0  0  0  0
   -1.5856   -1.3715   -1.5623 N   0  0  0  0  0  0  0  0  0  0  0  0
   -2.1126   -1.7359   -2.8565 C   0  0  2  0  0  0  0  0  0  0  0  0
   -3.5656   -2.1533   -2.6722 C   0  0  0  0  0  0  0  0  0  0  0  0
   -4.0210   -2.5412   -1.5983 O   0  0  0  0  0  0  0  0  0  0  0  0
   -1.3013   -2.8561   -3.4888 C   0  0  0  0  0  0  0  0  0  0  0  0
   -1.8315   -1.9553   -0.7684 H   0  0  0  0  0  0  0  0  0  0  0  0
   -2.0666   -0.8372   -3.4812 H   0  0  0  0  0  0  0  0  0  0  0  0
   -1.3355   -3.7649   -2.8771 H   0  0  0  0  0  0  0  0  0  0  0  0
   -1.6847   -3.1117   -4.4822 H   0  0  0  0  0  0  0  0  0  0  0  0
   -0.2505   -2.5651   -3.5934 H   0  0  0  0  0  0  0  0  0  0  0  0
   -4.2833   -2.0828   -3.8579 N   0  0  0  0  0  0  0  0  0  0  0  0
   -5.6802   -2.4393   -3.9462 C   0  0  0  0  0  0  0  0  0  0  0  0
   -3.8299   -1.7319   -4.6964 H   0  0  0  0  0  0  0  0  0  0  0  0
   -5.7716   -3.4978   -4.2311 H   0  0  0  0  0  0  0  0  0  0  0  0
   -6.1616   -2.2796   -2.9701 H   0  0  0  0  0  0  0  0  0  0  0  0
   -6.1714   -1.8119   -4.7044 H   0  0  0  0  0  0  0  0  0  0  0  0
  1  3  1  0  0  0  0
  1  7  1  0  0  0  0
  1  2  2  0  0  0  0
 35 36  1  0  0  0  0
 36 44  1  0  0  0  0
 36 37  2  0  0  0  0
  8  9  1  0  0  0  0
  9 17  1  0  0  0  0
  9 10  2  0  0  0  0
 18 19  1  0  0  0  0
 19 34  1  0  0  0  0
 19 20  2  0  0  0  0
 35 38  1  0  0  0  0
  8 11  1  0  0  0  0
 44 45  1  0  0  0  0
 23 24  1  0  0  0  0
 21 22  1  0  0  0  0
 18 21  1  0  0  0  0
 22 23  1  0  0  0  0
 34 35  1  0  0  0  0
  7  8  1  0  0  0  0
 17 18  1  0  0  0  0
  3  4  1  0  0  0  0
  3  5  1  0  0  0  0
  3  6  1  0  0  0  0
 38 41  1  0  0  0  0
 38 42  1  0  0  0  0
 38 43  1  0  0  0  0
 11 14  1  0  0  0  0
 11 15  1  0  0  0  0
 11 16  1  0  0  0  0
 45 47  1  0  0  0  0
 45 48  1  0  0  0  0
 45 49  1  0  0  0  0
 24 31  1  0  0  0  0
 24 32  1  0  0  0  0
 24 33  1  0  0  0  0
 21 27  1  0  0  0  0
 21 28  1  0  0  0  0
 22 29  1  0  0  0  0
 22 30  1  0  0  0  0
 35 40  1  0  0  0  0
  8 13  1  0  0  0  0
 18 26  1  0  0  0  0
 44 46  1  0  0  0  0
  7 12  1  0  0  0  0
 34 39  1  0  0  0  0
 17 25  1  0  0  0  0
M  END
$$$$

  -OEChem-05262214473D

 49 48  0     1  0  0  0  0  0999 V2000
   -0.0561   -5.3799    2.6949 C   0  0  0  0  0  0  0  0  0  0  0  0
    0.7325   -5.0736    3.5815 O   0  0  0  0  0  0  0  0  0  0  0  0
   -1.0067   -6.5099    2.9135 C   0  0  0  0  0  0  0  0  0  0  0  0
   -0.5910   -7.4777    2.5899 H   0  0  0  0  0  0  0  0  0  0  0  0
   -1.2629   -6.6440    3.9767 H   0  0  0  0  0  0  0  0  0  0  0  0
   -1.9729   -6.4206    2.3918 H   0  0  0  0  0  0  0  0  0  0  0  0
   -0.1735   -4.7694    1.4571 N   0  0  0  0  0  0  0  0  0  0  0  0
    0.6439   -3.6603    1.0409 C   0  0  2  0  0  0  0  0  0  0  0  0
   -0.2788   -2.5625    0.5280 C   0  0  0  0  0  0  0  0  0  0  0  0
   -1.4197   -2.7791    0.1251 O   0  0  0  0  0  0  0  0  0  0  0  0
    1.6395   -4.0779   -0.0301 C   0  0  0  0  0  0  0  0  0  0  0  0
   -0.8741   -5.1235    0.8083 H   0  0  0  0  0  0  0  0  0  0  0  0
    1.1738   -3.3062    1.9318 H   0  0  0  0  0  0  0  0  0  0  0  0
    1.1270   -4.4358   -0.9305 H   0  0  0  0  0  0  0  0  0  0  0  0
    2.2797   -3.2400   -0.3251 H   0  0  0  0  0  0  0  0  0  0  0  0
    2.2827   -4.8880    0.3303 H   0  0  0  0  0  0  0  0  0  0  0  0
    0.3351   -1.3153    0.5316 N   0  0  0  0  0  0  0  0  0  0  0  0
   -0.3268   -0.1184    0.0807 C   0  0  2  0  0  0  0  0  0  0  0  0
   -0.7247   -0.2986   -1.3810 C   0  0  0  0  0  0  0  0  0  0  0  0
   -0.1448    0.2655   -2.3066 O   0  0  0  0  0  0  0  0  0  0  0  0
    0.5244    1.1371    0.3153 C   0  0  0  0  0  0  0  0  0  0  0  0
    0.7470    1.4606    1.7946 C   0  0  0  0  0  0  0  0  0  0  0  0
   -0.8400    1.7699    2.6251 S   0  0  0  0  0  0  0  0  0  0  0  0
   -1.2552    3.3331    1.8193 C   0  0  0  0  0  0  0  0  0  0  0  0
    1.2790   -1.2290    0.9021 H   0  0  0  0  0  0  0  0  0  0  0  0
   -1.2455   -0.0428    0.6751 H   0  0  0  0  0  0  0  0  0  0  0  0
    0.0284    1.9871   -0.1722 H   0  0  0  0  0  0  0  0  0  0  0  0
    1.4958    1.0081   -0.1791 H   0  0  0  0  0  0  0  0  0  0  0  0
    1.3666    2.3547    1.9116 H   0  0  0  0  0  0  0  0  0  0  0  0
    1.2427    0.6319    2.3089 H   0  0  0  0  0  0  0  0  0  0  0  0
   -2.2129    3.7020    2.1946 H   0  0  0  0  0  0  0  0  0  0  0  0
   -1.3288    3.1855    0.7390 H   0  0  0  0  0  0  0  0  0  0  0  0
   -0.4802    4.0749    2.0267 H   0  0  0  0  0  0  0  0  0  0  0  0
   -1.8215   -1.1358   -1.5272 N   0  0  0  0  0  0  0  0  0  0  0  0
   -2.3939   -1.4502   -2.8152 C   0  0  2  0  0  0  0  0  0  0  0  0
   -3.9088   -1.4816   -2.6616 C   0  0  0  0  0  0  0  0  0  0  0  0
   -4.4700   -1.6674   -1.5838 O   0  0  0  0  0  0  0  0  0  0  0  0
   -1.8734   -2.7782   -3.3427 C   0  0  0  0  0  0  0  0  0  0  0  0
   -2.2225   -1.5826   -0.7079 H   0  0  0  0  0  0  0  0  0  0  0  0
   -2.1118   -0.6376   -3.4935 H   0  0  0  0  0  0  0  0  0  0  0  0
   -2.1463   -3.6044   -2.6762 H   0  0  0  0  0  0  0  0  0  0  0  0
   -2.2863   -3.0014   -4.3320 H   0  0  0  0  0  0  0  0  0  0  0  0
   -0.7812   -2.7639   -3.4244 H   0  0  0  0  0  0  0  0  0  0  0  0
   -4.5600   -1.3209   -3.8766 N   0  0  0  0  0  0  0  0  0  0  0  0
   -5.9993   -1.3268   -3.9965 C   0  0  0  0  0  0  0  0  0  0  0  0
   -4.0151   -1.1535   -4.7173 H   0  0  0  0  0  0  0  0  0  0  0  0
   -6.3452   -2.3475   -4.2169 H   0  0  0  0  0  0  0  0  0  0  0  0
   -6.4472   -0.9839   -3.0521 H   0  0  0  0  0  0  0  0  0  0  0  0
   -6.3020   -0.6532   -4.8117 H   0  0  0  0  0  0  0  0  0  0  0  0
  1  3  1  0  0  0  0
  1  7  1  0  0  0  0
  1  2  2  0  0  0  0
 35 36  1  0  0  0  0
 36 44  1  0  0  0  0
 36 37  2  0  0  0  0
  8  9  1  0  0  0  0
  9 17  1  0  0  0  0
  9 10  2  0  0  0  0
 18 19  1  0  0  0  0
 19 34  1  0  0  0  0
 19 20  2  0  0  0  0
 35 38  1  0  0  0  0
  8 11  1  0  0  0  0
 44 45  1  0  0  0  0
 23 24  1  0  0  0  0
 21 22  1  0  0  0  0
 18 21  1  0  0  0  0
 22 23  1  0  0  0  0
 34 35  1  0  0  0  0
  7  8  1  0  0  0  0
 17 18  1  0  0  0  0
  3  4  1  0  0  0  0
  3  5  1  0  0  0  0
  3  6  1  0  0  0  0
 38 41  1  0  0  0  0
 38 42  1  0  0  0  0
 38 43  1  0  0  0  0
 11 14  1  0  0  0  0
 11 15  1  0  0  0  0
 11 16  1  0  0  0  0
 45 47  1  0  0  0  0
 45 48  1  0  0  0  0
 45 49  1  0  0  0  0
 24 31  1  0  0  0  0
 24 32  1  0  0  0  0
 24 33  1  0  0  0  0
 21 27  1  0  0  0  0
 21 28  1  0  0  0  0
 22 29  1  0  0  0  0
 22 30  1  0  0  0  0
 35 40  1  0  0  0  0
  8 13  1  0  0  0  0
 18 26  1  0  0  0  0
 44 46  1  0  0  0  0
  7 12  1  0  0  0  0
 34 39  1  0  0  0  0
 17 25  1  0  0  0  0
M  END
$$$$

  -OEChem-05262214473D

 49 48  0     1  0  0  0  0  0999 V2000
   -0.0561   -5.3799    2.6949 C   0  0  0  0  0  0  0  0  0  0  0  0
    0.7325   -5.0736    3.5815 O   0  0  0  0  0  0  0  0  0  0  0  0
   -1.0067   -6.5099    2.9135 C   0  0  0  0  0  0  0  0  0  0  0  0
   -0.5910   -7.4777    2.5899 H   0  0  0  0  0  0  0  0  0  0  0  0
   -1.2629   -6.6440    3.9767 H   0  0  0  0  0  0  0  0  0  0  0  0
   -1.9729   -6.4206    2.3918 H   0  0  0  0  0  0  0  0  0  0  0  0
   -0.1735   -4.7694    1.4571 N   0  0  0  0  0  0  0  0  0  0  0  0
    0.6439   -3.6603    1.0409 C   0  0  2  0  0  0  0  0  0  0  0  0
   -0.2788   -2.5625    0.5280 C   0  0  0  0  0  0  0  0  0  0  0  0
   -1.4197   -2.7791    0.1251 O   0  0  0  0  0  0  0  0  0  0  0  0
    1.6395   -4.0779   -0.0301 C   0  0  0  0  0  0  0  0  0  0  0  0
   -0.8741   -5.1235    0.8083 H   0  0  0  0  0  0  0  0  0  0  0  0
    1.1738   -3.3062    1.9318 H   0  0  0  0  0  0  0  0  0  0  0  0
    1.1270   -4.4358   -0.9305 H   0  0  0  0  0  0  0  0  0  0  0  0
    2.2797   -3.2400   -0.3251 H   0  0  0  0  0  0  0  0  0  0  0  0
    2.2827   -4.8880    0.3303 H   0  0  0  0  0  0  0  0  0  0  0  0
    0.3351   -1.3153    0.5316 N   0  0  0  0  0  0  0  0  0  0  0  0
   -0.3268   -0.1184    0.0807 C   0  0  2  0  0  0  0  0  0  0  0  0
   -0.7247   -0.2986   -1.3810 C   0  0  0  0  0  0  0  0  0  0  0  0
   -0.0023    0.0372   -2.3172 O   0  0  0  0  0  0  0  0  0  0  0  0
    0.5244    1.1371    0.3153 C   0  0  0  0  0  0  0  0  0  0  0  0
    0.7470    1.4606    1.7946 C   0  0  0  0  0  0  0  0  0  0  0  0
   -0.8400    1.7699    2.6251 S   0  0  0  0  0  0  0  0  0  0  0  0
   -1.2552    3.3331    1.8193 C   0  0  0  0  0  0  0  0  0  0  0  0
    1.2790   -1.2290    0.9021 H   0  0  0  0  0  0  0  0  0  0  0  0
   -1.2455   -0.0428    0.6751 H   0  0  0  0  0  0  0  0  0  0  0  0
    0.0284    1.9871   -0.1722 H   0  0  0  0  0  0  0  0  0  0  0  0
    1.4958    1.0081   -0.1791 H   0  0  0  0  0  0  0  0  0  0  0  0
    1.3666    2.3547    1.9116 H   0  0  0  0  0  0  0  0  0  0  0  0
    1.2427    0.6319    2.3089 H   0  0  0  0  0  0  0  0  0  0  0  0
   -2.2129    3.7020    2.1946 H   0  0  0  0  0  0  0  0  0  0  0  0
   -1.3288    3.1855    0.7390 H   0  0  0  0  0  0  0  0  0  0  0  0
   -0.4802    4.0749    2.0267 H   0  0  0  0  0  0  0  0  0  0  0  0
   -1.9919   -0.8473   -1.5164 N   0  0  0  0  0  0  0  0  0  0  0  0
   -2.5960   -1.1017   -2.8032 C   0  0  2  0  0  0  0  0  0  0  0  0
   -4.0740   -0.7470   -2.7072 C   0  0  0  0  0  0  0  0  0  0  0  0
   -4.6874   -0.7110   -1.6425 O   0  0  0  0  0  0  0  0  0  0  0  0
   -2.4111   -2.5512   -3.2244 C   0  0  0  0  0  0  0  0  0  0  0  0
   -2.5095   -1.1216   -0.6866 H   0  0  0  0  0  0  0  0  0  0  0  0
   -2.1055   -0.4344   -3.5203 H   0  0  0  0  0  0  0  0  0  0  0  0
   -2.8958   -3.2347   -2.5178 H   0  0  0  0  0  0  0  0  0  0  0  0
   -2.8447   -2.7355   -4.2128 H   0  0  0  0  0  0  0  0  0  0  0  0
   -1.3482   -2.8130   -3.2640 H   0  0  0  0  0  0  0  0  0  0  0  0
   -4.6377   -0.5175   -3.9545 N   0  0  0  0  0  0  0  0  0  0  0  0
   -6.0301   -0.1764   -4.1300 C   0  0  0  0  0  0  0  0  0  0  0  0
   -4.0498   -0.5503   -4.7822 H   0  0  0  0  0  0  0  0  0  0  0  0
   -6.6144   -1.0931   -4.2983 H   0  0  0  0  0  0  0  0  0  0  0  0
   -6.3992    0.3330   -3.2276 H   0  0  0  0  0  0  0  0  0  0  0  0
   -6.1374    0.4912   -4.9976 H   0  0  0  0  0  0  0  0  0  0  0  0
  1  3  1  0  0  0  0
  1  7  1  0  0  0  0
  1  2  2  0  0  0  0
 35 36  1  0  0  0  0
 36 44  1  0  0  0  0
 36 37  2  0  0  0  0
  8  9  1  0  0  0  0
  9 17  1  0  0  0  0
  9 10  2  0  0  0  0
 18 19  1  0  0  0  0
 19 34  1  0  0  0  0
 19 20  2  0  0  0  0
 35 38  1  0  0  0  0
  8 11  1  0  0  0  0
 44 45  1  0  0  0  0
 23 24  1  0  0  0  0
 21 22  1  0  0  0  0
 18 21  1  0  0  0  0
 22 23  1  0  0  0  0
 34 35  1  0  0  0  0
  7  8  1  0  0  0  0
 17 18  1  0  0  0  0
  3  4  1  0  0  0  0
  3  5  1  0  0  0  0
  3  6  1  0  0  0  0
 38 41  1  0  0  0  0
 38 42  1  0  0  0  0
 38 43  1  0  0  0  0
 11 14  1  0  0  0  0
 11 15  1  0  0  0  0
 11 16  1  0  0  0  0
 45 47  1  0  0  0  0
 45 48  1  0  0  0  0
 45 49  1  0  0  0  0
 24 31  1  0  0  0  0
 24 32  1  0  0  0  0
 24 33  1  0  0  0  0
 21 27  1  0  0  0  0
 21 28  1  0  0  0  0
 22 29  1  0  0  0  0
 22 30  1  0  0  0  0
 35 40  1  0  0  0  0
  8 13  1  0  0  0  0
 18 26  1  0  0  0  0
 44 46  1  0  0  0  0
  7 12  1  0  0  0  0
 34 39  1  0  0  0  0
 17 25  1  0  0  0  0
M  END
$$$$

  -OEChem-05262214473D

 49 48  0     1  0  0  0  0  0999 V2000
   -0.0561   -5.3799    2.6949 C   0  0  0  0  0  0  0  0  0  0  0  0
    0.7325   -5.0736    3.5815 O   0  0  0  0  0  0  0  0  0  0  0  0
   -1.0067   -6.5099    2.9135 C   0  0  0  0  0  0  0  0  0  0  0  0
   -0.5910   -7.4777    2.5899 H   0  0  0  0  0  0  0  0  0  0  0  0
   -1.2629   -6.6440    3.9767 H   0  0  0  0  0  0  0  0  0  0  0  0
   -1.9729   -6.4206    2.3918 H   0  0  0  0  0  0  0  0  0  0  0  0
   -0.1735   -4.7694    1.4571 N   0  0  0  0  0  0  0  0  0  0  0  0
    0.6439   -3.6603    1.0409 C   0  0  2  0  0  0  0  0  0  0  0  0
   -0.2788   -2.5625    0.5280 C   0  0  0  0  0  0  0  0  0  0  0  0
   -1.4197   -2.7791    0.1251 O   0  0  0  0  0  0  0  0  0  0  0  0
    1.6395   -4.0779   -0.0301 C   0  0  0  0  0  0  0  0  0  0  0  0
   -0.8741   -5.1235    0.8083 H   0  0  0  0  0  0  0  0  0  0  0  0
    1.1738   -3.3062    1.9318 H   0  0  0  0  0  0  0  0  0  0  0  0
    1.1270   -4.4358   -0.9305 H   0  0  0  0  0  0  0  0  0  0  0  0
    2.2797   -3.2400   -0.3251 H   0  0  0  0  0  0  0  0  0  0  0  0
    2.2827   -4.8880    0.3303 H   0  0  0  0  0  0  0  0  0  0  0  0
    0.3351   -1.3153    0.5316 N   0  0  0  0  0  0  0  0  0  0  0  0
   -0.3268   -0.1184    0.0807 C   0  0  2  0  0  0  0  0  0  0  0  0
   -0.7247   -0.2986   -1.3810 C   0  0  0  0  0  0  0  0  0  0  0  0
    0.0791   -0.2192   -2.3077 O   0  0  0  0  0  0  0  0  0  0  0  0
    0.5244    1.1371    0.3153 C   0  0  0  0  0  0  0  0  0  0  0  0
    0.7470    1.4606    1.7946 C   0  0  0  0  0  0  0  0  0  0  0  0
   -0.8400    1.7699    2.6251 S   0  0  0  0  0  0  0  0  0  0  0  0
   -1.2552    3.3331    1.8193 C   0  0  0  0  0  0  0  0  0  0  0  0
    1.2790   -1.2290    0.9021 H   0  0  0  0  0  0  0  0  0  0  0  0
   -1.2455   -0.0428    0.6751 H   0  0  0  0  0  0  0  0  0  0  0  0
    0.0284    1.9871   -0.1722 H   0  0  0  0  0  0  0  0  0  0  0  0
    1.4958    1.0081   -0.1791 H   0  0  0  0  0  0  0  0  0  0  0  0
    1.3666    2.3547    1.9116 H   0  0  0  0  0  0  0  0  0  0  0  0
    1.2427    0.6319    2.3089 H   0  0  0  0  0  0  0  0  0  0  0  0
   -2.2129    3.7020    2.1946 H   0  0  0  0  0  0  0  0  0  0  0  0
   -1.3288    3.1855    0.7390 H   0  0  0  0  0  0  0  0  0  0  0  0
   -0.4802    4.0749    2.0267 H   0  0  0  0  0  0  0  0  0  0  0  0
   -2.0853   -0.5256   -1.5306 N   0  0  0  0  0  0  0  0  0  0  0  0
   -2.7052   -0.7141   -2.8212 C   0  0  2  0  0  0  0  0  0  0  0  0
   -4.0500    0.0005   -2.8059 C   0  0  0  0  0  0  0  0  0  0  0  0
   -4.6585    0.2627   -1.7705 O   0  0  0  0  0  0  0  0  0  0  0  0
   -2.8778   -2.1906   -3.1418 C   0  0  0  0  0  0  0  0  0  0  0  0
   -2.6731   -0.6036   -0.7060 H   0  0  0  0  0  0  0  0  0  0  0  0
   -2.0483   -0.2415   -3.5596 H   0  0  0  0  0  0  0  0  0  0  0  0
   -3.5330   -2.6810   -2.4126 H   0  0  0  0  0  0  0  0  0  0  0  0
   -3.3218   -2.3322   -4.1327 H   0  0  0  0  0  0  0  0  0  0  0  0
   -1.9130   -2.7089   -3.1231 H   0  0  0  0  0  0  0  0  0  0  0  0
   -4.5112    0.2725   -4.0864 N   0  0  0  0  0  0  0  0  0  0  0  0
   -5.7705    0.9334   -4.3375 C   0  0  0  0  0  0  0  0  0  0  0  0
   -3.9319    0.0365   -4.8867 H   0  0  0  0  0  0  0  0  0  0  0  0
   -6.5608    0.1798   -4.4698 H   0  0  0  0  0  0  0  0  0  0  0  0
   -6.0210    1.5812   -3.4845 H   0  0  0  0  0  0  0  0  0  0  0  0
   -5.6891    1.5431   -5.2494 H   0  0  0  0  0  0  0  0  0  0  0  0
  1  3  1  0  0  0  0
  1  7  1  0  0  0  0
  1  2  2  0  0  0  0
 35 36  1  0  0  0  0
 36 44  1  0  0  0  0
 36 37  2  0  0  0  0
  8  9  1  0  0  0  0
  9 17  1  0  0  0  0
  9 10  2  0  0  0  0
 18 19  1  0  0  0  0
 19 34  1  0  0  0  0
 19 20  2  0  0  0  0
 35 38  1  0  0  0  0
  8 11  1  0  0  0  0
 44 45  1  0  0  0  0
 23 24  1  0  0  0  0
 21 22  1  0  0  0  0
 18 21  1  0  0  0  0
 22 23  1  0  0  0  0
 34 35  1  0  0  0  0
  7  8  1  0  0  0  0
 17 18  1  0  0  0  0
  3  4  1  0  0  0  0
  3  5  1  0  0  0  0
  3  6  1  0  0  0  0
 38 41  1  0  0  0  0
 38 42  1  0  0  0  0
 38 43  1  0  0  0  0
 11 14  1  0  0  0  0
 11 15  1  0  0  0  0
 11 16  1  0  0  0  0
 45 47  1  0  0  0  0
 45 48  1  0  0  0  0
 45 49  1  0  0  0  0
 24 31  1  0  0  0  0
 24 32  1  0  0  0  0
 24 33  1  0  0  0  0
 21 27  1  0  0  0  0
 21 28  1  0  0  0  0
 22 29  1  0  0  0  0
 22 30  1  0  0  0  0
 35 40  1  0  0  0  0
  8 13  1  0  0  0  0
 18 26  1  0  0  0  0
 44 46  1  0  0  0  0
  7 12  1  0  0  0  0
 34 39  1  0  0  0  0
 17 25  1  0  0  0  0
M  END
$$$$

  -OEChem-05262214473D

 49 48  0     1  0  0  0  0  0999 V2000
   -0.0561   -5.3799    2.6949 C   0  0  0  0  0  0  0  0  0  0  0  0
    0.7325   -5.0736    3.5815 O   0  0  0  0  0  0  0  0  0  0  0  0
   -1.0067   -6.5099    2.9135 C   0  0  0  0  0  0  0  0  0  0  0  0
   -0.5910   -7.4777    2.5899 H   0  0  0  0  0  0  0  0  0  0  0  0
   -1.2629   -6.6440    3.9767 H   0  0  0  0  0  0  0  0  0  0  0  0
   -1.9729   -6.4206    2.3918 H   0  0  0  0  0  0  0  0  0  0  0  0
   -0.1735   -4.7694    1.4571 N   0  0  0  0  0  0  0  0  0  0  0  0
    0.6439   -3.6603    1.0409 C   0  0  2  0  0  0  0  0  0  0  0  0
   -0.2788   -2.5625    0.5280 C   0  0  0  0  0  0  0  0  0  0  0  0
   -1.4197   -2.7791    0.1251 O   0  0  0  0  0  0  0  0  0  0  0  0
    1.6395   -4.0779   -0.0301 C   0  0  0  0  0  0  0  0  0  0  0  0
   -0.8741   -5.1235    0.8083 H   0  0  0  0  0  0  0  0  0  0  0  0
    1.1738   -3.3062    1.9318 H   0  0  0  0  0  0  0  0  0  0  0  0
    1.1270   -4.4358   -0.9305 H   0  0  0  0  0  0  0  0  0  0  0  0
    2.2797   -3.2400   -0.3251 H   0  0  0  0  0  0  0  0  0  0  0  0
    2.2827   -4.8880    0.3303 H   0  0  0  0  0  0  0  0  0  0  0  0
    0.3351   -1.3153    0.5316 N   0  0  0  0  0  0  0  0  0  0  0  0
   -0.3268   -0.1184    0.0807 C   0  0  2  0  0  0  0  0  0  0  0  0
   -0.7247   -0.2986   -1.3810 C   0  0  0  0  0  0  0  0  0  0  0  0
    0.0938   -0.4865   -2.2788 O   0  0  0  0  0  0  0  0  0  0  0  0
    0.5244    1.1371    0.3153 C   0  0  0  0  0  0  0  0  0  0  0  0
    0.7470    1.4606    1.7946 C   0  0  0  0  0  0  0  0  0  0  0  0
   -0.8400    1.7699    2.6251 S   0  0  0  0  0  0  0  0  0  0  0  0
   -1.2552    3.3331    1.8193 C   0  0  0  0  0  0  0  0  0  0  0  0
    1.2790   -1.2290    0.9021 H   0  0  0  0  0  0  0  0  0  0  0  0
   -1.2455   -0.0428    0.6751 H   0  0  0  0  0  0  0  0  0  0  0  0
    0.0284    1.9871   -0.1722 H   0  0  0  0  0  0  0  0  0  0  0  0
    1.4958    1.0081   -0.1791 H   0  0  0  0  0  0  0  0  0  0  0  0
    1.3666    2.3547    1.9116 H   0  0  0  0  0  0  0  0  0  0  0  0
    1.2427    0.6319    2.3089 H   0  0  0  0  0  0  0  0  0  0  0  0
   -2.2129    3.7020    2.1946 H   0  0  0  0  0  0  0  0  0  0  0  0
   -1.3288    3.1855    0.7390 H   0  0  0  0  0  0  0  0  0  0  0  0
   -0.4802    4.0749    2.0267 H   0  0  0  0  0  0  0  0  0  0  0  0
   -2.0953   -0.1926   -1.5690 N   0  0  0  0  0  0  0  0  0  0  0  0
   -2.7140   -0.3138   -2.8682 C   0  0  2  0  0  0  0  0  0  0  0  0
   -3.8385    0.7099   -2.9510 C   0  0  0  0  0  0  0  0  0  0  0  0
   -4.3852    1.1875   -1.9589 O   0  0  0  0  0  0  0  0  0  0  0  0
   -3.2418   -1.7210   -3.1007 C   0  0  0  0  0  0  0  0  0  0  0  0
   -2.7021   -0.0641   -0.7646 H   0  0  0  0  0  0  0  0  0  0  0  0
   -1.9440   -0.0721   -3.6089 H   0  0  0  0  0  0  0  0  0  0  0  0
   -4.0144   -1.9811   -2.3679 H   0  0  0  0  0  0  0  0  0  0  0  0
   -3.6850   -1.8189   -4.0971 H   0  0  0  0  0  0  0  0  0  0  0  0
   -2.4371   -2.4588   -3.0113 H   0  0  0  0  0  0  0  0  0  0  0  0
   -4.1890    0.9952   -4.2632 N   0  0  0  0  0  0  0  0  0  0  0  0
   -5.2382    1.9271   -4.6049 C   0  0  0  0  0  0  0  0  0  0  0  0
   -3.6692    0.5671   -5.0236 H   0  0  0  0  0  0  0  0  0  0  0  0
   -6.1882    1.3845   -4.7198 H   0  0  0  0  0  0  0  0  0  0  0  0
   -5.3382    2.6758   -3.8053 H   0  0  0  0  0  0  0  0  0  0  0  0
   -4.9874    2.4311   -5.5499 H   0  0  0  0  0  0  0  0  0  0  0  0
  1  3  1  0  0  0  0
  1  7  1  0  0  0  0
  1  2  2  0  0  0  0
 35 36  1  0  0  0  0
 36 44  1  0  0  0  0
 36 37  2  0  0  0  0
  8  9  1  0  0  0  0
  9 17  1  0  0  0  0
  9 10  2  0  0  0  0
 18 19  1  0  0  0  0
 19 34  1  0  0  0  0
 19 20  2  0  0  0  0
 35 38  1  0  0  0  0
  8 11  1  0  0  0  0
 44 45  1  0  0  0  0
 23 24  1  0  0  0  0
 21 22  1  0  0  0  0
 18 21  1  0  0  0  0
 22 23  1  0  0  0  0
 34 35  1  0  0  0  0
  7  8  1  0  0  0  0
 17 18  1  0  0  0  0
  3  4  1  0  0  0  0
  3  5  1  0  0  0  0
  3  6  1  0  0  0  0
 38 41  1  0  0  0  0
 38 42  1  0  0  0  0
 38 43  1  0  0  0  0
 11 14  1  0  0  0  0
 11 15  1  0  0  0  0
 11 16  1  0  0  0  0
 45 47  1  0  0  0  0
 45 48  1  0  0  0  0
 45 49  1  0  0  0  0
 24 31  1  0  0  0  0
 24 32  1  0  0  0  0
 24 33  1  0  0  0  0
 21 27  1  0  0  0  0
 21 28  1  0  0  0  0
 22 29  1  0  0  0  0
 22 30  1  0  0  0  0
 35 40  1  0  0  0  0
  8 13  1  0  0  0  0
 18 26  1  0  0  0  0
 44 46  1  0  0  0  0
  7 12  1  0  0  0  0
 34 39  1  0  0  0  0
 17 25  1  0  0  0  0
M  END
$$$$

  -OEChem-05262214473D

 49 48  0     1  0  0  0  0  0999 V2000
   -0.0561   -5.3799    2.6949 C   0  0  0  0  0  0  0  0  0  0  0  0
    0.7325   -5.0736    3.5815 O   0  0  0  0  0  0  0  0  0  0  0  0
   -1.0067   -6.5099    2.9135 C   0  0  0  0  0  0  0  0  0  0  0  0
   -0.5910   -7.4777    2.5899 H   0  0  0  0  0  0  0  0  0  0  0  0
   -1.2629   -6.6440    3.9767 H   0  0  0  0  0  0  0  0  0  0  0  0
   -1.9729   -6.4206    2.3918 H   0  0  0  0  0  0  0  0  0  0  0  0
   -0.1735   -4.7694    1.4571 N   0  0  0  0  0  0  0  0  0  0  0  0
    0.6439   -3.6603    1.0409 C   0  0  2  0  0  0  0  0  0  0  0  0
   -0.2788   -2.5625    0.5280 C   0  0  0  0  0  0  0  0  0  0  0  0
   -1.4197   -2.7791    0.1251 O   0  0  0  0  0  0  0  0  0  0  0  0
    1.6395   -4.0779   -0.0301 C   0  0  0  0  0  0  0  0  0  0  0  0
   -0.8741   -5.1235    0.8083 H   0  0  0  0  0  0  0  0  0  0  0  0
    1.1738   -3.3062    1.9318 H   0  0  0  0  0  0  0  0  0  0  0  0
    1.1270   -4.4358   -0.9305 H   0  0  0  0  0  0  0  0  0  0  0  0
    2.2797   -3.2400   -0.3251 H   0  0  0  0  0  0  0  0  0  0  0  0
    2.2827   -4.8880    0.3303 H   0  0  0  0  0  0  0  0  0  0  0  0
    0.3351   -1.3153    0.5316 N   0  0  0  0  0  0  0  0  0  0  0  0
   -0.3268   -0.1184    0.0807 C   0  0  2  0  0  0  0  0  0  0  0  0
   -0.7247   -0.2986   -1.3810 C   0  0  0  0  0  0  0  0  0  0  0  0
    0.0408   -0.7464   -2.2323 O   0  0  0  0  0  0  0  0  0  0  0  0
    0.5244    1.1371    0.3153 C   0  0  0  0  0  0  0  0  0  0  0  0
    0.7470    1.4606    1.7946 C   0  0  0  0  0  0  0  0  0  0  0  0
   -0.8400    1.7699    2.6251 S   0  0  0  0  0  0  0  0  0  0  0  0
   -1.2552    3.3331    1.8193 C   0  0  0  0  0  0  0  0  0  0  0  0
    1.2790   -1.2290    0.9021 H   0  0  0  0  0  0  0  0  0  0  0  0
   -1.2455   -0.0428    0.6751 H   0  0  0  0  0  0  0  0  0  0  0  0
    0.0284    1.9871   -0.1722 H   0  0  0  0  0  0  0  0  0  0  0  0
    1.4958    1.0081   -0.1791 H   0  0  0  0  0  0  0  0  0  0  0  0
    1.3666    2.3547    1.9116 H   0  0  0  0  0  0  0  0  0  0  0  0
    1.2427    0.6319    2.3089 H   0  0  0  0  0  0  0  0  0  0  0  0
   -2.2129    3.7020    2.1946 H   0  0  0  0  0  0  0  0  0  0  0  0
   -1.3288    3.1855    0.7390 H   0  0  0  0  0  0  0  0  0  0  0  0
   -0.4802    4.0749    2.0267 H   0  0  0  0  0  0  0  0  0  0  0  0
   -2.0212    0.1288   -1.6288 N   0  0  0  0  0  0  0  0  0  0  0  0
   -2.6218    0.0718   -2.9409 C   0  0  2  0  0  0  0  0  0  0  0  0
   -3.4538    1.3329   -3.1325 C   0  0  0  0  0  0  0  0  0  0  0  0
   -3.8861    2.0002   -2.1950 O   0  0  0  0  0  0  0  0  0  0  0  0
   -3.4781   -1.1744   -3.1037 C   0  0  0  0  0  0  0  0  0  0  0  0
   -2.5945    0.4603   -0.8586 H   0  0  0  0  0  0  0  0  0  0  0  0
   -1.7997    0.0624   -3.6648 H   0  0  0  0  0  0  0  0  0  0  0  0
   -4.3071   -1.1827   -2.3867 H   0  0  0  0  0  0  0  0  0  0  0  0
   -3.9097   -1.2307   -4.1085 H   0  0  0  0  0  0  0  0  0  0  0  0
   -2.8847   -2.0797   -2.9362 H   0  0  0  0  0  0  0  0  0  0  0  0
   -3.6932    1.6016   -4.4729 N   0  0  0  0  0  0  0  0  0  0  0  0
   -4.4695    2.7368   -4.9140 C   0  0  0  0  0  0  0  0  0  0  0  0
   -3.2797    1.0052   -5.1836 H   0  0  0  0  0  0  0  0  0  0  0  0
   -5.5218    2.4388   -5.0312 H   0  0  0  0  0  0  0  0  0  0  0  0
   -4.3975    3.5421   -4.1682 H   0  0  0  0  0  0  0  0  0  0  0  0
   -4.0802    3.0945   -5.8786 H   0  0  0  0  0  0  0  0  0  0  0  0
  1  3  1  0  0  0  0
  1  7  1  0  0  0  0
  1  2  2  0  0  0  0
 35 36  1  0  0  0  0
 36 44  1  0  0  0  0
 36 37  2  0  0  0  0
  8  9  1  0  0  0  0
  9 17  1  0  0  0  0
  9 10  2  0  0  0  0
 18 19  1  0  0  0  0
 19 34  1  0  0  0  0
 19 20  2  0  0  0  0
 35 38  1  0  0  0  0
  8 11  1  0  0  0  0
 44 45  1  0  0  0  0
 23 24  1  0  0  0  0
 21 22  1  0  0  0  0
 18 21  1  0  0  0  0
 22 23  1  0  0  0  0
 34 35  1  0  0  0  0
  7  8  1  0  0  0  0
 17 18  1  0  0  0  0
  3  4  1  0  0  0  0
  3  5  1  0  0  0  0
  3  6  1  0  0  0  0
 38 41  1  0  0  0  0
 38 42  1  0  0  0  0
 38 43  1  0  0  0  0
 11 14  1  0  0  0  0
 11 15  1  0  0  0  0
 11 16  1  0  0  0  0
 45 47  1  0  0  0  0
 45 48  1  0  0  0  0
 45 49  1  0  0  0  0
 24 31  1  0  0  0  0
 24 32  1  0  0  0  0
 24 33  1  0  0  0  0
 21 27  1  0  0  0  0
 21 28  1  0  0  0  0
 22 29  1  0  0  0  0
 22 30  1  0  0  0  0
 35 40  1  0  0  0  0
  8 13  1  0  0  0  0
 18 26  1  0  0  0  0
 44 46  1  0  0  0  0
  7 12  1  0  0  0  0
 34 39  1  0  0  0  0
 17 25  1  0  0  0  0
M  END
$$$$

  -OEChem-05262214473D

 49 48  0     1  0  0  0  0  0999 V2000
   -0.0561   -5.3799    2.6949 C   0  0  0  0  0  0  0  0  0  0  0  0
    0.7325   -5.0736    3.5815 O   0  0  0  0  0  0  0  0  0  0  0  0
   -1.0067   -6.5099    2.9135 C   0  0  0  0  0  0  0  0  0  0  0  0
   -0.5910   -7.4777    2.5899 H   0  0  0  0  0  0  0  0  0  0  0  0
   -1.2629   -6.6440    3.9767 H   0  0  0  0  0  0  0  0  0  0  0  0
   -1.9729   -6.4206    2.3918 H   0  0  0  0  0  0  0  0  0  0  0  0
   -0.1735   -4.7694    1.4571 N   0  0  0  0  0  0  0  0  0  0  0  0
    0.6439   -3.6603    1.0409 C   0  0  2  0  0  0  0  0  0  0  0  0
   -0.2788   -2.5625    0.5280 C   0  0  0  0  0  0  0  0  0  0  0  0
   -1.4197   -2.7791    0.1251 O   0  0  0  0  0  0  0  0  0  0  0  0
    1.6395   -4.0779   -0.0301 C   0  0  0  0  0  0  0  0  0  0  0  0
   -0.8741   -5.1235    0.8083 H   0  0  0  0  0  0  0  0  0  0  0  0
    1.1738   -3.3062    1.9318 H   0  0  0  0  0  0  0  0  0  0  0  0
    1.1270   -4.4358   -0.9305 H   0  0  0  0  0  0  0  0  0  0  0  0
    2.2797   -3.2400   -0.3251 H   0  0  0  0  0  0  0  0  0  0  0  0
    2.2827   -4.8880    0.3303 H   0  0  0  0  0  0  0  0  0  0  0  0
    0.3351   -1.3153    0.5316 N   0  0  0  0  0  0  0  0  0  0  0  0
   -0.3268   -0.1184    0.0807 C   0  0  2  0  0  0  0  0  0  0  0  0
   -0.7247   -0.2986   -1.3810 C   0  0  0  0  0  0  0  0  0  0  0  0
   -0.0762   -0.9811   -2.1715 O   0  0  0  0  0  0  0  0  0  0  0  0
    0.5244    1.1371    0.3153 C   0  0  0  0  0  0  0  0  0  0  0  0
    0.7470    1.4606    1.7946 C   0  0  0  0  0  0  0  0  0  0  0  0
   -0.8400    1.7699    2.6251 S   0  0  0  0  0  0  0  0  0  0  0  0
   -1.2552    3.3331    1.8193 C   0  0  0  0  0  0  0  0  0  0  0  0
    1.2790   -1.2290    0.9021 H   0  0  0  0  0  0  0  0  0  0  0  0
   -1.2455   -0.0428    0.6751 H   0  0  0  0  0  0  0  0  0  0  0  0
    0.0284    1.9871   -0.1722 H   0  0  0  0  0  0  0  0  0  0  0  0
    1.4958    1.0081   -0.1791 H   0  0  0  0  0  0  0  0  0  0  0  0
    1.3666    2.3547    1.9116 H   0  0  0  0  0  0  0  0  0  0  0  0
    1.2427    0.6319    2.3089 H   0  0  0  0  0  0  0  0  0  0  0  0
   -2.2129    3.7020    2.1946 H   0  0  0  0  0  0  0  0  0  0  0  0
   -1.3288    3.1855    0.7390 H   0  0  0  0  0  0  0  0  0  0  0  0
   -0.4802    4.0749    2.0267 H   0  0  0  0  0  0  0  0  0  0  0  0
   -1.8681    0.4169   -1.7060 N   0  0  0  0  0  0  0  0  0  0  0  0
   -2.4349    0.4165   -3.0342 C   0  0  2  0  0  0  0  0  0  0  0  0
   -2.9222    1.8270   -3.3381 C   0  0  0  0  0  0  0  0  0  0  0  0
   -3.1953    2.6455   -2.4626 O   0  0  0  0  0  0  0  0  0  0  0  0
   -3.5707   -0.5880   -3.1508 C   0  0  0  0  0  0  0  0  0  0  0  0
   -2.3576    0.9338   -0.9814 H   0  0  0  0  0  0  0  0  0  0  0  0
   -1.6252    0.1528   -3.7234 H   0  0  0  0  0  0  0  0  0  0  0  0
   -4.3913   -0.3401   -2.4677 H   0  0  0  0  0  0  0  0  0  0  0  0
   -3.9804   -0.6075   -4.1661 H   0  0  0  0  0  0  0  0  0  0  0  0
   -3.2253   -1.5974   -2.9030 H   0  0  0  0  0  0  0  0  0  0  0  0
   -3.0574    2.0501   -4.7012 N   0  0  0  0  0  0  0  0  0  0  0  0
   -3.5167    3.3074   -5.2437 C   0  0  0  0  0  0  0  0  0  0  0  0
   -2.7900    1.3209   -5.3559 H   0  0  0  0  0  0  0  0  0  0  0  0
   -4.6072    3.2709   -5.3828 H   0  0  0  0  0  0  0  0  0  0  0  0
   -3.2629    4.1212   -4.5484 H   0  0  0  0  0  0  0  0  0  0  0  0
   -3.0294    3.4882   -6.2132 H   0  0  0  0  0  0  0  0  0  0  0  0
  1  3  1  0  0  0  0
  1  7  1  0  0  0  0
  1  2  2  0  0  0  0
 35 36  1  0  0  0  0
 36 44  1  0  0  0  0
 36 37  2  0  0  0  0
  8  9  1  0  0  0  0
  9 17  1  0  0  0  0
  9 10  2  0  0  0  0
 18 19  1  0  0  0  0
 19 34  1  0  0  0  0
 19 20  2  0  0  0  0
 35 38  1  0  0  0  0
  8 11  1  0  0  0  0
 44 45  1  0  0  0  0
 23 24  1  0  0  0  0
 21 22  1  0  0  0  0
 18 21  1  0  0  0  0
 22 23  1  0  0  0  0
 34 35  1  0  0  0  0
  7  8  1  0  0  0  0
 17 18  1  0  0  0  0
  3  4  1  0  0  0  0
  3  5  1  0  0  0  0
  3  6  1  0  0  0  0
 38 41  1  0  0  0  0
 38 42  1  0  0  0  0
 38 43  1  0  0  0  0
 11 14  1  0  0  0  0
 11 15  1  0  0  0  0
 11 16  1  0  0  0  0
 45 47  1  0  0  0  0
 45 48  1  0  0  0  0
 45 49  1  0  0  0  0
 24 31  1  0  0  0  0
 24 32  1  0  0  0  0
 24 33  1  0  0  0  0
 21 27  1  0  0  0  0
 21 28  1  0  0  0  0
 22 29  1  0  0  0  0
 22 30  1  0  0  0  0
 35 40  1  0  0  0  0
  8 13  1  0  0  0  0
 18 26  1  0  0  0  0
 44 46  1  0  0  0  0
  7 12  1  0  0  0  0
 34 39  1  0  0  0  0
 17 25  1  0  0  0  0
M  END
$$$$

  -OEChem-05262214473D

 49 48  0     1  0  0  0  0  0999 V2000
   -0.0561   -5.3799    2.6949 C   0  0  0  0  0  0  0  0  0  0  0  0
    0.7325   -5.0736    3.5815 O   0  0  0  0  0  0  0  0  0  0  0  0
   -1.0067   -6.5099    2.9135 C   0  0  0  0  0  0  0  0  0  0  0  0
   -0.5910   -7.4777    2.5899 H   0  0  0  0  0  0  0  0  0  0  0  0
   -1.2629   -6.6440    3.9767 H   0  0  0  0  0  0  0  0  0  0  0  0
   -1.9729   -6.4206    2.3918 H   0  0  0  0  0  0  0  0  0  0  0  0
   -0.1735   -4.7694    1.4571 N   0  0  0  0  0  0  0  0  0  0  0  0
    0.6439   -3.6603    1.0409 C   0  0  2  0  0  0  0  0  0  0  0  0
   -0.2788   -2.5625    0.5280 C   0  0  0  0  0  0  0  0  0  0  0  0
   -1.4197   -2.7791    0.1251 O   0  0  0  0  0  0  0  0  0  0  0  0
    1.6395   -4.0779   -0.0301 C   0  0  0  0  0  0  0  0  0  0  0  0
   -0.8741   -5.1235    0.8083 H   0  0  0  0  0  0  0  0  0  0  0  0
    1.1738   -3.3062    1.9318 H   0  0  0  0  0  0  0  0  0  0  0  0
    1.1270   -4.4358   -0.9305 H   0  0  0  0  0  0  0  0  0  0  0  0
    2.2797   -3.2400   -0.3251 H   0  0  0  0  0  0  0  0  0  0  0  0
    2.2827   -4.8880    0.3303 H   0  0  0  0  0  0  0  0  0  0  0  0
    0.3351   -1.3153    0.5316 N   0  0  0  0  0  0  0  0  0  0  0  0
   -0.3268   -0.1184    0.0807 C   0  0  2  0  0  0  0  0  0  0  0  0
   -0.7247   -0.2986   -1.3810 C   0  0  0  0  0  0  0  0  0  0  0  0
   -0.2493   -1.1747   -2.1005 O   0  0  0  0  0  0  0  0  0  0  0  0
    0.5244    1.1371    0.3153 C   0  0  0  0  0  0  0  0  0  0  0  0
    0.7470    1.4606    1.7946 C   0  0  0  0  0  0  0  0  0  0  0  0
   -0.8400    1.7699    2.6251 S   0  0  0  0  0  0  0  0  0  0  0  0
   -1.2552    3.3331    1.8193 C   0  0  0  0  0  0  0  0  0  0  0  0
    1.2790   -1.2290    0.9021 H   0  0  0  0  0  0  0  0  0  0  0  0
   -1.2455   -0.0428    0.6751 H   0  0  0  0  0  0  0  0  0  0  0  0
    0.0284    1.9871   -0.1722 H   0  0  0  0  0  0  0  0  0  0  0  0
    1.4958    1.0081   -0.1791 H   0  0  0  0  0  0  0  0  0  0  0  0
    1.3666    2.3547    1.9116 H   0  0  0  0  0  0  0  0  0  0  0  0
    1.2427    0.6319    2.3089 H   0  0  0  0  0  0  0  0  0  0  0  0
   -2.2129    3.7020    2.1946 H   0  0  0  0  0  0  0  0  0  0  0  0
   -1.3288    3.1855    0.7390 H   0  0  0  0  0  0  0  0  0  0  0  0
   -0.4802    4.0749    2.0267 H   0  0  0  0  0  0  0  0  0  0  0  0
   -1.6465    0.6521   -1.7953 N   0  0  0  0  0  0  0  0  0  0  0  0
   -2.1660    0.6968   -3.1420 C   0  0  2  0  0  0  0  0  0  0  0  0
   -2.2798    2.1586   -3.5538 C   0  0  0  0  0  0  0  0  0  0  0  0
   -2.3598    3.0795   -2.7436 O   0  0  0  0  0  0  0  0  0  0  0  0
   -3.5133   -0.0017   -3.2387 C   0  0  0  0  0  0  0  0  0  0  0  0
   -2.0077    1.3241   -1.1248 H   0  0  0  0  0  0  0  0  0  0  0  0
   -1.4325    0.1928   -3.7808 H   0  0  0  0  0  0  0  0  0  0  0  0
   -4.2612    0.4891   -2.6053 H   0  0  0  0  0  0  0  0  0  0  0  0
   -3.8925    0.0081   -4.2660 H   0  0  0  0  0  0  0  0  0  0  0  0
   -3.4358   -1.0449   -2.9138 H   0  0  0  0  0  0  0  0  0  0  0  0
   -2.3252    2.3103   -4.9326 N   0  0  0  0  0  0  0  0  0  0  0  0
   -2.4447    3.6001   -5.5715 C   0  0  0  0  0  0  0  0  0  0  0  0
   -2.2334    1.4929   -5.5286 H   0  0  0  0  0  0  0  0  0  0  0  0
   -3.5067    3.8242   -5.7505 H   0  0  0  0  0  0  0  0  0  0  0  0
   -2.0117    4.3734   -4.9201 H   0  0  0  0  0  0  0  0  0  0  0  0
   -1.9065    3.5853   -6.5308 H   0  0  0  0  0  0  0  0  0  0  0  0
  1  3  1  0  0  0  0
  1  7  1  0  0  0  0
  1  2  2  0  0  0  0
 35 36  1  0  0  0  0
 36 44  1  0  0  0  0
 36 37  2  0  0  0  0
  8  9  1  0  0  0  0
  9 17  1  0  0  0  0
  9 10  2  0  0  0  0
 18 19  1  0  0  0  0
 19 34  1  0  0  0  0
 19 20  2  0  0  0  0
 35 38  1  0  0  0  0
  8 11  1  0  0  0  0
 44 45  1  0  0  0  0
 23 24  1  0  0  0  0
 21 22  1  0  0  0  0
 18 21  1  0  0  0  0
 22 23  1  0  0  0  0
 34 35  1  0  0  0  0
  7  8  1  0  0  0  0
 17 18  1  0  0  0  0
  3  4  1  0  0  0  0
  3  5  1  0  0  0  0
  3  6  1  0  0  0  0
 38 41  1  0  0  0  0
 38 42  1  0  0  0  0
 38 43  1  0  0  0  0
 11 14  1  0  0  0  0
 11 15  1  0  0  0  0
 11 16  1  0  0  0  0
 45 47  1  0  0  0  0
 45 48  1  0  0  0  0
 45 49  1  0  0  0  0
 24 31  1  0  0  0  0
 24 32  1  0  0  0  0
 24 33  1  0  0  0  0
 21 27  1  0  0  0  0
 21 28  1  0  0  0  0
 22 29  1  0  0  0  0
 22 30  1  0  0  0  0
 35 40  1  0  0  0  0
  8 13  1  0  0  0  0
 18 26  1  0  0  0  0
 44 46  1  0  0  0  0
  7 12  1  0  0  0  0
 34 39  1  0  0  0  0
 17 25  1  0  0  0  0
M  END
$$$$

  -OEChem-05262214473D

 49 48  0     1  0  0  0  0  0999 V2000
   -0.0561   -5.3799    2.6949 C   0  0  0  0  0  0  0  0  0  0  0  0
    0.7325   -5.0736    3.5815 O   0  0  0  0  0  0  0  0  0  0  0  0
   -1.0067   -6.5099    2.9135 C   0  0  0  0  0  0  0  0  0  0  0  0
   -0.5910   -7.4777    2.5899 H   0  0  0  0  0  0  0  0  0  0  0  0
   -1.2629   -6.6440    3.9767 H   0  0  0  0  0  0  0  0  0  0  0  0
   -1.9729   -6.4206    2.3918 H   0  0  0  0  0  0  0  0  0  0  0  0
   -0.1735   -4.7694    1.4571 N   0  0  0  0  0  0  0  0  0  0  0  0
    0.6439   -3.6603    1.0409 C   0  0  2  0  0  0  0  0  0  0  0  0
   -0.2788   -2.5625    0.5280 C   0  0  0  0  0  0  0  0  0  0  0  0
   -1.4197   -2.7791    0.1251 O   0  0  0  0  0  0  0  0  0  0  0  0
    1.6395   -4.0779   -0.0301 C   0  0  0  0  0  0  0  0  0  0  0  0
   -0.8741   -5.1235    0.8083 H   0  0  0  0  0  0  0  0  0  0  0  0
    1.1738   -3.3062    1.9318 H   0  0  0  0  0  0  0  0  0  0  0  0
    1.1270   -4.4358   -0.9305 H   0  0  0  0  0  0  0  0  0  0  0  0
    2.2797   -3.2400   -0.3251 H   0  0  0  0  0  0  0  0  0  0  0  0
    2.2827   -4.8880    0.3303 H   0  0  0  0  0  0  0  0  0  0  0  0
    0.3351   -1.3153    0.5316 N   0  0  0  0  0  0  0  0  0  0  0  0
   -0.3268   -0.1184    0.0807 C   0  0  2  0  0  0  0  0  0  0  0  0
   -1.0479   -0.4203   -1.2294 C   0  0  0  0  0  0  0  0  0  0  0  0
   -1.0074   -1.5200   -1.7773 O   0  0  0  0  0  0  0  0  0  0  0  0
    0.6385    1.0696   -0.0313 C   0  0  0  0  0  0  0  0  0  0  0  0
    1.2026    1.5316    1.3144 C   0  0  0  0  0  0  0  0  0  0  0  0
   -0.1380    2.0784    2.4134 S   0  0  0  0  0  0  0  0  0  0  0  0
   -0.6130    3.5754    1.5198 C   0  0  0  0  0  0  0  0  0  0  0  0
    1.2790   -1.2290    0.9021 H   0  0  0  0  0  0  0  0  0  0  0  0
   -1.0849    0.1082    0.8403 H   0  0  0  0  0  0  0  0  0  0  0  0
    0.1064    1.9036   -0.5082 H   0  0  0  0  0  0  0  0  0  0  0  0
    1.4663    0.7962   -0.6982 H   0  0  0  0  0  0  0  0  0  0  0  0
    1.8920    2.3709    1.1833 H   0  0  0  0  0  0  0  0  0  0  0  0
    1.7417    0.7217    1.8146 H   0  0  0  0  0  0  0  0  0  0  0  0
   -1.4373    4.0718    2.0378 H   0  0  0  0  0  0  0  0  0  0  0  0
   -0.9324    3.3174    0.5070 H   0  0  0  0  0  0  0  0  0  0  0  0
    0.2372    4.2594    1.4632 H   0  0  0  0  0  0  0  0  0  0  0  0
   -1.7132    0.6895   -1.7303 N   0  0  0  0  0  0  0  0  0  0  0  0
   -2.4584    0.6572   -2.9668 C   0  0  2  0  0  0  0  0  0  0  0  0
   -2.2184    1.9730   -3.6951 C   0  0  0  0  0  0  0  0  0  0  0  0
   -1.8580    2.9999   -3.1236 O   0  0  0  0  0  0  0  0  0  0  0  0
   -3.9419    0.4389   -2.7133 C   0  0  0  0  0  0  0  0  0  0  0  0
   -1.7171    1.5536   -1.1964 H   0  0  0  0  0  0  0  0  0  0  0  0
   -2.0511   -0.1688   -3.5601 H   0  0  0  0  0  0  0  0  0  0  0  0
   -4.3677    1.2565   -2.1203 H   0  0  0  0  0  0  0  0  0  0  0  0
   -4.5015    0.3861   -3.6531 H   0  0  0  0  0  0  0  0  0  0  0  0
   -4.1103   -0.4933   -2.1633 H   0  0  0  0  0  0  0  0  0  0  0  0
   -2.4958    1.8769   -5.0516 N   0  0  0  0  0  0  0  0  0  0  0  0
   -2.3577    2.9940   -5.9566 C   0  0  0  0  0  0  0  0  0  0  0  0
   -2.7712    0.9810   -5.4430 H   0  0  0  0  0  0  0  0  0  0  0  0
   -3.3200    3.5204   -6.0397 H   0  0  0  0  0  0  0  0  0  0  0  0
   -1.5937    3.6854   -5.5716 H   0  0  0  0  0  0  0  0  0  0  0  0
   -2.0539    2.6271   -6.9481 H   0  0  0  0  0  0  0  0  0  0  0  0
  1  3  1  0  0  0  0
  1  7  1  0  0  0  0
  1  2  2  0  0  0  0
 35 36  1  0  0  0  0
 36 44  1  0  0  0  0
 36 37  2  0  0  0  0
  8  9  1  0  0  0  0
  9 17  1  0  0  0  0
  9 10  2  0  0  0  0
 18 19  1  0  0  0  0
 19 34  1  0  0  0  0
 19 20  2  0  0  0  0
 35 38  1  0  0  0  0
  8 11  1  0  0  0  0
 44 45  1  0  0  0  0
 23 24  1  0  0  0  0
 21 22  1  0  0  0  0
 18 21  1  0  0  0  0
 22 23  1  0  0  0  0
 34 35  1  0  0  0  0
  7  8  1  0  0  0  0
 17 18  1  0  0  0  0
  3  4  1  0  0  0  0
  3  5  1  0  0  0  0
  3  6  1  0  0  0  0
 38 41  1  0  0  0  0
 38 42  1  0  0  0  0
 38 43  1  0  0  0  0
 11 14  1  0  0  0  0
 11 15  1  0  0  0  0
 11 16  1  0  0  0  0
 45 47  1  0  0  0  0
 45 48  1  0  0  0  0
 45 49  1  0  0  0  0
 24 31  1  0  0  0  0
 24 32  1  0  0  0  0
 24 33  1  0  0  0  0
 21 27  1  0  0  0  0
 21 28  1  0  0  0  0
 22 29  1  0  0  0  0
 22 30  1  0  0  0  0
 35 40  1  0  0  0  0
  8 13  1  0  0  0  0
 18 26  1  0  0  0  0
 44 46  1  0  0  0  0
  7 12  1  0  0  0  0
 34 39  1  0  0  0  0
 17 25  1  0  0  0  0
M  END
$$$$

  -OEChem-05262214473D

 49 48  0     1  0  0  0  0  0999 V2000
   -0.0561   -5.3799    2.6949 C   0  0  0  0  0  0  0  0  0  0  0  0
    0.7325   -5.0736    3.5815 O   0  0  0  0  0  0  0  0  0  0  0  0
   -1.0067   -6.5099    2.9135 C   0  0  0  0  0  0  0  0  0  0  0  0
   -0.5910   -7.4777    2.5899 H   0  0  0  0  0  0  0  0  0  0  0  0
   -1.2629   -6.6440    3.9767 H   0  0  0  0  0  0  0  0  0  0  0  0
   -1.9729   -6.4206    2.3918 H   0  0  0  0  0  0  0  0  0  0  0  0
   -0.1735   -4.7694    1.4571 N   0  0  0  0  0  0  0  0  0  0  0  0
    0.6439   -3.6603    1.0409 C   0  0  2  0  0  0  0  0  0  0  0  0
   -0.2788   -2.5625    0.5280 C   0  0  0  0  0  0  0  0  0  0  0  0
   -1.4197   -2.7791    0.1251 O   0  0  0  0  0  0  0  0  0  0  0  0
    1.6395   -4.0779   -0.0301 C   0  0  0  0  0  0  0  0  0  0  0  0
   -0.8741   -5.1235    0.8083 H   0  0  0  0  0  0  0  0  0  0  0  0
    1.1738   -3.3062    1.9318 H   0  0  0  0  0  0  0  0  0  0  0  0
    1.1270   -4.4358   -0.9305 H   0  0  0  0  0  0  0  0  0  0  0  0
    2.2797   -3.2400   -0.3251 H   0  0  0  0  0  0  0  0  0  0  0  0
    2.2827   -4.8880    0.3303 H   0  0  0  0  0  0  0  0  0  0  0  0
    0.3351   -1.3153    0.5316 N   0  0  0  0  0  0  0  0  0  0  0  0
   -0.3268   -0.1184    0.0807 C   0  0  2  0  0  0  0  0  0  0  0  0
   -1.0479   -0.4203   -1.2294 C   0  0  0  0  0  0  0  0  0  0  0  0
   -1.2359   -1.5631   -1.6416 O   0  0  0  0  0  0  0  0  0  0  0  0
    0.6385    1.0696   -0.0313 C   0  0  0  0  0  0  0  0  0  0  0  0
    1.2026    1.5316    1.3144 C   0  0  0  0  0  0  0  0  0  0  0  0
   -0.1380    2.0784    2.4134 S   0  0  0  0  0  0  0  0  0  0  0  0
   -0.6130    3.5754    1.5198 C   0  0  0  0  0  0  0  0  0  0  0  0
    1.2790   -1.2290    0.9021 H   0  0  0  0  0  0  0  0  0  0  0  0
   -1.0849    0.1082    0.8403 H   0  0  0  0  0  0  0  0  0  0  0  0
    0.1064    1.9036   -0.5082 H   0  0  0  0  0  0  0  0  0  0  0  0
    1.4663    0.7962   -0.6982 H   0  0  0  0  0  0  0  0  0  0  0  0
    1.8920    2.3709    1.1833 H   0  0  0  0  0  0  0  0  0  0  0  0
    1.7417    0.7217    1.8146 H   0  0  0  0  0  0  0  0  0  0  0  0
   -1.4373    4.0718    2.0378 H   0  0  0  0  0  0  0  0  0  0  0  0
   -0.9324    3.3174    0.5070 H   0  0  0  0  0  0  0  0  0  0  0  0
    0.2372    4.2594    1.4632 H   0  0  0  0  0  0  0  0  0  0  0  0
   -1.4267    0.7348   -1.8984 N   0  0  0  0  0  0  0  0  0  0  0  0
   -2.1132    0.7083   -3.1686 C   0  0  2  0  0  0  0  0  0  0  0  0
   -1.5557    1.8353   -4.0281 C   0  0  0  0  0  0  0  0  0  0  0  0
   -0.9946    2.8228   -3.5579 O   0  0  0  0  0  0  0  0  0  0  0  0
   -3.6162    0.8547   -2.9884 C   0  0  0  0  0  0  0  0  0  0  0  0
   -1.2556    1.6398   -1.4703 H   0  0  0  0  0  0  0  0  0  0  0  0
   -1.8807   -0.2558   -3.6338 H   0  0  0  0  0  0  0  0  0  0  0  0
   -3.8685    1.8148   -2.5237 H   0  0  0  0  0  0  0  0  0  0  0  0
   -4.1377    0.8058   -3.9500 H   0  0  0  0  0  0  0  0  0  0  0  0
   -4.0108    0.0604   -2.3457 H   0  0  0  0  0  0  0  0  0  0  0  0
   -1.7967    1.6293   -5.3792 N   0  0  0  0  0  0  0  0  0  0  0  0
   -1.3766    2.5636   -6.3974 C   0  0  0  0  0  0  0  0  0  0  0  0
   -2.2522    0.7729   -5.6807 H   0  0  0  0  0  0  0  0  0  0  0  0
   -2.1916    3.2729   -6.6036 H   0  0  0  0  0  0  0  0  0  0  0  0
   -0.4913    3.1143   -6.0467 H   0  0  0  0  0  0  0  0  0  0  0  0
   -1.1265    2.0150   -7.3175 H   0  0  0  0  0  0  0  0  0  0  0  0
  1  3  1  0  0  0  0
  1  7  1  0  0  0  0
  1  2  2  0  0  0  0
 35 36  1  0  0  0  0
 36 44  1  0  0  0  0
 36 37  2  0  0  0  0
  8  9  1  0  0  0  0
  9 17  1  0  0  0  0
  9 10  2  0  0  0  0
 18 19  1  0  0  0  0
 19 34  1  0  0  0  0
 19 20  2  0  0  0  0
 35 38  1  0  0  0  0
  8 11  1  0  0  0  0
 44 45  1  0  0  0  0
 23 24  1  0  0  0  0
 21 22  1  0  0  0  0
 18 21  1  0  0  0  0
 22 23  1  0  0  0  0
 34 35  1  0  0  0  0
  7  8  1  0  0  0  0
 17 18  1  0  0  0  0
  3  4  1  0  0  0  0
  3  5  1  0  0  0  0
  3  6  1  0  0  0  0
 38 41  1  0  0  0  0
 38 42  1  0  0  0  0
 38 43  1  0  0  0  0
 11 14  1  0  0  0  0
 11 15  1  0  0  0  0
 11 16  1  0  0  0  0
 45 47  1  0  0  0  0
 45 48  1  0  0  0  0
 45 49  1  0  0  0  0
 24 31  1  0  0  0  0
 24 32  1  0  0  0  0
 24 33  1  0  0  0  0
 21 27  1  0  0  0  0
 21 28  1  0  0  0  0
 22 29  1  0  0  0  0
 22 30  1  0  0  0  0
 35 40  1  0  0  0  0
  8 13  1  0  0  0  0
 18 26  1  0  0  0  0
 44 46  1  0  0  0  0
  7 12  1  0  0  0  0
 34 39  1  0  0  0  0
 17 25  1  0  0  0  0
M  END
$$$$

  -OEChem-05262214473D

 49 48  0     1  0  0  0  0  0999 V2000
   -0.0561   -5.3799    2.6949 C   0  0  0  0  0  0  0  0  0  0  0  0
    0.7325   -5.0736    3.5815 O   0  0  0  0  0  0  0  0  0  0  0  0
   -1.0067   -6.5099    2.9135 C   0  0  0  0  0  0  0  0  0  0  0  0
   -0.5910   -7.4777    2.5899 H   0  0  0  0  0  0  0  0  0  0  0  0
   -1.2629   -6.6440    3.9767 H   0  0  0  0  0  0  0  0  0  0  0  0
   -1.9729   -6.4206    2.3918 H   0  0  0  0  0  0  0  0  0  0  0  0
   -0.1735   -4.7694    1.4571 N   0  0  0  0  0  0  0  0  0  0  0  0
    0.6439   -3.6603    1.0409 C   0  0  2  0  0  0  0  0  0  0  0  0
   -0.2788   -2.5625    0.5280 C   0  0  0  0  0  0  0  0  0  0  0  0
   -1.4197   -2.7791    0.1251 O   0  0  0  0  0  0  0  0  0  0  0  0
    1.6395   -4.0779   -0.0301 C   0  0  0  0  0  0  0  0  0  0  0  0
   -0.8741   -5.1235    0.8083 H   0  0  0  0  0  0  0  0  0  0  0  0
    1.1738   -3.3062    1.9318 H   0  0  0  0  0  0  0  0  0  0  0  0
    1.1270   -4.4358   -0.9305 H   0  0  0  0  0  0  0  0  0  0  0  0
    2.2797   -3.2400   -0.3251 H   0  0  0  0  0  0  0  0  0  0  0  0
    2.2827   -4.8880    0.3303 H   0  0  0  0  0  0  0  0  0  0  0  0
    0.3351   -1.3153    0.5316 N   0  0  0  0  0  0  0  0  0  0  0  0
   -0.3268   -0.1184    0.0807 C   0  0  2  0  0  0  0  0  0  0  0  0
   -1.0479   -0.4203   -1.2294 C   0  0  0  0  0  0  0  0  0  0  0  0
   -1.4732   -1.5372   -1.5169 O   0  0  0  0  0  0  0  0  0  0  0  0
    0.6385    1.0696   -0.0313 C   0  0  0  0  0  0  0  0  0  0  0  0
    1.2026    1.5316    1.3144 C   0  0  0  0  0  0  0  0  0  0  0  0
   -0.1380    2.0784    2.4134 S   0  0  0  0  0  0  0  0  0  0  0  0
   -0.6130    3.5754    1.5198 C   0  0  0  0  0  0  0  0  0  0  0  0
    1.2790   -1.2290    0.9021 H   0  0  0  0  0  0  0  0  0  0  0  0
   -1.0849    0.1082    0.8403 H   0  0  0  0  0  0  0  0  0  0  0  0
    0.1064    1.9036   -0.5082 H   0  0  0  0  0  0  0  0  0  0  0  0
    1.4663    0.7962   -0.6982 H   0  0  0  0  0  0  0  0  0  0  0  0
    1.8920    2.3709    1.1833 H   0  0  0  0  0  0  0  0  0  0  0  0
    1.7417    0.7217    1.8146 H   0  0  0  0  0  0  0  0  0  0  0  0
   -1.4373    4.0718    2.0378 H   0  0  0  0  0  0  0  0  0  0  0  0
   -0.9324    3.3174    0.5070 H   0  0  0  0  0  0  0  0  0  0  0  0
    0.2372    4.2594    1.4632 H   0  0  0  0  0  0  0  0  0  0  0  0
   -1.1313    0.6942   -2.0516 N   0  0  0  0  0  0  0  0  0  0  0  0
   -1.7581    0.6563   -3.3521 C   0  0  2  0  0  0  0  0  0  0  0  0
   -0.9291    1.5141   -4.2989 C   0  0  0  0  0  0  0  0  0  0  0  0
   -0.1778    2.4066   -3.9115 O   0  0  0  0  0  0  0  0  0  0  0  0
   -3.1950    1.1503   -3.2883 C   0  0  0  0  0  0  0  0  0  0  0  0
   -0.7766    1.5870   -1.7217 H   0  0  0  0  0  0  0  0  0  0  0  0
   -1.7317   -0.3868   -3.6856 H   0  0  0  0  0  0  0  0  0  0  0  0
   -3.2416    2.1938   -2.9560 H   0  0  0  0  0  0  0  0  0  0  0  0
   -3.6778    1.0940   -4.2695 H   0  0  0  0  0  0  0  0  0  0  0  0
   -3.7823    0.5508   -2.5844 H   0  0  0  0  0  0  0  0  0  0  0  0
   -1.1596    1.1946   -5.6297 N   0  0  0  0  0  0  0  0  0  0  0  0
   -0.5020    1.8758   -6.7203 C   0  0  0  0  0  0  0  0  0  0  0  0
   -1.7849    0.4274   -5.8583 H   0  0  0  0  0  0  0  0  0  0  0  0
   -1.1278    2.7141   -7.0603 H   0  0  0  0  0  0  0  0  0  0  0  0
    0.4709    2.2595   -6.3793 H   0  0  0  0  0  0  0  0  0  0  0  0
   -0.3477    1.1726   -7.5519 H   0  0  0  0  0  0  0  0  0  0  0  0
  1  3  1  0  0  0  0
  1  7  1  0  0  0  0
  1  2  2  0  0  0  0
 35 36  1  0  0  0  0
 36 44  1  0  0  0  0
 36 37  2  0  0  0  0
  8  9  1  0  0  0  0
  9 17  1  0  0  0  0
  9 10  2  0  0  0  0
 18 19  1  0  0  0  0
 19 34  1  0  0  0  0
 19 20  2  0  0  0  0
 35 38  1  0  0  0  0
  8 11  1  0  0  0  0
 44 45  1  0  0  0  0
 23 24  1  0  0  0  0
 21 22  1  0  0  0  0
 18 21  1  0  0  0  0
 22 23  1  0  0  0  0
 34 35  1  0  0  0  0
  7  8  1  0  0  0  0
 17 18  1  0  0  0  0
  3  4  1  0  0  0  0
  3  5  1  0  0  0  0
  3  6  1  0  0  0  0
 38 41  1  0  0  0  0
 38 42  1  0  0  0  0
 38 43  1  0  0  0  0
 11 14  1  0  0  0  0
 11 15  1  0  0  0  0
 11 16  1  0  0  0  0
 45 47  1  0  0  0  0
 45 48  1  0  0  0  0
 45 49  1  0  0  0  0
 24 31  1  0  0  0  0
 24 32  1  0  0  0  0
 24 33  1  0  0  0  0
 21 27  1  0  0  0  0
 21 28  1  0  0  0  0
 22 29  1  0  0  0  0
 22 30  1  0  0  0  0
 35 40  1  0  0  0  0
  8 13  1  0  0  0  0
 18 26  1  0  0  0  0
 44 46  1  0  0  0  0
  7 12  1  0  0  0  0
 34 39  1  0  0  0  0
 17 25  1  0  0  0  0
M  END
$$$$

  -OEChem-05262214473D

 49 48  0     1  0  0  0  0  0999 V2000
   -0.0561   -5.3799    2.6949 C   0  0  0  0  0  0  0  0  0  0  0  0
    0.7325   -5.0736    3.5815 O   0  0  0  0  0  0  0  0  0  0  0  0
   -1.0067   -6.5099    2.9135 C   0  0  0  0  0  0  0  0  0  0  0  0
   -0.5910   -7.4777    2.5899 H   0  0  0  0  0  0  0  0  0  0  0  0
   -1.2629   -6.6440    3.9767 H   0  0  0  0  0  0  0  0  0  0  0  0
   -1.9729   -6.4206    2.3918 H   0  0  0  0  0  0  0  0  0  0  0  0
   -0.1735   -4.7694    1.4571 N   0  0  0  0  0  0  0  0  0  0  0  0
    0.6439   -3.6603    1.0409 C   0  0  2  0  0  0  0  0  0  0  0  0
   -0.2788   -2.5625    0.5280 C   0  0  0  0  0  0  0  0  0  0  0  0
   -1.4197   -2.7791    0.1251 O   0  0  0  0  0  0  0  0  0  0  0  0
    1.6395   -4.0779   -0.0301 C   0  0  0  0  0  0  0  0  0  0  0  0
   -0.8741   -5.1235    0.8083 H   0  0  0  0  0  0  0  0  0  0  0  0
    1.1738   -3.3062    1.9318 H   0  0  0  0  0  0  0  0  0  0  0  0
    1.1270   -4.4358   -0.9305 H   0  0  0  0  0  0  0  0  0  0  0  0
    2.2797   -3.2400   -0.3251 H   0  0  0  0  0  0  0  0  0  0  0  0
    2.2827   -4.8880    0.3303 H   0  0  0  0  0  0  0  0  0  0  0  0
    0.3351   -1.3153    0.5316 N   0  0  0  0  0  0  0  0  0  0  0  0
   -0.3268   -0.1184    0.0807 C   0  0  2  0  0  0  0  0  0  0  0  0
   -1.0479   -0.4203   -1.2294 C   0  0  0  0  0  0  0  0  0  0  0  0
   -1.7030   -1.4443   -1.4119 O   0  0  0  0  0  0  0  0  0  0  0  0
    0.6385    1.0696   -0.0313 C   0  0  0  0  0  0  0  0  0  0  0  0
    1.2026    1.5316    1.3144 C   0  0  0  0  0  0  0  0  0  0  0  0
   -0.1380    2.0784    2.4134 S   0  0  0  0  0  0  0  0  0  0  0  0
   -0.6130    3.5754    1.5198 C   0  0  0  0  0  0  0  0  0  0  0  0
    1.2790   -1.2290    0.9021 H   0  0  0  0  0  0  0  0  0  0  0  0
   -1.0849    0.1082    0.8403 H   0  0  0  0  0  0  0  0  0  0  0  0
    0.1064    1.9036   -0.5082 H   0  0  0  0  0  0  0  0  0  0  0  0
    1.4663    0.7962   -0.6982 H   0  0  0  0  0  0  0  0  0  0  0  0
    1.8920    2.3709    1.1833 H   0  0  0  0  0  0  0  0  0  0  0  0
    1.7417    0.7217    1.8146 H   0  0  0  0  0  0  0  0  0  0  0  0
   -1.4373    4.0718    2.0378 H   0  0  0  0  0  0  0  0  0  0  0  0
   -0.9324    3.3174    0.5070 H   0  0  0  0  0  0  0  0  0  0  0  0
    0.2372    4.2594    1.4632 H   0  0  0  0  0  0  0  0  0  0  0  0
   -0.8471    0.5707   -2.1796 N   0  0  0  0  0  0  0  0  0  0  0  0
   -1.4172    0.5048   -3.5047 C   0  0  2  0  0  0  0  0  0  0  0  0
   -0.3814    1.0315   -4.4891 C   0  0  0  0  0  0  0  0  0  0  0  0
    0.5367    1.7799   -4.1604 O   0  0  0  0  0  0  0  0  0  0  0  0
   -2.7071    1.3055   -3.5926 C   0  0  0  0  0  0  0  0  0  0  0  0
   -0.3129    1.3988   -1.9336 H   0  0  0  0  0  0  0  0  0  0  0  0
   -1.6143   -0.5527   -3.7120 H   0  0  0  0  0  0  0  0  0  0  0  0
   -2.5297    2.3676   -3.3879 H   0  0  0  0  0  0  0  0  0  0  0  0
   -3.1532    1.2312   -4.5899 H   0  0  0  0  0  0  0  0  0  0  0  0
   -3.4404    0.9445   -2.8633 H   0  0  0  0  0  0  0  0  0  0  0  0
   -0.6281    0.6025   -5.7857 N   0  0  0  0  0  0  0  0  0  0  0  0
    0.2065    0.9776   -6.9032 C   0  0  0  0  0  0  0  0  0  0  0  0
   -1.4012   -0.0319   -5.9636 H   0  0  0  0  0  0  0  0  0  0  0  0
   -0.2011    1.8819   -7.3786 H   0  0  0  0  0  0  0  0  0  0  0  0
    1.2274    1.1793   -6.5467 H   0  0  0  0  0  0  0  0  0  0  0  0
    0.2292    0.1570   -7.6355 H   0  0  0  0  0  0  0  0  0  0  0  0
  1  3  1  0  0  0  0
  1  7  1  0  0  0  0
  1  2  2  0  0  0  0
 35 36  1  0  0  0  0
 36 44  1  0  0  0  0
 36 37  2  0  0  0  0
  8  9  1  0  0  0  0
  9 17  1  0  0  0  0
  9 10  2  0  0  0  0
 18 19  1  0  0  0  0
 19 34  1  0  0  0  0
 19 20  2  0  0  0  0
 35 38  1  0  0  0  0
  8 11  1  0  0  0  0
 44 45  1  0  0  0  0
 23 24  1  0  0  0  0
 21 22  1  0  0  0  0
 18 21  1  0  0  0  0
 22 23  1  0  0  0  0
 34 35  1  0  0  0  0
  7  8  1  0  0  0  0
 17 18  1  0  0  0  0
  3  4  1  0  0  0  0
  3  5  1  0  0  0  0
  3  6  1  0  0  0  0
 38 41  1  0  0  0  0
 38 42  1  0  0  0  0
 38 43  1  0  0  0  0
 11 14  1  0  0  0  0
 11 15  1  0  0  0  0
 11 16  1  0  0  0  0
 45 47  1  0  0  0  0
 45 48  1  0  0  0  0
 45 49  1  0  0  0  0
 24 31  1  0  0  0  0
 24 32  1  0  0  0  0
 24 33  1  0  0  0  0
 21 27  1  0  0  0  0
 21 28  1  0  0  0  0
 22 29  1  0  0  0  0
 22 30  1  0  0  0  0
 35 40  1  0  0  0  0
  8 13  1  0  0  0  0
 18 26  1  0  0  0  0
 44 46  1  0  0  0  0
  7 12  1  0  0  0  0
 34 39  1  0  0  0  0
 17 25  1  0  0  0  0
M  END
$$$$

  -OEChem-05262214473D

 49 48  0     1  0  0  0  0  0999 V2000
   -0.0561   -5.3799    2.6949 C   0  0  0  0  0  0  0  0  0  0  0  0
    0.7325   -5.0736    3.5815 O   0  0  0  0  0  0  0  0  0  0  0  0
   -1.0067   -6.5099    2.9135 C   0  0  0  0  0  0  0  0  0  0  0  0
   -0.5910   -7.4777    2.5899 H   0  0  0  0  0  0  0  0  0  0  0  0
   -1.2629   -6.6440    3.9767 H   0  0  0  0  0  0  0  0  0  0  0  0
   -1.9729   -6.4206    2.3918 H   0  0  0  0  0  0  0  0  0  0  0  0
   -0.1735   -4.7694    1.4571 N   0  0  0  0  0  0  0  0  0  0  0  0
    0.6439   -3.6603    1.0409 C   0  0  2  0  0  0  0  0  0  0  0  0
   -0.2788   -2.5625    0.5280 C   0  0  0  0  0  0  0  0  0  0  0  0
   -1.4197   -2.7791    0.1251 O   0  0  0  0  0  0  0  0  0  0  0  0
    1.6395   -4.0779   -0.0301 C   0  0  0  0  0  0  0  0  0  0  0  0
   -0.8741   -5.1235    0.8083 H   0  0  0  0  0  0  0  0  0  0  0  0
    1.1738   -3.3062    1.9318 H   0  0  0  0  0  0  0  0  0  0  0  0
    1.1270   -4.4358   -0.9305 H   0  0  0  0  0  0  0  0  0  0  0  0
    2.2797   -3.2400   -0.3251 H   0  0  0  0  0  0  0  0  0  0  0  0
    2.2827   -4.8880    0.3303 H   0  0  0  0  0  0  0  0  0  0  0  0
    0.3351   -1.3153    0.5316 N   0  0  0  0  0  0  0  0  0  0  0  0
   -0.3268   -0.1184    0.0807 C   0  0  2  0  0  0  0  0  0  0  0  0
   -1.0479   -0.4203   -1.2294 C   0  0  0  0  0  0  0  0  0  0  0  0
   -1.9097   -1.2907   -1.3335 O   0  0  0  0  0  0  0  0  0  0  0  0
    0.6385    1.0696   -0.0313 C   0  0  0  0  0  0  0  0  0  0  0  0
    1.2026    1.5316    1.3144 C   0  0  0  0  0  0  0  0  0  0  0  0
   -0.1380    2.0784    2.4134 S   0  0  0  0  0  0  0  0  0  0  0  0
   -0.6130    3.5754    1.5198 C   0  0  0  0  0  0  0  0  0  0  0  0
    1.2790   -1.2290    0.9021 H   0  0  0  0  0  0  0  0  0  0  0  0
   -1.0849    0.1082    0.8403 H   0  0  0  0  0  0  0  0  0  0  0  0
    0.1064    1.9036   -0.5082 H   0  0  0  0  0  0  0  0  0  0  0  0
    1.4663    0.7962   -0.6982 H   0  0  0  0  0  0  0  0  0  0  0  0
    1.8920    2.3709    1.1833 H   0  0  0  0  0  0  0  0  0  0  0  0
    1.7417    0.7217    1.8146 H   0  0  0  0  0  0  0  0  0  0  0  0
   -1.4373    4.0718    2.0378 H   0  0  0  0  0  0  0  0  0  0  0  0
   -0.9324    3.3174    0.5070 H   0  0  0  0  0  0  0  0  0  0  0  0
    0.2372    4.2594    1.4632 H   0  0  0  0  0  0  0  0  0  0  0  0
   -0.5935    0.3725   -2.2735 N   0  0  0  0  0  0  0  0  0  0  0  0
   -1.1139    0.2639   -3.6162 C   0  0  2  0  0  0  0  0  0  0  0  0
    0.0501    0.4204   -4.5858 C   0  0  0  0  0  0  0  0  0  0  0  0
    1.1004    0.9852   -4.2875 O   0  0  0  0  0  0  0  0  0  0  0  0
   -2.1858    1.3097   -3.8805 C   0  0  0  0  0  0  0  0  0  0  0  0
    0.1041    1.0880   -2.0914 H   0  0  0  0  0  0  0  0  0  0  0  0
   -1.5363   -0.7423   -3.7112 H   0  0  0  0  0  0  0  0  0  0  0  0
   -1.7812    2.3244   -3.7898 H   0  0  0  0  0  0  0  0  0  0  0  0
   -2.5995    1.2078   -4.8892 H   0  0  0  0  0  0  0  0  0  0  0  0
   -3.0083    1.2146   -3.1633 H   0  0  0  0  0  0  0  0  0  0  0  0
   -0.2383   -0.1067   -5.8369 N   0  0  0  0  0  0  0  0  0  0  0  0
    0.7005   -0.0699   -6.9338 C   0  0  0  0  0  0  0  0  0  0  0  0
   -1.1274   -0.5737   -5.9895 H   0  0  0  0  0  0  0  0  0  0  0  0
    0.5254    0.8333   -7.5368 H   0  0  0  0  0  0  0  0  0  0  0  0
    1.7266   -0.0528   -6.5376 H   0  0  0  0  0  0  0  0  0  0  0  0
    0.5650   -0.9623   -7.5624 H   0  0  0  0  0  0  0  0  0  0  0  0
  1  3  1  0  0  0  0
  1  7  1  0  0  0  0
  1  2  2  0  0  0  0
 35 36  1  0  0  0  0
 36 44  1  0  0  0  0
 36 37  2  0  0  0  0
  8  9  1  0  0  0  0
  9 17  1  0  0  0  0
  9 10  2  0  0  0  0
 18 19  1  0  0  0  0
 19 34  1  0  0  0  0
 19 20  2  0  0  0  0
 35 38  1  0  0  0  0
  8 11  1  0  0  0  0
 44 45  1  0  0  0  0
 23 24  1  0  0  0  0
 21 22  1  0  0  0  0
 18 21  1  0  0  0  0
 22 23  1  0  0  0  0
 34 35  1  0  0  0  0
  7  8  1  0  0  0  0
 17 18  1  0  0  0  0
  3  4  1  0  0  0  0
  3  5  1  0  0  0  0
  3  6  1  0  0  0  0
 38 41  1  0  0  0  0
 38 42  1  0  0  0  0
 38 43  1  0  0  0  0
 11 14  1  0  0  0  0
 11 15  1  0  0  0  0
 11 16  1  0  0  0  0
 45 47  1  0  0  0  0
 45 48  1  0  0  0  0
 45 49  1  0  0  0  0
 24 31  1  0  0  0  0
 24 32  1  0  0  0  0
 24 33  1  0  0  0  0
 21 27  1  0  0  0  0
 21 28  1  0  0  0  0
 22 29  1  0  0  0  0
 22 30  1  0  0  0  0
 35 40  1  0  0  0  0
  8 13  1  0  0  0  0
 18 26  1  0  0  0  0
 44 46  1  0  0  0  0
  7 12  1  0  0  0  0
 34 39  1  0  0  0  0
 17 25  1  0  0  0  0
M  END
$$$$

  -OEChem-05262214473D

 49 48  0     1  0  0  0  0  0999 V2000
   -0.0561   -5.3799    2.6949 C   0  0  0  0  0  0  0  0  0  0  0  0
    0.7325   -5.0736    3.5815 O   0  0  0  0  0  0  0  0  0  0  0  0
   -1.0067   -6.5099    2.9135 C   0  0  0  0  0  0  0  0  0  0  0  0
   -0.5910   -7.4777    2.5899 H   0  0  0  0  0  0  0  0  0  0  0  0
   -1.2629   -6.6440    3.9767 H   0  0  0  0  0  0  0  0  0  0  0  0
   -1.9729   -6.4206    2.3918 H   0  0  0  0  0  0  0  0  0  0  0  0
   -0.1735   -4.7694    1.4571 N   0  0  0  0  0  0  0  0  0  0  0  0
    0.6439   -3.6603    1.0409 C   0  0  2  0  0  0  0  0  0  0  0  0
   -0.2788   -2.5625    0.5280 C   0  0  0  0  0  0  0  0  0  0  0  0
   -1.4197   -2.7791    0.1251 O   0  0  0  0  0  0  0  0  0  0  0  0
    1.6395   -4.0779   -0.0301 C   0  0  0  0  0  0  0  0  0  0  0  0
   -0.8741   -5.1235    0.8083 H   0  0  0  0  0  0  0  0  0  0  0  0
    1.1738   -3.3062    1.9318 H   0  0  0  0  0  0  0  0  0  0  0  0
    1.1270   -4.4358   -0.9305 H   0  0  0  0  0  0  0  0  0  0  0  0
    2.2797   -3.2400   -0.3251 H   0  0  0  0  0  0  0  0  0  0  0  0
    2.2827   -4.8880    0.3303 H   0  0  0  0  0  0  0  0  0  0  0  0
    0.3351   -1.3153    0.5316 N   0  0  0  0  0  0  0  0  0  0  0  0
   -0.3268   -0.1184    0.0807 C   0  0  2  0  0  0  0  0  0  0  0  0
   -1.0479   -0.4203   -1.2294 C   0  0  0  0  0  0  0  0  0  0  0  0
   -2.0792   -1.0867   -1.2872 O   0  0  0  0  0  0  0  0  0  0  0  0
    0.6385    1.0696   -0.0313 C   0  0  0  0  0  0  0  0  0  0  0  0
    1.2026    1.5316    1.3144 C   0  0  0  0  0  0  0  0  0  0  0  0
   -0.1380    2.0784    2.4134 S   0  0  0  0  0  0  0  0  0  0  0  0
   -0.6130    3.5754    1.5198 C   0  0  0  0  0  0  0  0  0  0  0  0
    1.2790   -1.2290    0.9021 H   0  0  0  0  0  0  0  0  0  0  0  0
   -1.0849    0.1082    0.8403 H   0  0  0  0  0  0  0  0  0  0  0  0
    0.1064    1.9036   -0.5082 H   0  0  0  0  0  0  0  0  0  0  0  0
    1.4663    0.7962   -0.6982 H   0  0  0  0  0  0  0  0  0  0  0  0
    1.8920    2.3709    1.1833 H   0  0  0  0  0  0  0  0  0  0  0  0
    1.7417    0.7217    1.8146 H   0  0  0  0  0  0  0  0  0  0  0  0
   -1.4373    4.0718    2.0378 H   0  0  0  0  0  0  0  0  0  0  0  0
   -0.9324    3.3174    0.5070 H   0  0  0  0  0  0  0  0  0  0  0  0
    0.2372    4.2594    1.4632 H   0  0  0  0  0  0  0  0  0  0  0  0
   -0.3877    0.1133   -2.3270 N   0  0  0  0  0  0  0  0  0  0  0  0
   -0.8687   -0.0498   -3.6789 C   0  0  2  0  0  0  0  0  0  0  0  0
    0.3360   -0.2777   -4.5823 C   0  0  0  0  0  0  0  0  0  0  0  0
    1.4747    0.0768   -4.2842 O   0  0  0  0  0  0  0  0  0  0  0  0
   -1.6666    1.1628   -4.1324 C   0  0  0  0  0  0  0  0  0  0  0  0
    0.4459    0.6758   -2.1846 H   0  0  0  0  0  0  0  0  0  0  0  0
   -1.5032   -0.9427   -3.6832 H   0  0  0  0  0  0  0  0  0  0  0  0
   -1.0473    2.0672   -4.1345 H   0  0  0  0  0  0  0  0  0  0  0  0
   -2.0546    1.0256   -5.1471 H   0  0  0  0  0  0  0  0  0  0  0  0
   -2.5156    1.3428   -3.4641 H   0  0  0  0  0  0  0  0  0  0  0  0
   -0.0168   -0.8846   -5.7795 N   0  0  0  0  0  0  0  0  0  0  0  0
    0.9465   -1.1952   -6.8098 C   0  0  0  0  0  0  0  0  0  0  0  0
   -0.9819   -1.1611   -5.9342 H   0  0  0  0  0  0  0  0  0  0  0  0
    1.0022   -0.3605   -7.5241 H   0  0  0  0  0  0  0  0  0  0  0  0
    1.9344   -1.3527   -6.3525 H   0  0  0  0  0  0  0  0  0  0  0  0
    0.6369   -2.1093   -7.3376 H   0  0  0  0  0  0  0  0  0  0  0  0
  1  3  1  0  0  0  0
  1  7  1  0  0  0  0
  1  2  2  0  0  0  0
 35 36  1  0  0  0  0
 36 44  1  0  0  0  0
 36 37  2  0  0  0  0
  8  9  1  0  0  0  0
  9 17  1  0  0  0  0
  9 10  2  0  0  0  0
 18 19  1  0  0  0  0
 19 34  1  0  0  0  0
 19 20  2  0  0  0  0
 35 38  1  0  0  0  0
  8 11  1  0  0  0  0
 44 45  1  0  0  0  0
 23 24  1  0  0  0  0
 21 22  1  0  0  0  0
 18 21  1  0  0  0  0
 22 23  1  0  0  0  0
 34 35  1  0  0  0  0
  7  8  1  0  0  0  0
 17 18  1  0  0  0  0
  3  4  1  0  0  0  0
  3  5  1  0  0  0  0
  3  6  1  0  0  0  0
 38 41  1  0  0  0  0
 38 42  1  0  0  0  0
 38 43  1  0  0  0  0
 11 14  1  0  0  0  0
 11 15  1  0  0  0  0
 11 16  1  0  0  0  0
 45 47  1  0  0  0  0
 45 48  1  0  0  0  0
 45 49  1  0  0  0  0
 24 31  1  0  0  0  0
 24 32  1  0  0  0  0
 24 33  1  0  0  0  0
 21 27  1  0  0  0  0
 21 28  1  0  0  0  0
 22 29  1  0  0  0  0
 22 30  1  0  0  0  0
 35 40  1  0  0  0  0
  8 13  1  0  0  0  0
 18 26  1  0  0  0  0
 44 46  1  0  0  0  0
  7 12  1  0  0  0  0
 34 39  1  0  0  0  0
 17 25  1  0  0  0  0
M  END
$$$$

  -OEChem-05262214473D

 49 48  0     1  0  0  0  0  0999 V2000
   -0.0561   -5.3799    2.6949 C   0  0  0  0  0  0  0  0  0  0  0  0
    0.7325   -5.0736    3.5815 O   0  0  0  0  0  0  0  0  0  0  0  0
   -1.0067   -6.5099    2.9135 C   0  0  0  0  0  0  0  0  0  0  0  0
   -0.5910   -7.4777    2.5899 H   0  0  0  0  0  0  0  0  0  0  0  0
   -1.2629   -6.6440    3.9767 H   0  0  0  0  0  0  0  0  0  0  0  0
   -1.9729   -6.4206    2.3918 H   0  0  0  0  0  0  0  0  0  0  0  0
   -0.1735   -4.7694    1.4571 N   0  0  0  0  0  0  0  0  0  0  0  0
    0.6439   -3.6603    1.0409 C   0  0  2  0  0  0  0  0  0  0  0  0
   -0.2788   -2.5625    0.5280 C   0  0  0  0  0  0  0  0  0  0  0  0
   -1.4197   -2.7791    0.1251 O   0  0  0  0  0  0  0  0  0  0  0  0
    1.6395   -4.0779   -0.0301 C   0  0  0  0  0  0  0  0  0  0  0  0
   -0.8741   -5.1235    0.8083 H   0  0  0  0  0  0  0  0  0  0  0  0
    1.1738   -3.3062    1.9318 H   0  0  0  0  0  0  0  0  0  0  0  0
    1.1270   -4.4358   -0.9305 H   0  0  0  0  0  0  0  0  0  0  0  0
    2.2797   -3.2400   -0.3251 H   0  0  0  0  0  0  0  0  0  0  0  0
    2.2827   -4.8880    0.3303 H   0  0  0  0  0  0  0  0  0  0  0  0
    0.3351   -1.3153    0.5316 N   0  0  0  0  0  0  0  0  0  0  0  0
   -0.3268   -0.1184    0.0807 C   0  0  2  0  0  0  0  0  0  0  0  0
   -1.0479   -0.4203   -1.2294 C   0  0  0  0  0  0  0  0  0  0  0  0
   -2.2000   -0.8463   -1.2761 O   0  0  0  0  0  0  0  0  0  0  0  0
    0.6385    1.0696   -0.0313 C   0  0  0  0  0  0  0  0  0  0  0  0
    1.2026    1.5316    1.3144 C   0  0  0  0  0  0  0  0  0  0  0  0
   -0.1380    2.0784    2.4134 S   0  0  0  0  0  0  0  0  0  0  0  0
   -0.6130    3.5754    1.5198 C   0  0  0  0  0  0  0  0  0  0  0  0
    1.2790   -1.2290    0.9021 H   0  0  0  0  0  0  0  0  0  0  0  0
   -1.0849    0.1082    0.8403 H   0  0  0  0  0  0  0  0  0  0  0  0
    0.1064    1.9036   -0.5082 H   0  0  0  0  0  0  0  0  0  0  0  0
    1.4663    0.7962   -0.6982 H   0  0  0  0  0  0  0  0  0  0  0  0
    1.8920    2.3709    1.1833 H   0  0  0  0  0  0  0  0  0  0  0  0
    1.7417    0.7217    1.8146 H   0  0  0  0  0  0  0  0  0  0  0  0
   -1.4373    4.0718    2.0378 H   0  0  0  0  0  0  0  0  0  0  0  0
   -0.9324    3.3174    0.5070 H   0  0  0  0  0  0  0  0  0  0  0  0
    0.2372    4.2594    1.4632 H   0  0  0  0  0  0  0  0  0  0  0  0
   -0.2439   -0.1894   -2.3364 N   0  0  0  0  0  0  0  0  0  0  0  0
   -0.6983   -0.4150   -3.6885 C   0  0  2  0  0  0  0  0  0  0  0  0
    0.4569   -1.0151   -4.4790 C   0  0  0  0  0  0  0  0  0  0  0  0
    1.6342   -0.8835   -4.1507 O   0  0  0  0  0  0  0  0  0  0  0  0
   -1.1848    0.8746   -4.3311 C   0  0  0  0  0  0  0  0  0  0  0  0
    0.6892    0.1903   -2.2066 H   0  0  0  0  0  0  0  0  0  0  0  0
   -1.5173   -1.1402   -3.6300 H   0  0  0  0  0  0  0  0  0  0  0  0
   -0.3779    1.6135   -4.3983 H   0  0  0  0  0  0  0  0  0  0  0  0
   -1.5555    0.6969   -5.3460 H   0  0  0  0  0  0  0  0  0  0  0  0
   -1.9957    1.3204   -3.7450 H   0  0  0  0  0  0  0  0  0  0  0  0
    0.0213   -1.6782   -5.6177 N   0  0  0  0  0  0  0  0  0  0  0  0
    0.9276   -2.3216   -6.5399 C   0  0  0  0  0  0  0  0  0  0  0  0
   -0.9748   -1.7540   -5.8015 H   0  0  0  0  0  0  0  0  0  0  0  0
    1.1967   -1.6180   -7.3415 H   0  0  0  0  0  0  0  0  0  0  0  0
    1.8368   -2.6318   -6.0040 H   0  0  0  0  0  0  0  0  0  0  0  0
    0.4398   -3.2056   -6.9766 H   0  0  0  0  0  0  0  0  0  0  0  0
  1  3  1  0  0  0  0
  1  7  1  0  0  0  0
  1  2  2  0  0  0  0
 35 36  1  0  0  0  0
 36 44  1  0  0  0  0
 36 37  2  0  0  0  0
  8  9  1  0  0  0  0
  9 17  1  0  0  0  0
  9 10  2  0  0  0  0
 18 19  1  0  0  0  0
 19 34  1  0  0  0  0
 19 20  2  0  0  0  0
 35 38  1  0  0  0  0
  8 11  1  0  0  0  0
 44 45  1  0  0  0  0
 23 24  1  0  0  0  0
 21 22  1  0  0  0  0
 18 21  1  0  0  0  0
 22 23  1  0  0  0  0
 34 35  1  0  0  0  0
  7  8  1  0  0  0  0
 17 18  1  0  0  0  0
  3  4  1  0  0  0  0
  3  5  1  0  0  0  0
  3  6  1  0  0  0  0
 38 41  1  0  0  0  0
 38 42  1  0  0  0  0
 38 43  1  0  0  0  0
 11 14  1  0  0  0  0
 11 15  1  0  0  0  0
 11 16  1  0  0  0  0
 45 47  1  0  0  0  0
 45 48  1  0  0  0  0
 45 49  1  0  0  0  0
 24 31  1  0  0  0  0
 24 32  1  0  0  0  0
 24 33  1  0  0  0  0
 21 27  1  0  0  0  0
 21 28  1  0  0  0  0
 22 29  1  0  0  0  0
 22 30  1  0  0  0  0
 35 40  1  0  0  0  0
  8 13  1  0  0  0  0
 18 26  1  0  0  0  0
 44 46  1  0  0  0  0
  7 12  1  0  0  0  0
 34 39  1  0  0  0  0
 17 25  1  0  0  0  0
M  END
$$$$

  -OEChem-05262214473D

 49 48  0     1  0  0  0  0  0999 V2000
   -0.0561   -5.3799    2.6949 C   0  0  0  0  0  0  0  0  0  0  0  0
    0.7325   -5.0736    3.5815 O   0  0  0  0  0  0  0  0  0  0  0  0
   -1.0067   -6.5099    2.9135 C   0  0  0  0  0  0  0  0  0  0  0  0
   -0.5910   -7.4777    2.5899 H   0  0  0  0  0  0  0  0  0  0  0  0
   -1.2629   -6.6440    3.9767 H   0  0  0  0  0  0  0  0  0  0  0  0
   -1.9729   -6.4206    2.3918 H   0  0  0  0  0  0  0  0  0  0  0  0
   -0.1735   -4.7694    1.4571 N   0  0  0  0  0  0  0  0  0  0  0  0
    0.6439   -3.6603    1.0409 C   0  0  2  0  0  0  0  0  0  0  0  0
   -0.2788   -2.5625    0.5280 C   0  0  0  0  0  0  0  0  0  0  0  0
   -1.4197   -2.7791    0.1251 O   0  0  0  0  0  0  0  0  0  0  0  0
    1.6395   -4.0779   -0.0301 C   0  0  0  0  0  0  0  0  0  0  0  0
   -0.8741   -5.1235    0.8083 H   0  0  0  0  0  0  0  0  0  0  0  0
    1.1738   -3.3062    1.9318 H   0  0  0  0  0  0  0  0  0  0  0  0
    1.1270   -4.4358   -0.9305 H   0  0  0  0  0  0  0  0  0  0  0  0
    2.2797   -3.2400   -0.3251 H   0  0  0  0  0  0  0  0  0  0  0  0
    2.2827   -4.8880    0.3303 H   0  0  0  0  0  0  0  0  0  0  0  0
    0.3351   -1.3153    0.5316 N   0  0  0  0  0  0  0  0  0  0  0  0
   -0.3268   -0.1184    0.0807 C   0  0  2  0  0  0  0  0  0  0  0  0
   -1.0479   -0.4203   -1.2294 C   0  0  0  0  0  0  0  0  0  0  0  0
   -2.2639   -0.5859   -1.3010 O   0  0  0  0  0  0  0  0  0  0  0  0
    0.6385    1.0696   -0.0313 C   0  0  0  0  0  0  0  0  0  0  0  0
    1.2026    1.5316    1.3144 C   0  0  0  0  0  0  0  0  0  0  0  0
   -0.1380    2.0784    2.4134 S   0  0  0  0  0  0  0  0  0  0  0  0
   -0.6130    3.5754    1.5198 C   0  0  0  0  0  0  0  0  0  0  0  0
    1.2790   -1.2290    0.9021 H   0  0  0  0  0  0  0  0  0  0  0  0
   -1.0849    0.1082    0.8403 H   0  0  0  0  0  0  0  0  0  0  0  0
    0.1064    1.9036   -0.5082 H   0  0  0  0  0  0  0  0  0  0  0  0
    1.4663    0.7962   -0.6982 H   0  0  0  0  0  0  0  0  0  0  0  0
    1.8920    2.3709    1.1833 H   0  0  0  0  0  0  0  0  0  0  0  0
    1.7417    0.7217    1.8146 H   0  0  0  0  0  0  0  0  0  0  0  0
   -1.4373    4.0718    2.0378 H   0  0  0  0  0  0  0  0  0  0  0  0
   -0.9324    3.3174    0.5070 H   0  0  0  0  0  0  0  0  0  0  0  0
    0.2372    4.2594    1.4632 H   0  0  0  0  0  0  0  0  0  0  0  0
   -0.1717   -0.5149   -2.3011 N   0  0  0  0  0  0  0  0  0  0  0  0
   -0.6145   -0.8068   -3.6444 C   0  0  2  0  0  0  0  0  0  0  0  0
    0.4045   -1.7416   -4.2827 C   0  0  0  0  0  0  0  0  0  0  0  0
    1.5680   -1.8302   -3.8961 O   0  0  0  0  0  0  0  0  0  0  0  0
   -0.7733    0.4648   -4.4632 C   0  0  0  0  0  0  0  0  0  0  0  0
    0.8174   -0.3354   -2.1560 H   0  0  0  0  0  0  0  0  0  0  0  0
   -1.5774   -1.3214   -3.5552 H   0  0  0  0  0  0  0  0  0  0  0  0
    0.1813    0.9941   -4.5634 H   0  0  0  0  0  0  0  0  0  0  0  0
   -1.1363    0.2441   -5.4724 H   0  0  0  0  0  0  0  0  0  0  0  0
   -1.4841    1.1487   -3.9870 H   0  0  0  0  0  0  0  0  0  0  0  0
   -0.1266   -2.4334   -5.3623 N   0  0  0  0  0  0  0  0  0  0  0  0
    0.6452   -3.3725   -6.1423 C   0  0  0  0  0  0  0  0  0  0  0  0
   -1.1065   -2.3121   -5.6004 H   0  0  0  0  0  0  0  0  0  0  0  0
    1.0958   -2.8535   -7.0012 H   0  0  0  0  0  0  0  0  0  0  0  0
    1.4404   -3.8031   -5.5159 H   0  0  0  0  0  0  0  0  0  0  0  0
   -0.0126   -4.1766   -6.5038 H   0  0  0  0  0  0  0  0  0  0  0  0
  1  3  1  0  0  0  0
  1  7  1  0  0  0  0
  1  2  2  0  0  0  0
 35 36  1  0  0  0  0
 36 44  1  0  0  0  0
 36 37  2  0  0  0  0
  8  9  1  0  0  0  0
  9 17  1  0  0  0  0
  9 10  2  0  0  0  0
 18 19  1  0  0  0  0
 19 34  1  0  0  0  0
 19 20  2  0  0  0  0
 35 38  1  0  0  0  0
  8 11  1  0  0  0  0
 44 45  1  0  0  0  0
 23 24  1  0  0  0  0
 21 22  1  0  0  0  0
 18 21  1  0  0  0  0
 22 23  1  0  0  0  0
 34 35  1  0  0  0  0
  7  8  1  0  0  0  0
 17 18  1  0  0  0  0
  3  4  1  0  0  0  0
  3  5  1  0  0  0  0
  3  6  1  0  0  0  0
 38 41  1  0  0  0  0
 38 42  1  0  0  0  0
 38 43  1  0  0  0  0
 11 14  1  0  0  0  0
 11 15  1  0  0  0  0
 11 16  1  0  0  0  0
 45 47  1  0  0  0  0
 45 48  1  0  0  0  0
 45 49  1  0  0  0  0
 24 31  1  0  0  0  0
 24 32  1  0  0  0  0
 24 33  1  0  0  0  0
 21 27  1  0  0  0  0
 21 28  1  0  0  0  0
 22 29  1  0  0  0  0
 22 30  1  0  0  0  0
 35 40  1  0  0  0  0
  8 13  1  0  0  0  0
 18 26  1  0  0  0  0
 44 46  1  0  0  0  0
  7 12  1  0  0  0  0
 34 39  1  0  0  0  0
 17 25  1  0  0  0  0
M  END
$$$$

  -OEChem-05262214473D

 49 48  0     1  0  0  0  0  0999 V2000
   -0.0561   -5.3799    2.6949 C   0  0  0  0  0  0  0  0  0  0  0  0
    0.7325   -5.0736    3.5815 O   0  0  0  0  0  0  0  0  0  0  0  0
   -1.0067   -6.5099    2.9135 C   0  0  0  0  0  0  0  0  0  0  0  0
   -0.5910   -7.4777    2.5899 H   0  0  0  0  0  0  0  0  0  0  0  0
   -1.2629   -6.6440    3.9767 H   0  0  0  0  0  0  0  0  0  0  0  0
   -1.9729   -6.4206    2.3918 H   0  0  0  0  0  0  0  0  0  0  0  0
   -0.1735   -4.7694    1.4571 N   0  0  0  0  0  0  0  0  0  0  0  0
    0.6439   -3.6603    1.0409 C   0  0  2  0  0  0  0  0  0  0  0  0
   -0.2788   -2.5625    0.5280 C   0  0  0  0  0  0  0  0  0  0  0  0
   -1.4197   -2.7791    0.1251 O   0  0  0  0  0  0  0  0  0  0  0  0
    1.6395   -4.0779   -0.0301 C   0  0  0  0  0  0  0  0  0  0  0  0
   -0.8741   -5.1235    0.8083 H   0  0  0  0  0  0  0  0  0  0  0  0
    1.1738   -3.3062    1.9318 H   0  0  0  0  0  0  0  0  0  0  0  0
    1.1270   -4.4358   -0.9305 H   0  0  0  0  0  0  0  0  0  0  0  0
    2.2797   -3.2400   -0.3251 H   0  0  0  0  0  0  0  0  0  0  0  0
    2.2827   -4.8880    0.3303 H   0  0  0  0  0  0  0  0  0  0  0  0
    0.3351   -1.3153    0.5316 N   0  0  0  0  0  0  0  0  0  0  0  0
   -0.3268   -0.1184    0.0807 C   0  0  2  0  0  0  0  0  0  0  0  0
   -1.0479   -0.4203   -1.2294 C   0  0  0  0  0  0  0  0  0  0  0  0
   -2.2664   -0.3233   -1.3601 O   0  0  0  0  0  0  0  0  0  0  0  0
    0.6385    1.0696   -0.0313 C   0  0  0  0  0  0  0  0  0  0  0  0
    1.2026    1.5316    1.3144 C   0  0  0  0  0  0  0  0  0  0  0  0
   -0.1380    2.0784    2.4134 S   0  0  0  0  0  0  0  0  0  0  0  0
   -0.6130    3.5754    1.5198 C   0  0  0  0  0  0  0  0  0  0  0  0
    1.2790   -1.2290    0.9021 H   0  0  0  0  0  0  0  0  0  0  0  0
   -1.0849    0.1082    0.8403 H   0  0  0  0  0  0  0  0  0  0  0  0
    0.1064    1.9036   -0.5082 H   0  0  0  0  0  0  0  0  0  0  0  0
    1.4663    0.7962   -0.6982 H   0  0  0  0  0  0  0  0  0  0  0  0
    1.8920    2.3709    1.1833 H   0  0  0  0  0  0  0  0  0  0  0  0
    1.7417    0.7217    1.8146 H   0  0  0  0  0  0  0  0  0  0  0  0
   -1.4373    4.0718    2.0378 H   0  0  0  0  0  0  0  0  0  0  0  0
   -0.9324    3.3174    0.5070 H   0  0  0  0  0  0  0  0  0  0  0  0
    0.2372    4.2594    1.4632 H   0  0  0  0  0  0  0  0  0  0  0  0
   -0.1762   -0.8411   -2.2235 N   0  0  0  0  0  0  0  0  0  0  0  0
   -0.6228   -1.1985   -3.5495 C   0  0  2  0  0  0  0  0  0  0  0  0
    0.1823   -2.4076   -4.0070 C   0  0  0  0  0  0  0  0  0  0  0  0
    1.2806   -2.6987   -3.5378 O   0  0  0  0  0  0  0  0  0  0  0  0
   -0.4601   -0.0386   -4.5195 C   0  0  0  0  0  0  0  0  0  0  0  0
    0.8218   -0.8655   -2.0363 H   0  0  0  0  0  0  0  0  0  0  0  0
   -1.6796   -1.4738   -3.4638 H   0  0  0  0  0  0  0  0  0  0  0  0
    0.5923    0.2514   -4.6184 H   0  0  0  0  0  0  0  0  0  0  0  0
   -0.8256   -0.3018   -5.5176 H   0  0  0  0  0  0  0  0  0  0  0  0
   -1.0158    0.8397   -4.1735 H   0  0  0  0  0  0  0  0  0  0  0  0
   -0.4503   -3.0988   -5.0308 N   0  0  0  0  0  0  0  0  0  0  0  0
    0.1185   -4.2762   -5.6442 C   0  0  0  0  0  0  0  0  0  0  0  0
   -1.3681   -2.7973   -5.3446 H   0  0  0  0  0  0  0  0  0  0  0  0
    0.7062   -3.9829   -6.5266 H   0  0  0  0  0  0  0  0  0  0  0  0
    0.7721   -4.7866   -4.9216 H   0  0  0  0  0  0  0  0  0  0  0  0
   -0.6897   -4.9561   -5.9516 H   0  0  0  0  0  0  0  0  0  0  0  0
  1  3  1  0  0  0  0
  1  7  1  0  0  0  0
  1  2  2  0  0  0  0
 35 36  1  0  0  0  0
 36 44  1  0  0  0  0
 36 37  2  0  0  0  0
  8  9  1  0  0  0  0
  9 17  1  0  0  0  0
  9 10  2  0  0  0  0
 18 19  1  0  0  0  0
 19 34  1  0  0  0  0
 19 20  2  0  0  0  0
 35 38  1  0  0  0  0
  8 11  1  0  0  0  0
 44 45  1  0  0  0  0
 23 24  1  0  0  0  0
 21 22  1  0  0  0  0
 18 21  1  0  0  0  0
 22 23  1  0  0  0  0
 34 35  1  0  0  0  0
  7  8  1  0  0  0  0
 17 18  1  0  0  0  0
  3  4  1  0  0  0  0
  3  5  1  0  0  0  0
  3  6  1  0  0  0  0
 38 41  1  0  0  0  0
 38 42  1  0  0  0  0
 38 43  1  0  0  0  0
 11 14  1  0  0  0  0
 11 15  1  0  0  0  0
 11 16  1  0  0  0  0
 45 47  1  0  0  0  0
 45 48  1  0  0  0  0
 45 49  1  0  0  0  0
 24 31  1  0  0  0  0
 24 32  1  0  0  0  0
 24 33  1  0  0  0  0
 21 27  1  0  0  0  0
 21 28  1  0  0  0  0
 22 29  1  0  0  0  0
 22 30  1  0  0  0  0
 35 40  1  0  0  0  0
  8 13  1  0  0  0  0
 18 26  1  0  0  0  0
 44 46  1  0  0  0  0
  7 12  1  0  0  0  0
 34 39  1  0  0  0  0
 17 25  1  0  0  0  0
M  END
$$$$

  -OEChem-05262214473D

 49 48  0     1  0  0  0  0  0999 V2000
   -0.0561   -5.3799    2.6949 C   0  0  0  0  0  0  0  0  0  0  0  0
    0.7325   -5.0736    3.5815 O   0  0  0  0  0  0  0  0  0  0  0  0
   -1.0067   -6.5099    2.9135 C   0  0  0  0  0  0  0  0  0  0  0  0
   -0.5910   -7.4777    2.5899 H   0  0  0  0  0  0  0  0  0  0  0  0
   -1.2629   -6.6440    3.9767 H   0  0  0  0  0  0  0  0  0  0  0  0
   -1.9729   -6.4206    2.3918 H   0  0  0  0  0  0  0  0  0  0  0  0
   -0.1735   -4.7694    1.4571 N   0  0  0  0  0  0  0  0  0  0  0  0
    0.6439   -3.6603    1.0409 C   0  0  2  0  0  0  0  0  0  0  0  0
   -0.2788   -2.5625    0.5280 C   0  0  0  0  0  0  0  0  0  0  0  0
   -1.4197   -2.7791    0.1251 O   0  0  0  0  0  0  0  0  0  0  0  0
    1.6395   -4.0779   -0.0301 C   0  0  0  0  0  0  0  0  0  0  0  0
   -0.8741   -5.1235    0.8083 H   0  0  0  0  0  0  0  0  0  0  0  0
    1.1738   -3.3062    1.9318 H   0  0  0  0  0  0  0  0  0  0  0  0
    1.1270   -4.4358   -0.9305 H   0  0  0  0  0  0  0  0  0  0  0  0
    2.2797   -3.2400   -0.3251 H   0  0  0  0  0  0  0  0  0  0  0  0
    2.2827   -4.8880    0.3303 H   0  0  0  0  0  0  0  0  0  0  0  0
    0.3351   -1.3153    0.5316 N   0  0  0  0  0  0  0  0  0  0  0  0
   -0.3268   -0.1184    0.0807 C   0  0  2  0  0  0  0  0  0  0  0  0
   -1.0479   -0.4203   -1.2294 C   0  0  0  0  0  0  0  0  0  0  0  0
   -2.2074   -0.0762   -1.4495 O   0  0  0  0  0  0  0  0  0  0  0  0
    0.6385    1.0696   -0.0313 C   0  0  0  0  0  0  0  0  0  0  0  0
    1.2026    1.5316    1.3144 C   0  0  0  0  0  0  0  0  0  0  0  0
   -0.1380    2.0784    2.4134 S   0  0  0  0  0  0  0  0  0  0  0  0
   -0.6130    3.5754    1.5198 C   0  0  0  0  0  0  0  0  0  0  0  0
    1.2790   -1.2290    0.9021 H   0  0  0  0  0  0  0  0  0  0  0  0
   -1.0849    0.1082    0.8403 H   0  0  0  0  0  0  0  0  0  0  0  0
    0.1064    1.9036   -0.5082 H   0  0  0  0  0  0  0  0  0  0  0  0
    1.4663    0.7962   -0.6982 H   0  0  0  0  0  0  0  0  0  0  0  0
    1.8920    2.3709    1.1833 H   0  0  0  0  0  0  0  0  0  0  0  0
    1.7417    0.7217    1.8146 H   0  0  0  0  0  0  0  0  0  0  0  0
   -1.4373    4.0718    2.0378 H   0  0  0  0  0  0  0  0  0  0  0  0
   -0.9324    3.3174    0.5070 H   0  0  0  0  0  0  0  0  0  0  0  0
    0.2372    4.2594    1.4632 H   0  0  0  0  0  0  0  0  0  0  0  0
   -0.2570   -1.1456   -2.1089 N   0  0  0  0  0  0  0  0  0  0  0  0
   -0.7228   -1.5634   -3.4104 C   0  0  2  0  0  0  0  0  0  0  0  0
   -0.1945   -2.9679   -3.6705 C   0  0  0  0  0  0  0  0  0  0  0  0
    0.7916   -3.4300   -3.1002 O   0  0  0  0  0  0  0  0  0  0  0  0
   -0.2666   -0.6014   -4.4963 C   0  0  0  0  0  0  0  0  0  0  0  0
    0.7021   -1.3639   -1.8556 H   0  0  0  0  0  0  0  0  0  0  0  0
   -1.8169   -1.5872   -3.3621 H   0  0  0  0  0  0  0  0  0  0  0  0
    0.8270   -0.5641   -4.5597 H   0  0  0  0  0  0  0  0  0  0  0  0
   -0.6445   -0.9038   -5.4786 H   0  0  0  0  0  0  0  0  0  0  0  0
   -0.6225    0.4142   -4.2919 H   0  0  0  0  0  0  0  0  0  0  0  0
   -0.9279   -3.6291   -4.6458 N   0  0  0  0  0  0  0  0  0  0  0  0
   -0.6167   -4.9711   -5.0795 C   0  0  0  0  0  0  0  0  0  0  0  0
   -1.7417   -3.1765   -5.0517 H   0  0  0  0  0  0  0  0  0  0  0  0
    0.0546   -4.9292   -5.9500 H   0  0  0  0  0  0  0  0  0  0  0  0
   -0.1224   -5.5154   -4.2613 H   0  0  0  0  0  0  0  0  0  0  0  0
   -1.5453   -5.4911   -5.3575 H   0  0  0  0  0  0  0  0  0  0  0  0
  1  3  1  0  0  0  0
  1  7  1  0  0  0  0
  1  2  2  0  0  0  0
 35 36  1  0  0  0  0
 36 44  1  0  0  0  0
 36 37  2  0  0  0  0
  8  9  1  0  0  0  0
  9 17  1  0  0  0  0
  9 10  2  0  0  0  0
 18 19  1  0  0  0  0
 19 34  1  0  0  0  0
 19 20  2  0  0  0  0
 35 38  1  0  0  0  0
  8 11  1  0  0  0  0
 44 45  1  0  0  0  0
 23 24  1  0  0  0  0
 21 22  1  0  0  0  0
 18 21  1  0  0  0  0
 22 23  1  0  0  0  0
 34 35  1  0  0  0  0
  7  8  1  0  0  0  0
 17 18  1  0  0  0  0
  3  4  1  0  0  0  0
  3  5  1  0  0  0  0
  3  6  1  0  0  0  0
 38 41  1  0  0  0  0
 38 42  1  0  0  0  0
 38 43  1  0  0  0  0
 11 14  1  0  0  0  0
 11 15  1  0  0  0  0
 11 16  1  0  0  0  0
 45 47  1  0  0  0  0
 45 48  1  0  0  0  0
 45 49  1  0  0  0  0
 24 31  1  0  0  0  0
 24 32  1  0  0  0  0
 24 33  1  0  0  0  0
 21 27  1  0  0  0  0
 21 28  1  0  0  0  0
 22 29  1  0  0  0  0
 22 30  1  0  0  0  0
 35 40  1  0  0  0  0
  8 13  1  0  0  0  0
 18 26  1  0  0  0  0
 44 46  1  0  0  0  0
  7 12  1  0  0  0  0
 34 39  1  0  0  0  0
 17 25  1  0  0  0  0
M  END
$$$$

  -OEChem-05262214473D

 49 48  0     1  0  0  0  0  0999 V2000
   -0.0561   -5.3799    2.6949 C   0  0  0  0  0  0  0  0  0  0  0  0
    0.7325   -5.0736    3.5815 O   0  0  0  0  0  0  0  0  0  0  0  0
   -1.0067   -6.5099    2.9135 C   0  0  0  0  0  0  0  0  0  0  0  0
   -0.5910   -7.4777    2.5899 H   0  0  0  0  0  0  0  0  0  0  0  0
   -1.2629   -6.6440    3.9767 H   0  0  0  0  0  0  0  0  0  0  0  0
   -1.9729   -6.4206    2.3918 H   0  0  0  0  0  0  0  0  0  0  0  0
   -0.1735   -4.7694    1.4571 N   0  0  0  0  0  0  0  0  0  0  0  0
    0.6439   -3.6603    1.0409 C   0  0  2  0  0  0  0  0  0  0  0  0
   -0.2788   -2.5625    0.5280 C   0  0  0  0  0  0  0  0  0  0  0  0
   -1.4197   -2.7791    0.1251 O   0  0  0  0  0  0  0  0  0  0  0  0
    1.6395   -4.0779   -0.0301 C   0  0  0  0  0  0  0  0  0  0  0  0
   -0.8741   -5.1235    0.8083 H   0  0  0  0  0  0  0  0  0  0  0  0
    1.1738   -3.3062    1.9318 H   0  0  0  0  0  0  0  0  0  0  0  0
    1.1270   -4.4358   -0.9305 H   0  0  0  0  0  0  0  0  0  0  0  0
    2.2797   -3.2400   -0.3251 H   0  0  0  0  0  0  0  0  0  0  0  0
    2.2827   -4.8880    0.3303 H   0  0  0  0  0  0  0  0  0  0  0  0
    0.3351   -1.3153    0.5316 N   0  0  0  0  0  0  0  0  0  0  0  0
   -0.3268   -0.1184    0.0807 C   0  0  2  0  0  0  0  0  0  0  0  0
   -1.0479   -0.4203   -1.2294 C   0  0  0  0  0  0  0  0  0  0  0  0
   -2.0909    0.1383   -1.5630 O   0  0  0  0  0  0  0  0  0  0  0  0
    0.6385    1.0696   -0.0313 C   0  0  0  0  0  0  0  0  0  0  0  0
    1.2026    1.5316    1.3144 C   0  0  0  0  0  0  0  0  0  0  0  0
   -0.1380    2.0784    2.4134 S   0  0  0  0  0  0  0  0  0  0  0  0
   -0.6130    3.5754    1.5198 C   0  0  0  0  0  0  0  0  0  0  0  0
    1.2790   -1.2290    0.9021 H   0  0  0  0  0  0  0  0  0  0  0  0
   -1.0849    0.1082    0.8403 H   0  0  0  0  0  0  0  0  0  0  0  0
    0.1064    1.9036   -0.5082 H   0  0  0  0  0  0  0  0  0  0  0  0
    1.4663    0.7962   -0.6982 H   0  0  0  0  0  0  0  0  0  0  0  0
    1.8920    2.3709    1.1833 H   0  0  0  0  0  0  0  0  0  0  0  0
    1.7417    0.7217    1.8146 H   0  0  0  0  0  0  0  0  0  0  0  0
   -1.4373    4.0718    2.0378 H   0  0  0  0  0  0  0  0  0  0  0  0
   -0.9324    3.3174    0.5070 H   0  0  0  0  0  0  0  0  0  0  0  0
    0.2372    4.2594    1.4632 H   0  0  0  0  0  0  0  0  0  0  0  0
   -0.4086   -1.4078   -1.9650 N   0  0  0  0  0  0  0  0  0  0  0  0
   -0.9075   -1.8766   -3.2366 C   0  0  2  0  0  0  0  0  0  0  0  0
   -0.7002   -3.3842   -3.2963 C   0  0  0  0  0  0  0  0  0  0  0  0
    0.1343   -3.9741   -2.6131 O   0  0  0  0  0  0  0  0  0  0  0  0
   -0.2060   -1.1851   -4.3952 C   0  0  0  0  0  0  0  0  0  0  0  0
    0.4665   -1.7966   -1.6262 H   0  0  0  0  0  0  0  0  0  0  0  0
   -1.9799   -1.6537   -3.2571 H   0  0  0  0  0  0  0  0  0  0  0  0
    0.8695   -1.3967   -4.3912 H   0  0  0  0  0  0  0  0  0  0  0  0
   -0.6053   -1.5207   -5.3580 H   0  0  0  0  0  0  0  0  0  0  0  0
   -0.3312   -0.0986   -4.3341 H   0  0  0  0  0  0  0  0  0  0  0  0
   -1.5268   -3.9880   -4.2335 N   0  0  0  0  0  0  0  0  0  0  0  0
   -1.5101   -5.4098   -4.4867 C   0  0  0  0  0  0  0  0  0  0  0  0
   -2.2018   -3.4240   -4.7414 H   0  0  0  0  0  0  0  0  0  0  0  0
   -0.8147   -5.6279   -5.3106 H   0  0  0  0  0  0  0  0  0  0  0  0
   -1.1823   -5.9397   -3.5803 H   0  0  0  0  0  0  0  0  0  0  0  0
   -2.5210   -5.7449   -4.7620 H   0  0  0  0  0  0  0  0  0  0  0  0
  1  3  1  0  0  0  0
  1  7  1  0  0  0  0
  1  2  2  0  0  0  0
 35 36  1  0  0  0  0
 36 44  1  0  0  0  0
 36 37  2  0  0  0  0
  8  9  1  0  0  0  0
  9 17  1  0  0  0  0
  9 10  2  0  0  0  0
 18 19  1  0  0  0  0
 19 34  1  0  0  0  0
 19 20  2  0  0  0  0
 35 38  1  0  0  0  0
  8 11  1  0  0  0  0
 44 45  1  0  0  0  0
 23 24  1  0  0  0  0
 21 22  1  0  0  0  0
 18 21  1  0  0  0  0
 22 23  1  0  0  0  0
 34 35  1  0  0  0  0
  7  8  1  0  0  0  0
 17 18  1  0  0  0  0
  3  4  1  0  0  0  0
  3  5  1  0  0  0  0
  3  6  1  0  0  0  0
 38 41  1  0  0  0  0
 38 42  1  0  0  0  0
 38 43  1  0  0  0  0
 11 14  1  0  0  0  0
 11 15  1  0  0  0  0
 11 16  1  0  0  0  0
 45 47  1  0  0  0  0
 45 48  1  0  0  0  0
 45 49  1  0  0  0  0
 24 31  1  0  0  0  0
 24 32  1  0  0  0  0
 24 33  1  0  0  0  0
 21 27  1  0  0  0  0
 21 28  1  0  0  0  0
 22 29  1  0  0  0  0
 22 30  1  0  0  0  0
 35 40  1  0  0  0  0
  8 13  1  0  0  0  0
 18 26  1  0  0  0  0
 44 46  1  0  0  0  0
  7 12  1  0  0  0  0
 34 39  1  0  0  0  0
 17 25  1  0  0  0  0
M  END
$$$$

  -OEChem-05262214473D

 49 48  0     1  0  0  0  0  0999 V2000
   -0.0561   -5.3799    2.6949 C   0  0  0  0  0  0  0  0  0  0  0  0
    0.7325   -5.0736    3.5815 O   0  0  0  0  0  0  0  0  0  0  0  0
   -1.0067   -6.5099    2.9135 C   0  0  0  0  0  0  0  0  0  0  0  0
   -0.5910   -7.4777    2.5899 H   0  0  0  0  0  0  0  0  0  0  0  0
   -1.2629   -6.6440    3.9767 H   0  0  0  0  0  0  0  0  0  0  0  0
   -1.9729   -6.4206    2.3918 H   0  0  0  0  0  0  0  0  0  0  0  0
   -0.1735   -4.7694    1.4571 N   0  0  0  0  0  0  0  0  0  0  0  0
    0.6439   -3.6603    1.0409 C   0  0  2  0  0  0  0  0  0  0  0  0
   -0.2788   -2.5625    0.5280 C   0  0  0  0  0  0  0  0  0  0  0  0
   -1.4197   -2.7791    0.1251 O   0  0  0  0  0  0  0  0  0  0  0  0
    1.6395   -4.0779   -0.0301 C   0  0  0  0  0  0  0  0  0  0  0  0
   -0.8741   -5.1235    0.8083 H   0  0  0  0  0  0  0  0  0  0  0  0
    1.1738   -3.3062    1.9318 H   0  0  0  0  0  0  0  0  0  0  0  0
    1.1270   -4.4358   -0.9305 H   0  0  0  0  0  0  0  0  0  0  0  0
    2.2797   -3.2400   -0.3251 H   0  0  0  0  0  0  0  0  0  0  0  0
    2.2827   -4.8880    0.3303 H   0  0  0  0  0  0  0  0  0  0  0  0
    0.3351   -1.3153    0.5316 N   0  0  0  0  0  0  0  0  0  0  0  0
   -0.3268   -0.1184    0.0807 C   0  0  2  0  0  0  0  0  0  0  0  0
   -1.0479   -0.4203   -1.2294 C   0  0  0  0  0  0  0  0  0  0  0  0
   -1.9249    0.3058   -1.6930 O   0  0  0  0  0  0  0  0  0  0  0  0
    0.6385    1.0696   -0.0313 C   0  0  0  0  0  0  0  0  0  0  0  0
    1.2026    1.5316    1.3144 C   0  0  0  0  0  0  0  0  0  0  0  0
   -0.1380    2.0784    2.4134 S   0  0  0  0  0  0  0  0  0  0  0  0
   -0.6130    3.5754    1.5198 C   0  0  0  0  0  0  0  0  0  0  0  0
    1.2790   -1.2290    0.9021 H   0  0  0  0  0  0  0  0  0  0  0  0
   -1.0849    0.1082    0.8403 H   0  0  0  0  0  0  0  0  0  0  0  0
    0.1064    1.9036   -0.5082 H   0  0  0  0  0  0  0  0  0  0  0  0
    1.4663    0.7962   -0.6982 H   0  0  0  0  0  0  0  0  0  0  0  0
    1.8920    2.3709    1.1833 H   0  0  0  0  0  0  0  0  0  0  0  0
    1.7417    0.7217    1.8146 H   0  0  0  0  0  0  0  0  0  0  0  0
   -1.4373    4.0718    2.0378 H   0  0  0  0  0  0  0  0  0  0  0  0
   -0.9324    3.3174    0.5070 H   0  0  0  0  0  0  0  0  0  0  0  0
    0.2372    4.2594    1.4632 H   0  0  0  0  0  0  0  0  0  0  0  0
   -0.6206   -1.6098   -1.8018 N   0  0  0  0  0  0  0  0  0  0  0  0
   -1.1646   -2.1168   -3.0398 C   0  0  2  0  0  0  0  0  0  0  0  0
   -1.3004   -3.6281   -2.9098 C   0  0  0  0  0  0  0  0  0  0  0  0
   -0.6465   -4.2940   -2.1097 O   0  0  0  0  0  0  0  0  0  0  0  0
   -0.2824   -1.7501   -4.2230 C   0  0  0  0  0  0  0  0  0  0  0  0
    0.1309   -2.1342   -1.3638 H   0  0  0  0  0  0  0  0  0  0  0  0
   -2.1575   -1.6689   -3.1558 H   0  0  0  0  0  0  0  0  0  0  0  0
    0.7168   -2.1899   -4.1244 H   0  0  0  0  0  0  0  0  0  0  0  0
   -0.7108   -2.1105   -5.1641 H   0  0  0  0  0  0  0  0  0  0  0  0
   -0.1616   -0.6639   -4.2972 H   0  0  0  0  0  0  0  0  0  0  0  0
   -2.2062   -4.1511   -3.8220 N   0  0  0  0  0  0  0  0  0  0  0  0
   -2.5010   -5.5624   -3.9062 C   0  0  0  0  0  0  0  0  0  0  0  0
   -2.7172   -3.5227   -4.4350 H   0  0  0  0  0  0  0  0  0  0  0  0
   -1.8423   -6.0313   -4.6521 H   0  0  0  0  0  0  0  0  0  0  0  0
   -2.3352   -6.0307   -2.9248 H   0  0  0  0  0  0  0  0  0  0  0  0
   -3.5505   -5.7004   -4.2057 H   0  0  0  0  0  0  0  0  0  0  0  0
  1  3  1  0  0  0  0
  1  7  1  0  0  0  0
  1  2  2  0  0  0  0
 35 36  1  0  0  0  0
 36 44  1  0  0  0  0
 36 37  2  0  0  0  0
  8  9  1  0  0  0  0
  9 17  1  0  0  0  0
  9 10  2  0  0  0  0
 18 19  1  0  0  0  0
 19 34  1  0  0  0  0
 19 20  2  0  0  0  0
 35 38  1  0  0  0  0
  8 11  1  0  0  0  0
 44 45  1  0  0  0  0
 23 24  1  0  0  0  0
 21 22  1  0  0  0  0
 18 21  1  0  0  0  0
 22 23  1  0  0  0  0
 34 35  1  0  0  0  0
  7  8  1  0  0  0  0
 17 18  1  0  0  0  0
  3  4  1  0  0  0  0
  3  5  1  0  0  0  0
  3  6  1  0  0  0  0
 38 41  1  0  0  0  0
 38 42  1  0  0  0  0
 38 43  1  0  0  0  0
 11 14  1  0  0  0  0
 11 15  1  0  0  0  0
 11 16  1  0  0  0  0
 45 47  1  0  0  0  0
 45 48  1  0  0  0  0
 45 49  1  0  0  0  0
 24 31  1  0  0  0  0
 24 32  1  0  0  0  0
 24 33  1  0  0  0  0
 21 27  1  0  0  0  0
 21 28  1  0  0  0  0
 22 29  1  0  0  0  0
 22 30  1  0  0  0  0
 35 40  1  0  0  0  0
  8 13  1  0  0  0  0
 18 26  1  0  0  0  0
 44 46  1  0  0  0  0
  7 12  1  0  0  0  0
 34 39  1  0  0  0  0
 17 25  1  0  0  0  0
M  END
$$$$

  -OEChem-05262214473D

 49 48  0     1  0  0  0  0  0999 V2000
   -0.0561   -5.3799    2.6949 C   0  0  0  0  0  0  0  0  0  0  0  0
    0.7325   -5.0736    3.5815 O   0  0  0  0  0  0  0  0  0  0  0  0
   -1.0067   -6.5099    2.9135 C   0  0  0  0  0  0  0  0  0  0  0  0
   -0.5910   -7.4777    2.5899 H   0  0  0  0  0  0  0  0  0  0  0  0
   -1.2629   -6.6440    3.9767 H   0  0  0  0  0  0  0  0  0  0  0  0
   -1.9729   -6.4206    2.3918 H   0  0  0  0  0  0  0  0  0  0  0  0
   -0.1735   -4.7694    1.4571 N   0  0  0  0  0  0  0  0  0  0  0  0
    0.6439   -3.6603    1.0409 C   0  0  2  0  0  0  0  0  0  0  0  0
   -0.2788   -2.5625    0.5280 C   0  0  0  0  0  0  0  0  0  0  0  0
   -1.4197   -2.7791    0.1251 O   0  0  0  0  0  0  0  0  0  0  0  0
    1.6395   -4.0779   -0.0301 C   0  0  0  0  0  0  0  0  0  0  0  0
   -0.8741   -5.1235    0.8083 H   0  0  0  0  0  0  0  0  0  0  0  0
    1.1738   -3.3062    1.9318 H   0  0  0  0  0  0  0  0  0  0  0  0
    1.1270   -4.4358   -0.9305 H   0  0  0  0  0  0  0  0  0  0  0  0
    2.2797   -3.2400   -0.3251 H   0  0  0  0  0  0  0  0  0  0  0  0
    2.2827   -4.8880    0.3303 H   0  0  0  0  0  0  0  0  0  0  0  0
    0.3351   -1.3153    0.5316 N   0  0  0  0  0  0  0  0  0  0  0  0
   -0.3268   -0.1184    0.0807 C   0  0  2  0  0  0  0  0  0  0  0  0
   -1.0479   -0.4203   -1.2294 C   0  0  0  0  0  0  0  0  0  0  0  0
   -1.7207    0.4148   -1.8305 O   0  0  0  0  0  0  0  0  0  0  0  0
    0.6385    1.0696   -0.0313 C   0  0  0  0  0  0  0  0  0  0  0  0
    1.2026    1.5316    1.3144 C   0  0  0  0  0  0  0  0  0  0  0  0
   -0.1380    2.0784    2.4134 S   0  0  0  0  0  0  0  0  0  0  0  0
   -0.6130    3.5754    1.5198 C   0  0  0  0  0  0  0  0  0  0  0  0
    1.2790   -1.2290    0.9021 H   0  0  0  0  0  0  0  0  0  0  0  0
   -1.0849    0.1082    0.8403 H   0  0  0  0  0  0  0  0  0  0  0  0
    0.1064    1.9036   -0.5082 H   0  0  0  0  0  0  0  0  0  0  0  0
    1.4663    0.7962   -0.6982 H   0  0  0  0  0  0  0  0  0  0  0  0
    1.8920    2.3709    1.1833 H   0  0  0  0  0  0  0  0  0  0  0  0
    1.7417    0.7217    1.8146 H   0  0  0  0  0  0  0  0  0  0  0  0
   -1.4373    4.0718    2.0378 H   0  0  0  0  0  0  0  0  0  0  0  0
   -0.9324    3.3174    0.5070 H   0  0  0  0  0  0  0  0  0  0  0  0
    0.2372    4.2594    1.4632 H   0  0  0  0  0  0  0  0  0  0  0  0
   -0.8787   -1.7378   -1.6303 N   0  0  0  0  0  0  0  0  0  0  0  0
   -1.4763   -2.2676   -2.8335 C   0  0  2  0  0  0  0  0  0  0  0  0
   -1.9541   -3.6830   -2.5374 C   0  0  0  0  0  0  0  0  0  0  0  0
   -1.4975   -4.3679   -1.6243 O   0  0  0  0  0  0  0  0  0  0  0  0
   -0.4905   -2.2577   -3.9915 C   0  0  0  0  0  0  0  0  0  0  0  0
   -0.2817   -2.3535   -1.0862 H   0  0  0  0  0  0  0  0  0  0  0  0
   -2.3377   -1.6317   -3.0653 H   0  0  0  0  0  0  0  0  0  0  0  0
    0.3793   -2.8894   -3.7775 H   0  0  0  0  0  0  0  0  0  0  0  0
   -0.9537   -2.6331   -4.9100 H   0  0  0  0  0  0  0  0  0  0  0  0
   -0.1253   -1.2432   -4.1837 H   0  0  0  0  0  0  0  0  0  0  0  0
   -2.9197   -4.1073   -3.4394 N   0  0  0  0  0  0  0  0  0  0  0  0
   -3.5218   -5.4187   -3.3776 C   0  0  0  0  0  0  0  0  0  0  0  0
   -3.2526   -3.4661   -4.1534 H   0  0  0  0  0  0  0  0  0  0  0  0
   -2.9584   -6.1120   -4.0192 H   0  0  0  0  0  0  0  0  0  0  0  0
   -3.5027   -5.7822   -2.3395 H   0  0  0  0  0  0  0  0  0  0  0  0
   -4.5634   -5.3606   -3.7265 H   0  0  0  0  0  0  0  0  0  0  0  0
  1  3  1  0  0  0  0
  1  7  1  0  0  0  0
  1  2  2  0  0  0  0
 35 36  1  0  0  0  0
 36 44  1  0  0  0  0
 36 37  2  0  0  0  0
  8  9  1  0  0  0  0
  9 17  1  0  0  0  0
  9 10  2  0  0  0  0
 18 19  1  0  0  0  0
 19 34  1  0  0  0  0
 19 20  2  0  0  0  0
 35 38  1  0  0  0  0
  8 11  1  0  0  0  0
 44 45  1  0  0  0  0
 23 24  1  0  0  0  0
 21 22  1  0  0  0  0
 18 21  1  0  0  0  0
 22 23  1  0  0  0  0
 34 35  1  0  0  0  0
  7  8  1  0  0  0  0
 17 18  1  0  0  0  0
  3  4  1  0  0  0  0
  3  5  1  0  0  0  0
  3  6  1  0  0  0  0
 38 41  1  0  0  0  0
 38 42  1  0  0  0  0
 38 43  1  0  0  0  0
 11 14  1  0  0  0  0
 11 15  1  0  0  0  0
 11 16  1  0  0  0  0
 45 47  1  0  0  0  0
 45 48  1  0  0  0  0
 45 49  1  0  0  0  0
 24 31  1  0  0  0  0
 24 32  1  0  0  0  0
 24 33  1  0  0  0  0
 21 27  1  0  0  0  0
 21 28  1  0  0  0  0
 22 29  1  0  0  0  0
 22 30  1  0  0  0  0
 35 40  1  0  0  0  0
  8 13  1  0  0  0  0
 18 26  1  0  0  0  0
 44 46  1  0  0  0  0
  7 12  1  0  0  0  0
 34 39  1  0  0  0  0
 17 25  1  0  0  0  0
M  END
$$$$

  -OEChem-05262214473D

 49 48  0     1  0  0  0  0  0999 V2000
   -0.0561   -5.3799    2.6949 C   0  0  0  0  0  0  0  0  0  0  0  0
    0.7325   -5.0736    3.5815 O   0  0  0  0  0  0  0  0  0  0  0  0
   -1.0067   -6.5099    2.9135 C   0  0  0  0  0  0  0  0  0  0  0  0
   -0.5910   -7.4777    2.5899 H   0  0  0  0  0  0  0  0  0  0  0  0
   -1.2629   -6.6440    3.9767 H   0  0  0  0  0  0  0  0  0  0  0  0
   -1.9729   -6.4206    2.3918 H   0  0  0  0  0  0  0  0  0  0  0  0
   -0.1735   -4.7694    1.4571 N   0  0  0  0  0  0  0  0  0  0  0  0
    0.6439   -3.6603    1.0409 C   0  0  2  0  0  0  0  0  0  0  0  0
   -0.2788   -2.5625    0.5280 C   0  0  0  0  0  0  0  0  0  0  0  0
   -1.4197   -2.7791    0.1251 O   0  0  0  0  0  0  0  0  0  0  0  0
    1.6395   -4.0779   -0.0301 C   0  0  0  0  0  0  0  0  0  0  0  0
   -0.8741   -5.1235    0.8083 H   0  0  0  0  0  0  0  0  0  0  0  0
    1.1738   -3.3062    1.9318 H   0  0  0  0  0  0  0  0  0  0  0  0
    1.1270   -4.4358   -0.9305 H   0  0  0  0  0  0  0  0  0  0  0  0
    2.2797   -3.2400   -0.3251 H   0  0  0  0  0  0  0  0  0  0  0  0
    2.2827   -4.8880    0.3303 H   0  0  0  0  0  0  0  0  0  0  0  0
    0.3351   -1.3153    0.5316 N   0  0  0  0  0  0  0  0  0  0  0  0
   -0.3268   -0.1184    0.0807 C   0  0  2  0  0  0  0  0  0  0  0  0
   -1.0479   -0.4203   -1.2294 C   0  0  0  0  0  0  0  0  0  0  0  0
   -1.4921    0.4578   -1.9662 O   0  0  0  0  0  0  0  0  0  0  0  0
    0.6385    1.0696   -0.0313 C   0  0  0  0  0  0  0  0  0  0  0  0
    1.2026    1.5316    1.3144 C   0  0  0  0  0  0  0  0  0  0  0  0
   -0.1380    2.0784    2.4134 S   0  0  0  0  0  0  0  0  0  0  0  0
   -0.6130    3.5754    1.5198 C   0  0  0  0  0  0  0  0  0  0  0  0
    1.2790   -1.2290    0.9021 H   0  0  0  0  0  0  0  0  0  0  0  0
   -1.0849    0.1082    0.8403 H   0  0  0  0  0  0  0  0  0  0  0  0
    0.1064    1.9036   -0.5082 H   0  0  0  0  0  0  0  0  0  0  0  0
    1.4663    0.7962   -0.6982 H   0  0  0  0  0  0  0  0  0  0  0  0
    1.8920    2.3709    1.1833 H   0  0  0  0  0  0  0  0  0  0  0  0
    1.7417    0.7217    1.8146 H   0  0  0  0  0  0  0  0  0  0  0  0
   -1.4373    4.0718    2.0378 H   0  0  0  0  0  0  0  0  0  0  0  0
   -0.9324    3.3174    0.5070 H   0  0  0  0  0  0  0  0  0  0  0  0
    0.2372    4.2594    1.4632 H   0  0  0  0  0  0  0  0  0  0  0  0
   -1.1652   -1.7830   -1.4622 N   0  0  0  0  0  0  0  0  0  0  0  0
   -1.8214   -2.3187   -2.6317 C   0  0  2  0  0  0  0  0  0  0  0  0
   -2.6168   -3.5452   -2.2044 C   0  0  0  0  0  0  0  0  0  0  0  0
   -2.3609   -4.1907   -1.1900 O   0  0  0  0  0  0  0  0  0  0  0  0
   -0.8163   -2.6735   -3.7164 C   0  0  0  0  0  0  0  0  0  0  0  0
   -0.7431   -2.4397   -0.8123 H   0  0  0  0  0  0  0  0  0  0  0  0
   -2.5080   -1.5447   -2.9916 H   0  0  0  0  0  0  0  0  0  0  0  0
   -0.1199   -3.4477   -3.3742 H   0  0  0  0  0  0  0  0  0  0  0  0
   -1.3175   -3.0528   -4.6130 H   0  0  0  0  0  0  0  0  0  0  0  0
   -0.2248   -1.7968   -4.0014 H   0  0  0  0  0  0  0  0  0  0  0  0
   -3.6188   -3.8596   -3.1117 N   0  0  0  0  0  0  0  0  0  0  0  0
   -4.5030   -4.9882   -2.9368 C   0  0  0  0  0  0  0  0  0  0  0  0
   -3.7717   -3.2580   -3.9157 H   0  0  0  0  0  0  0  0  0  0  0  0
   -4.0868   -5.8646   -3.4553 H   0  0  0  0  0  0  0  0  0  0  0  0
   -4.6051   -5.2111   -1.8644 H   0  0  0  0  0  0  0  0  0  0  0  0
   -5.4908   -4.7486   -3.3572 H   0  0  0  0  0  0  0  0  0  0  0  0
  1  3  1  0  0  0  0
  1  7  1  0  0  0  0
  1  2  2  0  0  0  0
 35 36  1  0  0  0  0
 36 44  1  0  0  0  0
 36 37  2  0  0  0  0
  8  9  1  0  0  0  0
  9 17  1  0  0  0  0
  9 10  2  0  0  0  0
 18 19  1  0  0  0  0
 19 34  1  0  0  0  0
 19 20  2  0  0  0  0
 35 38  1  0  0  0  0
  8 11  1  0  0  0  0
 44 45  1  0  0  0  0
 23 24  1  0  0  0  0
 21 22  1  0  0  0  0
 18 21  1  0  0  0  0
 22 23  1  0  0  0  0
 34 35  1  0  0  0  0
  7  8  1  0  0  0  0
 17 18  1  0  0  0  0
  3  4  1  0  0  0  0
  3  5  1  0  0  0  0
  3  6  1  0  0  0  0
 38 41  1  0  0  0  0
 38 42  1  0  0  0  0
 38 43  1  0  0  0  0
 11 14  1  0  0  0  0
 11 15  1  0  0  0  0
 11 16  1  0  0  0  0
 45 47  1  0  0  0  0
 45 48  1  0  0  0  0
 45 49  1  0  0  0  0
 24 31  1  0  0  0  0
 24 32  1  0  0  0  0
 24 33  1  0  0  0  0
 21 27  1  0  0  0  0
 21 28  1  0  0  0  0
 22 29  1  0  0  0  0
 22 30  1  0  0  0  0
 35 40  1  0  0  0  0
  8 13  1  0  0  0  0
 18 26  1  0  0  0  0
 44 46  1  0  0  0  0
  7 12  1  0  0  0  0
 34 39  1  0  0  0  0
 17 25  1  0  0  0  0
M  END
$$$$

  -OEChem-05262214473D

 49 48  0     1  0  0  0  0  0999 V2000
   -0.0561   -5.3799    2.6949 C   0  0  0  0  0  0  0  0  0  0  0  0
    0.7325   -5.0736    3.5815 O   0  0  0  0  0  0  0  0  0  0  0  0
   -1.0067   -6.5099    2.9135 C   0  0  0  0  0  0  0  0  0  0  0  0
   -0.5910   -7.4777    2.5899 H   0  0  0  0  0  0  0  0  0  0  0  0
   -1.2629   -6.6440    3.9767 H   0  0  0  0  0  0  0  0  0  0  0  0
   -1.9729   -6.4206    2.3918 H   0  0  0  0  0  0  0  0  0  0  0  0
   -0.1735   -4.7694    1.4571 N   0  0  0  0  0  0  0  0  0  0  0  0
    0.6439   -3.6603    1.0409 C   0  0  2  0  0  0  0  0  0  0  0  0
   -0.2788   -2.5625    0.5280 C   0  0  0  0  0  0  0  0  0  0  0  0
   -1.4197   -2.7791    0.1251 O   0  0  0  0  0  0  0  0  0  0  0  0
    1.6395   -4.0779   -0.0301 C   0  0  0  0  0  0  0  0  0  0  0  0
   -0.8741   -5.1235    0.8083 H   0  0  0  0  0  0  0  0  0  0  0  0
    1.1738   -3.3062    1.9318 H   0  0  0  0  0  0  0  0  0  0  0  0
    1.1270   -4.4358   -0.9305 H   0  0  0  0  0  0  0  0  0  0  0  0
    2.2797   -3.2400   -0.3251 H   0  0  0  0  0  0  0  0  0  0  0  0
    2.2827   -4.8880    0.3303 H   0  0  0  0  0  0  0  0  0  0  0  0
    0.3351   -1.3153    0.5316 N   0  0  0  0  0  0  0  0  0  0  0  0
   -0.3268   -0.1184    0.0807 C   0  0  2  0  0  0  0  0  0  0  0  0
   -1.0479   -0.4203   -1.2294 C   0  0  0  0  0  0  0  0  0  0  0  0
   -1.2549    0.4320   -2.0908 O   0  0  0  0  0  0  0  0  0  0  0  0
    0.6385    1.0696   -0.0313 C   0  0  0  0  0  0  0  0  0  0  0  0
    1.2026    1.5316    1.3144 C   0  0  0  0  0  0  0  0  0  0  0  0
   -0.1380    2.0784    2.4134 S   0  0  0  0  0  0  0  0  0  0  0  0
   -0.6130    3.5754    1.5198 C   0  0  0  0  0  0  0  0  0  0  0  0
    1.2790   -1.2290    0.9021 H   0  0  0  0  0  0  0  0  0  0  0  0
   -1.0849    0.1082    0.8403 H   0  0  0  0  0  0  0  0  0  0  0  0
    0.1064    1.9036   -0.5082 H   0  0  0  0  0  0  0  0  0  0  0  0
    1.4663    0.7962   -0.6982 H   0  0  0  0  0  0  0  0  0  0  0  0
    1.8920    2.3709    1.1833 H   0  0  0  0  0  0  0  0  0  0  0  0
    1.7417    0.7217    1.8146 H   0  0  0  0  0  0  0  0  0  0  0  0
   -1.4373    4.0718    2.0378 H   0  0  0  0  0  0  0  0  0  0  0  0
   -0.9324    3.3174    0.5070 H   0  0  0  0  0  0  0  0  0  0  0  0
    0.2372    4.2594    1.4632 H   0  0  0  0  0  0  0  0  0  0  0  0
   -1.4607   -1.7425   -1.3089 N   0  0  0  0  0  0  0  0  0  0  0  0
   -2.1766   -2.2668   -2.4482 C   0  0  2  0  0  0  0  0  0  0  0  0
   -3.2434   -3.2241   -1.9335 C   0  0  0  0  0  0  0  0  0  0  0  0
   -3.1777   -3.7746   -0.8364 O   0  0  0  0  0  0  0  0  0  0  0  0
   -1.2375   -2.9691   -3.4165 C   0  0  0  0  0  0  0  0  0  0  0  0
   -1.2221   -2.3869   -0.5609 H   0  0  0  0  0  0  0  0  0  0  0  0
   -2.6570   -1.4137   -2.9397 H   0  0  0  0  0  0  0  0  0  0  0  0
   -0.7468   -3.8267   -2.9418 H   0  0  0  0  0  0  0  0  0  0  0  0
   -1.7774   -3.3410   -4.2935 H   0  0  0  0  0  0  0  0  0  0  0  0
   -0.4533   -2.2872   -3.7627 H   0  0  0  0  0  0  0  0  0  0  0  0
   -4.2558   -3.4249   -2.8613 N   0  0  0  0  0  0  0  0  0  0  0  0
   -5.3776   -4.3005   -2.6139 C   0  0  0  0  0  0  0  0  0  0  0  0
   -4.2390   -2.9125   -3.7381 H   0  0  0  0  0  0  0  0  0  0  0  0
   -5.1506   -5.3057   -2.9986 H   0  0  0  0  0  0  0  0  0  0  0  0
   -5.5673   -4.3563   -1.5318 H   0  0  0  0  0  0  0  0  0  0  0  0
   -6.2695   -3.9061   -3.1227 H   0  0  0  0  0  0  0  0  0  0  0  0
  1  3  1  0  0  0  0
  1  7  1  0  0  0  0
  1  2  2  0  0  0  0
 35 36  1  0  0  0  0
 36 44  1  0  0  0  0
 36 37  2  0  0  0  0
  8  9  1  0  0  0  0
  9 17  1  0  0  0  0
  9 10  2  0  0  0  0
 18 19  1  0  0  0  0
 19 34  1  0  0  0  0
 19 20  2  0  0  0  0
 35 38  1  0  0  0  0
  8 11  1  0  0  0  0
 44 45  1  0  0  0  0
 23 24  1  0  0  0  0
 21 22  1  0  0  0  0
 18 21  1  0  0  0  0
 22 23  1  0  0  0  0
 34 35  1  0  0  0  0
  7  8  1  0  0  0  0
 17 18  1  0  0  0  0
  3  4  1  0  0  0  0
  3  5  1  0  0  0  0
  3  6  1  0  0  0  0
 38 41  1  0  0  0  0
 38 42  1  0  0  0  0
 38 43  1  0  0  0  0
 11 14  1  0  0  0  0
 11 15  1  0  0  0  0
 11 16  1  0  0  0  0
 45 47  1  0  0  0  0
 45 48  1  0  0  0  0
 45 49  1  0  0  0  0
 24 31  1  0  0  0  0
 24 32  1  0  0  0  0
 24 33  1  0  0  0  0
 21 27  1  0  0  0  0
 21 28  1  0  0  0  0
 22 29  1  0  0  0  0
 22 30  1  0  0  0  0
 35 40  1  0  0  0  0
  8 13  1  0  0  0  0
 18 26  1  0  0  0  0
 44 46  1  0  0  0  0
  7 12  1  0  0  0  0
 34 39  1  0  0  0  0
 17 25  1  0  0  0  0
M  END
$$$$

  -OEChem-05262214473D

 49 48  0     1  0  0  0  0  0999 V2000
   -0.0561   -5.3799    2.6949 C   0  0  0  0  0  0  0  0  0  0  0  0
    0.7325   -5.0736    3.5815 O   0  0  0  0  0  0  0  0  0  0  0  0
   -1.0067   -6.5099    2.9135 C   0  0  0  0  0  0  0  0  0  0  0  0
   -0.5910   -7.4777    2.5899 H   0  0  0  0  0  0  0  0  0  0  0  0
   -1.2629   -6.6440    3.9767 H   0  0  0  0  0  0  0  0  0  0  0  0
   -1.9729   -6.4206    2.3918 H   0  0  0  0  0  0  0  0  0  0  0  0
   -0.1735   -4.7694    1.4571 N   0  0  0  0  0  0  0  0  0  0  0  0
    0.6439   -3.6603    1.0409 C   0  0  2  0  0  0  0  0  0  0  0  0
   -0.2788   -2.5625    0.5280 C   0  0  0  0  0  0  0  0  0  0  0  0
   -1.4197   -2.7791    0.1251 O   0  0  0  0  0  0  0  0  0  0  0  0
    1.6395   -4.0779   -0.0301 C   0  0  0  0  0  0  0  0  0  0  0  0
   -0.8741   -5.1235    0.8083 H   0  0  0  0  0  0  0  0  0  0  0  0
    1.1738   -3.3062    1.9318 H   0  0  0  0  0  0  0  0  0  0  0  0
    1.1270   -4.4358   -0.9305 H   0  0  0  0  0  0  0  0  0  0  0  0
    2.2797   -3.2400   -0.3251 H   0  0  0  0  0  0  0  0  0  0  0  0
    2.2827   -4.8880    0.3303 H   0  0  0  0  0  0  0  0  0  0  0  0
    0.3351   -1.3153    0.5316 N   0  0  0  0  0  0  0  0  0  0  0  0
   -0.3268   -0.1184    0.0807 C   0  0  2  0  0  0  0  0  0  0  0  0
   -1.0479   -0.4203   -1.2294 C   0  0  0  0  0  0  0  0  0  0  0  0
   -1.0250    0.3391   -2.1959 O   0  0  0  0  0  0  0  0  0  0  0  0
    0.6385    1.0696   -0.0313 C   0  0  0  0  0  0  0  0  0  0  0  0
    1.2026    1.5316    1.3144 C   0  0  0  0  0  0  0  0  0  0  0  0
   -0.1380    2.0784    2.4134 S   0  0  0  0  0  0  0  0  0  0  0  0
   -0.6130    3.5754    1.5198 C   0  0  0  0  0  0  0  0  0  0  0  0
    1.2790   -1.2290    0.9021 H   0  0  0  0  0  0  0  0  0  0  0  0
   -1.0849    0.1082    0.8403 H   0  0  0  0  0  0  0  0  0  0  0  0
    0.1064    1.9036   -0.5082 H   0  0  0  0  0  0  0  0  0  0  0  0
    1.4663    0.7962   -0.6982 H   0  0  0  0  0  0  0  0  0  0  0  0
    1.8920    2.3709    1.1833 H   0  0  0  0  0  0  0  0  0  0  0  0
    1.7417    0.7217    1.8146 H   0  0  0  0  0  0  0  0  0  0  0  0
   -1.4373    4.0718    2.0378 H   0  0  0  0  0  0  0  0  0  0  0  0
   -0.9324    3.3174    0.5070 H   0  0  0  0  0  0  0  0  0  0  0  0
    0.2372    4.2594    1.4632 H   0  0  0  0  0  0  0  0  0  0  0  0
   -1.7449   -1.6190   -1.1809 N   0  0  0  0  0  0  0  0  0  0  0  0
   -2.5174   -2.1152   -2.2956 C   0  0  2  0  0  0  0  0  0  0  0  0
   -3.7911   -2.7415   -1.7433 C   0  0  0  0  0  0  0  0  0  0  0  0
   -3.8922   -3.1478   -0.5875 O   0  0  0  0  0  0  0  0  0  0  0  0
   -1.7253   -3.1243   -3.1122 C   0  0  0  0  0  0  0  0  0  0  0  0
   -1.6859   -2.1987   -0.3490 H   0  0  0  0  0  0  0  0  0  0  0  0
   -2.7745   -1.2478   -2.9133 H   0  0  0  0  0  0  0  0  0  0  0  0
   -1.4587   -4.0005   -2.5100 H   0  0  0  0  0  0  0  0  0  0  0  0
   -2.3020   -3.4782   -3.9732 H   0  0  0  0  0  0  0  0  0  0  0  0
   -0.7952   -2.6809   -3.4838 H   0  0  0  0  0  0  0  0  0  0  0  0
   -4.7874   -2.8328   -2.7052 N   0  0  0  0  0  0  0  0  0  0  0  0
   -6.0860   -3.4023   -2.4310 C   0  0  0  0  0  0  0  0  0  0  0  0
   -4.6226   -2.4532   -3.6328 H   0  0  0  0  0  0  0  0  0  0  0  0
   -6.0773   -4.4736   -2.6803 H   0  0  0  0  0  0  0  0  0  0  0  0
   -6.3238   -3.2761   -1.3644 H   0  0  0  0  0  0  0  0  0  0  0  0
   -6.8464   -2.8906   -3.0392 H   0  0  0  0  0  0  0  0  0  0  0  0
  1  3  1  0  0  0  0
  1  7  1  0  0  0  0
  1  2  2  0  0  0  0
 35 36  1  0  0  0  0
 36 44  1  0  0  0  0
 36 37  2  0  0  0  0
  8  9  1  0  0  0  0
  9 17  1  0  0  0  0
  9 10  2  0  0  0  0
 18 19  1  0  0  0  0
 19 34  1  0  0  0  0
 19 20  2  0  0  0  0
 35 38  1  0  0  0  0
  8 11  1  0  0  0  0
 44 45  1  0  0  0  0
 23 24  1  0  0  0  0
 21 22  1  0  0  0  0
 18 21  1  0  0  0  0
 22 23  1  0  0  0  0
 34 35  1  0  0  0  0
  7  8  1  0  0  0  0
 17 18  1  0  0  0  0
  3  4  1  0  0  0  0
  3  5  1  0  0  0  0
  3  6  1  0  0  0  0
 38 41  1  0  0  0  0
 38 42  1  0  0  0  0
 38 43  1  0  0  0  0
 11 14  1  0  0  0  0
 11 15  1  0  0  0  0
 11 16  1  0  0  0  0
 45 47  1  0  0  0  0
 45 48  1  0  0  0  0
 45 49  1  0  0  0  0
 24 31  1  0  0  0  0
 24 32  1  0  0  0  0
 24 33  1  0  0  0  0
 21 27  1  0  0  0  0
 21 28  1  0  0  0  0
 22 29  1  0  0  0  0
 22 30  1  0  0  0  0
 35 40  1  0  0  0  0
  8 13  1  0  0  0  0
 18 26  1  0  0  0  0
 44 46  1  0  0  0  0
  7 12  1  0  0  0  0
 34 39  1  0  0  0  0
 17 25  1  0  0  0  0
M  END
$$$$

  -OEChem-05262214473D

 49 48  0     1  0  0  0  0  0999 V2000
   -0.0561   -5.3799    2.6949 C   0  0  0  0  0  0  0  0  0  0  0  0
    0.7325   -5.0736    3.5815 O   0  0  0  0  0  0  0  0  0  0  0  0
   -1.0067   -6.5099    2.9135 C   0  0  0  0  0  0  0  0  0  0  0  0
   -0.5910   -7.4777    2.5899 H   0  0  0  0  0  0  0  0  0  0  0  0
   -1.2629   -6.6440    3.9767 H   0  0  0  0  0  0  0  0  0  0  0  0
   -1.9729   -6.4206    2.3918 H   0  0  0  0  0  0  0  0  0  0  0  0
   -0.1735   -4.7694    1.4571 N   0  0  0  0  0  0  0  0  0  0  0  0
    0.6439   -3.6603    1.0409 C   0  0  2  0  0  0  0  0  0  0  0  0
   -0.2788   -2.5625    0.5280 C   0  0  0  0  0  0  0  0  0  0  0  0
   -1.4197   -2.7791    0.1251 O   0  0  0  0  0  0  0  0  0  0  0  0
    1.6395   -4.0779   -0.0301 C   0  0  0  0  0  0  0  0  0  0  0  0
   -0.8741   -5.1235    0.8083 H   0  0  0  0  0  0  0  0  0  0  0  0
    1.1738   -3.3062    1.9318 H   0  0  0  0  0  0  0  0  0  0  0  0
    1.1270   -4.4358   -0.9305 H   0  0  0  0  0  0  0  0  0  0  0  0
    2.2797   -3.2400   -0.3251 H   0  0  0  0  0  0  0  0  0  0  0  0
    2.2827   -4.8880    0.3303 H   0  0  0  0  0  0  0  0  0  0  0  0
    0.3351   -1.3153    0.5316 N   0  0  0  0  0  0  0  0  0  0  0  0
   -0.3268   -0.1184    0.0807 C   0  0  2  0  0  0  0  0  0  0  0  0
   -1.0479   -0.4203   -1.2294 C   0  0  0  0  0  0  0  0  0  0  0  0
   -0.8183    0.1854   -2.2742 O   0  0  0  0  0  0  0  0  0  0  0  0
    0.6385    1.0696   -0.0313 C   0  0  0  0  0  0  0  0  0  0  0  0
    1.2026    1.5316    1.3144 C   0  0  0  0  0  0  0  0  0  0  0  0
   -0.1380    2.0784    2.4134 S   0  0  0  0  0  0  0  0  0  0  0  0
   -0.6130    3.5754    1.5198 C   0  0  0  0  0  0  0  0  0  0  0  0
    1.2790   -1.2290    0.9021 H   0  0  0  0  0  0  0  0  0  0  0  0
   -1.0849    0.1082    0.8403 H   0  0  0  0  0  0  0  0  0  0  0  0
    0.1064    1.9036   -0.5082 H   0  0  0  0  0  0  0  0  0  0  0  0
    1.4663    0.7962   -0.6982 H   0  0  0  0  0  0  0  0  0  0  0  0
    1.8920    2.3709    1.1833 H   0  0  0  0  0  0  0  0  0  0  0  0
    1.7417    0.7217    1.8146 H   0  0  0  0  0  0  0  0  0  0  0  0
   -1.4373    4.0718    2.0378 H   0  0  0  0  0  0  0  0  0  0  0  0
   -0.9324    3.3174    0.5070 H   0  0  0  0  0  0  0  0  0  0  0  0
    0.2372    4.2594    1.4632 H   0  0  0  0  0  0  0  0  0  0  0  0
   -1.9985   -1.4208   -1.0870 N   0  0  0  0  0  0  0  0  0  0  0  0
   -2.8208   -1.8743   -2.1841 C   0  0  2  0  0  0  0  0  0  0  0  0
   -4.2226   -2.1304   -1.6466 C   0  0  0  0  0  0  0  0  0  0  0  0
   -4.4559   -2.3531   -0.4604 O   0  0  0  0  0  0  0  0  0  0  0  0
   -2.2467   -3.1286   -2.8243 C   0  0  0  0  0  0  0  0  0  0  0  0
   -2.1028   -1.8879   -0.1912 H   0  0  0  0  0  0  0  0  0  0  0  0
   -2.8524   -1.0582   -2.9141 H   0  0  0  0  0  0  0  0  0  0  0  0
   -2.2071   -3.9573   -2.1080 H   0  0  0  0  0  0  0  0  0  0  0  0
   -2.8557   -3.4548   -3.6739 H   0  0  0  0  0  0  0  0  0  0  0  0
   -1.2273   -2.9510   -3.1837 H   0  0  0  0  0  0  0  0  0  0  0  0
   -5.1771   -2.1237   -2.6541 N   0  0  0  0  0  0  0  0  0  0  0  0
   -6.5801   -2.3548   -2.4004 C   0  0  0  0  0  0  0  0  0  0  0  0
   -4.8965   -1.9114   -3.6069 H   0  0  0  0  0  0  0  0  0  0  0  0
   -6.8038   -3.4249   -2.5221 H   0  0  0  0  0  0  0  0  0  0  0  0
   -6.8230   -2.0440   -1.3736 H   0  0  0  0  0  0  0  0  0  0  0  0
   -7.1823   -1.7712   -3.1123 H   0  0  0  0  0  0  0  0  0  0  0  0
  1  3  1  0  0  0  0
  1  7  1  0  0  0  0
  1  2  2  0  0  0  0
 35 36  1  0  0  0  0
 36 44  1  0  0  0  0
 36 37  2  0  0  0  0
  8  9  1  0  0  0  0
  9 17  1  0  0  0  0
  9 10  2  0  0  0  0
 18 19  1  0  0  0  0
 19 34  1  0  0  0  0
 19 20  2  0  0  0  0
 35 38  1  0  0  0  0
  8 11  1  0  0  0  0
 44 45  1  0  0  0  0
 23 24  1  0  0  0  0
 21 22  1  0  0  0  0
 18 21  1  0  0  0  0
 22 23  1  0  0  0  0
 34 35  1  0  0  0  0
  7  8  1  0  0  0  0
 17 18  1  0  0  0  0
  3  4  1  0  0  0  0
  3  5  1  0  0  0  0
  3  6  1  0  0  0  0
 38 41  1  0  0  0  0
 38 42  1  0  0  0  0
 38 43  1  0  0  0  0
 11 14  1  0  0  0  0
 11 15  1  0  0  0  0
 11 16  1  0  0  0  0
 45 47  1  0  0  0  0
 45 48  1  0  0  0  0
 45 49  1  0  0  0  0
 24 31  1  0  0  0  0
 24 32  1  0  0  0  0
 24 33  1  0  0  0  0
 21 27  1  0  0  0  0
 21 28  1  0  0  0  0
 22 29  1  0  0  0  0
 22 30  1  0  0  0  0
 35 40  1  0  0  0  0
  8 13  1  0  0  0  0
 18 26  1  0  0  0  0
 44 46  1  0  0  0  0
  7 12  1  0  0  0  0
 34 39  1  0  0  0  0
 17 25  1  0  0  0  0
M  END
$$$$

  -OEChem-05262214473D

 49 48  0     1  0  0  0  0  0999 V2000
   -0.0561   -5.3799    2.6949 C   0  0  0  0  0  0  0  0  0  0  0  0
    0.7325   -5.0736    3.5815 O   0  0  0  0  0  0  0  0  0  0  0  0
   -1.0067   -6.5099    2.9135 C   0  0  0  0  0  0  0  0  0  0  0  0
   -0.5910   -7.4777    2.5899 H   0  0  0  0  0  0  0  0  0  0  0  0
   -1.2629   -6.6440    3.9767 H   0  0  0  0  0  0  0  0  0  0  0  0
   -1.9729   -6.4206    2.3918 H   0  0  0  0  0  0  0  0  0  0  0  0
   -0.1735   -4.7694    1.4571 N   0  0  0  0  0  0  0  0  0  0  0  0
    0.6439   -3.6603    1.0409 C   0  0  2  0  0  0  0  0  0  0  0  0
   -0.2788   -2.5625    0.5280 C   0  0  0  0  0  0  0  0  0  0  0  0
   -1.4197   -2.7791    0.1251 O   0  0  0  0  0  0  0  0  0  0  0  0
    1.6395   -4.0779   -0.0301 C   0  0  0  0  0  0  0  0  0  0  0  0
   -0.8741   -5.1235    0.8083 H   0  0  0  0  0  0  0  0  0  0  0  0
    1.1738   -3.3062    1.9318 H   0  0  0  0  0  0  0  0  0  0  0  0
    1.1270   -4.4358   -0.9305 H   0  0  0  0  0  0  0  0  0  0  0  0
    2.2797   -3.2400   -0.3251 H   0  0  0  0  0  0  0  0  0  0  0  0
    2.2827   -4.8880    0.3303 H   0  0  0  0  0  0  0  0  0  0  0  0
    0.3351   -1.3153    0.5316 N   0  0  0  0  0  0  0  0  0  0  0  0
   -0.3268   -0.1184    0.0807 C   0  0  2  0  0  0  0  0  0  0  0  0
   -1.0479   -0.4203   -1.2294 C   0  0  0  0  0  0  0  0  0  0  0  0
   -0.6488   -0.0185   -2.3206 O   0  0  0  0  0  0  0  0  0  0  0  0
    0.6385    1.0696   -0.0313 C   0  0  0  0  0  0  0  0  0  0  0  0
    1.2026    1.5316    1.3144 C   0  0  0  0  0  0  0  0  0  0  0  0
   -0.1380    2.0784    2.4134 S   0  0  0  0  0  0  0  0  0  0  0  0
   -0.6130    3.5754    1.5198 C   0  0  0  0  0  0  0  0  0  0  0  0
    1.2790   -1.2290    0.9021 H   0  0  0  0  0  0  0  0  0  0  0  0
   -1.0849    0.1082    0.8403 H   0  0  0  0  0  0  0  0  0  0  0  0
    0.1064    1.9036   -0.5082 H   0  0  0  0  0  0  0  0  0  0  0  0
    1.4663    0.7962   -0.6982 H   0  0  0  0  0  0  0  0  0  0  0  0
    1.8920    2.3709    1.1833 H   0  0  0  0  0  0  0  0  0  0  0  0
    1.7417    0.7217    1.8146 H   0  0  0  0  0  0  0  0  0  0  0  0
   -1.4373    4.0718    2.0378 H   0  0  0  0  0  0  0  0  0  0  0  0
   -0.9324    3.3174    0.5070 H   0  0  0  0  0  0  0  0  0  0  0  0
    0.2372    4.2594    1.4632 H   0  0  0  0  0  0  0  0  0  0  0  0
   -2.2043   -1.1615   -1.0335 N   0  0  0  0  0  0  0  0  0  0  0  0
   -3.0660   -1.5606   -2.1214 C   0  0  2  0  0  0  0  0  0  0  0  0
   -4.5086   -1.4323   -1.6501 C   0  0  0  0  0  0  0  0  0  0  0  0
   -4.8302   -1.4447   -0.4637 O   0  0  0  0  0  0  0  0  0  0  0  0
   -2.7659   -2.9816   -2.5724 C   0  0  0  0  0  0  0  0  0  0  0  0
   -2.4446   -1.4757   -0.0980 H   0  0  0  0  0  0  0  0  0  0  0  0
   -2.8855   -0.8578   -2.9421 H   0  0  0  0  0  0  0  0  0  0  0  0
   -2.9410   -3.7001   -1.7634 H   0  0  0  0  0  0  0  0  0  0  0  0
   -3.4006   -3.2726   -3.4160 H   0  0  0  0  0  0  0  0  0  0  0  0
   -1.7200   -3.0792   -2.8830 H   0  0  0  0  0  0  0  0  0  0  0  0
   -5.3986   -1.3458   -2.7114 N   0  0  0  0  0  0  0  0  0  0  0  0
   -6.8260   -1.2295   -2.5243 C   0  0  0  0  0  0  0  0  0  0  0  0
   -5.0419   -1.3240   -3.6622 H   0  0  0  0  0  0  0  0  0  0  0  0
   -7.2805   -2.2312   -2.5348 H   0  0  0  0  0  0  0  0  0  0  0  0
   -7.0308   -0.7441   -1.5587 H   0  0  0  0  0  0  0  0  0  0  0  0
   -7.2541   -0.6243   -3.3370 H   0  0  0  0  0  0  0  0  0  0  0  0
  1  3  1  0  0  0  0
  1  7  1  0  0  0  0
  1  2  2  0  0  0  0
 35 36  1  0  0  0  0
 36 44  1  0  0  0  0
 36 37  2  0  0  0  0
  8  9  1  0  0  0  0
  9 17  1  0  0  0  0
  9 10  2  0  0  0  0
 18 19  1  0  0  0  0
 19 34  1  0  0  0  0
 19 20  2  0  0  0  0
 35 38  1  0  0  0  0
  8 11  1  0  0  0  0
 44 45  1  0  0  0  0
 23 24  1  0  0  0  0
 21 22  1  0  0  0  0
 18 21  1  0  0  0  0
 22 23  1  0  0  0  0
 34 35  1  0  0  0  0
  7  8  1  0  0  0  0
 17 18  1  0  0  0  0
  3  4  1  0  0  0  0
  3  5  1  0  0  0  0
  3  6  1  0  0  0  0
 38 41  1  0  0  0  0
 38 42  1  0  0  0  0
 38 43  1  0  0  0  0
 11 14  1  0  0  0  0
 11 15  1  0  0  0  0
 11 16  1  0  0  0  0
 45 47  1  0  0  0  0
 45 48  1  0  0  0  0
 45 49  1  0  0  0  0
 24 31  1  0  0  0  0
 24 32  1  0  0  0  0
 24 33  1  0  0  0  0
 21 27  1  0  0  0  0
 21 28  1  0  0  0  0
 22 29  1  0  0  0  0
 22 30  1  0  0  0  0
 35 40  1  0  0  0  0
  8 13  1  0  0  0  0
 18 26  1  0  0  0  0
 44 46  1  0  0  0  0
  7 12  1  0  0  0  0
 34 39  1  0  0  0  0
 17 25  1  0  0  0  0
M  END
$$$$

  -OEChem-05262214473D

 49 48  0     1  0  0  0  0  0999 V2000
   -0.0561   -5.3799    2.6949 C   0  0  0  0  0  0  0  0  0  0  0  0
    0.7325   -5.0736    3.5815 O   0  0  0  0  0  0  0  0  0  0  0  0
   -1.0067   -6.5099    2.9135 C   0  0  0  0  0  0  0  0  0  0  0  0
   -0.5910   -7.4777    2.5899 H   0  0  0  0  0  0  0  0  0  0  0  0
   -1.2629   -6.6440    3.9767 H   0  0  0  0  0  0  0  0  0  0  0  0
   -1.9729   -6.4206    2.3918 H   0  0  0  0  0  0  0  0  0  0  0  0
   -0.1735   -4.7694    1.4571 N   0  0  0  0  0  0  0  0  0  0  0  0
    0.6439   -3.6603    1.0409 C   0  0  2  0  0  0  0  0  0  0  0  0
   -0.2788   -2.5625    0.5280 C   0  0  0  0  0  0  0  0  0  0  0  0
   -1.4197   -2.7791    0.1251 O   0  0  0  0  0  0  0  0  0  0  0  0
    1.6395   -4.0779   -0.0301 C   0  0  0  0  0  0  0  0  0  0  0  0
   -0.8741   -5.1235    0.8083 H   0  0  0  0  0  0  0  0  0  0  0  0
    1.1738   -3.3062    1.9318 H   0  0  0  0  0  0  0  0  0  0  0  0
    1.1270   -4.4358   -0.9305 H   0  0  0  0  0  0  0  0  0  0  0  0
    2.2797   -3.2400   -0.3251 H   0  0  0  0  0  0  0  0  0  0  0  0
    2.2827   -4.8880    0.3303 H   0  0  0  0  0  0  0  0  0  0  0  0
    0.3351   -1.3153    0.5316 N   0  0  0  0  0  0  0  0  0  0  0  0
   -0.3268   -0.1184    0.0807 C   0  0  2  0  0  0  0  0  0  0  0  0
   -1.0479   -0.4203   -1.2294 C   0  0  0  0  0  0  0  0  0  0  0  0
   -0.5280   -0.2589   -2.3316 O   0  0  0  0  0  0  0  0  0  0  0  0
    0.6385    1.0696   -0.0313 C   0  0  0  0  0  0  0  0  0  0  0  0
    1.2026    1.5316    1.3144 C   0  0  0  0  0  0  0  0  0  0  0  0
   -0.1380    2.0784    2.4134 S   0  0  0  0  0  0  0  0  0  0  0  0
   -0.6130    3.5754    1.5198 C   0  0  0  0  0  0  0  0  0  0  0  0
    1.2790   -1.2290    0.9021 H   0  0  0  0  0  0  0  0  0  0  0  0
   -1.0849    0.1082    0.8403 H   0  0  0  0  0  0  0  0  0  0  0  0
    0.1064    1.9036   -0.5082 H   0  0  0  0  0  0  0  0  0  0  0  0
    1.4663    0.7962   -0.6982 H   0  0  0  0  0  0  0  0  0  0  0  0
    1.8920    2.3709    1.1833 H   0  0  0  0  0  0  0  0  0  0  0  0
    1.7417    0.7217    1.8146 H   0  0  0  0  0  0  0  0  0  0  0  0
   -1.4373    4.0718    2.0378 H   0  0  0  0  0  0  0  0  0  0  0  0
   -0.9324    3.3174    0.5070 H   0  0  0  0  0  0  0  0  0  0  0  0
    0.2372    4.2594    1.4632 H   0  0  0  0  0  0  0  0  0  0  0  0
   -2.3481   -0.8588   -1.0241 N   0  0  0  0  0  0  0  0  0  0  0  0
   -3.2364   -1.1954   -2.1118 C   0  0  2  0  0  0  0  0  0  0  0  0
   -4.6294   -0.6949   -1.7535 C   0  0  0  0  0  0  0  0  0  0  0  0
   -4.9897   -0.4844   -0.5972 O   0  0  0  0  0  0  0  0  0  0  0  0
   -3.2477   -2.6934   -2.3737 C   0  0  0  0  0  0  0  0  0  0  0  0
   -2.6879   -0.9902   -0.0760 H   0  0  0  0  0  0  0  0  0  0  0  0
   -2.8715   -0.6603   -2.9953 H   0  0  0  0  0  0  0  0  0  0  0  0
   -3.6104   -3.2464   -1.4995 H   0  0  0  0  0  0  0  0  0  0  0  0
   -3.8996   -2.9439   -3.2171 H   0  0  0  0  0  0  0  0  0  0  0  0
   -2.2399   -3.0568   -2.6021 H   0  0  0  0  0  0  0  0  0  0  0  0
   -5.4368   -0.5522   -2.8733 N   0  0  0  0  0  0  0  0  0  0  0  0
   -6.8072   -0.1030   -2.7943 C   0  0  0  0  0  0  0  0  0  0  0  0
   -5.0490   -0.7311   -3.7949 H   0  0  0  0  0  0  0  0  0  0  0  0
   -7.4751   -0.9737   -2.7174 H   0  0  0  0  0  0  0  0  0  0  0  0
   -6.9332    0.5350   -1.9071 H   0  0  0  0  0  0  0  0  0  0  0  0
   -7.0571    0.4721   -3.6980 H   0  0  0  0  0  0  0  0  0  0  0  0
  1  3  1  0  0  0  0
  1  7  1  0  0  0  0
  1  2  2  0  0  0  0
 35 36  1  0  0  0  0
 36 44  1  0  0  0  0
 36 37  2  0  0  0  0
  8  9  1  0  0  0  0
  9 17  1  0  0  0  0
  9 10  2  0  0  0  0
 18 19  1  0  0  0  0
 19 34  1  0  0  0  0
 19 20  2  0  0  0  0
 35 38  1  0  0  0  0
  8 11  1  0  0  0  0
 44 45  1  0  0  0  0
 23 24  1  0  0  0  0
 21 22  1  0  0  0  0
 18 21  1  0  0  0  0
 22 23  1  0  0  0  0
 34 35  1  0  0  0  0
  7  8  1  0  0  0  0
 17 18  1  0  0  0  0
  3  4  1  0  0  0  0
  3  5  1  0  0  0  0
  3  6  1  0  0  0  0
 38 41  1  0  0  0  0
 38 42  1  0  0  0  0
 38 43  1  0  0  0  0
 11 14  1  0  0  0  0
 11 15  1  0  0  0  0
 11 16  1  0  0  0  0
 45 47  1  0  0  0  0
 45 48  1  0  0  0  0
 45 49  1  0  0  0  0
 24 31  1  0  0  0  0
 24 32  1  0  0  0  0
 24 33  1  0  0  0  0
 21 27  1  0  0  0  0
 21 28  1  0  0  0  0
 22 29  1  0  0  0  0
 22 30  1  0  0  0  0
 35 40  1  0  0  0  0
  8 13  1  0  0  0  0
 18 26  1  0  0  0  0
 44 46  1  0  0  0  0
  7 12  1  0  0  0  0
 34 39  1  0  0  0  0
 17 25  1  0  0  0  0
M  END
$$$$

  -OEChem-05262214473D

 49 48  0     1  0  0  0  0  0999 V2000
   -0.0561   -5.3799    2.6949 C   0  0  0  0  0  0  0  0  0  0  0  0
    0.7325   -5.0736    3.5815 O   0  0  0  0  0  0  0  0  0  0  0  0
   -1.0067   -6.5099    2.9135 C   0  0  0  0  0  0  0  0  0  0  0  0
   -0.5910   -7.4777    2.5899 H   0  0  0  0  0  0  0  0  0  0  0  0
   -1.2629   -6.6440    3.9767 H   0  0  0  0  0  0  0  0  0  0  0  0
   -1.9729   -6.4206    2.3918 H   0  0  0  0  0  0  0  0  0  0  0  0
   -0.1735   -4.7694    1.4571 N   0  0  0  0  0  0  0  0  0  0  0  0
    0.6439   -3.6603    1.0409 C   0  0  2  0  0  0  0  0  0  0  0  0
   -0.2788   -2.5625    0.5280 C   0  0  0  0  0  0  0  0  0  0  0  0
   -1.4197   -2.7791    0.1251 O   0  0  0  0  0  0  0  0  0  0  0  0
    1.6395   -4.0779   -0.0301 C   0  0  0  0  0  0  0  0  0  0  0  0
   -0.8741   -5.1235    0.8083 H   0  0  0  0  0  0  0  0  0  0  0  0
    1.1738   -3.3062    1.9318 H   0  0  0  0  0  0  0  0  0  0  0  0
    1.1270   -4.4358   -0.9305 H   0  0  0  0  0  0  0  0  0  0  0  0
    2.2797   -3.2400   -0.3251 H   0  0  0  0  0  0  0  0  0  0  0  0
    2.2827   -4.8880    0.3303 H   0  0  0  0  0  0  0  0  0  0  0  0
    0.3351   -1.3153    0.5316 N   0  0  0  0  0  0  0  0  0  0  0  0
   -0.3268   -0.1184    0.0807 C   0  0  2  0  0  0  0  0  0  0  0  0
   -1.0479   -0.4203   -1.2294 C   0  0  0  0  0  0  0  0  0  0  0  0
   -0.4642   -0.5193   -2.3068 O   0  0  0  0  0  0  0  0  0  0  0  0
    0.6385    1.0696   -0.0313 C   0  0  0  0  0  0  0  0  0  0  0  0
    1.2026    1.5316    1.3144 C   0  0  0  0  0  0  0  0  0  0  0  0
   -0.1380    2.0784    2.4134 S   0  0  0  0  0  0  0  0  0  0  0  0
   -0.6130    3.5754    1.5198 C   0  0  0  0  0  0  0  0  0  0  0  0
    1.2790   -1.2290    0.9021 H   0  0  0  0  0  0  0  0  0  0  0  0
   -1.0849    0.1082    0.8403 H   0  0  0  0  0  0  0  0  0  0  0  0
    0.1064    1.9036   -0.5082 H   0  0  0  0  0  0  0  0  0  0  0  0
    1.4663    0.7962   -0.6982 H   0  0  0  0  0  0  0  0  0  0  0  0
    1.8920    2.3709    1.1833 H   0  0  0  0  0  0  0  0  0  0  0  0
    1.7417    0.7217    1.8146 H   0  0  0  0  0  0  0  0  0  0  0  0
   -1.4373    4.0718    2.0378 H   0  0  0  0  0  0  0  0  0  0  0  0
   -0.9324    3.3174    0.5070 H   0  0  0  0  0  0  0  0  0  0  0  0
    0.2372    4.2594    1.4632 H   0  0  0  0  0  0  0  0  0  0  0  0
   -2.4202   -0.5333   -1.0594 N   0  0  0  0  0  0  0  0  0  0  0  0
   -3.3202   -0.8036   -2.1560 C   0  0  2  0  0  0  0  0  0  0  0  0
   -4.5770    0.0316   -1.9497 C   0  0  0  0  0  0  0  0  0  0  0  0
   -4.9235    0.4622   -0.8518 O   0  0  0  0  0  0  0  0  0  0  0  0
   -3.6592   -2.2837   -2.2416 C   0  0  0  0  0  0  0  0  0  0  0  0
   -2.8161   -0.4645   -0.1266 H   0  0  0  0  0  0  0  0  0  0  0  0
   -2.8113   -0.4791   -3.0702 H   0  0  0  0  0  0  0  0  0  0  0  0
   -4.1697   -2.6270   -1.3345 H   0  0  0  0  0  0  0  0  0  0  0  0
   -4.3188   -2.4911   -3.0907 H   0  0  0  0  0  0  0  0  0  0  0  0
   -2.7514   -2.8851   -2.3601 H   0  0  0  0  0  0  0  0  0  0  0  0
   -5.2889    0.2031   -3.1287 N   0  0  0  0  0  0  0  0  0  0  0  0
   -6.5248    0.9479   -3.1918 C   0  0  0  0  0  0  0  0  0  0  0  0
   -4.9173   -0.1730   -3.9960 H   0  0  0  0  0  0  0  0  0  0  0  0
   -7.3741    0.2619   -3.0577 H   0  0  0  0  0  0  0  0  0  0  0  0
   -6.5367    1.7063   -2.3952 H   0  0  0  0  0  0  0  0  0  0  0  0
   -6.6046    1.4431   -4.1708 H   0  0  0  0  0  0  0  0  0  0  0  0
  1  3  1  0  0  0  0
  1  7  1  0  0  0  0
  1  2  2  0  0  0  0
 35 36  1  0  0  0  0
 36 44  1  0  0  0  0
 36 37  2  0  0  0  0
  8  9  1  0  0  0  0
  9 17  1  0  0  0  0
  9 10  2  0  0  0  0
 18 19  1  0  0  0  0
 19 34  1  0  0  0  0
 19 20  2  0  0  0  0
 35 38  1  0  0  0  0
  8 11  1  0  0  0  0
 44 45  1  0  0  0  0
 23 24  1  0  0  0  0
 21 22  1  0  0  0  0
 18 21  1  0  0  0  0
 22 23  1  0  0  0  0
 34 35  1  0  0  0  0
  7  8  1  0  0  0  0
 17 18  1  0  0  0  0
  3  4  1  0  0  0  0
  3  5  1  0  0  0  0
  3  6  1  0  0  0  0
 38 41  1  0  0  0  0
 38 42  1  0  0  0  0
 38 43  1  0  0  0  0
 11 14  1  0  0  0  0
 11 15  1  0  0  0  0
 11 16  1  0  0  0  0
 45 47  1  0  0  0  0
 45 48  1  0  0  0  0
 45 49  1  0  0  0  0
 24 31  1  0  0  0  0
 24 32  1  0  0  0  0
 24 33  1  0  0  0  0
 21 27  1  0  0  0  0
 21 28  1  0  0  0  0
 22 29  1  0  0  0  0
 22 30  1  0  0  0  0
 35 40  1  0  0  0  0
  8 13  1  0  0  0  0
 18 26  1  0  0  0  0
 44 46  1  0  0  0  0
  7 12  1  0  0  0  0
 34 39  1  0  0  0  0
 17 25  1  0  0  0  0
M  END
$$$$

  -OEChem-05262214473D

 49 48  0     1  0  0  0  0  0999 V2000
   -0.0561   -5.3799    2.6949 C   0  0  0  0  0  0  0  0  0  0  0  0
    0.7325   -5.0736    3.5815 O   0  0  0  0  0  0  0  0  0  0  0  0
   -1.0067   -6.5099    2.9135 C   0  0  0  0  0  0  0  0  0  0  0  0
   -0.5910   -7.4777    2.5899 H   0  0  0  0  0  0  0  0  0  0  0  0
   -1.2629   -6.6440    3.9767 H   0  0  0  0  0  0  0  0  0  0  0  0
   -1.9729   -6.4206    2.3918 H   0  0  0  0  0  0  0  0  0  0  0  0
   -0.1735   -4.7694    1.4571 N   0  0  0  0  0  0  0  0  0  0  0  0
    0.6439   -3.6603    1.0409 C   0  0  2  0  0  0  0  0  0  0  0  0
   -0.2788   -2.5625    0.5280 C   0  0  0  0  0  0  0  0  0  0  0  0
   -1.4197   -2.7791    0.1251 O   0  0  0  0  0  0  0  0  0  0  0  0
    1.6395   -4.0779   -0.0301 C   0  0  0  0  0  0  0  0  0  0  0  0
   -0.8741   -5.1235    0.8083 H   0  0  0  0  0  0  0  0  0  0  0  0
    1.1738   -3.3062    1.9318 H   0  0  0  0  0  0  0  0  0  0  0  0
    1.1270   -4.4358   -0.9305 H   0  0  0  0  0  0  0  0  0  0  0  0
    2.2797   -3.2400   -0.3251 H   0  0  0  0  0  0  0  0  0  0  0  0
    2.2827   -4.8880    0.3303 H   0  0  0  0  0  0  0  0  0  0  0  0
    0.3351   -1.3153    0.5316 N   0  0  0  0  0  0  0  0  0  0  0  0
   -0.3268   -0.1184    0.0807 C   0  0  2  0  0  0  0  0  0  0  0  0
   -1.0479   -0.4203   -1.2294 C   0  0  0  0  0  0  0  0  0  0  0  0
   -0.4617   -0.7820   -2.2476 O   0  0  0  0  0  0  0  0  0  0  0  0
    0.6385    1.0696   -0.0313 C   0  0  0  0  0  0  0  0  0  0  0  0
    1.2026    1.5316    1.3144 C   0  0  0  0  0  0  0  0  0  0  0  0
   -0.1380    2.0784    2.4134 S   0  0  0  0  0  0  0  0  0  0  0  0
   -0.6130    3.5754    1.5198 C   0  0  0  0  0  0  0  0  0  0  0  0
    1.2790   -1.2290    0.9021 H   0  0  0  0  0  0  0  0  0  0  0  0
   -1.0849    0.1082    0.8403 H   0  0  0  0  0  0  0  0  0  0  0  0
    0.1064    1.9036   -0.5082 H   0  0  0  0  0  0  0  0  0  0  0  0
    1.4663    0.7962   -0.6982 H   0  0  0  0  0  0  0  0  0  0  0  0
    1.8920    2.3709    1.1833 H   0  0  0  0  0  0  0  0  0  0  0  0
    1.7417    0.7217    1.8146 H   0  0  0  0  0  0  0  0  0  0  0  0
   -1.4373    4.0718    2.0378 H   0  0  0  0  0  0  0  0  0  0  0  0
   -0.9324    3.3174    0.5070 H   0  0  0  0  0  0  0  0  0  0  0  0
    0.2372    4.2594    1.4632 H   0  0  0  0  0  0  0  0  0  0  0  0
   -2.4158   -0.2072   -1.1370 N   0  0  0  0  0  0  0  0  0  0  0  0
   -3.3119   -0.4120   -2.2508 C   0  0  2  0  0  0  0  0  0  0  0  0
   -4.3548    0.6976   -2.2255 C   0  0  0  0  0  0  0  0  0  0  0  0
   -4.6361    1.3308   -1.2101 O   0  0  0  0  0  0  0  0  0  0  0  0
   -3.9723   -1.7802   -2.1853 C   0  0  0  0  0  0  0  0  0  0  0  0
   -2.8205    0.0656   -0.2463 H   0  0  0  0  0  0  0  0  0  0  0  0
   -2.7091   -0.3267   -3.1615 H   0  0  0  0  0  0  0  0  0  0  0  0
   -4.5807   -1.8843   -1.2794 H   0  0  0  0  0  0  0  0  0  0  0  0
   -4.6296   -1.9452   -3.0455 H   0  0  0  0  0  0  0  0  0  0  0  0
   -3.2198   -2.5761   -2.1735 H   0  0  0  0  0  0  0  0  0  0  0  0
   -4.9652    0.8685   -3.4602 N   0  0  0  0  0  0  0  0  0  0  0  0
   -5.9980    1.8515   -3.6899 C   0  0  0  0  0  0  0  0  0  0  0  0
   -4.6558    0.3122   -4.2517 H   0  0  0  0  0  0  0  0  0  0  0  0
   -6.9846    1.3913   -3.5323 H   0  0  0  0  0  0  0  0  0  0  0  0
   -5.8685    2.6898   -2.9896 H   0  0  0  0  0  0  0  0  0  0  0  0
   -5.9275    2.2226   -4.7231 H   0  0  0  0  0  0  0  0  0  0  0  0
  1  3  1  0  0  0  0
  1  7  1  0  0  0  0
  1  2  2  0  0  0  0
 35 36  1  0  0  0  0
 36 44  1  0  0  0  0
 36 37  2  0  0  0  0
  8  9  1  0  0  0  0
  9 17  1  0  0  0  0
  9 10  2  0  0  0  0
 18 19  1  0  0  0  0
 19 34  1  0  0  0  0
 19 20  2  0  0  0  0
 35 38  1  0  0  0  0
  8 11  1  0  0  0  0
 44 45  1  0  0  0  0
 23 24  1  0  0  0  0
 21 22  1  0  0  0  0
 18 21  1  0  0  0  0
 22 23  1  0  0  0  0
 34 35  1  0  0  0  0
  7  8  1  0  0  0  0
 17 18  1  0  0  0  0
  3  4  1  0  0  0  0
  3  5  1  0  0  0  0
  3  6  1  0  0  0  0
 38 41  1  0  0  0  0
 38 42  1  0  0  0  0
 38 43  1  0  0  0  0
 11 14  1  0  0  0  0
 11 15  1  0  0  0  0
 11 16  1  0  0  0  0
 45 47  1  0  0  0  0
 45 48  1  0  0  0  0
 45 49  1  0  0  0  0
 24 31  1  0  0  0  0
 24 32  1  0  0  0  0
 24 33  1  0  0  0  0
 21 27  1  0  0  0  0
 21 28  1  0  0  0  0
 22 29  1  0  0  0  0
 22 30  1  0  0  0  0
 35 40  1  0  0  0  0
  8 13  1  0  0  0  0
 18 26  1  0  0  0  0
 44 46  1  0  0  0  0
  7 12  1  0  0  0  0
 34 39  1  0  0  0  0
 17 25  1  0  0  0  0
M  END
$$$$

  -OEChem-05262214473D

 49 48  0     1  0  0  0  0  0999 V2000
   -0.0561   -5.3799    2.6949 C   0  0  0  0  0  0  0  0  0  0  0  0
    0.7325   -5.0736    3.5815 O   0  0  0  0  0  0  0  0  0  0  0  0
   -1.0067   -6.5099    2.9135 C   0  0  0  0  0  0  0  0  0  0  0  0
   -0.5910   -7.4777    2.5899 H   0  0  0  0  0  0  0  0  0  0  0  0
   -1.2629   -6.6440    3.9767 H   0  0  0  0  0  0  0  0  0  0  0  0
   -1.9729   -6.4206    2.3918 H   0  0  0  0  0  0  0  0  0  0  0  0
   -0.1735   -4.7694    1.4571 N   0  0  0  0  0  0  0  0  0  0  0  0
    0.6439   -3.6603    1.0409 C   0  0  2  0  0  0  0  0  0  0  0  0
   -0.2788   -2.5625    0.5280 C   0  0  0  0  0  0  0  0  0  0  0  0
   -1.4197   -2.7791    0.1251 O   0  0  0  0  0  0  0  0  0  0  0  0
    1.6395   -4.0779   -0.0301 C   0  0  0  0  0  0  0  0  0  0  0  0
   -0.8741   -5.1235    0.8083 H   0  0  0  0  0  0  0  0  0  0  0  0
    1.1738   -3.3062    1.9318 H   0  0  0  0  0  0  0  0  0  0  0  0
    1.1270   -4.4358   -0.9305 H   0  0  0  0  0  0  0  0  0  0  0  0
    2.2797   -3.2400   -0.3251 H   0  0  0  0  0  0  0  0  0  0  0  0
    2.2827   -4.8880    0.3303 H   0  0  0  0  0  0  0  0  0  0  0  0
    0.3351   -1.3153    0.5316 N   0  0  0  0  0  0  0  0  0  0  0  0
   -0.3268   -0.1184    0.0807 C   0  0  2  0  0  0  0  0  0  0  0  0
   -1.0479   -0.4203   -1.2294 C   0  0  0  0  0  0  0  0  0  0  0  0
   -0.5207   -1.0290   -2.1582 O   0  0  0  0  0  0  0  0  0  0  0  0
    0.6385    1.0696   -0.0313 C   0  0  0  0  0  0  0  0  0  0  0  0
    1.2026    1.5316    1.3144 C   0  0  0  0  0  0  0  0  0  0  0  0
   -0.1380    2.0784    2.4134 S   0  0  0  0  0  0  0  0  0  0  0  0
   -0.6130    3.5754    1.5198 C   0  0  0  0  0  0  0  0  0  0  0  0
    1.2790   -1.2290    0.9021 H   0  0  0  0  0  0  0  0  0  0  0  0
   -1.0849    0.1082    0.8403 H   0  0  0  0  0  0  0  0  0  0  0  0
    0.1064    1.9036   -0.5082 H   0  0  0  0  0  0  0  0  0  0  0  0
    1.4663    0.7962   -0.6982 H   0  0  0  0  0  0  0  0  0  0  0  0
    1.8920    2.3709    1.1833 H   0  0  0  0  0  0  0  0  0  0  0  0
    1.7417    0.7217    1.8146 H   0  0  0  0  0  0  0  0  0  0  0  0
   -1.4373    4.0718    2.0378 H   0  0  0  0  0  0  0  0  0  0  0  0
   -0.9324    3.3174    0.5070 H   0  0  0  0  0  0  0  0  0  0  0  0
    0.2372    4.2594    1.4632 H   0  0  0  0  0  0  0  0  0  0  0  0
   -2.3350    0.0974   -1.2517 N   0  0  0  0  0  0  0  0  0  0  0  0
   -3.2119   -0.0471   -2.3899 C   0  0  2  0  0  0  0  0  0  0  0  0
   -3.9780    1.2579   -2.5619 C   0  0  0  0  0  0  0  0  0  0  0  0
   -4.1471    2.0620   -1.6477 O   0  0  0  0  0  0  0  0  0  0  0  0
   -4.1658   -1.2175   -2.2085 C   0  0  0  0  0  0  0  0  0  0  0  0
   -2.7008    0.5640   -0.4270 H   0  0  0  0  0  0  0  0  0  0  0  0
   -2.5718   -0.2133   -3.2632 H   0  0  0  0  0  0  0  0  0  0  0  0
   -4.8154   -1.0688   -1.3381 H   0  0  0  0  0  0  0  0  0  0  0  0
   -4.8107   -1.3432   -3.0845 H   0  0  0  0  0  0  0  0  0  0  0  0
   -3.6131   -2.1506   -2.0551 H   0  0  0  0  0  0  0  0  0  0  0  0
   -4.4876    1.3987   -3.8452 N   0  0  0  0  0  0  0  0  0  0  0  0
   -5.2629    2.5464   -4.2546 C   0  0  0  0  0  0  0  0  0  0  0  0
   -4.2822    0.6914   -4.5447 H   0  0  0  0  0  0  0  0  0  0  0  0
   -6.3330    2.3376   -4.1089 H   0  0  0  0  0  0  0  0  0  0  0  0
   -4.9739    3.4186   -3.6498 H   0  0  0  0  0  0  0  0  0  0  0  0
   -5.0720    2.7575   -5.3172 H   0  0  0  0  0  0  0  0  0  0  0  0
  1  3  1  0  0  0  0
  1  7  1  0  0  0  0
  1  2  2  0  0  0  0
 35 36  1  0  0  0  0
 36 44  1  0  0  0  0
 36 37  2  0  0  0  0
  8  9  1  0  0  0  0
  9 17  1  0  0  0  0
  9 10  2  0  0  0  0
 18 19  1  0  0  0  0
 19 34  1  0  0  0  0
 19 20  2  0  0  0  0
 35 38  1  0  0  0  0
  8 11  1  0  0  0  0
 44 45  1  0  0  0  0
 23 24  1  0  0  0  0
 21 22  1  0  0  0  0
 18 21  1  0  0  0  0
 22 23  1  0  0  0  0
 34 35  1  0  0  0  0
  7  8  1  0  0  0  0
 17 18  1  0  0  0  0
  3  4  1  0  0  0  0
  3  5  1  0  0  0  0
  3  6  1  0  0  0  0
 38 41  1  0  0  0  0
 38 42  1  0  0  0  0
 38 43  1  0  0  0  0
 11 14  1  0  0  0  0
 11 15  1  0  0  0  0
 11 16  1  0  0  0  0
 45 47  1  0  0  0  0
 45 48  1  0  0  0  0
 45 49  1  0  0  0  0
 24 31  1  0  0  0  0
 24 32  1  0  0  0  0
 24 33  1  0  0  0  0
 21 27  1  0  0  0  0
 21 28  1  0  0  0  0
 22 29  1  0  0  0  0
 22 30  1  0  0  0  0
 35 40  1  0  0  0  0
  8 13  1  0  0  0  0
 18 26  1  0  0  0  0
 44 46  1  0  0  0  0
  7 12  1  0  0  0  0
 34 39  1  0  0  0  0
 17 25  1  0  0  0  0
M  END
$$$$

  -OEChem-05262214473D

 49 48  0     1  0  0  0  0  0999 V2000
   -0.0561   -5.3799    2.6949 C   0  0  0  0  0  0  0  0  0  0  0  0
    0.7325   -5.0736    3.5815 O   0  0  0  0  0  0  0  0  0  0  0  0
   -1.0067   -6.5099    2.9135 C   0  0  0  0  0  0  0  0  0  0  0  0
   -0.5910   -7.4777    2.5899 H   0  0  0  0  0  0  0  0  0  0  0  0
   -1.2629   -6.6440    3.9767 H   0  0  0  0  0  0  0  0  0  0  0  0
   -1.9729   -6.4206    2.3918 H   0  0  0  0  0  0  0  0  0  0  0  0
   -0.1735   -4.7694    1.4571 N   0  0  0  0  0  0  0  0  0  0  0  0
    0.6439   -3.6603    1.0409 C   0  0  2  0  0  0  0  0  0  0  0  0
   -0.2788   -2.5625    0.5280 C   0  0  0  0  0  0  0  0  0  0  0  0
   -1.4197   -2.7791    0.1251 O   0  0  0  0  0  0  0  0  0  0  0  0
    1.6395   -4.0779   -0.0301 C   0  0  0  0  0  0  0  0  0  0  0  0
   -0.8741   -5.1235    0.8083 H   0  0  0  0  0  0  0  0  0  0  0  0
    1.1738   -3.3062    1.9318 H   0  0  0  0  0  0  0  0  0  0  0  0
    1.1270   -4.4358   -0.9305 H   0  0  0  0  0  0  0  0  0  0  0  0
    2.2797   -3.2400   -0.3251 H   0  0  0  0  0  0  0  0  0  0  0  0
    2.2827   -4.8880    0.3303 H   0  0  0  0  0  0  0  0  0  0  0  0
    0.3351   -1.3153    0.5316 N   0  0  0  0  0  0  0  0  0  0  0  0
   -0.3268   -0.1184    0.0807 C   0  0  2  0  0  0  0  0  0  0  0  0
   -1.0479   -0.4203   -1.2294 C   0  0  0  0  0  0  0  0  0  0  0  0
   -0.6371   -1.2435   -2.0447 O   0  0  0  0  0  0  0  0  0  0  0  0
    0.6385    1.0696   -0.0313 C   0  0  0  0  0  0  0  0  0  0  0  0
    1.2026    1.5316    1.3144 C   0  0  0  0  0  0  0  0  0  0  0  0
   -0.1380    2.0784    2.4134 S   0  0  0  0  0  0  0  0  0  0  0  0
   -0.6130    3.5754    1.5198 C   0  0  0  0  0  0  0  0  0  0  0  0
    1.2790   -1.2290    0.9021 H   0  0  0  0  0  0  0  0  0  0  0  0
   -1.0849    0.1082    0.8403 H   0  0  0  0  0  0  0  0  0  0  0  0
    0.1064    1.9036   -0.5082 H   0  0  0  0  0  0  0  0  0  0  0  0
    1.4663    0.7962   -0.6982 H   0  0  0  0  0  0  0  0  0  0  0  0
    1.8920    2.3709    1.1833 H   0  0  0  0  0  0  0  0  0  0  0  0
    1.7417    0.7217    1.8146 H   0  0  0  0  0  0  0  0  0  0  0  0
   -1.4373    4.0718    2.0378 H   0  0  0  0  0  0  0  0  0  0  0  0
   -0.9324    3.3174    0.5070 H   0  0  0  0  0  0  0  0  0  0  0  0
    0.2372    4.2594    1.4632 H   0  0  0  0  0  0  0  0  0  0  0  0
   -2.1834    0.3595   -1.3955 N   0  0  0  0  0  0  0  0  0  0  0  0
   -3.0271    0.2661   -2.5637 C   0  0  2  0  0  0  0  0  0  0  0  0
   -3.4723    1.6742   -2.9362 C   0  0  0  0  0  0  0  0  0  0  0  0
   -3.4898    2.6062   -2.1348 O   0  0  0  0  0  0  0  0  0  0  0  0
   -4.2265   -0.6337   -2.3096 C   0  0  0  0  0  0  0  0  0  0  0  0
   -2.4652    0.9967   -0.6564 H   0  0  0  0  0  0  0  0  0  0  0  0
   -2.4088   -0.1468   -3.3682 H   0  0  0  0  0  0  0  0  0  0  0  0
   -4.8578   -0.2362   -1.5066 H   0  0  0  0  0  0  0  0  0  0  0  0
   -4.8499   -0.7263   -3.2051 H   0  0  0  0  0  0  0  0  0  0  0  0
   -3.9044   -1.6378   -2.0129 H   0  0  0  0  0  0  0  0  0  0  0  0
   -3.8887    1.7576   -4.2575 N   0  0  0  0  0  0  0  0  0  0  0  0
   -4.3694    2.9851   -4.8474 C   0  0  0  0  0  0  0  0  0  0  0  0
   -3.8220    0.9389   -4.8550 H   0  0  0  0  0  0  0  0  0  0  0  0
   -5.4637    3.0362   -4.7483 H   0  0  0  0  0  0  0  0  0  0  0  0
   -3.9141    3.8429   -4.3309 H   0  0  0  0  0  0  0  0  0  0  0  0
   -4.0962    3.0114   -5.9127 H   0  0  0  0  0  0  0  0  0  0  0  0
  1  3  1  0  0  0  0
  1  7  1  0  0  0  0
  1  2  2  0  0  0  0
 35 36  1  0  0  0  0
 36 44  1  0  0  0  0
 36 37  2  0  0  0  0
  8  9  1  0  0  0  0
  9 17  1  0  0  0  0
  9 10  2  0  0  0  0
 18 19  1  0  0  0  0
 19 34  1  0  0  0  0
 19 20  2  0  0  0  0
 35 38  1  0  0  0  0
  8 11  1  0  0  0  0
 44 45  1  0  0  0  0
 23 24  1  0  0  0  0
 21 22  1  0  0  0  0
 18 21  1  0  0  0  0
 22 23  1  0  0  0  0
 34 35  1  0  0  0  0
  7  8  1  0  0  0  0
 17 18  1  0  0  0  0
  3  4  1  0  0  0  0
  3  5  1  0  0  0  0
  3  6  1  0  0  0  0
 38 41  1  0  0  0  0
 38 42  1  0  0  0  0
 38 43  1  0  0  0  0
 11 14  1  0  0  0  0
 11 15  1  0  0  0  0
 11 16  1  0  0  0  0
 45 47  1  0  0  0  0
 45 48  1  0  0  0  0
 45 49  1  0  0  0  0
 24 31  1  0  0  0  0
 24 32  1  0  0  0  0
 24 33  1  0  0  0  0
 21 27  1  0  0  0  0
 21 28  1  0  0  0  0
 22 29  1  0  0  0  0
 22 30  1  0  0  0  0
 35 40  1  0  0  0  0
  8 13  1  0  0  0  0
 18 26  1  0  0  0  0
 44 46  1  0  0  0  0
  7 12  1  0  0  0  0
 34 39  1  0  0  0  0
 17 25  1  0  0  0  0
M  END
$$$$

  -OEChem-05262214473D

 49 48  0     1  0  0  0  0  0999 V2000
   -0.0561   -5.3799    2.6949 C   0  0  0  0  0  0  0  0  0  0  0  0
    0.7325   -5.0736    3.5815 O   0  0  0  0  0  0  0  0  0  0  0  0
   -1.0067   -6.5099    2.9135 C   0  0  0  0  0  0  0  0  0  0  0  0
   -0.5910   -7.4777    2.5899 H   0  0  0  0  0  0  0  0  0  0  0  0
   -1.2629   -6.6440    3.9767 H   0  0  0  0  0  0  0  0  0  0  0  0
   -1.9729   -6.4206    2.3918 H   0  0  0  0  0  0  0  0  0  0  0  0
   -0.1735   -4.7694    1.4571 N   0  0  0  0  0  0  0  0  0  0  0  0
    0.6439   -3.6603    1.0409 C   0  0  2  0  0  0  0  0  0  0  0  0
   -0.2788   -2.5625    0.5280 C   0  0  0  0  0  0  0  0  0  0  0  0
   -1.4197   -2.7791    0.1251 O   0  0  0  0  0  0  0  0  0  0  0  0
    1.6395   -4.0779   -0.0301 C   0  0  0  0  0  0  0  0  0  0  0  0
   -0.8741   -5.1235    0.8083 H   0  0  0  0  0  0  0  0  0  0  0  0
    1.1738   -3.3062    1.9318 H   0  0  0  0  0  0  0  0  0  0  0  0
    1.1270   -4.4358   -0.9305 H   0  0  0  0  0  0  0  0  0  0  0  0
    2.2797   -3.2400   -0.3251 H   0  0  0  0  0  0  0  0  0  0  0  0
    2.2827   -4.8880    0.3303 H   0  0  0  0  0  0  0  0  0  0  0  0
    0.3351   -1.3153    0.5316 N   0  0  0  0  0  0  0  0  0  0  0  0
   -0.3268   -0.1184    0.0807 C   0  0  2  0  0  0  0  0  0  0  0  0
   -1.0479   -0.4203   -1.2294 C   0  0  0  0  0  0  0  0  0  0  0  0
   -0.8031   -1.4110   -1.9148 O   0  0  0  0  0  0  0  0  0  0  0  0
    0.6385    1.0696   -0.0313 C   0  0  0  0  0  0  0  0  0  0  0  0
    1.2026    1.5316    1.3144 C   0  0  0  0  0  0  0  0  0  0  0  0
   -0.1380    2.0784    2.4134 S   0  0  0  0  0  0  0  0  0  0  0  0
   -0.6130    3.5754    1.5198 C   0  0  0  0  0  0  0  0  0  0  0  0
    1.2790   -1.2290    0.9021 H   0  0  0  0  0  0  0  0  0  0  0  0
   -1.0849    0.1082    0.8403 H   0  0  0  0  0  0  0  0  0  0  0  0
    0.1064    1.9036   -0.5082 H   0  0  0  0  0  0  0  0  0  0  0  0
    1.4663    0.7962   -0.6982 H   0  0  0  0  0  0  0  0  0  0  0  0
    1.8920    2.3709    1.1833 H   0  0  0  0  0  0  0  0  0  0  0  0
    1.7417    0.7217    1.8146 H   0  0  0  0  0  0  0  0  0  0  0  0
   -1.4373    4.0718    2.0378 H   0  0  0  0  0  0  0  0  0  0  0  0
   -0.9324    3.3174    0.5070 H   0  0  0  0  0  0  0  0  0  0  0  0
    0.2372    4.2594    1.4632 H   0  0  0  0  0  0  0  0  0  0  0  0
   -1.9713    0.5615   -1.5587 N   0  0  0  0  0  0  0  0  0  0  0  0
   -2.7701    0.5063   -2.7605 C   0  0  2  0  0  0  0  0  0  0  0  0
   -2.8722    1.9181   -3.3227 C   0  0  0  0  0  0  0  0  0  0  0  0
   -2.7090    2.9261   -2.6382 O   0  0  0  0  0  0  0  0  0  0  0  0
   -4.1501   -0.0688   -2.4818 C   0  0  0  0  0  0  0  0  0  0  0  0
   -2.1296    1.3343   -0.9188 H   0  0  0  0  0  0  0  0  0  0  0  0
   -2.2312   -0.1316   -3.4695 H   0  0  0  0  0  0  0  0  0  0  0  0
   -4.7051    0.5570   -1.7734 H   0  0  0  0  0  0  0  0  0  0  0  0
   -4.7444   -0.1365   -3.3990 H   0  0  0  0  0  0  0  0  0  0  0  0
   -4.0740   -1.0725   -2.0499 H   0  0  0  0  0  0  0  0  0  0  0  0
   -3.2093    1.9207   -4.6689 N   0  0  0  0  0  0  0  0  0  0  0  0
   -3.3785    3.1378   -5.4279 C   0  0  0  0  0  0  0  0  0  0  0  0
   -3.3067    1.0376   -5.1614 H   0  0  0  0  0  0  0  0  0  0  0  0
   -4.4361    3.4397   -5.4068 H   0  0  0  0  0  0  0  0  0  0  0  0
   -2.7612    3.9340   -4.9864 H   0  0  0  0  0  0  0  0  0  0  0  0
   -3.0668    2.9669   -6.4689 H   0  0  0  0  0  0  0  0  0  0  0  0
  1  3  1  0  0  0  0
  1  7  1  0  0  0  0
  1  2  2  0  0  0  0
 35 36  1  0  0  0  0
 36 44  1  0  0  0  0
 36 37  2  0  0  0  0
  8  9  1  0  0  0  0
  9 17  1  0  0  0  0
  9 10  2  0  0  0  0
 18 19  1  0  0  0  0
 19 34  1  0  0  0  0
 19 20  2  0  0  0  0
 35 38  1  0  0  0  0
  8 11  1  0  0  0  0
 44 45  1  0  0  0  0
 23 24  1  0  0  0  0
 21 22  1  0  0  0  0
 18 21  1  0  0  0  0
 22 23  1  0  0  0  0
 34 35  1  0  0  0  0
  7  8  1  0  0  0  0
 17 18  1  0  0  0  0
  3  4  1  0  0  0  0
  3  5  1  0  0  0  0
  3  6  1  0  0  0  0
 38 41  1  0  0  0  0
 38 42  1  0  0  0  0
 38 43  1  0  0  0  0
 11 14  1  0  0  0  0
 11 15  1  0  0  0  0
 11 16  1  0  0  0  0
 45 47  1  0  0  0  0
 45 48  1  0  0  0  0
 45 49  1  0  0  0  0
 24 31  1  0  0  0  0
 24 32  1  0  0  0  0
 24 33  1  0  0  0  0
 21 27  1  0  0  0  0
 21 28  1  0  0  0  0
 22 29  1  0  0  0  0
 22 30  1  0  0  0  0
 35 40  1  0  0  0  0
  8 13  1  0  0  0  0
 18 26  1  0  0  0  0
 44 46  1  0  0  0  0
  7 12  1  0  0  0  0
 34 39  1  0  0  0  0
 17 25  1  0  0  0  0
M  END
$$$$

  -OEChem-05262214473D

 49 48  0     1  0  0  0  0  0999 V2000
   -0.0561   -5.3799    2.6949 C   0  0  0  0  0  0  0  0  0  0  0  0
    0.7325   -5.0736    3.5815 O   0  0  0  0  0  0  0  0  0  0  0  0
   -1.0067   -6.5099    2.9135 C   0  0  0  0  0  0  0  0  0  0  0  0
   -0.5910   -7.4777    2.5899 H   0  0  0  0  0  0  0  0  0  0  0  0
   -1.2629   -6.6440    3.9767 H   0  0  0  0  0  0  0  0  0  0  0  0
   -1.9729   -6.4206    2.3918 H   0  0  0  0  0  0  0  0  0  0  0  0
   -0.1735   -4.7694    1.4571 N   0  0  0  0  0  0  0  0  0  0  0  0
    0.6439   -3.6603    1.0409 C   0  0  2  0  0  0  0  0  0  0  0  0
   -0.2788   -2.5625    0.5280 C   0  0  0  0  0  0  0  0  0  0  0  0
   -1.4197   -2.7791    0.1251 O   0  0  0  0  0  0  0  0  0  0  0  0
    1.6395   -4.0779   -0.0301 C   0  0  0  0  0  0  0  0  0  0  0  0
   -0.8741   -5.1235    0.8083 H   0  0  0  0  0  0  0  0  0  0  0  0
    1.1738   -3.3062    1.9318 H   0  0  0  0  0  0  0  0  0  0  0  0
    1.1270   -4.4358   -0.9305 H   0  0  0  0  0  0  0  0  0  0  0  0
    2.2797   -3.2400   -0.3251 H   0  0  0  0  0  0  0  0  0  0  0  0
    2.2827   -4.8880    0.3303 H   0  0  0  0  0  0  0  0  0  0  0  0
    0.3351   -1.3153    0.5316 N   0  0  0  0  0  0  0  0  0  0  0  0
   -0.3268   -0.1184    0.0807 C   0  0  2  0  0  0  0  0  0  0  0  0
   -1.3372   -0.4935   -0.9990 C   0  0  0  0  0  0  0  0  0  0  0  0
   -1.4932   -1.6458   -1.3979 O   0  0  0  0  0  0  0  0  0  0  0  0
    0.6687    0.9540   -0.3826 C   0  0  0  0  0  0  0  0  0  0  0  0
    1.5451    1.5062    0.7441 C   0  0  0  0  0  0  0  0  0  0  0  0
    0.5196    2.2943    2.0212 S   0  0  0  0  0  0  0  0  0  0  0  0
   -0.0375    3.7218    1.0636 C   0  0  0  0  0  0  0  0  0  0  0  0
    1.2790   -1.2290    0.9021 H   0  0  0  0  0  0  0  0  0  0  0  0
   -0.8820    0.2608    0.9474 H   0  0  0  0  0  0  0  0  0  0  0  0
    0.1027    1.7767   -0.8397 H   0  0  0  0  0  0  0  0  0  0  0  0
    1.3089    0.5322   -1.1681 H   0  0  0  0  0  0  0  0  0  0  0  0
    2.2443    2.2574    0.3648 H   0  0  0  0  0  0  0  0  0  0  0  0
    2.1247    0.7092    1.2191 H   0  0  0  0  0  0  0  0  0  0  0  0
   -0.6919    4.3475    1.6754 H   0  0  0  0  0  0  0  0  0  0  0  0
   -0.5887    3.3851    0.1820 H   0  0  0  0  0  0  0  0  0  0  0  0
    0.8239    4.3124    0.7425 H   0  0  0  0  0  0  0  0  0  0  0  0
   -2.0195    0.6120   -1.4864 N   0  0  0  0  0  0  0  0  0  0  0  0
   -3.0189    0.5139   -2.5242 C   0  0  2  0  0  0  0  0  0  0  0  0
   -2.8561    1.7132   -3.4488 C   0  0  0  0  0  0  0  0  0  0  0  0
   -2.3097    2.7583   -3.1018 O   0  0  0  0  0  0  0  0  0  0  0  0
   -4.4216    0.4654   -1.9388 C   0  0  0  0  0  0  0  0  0  0  0  0
   -1.8470    1.5261   -1.0787 H   0  0  0  0  0  0  0  0  0  0  0  0
   -2.8092   -0.4069   -3.0793 H   0  0  0  0  0  0  0  0  0  0  0  0
   -4.6498    1.3797   -1.3790 H   0  0  0  0  0  0  0  0  0  0  0  0
   -5.1765    0.3623   -2.7253 H   0  0  0  0  0  0  0  0  0  0  0  0
   -4.5279   -0.3806   -1.2511 H   0  0  0  0  0  0  0  0  0  0  0  0
   -3.4309    1.4948   -4.6930 N   0  0  0  0  0  0  0  0  0  0  0  0
   -3.4197    2.4875   -5.7420 C   0  0  0  0  0  0  0  0  0  0  0  0
   -3.8460    0.5912   -4.9000 H   0  0  0  0  0  0  0  0  0  0  0  0
   -4.3386    3.0897   -5.6875 H   0  0  0  0  0  0  0  0  0  0  0  0
   -2.5446    3.1422   -5.6178 H   0  0  0  0  0  0  0  0  0  0  0  0
   -3.3672    1.9867   -6.7200 H   0  0  0  0  0  0  0  0  0  0  0  0
  1  3  1  0  0  0  0
  1  7  1  0  0  0  0
  1  2  2  0  0  0  0
 35 36  1  0  0  0  0
 36 44  1  0  0  0  0
 36 37  2  0  0  0  0
  8  9  1  0  0  0  0
  9 17  1  0  0  0  0
  9 10  2  0  0  0  0
 18 19  1  0  0  0  0
 19 34  1  0  0  0  0
 19 20  2  0  0  0  0
 35 38  1  0  0  0  0
  8 11  1  0  0  0  0
 44 45  1  0  0  0  0
 23 24  1  0  0  0  0
 21 22  1  0  0  0  0
 18 21  1  0  0  0  0
 22 23  1  0  0  0  0
 34 35  1  0  0  0  0
  7  8  1  0  0  0  0
 17 18  1  0  0  0  0
  3  4  1  0  0  0  0
  3  5  1  0  0  0  0
  3  6  1  0  0  0  0
 38 41  1  0  0  0  0
 38 42  1  0  0  0  0
 38 43  1  0  0  0  0
 11 14  1  0  0  0  0
 11 15  1  0  0  0  0
 11 16  1  0  0  0  0
 45 47  1  0  0  0  0
 45 48  1  0  0  0  0
 45 49  1  0  0  0  0
 24 31  1  0  0  0  0
 24 32  1  0  0  0  0
 24 33  1  0  0  0  0
 21 27  1  0  0  0  0
 21 28  1  0  0  0  0
 22 29  1  0  0  0  0
 22 30  1  0  0  0  0
 35 40  1  0  0  0  0
  8 13  1  0  0  0  0
 18 26  1  0  0  0  0
 44 46  1  0  0  0  0
  7 12  1  0  0  0  0
 34 39  1  0  0  0  0
 17 25  1  0  0  0  0
M  END
$$$$

  -OEChem-05262214473D

 49 48  0     1  0  0  0  0  0999 V2000
   -0.0561   -5.3799    2.6949 C   0  0  0  0  0  0  0  0  0  0  0  0
    0.7325   -5.0736    3.5815 O   0  0  0  0  0  0  0  0  0  0  0  0
   -1.0067   -6.5099    2.9135 C   0  0  0  0  0  0  0  0  0  0  0  0
   -0.5910   -7.4777    2.5899 H   0  0  0  0  0  0  0  0  0  0  0  0
   -1.2629   -6.6440    3.9767 H   0  0  0  0  0  0  0  0  0  0  0  0
   -1.9729   -6.4206    2.3918 H   0  0  0  0  0  0  0  0  0  0  0  0
   -0.1735   -4.7694    1.4571 N   0  0  0  0  0  0  0  0  0  0  0  0
    0.6439   -3.6603    1.0409 C   0  0  2  0  0  0  0  0  0  0  0  0
   -0.2788   -2.5625    0.5280 C   0  0  0  0  0  0  0  0  0  0  0  0
   -1.4197   -2.7791    0.1251 O   0  0  0  0  0  0  0  0  0  0  0  0
    1.6395   -4.0779   -0.0301 C   0  0  0  0  0  0  0  0  0  0  0  0
   -0.8741   -5.1235    0.8083 H   0  0  0  0  0  0  0  0  0  0  0  0
    1.1738   -3.3062    1.9318 H   0  0  0  0  0  0  0  0  0  0  0  0
    1.1270   -4.4358   -0.9305 H   0  0  0  0  0  0  0  0  0  0  0  0
    2.2797   -3.2400   -0.3251 H   0  0  0  0  0  0  0  0  0  0  0  0
    2.2827   -4.8880    0.3303 H   0  0  0  0  0  0  0  0  0  0  0  0
    0.3351   -1.3153    0.5316 N   0  0  0  0  0  0  0  0  0  0  0  0
   -0.3268   -0.1184    0.0807 C   0  0  2  0  0  0  0  0  0  0  0  0
   -1.3372   -0.4935   -0.9990 C   0  0  0  0  0  0  0  0  0  0  0  0
   -1.6886   -1.6520   -1.2129 O   0  0  0  0  0  0  0  0  0  0  0  0
    0.6687    0.9540   -0.3826 C   0  0  0  0  0  0  0  0  0  0  0  0
    1.5451    1.5062    0.7441 C   0  0  0  0  0  0  0  0  0  0  0  0
    0.5196    2.2943    2.0212 S   0  0  0  0  0  0  0  0  0  0  0  0
   -0.0375    3.7218    1.0636 C   0  0  0  0  0  0  0  0  0  0  0  0
    1.2790   -1.2290    0.9021 H   0  0  0  0  0  0  0  0  0  0  0  0
   -0.8820    0.2608    0.9474 H   0  0  0  0  0  0  0  0  0  0  0  0
    0.1027    1.7767   -0.8397 H   0  0  0  0  0  0  0  0  0  0  0  0
    1.3089    0.5322   -1.1681 H   0  0  0  0  0  0  0  0  0  0  0  0
    2.2443    2.2574    0.3648 H   0  0  0  0  0  0  0  0  0  0  0  0
    2.1247    0.7092    1.2191 H   0  0  0  0  0  0  0  0  0  0  0  0
   -0.6919    4.3475    1.6754 H   0  0  0  0  0  0  0  0  0  0  0  0
   -0.5887    3.3851    0.1820 H   0  0  0  0  0  0  0  0  0  0  0  0
    0.8239    4.3124    0.7425 H   0  0  0  0  0  0  0  0  0  0  0  0
   -1.7746    0.6113   -1.7154 N   0  0  0  0  0  0  0  0  0  0  0  0
   -2.7239    0.5099   -2.7989 C   0  0  2  0  0  0  0  0  0  0  0  0
   -2.2938    1.4779   -3.8932 C   0  0  0  0  0  0  0  0  0  0  0  0
   -1.5772    2.4540   -3.6816 O   0  0  0  0  0  0  0  0  0  0  0  0
   -4.1368    0.8159   -2.3270 C   0  0  0  0  0  0  0  0  0  0  0  0
   -1.4523    1.5379   -1.4521 H   0  0  0  0  0  0  0  0  0  0  0  0
   -2.6655   -0.5172   -3.1754 H   0  0  0  0  0  0  0  0  0  0  0  0
   -4.2148    1.8408   -1.9462 H   0  0  0  0  0  0  0  0  0  0  0  0
   -4.8592    0.7107   -3.1432 H   0  0  0  0  0  0  0  0  0  0  0  0
   -4.4335    0.1378   -1.5196 H   0  0  0  0  0  0  0  0  0  0  0  0
   -2.8395    1.1480   -5.1259 N   0  0  0  0  0  0  0  0  0  0  0  0
   -2.5912    1.9208   -6.3204 C   0  0  0  0  0  0  0  0  0  0  0  0
   -3.4074    0.3102   -5.2128 H   0  0  0  0  0  0  0  0  0  0  0  0
   -3.3815    2.6766   -6.4397 H   0  0  0  0  0  0  0  0  0  0  0  0
   -1.6151    2.4211   -6.2370 H   0  0  0  0  0  0  0  0  0  0  0  0
   -2.5876    1.2533   -7.1947 H   0  0  0  0  0  0  0  0  0  0  0  0
  1  3  1  0  0  0  0
  1  7  1  0  0  0  0
  1  2  2  0  0  0  0
 35 36  1  0  0  0  0
 36 44  1  0  0  0  0
 36 37  2  0  0  0  0
  8  9  1  0  0  0  0
  9 17  1  0  0  0  0
  9 10  2  0  0  0  0
 18 19  1  0  0  0  0
 19 34  1  0  0  0  0
 19 20  2  0  0  0  0
 35 38  1  0  0  0  0
  8 11  1  0  0  0  0
 44 45  1  0  0  0  0
 23 24  1  0  0  0  0
 21 22  1  0  0  0  0
 18 21  1  0  0  0  0
 22 23  1  0  0  0  0
 34 35  1  0  0  0  0
  7  8  1  0  0  0  0
 17 18  1  0  0  0  0
  3  4  1  0  0  0  0
  3  5  1  0  0  0  0
  3  6  1  0  0  0  0
 38 41  1  0  0  0  0
 38 42  1  0  0  0  0
 38 43  1  0  0  0  0
 11 14  1  0  0  0  0
 11 15  1  0  0  0  0
 11 16  1  0  0  0  0
 45 47  1  0  0  0  0
 45 48  1  0  0  0  0
 45 49  1  0  0  0  0
 24 31  1  0  0  0  0
 24 32  1  0  0  0  0
 24 33  1  0  0  0  0
 21 27  1  0  0  0  0
 21 28  1  0  0  0  0
 22 29  1  0  0  0  0
 22 30  1  0  0  0  0
 35 40  1  0  0  0  0
  8 13  1  0  0  0  0
 18 26  1  0  0  0  0
 44 46  1  0  0  0  0
  7 12  1  0  0  0  0
 34 39  1  0  0  0  0
 17 25  1  0  0  0  0
M  END
$$$$

  -OEChem-05262214473D

 49 48  0     1  0  0  0  0  0999 V2000
   -0.0561   -5.3799    2.6949 C   0  0  0  0  0  0  0  0  0  0  0  0
    0.7325   -5.0736    3.5815 O   0  0  0  0  0  0  0  0  0  0  0  0
   -1.0067   -6.5099    2.9135 C   0  0  0  0  0  0  0  0  0  0  0  0
   -0.5910   -7.4777    2.5899 H   0  0  0  0  0  0  0  0  0  0  0  0
   -1.2629   -6.6440    3.9767 H   0  0  0  0  0  0  0  0  0  0  0  0
   -1.9729   -6.4206    2.3918 H   0  0  0  0  0  0  0  0  0  0  0  0
   -0.1735   -4.7694    1.4571 N   0  0  0  0  0  0  0  0  0  0  0  0
    0.6439   -3.6603    1.0409 C   0  0  2  0  0  0  0  0  0  0  0  0
   -0.2788   -2.5625    0.5280 C   0  0  0  0  0  0  0  0  0  0  0  0
   -1.4197   -2.7791    0.1251 O   0  0  0  0  0  0  0  0  0  0  0  0
    1.6395   -4.0779   -0.0301 C   0  0  0  0  0  0  0  0  0  0  0  0
   -0.8741   -5.1235    0.8083 H   0  0  0  0  0  0  0  0  0  0  0  0
    1.1738   -3.3062    1.9318 H   0  0  0  0  0  0  0  0  0  0  0  0
    1.1270   -4.4358   -0.9305 H   0  0  0  0  0  0  0  0  0  0  0  0
    2.2797   -3.2400   -0.3251 H   0  0  0  0  0  0  0  0  0  0  0  0
    2.2827   -4.8880    0.3303 H   0  0  0  0  0  0  0  0  0  0  0  0
    0.3351   -1.3153    0.5316 N   0  0  0  0  0  0  0  0  0  0  0  0
   -0.3268   -0.1184    0.0807 C   0  0  2  0  0  0  0  0  0  0  0  0
   -1.3372   -0.4935   -0.9990 C   0  0  0  0  0  0  0  0  0  0  0  0
   -1.8903   -1.5904   -1.0455 O   0  0  0  0  0  0  0  0  0  0  0  0
    0.6687    0.9540   -0.3826 C   0  0  0  0  0  0  0  0  0  0  0  0
    1.5451    1.5062    0.7441 C   0  0  0  0  0  0  0  0  0  0  0  0
    0.5196    2.2943    2.0212 S   0  0  0  0  0  0  0  0  0  0  0  0
   -0.0375    3.7218    1.0636 C   0  0  0  0  0  0  0  0  0  0  0  0
    1.2790   -1.2290    0.9021 H   0  0  0  0  0  0  0  0  0  0  0  0
   -0.8820    0.2608    0.9474 H   0  0  0  0  0  0  0  0  0  0  0  0
    0.1027    1.7767   -0.8397 H   0  0  0  0  0  0  0  0  0  0  0  0
    1.3089    0.5322   -1.1681 H   0  0  0  0  0  0  0  0  0  0  0  0
    2.2443    2.2574    0.3648 H   0  0  0  0  0  0  0  0  0  0  0  0
    2.1247    0.7092    1.2191 H   0  0  0  0  0  0  0  0  0  0  0  0
   -0.6919    4.3475    1.6754 H   0  0  0  0  0  0  0  0  0  0  0  0
   -0.5887    3.3851    0.1820 H   0  0  0  0  0  0  0  0  0  0  0  0
    0.8239    4.3124    0.7425 H   0  0  0  0  0  0  0  0  0  0  0  0
   -1.5235    0.5266   -1.9209 N   0  0  0  0  0  0  0  0  0  0  0  0
   -2.4222    0.4048   -3.0447 C   0  0  2  0  0  0  0  0  0  0  0  0
   -1.7655    1.0714   -4.2464 C   0  0  0  0  0  0  0  0  0  0  0  0
   -0.8885    1.9265   -4.1429 O   0  0  0  0  0  0  0  0  0  0  0  0
   -3.7729    1.0357   -2.7440 C   0  0  0  0  0  0  0  0  0  0  0  0
   -1.0451    1.4129   -1.7897 H   0  0  0  0  0  0  0  0  0  0  0  0
   -2.5408   -0.6665   -3.2402 H   0  0  0  0  0  0  0  0  0  0  0  0
   -3.6741    2.1092   -2.5455 H   0  0  0  0  0  0  0  0  0  0  0  0
   -4.4624    0.9175   -3.5864 H   0  0  0  0  0  0  0  0  0  0  0  0
   -4.2303    0.5753   -1.8617 H   0  0  0  0  0  0  0  0  0  0  0  0
   -2.3043    0.6304   -5.4469 N   0  0  0  0  0  0  0  0  0  0  0  0
   -1.8579    1.1225   -6.7293 C   0  0  0  0  0  0  0  0  0  0  0  0
   -3.0152   -0.0951   -5.4390 H   0  0  0  0  0  0  0  0  0  0  0  0
   -2.4848    1.9733   -7.0345 H   0  0  0  0  0  0  0  0  0  0  0  0
   -0.8101    1.4482   -6.6524 H   0  0  0  0  0  0  0  0  0  0  0  0
   -1.9386    0.3206   -7.4780 H   0  0  0  0  0  0  0  0  0  0  0  0
  1  3  1  0  0  0  0
  1  7  1  0  0  0  0
  1  2  2  0  0  0  0
 35 36  1  0  0  0  0
 36 44  1  0  0  0  0
 36 37  2  0  0  0  0
  8  9  1  0  0  0  0
  9 17  1  0  0  0  0
  9 10  2  0  0  0  0
 18 19  1  0  0  0  0
 19 34  1  0  0  0  0
 19 20  2  0  0  0  0
 35 38  1  0  0  0  0
  8 11  1  0  0  0  0
 44 45  1  0  0  0  0
 23 24  1  0  0  0  0
 21 22  1  0  0  0  0
 18 21  1  0  0  0  0
 22 23  1  0  0  0  0
 34 35  1  0  0  0  0
  7  8  1  0  0  0  0
 17 18  1  0  0  0  0
  3  4  1  0  0  0  0
  3  5  1  0  0  0  0
  3  6  1  0  0  0  0
 38 41  1  0  0  0  0
 38 42  1  0  0  0  0
 38 43  1  0  0  0  0
 11 14  1  0  0  0  0
 11 15  1  0  0  0  0
 11 16  1  0  0  0  0
 45 47  1  0  0  0  0
 45 48  1  0  0  0  0
 45 49  1  0  0  0  0
 24 31  1  0  0  0  0
 24 32  1  0  0  0  0
 24 33  1  0  0  0  0
 21 27  1  0  0  0  0
 21 28  1  0  0  0  0
 22 29  1  0  0  0  0
 22 30  1  0  0  0  0
 35 40  1  0  0  0  0
  8 13  1  0  0  0  0
 18 26  1  0  0  0  0
 44 46  1  0  0  0  0
  7 12  1  0  0  0  0
 34 39  1  0  0  0  0
 17 25  1  0  0  0  0
M  END
$$$$

  -OEChem-05262214473D

 49 48  0     1  0  0  0  0  0999 V2000
   -0.0561   -5.3799    2.6949 C   0  0  0  0  0  0  0  0  0  0  0  0
    0.7325   -5.0736    3.5815 O   0  0  0  0  0  0  0  0  0  0  0  0
   -1.0067   -6.5099    2.9135 C   0  0  0  0  0  0  0  0  0  0  0  0
   -0.5910   -7.4777    2.5899 H   0  0  0  0  0  0  0  0  0  0  0  0
   -1.2629   -6.6440    3.9767 H   0  0  0  0  0  0  0  0  0  0  0  0
   -1.9729   -6.4206    2.3918 H   0  0  0  0  0  0  0  0  0  0  0  0
   -0.1735   -4.7694    1.4571 N   0  0  0  0  0  0  0  0  0  0  0  0
    0.6439   -3.6603    1.0409 C   0  0  2  0  0  0  0  0  0  0  0  0
   -0.2788   -2.5625    0.5280 C   0  0  0  0  0  0  0  0  0  0  0  0
   -1.4197   -2.7791    0.1251 O   0  0  0  0  0  0  0  0  0  0  0  0
    1.6395   -4.0779   -0.0301 C   0  0  0  0  0  0  0  0  0  0  0  0
   -0.8741   -5.1235    0.8083 H   0  0  0  0  0  0  0  0  0  0  0  0
    1.1738   -3.3062    1.9318 H   0  0  0  0  0  0  0  0  0  0  0  0
    1.1270   -4.4358   -0.9305 H   0  0  0  0  0  0  0  0  0  0  0  0
    2.2797   -3.2400   -0.3251 H   0  0  0  0  0  0  0  0  0  0  0  0
    2.2827   -4.8880    0.3303 H   0  0  0  0  0  0  0  0  0  0  0  0
    0.3351   -1.3153    0.5316 N   0  0  0  0  0  0  0  0  0  0  0  0
   -0.3268   -0.1184    0.0807 C   0  0  2  0  0  0  0  0  0  0  0  0
   -1.3372   -0.4935   -0.9990 C   0  0  0  0  0  0  0  0  0  0  0  0
   -2.0845   -1.4653   -0.9072 O   0  0  0  0  0  0  0  0  0  0  0  0
    0.6687    0.9540   -0.3826 C   0  0  0  0  0  0  0  0  0  0  0  0
    1.5451    1.5062    0.7441 C   0  0  0  0  0  0  0  0  0  0  0  0
    0.5196    2.2943    2.0212 S   0  0  0  0  0  0  0  0  0  0  0  0
   -0.0375    3.7218    1.0636 C   0  0  0  0  0  0  0  0  0  0  0  0
    1.2790   -1.2290    0.9021 H   0  0  0  0  0  0  0  0  0  0  0  0
   -0.8820    0.2608    0.9474 H   0  0  0  0  0  0  0  0  0  0  0  0
    0.1027    1.7767   -0.8397 H   0  0  0  0  0  0  0  0  0  0  0  0
    1.3089    0.5322   -1.1681 H   0  0  0  0  0  0  0  0  0  0  0  0
    2.2443    2.2574    0.3648 H   0  0  0  0  0  0  0  0  0  0  0  0
    2.1247    0.7092    1.2191 H   0  0  0  0  0  0  0  0  0  0  0  0
   -0.6919    4.3475    1.6754 H   0  0  0  0  0  0  0  0  0  0  0  0
   -0.5887    3.3851    0.1820 H   0  0  0  0  0  0  0  0  0  0  0  0
    0.8239    4.3124    0.7425 H   0  0  0  0  0  0  0  0  0  0  0  0
   -1.2835    0.3635   -2.0888 N   0  0  0  0  0  0  0  0  0  0  0  0
   -2.1344    0.2060   -3.2450 C   0  0  2  0  0  0  0  0  0  0  0  0
   -1.3072    0.5214   -4.4842 C   0  0  0  0  0  0  0  0  0  0  0  0
   -0.2905    1.2117   -4.4542 O   0  0  0  0  0  0  0  0  0  0  0  0
   -3.3545    1.1099   -3.1613 C   0  0  0  0  0  0  0  0  0  0  0  0
   -0.6532    1.1597   -2.0685 H   0  0  0  0  0  0  0  0  0  0  0  0
   -2.4436   -0.8446   -3.2693 H   0  0  0  0  0  0  0  0  0  0  0  0
   -3.0645    2.1667   -3.1360 H   0  0  0  0  0  0  0  0  0  0  0  0
   -4.0130    0.9685   -4.0247 H   0  0  0  0  0  0  0  0  0  0  0  0
   -3.9322    0.9019   -2.2542 H   0  0  0  0  0  0  0  0  0  0  0  0
   -1.8617   -0.0227   -5.6343 N   0  0  0  0  0  0  0  0  0  0  0  0
   -1.2699    0.1470   -6.9407 C   0  0  0  0  0  0  0  0  0  0  0  0
   -2.6963   -0.5972   -5.5630 H   0  0  0  0  0  0  0  0  0  0  0  0
   -1.7096    1.0278   -7.4315 H   0  0  0  0  0  0  0  0  0  0  0  0
   -0.1842    0.2898   -6.8356 H   0  0  0  0  0  0  0  0  0  0  0  0
   -1.4647   -0.7477   -7.5504 H   0  0  0  0  0  0  0  0  0  0  0  0
  1  3  1  0  0  0  0
  1  7  1  0  0  0  0
  1  2  2  0  0  0  0
 35 36  1  0  0  0  0
 36 44  1  0  0  0  0
 36 37  2  0  0  0  0
  8  9  1  0  0  0  0
  9 17  1  0  0  0  0
  9 10  2  0  0  0  0
 18 19  1  0  0  0  0
 19 34  1  0  0  0  0
 19 20  2  0  0  0  0
 35 38  1  0  0  0  0
  8 11  1  0  0  0  0
 44 45  1  0  0  0  0
 23 24  1  0  0  0  0
 21 22  1  0  0  0  0
 18 21  1  0  0  0  0
 22 23  1  0  0  0  0
 34 35  1  0  0  0  0
  7  8  1  0  0  0  0
 17 18  1  0  0  0  0
  3  4  1  0  0  0  0
  3  5  1  0  0  0  0
  3  6  1  0  0  0  0
 38 41  1  0  0  0  0
 38 42  1  0  0  0  0
 38 43  1  0  0  0  0
 11 14  1  0  0  0  0
 11 15  1  0  0  0  0
 11 16  1  0  0  0  0
 45 47  1  0  0  0  0
 45 48  1  0  0  0  0
 45 49  1  0  0  0  0
 24 31  1  0  0  0  0
 24 32  1  0  0  0  0
 24 33  1  0  0  0  0
 21 27  1  0  0  0  0
 21 28  1  0  0  0  0
 22 29  1  0  0  0  0
 22 30  1  0  0  0  0
 35 40  1  0  0  0  0
  8 13  1  0  0  0  0
 18 26  1  0  0  0  0
 44 46  1  0  0  0  0
  7 12  1  0  0  0  0
 34 39  1  0  0  0  0
 17 25  1  0  0  0  0
M  END
$$$$

  -OEChem-05262214473D

 49 48  0     1  0  0  0  0  0999 V2000
   -0.0561   -5.3799    2.6949 C   0  0  0  0  0  0  0  0  0  0  0  0
    0.7325   -5.0736    3.5815 O   0  0  0  0  0  0  0  0  0  0  0  0
   -1.0067   -6.5099    2.9135 C   0  0  0  0  0  0  0  0  0  0  0  0
   -0.5910   -7.4777    2.5899 H   0  0  0  0  0  0  0  0  0  0  0  0
   -1.2629   -6.6440    3.9767 H   0  0  0  0  0  0  0  0  0  0  0  0
   -1.9729   -6.4206    2.3918 H   0  0  0  0  0  0  0  0  0  0  0  0
   -0.1735   -4.7694    1.4571 N   0  0  0  0  0  0  0  0  0  0  0  0
    0.6439   -3.6603    1.0409 C   0  0  2  0  0  0  0  0  0  0  0  0
   -0.2788   -2.5625    0.5280 C   0  0  0  0  0  0  0  0  0  0  0  0
   -1.4197   -2.7791    0.1251 O   0  0  0  0  0  0  0  0  0  0  0  0
    1.6395   -4.0779   -0.0301 C   0  0  0  0  0  0  0  0  0  0  0  0
   -0.8741   -5.1235    0.8083 H   0  0  0  0  0  0  0  0  0  0  0  0
    1.1738   -3.3062    1.9318 H   0  0  0  0  0  0  0  0  0  0  0  0
    1.1270   -4.4358   -0.9305 H   0  0  0  0  0  0  0  0  0  0  0  0
    2.2797   -3.2400   -0.3251 H   0  0  0  0  0  0  0  0  0  0  0  0
    2.2827   -4.8880    0.3303 H   0  0  0  0  0  0  0  0  0  0  0  0
    0.3351   -1.3153    0.5316 N   0  0  0  0  0  0  0  0  0  0  0  0
   -0.3268   -0.1184    0.0807 C   0  0  2  0  0  0  0  0  0  0  0  0
   -1.3372   -0.4935   -0.9990 C   0  0  0  0  0  0  0  0  0  0  0  0
   -2.2580   -1.2852   -0.8075 O   0  0  0  0  0  0  0  0  0  0  0  0
    0.6687    0.9540   -0.3826 C   0  0  0  0  0  0  0  0  0  0  0  0
    1.5451    1.5062    0.7441 C   0  0  0  0  0  0  0  0  0  0  0  0
    0.5196    2.2943    2.0212 S   0  0  0  0  0  0  0  0  0  0  0  0
   -0.0375    3.7218    1.0636 C   0  0  0  0  0  0  0  0  0  0  0  0
    1.2790   -1.2290    0.9021 H   0  0  0  0  0  0  0  0  0  0  0  0
   -0.8820    0.2608    0.9474 H   0  0  0  0  0  0  0  0  0  0  0  0
    0.1027    1.7767   -0.8397 H   0  0  0  0  0  0  0  0  0  0  0  0
    1.3089    0.5322   -1.1681 H   0  0  0  0  0  0  0  0  0  0  0  0
    2.2443    2.2574    0.3648 H   0  0  0  0  0  0  0  0  0  0  0  0
    2.1247    0.7092    1.2191 H   0  0  0  0  0  0  0  0  0  0  0  0
   -0.6919    4.3475    1.6754 H   0  0  0  0  0  0  0  0  0  0  0  0
   -0.5887    3.3851    0.1820 H   0  0  0  0  0  0  0  0  0  0  0  0
    0.8239    4.3124    0.7425 H   0  0  0  0  0  0  0  0  0  0  0  0
   -1.0709    0.1333   -2.2079 N   0  0  0  0  0  0  0  0  0  0  0  0
   -1.8801   -0.0731   -3.3860 C   0  0  2  0  0  0  0  0  0  0  0  0
   -0.9501   -0.1345   -4.5905 C   0  0  0  0  0  0  0  0  0  0  0  0
    0.1760    0.3584   -4.5943 O   0  0  0  0  0  0  0  0  0  0  0  0
   -2.9102    1.0334   -3.5505 C   0  0  0  0  0  0  0  0  0  0  0  0
   -0.3033    0.7956   -2.2695 H   0  0  0  0  0  0  0  0  0  0  0  0
   -2.3805   -1.0395   -3.2606 H   0  0  0  0  0  0  0  0  0  0  0  0
   -2.4276    2.0093   -3.6774 H   0  0  0  0  0  0  0  0  0  0  0  0
   -3.5417    0.8604   -4.4282 H   0  0  0  0  0  0  0  0  0  0  0  0
   -3.5593    1.0956   -2.6704 H   0  0  0  0  0  0  0  0  0  0  0  0
   -1.5418   -0.7667   -5.6751 N   0  0  0  0  0  0  0  0  0  0  0  0
   -0.8670   -0.9392   -6.9403 C   0  0  0  0  0  0  0  0  0  0  0  0
   -2.4723   -1.1619   -5.5764 H   0  0  0  0  0  0  0  0  0  0  0  0
   -1.1087   -0.0955   -7.6035 H   0  0  0  0  0  0  0  0  0  0  0  0
    0.2198   -0.9752   -6.7742 H   0  0  0  0  0  0  0  0  0  0  0  0
   -1.1979   -1.8788   -7.4070 H   0  0  0  0  0  0  0  0  0  0  0  0
  1  3  1  0  0  0  0
  1  7  1  0  0  0  0
  1  2  2  0  0  0  0
 35 36  1  0  0  0  0
 36 44  1  0  0  0  0
 36 37  2  0  0  0  0
  8  9  1  0  0  0  0
  9 17  1  0  0  0  0
  9 10  2  0  0  0  0
 18 19  1  0  0  0  0
 19 34  1  0  0  0  0
 19 20  2  0  0  0  0
 35 38  1  0  0  0  0
  8 11  1  0  0  0  0
 44 45  1  0  0  0  0
 23 24  1  0  0  0  0
 21 22  1  0  0  0  0
 18 21  1  0  0  0  0
 22 23  1  0  0  0  0
 34 35  1  0  0  0  0
  7  8  1  0  0  0  0
 17 18  1  0  0  0  0
  3  4  1  0  0  0  0
  3  5  1  0  0  0  0
  3  6  1  0  0  0  0
 38 41  1  0  0  0  0
 38 42  1  0  0  0  0
 38 43  1  0  0  0  0
 11 14  1  0  0  0  0
 11 15  1  0  0  0  0
 11 16  1  0  0  0  0
 45 47  1  0  0  0  0
 45 48  1  0  0  0  0
 45 49  1  0  0  0  0
 24 31  1  0  0  0  0
 24 32  1  0  0  0  0
 24 33  1  0  0  0  0
 21 27  1  0  0  0  0
 21 28  1  0  0  0  0
 22 29  1  0  0  0  0
 22 30  1  0  0  0  0
 35 40  1  0  0  0  0
  8 13  1  0  0  0  0
 18 26  1  0  0  0  0
 44 46  1  0  0  0  0
  7 12  1  0  0  0  0
 34 39  1  0  0  0  0
 17 25  1  0  0  0  0
M  END
$$$$

  -OEChem-05262214473D

 49 48  0     1  0  0  0  0  0999 V2000
   -0.0561   -5.3799    2.6949 C   0  0  0  0  0  0  0  0  0  0  0  0
    0.7325   -5.0736    3.5815 O   0  0  0  0  0  0  0  0  0  0  0  0
   -1.0067   -6.5099    2.9135 C   0  0  0  0  0  0  0  0  0  0  0  0
   -0.5910   -7.4777    2.5899 H   0  0  0  0  0  0  0  0  0  0  0  0
   -1.2629   -6.6440    3.9767 H   0  0  0  0  0  0  0  0  0  0  0  0
   -1.9729   -6.4206    2.3918 H   0  0  0  0  0  0  0  0  0  0  0  0
   -0.1735   -4.7694    1.4571 N   0  0  0  0  0  0  0  0  0  0  0  0
    0.6439   -3.6603    1.0409 C   0  0  2  0  0  0  0  0  0  0  0  0
   -0.2788   -2.5625    0.5280 C   0  0  0  0  0  0  0  0  0  0  0  0
   -1.4197   -2.7791    0.1251 O   0  0  0  0  0  0  0  0  0  0  0  0
    1.6395   -4.0779   -0.0301 C   0  0  0  0  0  0  0  0  0  0  0  0
   -0.8741   -5.1235    0.8083 H   0  0  0  0  0  0  0  0  0  0  0  0
    1.1738   -3.3062    1.9318 H   0  0  0  0  0  0  0  0  0  0  0  0
    1.1270   -4.4358   -0.9305 H   0  0  0  0  0  0  0  0  0  0  0  0
    2.2797   -3.2400   -0.3251 H   0  0  0  0  0  0  0  0  0  0  0  0
    2.2827   -4.8880    0.3303 H   0  0  0  0  0  0  0  0  0  0  0  0
    0.3351   -1.3153    0.5316 N   0  0  0  0  0  0  0  0  0  0  0  0
   -0.3268   -0.1184    0.0807 C   0  0  2  0  0  0  0  0  0  0  0  0
   -1.3372   -0.4935   -0.9990 C   0  0  0  0  0  0  0  0  0  0  0  0
   -2.3989   -1.0623   -0.7530 O   0  0  0  0  0  0  0  0  0  0  0  0
    0.6687    0.9540   -0.3826 C   0  0  0  0  0  0  0  0  0  0  0  0
    1.5451    1.5062    0.7441 C   0  0  0  0  0  0  0  0  0  0  0  0
    0.5196    2.2943    2.0212 S   0  0  0  0  0  0  0  0  0  0  0  0
   -0.0375    3.7218    1.0636 C   0  0  0  0  0  0  0  0  0  0  0  0
    1.2790   -1.2290    0.9021 H   0  0  0  0  0  0  0  0  0  0  0  0
   -0.8820    0.2608    0.9474 H   0  0  0  0  0  0  0  0  0  0  0  0
    0.1027    1.7767   -0.8397 H   0  0  0  0  0  0  0  0  0  0  0  0
    1.3089    0.5322   -1.1681 H   0  0  0  0  0  0  0  0  0  0  0  0
    2.2443    2.2574    0.3648 H   0  0  0  0  0  0  0  0  0  0  0  0
    2.1247    0.7092    1.2191 H   0  0  0  0  0  0  0  0  0  0  0  0
   -0.6919    4.3475    1.6754 H   0  0  0  0  0  0  0  0  0  0  0  0
   -0.5887    3.3851    0.1820 H   0  0  0  0  0  0  0  0  0  0  0  0
    0.8239    4.3124    0.7425 H   0  0  0  0  0  0  0  0  0  0  0  0
   -0.9000   -0.1485   -2.2698 N   0  0  0  0  0  0  0  0  0  0  0  0
   -1.6766   -0.4135   -3.4582 C   0  0  2  0  0  0  0  0  0  0  0  0
   -0.7185   -0.8517   -4.5580 C   0  0  0  0  0  0  0  0  0  0  0  0
    0.4792   -0.5753   -4.5536 O   0  0  0  0  0  0  0  0  0  0  0  0
   -2.4704    0.8114   -3.8850 C   0  0  0  0  0  0  0  0  0  0  0  0
   -0.0192    0.3454   -2.3789 H   0  0  0  0  0  0  0  0  0  0  0  0
   -2.3558   -1.2378   -3.2149 H   0  0  0  0  0  0  0  0  0  0  0  0
   -1.8067    1.6479   -4.1328 H   0  0  0  0  0  0  0  0  0  0  0  0
   -3.0805    0.6004   -4.7695 H   0  0  0  0  0  0  0  0  0  0  0  0
   -3.1373    1.1430   -3.0818 H   0  0  0  0  0  0  0  0  0  0  0  0
   -1.3666   -1.5509   -5.5666 N   0  0  0  0  0  0  0  0  0  0  0  0
   -0.6769   -2.0622   -6.7281 C   0  0  0  0  0  0  0  0  0  0  0  0
   -2.3586   -1.7507   -5.4783 H   0  0  0  0  0  0  0  0  0  0  0  0
   -0.7232   -1.3202   -7.5388 H   0  0  0  0  0  0  0  0  0  0  0  0
    0.3744   -2.2606   -6.4723 H   0  0  0  0  0  0  0  0  0  0  0  0
   -1.1565   -2.9956   -7.0577 H   0  0  0  0  0  0  0  0  0  0  0  0
  1  3  1  0  0  0  0
  1  7  1  0  0  0  0
  1  2  2  0  0  0  0
 35 36  1  0  0  0  0
 36 44  1  0  0  0  0
 36 37  2  0  0  0  0
  8  9  1  0  0  0  0
  9 17  1  0  0  0  0
  9 10  2  0  0  0  0
 18 19  1  0  0  0  0
 19 34  1  0  0  0  0
 19 20  2  0  0  0  0
 35 38  1  0  0  0  0
  8 11  1  0  0  0  0
 44 45  1  0  0  0  0
 23 24  1  0  0  0  0
 21 22  1  0  0  0  0
 18 21  1  0  0  0  0
 22 23  1  0  0  0  0
 34 35  1  0  0  0  0
  7  8  1  0  0  0  0
 17 18  1  0  0  0  0
  3  4  1  0  0  0  0
  3  5  1  0  0  0  0
  3  6  1  0  0  0  0
 38 41  1  0  0  0  0
 38 42  1  0  0  0  0
 38 43  1  0  0  0  0
 11 14  1  0  0  0  0
 11 15  1  0  0  0  0
 11 16  1  0  0  0  0
 45 47  1  0  0  0  0
 45 48  1  0  0  0  0
 45 49  1  0  0  0  0
 24 31  1  0  0  0  0
 24 32  1  0  0  0  0
 24 33  1  0  0  0  0
 21 27  1  0  0  0  0
 21 28  1  0  0  0  0
 22 29  1  0  0  0  0
 22 30  1  0  0  0  0
 35 40  1  0  0  0  0
  8 13  1  0  0  0  0
 18 26  1  0  0  0  0
 44 46  1  0  0  0  0
  7 12  1  0  0  0  0
 34 39  1  0  0  0  0
 17 25  1  0  0  0  0
M  END
$$$$

  -OEChem-05262214473D

 49 48  0     1  0  0  0  0  0999 V2000
   -0.0561   -5.3799    2.6949 C   0  0  0  0  0  0  0  0  0  0  0  0
    0.7325   -5.0736    3.5815 O   0  0  0  0  0  0  0  0  0  0  0  0
   -1.0067   -6.5099    2.9135 C   0  0  0  0  0  0  0  0  0  0  0  0
   -0.5910   -7.4777    2.5899 H   0  0  0  0  0  0  0  0  0  0  0  0
   -1.2629   -6.6440    3.9767 H   0  0  0  0  0  0  0  0  0  0  0  0
   -1.9729   -6.4206    2.3918 H   0  0  0  0  0  0  0  0  0  0  0  0
   -0.1735   -4.7694    1.4571 N   0  0  0  0  0  0  0  0  0  0  0  0
    0.6439   -3.6603    1.0409 C   0  0  2  0  0  0  0  0  0  0  0  0
   -0.2788   -2.5625    0.5280 C   0  0  0  0  0  0  0  0  0  0  0  0
   -1.4197   -2.7791    0.1251 O   0  0  0  0  0  0  0  0  0  0  0  0
    1.6395   -4.0779   -0.0301 C   0  0  0  0  0  0  0  0  0  0  0  0
   -0.8741   -5.1235    0.8083 H   0  0  0  0  0  0  0  0  0  0  0  0
    1.1738   -3.3062    1.9318 H   0  0  0  0  0  0  0  0  0  0  0  0
    1.1270   -4.4358   -0.9305 H   0  0  0  0  0  0  0  0  0  0  0  0
    2.2797   -3.2400   -0.3251 H   0  0  0  0  0  0  0  0  0  0  0  0
    2.2827   -4.8880    0.3303 H   0  0  0  0  0  0  0  0  0  0  0  0
    0.3351   -1.3153    0.5316 N   0  0  0  0  0  0  0  0  0  0  0  0
   -0.3268   -0.1184    0.0807 C   0  0  2  0  0  0  0  0  0  0  0  0
   -1.3372   -0.4935   -0.9990 C   0  0  0  0  0  0  0  0  0  0  0  0
   -2.4977   -0.8119   -0.7476 O   0  0  0  0  0  0  0  0  0  0  0  0
    0.6687    0.9540   -0.3826 C   0  0  0  0  0  0  0  0  0  0  0  0
    1.5451    1.5062    0.7441 C   0  0  0  0  0  0  0  0  0  0  0  0
    0.5196    2.2943    2.0212 S   0  0  0  0  0  0  0  0  0  0  0  0
   -0.0375    3.7218    1.0636 C   0  0  0  0  0  0  0  0  0  0  0  0
    1.2790   -1.2290    0.9021 H   0  0  0  0  0  0  0  0  0  0  0  0
   -0.8820    0.2608    0.9474 H   0  0  0  0  0  0  0  0  0  0  0  0
    0.1027    1.7767   -0.8397 H   0  0  0  0  0  0  0  0  0  0  0  0
    1.3089    0.5322   -1.1681 H   0  0  0  0  0  0  0  0  0  0  0  0
    2.2443    2.2574    0.3648 H   0  0  0  0  0  0  0  0  0  0  0  0
    2.1247    0.7092    1.2191 H   0  0  0  0  0  0  0  0  0  0  0  0
   -0.6919    4.3475    1.6754 H   0  0  0  0  0  0  0  0  0  0  0  0
   -0.5887    3.3851    0.1820 H   0  0  0  0  0  0  0  0  0  0  0  0
    0.8239    4.3124    0.7425 H   0  0  0  0  0  0  0  0  0  0  0  0
   -0.7827   -0.4626   -2.2705 N   0  0  0  0  0  0  0  0  0  0  0  0
   -1.5378   -0.7919   -3.4566 C   0  0  2  0  0  0  0  0  0  0  0  0
   -0.6283   -1.5813   -4.3889 C   0  0  0  0  0  0  0  0  0  0  0  0
    0.5985   -1.5257   -4.3351 O   0  0  0  0  0  0  0  0  0  0  0  0
   -2.0649    0.4591   -4.1421 C   0  0  0  0  0  0  0  0  0  0  0  0
    0.1796   -0.1603   -2.3893 H   0  0  0  0  0  0  0  0  0  0  0  0
   -2.3712   -1.4261   -3.1351 H   0  0  0  0  0  0  0  0  0  0  0  0
   -1.2442    1.1069   -4.4713 H   0  0  0  0  0  0  0  0  0  0  0  0
   -2.6610    0.2064   -5.0251 H   0  0  0  0  0  0  0  0  0  0  0  0
   -2.6947    1.0409   -3.4605 H   0  0  0  0  0  0  0  0  0  0  0  0
   -1.3478   -2.3219   -5.3163 N   0  0  0  0  0  0  0  0  0  0  0  0
   -0.7125   -3.1453   -6.3185 C   0  0  0  0  0  0  0  0  0  0  0  0
   -2.3628   -2.3234   -5.2754 H   0  0  0  0  0  0  0  0  0  0  0  0
   -0.5792   -2.5626   -7.2419 H   0  0  0  0  0  0  0  0  0  0  0  0
    0.2690   -3.4787   -5.9505 H   0  0  0  0  0  0  0  0  0  0  0  0
   -1.3434   -4.0221   -6.5262 H   0  0  0  0  0  0  0  0  0  0  0  0
  1  3  1  0  0  0  0
  1  7  1  0  0  0  0
  1  2  2  0  0  0  0
 35 36  1  0  0  0  0
 36 44  1  0  0  0  0
 36 37  2  0  0  0  0
  8  9  1  0  0  0  0
  9 17  1  0  0  0  0
  9 10  2  0  0  0  0
 18 19  1  0  0  0  0
 19 34  1  0  0  0  0
 19 20  2  0  0  0  0
 35 38  1  0  0  0  0
  8 11  1  0  0  0  0
 44 45  1  0  0  0  0
 23 24  1  0  0  0  0
 21 22  1  0  0  0  0
 18 21  1  0  0  0  0
 22 23  1  0  0  0  0
 34 35  1  0  0  0  0
  7  8  1  0  0  0  0
 17 18  1  0  0  0  0
  3  4  1  0  0  0  0
  3  5  1  0  0  0  0
  3  6  1  0  0  0  0
 38 41  1  0  0  0  0
 38 42  1  0  0  0  0
 38 43  1  0  0  0  0
 11 14  1  0  0  0  0
 11 15  1  0  0  0  0
 11 16  1  0  0  0  0
 45 47  1  0  0  0  0
 45 48  1  0  0  0  0
 45 49  1  0  0  0  0
 24 31  1  0  0  0  0
 24 32  1  0  0  0  0
 24 33  1  0  0  0  0
 21 27  1  0  0  0  0
 21 28  1  0  0  0  0
 22 29  1  0  0  0  0
 22 30  1  0  0  0  0
 35 40  1  0  0  0  0
  8 13  1  0  0  0  0
 18 26  1  0  0  0  0
 44 46  1  0  0  0  0
  7 12  1  0  0  0  0
 34 39  1  0  0  0  0
 17 25  1  0  0  0  0
M  END
$$$$

  -OEChem-05262214473D

 49 48  0     1  0  0  0  0  0999 V2000
   -0.0561   -5.3799    2.6949 C   0  0  0  0  0  0  0  0  0  0  0  0
    0.7325   -5.0736    3.5815 O   0  0  0  0  0  0  0  0  0  0  0  0
   -1.0067   -6.5099    2.9135 C   0  0  0  0  0  0  0  0  0  0  0  0
   -0.5910   -7.4777    2.5899 H   0  0  0  0  0  0  0  0  0  0  0  0
   -1.2629   -6.6440    3.9767 H   0  0  0  0  0  0  0  0  0  0  0  0
   -1.9729   -6.4206    2.3918 H   0  0  0  0  0  0  0  0  0  0  0  0
   -0.1735   -4.7694    1.4571 N   0  0  0  0  0  0  0  0  0  0  0  0
    0.6439   -3.6603    1.0409 C   0  0  2  0  0  0  0  0  0  0  0  0
   -0.2788   -2.5625    0.5280 C   0  0  0  0  0  0  0  0  0  0  0  0
   -1.4197   -2.7791    0.1251 O   0  0  0  0  0  0  0  0  0  0  0  0
    1.6395   -4.0779   -0.0301 C   0  0  0  0  0  0  0  0  0  0  0  0
   -0.8741   -5.1235    0.8083 H   0  0  0  0  0  0  0  0  0  0  0  0
    1.1738   -3.3062    1.9318 H   0  0  0  0  0  0  0  0  0  0  0  0
    1.1270   -4.4358   -0.9305 H   0  0  0  0  0  0  0  0  0  0  0  0
    2.2797   -3.2400   -0.3251 H   0  0  0  0  0  0  0  0  0  0  0  0
    2.2827   -4.8880    0.3303 H   0  0  0  0  0  0  0  0  0  0  0  0
    0.3351   -1.3153    0.5316 N   0  0  0  0  0  0  0  0  0  0  0  0
   -0.3268   -0.1184    0.0807 C   0  0  2  0  0  0  0  0  0  0  0  0
   -1.3372   -0.4935   -0.9990 C   0  0  0  0  0  0  0  0  0  0  0  0
   -2.5476   -0.5510   -0.7916 O   0  0  0  0  0  0  0  0  0  0  0  0
    0.6687    0.9540   -0.3826 C   0  0  0  0  0  0  0  0  0  0  0  0
    1.5451    1.5062    0.7441 C   0  0  0  0  0  0  0  0  0  0  0  0
    0.5196    2.2943    2.0212 S   0  0  0  0  0  0  0  0  0  0  0  0
   -0.0375    3.7218    1.0636 C   0  0  0  0  0  0  0  0  0  0  0  0
    1.2790   -1.2290    0.9021 H   0  0  0  0  0  0  0  0  0  0  0  0
   -0.8820    0.2608    0.9474 H   0  0  0  0  0  0  0  0  0  0  0  0
    0.1027    1.7767   -0.8397 H   0  0  0  0  0  0  0  0  0  0  0  0
    1.3089    0.5322   -1.1681 H   0  0  0  0  0  0  0  0  0  0  0  0
    2.2443    2.2574    0.3648 H   0  0  0  0  0  0  0  0  0  0  0  0
    2.1247    0.7092    1.2191 H   0  0  0  0  0  0  0  0  0  0  0  0
   -0.6919    4.3475    1.6754 H   0  0  0  0  0  0  0  0  0  0  0  0
   -0.5887    3.3851    0.1820 H   0  0  0  0  0  0  0  0  0  0  0  0
    0.8239    4.3124    0.7425 H   0  0  0  0  0  0  0  0  0  0  0  0
   -0.7269   -0.7876   -2.2098 N   0  0  0  0  0  0  0  0  0  0  0  0
   -1.4731   -1.1826   -3.3814 C   0  0  2  0  0  0  0  0  0  0  0  0
   -0.6856   -2.2736   -4.0948 C   0  0  0  0  0  0  0  0  0  0  0  0
    0.5257   -2.4281   -3.9534 O   0  0  0  0  0  0  0  0  0  0  0  0
   -1.7213    0.0004   -4.3042 C   0  0  0  0  0  0  0  0  0  0  0  0
    0.2798   -0.6870   -2.3001 H   0  0  0  0  0  0  0  0  0  0  0  0
   -2.4255   -1.5914   -3.0268 H   0  0  0  0  0  0  0  0  0  0  0  0
   -0.7784    0.4233   -4.6697 H   0  0  0  0  0  0  0  0  0  0  0  0
   -2.3117   -0.2949   -5.1779 H   0  0  0  0  0  0  0  0  0  0  0  0
   -2.2618    0.7964   -3.7807 H   0  0  0  0  0  0  0  0  0  0  0  0
   -1.4869   -3.0271   -4.9412 N   0  0  0  0  0  0  0  0  0  0  0  0
   -0.9713   -4.1148   -5.7394 C   0  0  0  0  0  0  0  0  0  0  0  0
   -2.4847   -2.8411   -4.9815 H   0  0  0  0  0  0  0  0  0  0  0  0
   -0.6866   -3.7382   -6.7330 H   0  0  0  0  0  0  0  0  0  0  0  0
   -0.0890   -4.5466   -5.2444 H   0  0  0  0  0  0  0  0  0  0  0  0
   -1.7457   -4.8883   -5.8488 H   0  0  0  0  0  0  0  0  0  0  0  0
  1  3  1  0  0  0  0
  1  7  1  0  0  0  0
  1  2  2  0  0  0  0
 35 36  1  0  0  0  0
 36 44  1  0  0  0  0
 36 37  2  0  0  0  0
  8  9  1  0  0  0  0
  9 17  1  0  0  0  0
  9 10  2  0  0  0  0
 18 19  1  0  0  0  0
 19 34  1  0  0  0  0
 19 20  2  0  0  0  0
 35 38  1  0  0  0  0
  8 11  1  0  0  0  0
 44 45  1  0  0  0  0
 23 24  1  0  0  0  0
 21 22  1  0  0  0  0
 18 21  1  0  0  0  0
 22 23  1  0  0  0  0
 34 35  1  0  0  0  0
  7  8  1  0  0  0  0
 17 18  1  0  0  0  0
  3  4  1  0  0  0  0
  3  5  1  0  0  0  0
  3  6  1  0  0  0  0
 38 41  1  0  0  0  0
 38 42  1  0  0  0  0
 38 43  1  0  0  0  0
 11 14  1  0  0  0  0
 11 15  1  0  0  0  0
 11 16  1  0  0  0  0
 45 47  1  0  0  0  0
 45 48  1  0  0  0  0
 45 49  1  0  0  0  0
 24 31  1  0  0  0  0
 24 32  1  0  0  0  0
 24 33  1  0  0  0  0
 21 27  1  0  0  0  0
 21 28  1  0  0  0  0
 22 29  1  0  0  0  0
 22 30  1  0  0  0  0
 35 40  1  0  0  0  0
  8 13  1  0  0  0  0
 18 26  1  0  0  0  0
 44 46  1  0  0  0  0
  7 12  1  0  0  0  0
 34 39  1  0  0  0  0
 17 25  1  0  0  0  0
M  END
$$$$

  -OEChem-05262214473D

 49 48  0     1  0  0  0  0  0999 V2000
   -0.0561   -5.3799    2.6949 C   0  0  0  0  0  0  0  0  0  0  0  0
    0.7325   -5.0736    3.5815 O   0  0  0  0  0  0  0  0  0  0  0  0
   -1.0067   -6.5099    2.9135 C   0  0  0  0  0  0  0  0  0  0  0  0
   -0.5910   -7.4777    2.5899 H   0  0  0  0  0  0  0  0  0  0  0  0
   -1.2629   -6.6440    3.9767 H   0  0  0  0  0  0  0  0  0  0  0  0
   -1.9729   -6.4206    2.3918 H   0  0  0  0  0  0  0  0  0  0  0  0
   -0.1735   -4.7694    1.4571 N   0  0  0  0  0  0  0  0  0  0  0  0
    0.6439   -3.6603    1.0409 C   0  0  2  0  0  0  0  0  0  0  0  0
   -0.2788   -2.5625    0.5280 C   0  0  0  0  0  0  0  0  0  0  0  0
   -1.4197   -2.7791    0.1251 O   0  0  0  0  0  0  0  0  0  0  0  0
    1.6395   -4.0779   -0.0301 C   0  0  0  0  0  0  0  0  0  0  0  0
   -0.8741   -5.1235    0.8083 H   0  0  0  0  0  0  0  0  0  0  0  0
    1.1738   -3.3062    1.9318 H   0  0  0  0  0  0  0  0  0  0  0  0
    1.1270   -4.4358   -0.9305 H   0  0  0  0  0  0  0  0  0  0  0  0
    2.2797   -3.2400   -0.3251 H   0  0  0  0  0  0  0  0  0  0  0  0
    2.2827   -4.8880    0.3303 H   0  0  0  0  0  0  0  0  0  0  0  0
    0.3351   -1.3153    0.5316 N   0  0  0  0  0  0  0  0  0  0  0  0
   -0.3268   -0.1184    0.0807 C   0  0  2  0  0  0  0  0  0  0  0  0
   -1.3372   -0.4935   -0.9990 C   0  0  0  0  0  0  0  0  0  0  0  0
   -2.5452   -0.2974   -0.8819 O   0  0  0  0  0  0  0  0  0  0  0  0
    0.6687    0.9540   -0.3826 C   0  0  0  0  0  0  0  0  0  0  0  0
    1.5451    1.5062    0.7441 C   0  0  0  0  0  0  0  0  0  0  0  0
    0.5196    2.2943    2.0212 S   0  0  0  0  0  0  0  0  0  0  0  0
   -0.0375    3.7218    1.0636 C   0  0  0  0  0  0  0  0  0  0  0  0
    1.2790   -1.2290    0.9021 H   0  0  0  0  0  0  0  0  0  0  0  0
   -0.8820    0.2608    0.9474 H   0  0  0  0  0  0  0  0  0  0  0  0
    0.1027    1.7767   -0.8397 H   0  0  0  0  0  0  0  0  0  0  0  0
    1.3089    0.5322   -1.1681 H   0  0  0  0  0  0  0  0  0  0  0  0
    2.2443    2.2574    0.3648 H   0  0  0  0  0  0  0  0  0  0  0  0
    2.1247    0.7092    1.2191 H   0  0  0  0  0  0  0  0  0  0  0  0
   -0.6919    4.3475    1.6754 H   0  0  0  0  0  0  0  0  0  0  0  0
   -0.5887    3.3851    0.1820 H   0  0  0  0  0  0  0  0  0  0  0  0
    0.8239    4.3124    0.7425 H   0  0  0  0  0  0  0  0  0  0  0  0
   -0.7363   -1.1013   -2.0920 N   0  0  0  0  0  0  0  0  0  0  0  0
   -1.4870   -1.5589   -3.2377 C   0  0  2  0  0  0  0  0  0  0  0  0
   -0.8864   -2.8814   -3.6957 C   0  0  0  0  0  0  0  0  0  0  0  0
    0.2658   -3.2211   -3.4347 O   0  0  0  0  0  0  0  0  0  0  0  0
   -1.4632   -0.5334   -4.3603 C   0  0  0  0  0  0  0  0  0  0  0  0
    0.2744   -1.1987   -2.1172 H   0  0  0  0  0  0  0  0  0  0  0  0
   -2.5153   -1.7226   -2.8972 H   0  0  0  0  0  0  0  0  0  0  0  0
   -0.4411   -0.3563   -4.7145 H   0  0  0  0  0  0  0  0  0  0  0  0
   -2.0564   -0.8693   -5.2173 H   0  0  0  0  0  0  0  0  0  0  0  0
   -1.8681    0.4260   -4.0204 H   0  0  0  0  0  0  0  0  0  0  0  0
   -1.7743   -3.6186   -4.4667 N   0  0  0  0  0  0  0  0  0  0  0  0
   -1.4358   -4.9045   -5.0304 C   0  0  0  0  0  0  0  0  0  0  0  0
   -2.7159   -3.2684   -4.6166 H   0  0  0  0  0  0  0  0  0  0  0  0
   -1.0381   -4.7668   -6.0467 H   0  0  0  0  0  0  0  0  0  0  0  0
   -0.6755   -5.3915   -4.4021 H   0  0  0  0  0  0  0  0  0  0  0  0
   -2.3361   -5.5352   -5.0715 H   0  0  0  0  0  0  0  0  0  0  0  0
  1  3  1  0  0  0  0
  1  7  1  0  0  0  0
  1  2  2  0  0  0  0
 35 36  1  0  0  0  0
 36 44  1  0  0  0  0
 36 37  2  0  0  0  0
  8  9  1  0  0  0  0
  9 17  1  0  0  0  0
  9 10  2  0  0  0  0
 18 19  1  0  0  0  0
 19 34  1  0  0  0  0
 19 20  2  0  0  0  0
 35 38  1  0  0  0  0
  8 11  1  0  0  0  0
 44 45  1  0  0  0  0
 23 24  1  0  0  0  0
 21 22  1  0  0  0  0
 18 21  1  0  0  0  0
 22 23  1  0  0  0  0
 34 35  1  0  0  0  0
  7  8  1  0  0  0  0
 17 18  1  0  0  0  0
  3  4  1  0  0  0  0
  3  5  1  0  0  0  0
  3  6  1  0  0  0  0
 38 41  1  0  0  0  0
 38 42  1  0  0  0  0
 38 43  1  0  0  0  0
 11 14  1  0  0  0  0
 11 15  1  0  0  0  0
 11 16  1  0  0  0  0
 45 47  1  0  0  0  0
 45 48  1  0  0  0  0
 45 49  1  0  0  0  0
 24 31  1  0  0  0  0
 24 32  1  0  0  0  0
 24 33  1  0  0  0  0
 21 27  1  0  0  0  0
 21 28  1  0  0  0  0
 22 29  1  0  0  0  0
 22 30  1  0  0  0  0
 35 40  1  0  0  0  0
  8 13  1  0  0  0  0
 18 26  1  0  0  0  0
 44 46  1  0  0  0  0
  7 12  1  0  0  0  0
 34 39  1  0  0  0  0
 17 25  1  0  0  0  0
M  END
$$$$

  -OEChem-05262214473D

 49 48  0     1  0  0  0  0  0999 V2000
   -0.0561   -5.3799    2.6949 C   0  0  0  0  0  0  0  0  0  0  0  0
    0.7325   -5.0736    3.5815 O   0  0  0  0  0  0  0  0  0  0  0  0
   -1.0067   -6.5099    2.9135 C   0  0  0  0  0  0  0  0  0  0  0  0
   -0.5910   -7.4777    2.5899 H   0  0  0  0  0  0  0  0  0  0  0  0
   -1.2629   -6.6440    3.9767 H   0  0  0  0  0  0  0  0  0  0  0  0
   -1.9729   -6.4206    2.3918 H   0  0  0  0  0  0  0  0  0  0  0  0
   -0.1735   -4.7694    1.4571 N   0  0  0  0  0  0  0  0  0  0  0  0
    0.6439   -3.6603    1.0409 C   0  0  2  0  0  0  0  0  0  0  0  0
   -0.2788   -2.5625    0.5280 C   0  0  0  0  0  0  0  0  0  0  0  0
   -1.4197   -2.7791    0.1251 O   0  0  0  0  0  0  0  0  0  0  0  0
    1.6395   -4.0779   -0.0301 C   0  0  0  0  0  0  0  0  0  0  0  0
   -0.8741   -5.1235    0.8083 H   0  0  0  0  0  0  0  0  0  0  0  0
    1.1738   -3.3062    1.9318 H   0  0  0  0  0  0  0  0  0  0  0  0
    1.1270   -4.4358   -0.9305 H   0  0  0  0  0  0  0  0  0  0  0  0
    2.2797   -3.2400   -0.3251 H   0  0  0  0  0  0  0  0  0  0  0  0
    2.2827   -4.8880    0.3303 H   0  0  0  0  0  0  0  0  0  0  0  0
    0.3351   -1.3153    0.5316 N   0  0  0  0  0  0  0  0  0  0  0  0
   -0.3268   -0.1184    0.0807 C   0  0  2  0  0  0  0  0  0  0  0  0
   -1.3372   -0.4935   -0.9990 C   0  0  0  0  0  0  0  0  0  0  0  0
   -2.4906   -0.0683   -1.0126 O   0  0  0  0  0  0  0  0  0  0  0  0
    0.6687    0.9540   -0.3826 C   0  0  0  0  0  0  0  0  0  0  0  0
    1.5451    1.5062    0.7441 C   0  0  0  0  0  0  0  0  0  0  0  0
    0.5196    2.2943    2.0212 S   0  0  0  0  0  0  0  0  0  0  0  0
   -0.0375    3.7218    1.0636 C   0  0  0  0  0  0  0  0  0  0  0  0
    1.2790   -1.2290    0.9021 H   0  0  0  0  0  0  0  0  0  0  0  0
   -0.8820    0.2608    0.9474 H   0  0  0  0  0  0  0  0  0  0  0  0
    0.1027    1.7767   -0.8397 H   0  0  0  0  0  0  0  0  0  0  0  0
    1.3089    0.5322   -1.1681 H   0  0  0  0  0  0  0  0  0  0  0  0
    2.2443    2.2574    0.3648 H   0  0  0  0  0  0  0  0  0  0  0  0
    2.1247    0.7092    1.2191 H   0  0  0  0  0  0  0  0  0  0  0  0
   -0.6919    4.3475    1.6754 H   0  0  0  0  0  0  0  0  0  0  0  0
   -0.5887    3.3851    0.1820 H   0  0  0  0  0  0  0  0  0  0  0  0
    0.8239    4.3124    0.7425 H   0  0  0  0  0  0  0  0  0  0  0  0
   -0.8104   -1.3824   -1.9250 N   0  0  0  0  0  0  0  0  0  0  0  0
   -1.5785   -1.8952   -3.0352 C   0  0  2  0  0  0  0  0  0  0  0  0
   -1.2172   -3.3633   -3.2188 C   0  0  0  0  0  0  0  0  0  0  0  0
   -0.1635   -3.8505   -2.8142 O   0  0  0  0  0  0  0  0  0  0  0  0
   -1.3081   -1.1058   -4.3066 C   0  0  0  0  0  0  0  0  0  0  0  0
    0.1637   -1.6607   -1.8531 H   0  0  0  0  0  0  0  0  0  0  0  0
   -2.6342   -1.8106   -2.7553 H   0  0  0  0  0  0  0  0  0  0  0  0
   -0.2553   -1.1788   -4.6027 H   0  0  0  0  0  0  0  0  0  0  0  0
   -1.9125   -1.4777   -5.1406 H   0  0  0  0  0  0  0  0  0  0  0  0
   -1.5404   -0.0450   -4.1635 H   0  0  0  0  0  0  0  0  0  0  0  0
   -2.1904   -4.0559   -3.9254 N   0  0  0  0  0  0  0  0  0  0  0  0
   -2.0742   -5.4608   -4.2397 C   0  0  0  0  0  0  0  0  0  0  0  0
   -3.0408   -3.5763   -4.2056 H   0  0  0  0  0  0  0  0  0  0  0  0
   -1.6096   -5.5783   -5.2298 H   0  0  0  0  0  0  0  0  0  0  0  0
   -1.4503   -5.9558   -3.4810 H   0  0  0  0  0  0  0  0  0  0  0  0
   -3.0744   -5.9186   -4.2474 H   0  0  0  0  0  0  0  0  0  0  0  0
  1  3  1  0  0  0  0
  1  7  1  0  0  0  0
  1  2  2  0  0  0  0
 35 36  1  0  0  0  0
 36 44  1  0  0  0  0
 36 37  2  0  0  0  0
  8  9  1  0  0  0  0
  9 17  1  0  0  0  0
  9 10  2  0  0  0  0
 18 19  1  0  0  0  0
 19 34  1  0  0  0  0
 19 20  2  0  0  0  0
 35 38  1  0  0  0  0
  8 11  1  0  0  0  0
 44 45  1  0  0  0  0
 23 24  1  0  0  0  0
 21 22  1  0  0  0  0
 18 21  1  0  0  0  0
 22 23  1  0  0  0  0
 34 35  1  0  0  0  0
  7  8  1  0  0  0  0
 17 18  1  0  0  0  0
  3  4  1  0  0  0  0
  3  5  1  0  0  0  0
  3  6  1  0  0  0  0
 38 41  1  0  0  0  0
 38 42  1  0  0  0  0
 38 43  1  0  0  0  0
 11 14  1  0  0  0  0
 11 15  1  0  0  0  0
 11 16  1  0  0  0  0
 45 47  1  0  0  0  0
 45 48  1  0  0  0  0
 45 49  1  0  0  0  0
 24 31  1  0  0  0  0
 24 32  1  0  0  0  0
 24 33  1  0  0  0  0
 21 27  1  0  0  0  0
 21 28  1  0  0  0  0
 22 29  1  0  0  0  0
 22 30  1  0  0  0  0
 35 40  1  0  0  0  0
  8 13  1  0  0  0  0
 18 26  1  0  0  0  0
 44 46  1  0  0  0  0
  7 12  1  0  0  0  0
 34 39  1  0  0  0  0
 17 25  1  0  0  0  0
M  END
$$$$

  -OEChem-05262214473D

 49 48  0     1  0  0  0  0  0999 V2000
   -0.0561   -5.3799    2.6949 C   0  0  0  0  0  0  0  0  0  0  0  0
    0.7325   -5.0736    3.5815 O   0  0  0  0  0  0  0  0  0  0  0  0
   -1.0067   -6.5099    2.9135 C   0  0  0  0  0  0  0  0  0  0  0  0
   -0.5910   -7.4777    2.5899 H   0  0  0  0  0  0  0  0  0  0  0  0
   -1.2629   -6.6440    3.9767 H   0  0  0  0  0  0  0  0  0  0  0  0
   -1.9729   -6.4206    2.3918 H   0  0  0  0  0  0  0  0  0  0  0  0
   -0.1735   -4.7694    1.4571 N   0  0  0  0  0  0  0  0  0  0  0  0
    0.6439   -3.6603    1.0409 C   0  0  2  0  0  0  0  0  0  0  0  0
   -0.2788   -2.5625    0.5280 C   0  0  0  0  0  0  0  0  0  0  0  0
   -1.4197   -2.7791    0.1251 O   0  0  0  0  0  0  0  0  0  0  0  0
    1.6395   -4.0779   -0.0301 C   0  0  0  0  0  0  0  0  0  0  0  0
   -0.8741   -5.1235    0.8083 H   0  0  0  0  0  0  0  0  0  0  0  0
    1.1738   -3.3062    1.9318 H   0  0  0  0  0  0  0  0  0  0  0  0
    1.1270   -4.4358   -0.9305 H   0  0  0  0  0  0  0  0  0  0  0  0
    2.2797   -3.2400   -0.3251 H   0  0  0  0  0  0  0  0  0  0  0  0
    2.2827   -4.8880    0.3303 H   0  0  0  0  0  0  0  0  0  0  0  0
    0.3351   -1.3153    0.5316 N   0  0  0  0  0  0  0  0  0  0  0  0
   -0.3268   -0.1184    0.0807 C   0  0  2  0  0  0  0  0  0  0  0  0
   -1.3372   -0.4935   -0.9990 C   0  0  0  0  0  0  0  0  0  0  0  0
   -2.3877    0.1205   -1.1745 O   0  0  0  0  0  0  0  0  0  0  0  0
    0.6687    0.9540   -0.3826 C   0  0  0  0  0  0  0  0  0  0  0  0
    1.5451    1.5062    0.7441 C   0  0  0  0  0  0  0  0  0  0  0  0
    0.5196    2.2943    2.0212 S   0  0  0  0  0  0  0  0  0  0  0  0
   -0.0375    3.7218    1.0636 C   0  0  0  0  0  0  0  0  0  0  0  0
    1.2790   -1.2290    0.9021 H   0  0  0  0  0  0  0  0  0  0  0  0
   -0.8820    0.2608    0.9474 H   0  0  0  0  0  0  0  0  0  0  0  0
    0.1027    1.7767   -0.8397 H   0  0  0  0  0  0  0  0  0  0  0  0
    1.3089    0.5322   -1.1681 H   0  0  0  0  0  0  0  0  0  0  0  0
    2.2443    2.2574    0.3648 H   0  0  0  0  0  0  0  0  0  0  0  0
    2.1247    0.7092    1.2191 H   0  0  0  0  0  0  0  0  0  0  0  0
   -0.6919    4.3475    1.6754 H   0  0  0  0  0  0  0  0  0  0  0  0
   -0.5887    3.3851    0.1820 H   0  0  0  0  0  0  0  0  0  0  0  0
    0.8239    4.3124    0.7425 H   0  0  0  0  0  0  0  0  0  0  0  0
   -0.9441   -1.6118   -1.7202 N   0  0  0  0  0  0  0  0  0  0  0  0
   -1.7413   -2.1686   -2.7878 C   0  0  2  0  0  0  0  0  0  0  0  0
   -1.6552   -3.6865   -2.6965 C   0  0  0  0  0  0  0  0  0  0  0  0
   -0.7330   -4.2734   -2.1344 O   0  0  0  0  0  0  0  0  0  0  0  0
   -1.2666   -1.6780   -4.1467 C   0  0  0  0  0  0  0  0  0  0  0  0
   -0.0445   -2.0415   -1.5260 H   0  0  0  0  0  0  0  0  0  0  0  0
   -2.7742   -1.8496   -2.6108 H   0  0  0  0  0  0  0  0  0  0  0  0
   -0.2335   -1.9881   -4.3418 H   0  0  0  0  0  0  0  0  0  0  0  0
   -1.8898   -2.0785   -4.9531 H   0  0  0  0  0  0  0  0  0  0  0  0
   -1.3010   -0.5845   -4.2000 H   0  0  0  0  0  0  0  0  0  0  0  0
   -2.7069   -4.3093   -3.3540 N   0  0  0  0  0  0  0  0  0  0  0  0
   -2.8431   -5.7456   -3.4212 C   0  0  0  0  0  0  0  0  0  0  0  0
   -3.4372   -3.7437   -3.7765 H   0  0  0  0  0  0  0  0  0  0  0  0
   -2.3624   -6.1175   -4.3381 H   0  0  0  0  0  0  0  0  0  0  0  0
   -2.3606   -6.2010   -2.5438 H   0  0  0  0  0  0  0  0  0  0  0  0
   -3.9102   -6.0124   -3.4327 H   0  0  0  0  0  0  0  0  0  0  0  0
  1  3  1  0  0  0  0
  1  7  1  0  0  0  0
  1  2  2  0  0  0  0
 35 36  1  0  0  0  0
 36 44  1  0  0  0  0
 36 37  2  0  0  0  0
  8  9  1  0  0  0  0
  9 17  1  0  0  0  0
  9 10  2  0  0  0  0
 18 19  1  0  0  0  0
 19 34  1  0  0  0  0
 19 20  2  0  0  0  0
 35 38  1  0  0  0  0
  8 11  1  0  0  0  0
 44 45  1  0  0  0  0
 23 24  1  0  0  0  0
 21 22  1  0  0  0  0
 18 21  1  0  0  0  0
 22 23  1  0  0  0  0
 34 35  1  0  0  0  0
  7  8  1  0  0  0  0
 17 18  1  0  0  0  0
  3  4  1  0  0  0  0
  3  5  1  0  0  0  0
  3  6  1  0  0  0  0
 38 41  1  0  0  0  0
 38 42  1  0  0  0  0
 38 43  1  0  0  0  0
 11 14  1  0  0  0  0
 11 15  1  0  0  0  0
 11 16  1  0  0  0  0
 45 47  1  0  0  0  0
 45 48  1  0  0  0  0
 45 49  1  0  0  0  0
 24 31  1  0  0  0  0
 24 32  1  0  0  0  0
 24 33  1  0  0  0  0
 21 27  1  0  0  0  0
 21 28  1  0  0  0  0
 22 29  1  0  0  0  0
 22 30  1  0  0  0  0
 35 40  1  0  0  0  0
  8 13  1  0  0  0  0
 18 26  1  0  0  0  0
 44 46  1  0  0  0  0
  7 12  1  0  0  0  0
 34 39  1  0  0  0  0
 17 25  1  0  0  0  0
M  END
$$$$

  -OEChem-05262214473D

 49 48  0     1  0  0  0  0  0999 V2000
   -0.0561   -5.3799    2.6949 C   0  0  0  0  0  0  0  0  0  0  0  0
    0.7325   -5.0736    3.5815 O   0  0  0  0  0  0  0  0  0  0  0  0
   -1.0067   -6.5099    2.9135 C   0  0  0  0  0  0  0  0  0  0  0  0
   -0.5910   -7.4777    2.5899 H   0  0  0  0  0  0  0  0  0  0  0  0
   -1.2629   -6.6440    3.9767 H   0  0  0  0  0  0  0  0  0  0  0  0
   -1.9729   -6.4206    2.3918 H   0  0  0  0  0  0  0  0  0  0  0  0
   -0.1735   -4.7694    1.4571 N   0  0  0  0  0  0  0  0  0  0  0  0
    0.6439   -3.6603    1.0409 C   0  0  2  0  0  0  0  0  0  0  0  0
   -0.2788   -2.5625    0.5280 C   0  0  0  0  0  0  0  0  0  0  0  0
   -1.4197   -2.7791    0.1251 O   0  0  0  0  0  0  0  0  0  0  0  0
    1.6395   -4.0779   -0.0301 C   0  0  0  0  0  0  0  0  0  0  0  0
   -0.8741   -5.1235    0.8083 H   0  0  0  0  0  0  0  0  0  0  0  0
    1.1738   -3.3062    1.9318 H   0  0  0  0  0  0  0  0  0  0  0  0
    1.1270   -4.4358   -0.9305 H   0  0  0  0  0  0  0  0  0  0  0  0
    2.2797   -3.2400   -0.3251 H   0  0  0  0  0  0  0  0  0  0  0  0
    2.2827   -4.8880    0.3303 H   0  0  0  0  0  0  0  0  0  0  0  0
    0.3351   -1.3153    0.5316 N   0  0  0  0  0  0  0  0  0  0  0  0
   -0.3268   -0.1184    0.0807 C   0  0  2  0  0  0  0  0  0  0  0  0
   -1.3372   -0.4935   -0.9990 C   0  0  0  0  0  0  0  0  0  0  0  0
   -2.2433    0.2563   -1.3568 O   0  0  0  0  0  0  0  0  0  0  0  0
    0.6687    0.9540   -0.3826 C   0  0  0  0  0  0  0  0  0  0  0  0
    1.5451    1.5062    0.7441 C   0  0  0  0  0  0  0  0  0  0  0  0
    0.5196    2.2943    2.0212 S   0  0  0  0  0  0  0  0  0  0  0  0
   -0.0375    3.7218    1.0636 C   0  0  0  0  0  0  0  0  0  0  0  0
    1.2790   -1.2290    0.9021 H   0  0  0  0  0  0  0  0  0  0  0  0
   -0.8820    0.2608    0.9474 H   0  0  0  0  0  0  0  0  0  0  0  0
    0.1027    1.7767   -0.8397 H   0  0  0  0  0  0  0  0  0  0  0  0
    1.3089    0.5322   -1.1681 H   0  0  0  0  0  0  0  0  0  0  0  0
    2.2443    2.2574    0.3648 H   0  0  0  0  0  0  0  0  0  0  0  0
    2.1247    0.7092    1.2191 H   0  0  0  0  0  0  0  0  0  0  0  0
   -0.6919    4.3475    1.6754 H   0  0  0  0  0  0  0  0  0  0  0  0
   -0.5887    3.3851    0.1820 H   0  0  0  0  0  0  0  0  0  0  0  0
    0.8239    4.3124    0.7425 H   0  0  0  0  0  0  0  0  0  0  0  0
   -1.1283   -1.7737   -1.4915 N   0  0  0  0  0  0  0  0  0  0  0  0
   -1.9645   -2.3605   -2.5123 C   0  0  2  0  0  0  0  0  0  0  0  0
   -2.1708   -3.8288   -2.1646 C   0  0  0  0  0  0  0  0  0  0  0  0
   -1.4038   -4.4611   -1.4414 O   0  0  0  0  0  0  0  0  0  0  0  0
   -1.3414   -2.2109   -3.8915 C   0  0  0  0  0  0  0  0  0  0  0  0
   -0.3363   -2.3150   -1.1579 H   0  0  0  0  0  0  0  0  0  0  0  0
   -2.9258   -1.8367   -2.4733 H   0  0  0  0  0  0  0  0  0  0  0  0
   -0.3773   -2.7292   -3.9498 H   0  0  0  0  0  0  0  0  0  0  0  0
   -1.9898   -2.6308   -4.6675 H   0  0  0  0  0  0  0  0  0  0  0  0
   -1.1663   -1.1557   -4.1277 H   0  0  0  0  0  0  0  0  0  0  0  0
   -3.2886   -4.3615   -2.7915 N   0  0  0  0  0  0  0  0  0  0  0  0
   -3.6900   -5.7396   -2.6308 C   0  0  0  0  0  0  0  0  0  0  0  0
   -3.8780   -3.7592   -3.3586 H   0  0  0  0  0  0  0  0  0  0  0  0
   -3.2450   -6.3475   -3.4322 H   0  0  0  0  0  0  0  0  0  0  0  0
   -3.3446   -6.1105   -1.6545 H   0  0  0  0  0  0  0  0  0  0  0  0
   -4.7865   -5.8104   -2.6828 H   0  0  0  0  0  0  0  0  0  0  0  0
  1  3  1  0  0  0  0
  1  7  1  0  0  0  0
  1  2  2  0  0  0  0
 35 36  1  0  0  0  0
 36 44  1  0  0  0  0
 36 37  2  0  0  0  0
  8  9  1  0  0  0  0
  9 17  1  0  0  0  0
  9 10  2  0  0  0  0
 18 19  1  0  0  0  0
 19 34  1  0  0  0  0
 19 20  2  0  0  0  0
 35 38  1  0  0  0  0
  8 11  1  0  0  0  0
 44 45  1  0  0  0  0
 23 24  1  0  0  0  0
 21 22  1  0  0  0  0
 18 21  1  0  0  0  0
 22 23  1  0  0  0  0
 34 35  1  0  0  0  0
  7  8  1  0  0  0  0
 17 18  1  0  0  0  0
  3  4  1  0  0  0  0
  3  5  1  0  0  0  0
  3  6  1  0  0  0  0
 38 41  1  0  0  0  0
 38 42  1  0  0  0  0
 38 43  1  0  0  0  0
 11 14  1  0  0  0  0
 11 15  1  0  0  0  0
 11 16  1  0  0  0  0
 45 47  1  0  0  0  0
 45 48  1  0  0  0  0
 45 49  1  0  0  0  0
 24 31  1  0  0  0  0
 24 32  1  0  0  0  0
 24 33  1  0  0  0  0
 21 27  1  0  0  0  0
 21 28  1  0  0  0  0
 22 29  1  0  0  0  0
 22 30  1  0  0  0  0
 35 40  1  0  0  0  0
  8 13  1  0  0  0  0
 18 26  1  0  0  0  0
 44 46  1  0  0  0  0
  7 12  1  0  0  0  0
 34 39  1  0  0  0  0
 17 25  1  0  0  0  0
M  END
$$$$

  -OEChem-05262214473D

 49 48  0     1  0  0  0  0  0999 V2000
   -0.0561   -5.3799    2.6949 C   0  0  0  0  0  0  0  0  0  0  0  0
    0.7325   -5.0736    3.5815 O   0  0  0  0  0  0  0  0  0  0  0  0
   -1.0067   -6.5099    2.9135 C   0  0  0  0  0  0  0  0  0  0  0  0
   -0.5910   -7.4777    2.5899 H   0  0  0  0  0  0  0  0  0  0  0  0
   -1.2629   -6.6440    3.9767 H   0  0  0  0  0  0  0  0  0  0  0  0
   -1.9729   -6.4206    2.3918 H   0  0  0  0  0  0  0  0  0  0  0  0
   -0.1735   -4.7694    1.4571 N   0  0  0  0  0  0  0  0  0  0  0  0
    0.6439   -3.6603    1.0409 C   0  0  2  0  0  0  0  0  0  0  0  0
   -0.2788   -2.5625    0.5280 C   0  0  0  0  0  0  0  0  0  0  0  0
   -1.4197   -2.7791    0.1251 O   0  0  0  0  0  0  0  0  0  0  0  0
    1.6395   -4.0779   -0.0301 C   0  0  0  0  0  0  0  0  0  0  0  0
   -0.8741   -5.1235    0.8083 H   0  0  0  0  0  0  0  0  0  0  0  0
    1.1738   -3.3062    1.9318 H   0  0  0  0  0  0  0  0  0  0  0  0
    1.1270   -4.4358   -0.9305 H   0  0  0  0  0  0  0  0  0  0  0  0
    2.2797   -3.2400   -0.3251 H   0  0  0  0  0  0  0  0  0  0  0  0
    2.2827   -4.8880    0.3303 H   0  0  0  0  0  0  0  0  0  0  0  0
    0.3351   -1.3153    0.5316 N   0  0  0  0  0  0  0  0  0  0  0  0
   -0.3268   -0.1184    0.0807 C   0  0  2  0  0  0  0  0  0  0  0  0
   -1.3372   -0.4935   -0.9990 C   0  0  0  0  0  0  0  0  0  0  0  0
   -2.0674    0.3298   -1.5469 O   0  0  0  0  0  0  0  0  0  0  0  0
    0.6687    0.9540   -0.3826 C   0  0  0  0  0  0  0  0  0  0  0  0
    1.5451    1.5062    0.7441 C   0  0  0  0  0  0  0  0  0  0  0  0
    0.5196    2.2943    2.0212 S   0  0  0  0  0  0  0  0  0  0  0  0
   -0.0375    3.7218    1.0636 C   0  0  0  0  0  0  0  0  0  0  0  0
    1.2790   -1.2290    0.9021 H   0  0  0  0  0  0  0  0  0  0  0  0
   -0.8820    0.2608    0.9474 H   0  0  0  0  0  0  0  0  0  0  0  0
    0.1027    1.7767   -0.8397 H   0  0  0  0  0  0  0  0  0  0  0  0
    1.3089    0.5322   -1.1681 H   0  0  0  0  0  0  0  0  0  0  0  0
    2.2443    2.2574    0.3648 H   0  0  0  0  0  0  0  0  0  0  0  0
    2.1247    0.7092    1.2191 H   0  0  0  0  0  0  0  0  0  0  0  0
   -0.6919    4.3475    1.6754 H   0  0  0  0  0  0  0  0  0  0  0  0
   -0.5887    3.3851    0.1820 H   0  0  0  0  0  0  0  0  0  0  0  0
    0.8239    4.3124    0.7425 H   0  0  0  0  0  0  0  0  0  0  0  0
   -1.3505   -1.8572   -1.2547 N   0  0  0  0  0  0  0  0  0  0  0  0
   -2.2327   -2.4577   -2.2276 C   0  0  2  0  0  0  0  0  0  0  0  0
   -2.7288   -3.7807   -1.6592 C   0  0  0  0  0  0  0  0  0  0  0  0
   -2.1302   -4.4007   -0.7826 O   0  0  0  0  0  0  0  0  0  0  0  0
   -1.5276   -2.6681   -3.5584 C   0  0  0  0  0  0  0  0  0  0  0  0
   -0.6916   -2.4627   -0.7741 H   0  0  0  0  0  0  0  0  0  0  0  0
   -3.0787   -1.7730   -2.3524 H   0  0  0  0  0  0  0  0  0  0  0  0
   -0.6769   -3.3514   -3.4532 H   0  0  0  0  0  0  0  0  0  0  0  0
   -2.2059   -3.0971   -4.3034 H   0  0  0  0  0  0  0  0  0  0  0  0
   -1.1454   -1.7197   -3.9513 H   0  0  0  0  0  0  0  0  0  0  0  0
   -3.8958   -4.2090   -2.2763 N   0  0  0  0  0  0  0  0  0  0  0  0
   -4.5573   -5.4431   -1.9222 C   0  0  0  0  0  0  0  0  0  0  0  0
   -4.3332   -3.6219   -2.9803 H   0  0  0  0  0  0  0  0  0  0  0  0
   -4.1973   -6.2528   -2.5739 H   0  0  0  0  0  0  0  0  0  0  0  0
   -4.3350   -5.6903   -0.8736 H   0  0  0  0  0  0  0  0  0  0  0  0
   -5.6437   -5.3261   -2.0489 H   0  0  0  0  0  0  0  0  0  0  0  0
  1  3  1  0  0  0  0
  1  7  1  0  0  0  0
  1  2  2  0  0  0  0
 35 36  1  0  0  0  0
 36 44  1  0  0  0  0
 36 37  2  0  0  0  0
  8  9  1  0  0  0  0
  9 17  1  0  0  0  0
  9 10  2  0  0  0  0
 18 19  1  0  0  0  0
 19 34  1  0  0  0  0
 19 20  2  0  0  0  0
 35 38  1  0  0  0  0
  8 11  1  0  0  0  0
 44 45  1  0  0  0  0
 23 24  1  0  0  0  0
 21 22  1  0  0  0  0
 18 21  1  0  0  0  0
 22 23  1  0  0  0  0
 34 35  1  0  0  0  0
  7  8  1  0  0  0  0
 17 18  1  0  0  0  0
  3  4  1  0  0  0  0
  3  5  1  0  0  0  0
  3  6  1  0  0  0  0
 38 41  1  0  0  0  0
 38 42  1  0  0  0  0
 38 43  1  0  0  0  0
 11 14  1  0  0  0  0
 11 15  1  0  0  0  0
 11 16  1  0  0  0  0
 45 47  1  0  0  0  0
 45 48  1  0  0  0  0
 45 49  1  0  0  0  0
 24 31  1  0  0  0  0
 24 32  1  0  0  0  0
 24 33  1  0  0  0  0
 21 27  1  0  0  0  0
 21 28  1  0  0  0  0
 22 29  1  0  0  0  0
 22 30  1  0  0  0  0
 35 40  1  0  0  0  0
  8 13  1  0  0  0  0
 18 26  1  0  0  0  0
 44 46  1  0  0  0  0
  7 12  1  0  0  0  0
 34 39  1  0  0  0  0
 17 25  1  0  0  0  0
M  END
$$$$

  -OEChem-05262214473D

 49 48  0     1  0  0  0  0  0999 V2000
   -0.0561   -5.3799    2.6949 C   0  0  0  0  0  0  0  0  0  0  0  0
    0.7325   -5.0736    3.5815 O   0  0  0  0  0  0  0  0  0  0  0  0
   -1.0067   -6.5099    2.9135 C   0  0  0  0  0  0  0  0  0  0  0  0
   -0.5910   -7.4777    2.5899 H   0  0  0  0  0  0  0  0  0  0  0  0
   -1.2629   -6.6440    3.9767 H   0  0  0  0  0  0  0  0  0  0  0  0
   -1.9729   -6.4206    2.3918 H   0  0  0  0  0  0  0  0  0  0  0  0
   -0.1735   -4.7694    1.4571 N   0  0  0  0  0  0  0  0  0  0  0  0
    0.6439   -3.6603    1.0409 C   0  0  2  0  0  0  0  0  0  0  0  0
   -0.2788   -2.5625    0.5280 C   0  0  0  0  0  0  0  0  0  0  0  0
   -1.4197   -2.7791    0.1251 O   0  0  0  0  0  0  0  0  0  0  0  0
    1.6395   -4.0779   -0.0301 C   0  0  0  0  0  0  0  0  0  0  0  0
   -0.8741   -5.1235    0.8083 H   0  0  0  0  0  0  0  0  0  0  0  0
    1.1738   -3.3062    1.9318 H   0  0  0  0  0  0  0  0  0  0  0  0
    1.1270   -4.4358   -0.9305 H   0  0  0  0  0  0  0  0  0  0  0  0
    2.2797   -3.2400   -0.3251 H   0  0  0  0  0  0  0  0  0  0  0  0
    2.2827   -4.8880    0.3303 H   0  0  0  0  0  0  0  0  0  0  0  0
    0.3351   -1.3153    0.5316 N   0  0  0  0  0  0  0  0  0  0  0  0
   -0.3268   -0.1184    0.0807 C   0  0  2  0  0  0  0  0  0  0  0  0
   -1.3372   -0.4935   -0.9990 C   0  0  0  0  0  0  0  0  0  0  0  0
   -1.8720    0.3360   -1.7320 O   0  0  0  0  0  0  0  0  0  0  0  0
    0.6687    0.9540   -0.3826 C   0  0  0  0  0  0  0  0  0  0  0  0
    1.5451    1.5062    0.7441 C   0  0  0  0  0  0  0  0  0  0  0  0
    0.5196    2.2943    2.0212 S   0  0  0  0  0  0  0  0  0  0  0  0
   -0.0375    3.7218    1.0636 C   0  0  0  0  0  0  0  0  0  0  0  0
    1.2790   -1.2290    0.9021 H   0  0  0  0  0  0  0  0  0  0  0  0
   -0.8820    0.2608    0.9474 H   0  0  0  0  0  0  0  0  0  0  0  0
    0.1027    1.7767   -0.8397 H   0  0  0  0  0  0  0  0  0  0  0  0
    1.3089    0.5322   -1.1681 H   0  0  0  0  0  0  0  0  0  0  0  0
    2.2443    2.2574    0.3648 H   0  0  0  0  0  0  0  0  0  0  0  0
    2.1247    0.7092    1.2191 H   0  0  0  0  0  0  0  0  0  0  0  0
   -0.6919    4.3475    1.6754 H   0  0  0  0  0  0  0  0  0  0  0  0
   -0.5887    3.3851    0.1820 H   0  0  0  0  0  0  0  0  0  0  0  0
    0.8239    4.3124    0.7425 H   0  0  0  0  0  0  0  0  0  0  0  0
   -1.5954   -1.8565   -1.0257 N   0  0  0  0  0  0  0  0  0  0  0  0
   -2.5277   -2.4536   -1.9529 C   0  0  2  0  0  0  0  0  0  0  0  0
   -3.2910   -3.5454   -1.2147 C   0  0  0  0  0  0  0  0  0  0  0  0
   -2.8627   -4.0964   -0.2028 O   0  0  0  0  0  0  0  0  0  0  0  0
   -1.8123   -3.0186   -3.1702 C   0  0  0  0  0  0  0  0  0  0  0  0
   -1.0863   -2.4744   -0.4006 H   0  0  0  0  0  0  0  0  0  0  0  0
   -3.2223   -1.6628   -2.2563 H   0  0  0  0  0  0  0  0  0  0  0  0
   -1.1119   -3.8125   -2.8859 H   0  0  0  0  0  0  0  0  0  0  0  0
   -2.5231   -3.4455   -3.8854 H   0  0  0  0  0  0  0  0  0  0  0  0
   -1.2398   -2.2381   -3.6828 H   0  0  0  0  0  0  0  0  0  0  0  0
   -4.4871   -3.8621   -1.8434 N   0  0  0  0  0  0  0  0  0  0  0  0
   -5.3858   -4.8764   -1.3437 C   0  0  0  0  0  0  0  0  0  0  0  0
   -4.7719   -3.3409   -2.6674 H   0  0  0  0  0  0  0  0  0  0  0  0
   -5.1544   -5.8397   -1.8217 H   0  0  0  0  0  0  0  0  0  0  0  0
   -5.2644   -4.9693   -0.2544 H   0  0  0  0  0  0  0  0  0  0  0  0
   -6.4233   -4.5927   -1.5741 H   0  0  0  0  0  0  0  0  0  0  0  0
  1  3  1  0  0  0  0
  1  7  1  0  0  0  0
  1  2  2  0  0  0  0
 35 36  1  0  0  0  0
 36 44  1  0  0  0  0
 36 37  2  0  0  0  0
  8  9  1  0  0  0  0
  9 17  1  0  0  0  0
  9 10  2  0  0  0  0
 18 19  1  0  0  0  0
 19 34  1  0  0  0  0
 19 20  2  0  0  0  0
 35 38  1  0  0  0  0
  8 11  1  0  0  0  0
 44 45  1  0  0  0  0
 23 24  1  0  0  0  0
 21 22  1  0  0  0  0
 18 21  1  0  0  0  0
 22 23  1  0  0  0  0
 34 35  1  0  0  0  0
  7  8  1  0  0  0  0
 17 18  1  0  0  0  0
  3  4  1  0  0  0  0
  3  5  1  0  0  0  0
  3  6  1  0  0  0  0
 38 41  1  0  0  0  0
 38 42  1  0  0  0  0
 38 43  1  0  0  0  0
 11 14  1  0  0  0  0
 11 15  1  0  0  0  0
 11 16  1  0  0  0  0
 45 47  1  0  0  0  0
 45 48  1  0  0  0  0
 45 49  1  0  0  0  0
 24 31  1  0  0  0  0
 24 32  1  0  0  0  0
 24 33  1  0  0  0  0
 21 27  1  0  0  0  0
 21 28  1  0  0  0  0
 22 29  1  0  0  0  0
 22 30  1  0  0  0  0
 35 40  1  0  0  0  0
  8 13  1  0  0  0  0
 18 26  1  0  0  0  0
 44 46  1  0  0  0  0
  7 12  1  0  0  0  0
 34 39  1  0  0  0  0
 17 25  1  0  0  0  0
M  END
$$$$

  -OEChem-05262214473D

 49 48  0     1  0  0  0  0  0999 V2000
   -0.0561   -5.3799    2.6949 C   0  0  0  0  0  0  0  0  0  0  0  0
    0.7325   -5.0736    3.5815 O   0  0  0  0  0  0  0  0  0  0  0  0
   -1.0067   -6.5099    2.9135 C   0  0  0  0  0  0  0  0  0  0  0  0
   -0.5910   -7.4777    2.5899 H   0  0  0  0  0  0  0  0  0  0  0  0
   -1.2629   -6.6440    3.9767 H   0  0  0  0  0  0  0  0  0  0  0  0
   -1.9729   -6.4206    2.3918 H   0  0  0  0  0  0  0  0  0  0  0  0
   -0.1735   -4.7694    1.4571 N   0  0  0  0  0  0  0  0  0  0  0  0
    0.6439   -3.6603    1.0409 C   0  0  2  0  0  0  0  0  0  0  0  0
   -0.2788   -2.5625    0.5280 C   0  0  0  0  0  0  0  0  0  0  0  0
   -1.4197   -2.7791    0.1251 O   0  0  0  0  0  0  0  0  0  0  0  0
    1.6395   -4.0779   -0.0301 C   0  0  0  0  0  0  0  0  0  0  0  0
   -0.8741   -5.1235    0.8083 H   0  0  0  0  0  0  0  0  0  0  0  0
    1.1738   -3.3062    1.9318 H   0  0  0  0  0  0  0  0  0  0  0  0
    1.1270   -4.4358   -0.9305 H   0  0  0  0  0  0  0  0  0  0  0  0
    2.2797   -3.2400   -0.3251 H   0  0  0  0  0  0  0  0  0  0  0  0
    2.2827   -4.8880    0.3303 H   0  0  0  0  0  0  0  0  0  0  0  0
    0.3351   -1.3153    0.5316 N   0  0  0  0  0  0  0  0  0  0  0  0
   -0.3268   -0.1184    0.0807 C   0  0  2  0  0  0  0  0  0  0  0  0
   -1.3372   -0.4935   -0.9990 C   0  0  0  0  0  0  0  0  0  0  0  0
   -1.6703    0.2744   -1.8993 O   0  0  0  0  0  0  0  0  0  0  0  0
    0.6687    0.9540   -0.3826 C   0  0  0  0  0  0  0  0  0  0  0  0
    1.5451    1.5062    0.7441 C   0  0  0  0  0  0  0  0  0  0  0  0
    0.5196    2.2943    2.0212 S   0  0  0  0  0  0  0  0  0  0  0  0
   -0.0375    3.7218    1.0636 C   0  0  0  0  0  0  0  0  0  0  0  0
    1.2790   -1.2290    0.9021 H   0  0  0  0  0  0  0  0  0  0  0  0
   -0.8820    0.2608    0.9474 H   0  0  0  0  0  0  0  0  0  0  0  0
    0.1027    1.7767   -0.8397 H   0  0  0  0  0  0  0  0  0  0  0  0
    1.3089    0.5322   -1.1681 H   0  0  0  0  0  0  0  0  0  0  0  0
    2.2443    2.2574    0.3648 H   0  0  0  0  0  0  0  0  0  0  0  0
    2.1247    0.7092    1.2191 H   0  0  0  0  0  0  0  0  0  0  0  0
   -0.6919    4.3475    1.6754 H   0  0  0  0  0  0  0  0  0  0  0  0
   -0.5887    3.3851    0.1820 H   0  0  0  0  0  0  0  0  0  0  0  0
    0.8239    4.3124    0.7425 H   0  0  0  0  0  0  0  0  0  0  0  0
   -1.8464   -1.7718   -0.8202 N   0  0  0  0  0  0  0  0  0  0  0  0
   -2.8294   -2.3486   -1.7071 C   0  0  2  0  0  0  0  0  0  0  0  0
   -3.8193   -3.1389   -0.8616 C   0  0  0  0  0  0  0  0  0  0  0  0
   -3.5514   -3.5689    0.2584 O   0  0  0  0  0  0  0  0  0  0  0  0
   -2.1763   -3.2385   -2.7532 C   0  0  0  0  0  0  0  0  0  0  0  0
   -1.4935   -2.3495   -0.0630 H   0  0  0  0  0  0  0  0  0  0  0  0
   -3.3470   -1.5135   -2.1915 H   0  0  0  0  0  0  0  0  0  0  0  0
   -1.6527   -4.0809   -2.2866 H   0  0  0  0  0  0  0  0  0  0  0  0
   -2.9199   -3.6523   -3.4422 H   0  0  0  0  0  0  0  0  0  0  0  0
   -1.4429   -2.6756   -3.3407 H   0  0  0  0  0  0  0  0  0  0  0  0
   -5.0224   -3.3445   -1.5223 N   0  0  0  0  0  0  0  0  0  0  0  0
   -6.1191   -4.0781   -0.9348 C   0  0  0  0  0  0  0  0  0  0  0  0
   -5.1640   -2.9356   -2.4413 H   0  0  0  0  0  0  0  0  0  0  0  0
   -6.0512   -5.1364   -1.2269 H   0  0  0  0  0  0  0  0  0  0  0  0
   -6.0694   -3.9964    0.1610 H   0  0  0  0  0  0  0  0  0  0  0  0
   -7.0722   -3.6600   -1.2909 H   0  0  0  0  0  0  0  0  0  0  0  0
  1  3  1  0  0  0  0
  1  7  1  0  0  0  0
  1  2  2  0  0  0  0
 35 36  1  0  0  0  0
 36 44  1  0  0  0  0
 36 37  2  0  0  0  0
  8  9  1  0  0  0  0
  9 17  1  0  0  0  0
  9 10  2  0  0  0  0
 18 19  1  0  0  0  0
 19 34  1  0  0  0  0
 19 20  2  0  0  0  0
 35 38  1  0  0  0  0
  8 11  1  0  0  0  0
 44 45  1  0  0  0  0
 23 24  1  0  0  0  0
 21 22  1  0  0  0  0
 18 21  1  0  0  0  0
 22 23  1  0  0  0  0
 34 35  1  0  0  0  0
  7  8  1  0  0  0  0
 17 18  1  0  0  0  0
  3  4  1  0  0  0  0
  3  5  1  0  0  0  0
  3  6  1  0  0  0  0
 38 41  1  0  0  0  0
 38 42  1  0  0  0  0
 38 43  1  0  0  0  0
 11 14  1  0  0  0  0
 11 15  1  0  0  0  0
 11 16  1  0  0  0  0
 45 47  1  0  0  0  0
 45 48  1  0  0  0  0
 45 49  1  0  0  0  0
 24 31  1  0  0  0  0
 24 32  1  0  0  0  0
 24 33  1  0  0  0  0
 21 27  1  0  0  0  0
 21 28  1  0  0  0  0
 22 29  1  0  0  0  0
 22 30  1  0  0  0  0
 35 40  1  0  0  0  0
  8 13  1  0  0  0  0
 18 26  1  0  0  0  0
 44 46  1  0  0  0  0
  7 12  1  0  0  0  0
 34 39  1  0  0  0  0
 17 25  1  0  0  0  0
M  END
$$$$

  -OEChem-05262214473D

 49 48  0     1  0  0  0  0  0999 V2000
   -0.0561   -5.3799    2.6949 C   0  0  0  0  0  0  0  0  0  0  0  0
    0.7325   -5.0736    3.5815 O   0  0  0  0  0  0  0  0  0  0  0  0
   -1.0067   -6.5099    2.9135 C   0  0  0  0  0  0  0  0  0  0  0  0
   -0.5910   -7.4777    2.5899 H   0  0  0  0  0  0  0  0  0  0  0  0
   -1.2629   -6.6440    3.9767 H   0  0  0  0  0  0  0  0  0  0  0  0
   -1.9729   -6.4206    2.3918 H   0  0  0  0  0  0  0  0  0  0  0  0
   -0.1735   -4.7694    1.4571 N   0  0  0  0  0  0  0  0  0  0  0  0
    0.6439   -3.6603    1.0409 C   0  0  2  0  0  0  0  0  0  0  0  0
   -0.2788   -2.5625    0.5280 C   0  0  0  0  0  0  0  0  0  0  0  0
   -1.4197   -2.7791    0.1251 O   0  0  0  0  0  0  0  0  0  0  0  0
    1.6395   -4.0779   -0.0301 C   0  0  0  0  0  0  0  0  0  0  0  0
   -0.8741   -5.1235    0.8083 H   0  0  0  0  0  0  0  0  0  0  0  0
    1.1738   -3.3062    1.9318 H   0  0  0  0  0  0  0  0  0  0  0  0
    1.1270   -4.4358   -0.9305 H   0  0  0  0  0  0  0  0  0  0  0  0
    2.2797   -3.2400   -0.3251 H   0  0  0  0  0  0  0  0  0  0  0  0
    2.2827   -4.8880    0.3303 H   0  0  0  0  0  0  0  0  0  0  0  0
    0.3351   -1.3153    0.5316 N   0  0  0  0  0  0  0  0  0  0  0  0
   -0.3268   -0.1184    0.0807 C   0  0  2  0  0  0  0  0  0  0  0  0
   -1.3372   -0.4935   -0.9990 C   0  0  0  0  0  0  0  0  0  0  0  0
   -1.4760    0.1493   -2.0376 O   0  0  0  0  0  0  0  0  0  0  0  0
    0.6687    0.9540   -0.3826 C   0  0  0  0  0  0  0  0  0  0  0  0
    1.5451    1.5062    0.7441 C   0  0  0  0  0  0  0  0  0  0  0  0
    0.5196    2.2943    2.0212 S   0  0  0  0  0  0  0  0  0  0  0  0
   -0.0375    3.7218    1.0636 C   0  0  0  0  0  0  0  0  0  0  0  0
    1.2790   -1.2290    0.9021 H   0  0  0  0  0  0  0  0  0  0  0  0
   -0.8820    0.2608    0.9474 H   0  0  0  0  0  0  0  0  0  0  0  0
    0.1027    1.7767   -0.8397 H   0  0  0  0  0  0  0  0  0  0  0  0
    1.3089    0.5322   -1.1681 H   0  0  0  0  0  0  0  0  0  0  0  0
    2.2443    2.2574    0.3648 H   0  0  0  0  0  0  0  0  0  0  0  0
    2.1247    0.7092    1.2191 H   0  0  0  0  0  0  0  0  0  0  0  0
   -0.6919    4.3475    1.6754 H   0  0  0  0  0  0  0  0  0  0  0  0
   -0.5887    3.3851    0.1820 H   0  0  0  0  0  0  0  0  0  0  0  0
    0.8239    4.3124    0.7425 H   0  0  0  0  0  0  0  0  0  0  0  0
   -2.0864   -1.6087   -0.6523 N   0  0  0  0  0  0  0  0  0  0  0  0
   -3.1172   -2.1498   -1.5068 C   0  0  2  0  0  0  0  0  0  0  0  0
   -4.2777   -2.5889   -0.6237 C   0  0  0  0  0  0  0  0  0  0  0  0
   -4.1494   -2.8542    0.5697 O   0  0  0  0  0  0  0  0  0  0  0  0
   -2.5947   -3.3126   -2.3359 C   0  0  0  0  0  0  0  0  0  0  0  0
   -1.8854   -2.0963    0.2158 H   0  0  0  0  0  0  0  0  0  0  0  0
   -3.4442   -1.3354   -2.1624 H   0  0  0  0  0  0  0  0  0  0  0  0
   -2.2623   -4.1384   -1.6962 H   0  0  0  0  0  0  0  0  0  0  0  0
   -3.3693   -3.7033   -3.0040 H   0  0  0  0  0  0  0  0  0  0  0  0
   -1.7411   -3.0023   -2.9482 H   0  0  0  0  0  0  0  0  0  0  0  0
   -5.4650   -2.6915   -1.3350 N   0  0  0  0  0  0  0  0  0  0  0  0
   -6.7072   -3.1026   -0.7234 C   0  0  0  0  0  0  0  0  0  0  0  0
   -5.4829   -2.4334   -2.3172 H   0  0  0  0  0  0  0  0  0  0  0  0
   -6.8264   -4.1909   -0.8299 H   0  0  0  0  0  0  0  0  0  0  0  0
   -6.6953   -2.8379    0.3442 H   0  0  0  0  0  0  0  0  0  0  0  0
   -7.5462   -2.5918   -1.2185 H   0  0  0  0  0  0  0  0  0  0  0  0
  1  3  1  0  0  0  0
  1  7  1  0  0  0  0
  1  2  2  0  0  0  0
 35 36  1  0  0  0  0
 36 44  1  0  0  0  0
 36 37  2  0  0  0  0
  8  9  1  0  0  0  0
  9 17  1  0  0  0  0
  9 10  2  0  0  0  0
 18 19  1  0  0  0  0
 19 34  1  0  0  0  0
 19 20  2  0  0  0  0
 35 38  1  0  0  0  0
  8 11  1  0  0  0  0
 44 45  1  0  0  0  0
 23 24  1  0  0  0  0
 21 22  1  0  0  0  0
 18 21  1  0  0  0  0
 22 23  1  0  0  0  0
 34 35  1  0  0  0  0
  7  8  1  0  0  0  0
 17 18  1  0  0  0  0
  3  4  1  0  0  0  0
  3  5  1  0  0  0  0
  3  6  1  0  0  0  0
 38 41  1  0  0  0  0
 38 42  1  0  0  0  0
 38 43  1  0  0  0  0
 11 14  1  0  0  0  0
 11 15  1  0  0  0  0
 11 16  1  0  0  0  0
 45 47  1  0  0  0  0
 45 48  1  0  0  0  0
 45 49  1  0  0  0  0
 24 31  1  0  0  0  0
 24 32  1  0  0  0  0
 24 33  1  0  0  0  0
 21 27  1  0  0  0  0
 21 28  1  0  0  0  0
 22 29  1  0  0  0  0
 22 30  1  0  0  0  0
 35 40  1  0  0  0  0
  8 13  1  0  0  0  0
 18 26  1  0  0  0  0
 44 46  1  0  0  0  0
  7 12  1  0  0  0  0
 34 39  1  0  0  0  0
 17 25  1  0  0  0  0
M  END
$$$$

  -OEChem-05262214473D

 49 48  0     1  0  0  0  0  0999 V2000
   -0.0561   -5.3799    2.6949 C   0  0  0  0  0  0  0  0  0  0  0  0
    0.7325   -5.0736    3.5815 O   0  0  0  0  0  0  0  0  0  0  0  0
   -1.0067   -6.5099    2.9135 C   0  0  0  0  0  0  0  0  0  0  0  0
   -0.5910   -7.4777    2.5899 H   0  0  0  0  0  0  0  0  0  0  0  0
   -1.2629   -6.6440    3.9767 H   0  0  0  0  0  0  0  0  0  0  0  0
   -1.9729   -6.4206    2.3918 H   0  0  0  0  0  0  0  0  0  0  0  0
   -0.1735   -4.7694    1.4571 N   0  0  0  0  0  0  0  0  0  0  0  0
    0.6439   -3.6603    1.0409 C   0  0  2  0  0  0  0  0  0  0  0  0
   -0.2788   -2.5625    0.5280 C   0  0  0  0  0  0  0  0  0  0  0  0
   -1.4197   -2.7791    0.1251 O   0  0  0  0  0  0  0  0  0  0  0  0
    1.6395   -4.0779   -0.0301 C   0  0  0  0  0  0  0  0  0  0  0  0
   -0.8741   -5.1235    0.8083 H   0  0  0  0  0  0  0  0  0  0  0  0
    1.1738   -3.3062    1.9318 H   0  0  0  0  0  0  0  0  0  0  0  0
    1.1270   -4.4358   -0.9305 H   0  0  0  0  0  0  0  0  0  0  0  0
    2.2797   -3.2400   -0.3251 H   0  0  0  0  0  0  0  0  0  0  0  0
    2.2827   -4.8880    0.3303 H   0  0  0  0  0  0  0  0  0  0  0  0
    0.3351   -1.3153    0.5316 N   0  0  0  0  0  0  0  0  0  0  0  0
   -0.3268   -0.1184    0.0807 C   0  0  2  0  0  0  0  0  0  0  0  0
   -1.3372   -0.4935   -0.9990 C   0  0  0  0  0  0  0  0  0  0  0  0
   -1.3026   -0.0308   -2.1374 O   0  0  0  0  0  0  0  0  0  0  0  0
    0.6687    0.9540   -0.3826 C   0  0  0  0  0  0  0  0  0  0  0  0
    1.5451    1.5062    0.7441 C   0  0  0  0  0  0  0  0  0  0  0  0
    0.5196    2.2943    2.0212 S   0  0  0  0  0  0  0  0  0  0  0  0
   -0.0375    3.7218    1.0636 C   0  0  0  0  0  0  0  0  0  0  0  0
    1.2790   -1.2290    0.9021 H   0  0  0  0  0  0  0  0  0  0  0  0
   -0.8820    0.2608    0.9474 H   0  0  0  0  0  0  0  0  0  0  0  0
    0.1027    1.7767   -0.8397 H   0  0  0  0  0  0  0  0  0  0  0  0
    1.3089    0.5322   -1.1681 H   0  0  0  0  0  0  0  0  0  0  0  0
    2.2443    2.2574    0.3648 H   0  0  0  0  0  0  0  0  0  0  0  0
    2.1247    0.7092    1.2191 H   0  0  0  0  0  0  0  0  0  0  0  0
   -0.6919    4.3475    1.6754 H   0  0  0  0  0  0  0  0  0  0  0  0
   -0.5887    3.3851    0.1820 H   0  0  0  0  0  0  0  0  0  0  0  0
    0.8239    4.3124    0.7425 H   0  0  0  0  0  0  0  0  0  0  0  0
   -2.2991   -1.3784   -0.5333 N   0  0  0  0  0  0  0  0  0  0  0  0
   -3.3715   -1.8706   -1.3658 C   0  0  2  0  0  0  0  0  0  0  0  0
   -4.6348   -1.9330   -0.5174 C   0  0  0  0  0  0  0  0  0  0  0  0
   -4.6159   -2.0009    0.7098 O   0  0  0  0  0  0  0  0  0  0  0  0
   -3.0389   -3.2361   -1.9467 C   0  0  0  0  0  0  0  0  0  0  0  0
   -2.2353   -1.7322    0.4167 H   0  0  0  0  0  0  0  0  0  0  0  0
   -3.5073   -1.1405   -2.1711 H   0  0  0  0  0  0  0  0  0  0  0  0
   -2.8992   -3.9810   -1.1548 H   0  0  0  0  0  0  0  0  0  0  0  0
   -3.8406   -3.5952   -2.6004 H   0  0  0  0  0  0  0  0  0  0  0  0
   -2.1139   -3.1959   -2.5320 H   0  0  0  0  0  0  0  0  0  0  0  0
   -5.7848   -1.9475   -1.2941 N   0  0  0  0  0  0  0  0  0  0  0  0
   -7.1100   -2.0164   -0.7238 C   0  0  0  0  0  0  0  0  0  0  0  0
   -5.7069   -1.8688   -2.3038 H   0  0  0  0  0  0  0  0  0  0  0  0
   -7.4272   -3.0676   -0.6579 H   0  0  0  0  0  0  0  0  0  0  0  0
   -7.0993   -1.5729    0.2828 H   0  0  0  0  0  0  0  0  0  0  0  0
   -7.8129   -1.4606   -1.3618 H   0  0  0  0  0  0  0  0  0  0  0  0
  1  3  1  0  0  0  0
  1  7  1  0  0  0  0
  1  2  2  0  0  0  0
 35 36  1  0  0  0  0
 36 44  1  0  0  0  0
 36 37  2  0  0  0  0
  8  9  1  0  0  0  0
  9 17  1  0  0  0  0
  9 10  2  0  0  0  0
 18 19  1  0  0  0  0
 19 34  1  0  0  0  0
 19 20  2  0  0  0  0
 35 38  1  0  0  0  0
  8 11  1  0  0  0  0
 44 45  1  0  0  0  0
 23 24  1  0  0  0  0
 21 22  1  0  0  0  0
 18 21  1  0  0  0  0
 22 23  1  0  0  0  0
 34 35  1  0  0  0  0
  7  8  1  0  0  0  0
 17 18  1  0  0  0  0
  3  4  1  0  0  0  0
  3  5  1  0  0  0  0
  3  6  1  0  0  0  0
 38 41  1  0  0  0  0
 38 42  1  0  0  0  0
 38 43  1  0  0  0  0
 11 14  1  0  0  0  0
 11 15  1  0  0  0  0
 11 16  1  0  0  0  0
 45 47  1  0  0  0  0
 45 48  1  0  0  0  0
 45 49  1  0  0  0  0
 24 31  1  0  0  0  0
 24 32  1  0  0  0  0
 24 33  1  0  0  0  0
 21 27  1  0  0  0  0
 21 28  1  0  0  0  0
 22 29  1  0  0  0  0
 22 30  1  0  0  0  0
 35 40  1  0  0  0  0
  8 13  1  0  0  0  0
 18 26  1  0  0  0  0
 44 46  1  0  0  0  0
  7 12  1  0  0  0  0
 34 39  1  0  0  0  0
 17 25  1  0  0  0  0
M  END
$$$$

  -OEChem-05262214473D

 49 48  0     1  0  0  0  0  0999 V2000
   -0.0561   -5.3799    2.6949 C   0  0  0  0  0  0  0  0  0  0  0  0
    0.7325   -5.0736    3.5815 O   0  0  0  0  0  0  0  0  0  0  0  0
   -1.0067   -6.5099    2.9135 C   0  0  0  0  0  0  0  0  0  0  0  0
   -0.5910   -7.4777    2.5899 H   0  0  0  0  0  0  0  0  0  0  0  0
   -1.2629   -6.6440    3.9767 H   0  0  0  0  0  0  0  0  0  0  0  0
   -1.9729   -6.4206    2.3918 H   0  0  0  0  0  0  0  0  0  0  0  0
   -0.1735   -4.7694    1.4571 N   0  0  0  0  0  0  0  0  0  0  0  0
    0.6439   -3.6603    1.0409 C   0  0  2  0  0  0  0  0  0  0  0  0
   -0.2788   -2.5625    0.5280 C   0  0  0  0  0  0  0  0  0  0  0  0
   -1.4197   -2.7791    0.1251 O   0  0  0  0  0  0  0  0  0  0  0  0
    1.6395   -4.0779   -0.0301 C   0  0  0  0  0  0  0  0  0  0  0  0
   -0.8741   -5.1235    0.8083 H   0  0  0  0  0  0  0  0  0  0  0  0
    1.1738   -3.3062    1.9318 H   0  0  0  0  0  0  0  0  0  0  0  0
    1.1270   -4.4358   -0.9305 H   0  0  0  0  0  0  0  0  0  0  0  0
    2.2797   -3.2400   -0.3251 H   0  0  0  0  0  0  0  0  0  0  0  0
    2.2827   -4.8880    0.3303 H   0  0  0  0  0  0  0  0  0  0  0  0
    0.3351   -1.3153    0.5316 N   0  0  0  0  0  0  0  0  0  0  0  0
   -0.3268   -0.1184    0.0807 C   0  0  2  0  0  0  0  0  0  0  0  0
   -1.3372   -0.4935   -0.9990 C   0  0  0  0  0  0  0  0  0  0  0  0
   -1.1616   -0.2537   -2.1918 O   0  0  0  0  0  0  0  0  0  0  0  0
    0.6687    0.9540   -0.3826 C   0  0  0  0  0  0  0  0  0  0  0  0
    1.5451    1.5062    0.7441 C   0  0  0  0  0  0  0  0  0  0  0  0
    0.5196    2.2943    2.0212 S   0  0  0  0  0  0  0  0  0  0  0  0
   -0.0375    3.7218    1.0636 C   0  0  0  0  0  0  0  0  0  0  0  0
    1.2790   -1.2290    0.9021 H   0  0  0  0  0  0  0  0  0  0  0  0
   -0.8820    0.2608    0.9474 H   0  0  0  0  0  0  0  0  0  0  0  0
    0.1027    1.7767   -0.8397 H   0  0  0  0  0  0  0  0  0  0  0  0
    1.3089    0.5322   -1.1681 H   0  0  0  0  0  0  0  0  0  0  0  0
    2.2443    2.2574    0.3648 H   0  0  0  0  0  0  0  0  0  0  0  0
    2.1247    0.7092    1.2191 H   0  0  0  0  0  0  0  0  0  0  0  0
   -0.6919    4.3475    1.6754 H   0  0  0  0  0  0  0  0  0  0  0  0
   -0.5887    3.3851    0.1820 H   0  0  0  0  0  0  0  0  0  0  0  0
    0.8239    4.3124    0.7425 H   0  0  0  0  0  0  0  0  0  0  0  0
   -2.4699   -1.0967   -0.4713 N   0  0  0  0  0  0  0  0  0  0  0  0
   -3.5750   -1.5303   -1.2936 C   0  0  2  0  0  0  0  0  0  0  0  0
   -4.8663   -1.2158   -0.5499 C   0  0  0  0  0  0  0  0  0  0  0  0
   -4.9192   -1.0672    0.6692 O   0  0  0  0  0  0  0  0  0  0  0  0
   -3.4788   -3.0142   -1.6122 C   0  0  0  0  0  0  0  0  0  0  0  0
   -2.5193   -1.2820    0.5261 H   0  0  0  0  0  0  0  0  0  0  0  0
   -3.5321   -0.9422   -2.2168 H   0  0  0  0  0  0  0  0  0  0  0  0
   -3.5201   -3.6195   -0.6994 H   0  0  0  0  0  0  0  0  0  0  0  0
   -4.3018   -3.3352   -2.2592 H   0  0  0  0  0  0  0  0  0  0  0  0
   -2.5360   -3.2433   -2.1206 H   0  0  0  0  0  0  0  0  0  0  0  0
   -5.9601   -1.1633   -1.4026 N   0  0  0  0  0  0  0  0  0  0  0  0
   -7.3001   -0.8934   -0.9361 C   0  0  0  0  0  0  0  0  0  0  0  0
   -5.8207   -1.2800   -2.4019 H   0  0  0  0  0  0  0  0  0  0  0  0
   -7.8128   -1.8429   -0.7226 H   0  0  0  0  0  0  0  0  0  0  0  0
   -7.2539   -0.2876   -0.0191 H   0  0  0  0  0  0  0  0  0  0  0  0
   -7.8543   -0.3438   -1.7111 H   0  0  0  0  0  0  0  0  0  0  0  0
  1  3  1  0  0  0  0
  1  7  1  0  0  0  0
  1  2  2  0  0  0  0
 35 36  1  0  0  0  0
 36 44  1  0  0  0  0
 36 37  2  0  0  0  0
  8  9  1  0  0  0  0
  9 17  1  0  0  0  0
  9 10  2  0  0  0  0
 18 19  1  0  0  0  0
 19 34  1  0  0  0  0
 19 20  2  0  0  0  0
 35 38  1  0  0  0  0
  8 11  1  0  0  0  0
 44 45  1  0  0  0  0
 23 24  1  0  0  0  0
 21 22  1  0  0  0  0
 18 21  1  0  0  0  0
 22 23  1  0  0  0  0
 34 35  1  0  0  0  0
  7  8  1  0  0  0  0
 17 18  1  0  0  0  0
  3  4  1  0  0  0  0
  3  5  1  0  0  0  0
  3  6  1  0  0  0  0
 38 41  1  0  0  0  0
 38 42  1  0  0  0  0
 38 43  1  0  0  0  0
 11 14  1  0  0  0  0
 11 15  1  0  0  0  0
 11 16  1  0  0  0  0
 45 47  1  0  0  0  0
 45 48  1  0  0  0  0
 45 49  1  0  0  0  0
 24 31  1  0  0  0  0
 24 32  1  0  0  0  0
 24 33  1  0  0  0  0
 21 27  1  0  0  0  0
 21 28  1  0  0  0  0
 22 29  1  0  0  0  0
 22 30  1  0  0  0  0
 35 40  1  0  0  0  0
  8 13  1  0  0  0  0
 18 26  1  0  0  0  0
 44 46  1  0  0  0  0
  7 12  1  0  0  0  0
 34 39  1  0  0  0  0
 17 25  1  0  0  0  0
M  END
$$$$

  -OEChem-05262214473D

 49 48  0     1  0  0  0  0  0999 V2000
   -0.0561   -5.3799    2.6949 C   0  0  0  0  0  0  0  0  0  0  0  0
    0.7325   -5.0736    3.5815 O   0  0  0  0  0  0  0  0  0  0  0  0
   -1.0067   -6.5099    2.9135 C   0  0  0  0  0  0  0  0  0  0  0  0
   -0.5910   -7.4777    2.5899 H   0  0  0  0  0  0  0  0  0  0  0  0
   -1.2629   -6.6440    3.9767 H   0  0  0  0  0  0  0  0  0  0  0  0
   -1.9729   -6.4206    2.3918 H   0  0  0  0  0  0  0  0  0  0  0  0
   -0.1735   -4.7694    1.4571 N   0  0  0  0  0  0  0  0  0  0  0  0
    0.6439   -3.6603    1.0409 C   0  0  2  0  0  0  0  0  0  0  0  0
   -0.2788   -2.5625    0.5280 C   0  0  0  0  0  0  0  0  0  0  0  0
   -1.4197   -2.7791    0.1251 O   0  0  0  0  0  0  0  0  0  0  0  0
    1.6395   -4.0779   -0.0301 C   0  0  0  0  0  0  0  0  0  0  0  0
   -0.8741   -5.1235    0.8083 H   0  0  0  0  0  0  0  0  0  0  0  0
    1.1738   -3.3062    1.9318 H   0  0  0  0  0  0  0  0  0  0  0  0
    1.1270   -4.4358   -0.9305 H   0  0  0  0  0  0  0  0  0  0  0  0
    2.2797   -3.2400   -0.3251 H   0  0  0  0  0  0  0  0  0  0  0  0
    2.2827   -4.8880    0.3303 H   0  0  0  0  0  0  0  0  0  0  0  0
    0.3351   -1.3153    0.5316 N   0  0  0  0  0  0  0  0  0  0  0  0
   -0.3268   -0.1184    0.0807 C   0  0  2  0  0  0  0  0  0  0  0  0
   -1.3372   -0.4935   -0.9990 C   0  0  0  0  0  0  0  0  0  0  0  0
   -1.0629   -0.5041   -2.1973 O   0  0  0  0  0  0  0  0  0  0  0  0
    0.6687    0.9540   -0.3826 C   0  0  0  0  0  0  0  0  0  0  0  0
    1.5451    1.5062    0.7441 C   0  0  0  0  0  0  0  0  0  0  0  0
    0.5196    2.2943    2.0212 S   0  0  0  0  0  0  0  0  0  0  0  0
   -0.0375    3.7218    1.0636 C   0  0  0  0  0  0  0  0  0  0  0  0
    1.2790   -1.2290    0.9021 H   0  0  0  0  0  0  0  0  0  0  0  0
   -0.8820    0.2608    0.9474 H   0  0  0  0  0  0  0  0  0  0  0  0
    0.1027    1.7767   -0.8397 H   0  0  0  0  0  0  0  0  0  0  0  0
    1.3089    0.5322   -1.1681 H   0  0  0  0  0  0  0  0  0  0  0  0
    2.2443    2.2574    0.3648 H   0  0  0  0  0  0  0  0  0  0  0  0
    2.1247    0.7092    1.2191 H   0  0  0  0  0  0  0  0  0  0  0  0
   -0.6919    4.3475    1.6754 H   0  0  0  0  0  0  0  0  0  0  0  0
   -0.5887    3.3851    0.1820 H   0  0  0  0  0  0  0  0  0  0  0  0
    0.8239    4.3124    0.7425 H   0  0  0  0  0  0  0  0  0  0  0  0
   -2.5872   -0.7826   -0.4706 N   0  0  0  0  0  0  0  0  0  0  0  0
   -3.7138   -1.1518   -1.2952 C   0  0  2  0  0  0  0  0  0  0  0  0
   -4.9565   -0.4862   -0.7190 C   0  0  0  0  0  0  0  0  0  0  0  0
   -5.0384   -0.1167    0.4506 O   0  0  0  0  0  0  0  0  0  0  0  0
   -3.8843   -2.6618   -1.3551 C   0  0  0  0  0  0  0  0  0  0  0  0
   -2.7182   -0.7763    0.5366 H   0  0  0  0  0  0  0  0  0  0  0  0
   -3.5167   -0.7539   -2.2966 H   0  0  0  0  0  0  0  0  0  0  0  0
   -4.0826   -3.0786   -0.3609 H   0  0  0  0  0  0  0  0  0  0  0  0
   -4.7213   -2.9412   -2.0035 H   0  0  0  0  0  0  0  0  0  0  0  0
   -2.9786   -3.1413   -1.7419 H   0  0  0  0  0  0  0  0  0  0  0  0
   -5.9789   -0.3923   -1.6529 N   0  0  0  0  0  0  0  0  0  0  0  0
   -7.2645    0.1897   -1.3457 C   0  0  0  0  0  0  0  0  0  0  0  0
   -5.8165   -0.7072   -2.6049 H   0  0  0  0  0  0  0  0  0  0  0  0
   -7.9568   -0.6005   -1.0195 H   0  0  0  0  0  0  0  0  0  0  0  0
   -7.1486    0.9306   -0.5409 H   0  0  0  0  0  0  0  0  0  0  0  0
   -7.6674    0.6827   -2.2426 H   0  0  0  0  0  0  0  0  0  0  0  0
  1  3  1  0  0  0  0
  1  7  1  0  0  0  0
  1  2  2  0  0  0  0
 35 36  1  0  0  0  0
 36 44  1  0  0  0  0
 36 37  2  0  0  0  0
  8  9  1  0  0  0  0
  9 17  1  0  0  0  0
  9 10  2  0  0  0  0
 18 19  1  0  0  0  0
 19 34  1  0  0  0  0
 19 20  2  0  0  0  0
 35 38  1  0  0  0  0
  8 11  1  0  0  0  0
 44 45  1  0  0  0  0
 23 24  1  0  0  0  0
 21 22  1  0  0  0  0
 18 21  1  0  0  0  0
 22 23  1  0  0  0  0
 34 35  1  0  0  0  0
  7  8  1  0  0  0  0
 17 18  1  0  0  0  0
  3  4  1  0  0  0  0
  3  5  1  0  0  0  0
  3  6  1  0  0  0  0
 38 41  1  0  0  0  0
 38 42  1  0  0  0  0
 38 43  1  0  0  0  0
 11 14  1  0  0  0  0
 11 15  1  0  0  0  0
 11 16  1  0  0  0  0
 45 47  1  0  0  0  0
 45 48  1  0  0  0  0
 45 49  1  0  0  0  0
 24 31  1  0  0  0  0
 24 32  1  0  0  0  0
 24 33  1  0  0  0  0
 21 27  1  0  0  0  0
 21 28  1  0  0  0  0
 22 29  1  0  0  0  0
 22 30  1  0  0  0  0
 35 40  1  0  0  0  0
  8 13  1  0  0  0  0
 18 26  1  0  0  0  0
 44 46  1  0  0  0  0
  7 12  1  0  0  0  0
 34 39  1  0  0  0  0
 17 25  1  0  0  0  0
M  END
$$$$

  -OEChem-05262214473D

 49 48  0     1  0  0  0  0  0999 V2000
   -0.0561   -5.3799    2.6949 C   0  0  0  0  0  0  0  0  0  0  0  0
    0.7325   -5.0736    3.5815 O   0  0  0  0  0  0  0  0  0  0  0  0
   -1.0067   -6.5099    2.9135 C   0  0  0  0  0  0  0  0  0  0  0  0
   -0.5910   -7.4777    2.5899 H   0  0  0  0  0  0  0  0  0  0  0  0
   -1.2629   -6.6440    3.9767 H   0  0  0  0  0  0  0  0  0  0  0  0
   -1.9729   -6.4206    2.3918 H   0  0  0  0  0  0  0  0  0  0  0  0
   -0.1735   -4.7694    1.4571 N   0  0  0  0  0  0  0  0  0  0  0  0
    0.6439   -3.6603    1.0409 C   0  0  2  0  0  0  0  0  0  0  0  0
   -0.2788   -2.5625    0.5280 C   0  0  0  0  0  0  0  0  0  0  0  0
   -1.4197   -2.7791    0.1251 O   0  0  0  0  0  0  0  0  0  0  0  0
    1.6395   -4.0779   -0.0301 C   0  0  0  0  0  0  0  0  0  0  0  0
   -0.8741   -5.1235    0.8083 H   0  0  0  0  0  0  0  0  0  0  0  0
    1.1738   -3.3062    1.9318 H   0  0  0  0  0  0  0  0  0  0  0  0
    1.1270   -4.4358   -0.9305 H   0  0  0  0  0  0  0  0  0  0  0  0
    2.2797   -3.2400   -0.3251 H   0  0  0  0  0  0  0  0  0  0  0  0
    2.2827   -4.8880    0.3303 H   0  0  0  0  0  0  0  0  0  0  0  0
    0.3351   -1.3153    0.5316 N   0  0  0  0  0  0  0  0  0  0  0  0
   -0.3268   -0.1184    0.0807 C   0  0  2  0  0  0  0  0  0  0  0  0
   -1.3372   -0.4935   -0.9990 C   0  0  0  0  0  0  0  0  0  0  0  0
   -1.0130   -0.7650   -2.1533 O   0  0  0  0  0  0  0  0  0  0  0  0
    0.6687    0.9540   -0.3826 C   0  0  0  0  0  0  0  0  0  0  0  0
    1.5451    1.5062    0.7441 C   0  0  0  0  0  0  0  0  0  0  0  0
    0.5196    2.2943    2.0212 S   0  0  0  0  0  0  0  0  0  0  0  0
   -0.0375    3.7218    1.0636 C   0  0  0  0  0  0  0  0  0  0  0  0
    1.2790   -1.2290    0.9021 H   0  0  0  0  0  0  0  0  0  0  0  0
   -0.8820    0.2608    0.9474 H   0  0  0  0  0  0  0  0  0  0  0  0
    0.1027    1.7767   -0.8397 H   0  0  0  0  0  0  0  0  0  0  0  0
    1.3089    0.5322   -1.1681 H   0  0  0  0  0  0  0  0  0  0  0  0
    2.2443    2.2574    0.3648 H   0  0  0  0  0  0  0  0  0  0  0  0
    2.1247    0.7092    1.2191 H   0  0  0  0  0  0  0  0  0  0  0  0
   -0.6919    4.3475    1.6754 H   0  0  0  0  0  0  0  0  0  0  0  0
   -0.5887    3.3851    0.1820 H   0  0  0  0  0  0  0  0  0  0  0  0
    0.8239    4.3124    0.7425 H   0  0  0  0  0  0  0  0  0  0  0  0
   -2.6430   -0.4576   -0.5313 N   0  0  0  0  0  0  0  0  0  0  0  0
   -3.7785   -0.7612   -1.3704 C   0  0  2  0  0  0  0  0  0  0  0  0
   -4.8993    0.2061   -1.0131 C   0  0  0  0  0  0  0  0  0  0  0  0
   -4.9656    0.7857    0.0689 O   0  0  0  0  0  0  0  0  0  0  0  0
   -4.2278   -2.2031   -1.1930 C   0  0  0  0  0  0  0  0  0  0  0  0
   -2.8184   -0.2496    0.4473 H   0  0  0  0  0  0  0  0  0  0  0  0
   -3.4623   -0.5886   -2.4049 H   0  0  0  0  0  0  0  0  0  0  0  0
   -4.5484   -2.3950   -0.1625 H   0  0  0  0  0  0  0  0  0  0  0  0
   -5.0706   -2.4399   -1.8508 H   0  0  0  0  0  0  0  0  0  0  0  0
   -3.4114   -2.8967   -1.4217 H   0  0  0  0  0  0  0  0  0  0  0  0
   -5.8398    0.3130   -2.0281 N   0  0  0  0  0  0  0  0  0  0  0  0
   -7.0057    1.1592   -1.9247 C   0  0  0  0  0  0  0  0  0  0  0  0
   -5.6946   -0.1896   -2.8988 H   0  0  0  0  0  0  0  0  0  0  0  0
   -7.8494    0.5751   -1.5284 H   0  0  0  0  0  0  0  0  0  0  0  0
   -6.7905    1.9984   -1.2470 H   0  0  0  0  0  0  0  0  0  0  0  0
   -7.2651    1.5489   -2.9201 H   0  0  0  0  0  0  0  0  0  0  0  0
  1  3  1  0  0  0  0
  1  7  1  0  0  0  0
  1  2  2  0  0  0  0
 35 36  1  0  0  0  0
 36 44  1  0  0  0  0
 36 37  2  0  0  0  0
  8  9  1  0  0  0  0
  9 17  1  0  0  0  0
  9 10  2  0  0  0  0
 18 19  1  0  0  0  0
 19 34  1  0  0  0  0
 19 20  2  0  0  0  0
 35 38  1  0  0  0  0
  8 11  1  0  0  0  0
 44 45  1  0  0  0  0
 23 24  1  0  0  0  0
 21 22  1  0  0  0  0
 18 21  1  0  0  0  0
 22 23  1  0  0  0  0
 34 35  1  0  0  0  0
  7  8  1  0  0  0  0
 17 18  1  0  0  0  0
  3  4  1  0  0  0  0
  3  5  1  0  0  0  0
  3  6  1  0  0  0  0
 38 41  1  0  0  0  0
 38 42  1  0  0  0  0
 38 43  1  0  0  0  0
 11 14  1  0  0  0  0
 11 15  1  0  0  0  0
 11 16  1  0  0  0  0
 45 47  1  0  0  0  0
 45 48  1  0  0  0  0
 45 49  1  0  0  0  0
 24 31  1  0  0  0  0
 24 32  1  0  0  0  0
 24 33  1  0  0  0  0
 21 27  1  0  0  0  0
 21 28  1  0  0  0  0
 22 29  1  0  0  0  0
 22 30  1  0  0  0  0
 35 40  1  0  0  0  0
  8 13  1  0  0  0  0
 18 26  1  0  0  0  0
 44 46  1  0  0  0  0
  7 12  1  0  0  0  0
 34 39  1  0  0  0  0
 17 25  1  0  0  0  0
M  END
$$$$

  -OEChem-05262214473D

 49 48  0     1  0  0  0  0  0999 V2000
   -0.0561   -5.3799    2.6949 C   0  0  0  0  0  0  0  0  0  0  0  0
    0.7325   -5.0736    3.5815 O   0  0  0  0  0  0  0  0  0  0  0  0
   -1.0067   -6.5099    2.9135 C   0  0  0  0  0  0  0  0  0  0  0  0
   -0.5910   -7.4777    2.5899 H   0  0  0  0  0  0  0  0  0  0  0  0
   -1.2629   -6.6440    3.9767 H   0  0  0  0  0  0  0  0  0  0  0  0
   -1.9729   -6.4206    2.3918 H   0  0  0  0  0  0  0  0  0  0  0  0
   -0.1735   -4.7694    1.4571 N   0  0  0  0  0  0  0  0  0  0  0  0
    0.6439   -3.6603    1.0409 C   0  0  2  0  0  0  0  0  0  0  0  0
   -0.2788   -2.5625    0.5280 C   0  0  0  0  0  0  0  0  0  0  0  0
   -1.4197   -2.7791    0.1251 O   0  0  0  0  0  0  0  0  0  0  0  0
    1.6395   -4.0779   -0.0301 C   0  0  0  0  0  0  0  0  0  0  0  0
   -0.8741   -5.1235    0.8083 H   0  0  0  0  0  0  0  0  0  0  0  0
    1.1738   -3.3062    1.9318 H   0  0  0  0  0  0  0  0  0  0  0  0
    1.1270   -4.4358   -0.9305 H   0  0  0  0  0  0  0  0  0  0  0  0
    2.2797   -3.2400   -0.3251 H   0  0  0  0  0  0  0  0  0  0  0  0
    2.2827   -4.8880    0.3303 H   0  0  0  0  0  0  0  0  0  0  0  0
    0.3351   -1.3153    0.5316 N   0  0  0  0  0  0  0  0  0  0  0  0
   -0.3268   -0.1184    0.0807 C   0  0  2  0  0  0  0  0  0  0  0  0
   -1.3372   -0.4935   -0.9990 C   0  0  0  0  0  0  0  0  0  0  0  0
   -1.0154   -1.0186   -2.0629 O   0  0  0  0  0  0  0  0  0  0  0  0
    0.6687    0.9540   -0.3826 C   0  0  0  0  0  0  0  0  0  0  0  0
    1.5451    1.5062    0.7441 C   0  0  0  0  0  0  0  0  0  0  0  0
    0.5196    2.2943    2.0212 S   0  0  0  0  0  0  0  0  0  0  0  0
   -0.0375    3.7218    1.0636 C   0  0  0  0  0  0  0  0  0  0  0  0
    1.2790   -1.2290    0.9021 H   0  0  0  0  0  0  0  0  0  0  0  0
   -0.8820    0.2608    0.9474 H   0  0  0  0  0  0  0  0  0  0  0  0
    0.1027    1.7767   -0.8397 H   0  0  0  0  0  0  0  0  0  0  0  0
    1.3089    0.5322   -1.1681 H   0  0  0  0  0  0  0  0  0  0  0  0
    2.2443    2.2574    0.3648 H   0  0  0  0  0  0  0  0  0  0  0  0
    2.1247    0.7092    1.2191 H   0  0  0  0  0  0  0  0  0  0  0  0
   -0.6919    4.3475    1.6754 H   0  0  0  0  0  0  0  0  0  0  0  0
   -0.5887    3.3851    0.1820 H   0  0  0  0  0  0  0  0  0  0  0  0
    0.8239    4.3124    0.7425 H   0  0  0  0  0  0  0  0  0  0  0  0
   -2.6336   -0.1439   -0.6491 N   0  0  0  0  0  0  0  0  0  0  0  0
   -3.7646   -0.3848   -1.5141 C   0  0  2  0  0  0  0  0  0  0  0  0
   -4.6984    0.8139   -1.4122 C   0  0  0  0  0  0  0  0  0  0  0  0
   -4.7057    1.5786   -0.4498 O   0  0  0  0  0  0  0  0  0  0  0  0
   -4.4859   -1.6694   -1.1369 C   0  0  0  0  0  0  0  0  0  0  0  0
   -2.8130    0.2622    0.2644 H   0  0  0  0  0  0  0  0  0  0  0  0
   -3.3726   -0.4574   -2.5345 H   0  0  0  0  0  0  0  0  0  0  0  0
   -4.8857   -1.6154   -0.1177 H   0  0  0  0  0  0  0  0  0  0  0  0
   -5.3259   -1.8655   -1.8114 H   0  0  0  0  0  0  0  0  0  0  0  0
   -3.8052   -2.5263   -1.1820 H   0  0  0  0  0  0  0  0  0  0  0  0
   -5.5524    0.9044   -2.5025 N   0  0  0  0  0  0  0  0  0  0  0  0
   -6.5412    1.9489   -2.6337 C   0  0  0  0  0  0  0  0  0  0  0  0
   -5.4633    0.2378   -3.2637 H   0  0  0  0  0  0  0  0  0  0  0  0
   -7.4979    1.6037   -2.2147 H   0  0  0  0  0  0  0  0  0  0  0  0
   -6.2041    2.8433   -2.0893 H   0  0  0  0  0  0  0  0  0  0  0  0
   -6.6747    2.1958   -3.6974 H   0  0  0  0  0  0  0  0  0  0  0  0
  1  3  1  0  0  0  0
  1  7  1  0  0  0  0
  1  2  2  0  0  0  0
 35 36  1  0  0  0  0
 36 44  1  0  0  0  0
 36 37  2  0  0  0  0
  8  9  1  0  0  0  0
  9 17  1  0  0  0  0
  9 10  2  0  0  0  0
 18 19  1  0  0  0  0
 19 34  1  0  0  0  0
 19 20  2  0  0  0  0
 35 38  1  0  0  0  0
  8 11  1  0  0  0  0
 44 45  1  0  0  0  0
 23 24  1  0  0  0  0
 21 22  1  0  0  0  0
 18 21  1  0  0  0  0
 22 23  1  0  0  0  0
 34 35  1  0  0  0  0
  7  8  1  0  0  0  0
 17 18  1  0  0  0  0
  3  4  1  0  0  0  0
  3  5  1  0  0  0  0
  3  6  1  0  0  0  0
 38 41  1  0  0  0  0
 38 42  1  0  0  0  0
 38 43  1  0  0  0  0
 11 14  1  0  0  0  0
 11 15  1  0  0  0  0
 11 16  1  0  0  0  0
 45 47  1  0  0  0  0
 45 48  1  0  0  0  0
 45 49  1  0  0  0  0
 24 31  1  0  0  0  0
 24 32  1  0  0  0  0
 24 33  1  0  0  0  0
 21 27  1  0  0  0  0
 21 28  1  0  0  0  0
 22 29  1  0  0  0  0
 22 30  1  0  0  0  0
 35 40  1  0  0  0  0
  8 13  1  0  0  0  0
 18 26  1  0  0  0  0
 44 46  1  0  0  0  0
  7 12  1  0  0  0  0
 34 39  1  0  0  0  0
 17 25  1  0  0  0  0
M  END
$$$$

  -OEChem-05262214473D

 49 48  0     1  0  0  0  0  0999 V2000
   -0.0561   -5.3799    2.6949 C   0  0  0  0  0  0  0  0  0  0  0  0
    0.7325   -5.0736    3.5815 O   0  0  0  0  0  0  0  0  0  0  0  0
   -1.0067   -6.5099    2.9135 C   0  0  0  0  0  0  0  0  0  0  0  0
   -0.5910   -7.4777    2.5899 H   0  0  0  0  0  0  0  0  0  0  0  0
   -1.2629   -6.6440    3.9767 H   0  0  0  0  0  0  0  0  0  0  0  0
   -1.9729   -6.4206    2.3918 H   0  0  0  0  0  0  0  0  0  0  0  0
   -0.1735   -4.7694    1.4571 N   0  0  0  0  0  0  0  0  0  0  0  0
    0.6439   -3.6603    1.0409 C   0  0  2  0  0  0  0  0  0  0  0  0
   -0.2788   -2.5625    0.5280 C   0  0  0  0  0  0  0  0  0  0  0  0
   -1.4197   -2.7791    0.1251 O   0  0  0  0  0  0  0  0  0  0  0  0
    1.6395   -4.0779   -0.0301 C   0  0  0  0  0  0  0  0  0  0  0  0
   -0.8741   -5.1235    0.8083 H   0  0  0  0  0  0  0  0  0  0  0  0
    1.1738   -3.3062    1.9318 H   0  0  0  0  0  0  0  0  0  0  0  0
    1.1270   -4.4358   -0.9305 H   0  0  0  0  0  0  0  0  0  0  0  0
    2.2797   -3.2400   -0.3251 H   0  0  0  0  0  0  0  0  0  0  0  0
    2.2827   -4.8880    0.3303 H   0  0  0  0  0  0  0  0  0  0  0  0
    0.3351   -1.3153    0.5316 N   0  0  0  0  0  0  0  0  0  0  0  0
   -0.3268   -0.1184    0.0807 C   0  0  2  0  0  0  0  0  0  0  0  0
   -1.3372   -0.4935   -0.9990 C   0  0  0  0  0  0  0  0  0  0  0  0
   -1.0700   -1.2477   -1.9323 O   0  0  0  0  0  0  0  0  0  0  0  0
    0.6687    0.9540   -0.3826 C   0  0  0  0  0  0  0  0  0  0  0  0
    1.5451    1.5062    0.7441 C   0  0  0  0  0  0  0  0  0  0  0  0
    0.5196    2.2943    2.0212 S   0  0  0  0  0  0  0  0  0  0  0  0
   -0.0375    3.7218    1.0636 C   0  0  0  0  0  0  0  0  0  0  0  0
    1.2790   -1.2290    0.9021 H   0  0  0  0  0  0  0  0  0  0  0  0
   -0.8820    0.2608    0.9474 H   0  0  0  0  0  0  0  0  0  0  0  0
    0.1027    1.7767   -0.8397 H   0  0  0  0  0  0  0  0  0  0  0  0
    1.3089    0.5322   -1.1681 H   0  0  0  0  0  0  0  0  0  0  0  0
    2.2443    2.2574    0.3648 H   0  0  0  0  0  0  0  0  0  0  0  0
    2.1247    0.7092    1.2191 H   0  0  0  0  0  0  0  0  0  0  0  0
   -0.6919    4.3475    1.6754 H   0  0  0  0  0  0  0  0  0  0  0  0
   -0.5887    3.3851    0.1820 H   0  0  0  0  0  0  0  0  0  0  0  0
    0.8239    4.3124    0.7425 H   0  0  0  0  0  0  0  0  0  0  0  0
   -2.5595    0.1372   -0.8162 N   0  0  0  0  0  0  0  0  0  0  0  0
   -3.6731   -0.0485   -1.7166 C   0  0  2  0  0  0  0  0  0  0  0  0
   -4.3677    1.2958   -1.8891 C   0  0  0  0  0  0  0  0  0  0  0  0
   -4.2764    2.2080   -1.0702 O   0  0  0  0  0  0  0  0  0  0  0  0
   -4.6411   -1.0969   -1.1906 C   0  0  0  0  0  0  0  0  0  0  0  0
   -2.7023    0.7242    0.0004 H   0  0  0  0  0  0  0  0  0  0  0  0
   -3.2537   -0.3694   -2.6764 H   0  0  0  0  0  0  0  0  0  0  0  0
   -5.0715   -0.7929   -0.2295 H   0  0  0  0  0  0  0  0  0  0  0  0
   -5.4699   -1.2572   -1.8881 H   0  0  0  0  0  0  0  0  0  0  0  0
   -4.1329   -2.0553   -1.0389 H   0  0  0  0  0  0  0  0  0  0  0  0
   -5.1363    1.3417   -3.0438 N   0  0  0  0  0  0  0  0  0  0  0  0
   -5.9028    2.5052   -3.4244 C   0  0  0  0  0  0  0  0  0  0  0  0
   -5.1384    0.5456   -3.6746 H   0  0  0  0  0  0  0  0  0  0  0  0
   -6.9263    2.4152   -3.0316 H   0  0  0  0  0  0  0  0  0  0  0  0
   -5.4293    3.4076   -3.0104 H   0  0  0  0  0  0  0  0  0  0  0  0
   -5.9364    2.5792   -4.5214 H   0  0  0  0  0  0  0  0  0  0  0  0
  1  3  1  0  0  0  0
  1  7  1  0  0  0  0
  1  2  2  0  0  0  0
 35 36  1  0  0  0  0
 36 44  1  0  0  0  0
 36 37  2  0  0  0  0
  8  9  1  0  0  0  0
  9 17  1  0  0  0  0
  9 10  2  0  0  0  0
 18 19  1  0  0  0  0
 19 34  1  0  0  0  0
 19 20  2  0  0  0  0
 35 38  1  0  0  0  0
  8 11  1  0  0  0  0
 44 45  1  0  0  0  0
 23 24  1  0  0  0  0
 21 22  1  0  0  0  0
 18 21  1  0  0  0  0
 22 23  1  0  0  0  0
 34 35  1  0  0  0  0
  7  8  1  0  0  0  0
 17 18  1  0  0  0  0
  3  4  1  0  0  0  0
  3  5  1  0  0  0  0
  3  6  1  0  0  0  0
 38 41  1  0  0  0  0
 38 42  1  0  0  0  0
 38 43  1  0  0  0  0
 11 14  1  0  0  0  0
 11 15  1  0  0  0  0
 11 16  1  0  0  0  0
 45 47  1  0  0  0  0
 45 48  1  0  0  0  0
 45 49  1  0  0  0  0
 24 31  1  0  0  0  0
 24 32  1  0  0  0  0
 24 33  1  0  0  0  0
 21 27  1  0  0  0  0
 21 28  1  0  0  0  0
 22 29  1  0  0  0  0
 22 30  1  0  0  0  0
 35 40  1  0  0  0  0
  8 13  1  0  0  0  0
 18 26  1  0  0  0  0
 44 46  1  0  0  0  0
  7 12  1  0  0  0  0
 34 39  1  0  0  0  0
 17 25  1  0  0  0  0
M  END
$$$$

  -OEChem-05262214473D

 49 48  0     1  0  0  0  0  0999 V2000
   -0.0561   -5.3799    2.6949 C   0  0  0  0  0  0  0  0  0  0  0  0
    0.7325   -5.0736    3.5815 O   0  0  0  0  0  0  0  0  0  0  0  0
   -1.0067   -6.5099    2.9135 C   0  0  0  0  0  0  0  0  0  0  0  0
   -0.5910   -7.4777    2.5899 H   0  0  0  0  0  0  0  0  0  0  0  0
   -1.2629   -6.6440    3.9767 H   0  0  0  0  0  0  0  0  0  0  0  0
   -1.9729   -6.4206    2.3918 H   0  0  0  0  0  0  0  0  0  0  0  0
   -0.1735   -4.7694    1.4571 N   0  0  0  0  0  0  0  0  0  0  0  0
    0.6439   -3.6603    1.0409 C   0  0  2  0  0  0  0  0  0  0  0  0
   -0.2788   -2.5625    0.5280 C   0  0  0  0  0  0  0  0  0  0  0  0
   -1.4197   -2.7791    0.1251 O   0  0  0  0  0  0  0  0  0  0  0  0
    1.6395   -4.0779   -0.0301 C   0  0  0  0  0  0  0  0  0  0  0  0
   -0.8741   -5.1235    0.8083 H   0  0  0  0  0  0  0  0  0  0  0  0
    1.1738   -3.3062    1.9318 H   0  0  0  0  0  0  0  0  0  0  0  0
    1.1270   -4.4358   -0.9305 H   0  0  0  0  0  0  0  0  0  0  0  0
    2.2797   -3.2400   -0.3251 H   0  0  0  0  0  0  0  0  0  0  0  0
    2.2827   -4.8880    0.3303 H   0  0  0  0  0  0  0  0  0  0  0  0
    0.3351   -1.3153    0.5316 N   0  0  0  0  0  0  0  0  0  0  0  0
   -0.3268   -0.1184    0.0807 C   0  0  2  0  0  0  0  0  0  0  0  0
   -1.3372   -0.4935   -0.9990 C   0  0  0  0  0  0  0  0  0  0  0  0
   -1.1729   -1.4365   -1.7703 O   0  0  0  0  0  0  0  0  0  0  0  0
    0.6687    0.9540   -0.3826 C   0  0  0  0  0  0  0  0  0  0  0  0
    1.5451    1.5062    0.7441 C   0  0  0  0  0  0  0  0  0  0  0  0
    0.5196    2.2943    2.0212 S   0  0  0  0  0  0  0  0  0  0  0  0
   -0.0375    3.7218    1.0636 C   0  0  0  0  0  0  0  0  0  0  0  0
    1.2790   -1.2290    0.9021 H   0  0  0  0  0  0  0  0  0  0  0  0
   -0.8820    0.2608    0.9474 H   0  0  0  0  0  0  0  0  0  0  0  0
    0.1027    1.7767   -0.8397 H   0  0  0  0  0  0  0  0  0  0  0  0
    1.3089    0.5322   -1.1681 H   0  0  0  0  0  0  0  0  0  0  0  0
    2.2443    2.2574    0.3648 H   0  0  0  0  0  0  0  0  0  0  0  0
    2.1247    0.7092    1.2191 H   0  0  0  0  0  0  0  0  0  0  0  0
   -0.6919    4.3475    1.6754 H   0  0  0  0  0  0  0  0  0  0  0  0
   -0.5887    3.3851    0.1820 H   0  0  0  0  0  0  0  0  0  0  0  0
    0.8239    4.3124    0.7425 H   0  0  0  0  0  0  0  0  0  0  0  0
   -2.4258    0.3666   -1.0209 N   0  0  0  0  0  0  0  0  0  0  0  0
   -3.5102    0.2249   -1.9640 C   0  0  2  0  0  0  0  0  0  0  0  0
   -3.9296    1.6190   -2.4114 C   0  0  0  0  0  0  0  0  0  0  0  0
   -3.7069    2.6310   -1.7501 O   0  0  0  0  0  0  0  0  0  0  0  0
   -4.6826   -0.5247   -1.3505 C   0  0  0  0  0  0  0  0  0  0  0  0
   -2.4941    1.1049   -0.3268 H   0  0  0  0  0  0  0  0  0  0  0  0
   -3.1136   -0.3304   -2.8210 H   0  0  0  0  0  0  0  0  0  0  0  0
   -5.0933    0.0164   -0.4903 H   0  0  0  0  0  0  0  0  0  0  0  0
   -5.4925   -0.6563   -2.0756 H   0  0  0  0  0  0  0  0  0  0  0  0
   -4.3722   -1.5158   -1.0023 H   0  0  0  0  0  0  0  0  0  0  0  0
   -4.6198    1.5951   -3.6152 N   0  0  0  0  0  0  0  0  0  0  0  0
   -5.1339    2.7900   -4.2429 C   0  0  0  0  0  0  0  0  0  0  0  0
   -4.7421    0.7130   -4.1037 H   0  0  0  0  0  0  0  0  0  0  0  0
   -6.1736    2.9544   -3.9233 H   0  0  0  0  0  0  0  0  0  0  0  0
   -4.5189    3.6528   -3.9476 H   0  0  0  0  0  0  0  0  0  0  0  0
   -5.1007    2.6730   -5.3362 H   0  0  0  0  0  0  0  0  0  0  0  0
  1  3  1  0  0  0  0
  1  7  1  0  0  0  0
  1  2  2  0  0  0  0
 35 36  1  0  0  0  0
 36 44  1  0  0  0  0
 36 37  2  0  0  0  0
  8  9  1  0  0  0  0
  9 17  1  0  0  0  0
  9 10  2  0  0  0  0
 18 19  1  0  0  0  0
 19 34  1  0  0  0  0
 19 20  2  0  0  0  0
 35 38  1  0  0  0  0
  8 11  1  0  0  0  0
 44 45  1  0  0  0  0
 23 24  1  0  0  0  0
 21 22  1  0  0  0  0
 18 21  1  0  0  0  0
 22 23  1  0  0  0  0
 34 35  1  0  0  0  0
  7  8  1  0  0  0  0
 17 18  1  0  0  0  0
  3  4  1  0  0  0  0
  3  5  1  0  0  0  0
  3  6  1  0  0  0  0
 38 41  1  0  0  0  0
 38 42  1  0  0  0  0
 38 43  1  0  0  0  0
 11 14  1  0  0  0  0
 11 15  1  0  0  0  0
 11 16  1  0  0  0  0
 45 47  1  0  0  0  0
 45 48  1  0  0  0  0
 45 49  1  0  0  0  0
 24 31  1  0  0  0  0
 24 32  1  0  0  0  0
 24 33  1  0  0  0  0
 21 27  1  0  0  0  0
 21 28  1  0  0  0  0
 22 29  1  0  0  0  0
 22 30  1  0  0  0  0
 35 40  1  0  0  0  0
  8 13  1  0  0  0  0
 18 26  1  0  0  0  0
 44 46  1  0  0  0  0
  7 12  1  0  0  0  0
 34 39  1  0  0  0  0
 17 25  1  0  0  0  0
M  END
$$$$

  -OEChem-05262214473D

 49 48  0     1  0  0  0  0  0999 V2000
   -0.0561   -5.3799    2.6949 C   0  0  0  0  0  0  0  0  0  0  0  0
    0.7325   -5.0736    3.5815 O   0  0  0  0  0  0  0  0  0  0  0  0
   -1.0067   -6.5099    2.9135 C   0  0  0  0  0  0  0  0  0  0  0  0
   -0.5910   -7.4777    2.5899 H   0  0  0  0  0  0  0  0  0  0  0  0
   -1.2629   -6.6440    3.9767 H   0  0  0  0  0  0  0  0  0  0  0  0
   -1.9729   -6.4206    2.3918 H   0  0  0  0  0  0  0  0  0  0  0  0
   -0.1735   -4.7694    1.4571 N   0  0  0  0  0  0  0  0  0  0  0  0
    0.6439   -3.6603    1.0409 C   0  0  2  0  0  0  0  0  0  0  0  0
   -0.2788   -2.5625    0.5280 C   0  0  0  0  0  0  0  0  0  0  0  0
   -1.4197   -2.7791    0.1251 O   0  0  0  0  0  0  0  0  0  0  0  0
    1.6395   -4.0779   -0.0301 C   0  0  0  0  0  0  0  0  0  0  0  0
   -0.8741   -5.1235    0.8083 H   0  0  0  0  0  0  0  0  0  0  0  0
    1.1738   -3.3062    1.9318 H   0  0  0  0  0  0  0  0  0  0  0  0
    1.1270   -4.4358   -0.9305 H   0  0  0  0  0  0  0  0  0  0  0  0
    2.2797   -3.2400   -0.3251 H   0  0  0  0  0  0  0  0  0  0  0  0
    2.2827   -4.8880    0.3303 H   0  0  0  0  0  0  0  0  0  0  0  0
    0.3351   -1.3153    0.5316 N   0  0  0  0  0  0  0  0  0  0  0  0
   -0.3268   -0.1184    0.0807 C   0  0  2  0  0  0  0  0  0  0  0  0
   -1.3372   -0.4935   -0.9990 C   0  0  0  0  0  0  0  0  0  0  0  0
   -1.3173   -1.5723   -1.5881 O   0  0  0  0  0  0  0  0  0  0  0  0
    0.6687    0.9540   -0.3826 C   0  0  0  0  0  0  0  0  0  0  0  0
    1.5451    1.5062    0.7441 C   0  0  0  0  0  0  0  0  0  0  0  0
    0.5196    2.2943    2.0212 S   0  0  0  0  0  0  0  0  0  0  0  0
   -0.0375    3.7218    1.0636 C   0  0  0  0  0  0  0  0  0  0  0  0
    1.2790   -1.2290    0.9021 H   0  0  0  0  0  0  0  0  0  0  0  0
   -0.8820    0.2608    0.9474 H   0  0  0  0  0  0  0  0  0  0  0  0
    0.1027    1.7767   -0.8397 H   0  0  0  0  0  0  0  0  0  0  0  0
    1.3089    0.5322   -1.1681 H   0  0  0  0  0  0  0  0  0  0  0  0
    2.2443    2.2574    0.3648 H   0  0  0  0  0  0  0  0  0  0  0  0
    2.1247    0.7092    1.2191 H   0  0  0  0  0  0  0  0  0  0  0  0
   -0.6919    4.3475    1.6754 H   0  0  0  0  0  0  0  0  0  0  0  0
   -0.5887    3.3851    0.1820 H   0  0  0  0  0  0  0  0  0  0  0  0
    0.8239    4.3124    0.7425 H   0  0  0  0  0  0  0  0  0  0  0  0
   -2.2416    0.5285   -1.2496 N   0  0  0  0  0  0  0  0  0  0  0  0
   -3.2871    0.4167   -2.2395 C   0  0  2  0  0  0  0  0  0  0  0  0
   -3.4140    1.7613   -2.9433 C   0  0  0  0  0  0  0  0  0  0  0  0
   -3.0361    2.8187   -2.4430 O   0  0  0  0  0  0  0  0  0  0  0  0
   -4.6078    0.0081   -1.6057 C   0  0  0  0  0  0  0  0  0  0  0  0
   -2.2023    1.3784   -0.6948 H   0  0  0  0  0  0  0  0  0  0  0  0
   -2.9620   -0.3432   -2.9584 H   0  0  0  0  0  0  0  0  0  0  0  0
   -4.9495    0.7575   -0.8824 H   0  0  0  0  0  0  0  0  0  0  0  0
   -5.3925   -0.1040   -2.3612 H   0  0  0  0  0  0  0  0  0  0  0  0
   -4.5070   -0.9446   -1.0747 H   0  0  0  0  0  0  0  0  0  0  0  0
   -4.0381    1.6474   -4.1777 N   0  0  0  0  0  0  0  0  0  0  0  0
   -4.2870    2.7840   -5.0334 C   0  0  0  0  0  0  0  0  0  0  0  0
   -4.3013    0.7286   -4.5217 H   0  0  0  0  0  0  0  0  0  0  0  0
   -5.2910    3.1844   -4.8292 H   0  0  0  0  0  0  0  0  0  0  0  0
   -3.5350    3.5623   -4.8369 H   0  0  0  0  0  0  0  0  0  0  0  0
   -4.2243    2.4710   -6.0860 H   0  0  0  0  0  0  0  0  0  0  0  0
  1  3  1  0  0  0  0
  1  7  1  0  0  0  0
  1  2  2  0  0  0  0
 35 36  1  0  0  0  0
 36 44  1  0  0  0  0
 36 37  2  0  0  0  0
  8  9  1  0  0  0  0
  9 17  1  0  0  0  0
  9 10  2  0  0  0  0
 18 19  1  0  0  0  0
 19 34  1  0  0  0  0
 19 20  2  0  0  0  0
 35 38  1  0  0  0  0
  8 11  1  0  0  0  0
 44 45  1  0  0  0  0
 23 24  1  0  0  0  0
 21 22  1  0  0  0  0
 18 21  1  0  0  0  0
 22 23  1  0  0  0  0
 34 35  1  0  0  0  0
  7  8  1  0  0  0  0
 17 18  1  0  0  0  0
  3  4  1  0  0  0  0
  3  5  1  0  0  0  0
  3  6  1  0  0  0  0
 38 41  1  0  0  0  0
 38 42  1  0  0  0  0
 38 43  1  0  0  0  0
 11 14  1  0  0  0  0
 11 15  1  0  0  0  0
 11 16  1  0  0  0  0
 45 47  1  0  0  0  0
 45 48  1  0  0  0  0
 45 49  1  0  0  0  0
 24 31  1  0  0  0  0
 24 32  1  0  0  0  0
 24 33  1  0  0  0  0
 21 27  1  0  0  0  0
 21 28  1  0  0  0  0
 22 29  1  0  0  0  0
 22 30  1  0  0  0  0
 35 40  1  0  0  0  0
  8 13  1  0  0  0  0
 18 26  1  0  0  0  0
 44 46  1  0  0  0  0
  7 12  1  0  0  0  0
 34 39  1  0  0  0  0
 17 25  1  0  0  0  0
M  END
$$$$

  -OEChem-05262214473D

 49 48  0     1  0  0  0  0  0999 V2000
   -0.0561   -5.3799    2.6949 C   0  0  0  0  0  0  0  0  0  0  0  0
    0.7325   -5.0736    3.5815 O   0  0  0  0  0  0  0  0  0  0  0  0
   -1.0067   -6.5099    2.9135 C   0  0  0  0  0  0  0  0  0  0  0  0
   -0.5910   -7.4777    2.5899 H   0  0  0  0  0  0  0  0  0  0  0  0
   -1.2629   -6.6440    3.9767 H   0  0  0  0  0  0  0  0  0  0  0  0
   -1.9729   -6.4206    2.3918 H   0  0  0  0  0  0  0  0  0  0  0  0
   -0.1735   -4.7694    1.4571 N   0  0  0  0  0  0  0  0  0  0  0  0
    0.6439   -3.6603    1.0409 C   0  0  2  0  0  0  0  0  0  0  0  0
   -0.2788   -2.5625    0.5280 C   0  0  0  0  0  0  0  0  0  0  0  0
   -1.4197   -2.7791    0.1251 O   0  0  0  0  0  0  0  0  0  0  0  0
    1.6395   -4.0779   -0.0301 C   0  0  0  0  0  0  0  0  0  0  0  0
   -0.8741   -5.1235    0.8083 H   0  0  0  0  0  0  0  0  0  0  0  0
    1.1738   -3.3062    1.9318 H   0  0  0  0  0  0  0  0  0  0  0  0
    1.1270   -4.4358   -0.9305 H   0  0  0  0  0  0  0  0  0  0  0  0
    2.2797   -3.2400   -0.3251 H   0  0  0  0  0  0  0  0  0  0  0  0
    2.2827   -4.8880    0.3303 H   0  0  0  0  0  0  0  0  0  0  0  0
    0.3351   -1.3153    0.5316 N   0  0  0  0  0  0  0  0  0  0  0  0
   -0.3268   -0.1184    0.0807 C   0  0  2  0  0  0  0  0  0  0  0  0
   -1.5732   -0.5134   -0.7055 C   0  0  0  0  0  0  0  0  0  0  0  0
   -1.8910   -1.6828   -0.9121 O   0  0  0  0  0  0  0  0  0  0  0  0
    0.6130    0.7980   -0.7147 C   0  0  0  0  0  0  0  0  0  0  0  0
    1.7513    1.3861    0.1225 C   0  0  0  0  0  0  0  0  0  0  0  0
    1.0878    2.4029    1.4753 S   0  0  0  0  0  0  0  0  0  0  0  0
    0.4321    3.7624    0.4817 C   0  0  0  0  0  0  0  0  0  0  0  0
    1.2790   -1.2290    0.9021 H   0  0  0  0  0  0  0  0  0  0  0  0
   -0.6506    0.4044    0.9890 H   0  0  0  0  0  0  0  0  0  0  0  0
    0.0175    1.6150   -1.1439 H   0  0  0  0  0  0  0  0  0  0  0  0
    1.0344    0.2341   -1.5567 H   0  0  0  0  0  0  0  0  0  0  0  0
    2.3992    2.0219   -0.4881 H   0  0  0  0  0  0  0  0  0  0  0  0
    2.3656    0.5953    0.5630 H   0  0  0  0  0  0  0  0  0  0  0  0
   -0.0275    4.5104    1.1323 H   0  0  0  0  0  0  0  0  0  0  0  0
   -0.3211    3.3840   -0.2139 H   0  0  0  0  0  0  0  0  0  0  0  0
    1.2399    4.2304   -0.0861 H   0  0  0  0  0  0  0  0  0  0  0  0
   -2.2691    0.5909   -1.1758 N   0  0  0  0  0  0  0  0  0  0  0  0
   -3.4767    0.4736   -1.9591 C   0  0  2  0  0  0  0  0  0  0  0  0
   -3.4401    1.5432   -3.0427 C   0  0  0  0  0  0  0  0  0  0  0  0
   -2.7610    2.5641   -2.9549 O   0  0  0  0  0  0  0  0  0  0  0  0
   -4.7162    0.6220   -1.0906 C   0  0  0  0  0  0  0  0  0  0  0  0
   -1.9494    1.5241   -0.9337 H   0  0  0  0  0  0  0  0  0  0  0  0
   -3.4573   -0.5184   -2.4235 H   0  0  0  0  0  0  0  0  0  0  0  0
   -4.7529    1.6098   -0.6169 H   0  0  0  0  0  0  0  0  0  0  0  0
   -5.6308    0.5044   -1.6811 H   0  0  0  0  0  0  0  0  0  0  0  0
   -4.7258   -0.1294   -0.2936 H   0  0  0  0  0  0  0  0  0  0  0  0
   -4.2881    1.2442   -4.0999 N   0  0  0  0  0  0  0  0  0  0  0  0
   -4.4405    2.1098   -5.2460 C   0  0  0  0  0  0  0  0  0  0  0  0
   -4.7990    0.3663   -4.0978 H   0  0  0  0  0  0  0  0  0  0  0  0
   -5.2817    2.7981   -5.0770 H   0  0  0  0  0  0  0  0  0  0  0  0
   -3.5169    2.6890   -5.3932 H   0  0  0  0  0  0  0  0  0  0  0  0
   -4.6385    1.5017   -6.1409 H   0  0  0  0  0  0  0  0  0  0  0  0
  1  3  1  0  0  0  0
  1  7  1  0  0  0  0
  1  2  2  0  0  0  0
 35 36  1  0  0  0  0
 36 44  1  0  0  0  0
 36 37  2  0  0  0  0
  8  9  1  0  0  0  0
  9 17  1  0  0  0  0
  9 10  2  0  0  0  0
 18 19  1  0  0  0  0
 19 34  1  0  0  0  0
 19 20  2  0  0  0  0
 35 38  1  0  0  0  0
  8 11  1  0  0  0  0
 44 45  1  0  0  0  0
 23 24  1  0  0  0  0
 21 22  1  0  0  0  0
 18 21  1  0  0  0  0
 22 23  1  0  0  0  0
 34 35  1  0  0  0  0
  7  8  1  0  0  0  0
 17 18  1  0  0  0  0
  3  4  1  0  0  0  0
  3  5  1  0  0  0  0
  3  6  1  0  0  0  0
 38 41  1  0  0  0  0
 38 42  1  0  0  0  0
 38 43  1  0  0  0  0
 11 14  1  0  0  0  0
 11 15  1  0  0  0  0
 11 16  1  0  0  0  0
 45 47  1  0  0  0  0
 45 48  1  0  0  0  0
 45 49  1  0  0  0  0
 24 31  1  0  0  0  0
 24 32  1  0  0  0  0
 24 33  1  0  0  0  0
 21 27  1  0  0  0  0
 21 28  1  0  0  0  0
 22 29  1  0  0  0  0
 22 30  1  0  0  0  0
 35 40  1  0  0  0  0
  8 13  1  0  0  0  0
 18 26  1  0  0  0  0
 44 46  1  0  0  0  0
  7 12  1  0  0  0  0
 34 39  1  0  0  0  0
 17 25  1  0  0  0  0
M  END
$$$$

  -OEChem-05262214473D

 49 48  0     1  0  0  0  0  0999 V2000
   -0.0561   -5.3799    2.6949 C   0  0  0  0  0  0  0  0  0  0  0  0
    0.7325   -5.0736    3.5815 O   0  0  0  0  0  0  0  0  0  0  0  0
   -1.0067   -6.5099    2.9135 C   0  0  0  0  0  0  0  0  0  0  0  0
   -0.5910   -7.4777    2.5899 H   0  0  0  0  0  0  0  0  0  0  0  0
   -1.2629   -6.6440    3.9767 H   0  0  0  0  0  0  0  0  0  0  0  0
   -1.9729   -6.4206    2.3918 H   0  0  0  0  0  0  0  0  0  0  0  0
   -0.1735   -4.7694    1.4571 N   0  0  0  0  0  0  0  0  0  0  0  0
    0.6439   -3.6603    1.0409 C   0  0  2  0  0  0  0  0  0  0  0  0
   -0.2788   -2.5625    0.5280 C   0  0  0  0  0  0  0  0  0  0  0  0
   -1.4197   -2.7791    0.1251 O   0  0  0  0  0  0  0  0  0  0  0  0
    1.6395   -4.0779   -0.0301 C   0  0  0  0  0  0  0  0  0  0  0  0
   -0.8741   -5.1235    0.8083 H   0  0  0  0  0  0  0  0  0  0  0  0
    1.1738   -3.3062    1.9318 H   0  0  0  0  0  0  0  0  0  0  0  0
    1.1270   -4.4358   -0.9305 H   0  0  0  0  0  0  0  0  0  0  0  0
    2.2797   -3.2400   -0.3251 H   0  0  0  0  0  0  0  0  0  0  0  0
    2.2827   -4.8880    0.3303 H   0  0  0  0  0  0  0  0  0  0  0  0
    0.3351   -1.3153    0.5316 N   0  0  0  0  0  0  0  0  0  0  0  0
   -0.3268   -0.1184    0.0807 C   0  0  2  0  0  0  0  0  0  0  0  0
   -1.5732   -0.5134   -0.7055 C   0  0  0  0  0  0  0  0  0  0  0  0
   -2.0409   -1.6502   -0.6908 O   0  0  0  0  0  0  0  0  0  0  0  0
    0.6130    0.7980   -0.7147 C   0  0  0  0  0  0  0  0  0  0  0  0
    1.7513    1.3861    0.1225 C   0  0  0  0  0  0  0  0  0  0  0  0
    1.0878    2.4029    1.4753 S   0  0  0  0  0  0  0  0  0  0  0  0
    0.4321    3.7624    0.4817 C   0  0  0  0  0  0  0  0  0  0  0  0
    1.2790   -1.2290    0.9021 H   0  0  0  0  0  0  0  0  0  0  0  0
   -0.6506    0.4044    0.9890 H   0  0  0  0  0  0  0  0  0  0  0  0
    0.0175    1.6150   -1.1439 H   0  0  0  0  0  0  0  0  0  0  0  0
    1.0344    0.2341   -1.5567 H   0  0  0  0  0  0  0  0  0  0  0  0
    2.3992    2.0219   -0.4881 H   0  0  0  0  0  0  0  0  0  0  0  0
    2.3656    0.5953    0.5630 H   0  0  0  0  0  0  0  0  0  0  0  0
   -0.0275    4.5104    1.1323 H   0  0  0  0  0  0  0  0  0  0  0  0
   -0.3211    3.3840   -0.2139 H   0  0  0  0  0  0  0  0  0  0  0  0
    1.2399    4.2304   -0.0861 H   0  0  0  0  0  0  0  0  0  0  0  0
   -2.0812    0.5420   -1.4492 N   0  0  0  0  0  0  0  0  0  0  0  0
   -3.2503    0.4116   -2.2868 C   0  0  2  0  0  0  0  0  0  0  0  0
   -3.0067    1.2085   -3.5616 C   0  0  0  0  0  0  0  0  0  0  0  0
   -2.1964    2.1302   -3.6320 O   0  0  0  0  0  0  0  0  0  0  0  0
   -4.5006    0.8992   -1.5716 C   0  0  0  0  0  0  0  0  0  0  0  0
   -1.6466    1.4575   -1.3801 H   0  0  0  0  0  0  0  0  0  0  0  0
   -3.3462   -0.6515   -2.5327 H   0  0  0  0  0  0  0  0  0  0  0  0
   -4.4231    1.9626   -1.3171 H   0  0  0  0  0  0  0  0  0  0  0  0
   -5.3903    0.7732   -2.1974 H   0  0  0  0  0  0  0  0  0  0  0  0
   -4.6578    0.3451   -0.6399 H   0  0  0  0  0  0  0  0  0  0  0  0
   -3.8314    0.7977   -4.5995 N   0  0  0  0  0  0  0  0  0  0  0  0
   -3.8000    1.4075   -5.9084 C   0  0  0  0  0  0  0  0  0  0  0  0
   -4.4601    0.0126   -4.4574 H   0  0  0  0  0  0  0  0  0  0  0  0
   -4.5439    2.2166   -5.9544 H   0  0  0  0  0  0  0  0  0  0  0  0
   -2.7978    1.8200   -6.0966 H   0  0  0  0  0  0  0  0  0  0  0  0
   -4.0342    0.6504   -6.6712 H   0  0  0  0  0  0  0  0  0  0  0  0
  1  3  1  0  0  0  0
  1  7  1  0  0  0  0
  1  2  2  0  0  0  0
 35 36  1  0  0  0  0
 36 44  1  0  0  0  0
 36 37  2  0  0  0  0
  8  9  1  0  0  0  0
  9 17  1  0  0  0  0
  9 10  2  0  0  0  0
 18 19  1  0  0  0  0
 19 34  1  0  0  0  0
 19 20  2  0  0  0  0
 35 38  1  0  0  0  0
  8 11  1  0  0  0  0
 44 45  1  0  0  0  0
 23 24  1  0  0  0  0
 21 22  1  0  0  0  0
 18 21  1  0  0  0  0
 22 23  1  0  0  0  0
 34 35  1  0  0  0  0
  7  8  1  0  0  0  0
 17 18  1  0  0  0  0
  3  4  1  0  0  0  0
  3  5  1  0  0  0  0
  3  6  1  0  0  0  0
 38 41  1  0  0  0  0
 38 42  1  0  0  0  0
 38 43  1  0  0  0  0
 11 14  1  0  0  0  0
 11 15  1  0  0  0  0
 11 16  1  0  0  0  0
 45 47  1  0  0  0  0
 45 48  1  0  0  0  0
 45 49  1  0  0  0  0
 24 31  1  0  0  0  0
 24 32  1  0  0  0  0
 24 33  1  0  0  0  0
 21 27  1  0  0  0  0
 21 28  1  0  0  0  0
 22 29  1  0  0  0  0
 22 30  1  0  0  0  0
 35 40  1  0  0  0  0
  8 13  1  0  0  0  0
 18 26  1  0  0  0  0
 44 46  1  0  0  0  0
  7 12  1  0  0  0  0
 34 39  1  0  0  0  0
 17 25  1  0  0  0  0
M  END
$$$$

  -OEChem-05262214473D

 49 48  0     1  0  0  0  0  0999 V2000
   -0.0561   -5.3799    2.6949 C   0  0  0  0  0  0  0  0  0  0  0  0
    0.7325   -5.0736    3.5815 O   0  0  0  0  0  0  0  0  0  0  0  0
   -1.0067   -6.5099    2.9135 C   0  0  0  0  0  0  0  0  0  0  0  0
   -0.5910   -7.4777    2.5899 H   0  0  0  0  0  0  0  0  0  0  0  0
   -1.2629   -6.6440    3.9767 H   0  0  0  0  0  0  0  0  0  0  0  0
   -1.9729   -6.4206    2.3918 H   0  0  0  0  0  0  0  0  0  0  0  0
   -0.1735   -4.7694    1.4571 N   0  0  0  0  0  0  0  0  0  0  0  0
    0.6439   -3.6603    1.0409 C   0  0  2  0  0  0  0  0  0  0  0  0
   -0.2788   -2.5625    0.5280 C   0  0  0  0  0  0  0  0  0  0  0  0
   -1.4197   -2.7791    0.1251 O   0  0  0  0  0  0  0  0  0  0  0  0
    1.6395   -4.0779   -0.0301 C   0  0  0  0  0  0  0  0  0  0  0  0
   -0.8741   -5.1235    0.8083 H   0  0  0  0  0  0  0  0  0  0  0  0
    1.1738   -3.3062    1.9318 H   0  0  0  0  0  0  0  0  0  0  0  0
    1.1270   -4.4358   -0.9305 H   0  0  0  0  0  0  0  0  0  0  0  0
    2.2797   -3.2400   -0.3251 H   0  0  0  0  0  0  0  0  0  0  0  0
    2.2827   -4.8880    0.3303 H   0  0  0  0  0  0  0  0  0  0  0  0
    0.3351   -1.3153    0.5316 N   0  0  0  0  0  0  0  0  0  0  0  0
   -0.3268   -0.1184    0.0807 C   0  0  2  0  0  0  0  0  0  0  0  0
   -1.5732   -0.5134   -0.7055 C   0  0  0  0  0  0  0  0  0  0  0  0
   -2.1962   -1.5518   -0.4941 O   0  0  0  0  0  0  0  0  0  0  0  0
    0.6130    0.7980   -0.7147 C   0  0  0  0  0  0  0  0  0  0  0  0
    1.7513    1.3861    0.1225 C   0  0  0  0  0  0  0  0  0  0  0  0
    1.0878    2.4029    1.4753 S   0  0  0  0  0  0  0  0  0  0  0  0
    0.4321    3.7624    0.4817 C   0  0  0  0  0  0  0  0  0  0  0  0
    1.2790   -1.2290    0.9021 H   0  0  0  0  0  0  0  0  0  0  0  0
   -0.6506    0.4044    0.9890 H   0  0  0  0  0  0  0  0  0  0  0  0
    0.0175    1.6150   -1.1439 H   0  0  0  0  0  0  0  0  0  0  0  0
    1.0344    0.2341   -1.5567 H   0  0  0  0  0  0  0  0  0  0  0  0
    2.3992    2.0219   -0.4881 H   0  0  0  0  0  0  0  0  0  0  0  0
    2.3656    0.5953    0.5630 H   0  0  0  0  0  0  0  0  0  0  0  0
   -0.0275    4.5104    1.1323 H   0  0  0  0  0  0  0  0  0  0  0  0
   -0.3211    3.3840   -0.2139 H   0  0  0  0  0  0  0  0  0  0  0  0
    1.2399    4.2304   -0.0861 H   0  0  0  0  0  0  0  0  0  0  0  0
   -1.8879    0.4119   -1.6902 N   0  0  0  0  0  0  0  0  0  0  0  0
   -3.0179    0.2523   -2.5751 C   0  0  2  0  0  0  0  0  0  0  0  0
   -2.5979    0.7177   -3.9630 C   0  0  0  0  0  0  0  0  0  0  0  0
   -1.6636    1.4927   -4.1564 O   0  0  0  0  0  0  0  0  0  0  0  0
   -4.2233    1.0366   -2.0804 C   0  0  0  0  0  0  0  0  0  0  0  0
   -1.3332    1.2584   -1.7770 H   0  0  0  0  0  0  0  0  0  0  0  0
   -3.2493   -0.8181   -2.6027 H   0  0  0  0  0  0  0  0  0  0  0  0
   -4.0105    2.1113   -2.0459 H   0  0  0  0  0  0  0  0  0  0  0  0
   -5.0876    0.8917   -2.7368 H   0  0  0  0  0  0  0  0  0  0  0  0
   -4.5056    0.7212   -1.0701 H   0  0  0  0  0  0  0  0  0  0  0  0
   -3.4164    0.1999   -4.9571 N   0  0  0  0  0  0  0  0  0  0  0  0
   -3.2307    0.5037   -6.3568 C   0  0  0  0  0  0  0  0  0  0  0  0
   -4.1558   -0.4502   -4.7072 H   0  0  0  0  0  0  0  0  0  0  0  0
   -3.8500    1.3709   -6.6296 H   0  0  0  0  0  0  0  0  0  0  0  0
   -2.1719    0.7359   -6.5441 H   0  0  0  0  0  0  0  0  0  0  0  0
   -3.5285   -0.3646   -6.9629 H   0  0  0  0  0  0  0  0  0  0  0  0
  1  3  1  0  0  0  0
  1  7  1  0  0  0  0
  1  2  2  0  0  0  0
 35 36  1  0  0  0  0
 36 44  1  0  0  0  0
 36 37  2  0  0  0  0
  8  9  1  0  0  0  0
  9 17  1  0  0  0  0
  9 10  2  0  0  0  0
 18 19  1  0  0  0  0
 19 34  1  0  0  0  0
 19 20  2  0  0  0  0
 35 38  1  0  0  0  0
  8 11  1  0  0  0  0
 44 45  1  0  0  0  0
 23 24  1  0  0  0  0
 21 22  1  0  0  0  0
 18 21  1  0  0  0  0
 22 23  1  0  0  0  0
 34 35  1  0  0  0  0
  7  8  1  0  0  0  0
 17 18  1  0  0  0  0
  3  4  1  0  0  0  0
  3  5  1  0  0  0  0
  3  6  1  0  0  0  0
 38 41  1  0  0  0  0
 38 42  1  0  0  0  0
 38 43  1  0  0  0  0
 11 14  1  0  0  0  0
 11 15  1  0  0  0  0
 11 16  1  0  0  0  0
 45 47  1  0  0  0  0
 45 48  1  0  0  0  0
 45 49  1  0  0  0  0
 24 31  1  0  0  0  0
 24 32  1  0  0  0  0
 24 33  1  0  0  0  0
 21 27  1  0  0  0  0
 21 28  1  0  0  0  0
 22 29  1  0  0  0  0
 22 30  1  0  0  0  0
 35 40  1  0  0  0  0
  8 13  1  0  0  0  0
 18 26  1  0  0  0  0
 44 46  1  0  0  0  0
  7 12  1  0  0  0  0
 34 39  1  0  0  0  0
 17 25  1  0  0  0  0
M  END
$$$$

  -OEChem-05262214473D

 49 48  0     1  0  0  0  0  0999 V2000
   -0.0561   -5.3799    2.6949 C   0  0  0  0  0  0  0  0  0  0  0  0
    0.7325   -5.0736    3.5815 O   0  0  0  0  0  0  0  0  0  0  0  0
   -1.0067   -6.5099    2.9135 C   0  0  0  0  0  0  0  0  0  0  0  0
   -0.5910   -7.4777    2.5899 H   0  0  0  0  0  0  0  0  0  0  0  0
   -1.2629   -6.6440    3.9767 H   0  0  0  0  0  0  0  0  0  0  0  0
   -1.9729   -6.4206    2.3918 H   0  0  0  0  0  0  0  0  0  0  0  0
   -0.1735   -4.7694    1.4571 N   0  0  0  0  0  0  0  0  0  0  0  0
    0.6439   -3.6603    1.0409 C   0  0  2  0  0  0  0  0  0  0  0  0
   -0.2788   -2.5625    0.5280 C   0  0  0  0  0  0  0  0  0  0  0  0
   -1.4197   -2.7791    0.1251 O   0  0  0  0  0  0  0  0  0  0  0  0
    1.6395   -4.0779   -0.0301 C   0  0  0  0  0  0  0  0  0  0  0  0
   -0.8741   -5.1235    0.8083 H   0  0  0  0  0  0  0  0  0  0  0  0
    1.1738   -3.3062    1.9318 H   0  0  0  0  0  0  0  0  0  0  0  0
    1.1270   -4.4358   -0.9305 H   0  0  0  0  0  0  0  0  0  0  0  0
    2.2797   -3.2400   -0.3251 H   0  0  0  0  0  0  0  0  0  0  0  0
    2.2827   -4.8880    0.3303 H   0  0  0  0  0  0  0  0  0  0  0  0
    0.3351   -1.3153    0.5316 N   0  0  0  0  0  0  0  0  0  0  0  0
   -0.3268   -0.1184    0.0807 C   0  0  2  0  0  0  0  0  0  0  0  0
   -1.5732   -0.5134   -0.7055 C   0  0  0  0  0  0  0  0  0  0  0  0
   -2.3463   -1.3946   -0.3352 O   0  0  0  0  0  0  0  0  0  0  0  0
    0.6130    0.7980   -0.7147 C   0  0  0  0  0  0  0  0  0  0  0  0
    1.7513    1.3861    0.1225 C   0  0  0  0  0  0  0  0  0  0  0  0
    1.0878    2.4029    1.4753 S   0  0  0  0  0  0  0  0  0  0  0  0
    0.4321    3.7624    0.4817 C   0  0  0  0  0  0  0  0  0  0  0  0
    1.2790   -1.2290    0.9021 H   0  0  0  0  0  0  0  0  0  0  0  0
   -0.6506    0.4044    0.9890 H   0  0  0  0  0  0  0  0  0  0  0  0
    0.0175    1.6150   -1.1439 H   0  0  0  0  0  0  0  0  0  0  0  0
    1.0344    0.2341   -1.5567 H   0  0  0  0  0  0  0  0  0  0  0  0
    2.3992    2.0219   -0.4881 H   0  0  0  0  0  0  0  0  0  0  0  0
    2.3656    0.5953    0.5630 H   0  0  0  0  0  0  0  0  0  0  0  0
   -0.0275    4.5104    1.1323 H   0  0  0  0  0  0  0  0  0  0  0  0
   -0.3211    3.3840   -0.2139 H   0  0  0  0  0  0  0  0  0  0  0  0
    1.2399    4.2304   -0.0861 H   0  0  0  0  0  0  0  0  0  0  0  0
   -1.7024    0.2095   -1.8826 N   0  0  0  0  0  0  0  0  0  0  0  0
   -2.7955    0.0064   -2.8043 C   0  0  2  0  0  0  0  0  0  0  0  0
   -2.2417    0.1043   -4.2196 C   0  0  0  0  0  0  0  0  0  0  0  0
   -1.1987    0.6950   -4.4925 O   0  0  0  0  0  0  0  0  0  0  0  0
   -3.9029    1.0247   -2.5823 C   0  0  0  0  0  0  0  0  0  0  0  0
   -1.0304    0.9403   -2.0972 H   0  0  0  0  0  0  0  0  0  0  0  0
   -3.1732   -1.0067   -2.6285 H   0  0  0  0  0  0  0  0  0  0  0  0
   -3.5433    2.0459   -2.7537 H   0  0  0  0  0  0  0  0  0  0  0  0
   -4.7432    0.8517   -3.2626 H   0  0  0  0  0  0  0  0  0  0  0  0
   -4.2796    0.9732   -1.5550 H   0  0  0  0  0  0  0  0  0  0  0  0
   -3.0713   -0.5085   -5.1482 N   0  0  0  0  0  0  0  0  0  0  0  0
   -2.7713   -0.5401   -6.5606 C   0  0  0  0  0  0  0  0  0  0  0  0
   -3.9069   -0.9907   -4.8303 H   0  0  0  0  0  0  0  0  0  0  0  0
   -3.2472    0.3187   -7.0564 H   0  0  0  0  0  0  0  0  0  0  0  0
   -1.6820   -0.4894   -6.7052 H   0  0  0  0  0  0  0  0  0  0  0  0
   -3.1558   -1.4742   -6.9962 H   0  0  0  0  0  0  0  0  0  0  0  0
  1  3  1  0  0  0  0
  1  7  1  0  0  0  0
  1  2  2  0  0  0  0
 35 36  1  0  0  0  0
 36 44  1  0  0  0  0
 36 37  2  0  0  0  0
  8  9  1  0  0  0  0
  9 17  1  0  0  0  0
  9 10  2  0  0  0  0
 18 19  1  0  0  0  0
 19 34  1  0  0  0  0
 19 20  2  0  0  0  0
 35 38  1  0  0  0  0
  8 11  1  0  0  0  0
 44 45  1  0  0  0  0
 23 24  1  0  0  0  0
 21 22  1  0  0  0  0
 18 21  1  0  0  0  0
 22 23  1  0  0  0  0
 34 35  1  0  0  0  0
  7  8  1  0  0  0  0
 17 18  1  0  0  0  0
  3  4  1  0  0  0  0
  3  5  1  0  0  0  0
  3  6  1  0  0  0  0
 38 41  1  0  0  0  0
 38 42  1  0  0  0  0
 38 43  1  0  0  0  0
 11 14  1  0  0  0  0
 11 15  1  0  0  0  0
 11 16  1  0  0  0  0
 45 47  1  0  0  0  0
 45 48  1  0  0  0  0
 45 49  1  0  0  0  0
 24 31  1  0  0  0  0
 24 32  1  0  0  0  0
 24 33  1  0  0  0  0
 21 27  1  0  0  0  0
 21 28  1  0  0  0  0
 22 29  1  0  0  0  0
 22 30  1  0  0  0  0
 35 40  1  0  0  0  0
  8 13  1  0  0  0  0
 18 26  1  0  0  0  0
 44 46  1  0  0  0  0
  7 12  1  0  0  0  0
 34 39  1  0  0  0  0
 17 25  1  0  0  0  0
M  END
$$$$

  -OEChem-05262214473D

 49 48  0     1  0  0  0  0  0999 V2000
   -0.0561   -5.3799    2.6949 C   0  0  0  0  0  0  0  0  0  0  0  0
    0.7325   -5.0736    3.5815 O   0  0  0  0  0  0  0  0  0  0  0  0
   -1.0067   -6.5099    2.9135 C   0  0  0  0  0  0  0  0  0  0  0  0
   -0.5910   -7.4777    2.5899 H   0  0  0  0  0  0  0  0  0  0  0  0
   -1.2629   -6.6440    3.9767 H   0  0  0  0  0  0  0  0  0  0  0  0
   -1.9729   -6.4206    2.3918 H   0  0  0  0  0  0  0  0  0  0  0  0
   -0.1735   -4.7694    1.4571 N   0  0  0  0  0  0  0  0  0  0  0  0
    0.6439   -3.6603    1.0409 C   0  0  2  0  0  0  0  0  0  0  0  0
   -0.2788   -2.5625    0.5280 C   0  0  0  0  0  0  0  0  0  0  0  0
   -1.4197   -2.7791    0.1251 O   0  0  0  0  0  0  0  0  0  0  0  0
    1.6395   -4.0779   -0.0301 C   0  0  0  0  0  0  0  0  0  0  0  0
   -0.8741   -5.1235    0.8083 H   0  0  0  0  0  0  0  0  0  0  0  0
    1.1738   -3.3062    1.9318 H   0  0  0  0  0  0  0  0  0  0  0  0
    1.1270   -4.4358   -0.9305 H   0  0  0  0  0  0  0  0  0  0  0  0
    2.2797   -3.2400   -0.3251 H   0  0  0  0  0  0  0  0  0  0  0  0
    2.2827   -4.8880    0.3303 H   0  0  0  0  0  0  0  0  0  0  0  0
    0.3351   -1.3153    0.5316 N   0  0  0  0  0  0  0  0  0  0  0  0
   -0.3268   -0.1184    0.0807 C   0  0  2  0  0  0  0  0  0  0  0  0
   -1.5732   -0.5134   -0.7055 C   0  0  0  0  0  0  0  0  0  0  0  0
   -2.4809   -1.1890   -0.2251 O   0  0  0  0  0  0  0  0  0  0  0  0
    0.6130    0.7980   -0.7147 C   0  0  0  0  0  0  0  0  0  0  0  0
    1.7513    1.3861    0.1225 C   0  0  0  0  0  0  0  0  0  0  0  0
    1.0878    2.4029    1.4753 S   0  0  0  0  0  0  0  0  0  0  0  0
    0.4321    3.7624    0.4817 C   0  0  0  0  0  0  0  0  0  0  0  0
    1.2790   -1.2290    0.9021 H   0  0  0  0  0  0  0  0  0  0  0  0
   -0.6506    0.4044    0.9890 H   0  0  0  0  0  0  0  0  0  0  0  0
    0.0175    1.6150   -1.1439 H   0  0  0  0  0  0  0  0  0  0  0  0
    1.0344    0.2341   -1.5567 H   0  0  0  0  0  0  0  0  0  0  0  0
    2.3992    2.0219   -0.4881 H   0  0  0  0  0  0  0  0  0  0  0  0
    2.3656    0.5953    0.5630 H   0  0  0  0  0  0  0  0  0  0  0  0
   -0.0275    4.5104    1.1323 H   0  0  0  0  0  0  0  0  0  0  0  0
   -0.3211    3.3840   -0.2139 H   0  0  0  0  0  0  0  0  0  0  0  0
    1.2399    4.2304   -0.0861 H   0  0  0  0  0  0  0  0  0  0  0  0
   -1.5373   -0.0514   -2.0133 N   0  0  0  0  0  0  0  0  0  0  0  0
   -2.5980   -0.3092   -2.9587 C   0  0  2  0  0  0  0  0  0  0  0  0
   -1.9621   -0.5900   -4.3139 C   0  0  0  0  0  0  0  0  0  0  0  0
   -0.8336   -0.2086   -4.6172 O   0  0  0  0  0  0  0  0  0  0  0  0
   -3.5614    0.8644   -3.0431 C   0  0  0  0  0  0  0  0  0  0  0  0
   -0.7589    0.5251   -2.3190 H   0  0  0  0  0  0  0  0  0  0  0  0
   -3.1231   -1.2045   -2.6085 H   0  0  0  0  0  0  0  0  0  0  0  0
   -3.0532    1.7707   -3.3923 H   0  0  0  0  0  0  0  0  0  0  0  0
   -4.3807    0.6560   -3.7390 H   0  0  0  0  0  0  0  0  0  0  0  0
   -3.9952    1.0839   -2.0615 H   0  0  0  0  0  0  0  0  0  0  0  0
   -2.8196   -1.2792   -5.1599 N   0  0  0  0  0  0  0  0  0  0  0  0
   -2.4530   -1.6528   -6.5061 C   0  0  0  0  0  0  0  0  0  0  0  0
   -3.7303   -1.5720   -4.8182 H   0  0  0  0  0  0  0  0  0  0  0  0
   -2.7768   -0.8683   -7.2059 H   0  0  0  0  0  0  0  0  0  0  0  0
   -1.3614   -1.7723   -6.5689 H   0  0  0  0  0  0  0  0  0  0  0  0
   -2.9416   -2.6027   -6.7688 H   0  0  0  0  0  0  0  0  0  0  0  0
  1  3  1  0  0  0  0
  1  7  1  0  0  0  0
  1  2  2  0  0  0  0
 35 36  1  0  0  0  0
 36 44  1  0  0  0  0
 36 37  2  0  0  0  0
  8  9  1  0  0  0  0
  9 17  1  0  0  0  0
  9 10  2  0  0  0  0
 18 19  1  0  0  0  0
 19 34  1  0  0  0  0
 19 20  2  0  0  0  0
 35 38  1  0  0  0  0
  8 11  1  0  0  0  0
 44 45  1  0  0  0  0
 23 24  1  0  0  0  0
 21 22  1  0  0  0  0
 18 21  1  0  0  0  0
 22 23  1  0  0  0  0
 34 35  1  0  0  0  0
  7  8  1  0  0  0  0
 17 18  1  0  0  0  0
  3  4  1  0  0  0  0
  3  5  1  0  0  0  0
  3  6  1  0  0  0  0
 38 41  1  0  0  0  0
 38 42  1  0  0  0  0
 38 43  1  0  0  0  0
 11 14  1  0  0  0  0
 11 15  1  0  0  0  0
 11 16  1  0  0  0  0
 45 47  1  0  0  0  0
 45 48  1  0  0  0  0
 45 49  1  0  0  0  0
 24 31  1  0  0  0  0
 24 32  1  0  0  0  0
 24 33  1  0  0  0  0
 21 27  1  0  0  0  0
 21 28  1  0  0  0  0
 22 29  1  0  0  0  0
 22 30  1  0  0  0  0
 35 40  1  0  0  0  0
  8 13  1  0  0  0  0
 18 26  1  0  0  0  0
 44 46  1  0  0  0  0
  7 12  1  0  0  0  0
 34 39  1  0  0  0  0
 17 25  1  0  0  0  0
M  END
$$$$

  -OEChem-05262214473D

 49 48  0     1  0  0  0  0  0999 V2000
   -0.0561   -5.3799    2.6949 C   0  0  0  0  0  0  0  0  0  0  0  0
    0.7325   -5.0736    3.5815 O   0  0  0  0  0  0  0  0  0  0  0  0
   -1.0067   -6.5099    2.9135 C   0  0  0  0  0  0  0  0  0  0  0  0
   -0.5910   -7.4777    2.5899 H   0  0  0  0  0  0  0  0  0  0  0  0
   -1.2629   -6.6440    3.9767 H   0  0  0  0  0  0  0  0  0  0  0  0
   -1.9729   -6.4206    2.3918 H   0  0  0  0  0  0  0  0  0  0  0  0
   -0.1735   -4.7694    1.4571 N   0  0  0  0  0  0  0  0  0  0  0  0
    0.6439   -3.6603    1.0409 C   0  0  2  0  0  0  0  0  0  0  0  0
   -0.2788   -2.5625    0.5280 C   0  0  0  0  0  0  0  0  0  0  0  0
   -1.4197   -2.7791    0.1251 O   0  0  0  0  0  0  0  0  0  0  0  0
    1.6395   -4.0779   -0.0301 C   0  0  0  0  0  0  0  0  0  0  0  0
   -0.8741   -5.1235    0.8083 H   0  0  0  0  0  0  0  0  0  0  0  0
    1.1738   -3.3062    1.9318 H   0  0  0  0  0  0  0  0  0  0  0  0
    1.1270   -4.4358   -0.9305 H   0  0  0  0  0  0  0  0  0  0  0  0
    2.2797   -3.2400   -0.3251 H   0  0  0  0  0  0  0  0  0  0  0  0
    2.2827   -4.8880    0.3303 H   0  0  0  0  0  0  0  0  0  0  0  0
    0.3351   -1.3153    0.5316 N   0  0  0  0  0  0  0  0  0  0  0  0
   -0.3268   -0.1184    0.0807 C   0  0  2  0  0  0  0  0  0  0  0  0
   -1.5732   -0.5134   -0.7055 C   0  0  0  0  0  0  0  0  0  0  0  0
   -2.5909   -0.9493   -0.1712 O   0  0  0  0  0  0  0  0  0  0  0  0
    0.6130    0.7980   -0.7147 C   0  0  0  0  0  0  0  0  0  0  0  0
    1.7513    1.3861    0.1225 C   0  0  0  0  0  0  0  0  0  0  0  0
    1.0878    2.4029    1.4753 S   0  0  0  0  0  0  0  0  0  0  0  0
    0.4321    3.7624    0.4817 C   0  0  0  0  0  0  0  0  0  0  0  0
    1.2790   -1.2290    0.9021 H   0  0  0  0  0  0  0  0  0  0  0  0
   -0.6506    0.4044    0.9890 H   0  0  0  0  0  0  0  0  0  0  0  0
    0.0175    1.6150   -1.1439 H   0  0  0  0  0  0  0  0  0  0  0  0
    1.0344    0.2341   -1.5567 H   0  0  0  0  0  0  0  0  0  0  0  0
    2.3992    2.0219   -0.4881 H   0  0  0  0  0  0  0  0  0  0  0  0
    2.3656    0.5953    0.5630 H   0  0  0  0  0  0  0  0  0  0  0  0
   -0.0275    4.5104    1.1323 H   0  0  0  0  0  0  0  0  0  0  0  0
   -0.3211    3.3840   -0.2139 H   0  0  0  0  0  0  0  0  0  0  0  0
    1.2399    4.2304   -0.0861 H   0  0  0  0  0  0  0  0  0  0  0  0
   -1.4038   -0.3531   -2.0732 N   0  0  0  0  0  0  0  0  0  0  0  0
   -2.4390   -0.6731   -3.0280 C   0  0  2  0  0  0  0  0  0  0  0  0
   -1.7784   -1.3178   -4.2394 C   0  0  0  0  0  0  0  0  0  0  0  0
   -0.5931   -1.1565   -4.5222 O   0  0  0  0  0  0  0  0  0  0  0  0
   -3.2220    0.5666   -3.4314 C   0  0  0  0  0  0  0  0  0  0  0  0
   -0.5371    0.0408   -2.4272 H   0  0  0  0  0  0  0  0  0  0  0  0
   -3.1025   -1.3980   -2.5440 H   0  0  0  0  0  0  0  0  0  0  0  0
   -2.5738    1.3045   -3.9180 H   0  0  0  0  0  0  0  0  0  0  0  0
   -4.0247    0.3178   -4.1334 H   0  0  0  0  0  0  0  0  0  0  0  0
   -3.6717    1.0458   -2.5551 H   0  0  0  0  0  0  0  0  0  0  0  0
   -2.6785   -2.0597   -4.9914 N   0  0  0  0  0  0  0  0  0  0  0  0
   -2.2977   -2.7584   -6.1968 C   0  0  0  0  0  0  0  0  0  0  0  0
   -3.6380   -2.1545   -4.6717 H   0  0  0  0  0  0  0  0  0  0  0  0
   -2.4706   -2.1091   -7.0677 H   0  0  0  0  0  0  0  0  0  0  0  0
   -1.2319   -3.0254   -6.1445 H   0  0  0  0  0  0  0  0  0  0  0  0
   -2.9004   -3.6732   -6.2961 H   0  0  0  0  0  0  0  0  0  0  0  0
  1  3  1  0  0  0  0
  1  7  1  0  0  0  0
  1  2  2  0  0  0  0
 35 36  1  0  0  0  0
 36 44  1  0  0  0  0
 36 37  2  0  0  0  0
  8  9  1  0  0  0  0
  9 17  1  0  0  0  0
  9 10  2  0  0  0  0
 18 19  1  0  0  0  0
 19 34  1  0  0  0  0
 19 20  2  0  0  0  0
 35 38  1  0  0  0  0
  8 11  1  0  0  0  0
 44 45  1  0  0  0  0
 23 24  1  0  0  0  0
 21 22  1  0  0  0  0
 18 21  1  0  0  0  0
 22 23  1  0  0  0  0
 34 35  1  0  0  0  0
  7  8  1  0  0  0  0
 17 18  1  0  0  0  0
  3  4  1  0  0  0  0
  3  5  1  0  0  0  0
  3  6  1  0  0  0  0
 38 41  1  0  0  0  0
 38 42  1  0  0  0  0
 38 43  1  0  0  0  0
 11 14  1  0  0  0  0
 11 15  1  0  0  0  0
 11 16  1  0  0  0  0
 45 47  1  0  0  0  0
 45 48  1  0  0  0  0
 45 49  1  0  0  0  0
 24 31  1  0  0  0  0
 24 32  1  0  0  0  0
 24 33  1  0  0  0  0
 21 27  1  0  0  0  0
 21 28  1  0  0  0  0
 22 29  1  0  0  0  0
 22 30  1  0  0  0  0
 35 40  1  0  0  0  0
  8 13  1  0  0  0  0
 18 26  1  0  0  0  0
 44 46  1  0  0  0  0
  7 12  1  0  0  0  0
 34 39  1  0  0  0  0
 17 25  1  0  0  0  0
M  END
$$$$

  -OEChem-05262214473D

 49 48  0     1  0  0  0  0  0999 V2000
   -0.0561   -5.3799    2.6949 C   0  0  0  0  0  0  0  0  0  0  0  0
    0.7325   -5.0736    3.5815 O   0  0  0  0  0  0  0  0  0  0  0  0
   -1.0067   -6.5099    2.9135 C   0  0  0  0  0  0  0  0  0  0  0  0
   -0.5910   -7.4777    2.5899 H   0  0  0  0  0  0  0  0  0  0  0  0
   -1.2629   -6.6440    3.9767 H   0  0  0  0  0  0  0  0  0  0  0  0
   -1.9729   -6.4206    2.3918 H   0  0  0  0  0  0  0  0  0  0  0  0
   -0.1735   -4.7694    1.4571 N   0  0  0  0  0  0  0  0  0  0  0  0
    0.6439   -3.6603    1.0409 C   0  0  2  0  0  0  0  0  0  0  0  0
   -0.2788   -2.5625    0.5280 C   0  0  0  0  0  0  0  0  0  0  0  0
   -1.4197   -2.7791    0.1251 O   0  0  0  0  0  0  0  0  0  0  0  0
    1.6395   -4.0779   -0.0301 C   0  0  0  0  0  0  0  0  0  0  0  0
   -0.8741   -5.1235    0.8083 H   0  0  0  0  0  0  0  0  0  0  0  0
    1.1738   -3.3062    1.9318 H   0  0  0  0  0  0  0  0  0  0  0  0
    1.1270   -4.4358   -0.9305 H   0  0  0  0  0  0  0  0  0  0  0  0
    2.2797   -3.2400   -0.3251 H   0  0  0  0  0  0  0  0  0  0  0  0
    2.2827   -4.8880    0.3303 H   0  0  0  0  0  0  0  0  0  0  0  0
    0.3351   -1.3153    0.5316 N   0  0  0  0  0  0  0  0  0  0  0  0
   -0.3268   -0.1184    0.0807 C   0  0  2  0  0  0  0  0  0  0  0  0
   -1.5732   -0.5134   -0.7055 C   0  0  0  0  0  0  0  0  0  0  0  0
   -2.6688   -0.6916   -0.1772 O   0  0  0  0  0  0  0  0  0  0  0  0
    0.6130    0.7980   -0.7147 C   0  0  0  0  0  0  0  0  0  0  0  0
    1.7513    1.3861    0.1225 C   0  0  0  0  0  0  0  0  0  0  0  0
    1.0878    2.4029    1.4753 S   0  0  0  0  0  0  0  0  0  0  0  0
    0.4321    3.7624    0.4817 C   0  0  0  0  0  0  0  0  0  0  0  0
    1.2790   -1.2290    0.9021 H   0  0  0  0  0  0  0  0  0  0  0  0
   -0.6506    0.4044    0.9890 H   0  0  0  0  0  0  0  0  0  0  0  0
    0.0175    1.6150   -1.1439 H   0  0  0  0  0  0  0  0  0  0  0  0
    1.0344    0.2341   -1.5567 H   0  0  0  0  0  0  0  0  0  0  0  0
    2.3992    2.0219   -0.4881 H   0  0  0  0  0  0  0  0  0  0  0  0
    2.3656    0.5953    0.5630 H   0  0  0  0  0  0  0  0  0  0  0  0
   -0.0275    4.5104    1.1323 H   0  0  0  0  0  0  0  0  0  0  0  0
   -0.3211    3.3840   -0.2139 H   0  0  0  0  0  0  0  0  0  0  0  0
    1.2399    4.2304   -0.0861 H   0  0  0  0  0  0  0  0  0  0  0  0
   -1.3112   -0.6750   -2.0584 N   0  0  0  0  0  0  0  0  0  0  0  0
   -2.3293   -1.0604   -3.0073 C   0  0  2  0  0  0  0  0  0  0  0  0
   -1.7031   -2.0296   -4.0012 C   0  0  0  0  0  0  0  0  0  0  0  0
   -0.4936   -2.0841   -4.2139 O   0  0  0  0  0  0  0  0  0  0  0  0
   -2.9079    0.1515   -3.7208 C   0  0  0  0  0  0  0  0  0  0  0  0
   -0.3803   -0.4794   -2.4145 H   0  0  0  0  0  0  0  0  0  0  0  0
   -3.1127   -1.5741   -2.4394 H   0  0  0  0  0  0  0  0  0  0  0  0
   -2.1377    0.6791   -4.2951 H   0  0  0  0  0  0  0  0  0  0  0  0
   -3.6995   -0.1397   -4.4191 H   0  0  0  0  0  0  0  0  0  0  0  0
   -3.3313    0.8615   -3.0021 H   0  0  0  0  0  0  0  0  0  0  0  0
   -2.6577   -2.7968   -4.6542 N   0  0  0  0  0  0  0  0  0  0  0  0
   -2.3159   -3.7816   -5.6538 C   0  0  0  0  0  0  0  0  0  0  0  0
   -3.6364   -2.6984   -4.4009 H   0  0  0  0  0  0  0  0  0  0  0  0
   -2.3497   -3.3193   -6.6514 H   0  0  0  0  0  0  0  0  0  0  0  0
   -1.3024   -4.1633   -5.4609 H   0  0  0  0  0  0  0  0  0  0  0  0
   -3.0351   -4.6128   -5.6105 H   0  0  0  0  0  0  0  0  0  0  0  0
  1  3  1  0  0  0  0
  1  7  1  0  0  0  0
  1  2  2  0  0  0  0
 35 36  1  0  0  0  0
 36 44  1  0  0  0  0
 36 37  2  0  0  0  0
  8  9  1  0  0  0  0
  9 17  1  0  0  0  0
  9 10  2  0  0  0  0
 18 19  1  0  0  0  0
 19 34  1  0  0  0  0
 19 20  2  0  0  0  0
 35 38  1  0  0  0  0
  8 11  1  0  0  0  0
 44 45  1  0  0  0  0
 23 24  1  0  0  0  0
 21 22  1  0  0  0  0
 18 21  1  0  0  0  0
 22 23  1  0  0  0  0
 34 35  1  0  0  0  0
  7  8  1  0  0  0  0
 17 18  1  0  0  0  0
  3  4  1  0  0  0  0
  3  5  1  0  0  0  0
  3  6  1  0  0  0  0
 38 41  1  0  0  0  0
 38 42  1  0  0  0  0
 38 43  1  0  0  0  0
 11 14  1  0  0  0  0
 11 15  1  0  0  0  0
 11 16  1  0  0  0  0
 45 47  1  0  0  0  0
 45 48  1  0  0  0  0
 45 49  1  0  0  0  0
 24 31  1  0  0  0  0
 24 32  1  0  0  0  0
 24 33  1  0  0  0  0
 21 27  1  0  0  0  0
 21 28  1  0  0  0  0
 22 29  1  0  0  0  0
 22 30  1  0  0  0  0
 35 40  1  0  0  0  0
  8 13  1  0  0  0  0
 18 26  1  0  0  0  0
 44 46  1  0  0  0  0
  7 12  1  0  0  0  0
 34 39  1  0  0  0  0
 17 25  1  0  0  0  0
M  END
$$$$

  -OEChem-05262214473D

 49 48  0     1  0  0  0  0  0999 V2000
   -0.0561   -5.3799    2.6949 C   0  0  0  0  0  0  0  0  0  0  0  0
    0.7325   -5.0736    3.5815 O   0  0  0  0  0  0  0  0  0  0  0  0
   -1.0067   -6.5099    2.9135 C   0  0  0  0  0  0  0  0  0  0  0  0
   -0.5910   -7.4777    2.5899 H   0  0  0  0  0  0  0  0  0  0  0  0
   -1.2629   -6.6440    3.9767 H   0  0  0  0  0  0  0  0  0  0  0  0
   -1.9729   -6.4206    2.3918 H   0  0  0  0  0  0  0  0  0  0  0  0
   -0.1735   -4.7694    1.4571 N   0  0  0  0  0  0  0  0  0  0  0  0
    0.6439   -3.6603    1.0409 C   0  0  2  0  0  0  0  0  0  0  0  0
   -0.2788   -2.5625    0.5280 C   0  0  0  0  0  0  0  0  0  0  0  0
   -1.4197   -2.7791    0.1251 O   0  0  0  0  0  0  0  0  0  0  0  0
    1.6395   -4.0779   -0.0301 C   0  0  0  0  0  0  0  0  0  0  0  0
   -0.8741   -5.1235    0.8083 H   0  0  0  0  0  0  0  0  0  0  0  0
    1.1738   -3.3062    1.9318 H   0  0  0  0  0  0  0  0  0  0  0  0
    1.1270   -4.4358   -0.9305 H   0  0  0  0  0  0  0  0  0  0  0  0
    2.2797   -3.2400   -0.3251 H   0  0  0  0  0  0  0  0  0  0  0  0
    2.2827   -4.8880    0.3303 H   0  0  0  0  0  0  0  0  0  0  0  0
    0.3351   -1.3153    0.5316 N   0  0  0  0  0  0  0  0  0  0  0  0
   -0.3268   -0.1184    0.0807 C   0  0  2  0  0  0  0  0  0  0  0  0
   -1.5732   -0.5134   -0.7055 C   0  0  0  0  0  0  0  0  0  0  0  0
   -2.7092   -0.4336   -0.2426 O   0  0  0  0  0  0  0  0  0  0  0  0
    0.6130    0.7980   -0.7147 C   0  0  0  0  0  0  0  0  0  0  0  0
    1.7513    1.3861    0.1225 C   0  0  0  0  0  0  0  0  0  0  0  0
    1.0878    2.4029    1.4753 S   0  0  0  0  0  0  0  0  0  0  0  0
    0.4321    3.7624    0.4817 C   0  0  0  0  0  0  0  0  0  0  0  0
    1.2790   -1.2290    0.9021 H   0  0  0  0  0  0  0  0  0  0  0  0
   -0.6506    0.4044    0.9890 H   0  0  0  0  0  0  0  0  0  0  0  0
    0.0175    1.6150   -1.1439 H   0  0  0  0  0  0  0  0  0  0  0  0
    1.0344    0.2341   -1.5567 H   0  0  0  0  0  0  0  0  0  0  0  0
    2.3992    2.0219   -0.4881 H   0  0  0  0  0  0  0  0  0  0  0  0
    2.3656    0.5953    0.5630 H   0  0  0  0  0  0  0  0  0  0  0  0
   -0.0275    4.5104    1.1323 H   0  0  0  0  0  0  0  0  0  0  0  0
   -0.3211    3.3840   -0.2139 H   0  0  0  0  0  0  0  0  0  0  0  0
    1.2399    4.2304   -0.0861 H   0  0  0  0  0  0  0  0  0  0  0  0
   -1.2656   -0.9951   -1.9698 N   0  0  0  0  0  0  0  0  0  0  0  0
   -2.2764   -1.4448   -2.8980 C   0  0  2  0  0  0  0  0  0  0  0  0
   -1.7412   -2.6769   -3.6156 C   0  0  0  0  0  0  0  0  0  0  0  0
   -0.5418   -2.9281   -3.7134 O   0  0  0  0  0  0  0  0  0  0  0  0
   -2.6405   -0.3525   -3.8915 C   0  0  0  0  0  0  0  0  0  0  0  0
   -0.2990   -1.0001   -2.2817 H   0  0  0  0  0  0  0  0  0  0  0  0
   -3.1530   -1.7206   -2.3018 H   0  0  0  0  0  0  0  0  0  0  0  0
   -1.7746   -0.0629   -4.4980 H   0  0  0  0  0  0  0  0  0  0  0  0
   -3.4273   -0.6854   -4.5765 H   0  0  0  0  0  0  0  0  0  0  0  0
   -2.9971    0.5436   -3.3722 H   0  0  0  0  0  0  0  0  0  0  0  0
   -2.7584   -3.4403   -4.1712 N   0  0  0  0  0  0  0  0  0  0  0  0
   -2.5063   -4.6528   -4.9142 C   0  0  0  0  0  0  0  0  0  0  0  0
   -3.7256   -3.1668   -4.0243 H   0  0  0  0  0  0  0  0  0  0  0  0
   -2.4222   -4.4164   -5.9852 H   0  0  0  0  0  0  0  0  0  0  0  0
   -1.5682   -5.1086   -4.5647 H   0  0  0  0  0  0  0  0  0  0  0  0
   -3.3365   -5.3574   -4.7585 H   0  0  0  0  0  0  0  0  0  0  0  0
  1  3  1  0  0  0  0
  1  7  1  0  0  0  0
  1  2  2  0  0  0  0
 35 36  1  0  0  0  0
 36 44  1  0  0  0  0
 36 37  2  0  0  0  0
  8  9  1  0  0  0  0
  9 17  1  0  0  0  0
  9 10  2  0  0  0  0
 18 19  1  0  0  0  0
 19 34  1  0  0  0  0
 19 20  2  0  0  0  0
 35 38  1  0  0  0  0
  8 11  1  0  0  0  0
 44 45  1  0  0  0  0
 23 24  1  0  0  0  0
 21 22  1  0  0  0  0
 18 21  1  0  0  0  0
 22 23  1  0  0  0  0
 34 35  1  0  0  0  0
  7  8  1  0  0  0  0
 17 18  1  0  0  0  0
  3  4  1  0  0  0  0
  3  5  1  0  0  0  0
  3  6  1  0  0  0  0
 38 41  1  0  0  0  0
 38 42  1  0  0  0  0
 38 43  1  0  0  0  0
 11 14  1  0  0  0  0
 11 15  1  0  0  0  0
 11 16  1  0  0  0  0
 45 47  1  0  0  0  0
 45 48  1  0  0  0  0
 45 49  1  0  0  0  0
 24 31  1  0  0  0  0
 24 32  1  0  0  0  0
 24 33  1  0  0  0  0
 21 27  1  0  0  0  0
 21 28  1  0  0  0  0
 22 29  1  0  0  0  0
 22 30  1  0  0  0  0
 35 40  1  0  0  0  0
  8 13  1  0  0  0  0
 18 26  1  0  0  0  0
 44 46  1  0  0  0  0
  7 12  1  0  0  0  0
 34 39  1  0  0  0  0
 17 25  1  0  0  0  0
M  END
$$$$

  -OEChem-05262214473D

 49 48  0     1  0  0  0  0  0999 V2000
   -0.0561   -5.3799    2.6949 C   0  0  0  0  0  0  0  0  0  0  0  0
    0.7325   -5.0736    3.5815 O   0  0  0  0  0  0  0  0  0  0  0  0
   -1.0067   -6.5099    2.9135 C   0  0  0  0  0  0  0  0  0  0  0  0
   -0.5910   -7.4777    2.5899 H   0  0  0  0  0  0  0  0  0  0  0  0
   -1.2629   -6.6440    3.9767 H   0  0  0  0  0  0  0  0  0  0  0  0
   -1.9729   -6.4206    2.3918 H   0  0  0  0  0  0  0  0  0  0  0  0
   -0.1735   -4.7694    1.4571 N   0  0  0  0  0  0  0  0  0  0  0  0
    0.6439   -3.6603    1.0409 C   0  0  2  0  0  0  0  0  0  0  0  0
   -0.2788   -2.5625    0.5280 C   0  0  0  0  0  0  0  0  0  0  0  0
   -1.4197   -2.7791    0.1251 O   0  0  0  0  0  0  0  0  0  0  0  0
    1.6395   -4.0779   -0.0301 C   0  0  0  0  0  0  0  0  0  0  0  0
   -0.8741   -5.1235    0.8083 H   0  0  0  0  0  0  0  0  0  0  0  0
    1.1738   -3.3062    1.9318 H   0  0  0  0  0  0  0  0  0  0  0  0
    1.1270   -4.4358   -0.9305 H   0  0  0  0  0  0  0  0  0  0  0  0
    2.2797   -3.2400   -0.3251 H   0  0  0  0  0  0  0  0  0  0  0  0
    2.2827   -4.8880    0.3303 H   0  0  0  0  0  0  0  0  0  0  0  0
    0.3351   -1.3153    0.5316 N   0  0  0  0  0  0  0  0  0  0  0  0
   -0.3268   -0.1184    0.0807 C   0  0  2  0  0  0  0  0  0  0  0  0
   -1.5732   -0.5134   -0.7055 C   0  0  0  0  0  0  0  0  0  0  0  0
   -2.7095   -0.1928   -0.3632 O   0  0  0  0  0  0  0  0  0  0  0  0
    0.6130    0.7980   -0.7147 C   0  0  0  0  0  0  0  0  0  0  0  0
    1.7513    1.3861    0.1225 C   0  0  0  0  0  0  0  0  0  0  0  0
    1.0878    2.4029    1.4753 S   0  0  0  0  0  0  0  0  0  0  0  0
    0.4321    3.7624    0.4817 C   0  0  0  0  0  0  0  0  0  0  0  0
    1.2790   -1.2290    0.9021 H   0  0  0  0  0  0  0  0  0  0  0  0
   -0.6506    0.4044    0.9890 H   0  0  0  0  0  0  0  0  0  0  0  0
    0.0175    1.6150   -1.1439 H   0  0  0  0  0  0  0  0  0  0  0  0
    1.0344    0.2341   -1.5567 H   0  0  0  0  0  0  0  0  0  0  0  0
    2.3992    2.0219   -0.4881 H   0  0  0  0  0  0  0  0  0  0  0  0
    2.3656    0.5953    0.5630 H   0  0  0  0  0  0  0  0  0  0  0  0
   -0.0275    4.5104    1.1323 H   0  0  0  0  0  0  0  0  0  0  0  0
   -0.3211    3.3840   -0.2139 H   0  0  0  0  0  0  0  0  0  0  0  0
    1.2399    4.2304   -0.0861 H   0  0  0  0  0  0  0  0  0  0  0  0
   -1.2702   -1.2917   -1.8135 N   0  0  0  0  0  0  0  0  0  0  0  0
   -2.2838   -1.8000   -2.7077 C   0  0  2  0  0  0  0  0  0  0  0  0
   -1.8901   -3.2155   -3.1088 C   0  0  0  0  0  0  0  0  0  0  0  0
   -0.7346   -3.6311   -3.0546 O   0  0  0  0  0  0  0  0  0  0  0  0
   -2.4380   -0.9111   -3.9319 C   0  0  0  0  0  0  0  0  0  0  0  0
   -0.2988   -1.4859   -2.0379 H   0  0  0  0  0  0  0  0  0  0  0  0
   -3.2207   -1.8277   -2.1406 H   0  0  0  0  0  0  0  0  0  0  0  0
   -1.5092   -0.8709   -4.5127 H   0  0  0  0  0  0  0  0  0  0  0  0
   -3.2266   -1.2820   -4.5949 H   0  0  0  0  0  0  0  0  0  0  0  0
   -2.6919    0.1137   -3.6400 H   0  0  0  0  0  0  0  0  0  0  0  0
   -2.9739   -3.9462   -3.5753 N   0  0  0  0  0  0  0  0  0  0  0  0
   -2.8560   -5.3125   -4.0284 C   0  0  0  0  0  0  0  0  0  0  0  0
   -3.8994   -3.5277   -3.5674 H   0  0  0  0  0  0  0  0  0  0  0  0
   -2.6832   -5.3255   -5.1147 H   0  0  0  0  0  0  0  0  0  0  0  0
   -2.0109   -5.7967   -3.5170 H   0  0  0  0  0  0  0  0  0  0  0  0
   -3.7841   -5.8564   -3.7984 H   0  0  0  0  0  0  0  0  0  0  0  0
  1  3  1  0  0  0  0
  1  7  1  0  0  0  0
  1  2  2  0  0  0  0
 35 36  1  0  0  0  0
 36 44  1  0  0  0  0
 36 37  2  0  0  0  0
  8  9  1  0  0  0  0
  9 17  1  0  0  0  0
  9 10  2  0  0  0  0
 18 19  1  0  0  0  0
 19 34  1  0  0  0  0
 19 20  2  0  0  0  0
 35 38  1  0  0  0  0
  8 11  1  0  0  0  0
 44 45  1  0  0  0  0
 23 24  1  0  0  0  0
 21 22  1  0  0  0  0
 18 21  1  0  0  0  0
 22 23  1  0  0  0  0
 34 35  1  0  0  0  0
  7  8  1  0  0  0  0
 17 18  1  0  0  0  0
  3  4  1  0  0  0  0
  3  5  1  0  0  0  0
  3  6  1  0  0  0  0
 38 41  1  0  0  0  0
 38 42  1  0  0  0  0
 38 43  1  0  0  0  0
 11 14  1  0  0  0  0
 11 15  1  0  0  0  0
 11 16  1  0  0  0  0
 45 47  1  0  0  0  0
 45 48  1  0  0  0  0
 45 49  1  0  0  0  0
 24 31  1  0  0  0  0
 24 32  1  0  0  0  0
 24 33  1  0  0  0  0
 21 27  1  0  0  0  0
 21 28  1  0  0  0  0
 22 29  1  0  0  0  0
 22 30  1  0  0  0  0
 35 40  1  0  0  0  0
  8 13  1  0  0  0  0
 18 26  1  0  0  0  0
 44 46  1  0  0  0  0
  7 12  1  0  0  0  0
 34 39  1  0  0  0  0
 17 25  1  0  0  0  0
M  END
$$$$

  -OEChem-05262214473D

 49 48  0     1  0  0  0  0  0999 V2000
   -0.0561   -5.3799    2.6949 C   0  0  0  0  0  0  0  0  0  0  0  0
    0.7325   -5.0736    3.5815 O   0  0  0  0  0  0  0  0  0  0  0  0
   -1.0067   -6.5099    2.9135 C   0  0  0  0  0  0  0  0  0  0  0  0
   -0.5910   -7.4777    2.5899 H   0  0  0  0  0  0  0  0  0  0  0  0
   -1.2629   -6.6440    3.9767 H   0  0  0  0  0  0  0  0  0  0  0  0
   -1.9729   -6.4206    2.3918 H   0  0  0  0  0  0  0  0  0  0  0  0
   -0.1735   -4.7694    1.4571 N   0  0  0  0  0  0  0  0  0  0  0  0
    0.6439   -3.6603    1.0409 C   0  0  2  0  0  0  0  0  0  0  0  0
   -0.2788   -2.5625    0.5280 C   0  0  0  0  0  0  0  0  0  0  0  0
   -1.4197   -2.7791    0.1251 O   0  0  0  0  0  0  0  0  0  0  0  0
    1.6395   -4.0779   -0.0301 C   0  0  0  0  0  0  0  0  0  0  0  0
   -0.8741   -5.1235    0.8083 H   0  0  0  0  0  0  0  0  0  0  0  0
    1.1738   -3.3062    1.9318 H   0  0  0  0  0  0  0  0  0  0  0  0
    1.1270   -4.4358   -0.9305 H   0  0  0  0  0  0  0  0  0  0  0  0
    2.2797   -3.2400   -0.3251 H   0  0  0  0  0  0  0  0  0  0  0  0
    2.2827   -4.8880    0.3303 H   0  0  0  0  0  0  0  0  0  0  0  0
    0.3351   -1.3153    0.5316 N   0  0  0  0  0  0  0  0  0  0  0  0
   -0.3268   -0.1184    0.0807 C   0  0  2  0  0  0  0  0  0  0  0  0
   -1.5732   -0.5134   -0.7055 C   0  0  0  0  0  0  0  0  0  0  0  0
   -2.6696    0.0143   -0.5305 O   0  0  0  0  0  0  0  0  0  0  0  0
    0.6130    0.7980   -0.7147 C   0  0  0  0  0  0  0  0  0  0  0  0
    1.7513    1.3861    0.1225 C   0  0  0  0  0  0  0  0  0  0  0  0
    1.0878    2.4029    1.4753 S   0  0  0  0  0  0  0  0  0  0  0  0
    0.4321    3.7624    0.4817 C   0  0  0  0  0  0  0  0  0  0  0  0
    1.2790   -1.2290    0.9021 H   0  0  0  0  0  0  0  0  0  0  0  0
   -0.6506    0.4044    0.9890 H   0  0  0  0  0  0  0  0  0  0  0  0
    0.0175    1.6150   -1.1439 H   0  0  0  0  0  0  0  0  0  0  0  0
    1.0344    0.2341   -1.5567 H   0  0  0  0  0  0  0  0  0  0  0  0
    2.3992    2.0219   -0.4881 H   0  0  0  0  0  0  0  0  0  0  0  0
    2.3656    0.5953    0.5630 H   0  0  0  0  0  0  0  0  0  0  0  0
   -0.0275    4.5104    1.1323 H   0  0  0  0  0  0  0  0  0  0  0  0
   -0.3211    3.3840   -0.2139 H   0  0  0  0  0  0  0  0  0  0  0  0
    1.2399    4.2304   -0.0861 H   0  0  0  0  0  0  0  0  0  0  0  0
   -1.3247   -1.5445   -1.6001 N   0  0  0  0  0  0  0  0  0  0  0  0
   -2.3512   -2.1019   -2.4492 C   0  0  2  0  0  0  0  0  0  0  0  0
   -2.1398   -3.6087   -2.5154 C   0  0  0  0  0  0  0  0  0  0  0  0
   -1.0586   -4.1452   -2.2825 O   0  0  0  0  0  0  0  0  0  0  0  0
   -2.3141   -1.4862   -3.8392 C   0  0  0  0  0  0  0  0  0  0  0  0
   -0.3798   -1.9035   -1.6997 H   0  0  0  0  0  0  0  0  0  0  0  0
   -3.3112   -1.8880   -1.9668 H   0  0  0  0  0  0  0  0  0  0  0  0
   -1.3597   -1.6899   -4.3382 H   0  0  0  0  0  0  0  0  0  0  0  0
   -3.1110   -1.8891   -4.4730 H   0  0  0  0  0  0  0  0  0  0  0  0
   -2.4365   -0.3989   -3.7873 H   0  0  0  0  0  0  0  0  0  0  0  0
   -3.2895   -4.2802   -2.9072 N   0  0  0  0  0  0  0  0  0  0  0  0
   -3.3411   -5.7158   -3.0567 C   0  0  0  0  0  0  0  0  0  0  0  0
   -4.1461   -3.7565   -3.0614 H   0  0  0  0  0  0  0  0  0  0  0  0
   -3.1148   -5.9848   -4.0990 H   0  0  0  0  0  0  0  0  0  0  0  0
   -2.6006   -6.1807   -2.3892 H   0  0  0  0  0  0  0  0  0  0  0  0
   -4.3472   -6.0756   -2.7954 H   0  0  0  0  0  0  0  0  0  0  0  0
  1  3  1  0  0  0  0
  1  7  1  0  0  0  0
  1  2  2  0  0  0  0
 35 36  1  0  0  0  0
 36 44  1  0  0  0  0
 36 37  2  0  0  0  0
  8  9  1  0  0  0  0
  9 17  1  0  0  0  0
  9 10  2  0  0  0  0
 18 19  1  0  0  0  0
 19 34  1  0  0  0  0
 19 20  2  0  0  0  0
 35 38  1  0  0  0  0
  8 11  1  0  0  0  0
 44 45  1  0  0  0  0
 23 24  1  0  0  0  0
 21 22  1  0  0  0  0
 18 21  1  0  0  0  0
 22 23  1  0  0  0  0
 34 35  1  0  0  0  0
  7  8  1  0  0  0  0
 17 18  1  0  0  0  0
  3  4  1  0  0  0  0
  3  5  1  0  0  0  0
  3  6  1  0  0  0  0
 38 41  1  0  0  0  0
 38 42  1  0  0  0  0
 38 43  1  0  0  0  0
 11 14  1  0  0  0  0
 11 15  1  0  0  0  0
 11 16  1  0  0  0  0
 45 47  1  0  0  0  0
 45 48  1  0  0  0  0
 45 49  1  0  0  0  0
 24 31  1  0  0  0  0
 24 32  1  0  0  0  0
 24 33  1  0  0  0  0
 21 27  1  0  0  0  0
 21 28  1  0  0  0  0
 22 29  1  0  0  0  0
 22 30  1  0  0  0  0
 35 40  1  0  0  0  0
  8 13  1  0  0  0  0
 18 26  1  0  0  0  0
 44 46  1  0  0  0  0
  7 12  1  0  0  0  0
 34 39  1  0  0  0  0
 17 25  1  0  0  0  0
M  END
$$$$

  -OEChem-05262214473D

 49 48  0     1  0  0  0  0  0999 V2000
   -0.0561   -5.3799    2.6949 C   0  0  0  0  0  0  0  0  0  0  0  0
    0.7325   -5.0736    3.5815 O   0  0  0  0  0  0  0  0  0  0  0  0
   -1.0067   -6.5099    2.9135 C   0  0  0  0  0  0  0  0  0  0  0  0
   -0.5910   -7.4777    2.5899 H   0  0  0  0  0  0  0  0  0  0  0  0
   -1.2629   -6.6440    3.9767 H   0  0  0  0  0  0  0  0  0  0  0  0
   -1.9729   -6.4206    2.3918 H   0  0  0  0  0  0  0  0  0  0  0  0
   -0.1735   -4.7694    1.4571 N   0  0  0  0  0  0  0  0  0  0  0  0
    0.6439   -3.6603    1.0409 C   0  0  2  0  0  0  0  0  0  0  0  0
   -0.2788   -2.5625    0.5280 C   0  0  0  0  0  0  0  0  0  0  0  0
   -1.4197   -2.7791    0.1251 O   0  0  0  0  0  0  0  0  0  0  0  0
    1.6395   -4.0779   -0.0301 C   0  0  0  0  0  0  0  0  0  0  0  0
   -0.8741   -5.1235    0.8083 H   0  0  0  0  0  0  0  0  0  0  0  0
    1.1738   -3.3062    1.9318 H   0  0  0  0  0  0  0  0  0  0  0  0
    1.1270   -4.4358   -0.9305 H   0  0  0  0  0  0  0  0  0  0  0  0
    2.2797   -3.2400   -0.3251 H   0  0  0  0  0  0  0  0  0  0  0  0
    2.2827   -4.8880    0.3303 H   0  0  0  0  0  0  0  0  0  0  0  0
    0.3351   -1.3153    0.5316 N   0  0  0  0  0  0  0  0  0  0  0  0
   -0.3268   -0.1184    0.0807 C   0  0  2  0  0  0  0  0  0  0  0  0
   -1.5732   -0.5134   -0.7055 C   0  0  0  0  0  0  0  0  0  0  0  0
   -2.5922    0.1736   -0.7333 O   0  0  0  0  0  0  0  0  0  0  0  0
    0.6130    0.7980   -0.7147 C   0  0  0  0  0  0  0  0  0  0  0  0
    1.7513    1.3861    0.1225 C   0  0  0  0  0  0  0  0  0  0  0  0
    1.0878    2.4029    1.4753 S   0  0  0  0  0  0  0  0  0  0  0  0
    0.4321    3.7624    0.4817 C   0  0  0  0  0  0  0  0  0  0  0  0
    1.2790   -1.2290    0.9021 H   0  0  0  0  0  0  0  0  0  0  0  0
   -0.6506    0.4044    0.9890 H   0  0  0  0  0  0  0  0  0  0  0  0
    0.0175    1.6150   -1.1439 H   0  0  0  0  0  0  0  0  0  0  0  0
    1.0344    0.2341   -1.5567 H   0  0  0  0  0  0  0  0  0  0  0  0
    2.3992    2.0219   -0.4881 H   0  0  0  0  0  0  0  0  0  0  0  0
    2.3656    0.5953    0.5630 H   0  0  0  0  0  0  0  0  0  0  0  0
   -0.0275    4.5104    1.1323 H   0  0  0  0  0  0  0  0  0  0  0  0
   -0.3211    3.3840   -0.2139 H   0  0  0  0  0  0  0  0  0  0  0  0
    1.2399    4.2304   -0.0861 H   0  0  0  0  0  0  0  0  0  0  0  0
   -1.4253   -1.7363   -1.3442 N   0  0  0  0  0  0  0  0  0  0  0  0
   -2.4739   -2.3298   -2.1402 C   0  0  2  0  0  0  0  0  0  0  0  0
   -2.4732   -3.8297   -1.8759 C   0  0  0  0  0  0  0  0  0  0  0  0
   -1.4920   -4.4353   -1.4498 O   0  0  0  0  0  0  0  0  0  0  0  0
   -2.2774   -2.0386   -3.6199 C   0  0  0  0  0  0  0  0  0  0  0  0
   -0.5364   -2.2246   -1.2901 H   0  0  0  0  0  0  0  0  0  0  0  0
   -3.4183   -1.8975   -1.7923 H   0  0  0  0  0  0  0  0  0  0  0  0
   -1.3362   -2.4641   -3.9865 H   0  0  0  0  0  0  0  0  0  0  0  0
   -3.0885   -2.4650   -4.2193 H   0  0  0  0  0  0  0  0  0  0  0  0
   -2.2483   -0.9593   -3.8041 H   0  0  0  0  0  0  0  0  0  0  0  0
   -3.6836   -4.4195   -2.2124 N   0  0  0  0  0  0  0  0  0  0  0  0
   -3.9286   -5.8352   -2.0654 C   0  0  0  0  0  0  0  0  0  0  0  0
   -4.4487   -3.8377   -2.5408 H   0  0  0  0  0  0  0  0  0  0  0  0
   -3.6878   -6.3494   -3.0076 H   0  0  0  0  0  0  0  0  0  0  0  0
   -3.2971   -6.2346   -1.2581 H   0  0  0  0  0  0  0  0  0  0  0  0
   -4.9877   -6.0002   -1.8181 H   0  0  0  0  0  0  0  0  0  0  0  0
  1  3  1  0  0  0  0
  1  7  1  0  0  0  0
  1  2  2  0  0  0  0
 35 36  1  0  0  0  0
 36 44  1  0  0  0  0
 36 37  2  0  0  0  0
  8  9  1  0  0  0  0
  9 17  1  0  0  0  0
  9 10  2  0  0  0  0
 18 19  1  0  0  0  0
 19 34  1  0  0  0  0
 19 20  2  0  0  0  0
 35 38  1  0  0  0  0
  8 11  1  0  0  0  0
 44 45  1  0  0  0  0
 23 24  1  0  0  0  0
 21 22  1  0  0  0  0
 18 21  1  0  0  0  0
 22 23  1  0  0  0  0
 34 35  1  0  0  0  0
  7  8  1  0  0  0  0
 17 18  1  0  0  0  0
  3  4  1  0  0  0  0
  3  5  1  0  0  0  0
  3  6  1  0  0  0  0
 38 41  1  0  0  0  0
 38 42  1  0  0  0  0
 38 43  1  0  0  0  0
 11 14  1  0  0  0  0
 11 15  1  0  0  0  0
 11 16  1  0  0  0  0
 45 47  1  0  0  0  0
 45 48  1  0  0  0  0
 45 49  1  0  0  0  0
 24 31  1  0  0  0  0
 24 32  1  0  0  0  0
 24 33  1  0  0  0  0
 21 27  1  0  0  0  0
 21 28  1  0  0  0  0
 22 29  1  0  0  0  0
 22 30  1  0  0  0  0
 35 40  1  0  0  0  0
  8 13  1  0  0  0  0
 18 26  1  0  0  0  0
 44 46  1  0  0  0  0
  7 12  1  0  0  0  0
 34 39  1  0  0  0  0
 17 25  1  0  0  0  0
M  END
$$$$

  -OEChem-05262214473D

 49 48  0     1  0  0  0  0  0999 V2000
   -0.0561   -5.3799    2.6949 C   0  0  0  0  0  0  0  0  0  0  0  0
    0.7325   -5.0736    3.5815 O   0  0  0  0  0  0  0  0  0  0  0  0
   -1.0067   -6.5099    2.9135 C   0  0  0  0  0  0  0  0  0  0  0  0
   -0.5910   -7.4777    2.5899 H   0  0  0  0  0  0  0  0  0  0  0  0
   -1.2629   -6.6440    3.9767 H   0  0  0  0  0  0  0  0  0  0  0  0
   -1.9729   -6.4206    2.3918 H   0  0  0  0  0  0  0  0  0  0  0  0
   -0.1735   -4.7694    1.4571 N   0  0  0  0  0  0  0  0  0  0  0  0
    0.6439   -3.6603    1.0409 C   0  0  2  0  0  0  0  0  0  0  0  0
   -0.2788   -2.5625    0.5280 C   0  0  0  0  0  0  0  0  0  0  0  0
   -1.4197   -2.7791    0.1251 O   0  0  0  0  0  0  0  0  0  0  0  0
    1.6395   -4.0779   -0.0301 C   0  0  0  0  0  0  0  0  0  0  0  0
   -0.8741   -5.1235    0.8083 H   0  0  0  0  0  0  0  0  0  0  0  0
    1.1738   -3.3062    1.9318 H   0  0  0  0  0  0  0  0  0  0  0  0
    1.1270   -4.4358   -0.9305 H   0  0  0  0  0  0  0  0  0  0  0  0
    2.2797   -3.2400   -0.3251 H   0  0  0  0  0  0  0  0  0  0  0  0
    2.2827   -4.8880    0.3303 H   0  0  0  0  0  0  0  0  0  0  0  0
    0.3351   -1.3153    0.5316 N   0  0  0  0  0  0  0  0  0  0  0  0
   -0.3268   -0.1184    0.0807 C   0  0  2  0  0  0  0  0  0  0  0  0
   -1.5732   -0.5134   -0.7055 C   0  0  0  0  0  0  0  0  0  0  0  0
   -2.4826    0.2743   -0.9576 O   0  0  0  0  0  0  0  0  0  0  0  0
    0.6130    0.7980   -0.7147 C   0  0  0  0  0  0  0  0  0  0  0  0
    1.7513    1.3861    0.1225 C   0  0  0  0  0  0  0  0  0  0  0  0
    1.0878    2.4029    1.4753 S   0  0  0  0  0  0  0  0  0  0  0  0
    0.4321    3.7624    0.4817 C   0  0  0  0  0  0  0  0  0  0  0  0
    1.2790   -1.2290    0.9021 H   0  0  0  0  0  0  0  0  0  0  0  0
   -0.6506    0.4044    0.9890 H   0  0  0  0  0  0  0  0  0  0  0  0
    0.0175    1.6150   -1.1439 H   0  0  0  0  0  0  0  0  0  0  0  0
    1.0344    0.2341   -1.5567 H   0  0  0  0  0  0  0  0  0  0  0  0
    2.3992    2.0219   -0.4881 H   0  0  0  0  0  0  0  0  0  0  0  0
    2.3656    0.5953    0.5630 H   0  0  0  0  0  0  0  0  0  0  0  0
   -0.0275    4.5104    1.1323 H   0  0  0  0  0  0  0  0  0  0  0  0
   -0.3211    3.3840   -0.2139 H   0  0  0  0  0  0  0  0  0  0  0  0
    1.2399    4.2304   -0.0861 H   0  0  0  0  0  0  0  0  0  0  0  0
   -1.5653   -1.8540   -1.0631 N   0  0  0  0  0  0  0  0  0  0  0  0
   -2.6434   -2.4683   -1.8018 C   0  0  2  0  0  0  0  0  0  0  0  0
   -2.8676   -3.8635   -1.2337 C   0  0  0  0  0  0  0  0  0  0  0  0
   -2.0051   -4.4816   -0.6132 O   0  0  0  0  0  0  0  0  0  0  0  0
   -2.3304   -2.5307   -3.2887 C   0  0  0  0  0  0  0  0  0  0  0  0
   -0.7579   -2.4273   -0.8371 H   0  0  0  0  0  0  0  0  0  0  0  0
   -3.5348   -1.8554   -1.6289 H   0  0  0  0  0  0  0  0  0  0  0  0
   -1.4403   -3.1406   -3.4815 H   0  0  0  0  0  0  0  0  0  0  0  0
   -3.1607   -2.9707   -3.8508 H   0  0  0  0  0  0  0  0  0  0  0  0
   -2.1402   -1.5292   -3.6893 H   0  0  0  0  0  0  0  0  0  0  0  0
   -4.1294   -4.3545   -1.5383 N   0  0  0  0  0  0  0  0  0  0  0  0
   -4.5784   -5.6626   -1.1219 C   0  0  0  0  0  0  0  0  0  0  0  0
   -4.7868   -3.7656   -2.0410 H   0  0  0  0  0  0  0  0  0  0  0  0
   -4.3631   -6.3942   -1.9146 H   0  0  0  0  0  0  0  0  0  0  0  0
   -4.0527   -5.9546   -0.2009 H   0  0  0  0  0  0  0  0  0  0  0  0
   -5.6617   -5.6353   -0.9329 H   0  0  0  0  0  0  0  0  0  0  0  0
  1  3  1  0  0  0  0
  1  7  1  0  0  0  0
  1  2  2  0  0  0  0
 35 36  1  0  0  0  0
 36 44  1  0  0  0  0
 36 37  2  0  0  0  0
  8  9  1  0  0  0  0
  9 17  1  0  0  0  0
  9 10  2  0  0  0  0
 18 19  1  0  0  0  0
 19 34  1  0  0  0  0
 19 20  2  0  0  0  0
 35 38  1  0  0  0  0
  8 11  1  0  0  0  0
 44 45  1  0  0  0  0
 23 24  1  0  0  0  0
 21 22  1  0  0  0  0
 18 21  1  0  0  0  0
 22 23  1  0  0  0  0
 34 35  1  0  0  0  0
  7  8  1  0  0  0  0
 17 18  1  0  0  0  0
  3  4  1  0  0  0  0
  3  5  1  0  0  0  0
  3  6  1  0  0  0  0
 38 41  1  0  0  0  0
 38 42  1  0  0  0  0
 38 43  1  0  0  0  0
 11 14  1  0  0  0  0
 11 15  1  0  0  0  0
 11 16  1  0  0  0  0
 45 47  1  0  0  0  0
 45 48  1  0  0  0  0
 45 49  1  0  0  0  0
 24 31  1  0  0  0  0
 24 32  1  0  0  0  0
 24 33  1  0  0  0  0
 21 27  1  0  0  0  0
 21 28  1  0  0  0  0
 22 29  1  0  0  0  0
 22 30  1  0  0  0  0
 35 40  1  0  0  0  0
  8 13  1  0  0  0  0
 18 26  1  0  0  0  0
 44 46  1  0  0  0  0
  7 12  1  0  0  0  0
 34 39  1  0  0  0  0
 17 25  1  0  0  0  0
M  END
$$$$

  -OEChem-05262214473D

 49 48  0     1  0  0  0  0  0999 V2000
   -0.0561   -5.3799    2.6949 C   0  0  0  0  0  0  0  0  0  0  0  0
    0.7325   -5.0736    3.5815 O   0  0  0  0  0  0  0  0  0  0  0  0
   -1.0067   -6.5099    2.9135 C   0  0  0  0  0  0  0  0  0  0  0  0
   -0.5910   -7.4777    2.5899 H   0  0  0  0  0  0  0  0  0  0  0  0
   -1.2629   -6.6440    3.9767 H   0  0  0  0  0  0  0  0  0  0  0  0
   -1.9729   -6.4206    2.3918 H   0  0  0  0  0  0  0  0  0  0  0  0
   -0.1735   -4.7694    1.4571 N   0  0  0  0  0  0  0  0  0  0  0  0
    0.6439   -3.6603    1.0409 C   0  0  2  0  0  0  0  0  0  0  0  0
   -0.2788   -2.5625    0.5280 C   0  0  0  0  0  0  0  0  0  0  0  0
   -1.4197   -2.7791    0.1251 O   0  0  0  0  0  0  0  0  0  0  0  0
    1.6395   -4.0779   -0.0301 C   0  0  0  0  0  0  0  0  0  0  0  0
   -0.8741   -5.1235    0.8083 H   0  0  0  0  0  0  0  0  0  0  0  0
    1.1738   -3.3062    1.9318 H   0  0  0  0  0  0  0  0  0  0  0  0
    1.1270   -4.4358   -0.9305 H   0  0  0  0  0  0  0  0  0  0  0  0
    2.2797   -3.2400   -0.3251 H   0  0  0  0  0  0  0  0  0  0  0  0
    2.2827   -4.8880    0.3303 H   0  0  0  0  0  0  0  0  0  0  0  0
    0.3351   -1.3153    0.5316 N   0  0  0  0  0  0  0  0  0  0  0  0
   -0.3268   -0.1184    0.0807 C   0  0  2  0  0  0  0  0  0  0  0  0
   -1.5732   -0.5134   -0.7055 C   0  0  0  0  0  0  0  0  0  0  0  0
   -2.3483    0.3096   -1.1883 O   0  0  0  0  0  0  0  0  0  0  0  0
    0.6130    0.7980   -0.7147 C   0  0  0  0  0  0  0  0  0  0  0  0
    1.7513    1.3861    0.1225 C   0  0  0  0  0  0  0  0  0  0  0  0
    1.0878    2.4029    1.4753 S   0  0  0  0  0  0  0  0  0  0  0  0
    0.4321    3.7624    0.4817 C   0  0  0  0  0  0  0  0  0  0  0  0
    1.2790   -1.2290    0.9021 H   0  0  0  0  0  0  0  0  0  0  0  0
   -0.6506    0.4044    0.9890 H   0  0  0  0  0  0  0  0  0  0  0  0
    0.0175    1.6150   -1.1439 H   0  0  0  0  0  0  0  0  0  0  0  0
    1.0344    0.2341   -1.5567 H   0  0  0  0  0  0  0  0  0  0  0  0
    2.3992    2.0219   -0.4881 H   0  0  0  0  0  0  0  0  0  0  0  0
    2.3656    0.5953    0.5630 H   0  0  0  0  0  0  0  0  0  0  0  0
   -0.0275    4.5104    1.1323 H   0  0  0  0  0  0  0  0  0  0  0  0
   -0.3211    3.3840   -0.2139 H   0  0  0  0  0  0  0  0  0  0  0  0
    1.2399    4.2304   -0.0861 H   0  0  0  0  0  0  0  0  0  0  0  0
   -1.7350   -1.8896   -0.7762 N   0  0  0  0  0  0  0  0  0  0  0  0
   -2.8484   -2.5079   -1.4570 C   0  0  2  0  0  0  0  0  0  0  0  0
   -3.2961   -3.7078   -0.6327 C   0  0  0  0  0  0  0  0  0  0  0  0
   -2.5629   -4.2811    0.1704 O   0  0  0  0  0  0  0  0  0  0  0  0
   -2.4693   -2.9290   -2.8683 C   0  0  0  0  0  0  0  0  0  0  0  0
   -1.0293   -2.4978   -0.3715 H   0  0  0  0  0  0  0  0  0  0  0  0
   -3.6526   -1.7647   -1.4877 H   0  0  0  0  0  0  0  0  0  0  0  0
   -1.6649   -3.6735   -2.8577 H   0  0  0  0  0  0  0  0  0  0  0  0
   -3.3225   -3.3717   -3.3929 H   0  0  0  0  0  0  0  0  0  0  0  0
   -2.1194   -2.0698   -3.4506 H   0  0  0  0  0  0  0  0  0  0  0  0
   -4.5966   -4.0898   -0.9307 N   0  0  0  0  0  0  0  0  0  0  0  0
   -5.2463   -5.2097   -0.2907 C   0  0  0  0  0  0  0  0  0  0  0  0
   -5.1373   -3.5452   -1.5962 H   0  0  0  0  0  0  0  0  0  0  0  0
   -5.0945   -6.1164   -0.8946 H   0  0  0  0  0  0  0  0  0  0  0  0
   -4.8161   -5.3598    0.7105 H   0  0  0  0  0  0  0  0  0  0  0  0
   -6.3235   -5.0057   -0.2001 H   0  0  0  0  0  0  0  0  0  0  0  0
  1  3  1  0  0  0  0
  1  7  1  0  0  0  0
  1  2  2  0  0  0  0
 35 36  1  0  0  0  0
 36 44  1  0  0  0  0
 36 37  2  0  0  0  0
  8  9  1  0  0  0  0
  9 17  1  0  0  0  0
  9 10  2  0  0  0  0
 18 19  1  0  0  0  0
 19 34  1  0  0  0  0
 19 20  2  0  0  0  0
 35 38  1  0  0  0  0
  8 11  1  0  0  0  0
 44 45  1  0  0  0  0
 23 24  1  0  0  0  0
 21 22  1  0  0  0  0
 18 21  1  0  0  0  0
 22 23  1  0  0  0  0
 34 35  1  0  0  0  0
  7  8  1  0  0  0  0
 17 18  1  0  0  0  0
  3  4  1  0  0  0  0
  3  5  1  0  0  0  0
  3  6  1  0  0  0  0
 38 41  1  0  0  0  0
 38 42  1  0  0  0  0
 38 43  1  0  0  0  0
 11 14  1  0  0  0  0
 11 15  1  0  0  0  0
 11 16  1  0  0  0  0
 45 47  1  0  0  0  0
 45 48  1  0  0  0  0
 45 49  1  0  0  0  0
 24 31  1  0  0  0  0
 24 32  1  0  0  0  0
 24 33  1  0  0  0  0
 21 27  1  0  0  0  0
 21 28  1  0  0  0  0
 22 29  1  0  0  0  0
 22 30  1  0  0  0  0
 35 40  1  0  0  0  0
  8 13  1  0  0  0  0
 18 26  1  0  0  0  0
 44 46  1  0  0  0  0
  7 12  1  0  0  0  0
 34 39  1  0  0  0  0
 17 25  1  0  0  0  0
M  END
$$$$

  -OEChem-05262214473D

 49 48  0     1  0  0  0  0  0999 V2000
   -0.0561   -5.3799    2.6949 C   0  0  0  0  0  0  0  0  0  0  0  0
    0.7325   -5.0736    3.5815 O   0  0  0  0  0  0  0  0  0  0  0  0
   -1.0067   -6.5099    2.9135 C   0  0  0  0  0  0  0  0  0  0  0  0
   -0.5910   -7.4777    2.5899 H   0  0  0  0  0  0  0  0  0  0  0  0
   -1.2629   -6.6440    3.9767 H   0  0  0  0  0  0  0  0  0  0  0  0
   -1.9729   -6.4206    2.3918 H   0  0  0  0  0  0  0  0  0  0  0  0
   -0.1735   -4.7694    1.4571 N   0  0  0  0  0  0  0  0  0  0  0  0
    0.6439   -3.6603    1.0409 C   0  0  2  0  0  0  0  0  0  0  0  0
   -0.2788   -2.5625    0.5280 C   0  0  0  0  0  0  0  0  0  0  0  0
   -1.4197   -2.7791    0.1251 O   0  0  0  0  0  0  0  0  0  0  0  0
    1.6395   -4.0779   -0.0301 C   0  0  0  0  0  0  0  0  0  0  0  0
   -0.8741   -5.1235    0.8083 H   0  0  0  0  0  0  0  0  0  0  0  0
    1.1738   -3.3062    1.9318 H   0  0  0  0  0  0  0  0  0  0  0  0
    1.1270   -4.4358   -0.9305 H   0  0  0  0  0  0  0  0  0  0  0  0
    2.2797   -3.2400   -0.3251 H   0  0  0  0  0  0  0  0  0  0  0  0
    2.2827   -4.8880    0.3303 H   0  0  0  0  0  0  0  0  0  0  0  0
    0.3351   -1.3153    0.5316 N   0  0  0  0  0  0  0  0  0  0  0  0
   -0.3268   -0.1184    0.0807 C   0  0  2  0  0  0  0  0  0  0  0  0
   -1.5732   -0.5134   -0.7055 C   0  0  0  0  0  0  0  0  0  0  0  0
   -2.1983    0.2769   -1.4095 O   0  0  0  0  0  0  0  0  0  0  0  0
    0.6130    0.7980   -0.7147 C   0  0  0  0  0  0  0  0  0  0  0  0
    1.7513    1.3861    0.1225 C   0  0  0  0  0  0  0  0  0  0  0  0
    1.0878    2.4029    1.4753 S   0  0  0  0  0  0  0  0  0  0  0  0
    0.4321    3.7624    0.4817 C   0  0  0  0  0  0  0  0  0  0  0  0
    1.2790   -1.2290    0.9021 H   0  0  0  0  0  0  0  0  0  0  0  0
   -0.6506    0.4044    0.9890 H   0  0  0  0  0  0  0  0  0  0  0  0
    0.0175    1.6150   -1.1439 H   0  0  0  0  0  0  0  0  0  0  0  0
    1.0344    0.2341   -1.5567 H   0  0  0  0  0  0  0  0  0  0  0  0
    2.3992    2.0219   -0.4881 H   0  0  0  0  0  0  0  0  0  0  0  0
    2.3656    0.5953    0.5630 H   0  0  0  0  0  0  0  0  0  0  0  0
   -0.0275    4.5104    1.1323 H   0  0  0  0  0  0  0  0  0  0  0  0
   -0.3211    3.3840   -0.2139 H   0  0  0  0  0  0  0  0  0  0  0  0
    1.2399    4.2304   -0.0861 H   0  0  0  0  0  0  0  0  0  0  0  0
   -1.9229   -1.8407   -0.5029 N   0  0  0  0  0  0  0  0  0  0  0  0
   -3.0748   -2.4460   -1.1293 C   0  0  2  0  0  0  0  0  0  0  0  0
   -3.7295   -3.3731   -0.1138 C   0  0  0  0  0  0  0  0  0  0  0  0
   -3.1275   -3.8472    0.8474 O   0  0  0  0  0  0  0  0  0  0  0  0
   -2.6849   -3.2063   -2.3873 C   0  0  0  0  0  0  0  0  0  0  0  0
   -1.3320   -2.4312    0.0750 H   0  0  0  0  0  0  0  0  0  0  0  0
   -3.7637   -1.6315   -1.3784 H   0  0  0  0  0  0  0  0  0  0  0  0
   -1.9948   -4.0263   -2.1575 H   0  0  0  0  0  0  0  0  0  0  0  0
   -3.5629   -3.6406   -2.8766 H   0  0  0  0  0  0  0  0  0  0  0  0
   -2.1874   -2.5443   -3.1043 H   0  0  0  0  0  0  0  0  0  0  0  0
   -5.0533   -3.6433   -0.4312 N   0  0  0  0  0  0  0  0  0  0  0  0
   -5.8868   -4.5074    0.3717 C   0  0  0  0  0  0  0  0  0  0  0  0
   -5.4762   -3.1915   -1.2367 H   0  0  0  0  0  0  0  0  0  0  0  0
   -5.8323   -5.5349   -0.0171 H   0  0  0  0  0  0  0  0  0  0  0  0
   -5.5353   -4.4907    1.4139 H   0  0  0  0  0  0  0  0  0  0  0  0
   -6.9278   -4.1544    0.3301 H   0  0  0  0  0  0  0  0  0  0  0  0
  1  3  1  0  0  0  0
  1  7  1  0  0  0  0
  1  2  2  0  0  0  0
 35 36  1  0  0  0  0
 36 44  1  0  0  0  0
 36 37  2  0  0  0  0
  8  9  1  0  0  0  0
  9 17  1  0  0  0  0
  9 10  2  0  0  0  0
 18 19  1  0  0  0  0
 19 34  1  0  0  0  0
 19 20  2  0  0  0  0
 35 38  1  0  0  0  0
  8 11  1  0  0  0  0
 44 45  1  0  0  0  0
 23 24  1  0  0  0  0
 21 22  1  0  0  0  0
 18 21  1  0  0  0  0
 22 23  1  0  0  0  0
 34 35  1  0  0  0  0
  7  8  1  0  0  0  0
 17 18  1  0  0  0  0
  3  4  1  0  0  0  0
  3  5  1  0  0  0  0
  3  6  1  0  0  0  0
 38 41  1  0  0  0  0
 38 42  1  0  0  0  0
 38 43  1  0  0  0  0
 11 14  1  0  0  0  0
 11 15  1  0  0  0  0
 11 16  1  0  0  0  0
 45 47  1  0  0  0  0
 45 48  1  0  0  0  0
 45 49  1  0  0  0  0
 24 31  1  0  0  0  0
 24 32  1  0  0  0  0
 24 33  1  0  0  0  0
 21 27  1  0  0  0  0
 21 28  1  0  0  0  0
 22 29  1  0  0  0  0
 22 30  1  0  0  0  0
 35 40  1  0  0  0  0
  8 13  1  0  0  0  0
 18 26  1  0  0  0  0
 44 46  1  0  0  0  0
  7 12  1  0  0  0  0
 34 39  1  0  0  0  0
 17 25  1  0  0  0  0
M  END
$$$$

  -OEChem-05262214473D

 49 48  0     1  0  0  0  0  0999 V2000
   -0.0561   -5.3799    2.6949 C   0  0  0  0  0  0  0  0  0  0  0  0
    0.7325   -5.0736    3.5815 O   0  0  0  0  0  0  0  0  0  0  0  0
   -1.0067   -6.5099    2.9135 C   0  0  0  0  0  0  0  0  0  0  0  0
   -0.5910   -7.4777    2.5899 H   0  0  0  0  0  0  0  0  0  0  0  0
   -1.2629   -6.6440    3.9767 H   0  0  0  0  0  0  0  0  0  0  0  0
   -1.9729   -6.4206    2.3918 H   0  0  0  0  0  0  0  0  0  0  0  0
   -0.1735   -4.7694    1.4571 N   0  0  0  0  0  0  0  0  0  0  0  0
    0.6439   -3.6603    1.0409 C   0  0  2  0  0  0  0  0  0  0  0  0
   -0.2788   -2.5625    0.5280 C   0  0  0  0  0  0  0  0  0  0  0  0
   -1.4197   -2.7791    0.1251 O   0  0  0  0  0  0  0  0  0  0  0  0
    1.6395   -4.0779   -0.0301 C   0  0  0  0  0  0  0  0  0  0  0  0
   -0.8741   -5.1235    0.8083 H   0  0  0  0  0  0  0  0  0  0  0  0
    1.1738   -3.3062    1.9318 H   0  0  0  0  0  0  0  0  0  0  0  0
    1.1270   -4.4358   -0.9305 H   0  0  0  0  0  0  0  0  0  0  0  0
    2.2797   -3.2400   -0.3251 H   0  0  0  0  0  0  0  0  0  0  0  0
    2.2827   -4.8880    0.3303 H   0  0  0  0  0  0  0  0  0  0  0  0
    0.3351   -1.3153    0.5316 N   0  0  0  0  0  0  0  0  0  0  0  0
   -0.3268   -0.1184    0.0807 C   0  0  2  0  0  0  0  0  0  0  0  0
   -1.5732   -0.5134   -0.7055 C   0  0  0  0  0  0  0  0  0  0  0  0
   -2.0431    0.1786   -1.6063 O   0  0  0  0  0  0  0  0  0  0  0  0
    0.6130    0.7980   -0.7147 C   0  0  0  0  0  0  0  0  0  0  0  0
    1.7513    1.3861    0.1225 C   0  0  0  0  0  0  0  0  0  0  0  0
    1.0878    2.4029    1.4753 S   0  0  0  0  0  0  0  0  0  0  0  0
    0.4321    3.7624    0.4817 C   0  0  0  0  0  0  0  0  0  0  0  0
    1.2790   -1.2290    0.9021 H   0  0  0  0  0  0  0  0  0  0  0  0
   -0.6506    0.4044    0.9890 H   0  0  0  0  0  0  0  0  0  0  0  0
    0.0175    1.6150   -1.1439 H   0  0  0  0  0  0  0  0  0  0  0  0
    1.0344    0.2341   -1.5567 H   0  0  0  0  0  0  0  0  0  0  0  0
    2.3992    2.0219   -0.4881 H   0  0  0  0  0  0  0  0  0  0  0  0
    2.3656    0.5953    0.5630 H   0  0  0  0  0  0  0  0  0  0  0  0
   -0.0275    4.5104    1.1323 H   0  0  0  0  0  0  0  0  0  0  0  0
   -0.3211    3.3840   -0.2139 H   0  0  0  0  0  0  0  0  0  0  0  0
    1.2399    4.2304   -0.0861 H   0  0  0  0  0  0  0  0  0  0  0  0
   -2.1162   -1.7106   -0.2618 N   0  0  0  0  0  0  0  0  0  0  0  0
   -3.3071   -2.2866   -0.8410 C   0  0  2  0  0  0  0  0  0  0  0  0
   -4.1382   -2.8824    0.2876 C   0  0  0  0  0  0  0  0  0  0  0  0
   -3.6603   -3.2097    1.3719 O   0  0  0  0  0  0  0  0  0  0  0  0
   -2.9623   -3.3437   -1.8785 C   0  0  0  0  0  0  0  0  0  0  0  0
   -1.6455   -2.2321    0.4718 H   0  0  0  0  0  0  0  0  0  0  0  0
   -3.8606   -1.4649   -1.3085 H   0  0  0  0  0  0  0  0  0  0  0  0
   -2.4074   -4.1751   -1.4287 H   0  0  0  0  0  0  0  0  0  0  0  0
   -3.8656   -3.7590   -2.3372 H   0  0  0  0  0  0  0  0  0  0  0  0
   -2.3396   -2.9204   -2.6741 H   0  0  0  0  0  0  0  0  0  0  0  0
   -5.4683   -3.0454   -0.0736 N   0  0  0  0  0  0  0  0  0  0  0  0
   -6.4561   -3.6035    0.8201 C   0  0  0  0  0  0  0  0  0  0  0  0
   -5.7805   -2.7287   -0.9868 H   0  0  0  0  0  0  0  0  0  0  0  0
   -6.5263   -4.6892    0.6580 H   0  0  0  0  0  0  0  0  0  0  0  0
   -6.1612   -3.4066    1.8614 H   0  0  0  0  0  0  0  0  0  0  0  0
   -7.4335   -3.1394    0.6219 H   0  0  0  0  0  0  0  0  0  0  0  0
  1  3  1  0  0  0  0
  1  7  1  0  0  0  0
  1  2  2  0  0  0  0
 35 36  1  0  0  0  0
 36 44  1  0  0  0  0
 36 37  2  0  0  0  0
  8  9  1  0  0  0  0
  9 17  1  0  0  0  0
  9 10  2  0  0  0  0
 18 19  1  0  0  0  0
 19 34  1  0  0  0  0
 19 20  2  0  0  0  0
 35 38  1  0  0  0  0
  8 11  1  0  0  0  0
 44 45  1  0  0  0  0
 23 24  1  0  0  0  0
 21 22  1  0  0  0  0
 18 21  1  0  0  0  0
 22 23  1  0  0  0  0
 34 35  1  0  0  0  0
  7  8  1  0  0  0  0
 17 18  1  0  0  0  0
  3  4  1  0  0  0  0
  3  5  1  0  0  0  0
  3  6  1  0  0  0  0
 38 41  1  0  0  0  0
 38 42  1  0  0  0  0
 38 43  1  0  0  0  0
 11 14  1  0  0  0  0
 11 15  1  0  0  0  0
 11 16  1  0  0  0  0
 45 47  1  0  0  0  0
 45 48  1  0  0  0  0
 45 49  1  0  0  0  0
 24 31  1  0  0  0  0
 24 32  1  0  0  0  0
 24 33  1  0  0  0  0
 21 27  1  0  0  0  0
 21 28  1  0  0  0  0
 22 29  1  0  0  0  0
 22 30  1  0  0  0  0
 35 40  1  0  0  0  0
  8 13  1  0  0  0  0
 18 26  1  0  0  0  0
 44 46  1  0  0  0  0
  7 12  1  0  0  0  0
 34 39  1  0  0  0  0
 17 25  1  0  0  0  0
M  END
$$$$

  -OEChem-05262214473D

 49 48  0     1  0  0  0  0  0999 V2000
   -0.0561   -5.3799    2.6949 C   0  0  0  0  0  0  0  0  0  0  0  0
    0.7325   -5.0736    3.5815 O   0  0  0  0  0  0  0  0  0  0  0  0
   -1.0067   -6.5099    2.9135 C   0  0  0  0  0  0  0  0  0  0  0  0
   -0.5910   -7.4777    2.5899 H   0  0  0  0  0  0  0  0  0  0  0  0
   -1.2629   -6.6440    3.9767 H   0  0  0  0  0  0  0  0  0  0  0  0
   -1.9729   -6.4206    2.3918 H   0  0  0  0  0  0  0  0  0  0  0  0
   -0.1735   -4.7694    1.4571 N   0  0  0  0  0  0  0  0  0  0  0  0
    0.6439   -3.6603    1.0409 C   0  0  2  0  0  0  0  0  0  0  0  0
   -0.2788   -2.5625    0.5280 C   0  0  0  0  0  0  0  0  0  0  0  0
   -1.4197   -2.7791    0.1251 O   0  0  0  0  0  0  0  0  0  0  0  0
    1.6395   -4.0779   -0.0301 C   0  0  0  0  0  0  0  0  0  0  0  0
   -0.8741   -5.1235    0.8083 H   0  0  0  0  0  0  0  0  0  0  0  0
    1.1738   -3.3062    1.9318 H   0  0  0  0  0  0  0  0  0  0  0  0
    1.1270   -4.4358   -0.9305 H   0  0  0  0  0  0  0  0  0  0  0  0
    2.2797   -3.2400   -0.3251 H   0  0  0  0  0  0  0  0  0  0  0  0
    2.2827   -4.8880    0.3303 H   0  0  0  0  0  0  0  0  0  0  0  0
    0.3351   -1.3153    0.5316 N   0  0  0  0  0  0  0  0  0  0  0  0
   -0.3268   -0.1184    0.0807 C   0  0  2  0  0  0  0  0  0  0  0  0
   -1.5732   -0.5134   -0.7055 C   0  0  0  0  0  0  0  0  0  0  0  0
   -1.8930    0.0213   -1.7652 O   0  0  0  0  0  0  0  0  0  0  0  0
    0.6130    0.7980   -0.7147 C   0  0  0  0  0  0  0  0  0  0  0  0
    1.7513    1.3861    0.1225 C   0  0  0  0  0  0  0  0  0  0  0  0
    1.0878    2.4029    1.4753 S   0  0  0  0  0  0  0  0  0  0  0  0
    0.4321    3.7624    0.4817 C   0  0  0  0  0  0  0  0  0  0  0  0
    1.2790   -1.2290    0.9021 H   0  0  0  0  0  0  0  0  0  0  0  0
   -0.6506    0.4044    0.9890 H   0  0  0  0  0  0  0  0  0  0  0  0
    0.0175    1.6150   -1.1439 H   0  0  0  0  0  0  0  0  0  0  0  0
    1.0344    0.2341   -1.5567 H   0  0  0  0  0  0  0  0  0  0  0  0
    2.3992    2.0219   -0.4881 H   0  0  0  0  0  0  0  0  0  0  0  0
    2.3656    0.5953    0.5630 H   0  0  0  0  0  0  0  0  0  0  0  0
   -0.0275    4.5104    1.1323 H   0  0  0  0  0  0  0  0  0  0  0  0
   -0.3211    3.3840   -0.2139 H   0  0  0  0  0  0  0  0  0  0  0  0
    1.2399    4.2304   -0.0861 H   0  0  0  0  0  0  0  0  0  0  0  0
   -2.3017   -1.5082   -0.0694 N   0  0  0  0  0  0  0  0  0  0  0  0
   -3.5296   -2.0407   -0.6118 C   0  0  2  0  0  0  0  0  0  0  0  0
   -4.4945   -2.2689    0.5442 C   0  0  0  0  0  0  0  0  0  0  0  0
   -4.1252   -2.4120    1.7079 O   0  0  0  0  0  0  0  0  0  0  0  0
   -3.2826   -3.3318   -1.3766 C   0  0  0  0  0  0  0  0  0  0  0  0
   -1.9483   -1.9140    0.7921 H   0  0  0  0  0  0  0  0  0  0  0  0
   -3.9367   -1.2763   -1.2826 H   0  0  0  0  0  0  0  0  0  0  0  0
   -2.8746   -4.1096   -0.7209 H   0  0  0  0  0  0  0  0  0  0  0  0
   -4.2100   -3.7190   -1.8114 H   0  0  0  0  0  0  0  0  0  0  0  0
   -2.5656   -3.1723   -2.1892 H   0  0  0  0  0  0  0  0  0  0  0  0
   -5.8134   -2.3370    0.1175 N   0  0  0  0  0  0  0  0  0  0  0  0
   -6.9155   -2.5597    1.0239 C   0  0  0  0  0  0  0  0  0  0  0  0
   -6.0294   -2.1882   -0.8638 H   0  0  0  0  0  0  0  0  0  0  0  0
   -7.1290   -3.6370    1.0849 H   0  0  0  0  0  0  0  0  0  0  0  0
   -6.6511   -2.1814    2.0224 H   0  0  0  0  0  0  0  0  0  0  0  0
   -7.8062   -2.0298    0.6551 H   0  0  0  0  0  0  0  0  0  0  0  0
  1  3  1  0  0  0  0
  1  7  1  0  0  0  0
  1  2  2  0  0  0  0
 35 36  1  0  0  0  0
 36 44  1  0  0  0  0
 36 37  2  0  0  0  0
  8  9  1  0  0  0  0
  9 17  1  0  0  0  0
  9 10  2  0  0  0  0
 18 19  1  0  0  0  0
 19 34  1  0  0  0  0
 19 20  2  0  0  0  0
 35 38  1  0  0  0  0
  8 11  1  0  0  0  0
 44 45  1  0  0  0  0
 23 24  1  0  0  0  0
 21 22  1  0  0  0  0
 18 21  1  0  0  0  0
 22 23  1  0  0  0  0
 34 35  1  0  0  0  0
  7  8  1  0  0  0  0
 17 18  1  0  0  0  0
  3  4  1  0  0  0  0
  3  5  1  0  0  0  0
  3  6  1  0  0  0  0
 38 41  1  0  0  0  0
 38 42  1  0  0  0  0
 38 43  1  0  0  0  0
 11 14  1  0  0  0  0
 11 15  1  0  0  0  0
 11 16  1  0  0  0  0
 45 47  1  0  0  0  0
 45 48  1  0  0  0  0
 45 49  1  0  0  0  0
 24 31  1  0  0  0  0
 24 32  1  0  0  0  0
 24 33  1  0  0  0  0
 21 27  1  0  0  0  0
 21 28  1  0  0  0  0
 22 29  1  0  0  0  0
 22 30  1  0  0  0  0
 35 40  1  0  0  0  0
  8 13  1  0  0  0  0
 18 26  1  0  0  0  0
 44 46  1  0  0  0  0
  7 12  1  0  0  0  0
 34 39  1  0  0  0  0
 17 25  1  0  0  0  0
M  END
$$$$

  -OEChem-05262214473D

 49 48  0     1  0  0  0  0  0999 V2000
   -0.0561   -5.3799    2.6949 C   0  0  0  0  0  0  0  0  0  0  0  0
    0.7325   -5.0736    3.5815 O   0  0  0  0  0  0  0  0  0  0  0  0
   -1.0067   -6.5099    2.9135 C   0  0  0  0  0  0  0  0  0  0  0  0
   -0.5910   -7.4777    2.5899 H   0  0  0  0  0  0  0  0  0  0  0  0
   -1.2629   -6.6440    3.9767 H   0  0  0  0  0  0  0  0  0  0  0  0
   -1.9729   -6.4206    2.3918 H   0  0  0  0  0  0  0  0  0  0  0  0
   -0.1735   -4.7694    1.4571 N   0  0  0  0  0  0  0  0  0  0  0  0
    0.6439   -3.6603    1.0409 C   0  0  2  0  0  0  0  0  0  0  0  0
   -0.2788   -2.5625    0.5280 C   0  0  0  0  0  0  0  0  0  0  0  0
   -1.4197   -2.7791    0.1251 O   0  0  0  0  0  0  0  0  0  0  0  0
    1.6395   -4.0779   -0.0301 C   0  0  0  0  0  0  0  0  0  0  0  0
   -0.8741   -5.1235    0.8083 H   0  0  0  0  0  0  0  0  0  0  0  0
    1.1738   -3.3062    1.9318 H   0  0  0  0  0  0  0  0  0  0  0  0
    1.1270   -4.4358   -0.9305 H   0  0  0  0  0  0  0  0  0  0  0  0
    2.2797   -3.2400   -0.3251 H   0  0  0  0  0  0  0  0  0  0  0  0
    2.2827   -4.8880    0.3303 H   0  0  0  0  0  0  0  0  0  0  0  0
    0.3351   -1.3153    0.5316 N   0  0  0  0  0  0  0  0  0  0  0  0
   -0.3268   -0.1184    0.0807 C   0  0  2  0  0  0  0  0  0  0  0  0
   -1.5732   -0.5134   -0.7055 C   0  0  0  0  0  0  0  0  0  0  0  0
   -1.7584   -0.1842   -1.8753 O   0  0  0  0  0  0  0  0  0  0  0  0
    0.6130    0.7980   -0.7147 C   0  0  0  0  0  0  0  0  0  0  0  0
    1.7513    1.3861    0.1225 C   0  0  0  0  0  0  0  0  0  0  0  0
    1.0878    2.4029    1.4753 S   0  0  0  0  0  0  0  0  0  0  0  0
    0.4321    3.7624    0.4817 C   0  0  0  0  0  0  0  0  0  0  0  0
    1.2790   -1.2290    0.9021 H   0  0  0  0  0  0  0  0  0  0  0  0
   -0.6506    0.4044    0.9890 H   0  0  0  0  0  0  0  0  0  0  0  0
    0.0175    1.6150   -1.1439 H   0  0  0  0  0  0  0  0  0  0  0  0
    1.0344    0.2341   -1.5567 H   0  0  0  0  0  0  0  0  0  0  0  0
    2.3992    2.0219   -0.4881 H   0  0  0  0  0  0  0  0  0  0  0  0
    2.3656    0.5953    0.5630 H   0  0  0  0  0  0  0  0  0  0  0  0
   -0.0275    4.5104    1.1323 H   0  0  0  0  0  0  0  0  0  0  0  0
   -0.3211    3.3840   -0.2139 H   0  0  0  0  0  0  0  0  0  0  0  0
    1.2399    4.2304   -0.0861 H   0  0  0  0  0  0  0  0  0  0  0  0
   -2.4668   -1.2473    0.0613 N   0  0  0  0  0  0  0  0  0  0  0  0
   -3.7271   -1.7251   -0.4574 C   0  0  2  0  0  0  0  0  0  0  0  0
   -4.7740   -1.5746    0.6385 C   0  0  0  0  0  0  0  0  0  0  0  0
   -4.4903   -1.5084    1.8327 O   0  0  0  0  0  0  0  0  0  0  0  0
   -3.6241   -3.1715   -0.9158 C   0  0  0  0  0  0  0  0  0  0  0  0
   -2.2198   -1.4987    1.0138 H   0  0  0  0  0  0  0  0  0  0  0  0
   -3.9868   -1.0785   -1.3026 H   0  0  0  0  0  0  0  0  0  0  0  0
   -3.3646   -3.8344   -0.0824 H   0  0  0  0  0  0  0  0  0  0  0  0
   -4.5725   -3.5233   -1.3350 H   0  0  0  0  0  0  0  0  0  0  0  0
   -2.8500   -3.2831   -1.6827 H   0  0  0  0  0  0  0  0  0  0  0  0
   -6.0650   -1.5663    0.1292 N   0  0  0  0  0  0  0  0  0  0  0  0
   -7.2338   -1.4471    0.9694 C   0  0  0  0  0  0  0  0  0  0  0  0
   -6.2060   -1.6069   -0.8759 H   0  0  0  0  0  0  0  0  0  0  0  0
   -7.5995   -2.4501    1.2343 H   0  0  0  0  0  0  0  0  0  0  0  0
   -6.9717   -0.8985    1.8861 H   0  0  0  0  0  0  0  0  0  0  0  0
   -8.0204   -0.9013    0.4277 H   0  0  0  0  0  0  0  0  0  0  0  0
  1  3  1  0  0  0  0
  1  7  1  0  0  0  0
  1  2  2  0  0  0  0
 35 36  1  0  0  0  0
 36 44  1  0  0  0  0
 36 37  2  0  0  0  0
  8  9  1  0  0  0  0
  9 17  1  0  0  0  0
  9 10  2  0  0  0  0
 18 19  1  0  0  0  0
 19 34  1  0  0  0  0
 19 20  2  0  0  0  0
 35 38  1  0  0  0  0
  8 11  1  0  0  0  0
 44 45  1  0  0  0  0
 23 24  1  0  0  0  0
 21 22  1  0  0  0  0
 18 21  1  0  0  0  0
 22 23  1  0  0  0  0
 34 35  1  0  0  0  0
  7  8  1  0  0  0  0
 17 18  1  0  0  0  0
  3  4  1  0  0  0  0
  3  5  1  0  0  0  0
  3  6  1  0  0  0  0
 38 41  1  0  0  0  0
 38 42  1  0  0  0  0
 38 43  1  0  0  0  0
 11 14  1  0  0  0  0
 11 15  1  0  0  0  0
 11 16  1  0  0  0  0
 45 47  1  0  0  0  0
 45 48  1  0  0  0  0
 45 49  1  0  0  0  0
 24 31  1  0  0  0  0
 24 32  1  0  0  0  0
 24 33  1  0  0  0  0
 21 27  1  0  0  0  0
 21 28  1  0  0  0  0
 22 29  1  0  0  0  0
 22 30  1  0  0  0  0
 35 40  1  0  0  0  0
  8 13  1  0  0  0  0
 18 26  1  0  0  0  0
 44 46  1  0  0  0  0
  7 12  1  0  0  0  0
 34 39  1  0  0  0  0
 17 25  1  0  0  0  0
M  END
$$$$

  -OEChem-05262214473D

 49 48  0     1  0  0  0  0  0999 V2000
   -0.0561   -5.3799    2.6949 C   0  0  0  0  0  0  0  0  0  0  0  0
    0.7325   -5.0736    3.5815 O   0  0  0  0  0  0  0  0  0  0  0  0
   -1.0067   -6.5099    2.9135 C   0  0  0  0  0  0  0  0  0  0  0  0
   -0.5910   -7.4777    2.5899 H   0  0  0  0  0  0  0  0  0  0  0  0
   -1.2629   -6.6440    3.9767 H   0  0  0  0  0  0  0  0  0  0  0  0
   -1.9729   -6.4206    2.3918 H   0  0  0  0  0  0  0  0  0  0  0  0
   -0.1735   -4.7694    1.4571 N   0  0  0  0  0  0  0  0  0  0  0  0
    0.6439   -3.6603    1.0409 C   0  0  2  0  0  0  0  0  0  0  0  0
   -0.2788   -2.5625    0.5280 C   0  0  0  0  0  0  0  0  0  0  0  0
   -1.4197   -2.7791    0.1251 O   0  0  0  0  0  0  0  0  0  0  0  0
    1.6395   -4.0779   -0.0301 C   0  0  0  0  0  0  0  0  0  0  0  0
   -0.8741   -5.1235    0.8083 H   0  0  0  0  0  0  0  0  0  0  0  0
    1.1738   -3.3062    1.9318 H   0  0  0  0  0  0  0  0  0  0  0  0
    1.1270   -4.4358   -0.9305 H   0  0  0  0  0  0  0  0  0  0  0  0
    2.2797   -3.2400   -0.3251 H   0  0  0  0  0  0  0  0  0  0  0  0
    2.2827   -4.8880    0.3303 H   0  0  0  0  0  0  0  0  0  0  0  0
    0.3351   -1.3153    0.5316 N   0  0  0  0  0  0  0  0  0  0  0  0
   -0.3268   -0.1184    0.0807 C   0  0  2  0  0  0  0  0  0  0  0  0
   -1.5732   -0.5134   -0.7055 C   0  0  0  0  0  0  0  0  0  0  0  0
   -1.6484   -0.4240   -1.9292 O   0  0  0  0  0  0  0  0  0  0  0  0
    0.6130    0.7980   -0.7147 C   0  0  0  0  0  0  0  0  0  0  0  0
    1.7513    1.3861    0.1225 C   0  0  0  0  0  0  0  0  0  0  0  0
    1.0878    2.4029    1.4753 S   0  0  0  0  0  0  0  0  0  0  0  0
    0.4321    3.7624    0.4817 C   0  0  0  0  0  0  0  0  0  0  0  0
    1.2790   -1.2290    0.9021 H   0  0  0  0  0  0  0  0  0  0  0  0
   -0.6506    0.4044    0.9890 H   0  0  0  0  0  0  0  0  0  0  0  0
    0.0175    1.6150   -1.1439 H   0  0  0  0  0  0  0  0  0  0  0  0
    1.0344    0.2341   -1.5567 H   0  0  0  0  0  0  0  0  0  0  0  0
    2.3992    2.0219   -0.4881 H   0  0  0  0  0  0  0  0  0  0  0  0
    2.3656    0.5953    0.5630 H   0  0  0  0  0  0  0  0  0  0  0  0
   -0.0275    4.5104    1.1323 H   0  0  0  0  0  0  0  0  0  0  0  0
   -0.3211    3.3840   -0.2139 H   0  0  0  0  0  0  0  0  0  0  0  0
    1.2399    4.2304   -0.0861 H   0  0  0  0  0  0  0  0  0  0  0  0
   -2.6003   -0.9456    0.1212 N   0  0  0  0  0  0  0  0  0  0  0  0
   -3.8861   -1.3612   -0.3881 C   0  0  2  0  0  0  0  0  0  0  0  0
   -4.9577   -0.8468    0.5640 C   0  0  0  0  0  0  0  0  0  0  0  0
   -4.7308   -0.5605    1.7377 O   0  0  0  0  0  0  0  0  0  0  0  0
   -3.9635   -2.8736   -0.5275 C   0  0  0  0  0  0  0  0  0  0  0  0
   -2.4415   -1.0145    1.1221 H   0  0  0  0  0  0  0  0  0  0  0  0
   -4.0074   -0.8850   -1.3672 H   0  0  0  0  0  0  0  0  0  0  0  0
   -3.8440   -3.3682    0.4434 H   0  0  0  0  0  0  0  0  0  0  0  0
   -4.9285   -3.1852   -0.9405 H   0  0  0  0  0  0  0  0  0  0  0  0
   -3.1734   -3.2450   -1.1891 H   0  0  0  0  0  0  0  0  0  0  0  0
   -6.2061   -0.7858   -0.0393 N   0  0  0  0  0  0  0  0  0  0  0  0
   -7.3891   -0.3414    0.6601 C   0  0  0  0  0  0  0  0  0  0  0  0
   -6.2982   -1.0244   -1.0223 H   0  0  0  0  0  0  0  0  0  0  0  0
   -7.9056   -1.2092    1.0961 H   0  0  0  0  0  0  0  0  0  0  0  0
   -7.1012    0.3546    1.4617 H   0  0  0  0  0  0  0  0  0  0  0  0
   -8.0615    0.1692   -0.0449 H   0  0  0  0  0  0  0  0  0  0  0  0
  1  3  1  0  0  0  0
  1  7  1  0  0  0  0
  1  2  2  0  0  0  0
 35 36  1  0  0  0  0
 36 44  1  0  0  0  0
 36 37  2  0  0  0  0
  8  9  1  0  0  0  0
  9 17  1  0  0  0  0
  9 10  2  0  0  0  0
 18 19  1  0  0  0  0
 19 34  1  0  0  0  0
 19 20  2  0  0  0  0
 35 38  1  0  0  0  0
  8 11  1  0  0  0  0
 44 45  1  0  0  0  0
 23 24  1  0  0  0  0
 21 22  1  0  0  0  0
 18 21  1  0  0  0  0
 22 23  1  0  0  0  0
 34 35  1  0  0  0  0
  7  8  1  0  0  0  0
 17 18  1  0  0  0  0
  3  4  1  0  0  0  0
  3  5  1  0  0  0  0
  3  6  1  0  0  0  0
 38 41  1  0  0  0  0
 38 42  1  0  0  0  0
 38 43  1  0  0  0  0
 11 14  1  0  0  0  0
 11 15  1  0  0  0  0
 11 16  1  0  0  0  0
 45 47  1  0  0  0  0
 45 48  1  0  0  0  0
 45 49  1  0  0  0  0
 24 31  1  0  0  0  0
 24 32  1  0  0  0  0
 24 33  1  0  0  0  0
 21 27  1  0  0  0  0
 21 28  1  0  0  0  0
 22 29  1  0  0  0  0
 22 30  1  0  0  0  0
 35 40  1  0  0  0  0
  8 13  1  0  0  0  0
 18 26  1  0  0  0  0
 44 46  1  0  0  0  0
  7 12  1  0  0  0  0
 34 39  1  0  0  0  0
 17 25  1  0  0  0  0
M  END
$$$$

  -OEChem-05262214473D

 49 48  0     1  0  0  0  0  0999 V2000
   -0.0561   -5.3799    2.6949 C   0  0  0  0  0  0  0  0  0  0  0  0
    0.7325   -5.0736    3.5815 O   0  0  0  0  0  0  0  0  0  0  0  0
   -1.0067   -6.5099    2.9135 C   0  0  0  0  0  0  0  0  0  0  0  0
   -0.5910   -7.4777    2.5899 H   0  0  0  0  0  0  0  0  0  0  0  0
   -1.2629   -6.6440    3.9767 H   0  0  0  0  0  0  0  0  0  0  0  0
   -1.9729   -6.4206    2.3918 H   0  0  0  0  0  0  0  0  0  0  0  0
   -0.1735   -4.7694    1.4571 N   0  0  0  0  0  0  0  0  0  0  0  0
    0.6439   -3.6603    1.0409 C   0  0  2  0  0  0  0  0  0  0  0  0
   -0.2788   -2.5625    0.5280 C   0  0  0  0  0  0  0  0  0  0  0  0
   -1.4197   -2.7791    0.1251 O   0  0  0  0  0  0  0  0  0  0  0  0
    1.6395   -4.0779   -0.0301 C   0  0  0  0  0  0  0  0  0  0  0  0
   -0.8741   -5.1235    0.8083 H   0  0  0  0  0  0  0  0  0  0  0  0
    1.1738   -3.3062    1.9318 H   0  0  0  0  0  0  0  0  0  0  0  0
    1.1270   -4.4358   -0.9305 H   0  0  0  0  0  0  0  0  0  0  0  0
    2.2797   -3.2400   -0.3251 H   0  0  0  0  0  0  0  0  0  0  0  0
    2.2827   -4.8880    0.3303 H   0  0  0  0  0  0  0  0  0  0  0  0
    0.3351   -1.3153    0.5316 N   0  0  0  0  0  0  0  0  0  0  0  0
   -0.3268   -0.1184    0.0807 C   0  0  2  0  0  0  0  0  0  0  0  0
   -1.5732   -0.5134   -0.7055 C   0  0  0  0  0  0  0  0  0  0  0  0
   -1.5705   -0.6816   -1.9232 O   0  0  0  0  0  0  0  0  0  0  0  0
    0.6130    0.7980   -0.7147 C   0  0  0  0  0  0  0  0  0  0  0  0
    1.7513    1.3861    0.1225 C   0  0  0  0  0  0  0  0  0  0  0  0
    1.0878    2.4029    1.4753 S   0  0  0  0  0  0  0  0  0  0  0  0
    0.4321    3.7624    0.4817 C   0  0  0  0  0  0  0  0  0  0  0  0
    1.2790   -1.2290    0.9021 H   0  0  0  0  0  0  0  0  0  0  0  0
   -0.6506    0.4044    0.9890 H   0  0  0  0  0  0  0  0  0  0  0  0
    0.0175    1.6150   -1.1439 H   0  0  0  0  0  0  0  0  0  0  0  0
    1.0344    0.2341   -1.5567 H   0  0  0  0  0  0  0  0  0  0  0  0
    2.3992    2.0219   -0.4881 H   0  0  0  0  0  0  0  0  0  0  0  0
    2.3656    0.5953    0.5630 H   0  0  0  0  0  0  0  0  0  0  0  0
   -0.0275    4.5104    1.1323 H   0  0  0  0  0  0  0  0  0  0  0  0
   -0.3211    3.3840   -0.2139 H   0  0  0  0  0  0  0  0  0  0  0  0
    1.2399    4.2304   -0.0861 H   0  0  0  0  0  0  0  0  0  0  0  0
   -2.6929   -0.6237    0.1064 N   0  0  0  0  0  0  0  0  0  0  0  0
   -3.9958   -0.9739   -0.4088 C   0  0  2  0  0  0  0  0  0  0  0  0
   -5.0331   -0.1350    0.3258 C   0  0  0  0  0  0  0  0  0  0  0  0
   -4.8303    0.3670    1.4294 O   0  0  0  0  0  0  0  0  0  0  0  0
   -4.2776   -2.4586   -0.2381 C   0  0  0  0  0  0  0  0  0  0  0  0
   -2.5984   -0.4943    1.1093 H   0  0  0  0  0  0  0  0  0  0  0  0
   -3.9972   -0.7090   -1.4718 H   0  0  0  0  0  0  0  0  0  0  0  0
   -4.2801   -2.7428    0.8205 H   0  0  0  0  0  0  0  0  0  0  0  0
   -5.2537   -2.7277   -0.6549 H   0  0  0  0  0  0  0  0  0  0  0  0
   -3.5139   -3.0607   -0.7420 H   0  0  0  0  0  0  0  0  0  0  0  0
   -6.2270   -0.0488   -0.3765 N   0  0  0  0  0  0  0  0  0  0  0  0
   -7.3709    0.6818    0.1171 C   0  0  0  0  0  0  0  0  0  0  0  0
   -6.2998   -0.4805   -1.2931 H   0  0  0  0  0  0  0  0  0  0  0  0
   -8.0266    0.0010    0.6798 H   0  0  0  0  0  0  0  0  0  0  0  0
   -7.0306    1.4926    0.7781 H   0  0  0  0  0  0  0  0  0  0  0  0
   -7.9268    1.1088   -0.7306 H   0  0  0  0  0  0  0  0  0  0  0  0
  1  3  1  0  0  0  0
  1  7  1  0  0  0  0
  1  2  2  0  0  0  0
 35 36  1  0  0  0  0
 36 44  1  0  0  0  0
 36 37  2  0  0  0  0
  8  9  1  0  0  0  0
  9 17  1  0  0  0  0
  9 10  2  0  0  0  0
 18 19  1  0  0  0  0
 19 34  1  0  0  0  0
 19 20  2  0  0  0  0
 35 38  1  0  0  0  0
  8 11  1  0  0  0  0
 44 45  1  0  0  0  0
 23 24  1  0  0  0  0
 21 22  1  0  0  0  0
 18 21  1  0  0  0  0
 22 23  1  0  0  0  0
 34 35  1  0  0  0  0
  7  8  1  0  0  0  0
 17 18  1  0  0  0  0
  3  4  1  0  0  0  0
  3  5  1  0  0  0  0
  3  6  1  0  0  0  0
 38 41  1  0  0  0  0
 38 42  1  0  0  0  0
 38 43  1  0  0  0  0
 11 14  1  0  0  0  0
 11 15  1  0  0  0  0
 11 16  1  0  0  0  0
 45 47  1  0  0  0  0
 45 48  1  0  0  0  0
 45 49  1  0  0  0  0
 24 31  1  0  0  0  0
 24 32  1  0  0  0  0
 24 33  1  0  0  0  0
 21 27  1  0  0  0  0
 21 28  1  0  0  0  0
 22 29  1  0  0  0  0
 22 30  1  0  0  0  0
 35 40  1  0  0  0  0
  8 13  1  0  0  0  0
 18 26  1  0  0  0  0
 44 46  1  0  0  0  0
  7 12  1  0  0  0  0
 34 39  1  0  0  0  0
 17 25  1  0  0  0  0
M  END
$$$$

  -OEChem-05262214473D

 49 48  0     1  0  0  0  0  0999 V2000
   -0.0561   -5.3799    2.6949 C   0  0  0  0  0  0  0  0  0  0  0  0
    0.7325   -5.0736    3.5815 O   0  0  0  0  0  0  0  0  0  0  0  0
   -1.0067   -6.5099    2.9135 C   0  0  0  0  0  0  0  0  0  0  0  0
   -0.5910   -7.4777    2.5899 H   0  0  0  0  0  0  0  0  0  0  0  0
   -1.2629   -6.6440    3.9767 H   0  0  0  0  0  0  0  0  0  0  0  0
   -1.9729   -6.4206    2.3918 H   0  0  0  0  0  0  0  0  0  0  0  0
   -0.1735   -4.7694    1.4571 N   0  0  0  0  0  0  0  0  0  0  0  0
    0.6439   -3.6603    1.0409 C   0  0  2  0  0  0  0  0  0  0  0  0
   -0.2788   -2.5625    0.5280 C   0  0  0  0  0  0  0  0  0  0  0  0
   -1.4197   -2.7791    0.1251 O   0  0  0  0  0  0  0  0  0  0  0  0
    1.6395   -4.0779   -0.0301 C   0  0  0  0  0  0  0  0  0  0  0  0
   -0.8741   -5.1235    0.8083 H   0  0  0  0  0  0  0  0  0  0  0  0
    1.1738   -3.3062    1.9318 H   0  0  0  0  0  0  0  0  0  0  0  0
    1.1270   -4.4358   -0.9305 H   0  0  0  0  0  0  0  0  0  0  0  0
    2.2797   -3.2400   -0.3251 H   0  0  0  0  0  0  0  0  0  0  0  0
    2.2827   -4.8880    0.3303 H   0  0  0  0  0  0  0  0  0  0  0  0
    0.3351   -1.3153    0.5316 N   0  0  0  0  0  0  0  0  0  0  0  0
   -0.3268   -0.1184    0.0807 C   0  0  2  0  0  0  0  0  0  0  0  0
   -1.5732   -0.5134   -0.7055 C   0  0  0  0  0  0  0  0  0  0  0  0
   -1.5300   -0.9396   -1.8577 O   0  0  0  0  0  0  0  0  0  0  0  0
    0.6130    0.7980   -0.7147 C   0  0  0  0  0  0  0  0  0  0  0  0
    1.7513    1.3861    0.1225 C   0  0  0  0  0  0  0  0  0  0  0  0
    1.0878    2.4029    1.4753 S   0  0  0  0  0  0  0  0  0  0  0  0
    0.4321    3.7624    0.4817 C   0  0  0  0  0  0  0  0  0  0  0  0
    1.2790   -1.2290    0.9021 H   0  0  0  0  0  0  0  0  0  0  0  0
   -0.6506    0.4044    0.9890 H   0  0  0  0  0  0  0  0  0  0  0  0
    0.0175    1.6150   -1.1439 H   0  0  0  0  0  0  0  0  0  0  0  0
    1.0344    0.2341   -1.5567 H   0  0  0  0  0  0  0  0  0  0  0  0
    2.3992    2.0219   -0.4881 H   0  0  0  0  0  0  0  0  0  0  0  0
    2.3656    0.5953    0.5630 H   0  0  0  0  0  0  0  0  0  0  0  0
   -0.0275    4.5104    1.1323 H   0  0  0  0  0  0  0  0  0  0  0  0
   -0.3211    3.3840   -0.2139 H   0  0  0  0  0  0  0  0  0  0  0  0
    1.2399    4.2304   -0.0861 H   0  0  0  0  0  0  0  0  0  0  0  0
   -2.7385   -0.3036    0.0178 N   0  0  0  0  0  0  0  0  0  0  0  0
   -4.0487   -0.5896   -0.5181 C   0  0  2  0  0  0  0  0  0  0  0  0
   -4.9950    0.5123   -0.0598 C   0  0  0  0  0  0  0  0  0  0  0  0
   -4.7821    1.2111    0.9288 O   0  0  0  0  0  0  0  0  0  0  0  0
   -4.5450   -1.9546   -0.0674 C   0  0  0  0  0  0  0  0  0  0  0  0
   -2.6797    0.0265    0.9765 H   0  0  0  0  0  0  0  0  0  0  0  0
   -3.9569   -0.5624   -1.6093 H   0  0  0  0  0  0  0  0  0  0  0  0
   -4.6432   -2.0008    1.0234 H   0  0  0  0  0  0  0  0  0  0  0  0
   -5.5260   -2.1820   -0.4975 H   0  0  0  0  0  0  0  0  0  0  0  0
   -3.8480   -2.7428   -0.3720 H   0  0  0  0  0  0  0  0  0  0  0  0
   -6.1263    0.5947   -0.8595 N   0  0  0  0  0  0  0  0  0  0  0  0
   -7.1805    1.5530   -0.6225 C   0  0  0  0  0  0  0  0  0  0  0  0
   -6.2107   -0.0121   -1.6698 H   0  0  0  0  0  0  0  0  0  0  0  0
   -7.9541    1.0980    0.0136 H   0  0  0  0  0  0  0  0  0  0  0  0
   -6.7649    2.4378   -0.1181 H   0  0  0  0  0  0  0  0  0  0  0  0
   -7.6255    1.8534   -1.5825 H   0  0  0  0  0  0  0  0  0  0  0  0
  1  3  1  0  0  0  0
  1  7  1  0  0  0  0
  1  2  2  0  0  0  0
 35 36  1  0  0  0  0
 36 44  1  0  0  0  0
 36 37  2  0  0  0  0
  8  9  1  0  0  0  0
  9 17  1  0  0  0  0
  9 10  2  0  0  0  0
 18 19  1  0  0  0  0
 19 34  1  0  0  0  0
 19 20  2  0  0  0  0
 35 38  1  0  0  0  0
  8 11  1  0  0  0  0
 44 45  1  0  0  0  0
 23 24  1  0  0  0  0
 21 22  1  0  0  0  0
 18 21  1  0  0  0  0
 22 23  1  0  0  0  0
 34 35  1  0  0  0  0
  7  8  1  0  0  0  0
 17 18  1  0  0  0  0
  3  4  1  0  0  0  0
  3  5  1  0  0  0  0
  3  6  1  0  0  0  0
 38 41  1  0  0  0  0
 38 42  1  0  0  0  0
 38 43  1  0  0  0  0
 11 14  1  0  0  0  0
 11 15  1  0  0  0  0
 11 16  1  0  0  0  0
 45 47  1  0  0  0  0
 45 48  1  0  0  0  0
 45 49  1  0  0  0  0
 24 31  1  0  0  0  0
 24 32  1  0  0  0  0
 24 33  1  0  0  0  0
 21 27  1  0  0  0  0
 21 28  1  0  0  0  0
 22 29  1  0  0  0  0
 22 30  1  0  0  0  0
 35 40  1  0  0  0  0
  8 13  1  0  0  0  0
 18 26  1  0  0  0  0
 44 46  1  0  0  0  0
  7 12  1  0  0  0  0
 34 39  1  0  0  0  0
 17 25  1  0  0  0  0
M  END
$$$$

  -OEChem-05262214473D

 49 48  0     1  0  0  0  0  0999 V2000
   -0.0561   -5.3799    2.6949 C   0  0  0  0  0  0  0  0  0  0  0  0
    0.7325   -5.0736    3.5815 O   0  0  0  0  0  0  0  0  0  0  0  0
   -1.0067   -6.5099    2.9135 C   0  0  0  0  0  0  0  0  0  0  0  0
   -0.5910   -7.4777    2.5899 H   0  0  0  0  0  0  0  0  0  0  0  0
   -1.2629   -6.6440    3.9767 H   0  0  0  0  0  0  0  0  0  0  0  0
   -1.9729   -6.4206    2.3918 H   0  0  0  0  0  0  0  0  0  0  0  0
   -0.1735   -4.7694    1.4571 N   0  0  0  0  0  0  0  0  0  0  0  0
    0.6439   -3.6603    1.0409 C   0  0  2  0  0  0  0  0  0  0  0  0
   -0.2788   -2.5625    0.5280 C   0  0  0  0  0  0  0  0  0  0  0  0
   -1.4197   -2.7791    0.1251 O   0  0  0  0  0  0  0  0  0  0  0  0
    1.6395   -4.0779   -0.0301 C   0  0  0  0  0  0  0  0  0  0  0  0
   -0.8741   -5.1235    0.8083 H   0  0  0  0  0  0  0  0  0  0  0  0
    1.1738   -3.3062    1.9318 H   0  0  0  0  0  0  0  0  0  0  0  0
    1.1270   -4.4358   -0.9305 H   0  0  0  0  0  0  0  0  0  0  0  0
    2.2797   -3.2400   -0.3251 H   0  0  0  0  0  0  0  0  0  0  0  0
    2.2827   -4.8880    0.3303 H   0  0  0  0  0  0  0  0  0  0  0  0
    0.3351   -1.3153    0.5316 N   0  0  0  0  0  0  0  0  0  0  0  0
   -0.3268   -0.1184    0.0807 C   0  0  2  0  0  0  0  0  0  0  0  0
   -1.5732   -0.5134   -0.7055 C   0  0  0  0  0  0  0  0  0  0  0  0
   -1.5298   -1.1804   -1.7372 O   0  0  0  0  0  0  0  0  0  0  0  0
    0.6130    0.7980   -0.7147 C   0  0  0  0  0  0  0  0  0  0  0  0
    1.7513    1.3861    0.1225 C   0  0  0  0  0  0  0  0  0  0  0  0
    1.0878    2.4029    1.4753 S   0  0  0  0  0  0  0  0  0  0  0  0
    0.4321    3.7624    0.4817 C   0  0  0  0  0  0  0  0  0  0  0  0
    1.2790   -1.2290    0.9021 H   0  0  0  0  0  0  0  0  0  0  0  0
   -0.6506    0.4044    0.9890 H   0  0  0  0  0  0  0  0  0  0  0  0
    0.0175    1.6150   -1.1439 H   0  0  0  0  0  0  0  0  0  0  0  0
    1.0344    0.2341   -1.5567 H   0  0  0  0  0  0  0  0  0  0  0  0
    2.3992    2.0219   -0.4881 H   0  0  0  0  0  0  0  0  0  0  0  0
    2.3656    0.5953    0.5630 H   0  0  0  0  0  0  0  0  0  0  0  0
   -0.0275    4.5104    1.1323 H   0  0  0  0  0  0  0  0  0  0  0  0
   -0.3211    3.3840   -0.2139 H   0  0  0  0  0  0  0  0  0  0  0  0
    1.2399    4.2304   -0.0861 H   0  0  0  0  0  0  0  0  0  0  0  0
   -2.7339   -0.0070   -0.1386 N   0  0  0  0  0  0  0  0  0  0  0  0
   -4.0412   -0.2343   -0.7084 C   0  0  2  0  0  0  0  0  0  0  0  0
   -4.8460    1.0508   -0.5666 C   0  0  0  0  0  0  0  0  0  0  0  0
   -4.5893    1.9141    0.2700 O   0  0  0  0  0  0  0  0  0  0  0  0
   -4.7475   -1.3960   -0.0270 C   0  0  0  0  0  0  0  0  0  0  0  0
   -2.6798    0.5122    0.7327 H   0  0  0  0  0  0  0  0  0  0  0  0
   -3.8892   -0.4554   -1.7705 H   0  0  0  0  0  0  0  0  0  0  0  0
   -4.9086   -1.1928    1.0380 H   0  0  0  0  0  0  0  0  0  0  0  0
   -5.7267   -1.5853   -0.4791 H   0  0  0  0  0  0  0  0  0  0  0  0
   -4.1532   -2.3129   -0.1042 H   0  0  0  0  0  0  0  0  0  0  0  0
   -5.9108    1.1006   -1.4554 N   0  0  0  0  0  0  0  0  0  0  0  0
   -6.8308    2.2127   -1.5083 C   0  0  0  0  0  0  0  0  0  0  0  0
   -6.0369    0.3488   -2.1267 H   0  0  0  0  0  0  0  0  0  0  0  0
   -7.6931    2.0072   -0.8569 H   0  0  0  0  0  0  0  0  0  0  0  0
   -6.3221    3.1259   -1.1658 H   0  0  0  0  0  0  0  0  0  0  0  0
   -7.1779    2.3524   -2.5427 H   0  0  0  0  0  0  0  0  0  0  0  0
  1  3  1  0  0  0  0
  1  7  1  0  0  0  0
  1  2  2  0  0  0  0
 35 36  1  0  0  0  0
 36 44  1  0  0  0  0
 36 37  2  0  0  0  0
  8  9  1  0  0  0  0
  9 17  1  0  0  0  0
  9 10  2  0  0  0  0
 18 19  1  0  0  0  0
 19 34  1  0  0  0  0
 19 20  2  0  0  0  0
 35 38  1  0  0  0  0
  8 11  1  0  0  0  0
 44 45  1  0  0  0  0
 23 24  1  0  0  0  0
 21 22  1  0  0  0  0
 18 21  1  0  0  0  0
 22 23  1  0  0  0  0
 34 35  1  0  0  0  0
  7  8  1  0  0  0  0
 17 18  1  0  0  0  0
  3  4  1  0  0  0  0
  3  5  1  0  0  0  0
  3  6  1  0  0  0  0
 38 41  1  0  0  0  0
 38 42  1  0  0  0  0
 38 43  1  0  0  0  0
 11 14  1  0  0  0  0
 11 15  1  0  0  0  0
 11 16  1  0  0  0  0
 45 47  1  0  0  0  0
 45 48  1  0  0  0  0
 45 49  1  0  0  0  0
 24 31  1  0  0  0  0
 24 32  1  0  0  0  0
 24 33  1  0  0  0  0
 21 27  1  0  0  0  0
 21 28  1  0  0  0  0
 22 29  1  0  0  0  0
 22 30  1  0  0  0  0
 35 40  1  0  0  0  0
  8 13  1  0  0  0  0
 18 26  1  0  0  0  0
 44 46  1  0  0  0  0
  7 12  1  0  0  0  0
 34 39  1  0  0  0  0
 17 25  1  0  0  0  0
M  END
$$$$

  -OEChem-05262214473D

 49 48  0     1  0  0  0  0  0999 V2000
   -0.0561   -5.3799    2.6949 C   0  0  0  0  0  0  0  0  0  0  0  0
    0.7325   -5.0736    3.5815 O   0  0  0  0  0  0  0  0  0  0  0  0
   -1.0067   -6.5099    2.9135 C   0  0  0  0  0  0  0  0  0  0  0  0
   -0.5910   -7.4777    2.5899 H   0  0  0  0  0  0  0  0  0  0  0  0
   -1.2629   -6.6440    3.9767 H   0  0  0  0  0  0  0  0  0  0  0  0
   -1.9729   -6.4206    2.3918 H   0  0  0  0  0  0  0  0  0  0  0  0
   -0.1735   -4.7694    1.4571 N   0  0  0  0  0  0  0  0  0  0  0  0
    0.6439   -3.6603    1.0409 C   0  0  2  0  0  0  0  0  0  0  0  0
   -0.2788   -2.5625    0.5280 C   0  0  0  0  0  0  0  0  0  0  0  0
   -1.4197   -2.7791    0.1251 O   0  0  0  0  0  0  0  0  0  0  0  0
    1.6395   -4.0779   -0.0301 C   0  0  0  0  0  0  0  0  0  0  0  0
   -0.8741   -5.1235    0.8083 H   0  0  0  0  0  0  0  0  0  0  0  0
    1.1738   -3.3062    1.9318 H   0  0  0  0  0  0  0  0  0  0  0  0
    1.1270   -4.4358   -0.9305 H   0  0  0  0  0  0  0  0  0  0  0  0
    2.2797   -3.2400   -0.3251 H   0  0  0  0  0  0  0  0  0  0  0  0
    2.2827   -4.8880    0.3303 H   0  0  0  0  0  0  0  0  0  0  0  0
    0.3351   -1.3153    0.5316 N   0  0  0  0  0  0  0  0  0  0  0  0
   -0.3268   -0.1184    0.0807 C   0  0  2  0  0  0  0  0  0  0  0  0
   -1.5732   -0.5134   -0.7055 C   0  0  0  0  0  0  0  0  0  0  0  0
   -1.5697   -1.3875   -1.5699 O   0  0  0  0  0  0  0  0  0  0  0  0
    0.6130    0.7980   -0.7147 C   0  0  0  0  0  0  0  0  0  0  0  0
    1.7513    1.3861    0.1225 C   0  0  0  0  0  0  0  0  0  0  0  0
    1.0878    2.4029    1.4753 S   0  0  0  0  0  0  0  0  0  0  0  0
    0.4321    3.7624    0.4817 C   0  0  0  0  0  0  0  0  0  0  0  0
    1.2790   -1.2290    0.9021 H   0  0  0  0  0  0  0  0  0  0  0  0
   -0.6506    0.4044    0.9890 H   0  0  0  0  0  0  0  0  0  0  0  0
    0.0175    1.6150   -1.1439 H   0  0  0  0  0  0  0  0  0  0  0  0
    1.0344    0.2341   -1.5567 H   0  0  0  0  0  0  0  0  0  0  0  0
    2.3992    2.0219   -0.4881 H   0  0  0  0  0  0  0  0  0  0  0  0
    2.3656    0.5953    0.5630 H   0  0  0  0  0  0  0  0  0  0  0  0
   -0.0275    4.5104    1.1323 H   0  0  0  0  0  0  0  0  0  0  0  0
   -0.3211    3.3840   -0.2139 H   0  0  0  0  0  0  0  0  0  0  0  0
    1.2399    4.2304   -0.0861 H   0  0  0  0  0  0  0  0  0  0  0  0
   -2.6794    0.2458   -0.3519 N   0  0  0  0  0  0  0  0  0  0  0  0
   -3.9739    0.0676   -0.9669 C   0  0  2  0  0  0  0  0  0  0  0  0
   -4.5963    1.4440   -1.1600 C   0  0  0  0  0  0  0  0  0  0  0  0
   -4.2653    2.4282   -0.5020 O   0  0  0  0  0  0  0  0  0  0  0  0
   -4.8714   -0.8209   -0.1196 C   0  0  0  0  0  0  0  0  0  0  0  0
   -2.5989    0.9298    0.3945 H   0  0  0  0  0  0  0  0  0  0  0  0
   -3.7987   -0.3950   -1.9443 H   0  0  0  0  0  0  0  0  0  0  0  0
   -5.0582   -0.3738    0.8636 H   0  0  0  0  0  0  0  0  0  0  0  0
   -5.8422   -0.9783   -0.6009 H   0  0  0  0  0  0  0  0  0  0  0  0
   -4.4086   -1.8003    0.0431 H   0  0  0  0  0  0  0  0  0  0  0  0
   -5.5952    1.4346   -2.1235 N   0  0  0  0  0  0  0  0  0  0  0  0
   -6.3457    2.6160   -2.4800 C   0  0  0  0  0  0  0  0  0  0  0  0
   -5.7902    0.5776   -2.6327 H   0  0  0  0  0  0  0  0  0  0  0  0
   -7.2614    2.6665   -1.8725 H   0  0  0  0  0  0  0  0  0  0  0  0
   -5.7324    3.5100   -2.2936 H   0  0  0  0  0  0  0  0  0  0  0  0
   -6.6147    2.5716   -3.5456 H   0  0  0  0  0  0  0  0  0  0  0  0
  1  3  1  0  0  0  0
  1  7  1  0  0  0  0
  1  2  2  0  0  0  0
 35 36  1  0  0  0  0
 36 44  1  0  0  0  0
 36 37  2  0  0  0  0
  8  9  1  0  0  0  0
  9 17  1  0  0  0  0
  9 10  2  0  0  0  0
 18 19  1  0  0  0  0
 19 34  1  0  0  0  0
 19 20  2  0  0  0  0
 35 38  1  0  0  0  0
  8 11  1  0  0  0  0
 44 45  1  0  0  0  0
 23 24  1  0  0  0  0
 21 22  1  0  0  0  0
 18 21  1  0  0  0  0
 22 23  1  0  0  0  0
 34 35  1  0  0  0  0
  7  8  1  0  0  0  0
 17 18  1  0  0  0  0
  3  4  1  0  0  0  0
  3  5  1  0  0  0  0
  3  6  1  0  0  0  0
 38 41  1  0  0  0  0
 38 42  1  0  0  0  0
 38 43  1  0  0  0  0
 11 14  1  0  0  0  0
 11 15  1  0  0  0  0
 11 16  1  0  0  0  0
 45 47  1  0  0  0  0
 45 48  1  0  0  0  0
 45 49  1  0  0  0  0
 24 31  1  0  0  0  0
 24 32  1  0  0  0  0
 24 33  1  0  0  0  0
 21 27  1  0  0  0  0
 21 28  1  0  0  0  0
 22 29  1  0  0  0  0
 22 30  1  0  0  0  0
 35 40  1  0  0  0  0
  8 13  1  0  0  0  0
 18 26  1  0  0  0  0
 44 46  1  0  0  0  0
  7 12  1  0  0  0  0
 34 39  1  0  0  0  0
 17 25  1  0  0  0  0
M  END
$$$$

  -OEChem-05262214473D

 49 48  0     1  0  0  0  0  0999 V2000
   -0.0561   -5.3799    2.6949 C   0  0  0  0  0  0  0  0  0  0  0  0
    0.7325   -5.0736    3.5815 O   0  0  0  0  0  0  0  0  0  0  0  0
   -1.0067   -6.5099    2.9135 C   0  0  0  0  0  0  0  0  0  0  0  0
   -0.5910   -7.4777    2.5899 H   0  0  0  0  0  0  0  0  0  0  0  0
   -1.2629   -6.6440    3.9767 H   0  0  0  0  0  0  0  0  0  0  0  0
   -1.9729   -6.4206    2.3918 H   0  0  0  0  0  0  0  0  0  0  0  0
   -0.1735   -4.7694    1.4571 N   0  0  0  0  0  0  0  0  0  0  0  0
    0.6439   -3.6603    1.0409 C   0  0  2  0  0  0  0  0  0  0  0  0
   -0.2788   -2.5625    0.5280 C   0  0  0  0  0  0  0  0  0  0  0  0
   -1.4197   -2.7791    0.1251 O   0  0  0  0  0  0  0  0  0  0  0  0
    1.6395   -4.0779   -0.0301 C   0  0  0  0  0  0  0  0  0  0  0  0
   -0.8741   -5.1235    0.8083 H   0  0  0  0  0  0  0  0  0  0  0  0
    1.1738   -3.3062    1.9318 H   0  0  0  0  0  0  0  0  0  0  0  0
    1.1270   -4.4358   -0.9305 H   0  0  0  0  0  0  0  0  0  0  0  0
    2.2797   -3.2400   -0.3251 H   0  0  0  0  0  0  0  0  0  0  0  0
    2.2827   -4.8880    0.3303 H   0  0  0  0  0  0  0  0  0  0  0  0
    0.3351   -1.3153    0.5316 N   0  0  0  0  0  0  0  0  0  0  0  0
   -0.3268   -0.1184    0.0807 C   0  0  2  0  0  0  0  0  0  0  0  0
   -1.5732   -0.5134   -0.7055 C   0  0  0  0  0  0  0  0  0  0  0  0
   -1.6471   -1.5468   -1.3671 O   0  0  0  0  0  0  0  0  0  0  0  0
    0.6130    0.7980   -0.7147 C   0  0  0  0  0  0  0  0  0  0  0  0
    1.7513    1.3861    0.1225 C   0  0  0  0  0  0  0  0  0  0  0  0
    1.0878    2.4029    1.4753 S   0  0  0  0  0  0  0  0  0  0  0  0
    0.4321    3.7624    0.4817 C   0  0  0  0  0  0  0  0  0  0  0  0
    1.2790   -1.2290    0.9021 H   0  0  0  0  0  0  0  0  0  0  0  0
   -0.6506    0.4044    0.9890 H   0  0  0  0  0  0  0  0  0  0  0  0
    0.0175    1.6150   -1.1439 H   0  0  0  0  0  0  0  0  0  0  0  0
    1.0344    0.2341   -1.5567 H   0  0  0  0  0  0  0  0  0  0  0  0
    2.3992    2.0219   -0.4881 H   0  0  0  0  0  0  0  0  0  0  0  0
    2.3656    0.5953    0.5630 H   0  0  0  0  0  0  0  0  0  0  0  0
   -0.0275    4.5104    1.1323 H   0  0  0  0  0  0  0  0  0  0  0  0
   -0.3211    3.3840   -0.2139 H   0  0  0  0  0  0  0  0  0  0  0  0
    1.2399    4.2304   -0.0861 H   0  0  0  0  0  0  0  0  0  0  0  0
   -2.5788    0.4376   -0.6079 N   0  0  0  0  0  0  0  0  0  0  0  0
   -3.8512    0.2955   -1.2759 C   0  0  2  0  0  0  0  0  0  0  0  0
   -4.2629    1.6651   -1.7995 C   0  0  0  0  0  0  0  0  0  0  0  0
   -3.8319    2.7183   -1.3347 O   0  0  0  0  0  0  0  0  0  0  0  0
   -4.9081   -0.2684   -0.3390 C   0  0  0  0  0  0  0  0  0  0  0  0
   -2.4423    1.2510   -0.0151 H   0  0  0  0  0  0  0  0  0  0  0  0
   -3.6915   -0.3856   -2.1189 H   0  0  0  0  0  0  0  0  0  0  0  0
   -5.0817    0.4004    0.5119 H   0  0  0  0  0  0  0  0  0  0  0  0
   -5.8647   -0.4023   -0.8547 H   0  0  0  0  0  0  0  0  0  0  0  0
   -4.5968   -1.2399    0.0599 H   0  0  0  0  0  0  0  0  0  0  0  0
   -5.2011    1.5739   -2.8182 N   0  0  0  0  0  0  0  0  0  0  0  0
   -5.7582    2.7354   -3.4713 C   0  0  0  0  0  0  0  0  0  0  0  0
   -5.4875    0.6588   -3.1533 H   0  0  0  0  0  0  0  0  0  0  0  0
   -6.6884    3.0310   -2.9640 H   0  0  0  0  0  0  0  0  0  0  0  0
   -5.0360    3.5638   -3.4246 H   0  0  0  0  0  0  0  0  0  0  0  0
   -5.9743    2.4962   -4.5230 H   0  0  0  0  0  0  0  0  0  0  0  0
  1  3  1  0  0  0  0
  1  7  1  0  0  0  0
  1  2  2  0  0  0  0
 35 36  1  0  0  0  0
 36 44  1  0  0  0  0
 36 37  2  0  0  0  0
  8  9  1  0  0  0  0
  9 17  1  0  0  0  0
  9 10  2  0  0  0  0
 18 19  1  0  0  0  0
 19 34  1  0  0  0  0
 19 20  2  0  0  0  0
 35 38  1  0  0  0  0
  8 11  1  0  0  0  0
 44 45  1  0  0  0  0
 23 24  1  0  0  0  0
 21 22  1  0  0  0  0
 18 21  1  0  0  0  0
 22 23  1  0  0  0  0
 34 35  1  0  0  0  0
  7  8  1  0  0  0  0
 17 18  1  0  0  0  0
  3  4  1  0  0  0  0
  3  5  1  0  0  0  0
  3  6  1  0  0  0  0
 38 41  1  0  0  0  0
 38 42  1  0  0  0  0
 38 43  1  0  0  0  0
 11 14  1  0  0  0  0
 11 15  1  0  0  0  0
 11 16  1  0  0  0  0
 45 47  1  0  0  0  0
 45 48  1  0  0  0  0
 45 49  1  0  0  0  0
 24 31  1  0  0  0  0
 24 32  1  0  0  0  0
 24 33  1  0  0  0  0
 21 27  1  0  0  0  0
 21 28  1  0  0  0  0
 22 29  1  0  0  0  0
 22 30  1  0  0  0  0
 35 40  1  0  0  0  0
  8 13  1  0  0  0  0
 18 26  1  0  0  0  0
 44 46  1  0  0  0  0
  7 12  1  0  0  0  0
 34 39  1  0  0  0  0
 17 25  1  0  0  0  0
M  END
$$$$

  -OEChem-05262214473D

 49 48  0     1  0  0  0  0  0999 V2000
   -0.0561   -5.3799    2.6949 C   0  0  0  0  0  0  0  0  0  0  0  0
    0.7325   -5.0736    3.5815 O   0  0  0  0  0  0  0  0  0  0  0  0
   -1.0067   -6.5099    2.9135 C   0  0  0  0  0  0  0  0  0  0  0  0
   -0.5910   -7.4777    2.5899 H   0  0  0  0  0  0  0  0  0  0  0  0
   -1.2629   -6.6440    3.9767 H   0  0  0  0  0  0  0  0  0  0  0  0
   -1.9729   -6.4206    2.3918 H   0  0  0  0  0  0  0  0  0  0  0  0
   -0.1735   -4.7694    1.4571 N   0  0  0  0  0  0  0  0  0  0  0  0
    0.6439   -3.6603    1.0409 C   0  0  2  0  0  0  0  0  0  0  0  0
   -0.2788   -2.5625    0.5280 C   0  0  0  0  0  0  0  0  0  0  0  0
   -1.4197   -2.7791    0.1251 O   0  0  0  0  0  0  0  0  0  0  0  0
    1.6395   -4.0779   -0.0301 C   0  0  0  0  0  0  0  0  0  0  0  0
   -0.8741   -5.1235    0.8083 H   0  0  0  0  0  0  0  0  0  0  0  0
    1.1738   -3.3062    1.9318 H   0  0  0  0  0  0  0  0  0  0  0  0
    1.1270   -4.4358   -0.9305 H   0  0  0  0  0  0  0  0  0  0  0  0
    2.2797   -3.2400   -0.3251 H   0  0  0  0  0  0  0  0  0  0  0  0
    2.2827   -4.8880    0.3303 H   0  0  0  0  0  0  0  0  0  0  0  0
    0.3351   -1.3153    0.5316 N   0  0  0  0  0  0  0  0  0  0  0  0
   -0.3268   -0.1184    0.0807 C   0  0  2  0  0  0  0  0  0  0  0  0
   -1.5732   -0.5134   -0.7055 C   0  0  0  0  0  0  0  0  0  0  0  0
   -1.7567   -1.6476   -1.1427 O   0  0  0  0  0  0  0  0  0  0  0  0
    0.6130    0.7980   -0.7147 C   0  0  0  0  0  0  0  0  0  0  0  0
    1.7513    1.3861    0.1225 C   0  0  0  0  0  0  0  0  0  0  0  0
    1.0878    2.4029    1.4753 S   0  0  0  0  0  0  0  0  0  0  0  0
    0.4321    3.7624    0.4817 C   0  0  0  0  0  0  0  0  0  0  0  0
    1.2790   -1.2290    0.9021 H   0  0  0  0  0  0  0  0  0  0  0  0
   -0.6506    0.4044    0.9890 H   0  0  0  0  0  0  0  0  0  0  0  0
    0.0175    1.6150   -1.1439 H   0  0  0  0  0  0  0  0  0  0  0  0
    1.0344    0.2341   -1.5567 H   0  0  0  0  0  0  0  0  0  0  0  0
    2.3992    2.0219   -0.4881 H   0  0  0  0  0  0  0  0  0  0  0  0
    2.3656    0.5953    0.5630 H   0  0  0  0  0  0  0  0  0  0  0  0
   -0.0275    4.5104    1.1323 H   0  0  0  0  0  0  0  0  0  0  0  0
   -0.3211    3.3840   -0.2139 H   0  0  0  0  0  0  0  0  0  0  0  0
    1.2399    4.2304   -0.0861 H   0  0  0  0  0  0  0  0  0  0  0  0
   -2.4388    0.5553   -0.8889 N   0  0  0  0  0  0  0  0  0  0  0  0
   -3.6816    0.4340   -1.6143 C   0  0  2  0  0  0  0  0  0  0  0  0
   -3.8686    1.6989   -2.4417 C   0  0  0  0  0  0  0  0  0  0  0  0
   -3.3188    2.7646   -2.1714 O   0  0  0  0  0  0  0  0  0  0  0  0
   -4.8551    0.2237   -0.6702 C   0  0  0  0  0  0  0  0  0  0  0  0
   -2.2207    1.4536   -0.4681 H   0  0  0  0  0  0  0  0  0  0  0  0
   -3.5751   -0.4277   -2.2823 H   0  0  0  0  0  0  0  0  0  0  0  0
   -4.9776    1.0769    0.0069 H   0  0  0  0  0  0  0  0  0  0  0  0
   -5.7926    0.1034   -1.2231 H   0  0  0  0  0  0  0  0  0  0  0  0
   -4.7050   -0.6700   -0.0549 H   0  0  0  0  0  0  0  0  0  0  0  0
   -4.7552    1.5089   -3.4924 N   0  0  0  0  0  0  0  0  0  0  0  0
   -5.1084    2.5628   -4.4147 C   0  0  0  0  0  0  0  0  0  0  0  0
   -5.1494    0.5867   -3.6530 H   0  0  0  0  0  0  0  0  0  0  0  0
   -6.0132    3.0759   -4.0570 H   0  0  0  0  0  0  0  0  0  0  0  0
   -4.2804    3.2838   -4.4819 H   0  0  0  0  0  0  0  0  0  0  0  0
   -5.3003    2.1313   -5.4082 H   0  0  0  0  0  0  0  0  0  0  0  0
  1  3  1  0  0  0  0
  1  7  1  0  0  0  0
  1  2  2  0  0  0  0
 35 36  1  0  0  0  0
 36 44  1  0  0  0  0
 36 37  2  0  0  0  0
  8  9  1  0  0  0  0
  9 17  1  0  0  0  0
  9 10  2  0  0  0  0
 18 19  1  0  0  0  0
 19 34  1  0  0  0  0
 19 20  2  0  0  0  0
 35 38  1  0  0  0  0
  8 11  1  0  0  0  0
 44 45  1  0  0  0  0
 23 24  1  0  0  0  0
 21 22  1  0  0  0  0
 18 21  1  0  0  0  0
 22 23  1  0  0  0  0
 34 35  1  0  0  0  0
  7  8  1  0  0  0  0
 17 18  1  0  0  0  0
  3  4  1  0  0  0  0
  3  5  1  0  0  0  0
  3  6  1  0  0  0  0
 38 41  1  0  0  0  0
 38 42  1  0  0  0  0
 38 43  1  0  0  0  0
 11 14  1  0  0  0  0
 11 15  1  0  0  0  0
 11 16  1  0  0  0  0
 45 47  1  0  0  0  0
 45 48  1  0  0  0  0
 45 49  1  0  0  0  0
 24 31  1  0  0  0  0
 24 32  1  0  0  0  0
 24 33  1  0  0  0  0
 21 27  1  0  0  0  0
 21 28  1  0  0  0  0
 22 29  1  0  0  0  0
 22 30  1  0  0  0  0
 35 40  1  0  0  0  0
  8 13  1  0  0  0  0
 18 26  1  0  0  0  0
 44 46  1  0  0  0  0
  7 12  1  0  0  0  0
 34 39  1  0  0  0  0
 17 25  1  0  0  0  0
M  END
$$$$

  -OEChem-05262214473D

 49 48  0     1  0  0  0  0  0999 V2000
   -0.0561   -5.3799    2.6949 C   0  0  0  0  0  0  0  0  0  0  0  0
    0.7325   -5.0736    3.5815 O   0  0  0  0  0  0  0  0  0  0  0  0
   -1.0067   -6.5099    2.9135 C   0  0  0  0  0  0  0  0  0  0  0  0
   -0.5910   -7.4777    2.5899 H   0  0  0  0  0  0  0  0  0  0  0  0
   -1.2629   -6.6440    3.9767 H   0  0  0  0  0  0  0  0  0  0  0  0
   -1.9729   -6.4206    2.3918 H   0  0  0  0  0  0  0  0  0  0  0  0
   -0.1735   -4.7694    1.4571 N   0  0  0  0  0  0  0  0  0  0  0  0
    0.6439   -3.6603    1.0409 C   0  0  2  0  0  0  0  0  0  0  0  0
   -0.2788   -2.5625    0.5280 C   0  0  0  0  0  0  0  0  0  0  0  0
   -1.4197   -2.7791    0.1251 O   0  0  0  0  0  0  0  0  0  0  0  0
    1.6395   -4.0779   -0.0301 C   0  0  0  0  0  0  0  0  0  0  0  0
   -0.8741   -5.1235    0.8083 H   0  0  0  0  0  0  0  0  0  0  0  0
    1.1738   -3.3062    1.9318 H   0  0  0  0  0  0  0  0  0  0  0  0
    1.1270   -4.4358   -0.9305 H   0  0  0  0  0  0  0  0  0  0  0  0
    2.2797   -3.2400   -0.3251 H   0  0  0  0  0  0  0  0  0  0  0  0
    2.2827   -4.8880    0.3303 H   0  0  0  0  0  0  0  0  0  0  0  0
    0.3351   -1.3153    0.5316 N   0  0  0  0  0  0  0  0  0  0  0  0
   -0.3268   -0.1184    0.0807 C   0  0  2  0  0  0  0  0  0  0  0  0
   -1.7395   -0.4786   -0.3688 C   0  0  0  0  0  0  0  0  0  0  0  0
   -2.1738   -1.6285   -0.3528 O   0  0  0  0  0  0  0  0  0  0  0  0
    0.4750    0.6124   -1.0050 C   0  0  0  0  0  0  0  0  0  0  0  0
    1.8069    1.1794   -0.5079 C   0  0  0  0  0  0  0  0  0  0  0  0
    1.5281    2.3968    0.8128 S   0  0  0  0  0  0  0  0  0  0  0  0
    0.7638    3.6943   -0.1862 C   0  0  0  0  0  0  0  0  0  0  0  0
    1.2790   -1.2290    0.9021 H   0  0  0  0  0  0  0  0  0  0  0  0
   -0.4066    0.5293    0.9623 H   0  0  0  0  0  0  0  0  0  0  0  0
   -0.1433    1.4296   -1.4002 H   0  0  0  0  0  0  0  0  0  0  0  0
    0.6616   -0.0779   -1.8376 H   0  0  0  0  0  0  0  0  0  0  0  0
    2.3464    1.6804   -1.3172 H   0  0  0  0  0  0  0  0  0  0  0  0
    2.4479    0.3877   -0.1090 H   0  0  0  0  0  0  0  0  0  0  0  0
    0.5106    4.5492    0.4454 H   0  0  0  0  0  0  0  0  0  0  0  0
   -0.1479    3.3141   -0.6537 H   0  0  0  0  0  0  0  0  0  0  0  0
    1.4568    4.0189   -0.9662 H   0  0  0  0  0  0  0  0  0  0  0  0
   -2.4451    0.6278   -0.8196 N   0  0  0  0  0  0  0  0  0  0  0  0
   -3.8005    0.5390   -1.3100 C   0  0  2  0  0  0  0  0  0  0  0  0
   -3.9306    1.4745   -2.5047 C   0  0  0  0  0  0  0  0  0  0  0  0
   -3.1810    2.4305   -2.6928 O   0  0  0  0  0  0  0  0  0  0  0  0
   -4.8056    0.8980   -0.2266 C   0  0  0  0  0  0  0  0  0  0  0  0
   -2.0173    1.5477   -0.7714 H   0  0  0  0  0  0  0  0  0  0  0  0
   -3.9513   -0.4955   -1.6373 H   0  0  0  0  0  0  0  0  0  0  0  0
   -4.6699    1.9310    0.1140 H   0  0  0  0  0  0  0  0  0  0  0  0
   -5.8335    0.8026   -0.5916 H   0  0  0  0  0  0  0  0  0  0  0  0
   -4.6907    0.2432    0.6440 H   0  0  0  0  0  0  0  0  0  0  0  0
   -5.0087    1.1421   -3.3130 N   0  0  0  0  0  0  0  0  0  0  0  0
   -5.3503    1.8868   -4.5024 C   0  0  0  0  0  0  0  0  0  0  0  0
   -5.5652    0.3217   -3.0913 H   0  0  0  0  0  0  0  0  0  0  0  0
   -6.0850    2.6655   -4.2497 H   0  0  0  0  0  0  0  0  0  0  0  0
   -4.4446    2.3568   -4.9133 H   0  0  0  0  0  0  0  0  0  0  0  0
   -5.7813    1.2051   -5.2505 H   0  0  0  0  0  0  0  0  0  0  0  0
  1  3  1  0  0  0  0
  1  7  1  0  0  0  0
  1  2  2  0  0  0  0
 35 36  1  0  0  0  0
 36 44  1  0  0  0  0
 36 37  2  0  0  0  0
  8  9  1  0  0  0  0
  9 17  1  0  0  0  0
  9 10  2  0  0  0  0
 18 19  1  0  0  0  0
 19 34  1  0  0  0  0
 19 20  2  0  0  0  0
 35 38  1  0  0  0  0
  8 11  1  0  0  0  0
 44 45  1  0  0  0  0
 23 24  1  0  0  0  0
 21 22  1  0  0  0  0
 18 21  1  0  0  0  0
 22 23  1  0  0  0  0
 34 35  1  0  0  0  0
  7  8  1  0  0  0  0
 17 18  1  0  0  0  0
  3  4  1  0  0  0  0
  3  5  1  0  0  0  0
  3  6  1  0  0  0  0
 38 41  1  0  0  0  0
 38 42  1  0  0  0  0
 38 43  1  0  0  0  0
 11 14  1  0  0  0  0
 11 15  1  0  0  0  0
 11 16  1  0  0  0  0
 45 47  1  0  0  0  0
 45 48  1  0  0  0  0
 45 49  1  0  0  0  0
 24 31  1  0  0  0  0
 24 32  1  0  0  0  0
 24 33  1  0  0  0  0
 21 27  1  0  0  0  0
 21 28  1  0  0  0  0
 22 29  1  0  0  0  0
 22 30  1  0  0  0  0
 35 40  1  0  0  0  0
  8 13  1  0  0  0  0
 18 26  1  0  0  0  0
 44 46  1  0  0  0  0
  7 12  1  0  0  0  0
 34 39  1  0  0  0  0
 17 25  1  0  0  0  0
M  END
$$$$

  -OEChem-05262214473D

 49 48  0     1  0  0  0  0  0999 V2000
   -0.0561   -5.3799    2.6949 C   0  0  0  0  0  0  0  0  0  0  0  0
    0.7325   -5.0736    3.5815 O   0  0  0  0  0  0  0  0  0  0  0  0
   -1.0067   -6.5099    2.9135 C   0  0  0  0  0  0  0  0  0  0  0  0
   -0.5910   -7.4777    2.5899 H   0  0  0  0  0  0  0  0  0  0  0  0
   -1.2629   -6.6440    3.9767 H   0  0  0  0  0  0  0  0  0  0  0  0
   -1.9729   -6.4206    2.3918 H   0  0  0  0  0  0  0  0  0  0  0  0
   -0.1735   -4.7694    1.4571 N   0  0  0  0  0  0  0  0  0  0  0  0
    0.6439   -3.6603    1.0409 C   0  0  2  0  0  0  0  0  0  0  0  0
   -0.2788   -2.5625    0.5280 C   0  0  0  0  0  0  0  0  0  0  0  0
   -1.4197   -2.7791    0.1251 O   0  0  0  0  0  0  0  0  0  0  0  0
    1.6395   -4.0779   -0.0301 C   0  0  0  0  0  0  0  0  0  0  0  0
   -0.8741   -5.1235    0.8083 H   0  0  0  0  0  0  0  0  0  0  0  0
    1.1738   -3.3062    1.9318 H   0  0  0  0  0  0  0  0  0  0  0  0
    1.1270   -4.4358   -0.9305 H   0  0  0  0  0  0  0  0  0  0  0  0
    2.2797   -3.2400   -0.3251 H   0  0  0  0  0  0  0  0  0  0  0  0
    2.2827   -4.8880    0.3303 H   0  0  0  0  0  0  0  0  0  0  0  0
    0.3351   -1.3153    0.5316 N   0  0  0  0  0  0  0  0  0  0  0  0
   -0.3268   -0.1184    0.0807 C   0  0  2  0  0  0  0  0  0  0  0  0
   -1.7395   -0.4786   -0.3688 C   0  0  0  0  0  0  0  0  0  0  0  0
   -2.2688   -1.5578   -0.1110 O   0  0  0  0  0  0  0  0  0  0  0  0
    0.4750    0.6124   -1.0050 C   0  0  0  0  0  0  0  0  0  0  0  0
    1.8069    1.1794   -0.5079 C   0  0  0  0  0  0  0  0  0  0  0  0
    1.5281    2.3968    0.8128 S   0  0  0  0  0  0  0  0  0  0  0  0
    0.7638    3.6943   -0.1862 C   0  0  0  0  0  0  0  0  0  0  0  0
    1.2790   -1.2290    0.9021 H   0  0  0  0  0  0  0  0  0  0  0  0
   -0.4066    0.5293    0.9623 H   0  0  0  0  0  0  0  0  0  0  0  0
   -0.1433    1.4296   -1.4002 H   0  0  0  0  0  0  0  0  0  0  0  0
    0.6616   -0.0779   -1.8376 H   0  0  0  0  0  0  0  0  0  0  0  0
    2.3464    1.6804   -1.3172 H   0  0  0  0  0  0  0  0  0  0  0  0
    2.4479    0.3877   -0.1090 H   0  0  0  0  0  0  0  0  0  0  0  0
    0.5106    4.5492    0.4454 H   0  0  0  0  0  0  0  0  0  0  0  0
   -0.1479    3.3141   -0.6537 H   0  0  0  0  0  0  0  0  0  0  0  0
    1.4568    4.0189   -0.9662 H   0  0  0  0  0  0  0  0  0  0  0  0
   -2.3257    0.5316   -1.1178 N   0  0  0  0  0  0  0  0  0  0  0  0
   -3.6566    0.4203   -1.6673 C   0  0  2  0  0  0  0  0  0  0  0  0
   -3.6458    1.0455   -3.0560 C   0  0  0  0  0  0  0  0  0  0  0  0
   -2.8101    1.8736   -3.4123 O   0  0  0  0  0  0  0  0  0  0  0  0
   -4.6828    1.0991   -0.7735 C   0  0  0  0  0  0  0  0  0  0  0  0
   -1.8254    1.4042   -1.2592 H   0  0  0  0  0  0  0  0  0  0  0  0
   -3.8763   -0.6497   -1.7496 H   0  0  0  0  0  0  0  0  0  0  0  0
   -4.4790    2.1720   -0.6791 H   0  0  0  0  0  0  0  0  0  0  0  0
   -5.6948    0.9892   -1.1769 H   0  0  0  0  0  0  0  0  0  0  0  0
   -4.6684    0.6682    0.2334 H   0  0  0  0  0  0  0  0  0  0  0  0
   -4.7046    0.6023   -3.8361 N   0  0  0  0  0  0  0  0  0  0  0  0
   -4.9206    1.0587   -5.1893 C   0  0  0  0  0  0  0  0  0  0  0  0
   -5.3385   -0.0997   -3.4658 H   0  0  0  0  0  0  0  0  0  0  0  0
   -5.5996    1.9241   -5.1810 H   0  0  0  0  0  0  0  0  0  0  0  0
   -3.9586    1.3518   -5.6351 H   0  0  0  0  0  0  0  0  0  0  0  0
   -5.3678    0.2476   -5.7827 H   0  0  0  0  0  0  0  0  0  0  0  0
  1  3  1  0  0  0  0
  1  7  1  0  0  0  0
  1  2  2  0  0  0  0
 35 36  1  0  0  0  0
 36 44  1  0  0  0  0
 36 37  2  0  0  0  0
  8  9  1  0  0  0  0
  9 17  1  0  0  0  0
  9 10  2  0  0  0  0
 18 19  1  0  0  0  0
 19 34  1  0  0  0  0
 19 20  2  0  0  0  0
 35 38  1  0  0  0  0
  8 11  1  0  0  0  0
 44 45  1  0  0  0  0
 23 24  1  0  0  0  0
 21 22  1  0  0  0  0
 18 21  1  0  0  0  0
 22 23  1  0  0  0  0
 34 35  1  0  0  0  0
  7  8  1  0  0  0  0
 17 18  1  0  0  0  0
  3  4  1  0  0  0  0
  3  5  1  0  0  0  0
  3  6  1  0  0  0  0
 38 41  1  0  0  0  0
 38 42  1  0  0  0  0
 38 43  1  0  0  0  0
 11 14  1  0  0  0  0
 11 15  1  0  0  0  0
 11 16  1  0  0  0  0
 45 47  1  0  0  0  0
 45 48  1  0  0  0  0
 45 49  1  0  0  0  0
 24 31  1  0  0  0  0
 24 32  1  0  0  0  0
 24 33  1  0  0  0  0
 21 27  1  0  0  0  0
 21 28  1  0  0  0  0
 22 29  1  0  0  0  0
 22 30  1  0  0  0  0
 35 40  1  0  0  0  0
  8 13  1  0  0  0  0
 18 26  1  0  0  0  0
 44 46  1  0  0  0  0
  7 12  1  0  0  0  0
 34 39  1  0  0  0  0
 17 25  1  0  0  0  0
M  END
$$$$

  -OEChem-05262214473D

 49 48  0     1  0  0  0  0  0999 V2000
   -0.0561   -5.3799    2.6949 C   0  0  0  0  0  0  0  0  0  0  0  0
    0.7325   -5.0736    3.5815 O   0  0  0  0  0  0  0  0  0  0  0  0
   -1.0067   -6.5099    2.9135 C   0  0  0  0  0  0  0  0  0  0  0  0
   -0.5910   -7.4777    2.5899 H   0  0  0  0  0  0  0  0  0  0  0  0
   -1.2629   -6.6440    3.9767 H   0  0  0  0  0  0  0  0  0  0  0  0
   -1.9729   -6.4206    2.3918 H   0  0  0  0  0  0  0  0  0  0  0  0
   -0.1735   -4.7694    1.4571 N   0  0  0  0  0  0  0  0  0  0  0  0
    0.6439   -3.6603    1.0409 C   0  0  2  0  0  0  0  0  0  0  0  0
   -0.2788   -2.5625    0.5280 C   0  0  0  0  0  0  0  0  0  0  0  0
   -1.4197   -2.7791    0.1251 O   0  0  0  0  0  0  0  0  0  0  0  0
    1.6395   -4.0779   -0.0301 C   0  0  0  0  0  0  0  0  0  0  0  0
   -0.8741   -5.1235    0.8083 H   0  0  0  0  0  0  0  0  0  0  0  0
    1.1738   -3.3062    1.9318 H   0  0  0  0  0  0  0  0  0  0  0  0
    1.1270   -4.4358   -0.9305 H   0  0  0  0  0  0  0  0  0  0  0  0
    2.2797   -3.2400   -0.3251 H   0  0  0  0  0  0  0  0  0  0  0  0
    2.2827   -4.8880    0.3303 H   0  0  0  0  0  0  0  0  0  0  0  0
    0.3351   -1.3153    0.5316 N   0  0  0  0  0  0  0  0  0  0  0  0
   -0.3268   -0.1184    0.0807 C   0  0  2  0  0  0  0  0  0  0  0  0
   -1.7395   -0.4786   -0.3688 C   0  0  0  0  0  0  0  0  0  0  0  0
   -2.3699   -1.4242    0.0998 O   0  0  0  0  0  0  0  0  0  0  0  0
    0.4750    0.6124   -1.0050 C   0  0  0  0  0  0  0  0  0  0  0  0
    1.8069    1.1794   -0.5079 C   0  0  0  0  0  0  0  0  0  0  0  0
    1.5281    2.3968    0.8128 S   0  0  0  0  0  0  0  0  0  0  0  0
    0.7638    3.6943   -0.1862 C   0  0  0  0  0  0  0  0  0  0  0  0
    1.2790   -1.2290    0.9021 H   0  0  0  0  0  0  0  0  0  0  0  0
   -0.4066    0.5293    0.9623 H   0  0  0  0  0  0  0  0  0  0  0  0
   -0.1433    1.4296   -1.4002 H   0  0  0  0  0  0  0  0  0  0  0  0
    0.6616   -0.0779   -1.8376 H   0  0  0  0  0  0  0  0  0  0  0  0
    2.3464    1.6804   -1.3172 H   0  0  0  0  0  0  0  0  0  0  0  0
    2.4479    0.3877   -0.1090 H   0  0  0  0  0  0  0  0  0  0  0  0
    0.5106    4.5492    0.4454 H   0  0  0  0  0  0  0  0  0  0  0  0
   -0.1479    3.3141   -0.6537 H   0  0  0  0  0  0  0  0  0  0  0  0
    1.4568    4.0189   -0.9662 H   0  0  0  0  0  0  0  0  0  0  0  0
   -2.1995    0.3582   -1.3755 N   0  0  0  0  0  0  0  0  0  0  0  0
   -3.5047    0.2091   -1.9752 C   0  0  2  0  0  0  0  0  0  0  0  0
   -3.3697    0.4773   -3.4682 C   0  0  0  0  0  0  0  0  0  0  0  0
   -2.4503    1.1350   -3.9511 O   0  0  0  0  0  0  0  0  0  0  0  0
   -4.5154    1.1529   -1.3425 C   0  0  0  0  0  0  0  0  0  0  0  0
   -1.6212    1.1340   -1.6843 H   0  0  0  0  0  0  0  0  0  0  0  0
   -3.8087   -0.8314   -1.8165 H   0  0  0  0  0  0  0  0  0  0  0  0
   -4.2277    2.2001   -1.4913 H   0  0  0  0  0  0  0  0  0  0  0  0
   -5.5109    1.0186   -1.7786 H   0  0  0  0  0  0  0  0  0  0  0  0
   -4.5894    0.9786   -0.2637 H   0  0  0  0  0  0  0  0  0  0  0  0
   -4.4201   -0.0676   -4.1935 N   0  0  0  0  0  0  0  0  0  0  0  0
   -4.5267    0.0615   -5.6280 C   0  0  0  0  0  0  0  0  0  0  0  0
   -5.1288   -0.6138   -3.7128 H   0  0  0  0  0  0  0  0  0  0  0  0
   -5.1303    0.9477   -5.8731 H   0  0  0  0  0  0  0  0  0  0  0  0
   -3.5218    0.1710   -6.0619 H   0  0  0  0  0  0  0  0  0  0  0  0
   -5.0088   -0.8364   -6.0420 H   0  0  0  0  0  0  0  0  0  0  0  0
  1  3  1  0  0  0  0
  1  7  1  0  0  0  0
  1  2  2  0  0  0  0
 35 36  1  0  0  0  0
 36 44  1  0  0  0  0
 36 37  2  0  0  0  0
  8  9  1  0  0  0  0
  9 17  1  0  0  0  0
  9 10  2  0  0  0  0
 18 19  1  0  0  0  0
 19 34  1  0  0  0  0
 19 20  2  0  0  0  0
 35 38  1  0  0  0  0
  8 11  1  0  0  0  0
 44 45  1  0  0  0  0
 23 24  1  0  0  0  0
 21 22  1  0  0  0  0
 18 21  1  0  0  0  0
 22 23  1  0  0  0  0
 34 35  1  0  0  0  0
  7  8  1  0  0  0  0
 17 18  1  0  0  0  0
  3  4  1  0  0  0  0
  3  5  1  0  0  0  0
  3  6  1  0  0  0  0
 38 41  1  0  0  0  0
 38 42  1  0  0  0  0
 38 43  1  0  0  0  0
 11 14  1  0  0  0  0
 11 15  1  0  0  0  0
 11 16  1  0  0  0  0
 45 47  1  0  0  0  0
 45 48  1  0  0  0  0
 45 49  1  0  0  0  0
 24 31  1  0  0  0  0
 24 32  1  0  0  0  0
 24 33  1  0  0  0  0
 21 27  1  0  0  0  0
 21 28  1  0  0  0  0
 22 29  1  0  0  0  0
 22 30  1  0  0  0  0
 35 40  1  0  0  0  0
  8 13  1  0  0  0  0
 18 26  1  0  0  0  0
 44 46  1  0  0  0  0
  7 12  1  0  0  0  0
 34 39  1  0  0  0  0
 17 25  1  0  0  0  0
M  END
$$$$

  -OEChem-05262214473D

 49 48  0     1  0  0  0  0  0999 V2000
   -0.0561   -5.3799    2.6949 C   0  0  0  0  0  0  0  0  0  0  0  0
    0.7325   -5.0736    3.5815 O   0  0  0  0  0  0  0  0  0  0  0  0
   -1.0067   -6.5099    2.9135 C   0  0  0  0  0  0  0  0  0  0  0  0
   -0.5910   -7.4777    2.5899 H   0  0  0  0  0  0  0  0  0  0  0  0
   -1.2629   -6.6440    3.9767 H   0  0  0  0  0  0  0  0  0  0  0  0
   -1.9729   -6.4206    2.3918 H   0  0  0  0  0  0  0  0  0  0  0  0
   -0.1735   -4.7694    1.4571 N   0  0  0  0  0  0  0  0  0  0  0  0
    0.6439   -3.6603    1.0409 C   0  0  2  0  0  0  0  0  0  0  0  0
   -0.2788   -2.5625    0.5280 C   0  0  0  0  0  0  0  0  0  0  0  0
   -1.4197   -2.7791    0.1251 O   0  0  0  0  0  0  0  0  0  0  0  0
    1.6395   -4.0779   -0.0301 C   0  0  0  0  0  0  0  0  0  0  0  0
   -0.8741   -5.1235    0.8083 H   0  0  0  0  0  0  0  0  0  0  0  0
    1.1738   -3.3062    1.9318 H   0  0  0  0  0  0  0  0  0  0  0  0
    1.1270   -4.4358   -0.9305 H   0  0  0  0  0  0  0  0  0  0  0  0
    2.2797   -3.2400   -0.3251 H   0  0  0  0  0  0  0  0  0  0  0  0
    2.2827   -4.8880    0.3303 H   0  0  0  0  0  0  0  0  0  0  0  0
    0.3351   -1.3153    0.5316 N   0  0  0  0  0  0  0  0  0  0  0  0
   -0.3268   -0.1184    0.0807 C   0  0  2  0  0  0  0  0  0  0  0  0
   -1.7395   -0.4786   -0.3688 C   0  0  0  0  0  0  0  0  0  0  0  0
   -2.4703   -1.2370    0.2652 O   0  0  0  0  0  0  0  0  0  0  0  0
    0.4750    0.6124   -1.0050 C   0  0  0  0  0  0  0  0  0  0  0  0
    1.8069    1.1794   -0.5079 C   0  0  0  0  0  0  0  0  0  0  0  0
    1.5281    2.3968    0.8128 S   0  0  0  0  0  0  0  0  0  0  0  0
    0.7638    3.6943   -0.1862 C   0  0  0  0  0  0  0  0  0  0  0  0
    1.2790   -1.2290    0.9021 H   0  0  0  0  0  0  0  0  0  0  0  0
   -0.4066    0.5293    0.9623 H   0  0  0  0  0  0  0  0  0  0  0  0
   -0.1433    1.4296   -1.4002 H   0  0  0  0  0  0  0  0  0  0  0  0
    0.6616   -0.0779   -1.8376 H   0  0  0  0  0  0  0  0  0  0  0  0
    2.3464    1.6804   -1.3172 H   0  0  0  0  0  0  0  0  0  0  0  0
    2.4479    0.3877   -0.1090 H   0  0  0  0  0  0  0  0  0  0  0  0
    0.5106    4.5492    0.4454 H   0  0  0  0  0  0  0  0  0  0  0  0
   -0.1479    3.3141   -0.6537 H   0  0  0  0  0  0  0  0  0  0  0  0
    1.4568    4.0189   -0.9662 H   0  0  0  0  0  0  0  0  0  0  0  0
   -2.0751    0.1193   -1.5751 N   0  0  0  0  0  0  0  0  0  0  0  0
   -3.3553   -0.0804   -2.2126 C   0  0  2  0  0  0  0  0  0  0  0  0
   -3.1212   -0.1914   -3.7134 C   0  0  0  0  0  0  0  0  0  0  0  0
   -2.1261    0.2650   -4.2726 O   0  0  0  0  0  0  0  0  0  0  0  0
   -4.3149    1.0558   -1.8948 C   0  0  0  0  0  0  0  0  0  0  0  0
   -1.4187    0.7556   -2.0177 H   0  0  0  0  0  0  0  0  0  0  0  0
   -3.7532   -1.0280   -1.8334 H   0  0  0  0  0  0  0  0  0  0  0  0
   -3.9332    2.0135   -2.2671 H   0  0  0  0  0  0  0  0  0  0  0  0
   -5.2942    0.8887   -2.3555 H   0  0  0  0  0  0  0  0  0  0  0  0
   -4.4590    1.1533   -0.8134 H   0  0  0  0  0  0  0  0  0  0  0  0
   -4.1745   -0.8220   -4.3607 N   0  0  0  0  0  0  0  0  0  0  0  0
   -4.1954   -1.0370   -5.7888 C   0  0  0  0  0  0  0  0  0  0  0  0
   -4.9504   -1.1855   -3.8153 H   0  0  0  0  0  0  0  0  0  0  0  0
   -4.7093   -0.1970   -6.2791 H   0  0  0  0  0  0  0  0  0  0  0  0
   -3.1638   -1.1051   -6.1643 H   0  0  0  0  0  0  0  0  0  0  0  0
   -4.7290   -1.9730   -6.0107 H   0  0  0  0  0  0  0  0  0  0  0  0
  1  3  1  0  0  0  0
  1  7  1  0  0  0  0
  1  2  2  0  0  0  0
 35 36  1  0  0  0  0
 36 44  1  0  0  0  0
 36 37  2  0  0  0  0
  8  9  1  0  0  0  0
  9 17  1  0  0  0  0
  9 10  2  0  0  0  0
 18 19  1  0  0  0  0
 19 34  1  0  0  0  0
 19 20  2  0  0  0  0
 35 38  1  0  0  0  0
  8 11  1  0  0  0  0
 44 45  1  0  0  0  0
 23 24  1  0  0  0  0
 21 22  1  0  0  0  0
 18 21  1  0  0  0  0
 22 23  1  0  0  0  0
 34 35  1  0  0  0  0
  7  8  1  0  0  0  0
 17 18  1  0  0  0  0
  3  4  1  0  0  0  0
  3  5  1  0  0  0  0
  3  6  1  0  0  0  0
 38 41  1  0  0  0  0
 38 42  1  0  0  0  0
 38 43  1  0  0  0  0
 11 14  1  0  0  0  0
 11 15  1  0  0  0  0
 11 16  1  0  0  0  0
 45 47  1  0  0  0  0
 45 48  1  0  0  0  0
 45 49  1  0  0  0  0
 24 31  1  0  0  0  0
 24 32  1  0  0  0  0
 24 33  1  0  0  0  0
 21 27  1  0  0  0  0
 21 28  1  0  0  0  0
 22 29  1  0  0  0  0
 22 30  1  0  0  0  0
 35 40  1  0  0  0  0
  8 13  1  0  0  0  0
 18 26  1  0  0  0  0
 44 46  1  0  0  0  0
  7 12  1  0  0  0  0
 34 39  1  0  0  0  0
 17 25  1  0  0  0  0
M  END
$$$$

  -OEChem-05262214473D

 49 48  0     1  0  0  0  0  0999 V2000
   -0.0561   -5.3799    2.6949 C   0  0  0  0  0  0  0  0  0  0  0  0
    0.7325   -5.0736    3.5815 O   0  0  0  0  0  0  0  0  0  0  0  0
   -1.0067   -6.5099    2.9135 C   0  0  0  0  0  0  0  0  0  0  0  0
   -0.5910   -7.4777    2.5899 H   0  0  0  0  0  0  0  0  0  0  0  0
   -1.2629   -6.6440    3.9767 H   0  0  0  0  0  0  0  0  0  0  0  0
   -1.9729   -6.4206    2.3918 H   0  0  0  0  0  0  0  0  0  0  0  0
   -0.1735   -4.7694    1.4571 N   0  0  0  0  0  0  0  0  0  0  0  0
    0.6439   -3.6603    1.0409 C   0  0  2  0  0  0  0  0  0  0  0  0
   -0.2788   -2.5625    0.5280 C   0  0  0  0  0  0  0  0  0  0  0  0
   -1.4197   -2.7791    0.1251 O   0  0  0  0  0  0  0  0  0  0  0  0
    1.6395   -4.0779   -0.0301 C   0  0  0  0  0  0  0  0  0  0  0  0
   -0.8741   -5.1235    0.8083 H   0  0  0  0  0  0  0  0  0  0  0  0
    1.1738   -3.3062    1.9318 H   0  0  0  0  0  0  0  0  0  0  0  0
    1.1270   -4.4358   -0.9305 H   0  0  0  0  0  0  0  0  0  0  0  0
    2.2797   -3.2400   -0.3251 H   0  0  0  0  0  0  0  0  0  0  0  0
    2.2827   -4.8880    0.3303 H   0  0  0  0  0  0  0  0  0  0  0  0
    0.3351   -1.3153    0.5316 N   0  0  0  0  0  0  0  0  0  0  0  0
   -0.3268   -0.1184    0.0807 C   0  0  2  0  0  0  0  0  0  0  0  0
   -1.7395   -0.4786   -0.3688 C   0  0  0  0  0  0  0  0  0  0  0  0
   -2.5631   -1.0089    0.3740 O   0  0  0  0  0  0  0  0  0  0  0  0
    0.4750    0.6124   -1.0050 C   0  0  0  0  0  0  0  0  0  0  0  0
    1.8069    1.1794   -0.5079 C   0  0  0  0  0  0  0  0  0  0  0  0
    1.5281    2.3968    0.8128 S   0  0  0  0  0  0  0  0  0  0  0  0
    0.7638    3.6943   -0.1862 C   0  0  0  0  0  0  0  0  0  0  0  0
    1.2790   -1.2290    0.9021 H   0  0  0  0  0  0  0  0  0  0  0  0
   -0.4066    0.5293    0.9623 H   0  0  0  0  0  0  0  0  0  0  0  0
   -0.1433    1.4296   -1.4002 H   0  0  0  0  0  0  0  0  0  0  0  0
    0.6616   -0.0779   -1.8376 H   0  0  0  0  0  0  0  0  0  0  0  0
    2.3464    1.6804   -1.3172 H   0  0  0  0  0  0  0  0  0  0  0  0
    2.4479    0.3877   -0.1090 H   0  0  0  0  0  0  0  0  0  0  0  0
    0.5106    4.5492    0.4454 H   0  0  0  0  0  0  0  0  0  0  0  0
   -0.1479    3.3141   -0.6537 H   0  0  0  0  0  0  0  0  0  0  0  0
    1.4568    4.0189   -0.9662 H   0  0  0  0  0  0  0  0  0  0  0  0
   -1.9609   -0.1688   -1.7030 N   0  0  0  0  0  0  0  0  0  0  0  0
   -3.2186   -0.4282   -2.3635 C   0  0  2  0  0  0  0  0  0  0  0  0
   -2.9171   -0.9151   -3.7748 C   0  0  0  0  0  0  0  0  0  0  0  0
   -1.8597   -0.6772   -4.3548 O   0  0  0  0  0  0  0  0  0  0  0  0
   -4.0949    0.8143   -2.3928 C   0  0  0  0  0  0  0  0  0  0  0  0
   -1.2315    0.2947   -2.2367 H   0  0  0  0  0  0  0  0  0  0  0  0
   -3.7135   -1.2262   -1.7992 H   0  0  0  0  0  0  0  0  0  0  0  0
   -3.6156    1.6248   -2.9539 H   0  0  0  0  0  0  0  0  0  0  0  0
   -5.0595    0.6085   -2.8684 H   0  0  0  0  0  0  0  0  0  0  0  0
   -4.2861    1.1803   -1.3782 H   0  0  0  0  0  0  0  0  0  0  0  0
   -3.9846   -1.6096   -4.3265 N   0  0  0  0  0  0  0  0  0  0  0  0
   -3.9494   -2.1618   -5.6605 C   0  0  0  0  0  0  0  0  0  0  0  0
   -4.8154   -1.7760   -3.7664 H   0  0  0  0  0  0  0  0  0  0  0  0
   -4.3650   -1.4322   -6.3711 H   0  0  0  0  0  0  0  0  0  0  0  0
   -2.9090   -2.3896   -5.9356 H   0  0  0  0  0  0  0  0  0  0  0  0
   -4.5472   -3.0847   -5.6911 H   0  0  0  0  0  0  0  0  0  0  0  0
  1  3  1  0  0  0  0
  1  7  1  0  0  0  0
  1  2  2  0  0  0  0
 35 36  1  0  0  0  0
 36 44  1  0  0  0  0
 36 37  2  0  0  0  0
  8  9  1  0  0  0  0
  9 17  1  0  0  0  0
  9 10  2  0  0  0  0
 18 19  1  0  0  0  0
 19 34  1  0  0  0  0
 19 20  2  0  0  0  0
 35 38  1  0  0  0  0
  8 11  1  0  0  0  0
 44 45  1  0  0  0  0
 23 24  1  0  0  0  0
 21 22  1  0  0  0  0
 18 21  1  0  0  0  0
 22 23  1  0  0  0  0
 34 35  1  0  0  0  0
  7  8  1  0  0  0  0
 17 18  1  0  0  0  0
  3  4  1  0  0  0  0
  3  5  1  0  0  0  0
  3  6  1  0  0  0  0
 38 41  1  0  0  0  0
 38 42  1  0  0  0  0
 38 43  1  0  0  0  0
 11 14  1  0  0  0  0
 11 15  1  0  0  0  0
 11 16  1  0  0  0  0
 45 47  1  0  0  0  0
 45 48  1  0  0  0  0
 45 49  1  0  0  0  0
 24 31  1  0  0  0  0
 24 32  1  0  0  0  0
 24 33  1  0  0  0  0
 21 27  1  0  0  0  0
 21 28  1  0  0  0  0
 22 29  1  0  0  0  0
 22 30  1  0  0  0  0
 35 40  1  0  0  0  0
  8 13  1  0  0  0  0
 18 26  1  0  0  0  0
 44 46  1  0  0  0  0
  7 12  1  0  0  0  0
 34 39  1  0  0  0  0
 17 25  1  0  0  0  0
M  END
$$$$

  -OEChem-05262214473D

 49 48  0     1  0  0  0  0  0999 V2000
   -0.0561   -5.3799    2.6949 C   0  0  0  0  0  0  0  0  0  0  0  0
    0.7325   -5.0736    3.5815 O   0  0  0  0  0  0  0  0  0  0  0  0
   -1.0067   -6.5099    2.9135 C   0  0  0  0  0  0  0  0  0  0  0  0
   -0.5910   -7.4777    2.5899 H   0  0  0  0  0  0  0  0  0  0  0  0
   -1.2629   -6.6440    3.9767 H   0  0  0  0  0  0  0  0  0  0  0  0
   -1.9729   -6.4206    2.3918 H   0  0  0  0  0  0  0  0  0  0  0  0
   -0.1735   -4.7694    1.4571 N   0  0  0  0  0  0  0  0  0  0  0  0
    0.6439   -3.6603    1.0409 C   0  0  2  0  0  0  0  0  0  0  0  0
   -0.2788   -2.5625    0.5280 C   0  0  0  0  0  0  0  0  0  0  0  0
   -1.4197   -2.7791    0.1251 O   0  0  0  0  0  0  0  0  0  0  0  0
    1.6395   -4.0779   -0.0301 C   0  0  0  0  0  0  0  0  0  0  0  0
   -0.8741   -5.1235    0.8083 H   0  0  0  0  0  0  0  0  0  0  0  0
    1.1738   -3.3062    1.9318 H   0  0  0  0  0  0  0  0  0  0  0  0
    1.1270   -4.4358   -0.9305 H   0  0  0  0  0  0  0  0  0  0  0  0
    2.2797   -3.2400   -0.3251 H   0  0  0  0  0  0  0  0  0  0  0  0
    2.2827   -4.8880    0.3303 H   0  0  0  0  0  0  0  0  0  0  0  0
    0.3351   -1.3153    0.5316 N   0  0  0  0  0  0  0  0  0  0  0  0
   -0.3268   -0.1184    0.0807 C   0  0  2  0  0  0  0  0  0  0  0  0
   -1.7395   -0.4786   -0.3688 C   0  0  0  0  0  0  0  0  0  0  0  0
   -2.6420   -0.7553    0.4187 O   0  0  0  0  0  0  0  0  0  0  0  0
    0.4750    0.6124   -1.0050 C   0  0  0  0  0  0  0  0  0  0  0  0
    1.8069    1.1794   -0.5079 C   0  0  0  0  0  0  0  0  0  0  0  0
    1.5281    2.3968    0.8128 S   0  0  0  0  0  0  0  0  0  0  0  0
    0.7638    3.6943   -0.1862 C   0  0  0  0  0  0  0  0  0  0  0  0
    1.2790   -1.2290    0.9021 H   0  0  0  0  0  0  0  0  0  0  0  0
   -0.4066    0.5293    0.9623 H   0  0  0  0  0  0  0  0  0  0  0  0
   -0.1433    1.4296   -1.4002 H   0  0  0  0  0  0  0  0  0  0  0  0
    0.6616   -0.0779   -1.8376 H   0  0  0  0  0  0  0  0  0  0  0  0
    2.3464    1.6804   -1.3172 H   0  0  0  0  0  0  0  0  0  0  0  0
    2.4479    0.3877   -0.1090 H   0  0  0  0  0  0  0  0  0  0  0  0
    0.5106    4.5492    0.4454 H   0  0  0  0  0  0  0  0  0  0  0  0
   -0.1479    3.3141   -0.6537 H   0  0  0  0  0  0  0  0  0  0  0  0
    1.4568    4.0189   -0.9662 H   0  0  0  0  0  0  0  0  0  0  0  0
   -1.8647   -0.4865   -1.7506 N   0  0  0  0  0  0  0  0  0  0  0  0
   -3.1039   -0.8109   -2.4175 C   0  0  2  0  0  0  0  0  0  0  0  0
   -2.7715   -1.6443   -3.6481 C   0  0  0  0  0  0  0  0  0  0  0  0
   -1.6693   -1.6273   -4.1921 O   0  0  0  0  0  0  0  0  0  0  0  0
   -3.8703    0.4450   -2.8024 C   0  0  0  0  0  0  0  0  0  0  0  0
   -1.0724   -0.2172   -2.3263 H   0  0  0  0  0  0  0  0  0  0  0  0
   -3.6924   -1.4125   -1.7163 H   0  0  0  0  0  0  0  0  0  0  0  0
   -3.2964    1.0606   -3.5047 H   0  0  0  0  0  0  0  0  0  0  0  0
   -4.8228    0.1970   -3.2823 H   0  0  0  0  0  0  0  0  0  0  0  0
   -4.0826    1.0579   -1.9198 H   0  0  0  0  0  0  0  0  0  0  0  0
   -3.8633   -2.3765   -4.0930 N   0  0  0  0  0  0  0  0  0  0  0  0
   -3.8054   -3.2363   -5.2521 C   0  0  0  0  0  0  0  0  0  0  0  0
   -4.7331   -2.3448   -3.5694 H   0  0  0  0  0  0  0  0  0  0  0  0
   -4.1211   -2.6735   -6.1429 H   0  0  0  0  0  0  0  0  0  0  0  0
   -2.7749   -3.5950   -5.3913 H   0  0  0  0  0  0  0  0  0  0  0  0
   -4.4760   -4.0958   -5.1048 H   0  0  0  0  0  0  0  0  0  0  0  0
  1  3  1  0  0  0  0
  1  7  1  0  0  0  0
  1  2  2  0  0  0  0
 35 36  1  0  0  0  0
 36 44  1  0  0  0  0
 36 37  2  0  0  0  0
  8  9  1  0  0  0  0
  9 17  1  0  0  0  0
  9 10  2  0  0  0  0
 18 19  1  0  0  0  0
 19 34  1  0  0  0  0
 19 20  2  0  0  0  0
 35 38  1  0  0  0  0
  8 11  1  0  0  0  0
 44 45  1  0  0  0  0
 23 24  1  0  0  0  0
 21 22  1  0  0  0  0
 18 21  1  0  0  0  0
 22 23  1  0  0  0  0
 34 35  1  0  0  0  0
  7  8  1  0  0  0  0
 17 18  1  0  0  0  0
  3  4  1  0  0  0  0
  3  5  1  0  0  0  0
  3  6  1  0  0  0  0
 38 41  1  0  0  0  0
 38 42  1  0  0  0  0
 38 43  1  0  0  0  0
 11 14  1  0  0  0  0
 11 15  1  0  0  0  0
 11 16  1  0  0  0  0
 45 47  1  0  0  0  0
 45 48  1  0  0  0  0
 45 49  1  0  0  0  0
 24 31  1  0  0  0  0
 24 32  1  0  0  0  0
 24 33  1  0  0  0  0
 21 27  1  0  0  0  0
 21 28  1  0  0  0  0
 22 29  1  0  0  0  0
 22 30  1  0  0  0  0
 35 40  1  0  0  0  0
  8 13  1  0  0  0  0
 18 26  1  0  0  0  0
 44 46  1  0  0  0  0
  7 12  1  0  0  0  0
 34 39  1  0  0  0  0
 17 25  1  0  0  0  0
M  END
$$$$

  -OEChem-05262214473D

 49 48  0     1  0  0  0  0  0999 V2000
   -0.0561   -5.3799    2.6949 C   0  0  0  0  0  0  0  0  0  0  0  0
    0.7325   -5.0736    3.5815 O   0  0  0  0  0  0  0  0  0  0  0  0
   -1.0067   -6.5099    2.9135 C   0  0  0  0  0  0  0  0  0  0  0  0
   -0.5910   -7.4777    2.5899 H   0  0  0  0  0  0  0  0  0  0  0  0
   -1.2629   -6.6440    3.9767 H   0  0  0  0  0  0  0  0  0  0  0  0
   -1.9729   -6.4206    2.3918 H   0  0  0  0  0  0  0  0  0  0  0  0
   -0.1735   -4.7694    1.4571 N   0  0  0  0  0  0  0  0  0  0  0  0
    0.6439   -3.6603    1.0409 C   0  0  2  0  0  0  0  0  0  0  0  0
   -0.2788   -2.5625    0.5280 C   0  0  0  0  0  0  0  0  0  0  0  0
   -1.4197   -2.7791    0.1251 O   0  0  0  0  0  0  0  0  0  0  0  0
    1.6395   -4.0779   -0.0301 C   0  0  0  0  0  0  0  0  0  0  0  0
   -0.8741   -5.1235    0.8083 H   0  0  0  0  0  0  0  0  0  0  0  0
    1.1738   -3.3062    1.9318 H   0  0  0  0  0  0  0  0  0  0  0  0
    1.1270   -4.4358   -0.9305 H   0  0  0  0  0  0  0  0  0  0  0  0
    2.2797   -3.2400   -0.3251 H   0  0  0  0  0  0  0  0  0  0  0  0
    2.2827   -4.8880    0.3303 H   0  0  0  0  0  0  0  0  0  0  0  0
    0.3351   -1.3153    0.5316 N   0  0  0  0  0  0  0  0  0  0  0  0
   -0.3268   -0.1184    0.0807 C   0  0  2  0  0  0  0  0  0  0  0  0
   -1.7395   -0.4786   -0.3688 C   0  0  0  0  0  0  0  0  0  0  0  0
   -2.7015   -0.4937    0.3963 O   0  0  0  0  0  0  0  0  0  0  0  0
    0.4750    0.6124   -1.0050 C   0  0  0  0  0  0  0  0  0  0  0  0
    1.8069    1.1794   -0.5079 C   0  0  0  0  0  0  0  0  0  0  0  0
    1.5281    2.3968    0.8128 S   0  0  0  0  0  0  0  0  0  0  0  0
    0.7638    3.6943   -0.1862 C   0  0  0  0  0  0  0  0  0  0  0  0
    1.2790   -1.2290    0.9021 H   0  0  0  0  0  0  0  0  0  0  0  0
   -0.4066    0.5293    0.9623 H   0  0  0  0  0  0  0  0  0  0  0  0
   -0.1433    1.4296   -1.4002 H   0  0  0  0  0  0  0  0  0  0  0  0
    0.6616   -0.0779   -1.8376 H   0  0  0  0  0  0  0  0  0  0  0  0
    2.3464    1.6804   -1.3172 H   0  0  0  0  0  0  0  0  0  0  0  0
    2.4479    0.3877   -0.1090 H   0  0  0  0  0  0  0  0  0  0  0  0
    0.5106    4.5492    0.4454 H   0  0  0  0  0  0  0  0  0  0  0  0
   -0.1479    3.3141   -0.6537 H   0  0  0  0  0  0  0  0  0  0  0  0
    1.4568    4.0189   -0.9662 H   0  0  0  0  0  0  0  0  0  0  0  0
   -1.7932   -0.8120   -1.7146 N   0  0  0  0  0  0  0  0  0  0  0  0
   -3.0189   -1.2021   -2.3710 C   0  0  2  0  0  0  0  0  0  0  0  0
   -2.6941   -2.3295   -3.3421 C   0  0  0  0  0  0  0  0  0  0  0  0
   -1.5677   -2.5205   -3.7956 O   0  0  0  0  0  0  0  0  0  0  0  0
   -3.6566   -0.0271   -3.0959 C   0  0  0  0  0  0  0  0  0  0  0  0
   -0.9524   -0.7453   -2.2804 H   0  0  0  0  0  0  0  0  0  0  0  0
   -3.6912   -1.5742   -1.5903 H   0  0  0  0  0  0  0  0  0  0  0  0
   -2.9976    0.3592   -3.8819 H   0  0  0  0  0  0  0  0  0  0  0  0
   -4.6003   -0.3177   -3.5691 H   0  0  0  0  0  0  0  0  0  0  0  0
   -3.8622    0.7943   -2.4011 H   0  0  0  0  0  0  0  0  0  0  0  0
   -3.8189   -3.0707   -3.6763 N   0  0  0  0  0  0  0  0  0  0  0  0
   -3.7732   -4.1873   -4.5912 C   0  0  0  0  0  0  0  0  0  0  0  0
   -4.7089   -2.8534   -3.2377 H   0  0  0  0  0  0  0  0  0  0  0  0
   -3.9941   -3.8365   -5.6101 H   0  0  0  0  0  0  0  0  0  0  0  0
   -2.7705   -4.6391   -4.5684 H   0  0  0  0  0  0  0  0  0  0  0  0
   -4.5201   -4.9373   -4.2918 H   0  0  0  0  0  0  0  0  0  0  0  0
  1  3  1  0  0  0  0
  1  7  1  0  0  0  0
  1  2  2  0  0  0  0
 35 36  1  0  0  0  0
 36 44  1  0  0  0  0
 36 37  2  0  0  0  0
  8  9  1  0  0  0  0
  9 17  1  0  0  0  0
  9 10  2  0  0  0  0
 18 19  1  0  0  0  0
 19 34  1  0  0  0  0
 19 20  2  0  0  0  0
 35 38  1  0  0  0  0
  8 11  1  0  0  0  0
 44 45  1  0  0  0  0
 23 24  1  0  0  0  0
 21 22  1  0  0  0  0
 18 21  1  0  0  0  0
 22 23  1  0  0  0  0
 34 35  1  0  0  0  0
  7  8  1  0  0  0  0
 17 18  1  0  0  0  0
  3  4  1  0  0  0  0
  3  5  1  0  0  0  0
  3  6  1  0  0  0  0
 38 41  1  0  0  0  0
 38 42  1  0  0  0  0
 38 43  1  0  0  0  0
 11 14  1  0  0  0  0
 11 15  1  0  0  0  0
 11 16  1  0  0  0  0
 45 47  1  0  0  0  0
 45 48  1  0  0  0  0
 45 49  1  0  0  0  0
 24 31  1  0  0  0  0
 24 32  1  0  0  0  0
 24 33  1  0  0  0  0
 21 27  1  0  0  0  0
 21 28  1  0  0  0  0
 22 29  1  0  0  0  0
 22 30  1  0  0  0  0
 35 40  1  0  0  0  0
  8 13  1  0  0  0  0
 18 26  1  0  0  0  0
 44 46  1  0  0  0  0
  7 12  1  0  0  0  0
 34 39  1  0  0  0  0
 17 25  1  0  0  0  0
M  END
$$$$

  -OEChem-05262214473D

 49 48  0     1  0  0  0  0  0999 V2000
   -0.0561   -5.3799    2.6949 C   0  0  0  0  0  0  0  0  0  0  0  0
    0.7325   -5.0736    3.5815 O   0  0  0  0  0  0  0  0  0  0  0  0
   -1.0067   -6.5099    2.9135 C   0  0  0  0  0  0  0  0  0  0  0  0
   -0.5910   -7.4777    2.5899 H   0  0  0  0  0  0  0  0  0  0  0  0
   -1.2629   -6.6440    3.9767 H   0  0  0  0  0  0  0  0  0  0  0  0
   -1.9729   -6.4206    2.3918 H   0  0  0  0  0  0  0  0  0  0  0  0
   -0.1735   -4.7694    1.4571 N   0  0  0  0  0  0  0  0  0  0  0  0
    0.6439   -3.6603    1.0409 C   0  0  2  0  0  0  0  0  0  0  0  0
   -0.2788   -2.5625    0.5280 C   0  0  0  0  0  0  0  0  0  0  0  0
   -1.4197   -2.7791    0.1251 O   0  0  0  0  0  0  0  0  0  0  0  0
    1.6395   -4.0779   -0.0301 C   0  0  0  0  0  0  0  0  0  0  0  0
   -0.8741   -5.1235    0.8083 H   0  0  0  0  0  0  0  0  0  0  0  0
    1.1738   -3.3062    1.9318 H   0  0  0  0  0  0  0  0  0  0  0  0
    1.1270   -4.4358   -0.9305 H   0  0  0  0  0  0  0  0  0  0  0  0
    2.2797   -3.2400   -0.3251 H   0  0  0  0  0  0  0  0  0  0  0  0
    2.2827   -4.8880    0.3303 H   0  0  0  0  0  0  0  0  0  0  0  0
    0.3351   -1.3153    0.5316 N   0  0  0  0  0  0  0  0  0  0  0  0
   -0.3268   -0.1184    0.0807 C   0  0  2  0  0  0  0  0  0  0  0  0
   -1.7395   -0.4786   -0.3688 C   0  0  0  0  0  0  0  0  0  0  0  0
   -2.7378   -0.2418    0.3084 O   0  0  0  0  0  0  0  0  0  0  0  0
    0.4750    0.6124   -1.0050 C   0  0  0  0  0  0  0  0  0  0  0  0
    1.8069    1.1794   -0.5079 C   0  0  0  0  0  0  0  0  0  0  0  0
    1.5281    2.3968    0.8128 S   0  0  0  0  0  0  0  0  0  0  0  0
    0.7638    3.6943   -0.1862 C   0  0  0  0  0  0  0  0  0  0  0  0
    1.2790   -1.2290    0.9021 H   0  0  0  0  0  0  0  0  0  0  0  0
   -0.4066    0.5293    0.9623 H   0  0  0  0  0  0  0  0  0  0  0  0
   -0.1433    1.4296   -1.4002 H   0  0  0  0  0  0  0  0  0  0  0  0
    0.6616   -0.0779   -1.8376 H   0  0  0  0  0  0  0  0  0  0  0  0
    2.3464    1.6804   -1.3172 H   0  0  0  0  0  0  0  0  0  0  0  0
    2.4479    0.3877   -0.1090 H   0  0  0  0  0  0  0  0  0  0  0  0
    0.5106    4.5492    0.4454 H   0  0  0  0  0  0  0  0  0  0  0  0
   -0.1479    3.3141   -0.6537 H   0  0  0  0  0  0  0  0  0  0  0  0
    1.4568    4.0189   -0.9662 H   0  0  0  0  0  0  0  0  0  0  0  0
   -1.7511   -1.1233   -1.5974 N   0  0  0  0  0  0  0  0  0  0  0  0
   -2.9695   -1.5754   -2.2271 C   0  0  2  0  0  0  0  0  0  0  0  0
   -2.6904   -2.9239   -2.8776 C   0  0  0  0  0  0  0  0  0  0  0  0
   -1.5619   -3.2960   -3.1924 O   0  0  0  0  0  0  0  0  0  0  0  0
   -3.4682   -0.5697   -3.2531 C   0  0  0  0  0  0  0  0  0  0  0  0
   -0.8795   -1.2536   -2.1022 H   0  0  0  0  0  0  0  0  0  0  0  0
   -3.7102   -1.7003   -1.4297 H   0  0  0  0  0  0  0  0  0  0  0  0
   -2.7393   -0.4314   -4.0600 H   0  0  0  0  0  0  0  0  0  0  0  0
   -4.4071   -0.9006   -3.7091 H   0  0  0  0  0  0  0  0  0  0  0  0
   -3.6400    0.4076   -2.7894 H   0  0  0  0  0  0  0  0  0  0  0  0
   -3.8544   -3.6447   -3.1047 N   0  0  0  0  0  0  0  0  0  0  0  0
   -3.8550   -4.9500   -3.7230 C   0  0  0  0  0  0  0  0  0  0  0  0
   -4.7447   -3.2670   -2.7940 H   0  0  0  0  0  0  0  0  0  0  0  0
   -3.9927   -4.8419   -4.8089 H   0  0  0  0  0  0  0  0  0  0  0  0
   -2.8962   -5.4507   -3.5231 H   0  0  0  0  0  0  0  0  0  0  0  0
   -4.6766   -5.5520   -3.3075 H   0  0  0  0  0  0  0  0  0  0  0  0
  1  3  1  0  0  0  0
  1  7  1  0  0  0  0
  1  2  2  0  0  0  0
 35 36  1  0  0  0  0
 36 44  1  0  0  0  0
 36 37  2  0  0  0  0
  8  9  1  0  0  0  0
  9 17  1  0  0  0  0
  9 10  2  0  0  0  0
 18 19  1  0  0  0  0
 19 34  1  0  0  0  0
 19 20  2  0  0  0  0
 35 38  1  0  0  0  0
  8 11  1  0  0  0  0
 44 45  1  0  0  0  0
 23 24  1  0  0  0  0
 21 22  1  0  0  0  0
 18 21  1  0  0  0  0
 22 23  1  0  0  0  0
 34 35  1  0  0  0  0
  7  8  1  0  0  0  0
 17 18  1  0  0  0  0
  3  4  1  0  0  0  0
  3  5  1  0  0  0  0
  3  6  1  0  0  0  0
 38 41  1  0  0  0  0
 38 42  1  0  0  0  0
 38 43  1  0  0  0  0
 11 14  1  0  0  0  0
 11 15  1  0  0  0  0
 11 16  1  0  0  0  0
 45 47  1  0  0  0  0
 45 48  1  0  0  0  0
 45 49  1  0  0  0  0
 24 31  1  0  0  0  0
 24 32  1  0  0  0  0
 24 33  1  0  0  0  0
 21 27  1  0  0  0  0
 21 28  1  0  0  0  0
 22 29  1  0  0  0  0
 22 30  1  0  0  0  0
 35 40  1  0  0  0  0
  8 13  1  0  0  0  0
 18 26  1  0  0  0  0
 44 46  1  0  0  0  0
  7 12  1  0  0  0  0
 34 39  1  0  0  0  0
 17 25  1  0  0  0  0
M  END
$$$$

  -OEChem-05262214473D

 49 48  0     1  0  0  0  0  0999 V2000
   -0.0561   -5.3799    2.6949 C   0  0  0  0  0  0  0  0  0  0  0  0
    0.7325   -5.0736    3.5815 O   0  0  0  0  0  0  0  0  0  0  0  0
   -1.0067   -6.5099    2.9135 C   0  0  0  0  0  0  0  0  0  0  0  0
   -0.5910   -7.4777    2.5899 H   0  0  0  0  0  0  0  0  0  0  0  0
   -1.2629   -6.6440    3.9767 H   0  0  0  0  0  0  0  0  0  0  0  0
   -1.9729   -6.4206    2.3918 H   0  0  0  0  0  0  0  0  0  0  0  0
   -0.1735   -4.7694    1.4571 N   0  0  0  0  0  0  0  0  0  0  0  0
    0.6439   -3.6603    1.0409 C   0  0  2  0  0  0  0  0  0  0  0  0
   -0.2788   -2.5625    0.5280 C   0  0  0  0  0  0  0  0  0  0  0  0
   -1.4197   -2.7791    0.1251 O   0  0  0  0  0  0  0  0  0  0  0  0
    1.6395   -4.0779   -0.0301 C   0  0  0  0  0  0  0  0  0  0  0  0
   -0.8741   -5.1235    0.8083 H   0  0  0  0  0  0  0  0  0  0  0  0
    1.1738   -3.3062    1.9318 H   0  0  0  0  0  0  0  0  0  0  0  0
    1.1270   -4.4358   -0.9305 H   0  0  0  0  0  0  0  0  0  0  0  0
    2.2797   -3.2400   -0.3251 H   0  0  0  0  0  0  0  0  0  0  0  0
    2.2827   -4.8880    0.3303 H   0  0  0  0  0  0  0  0  0  0  0  0
    0.3351   -1.3153    0.5316 N   0  0  0  0  0  0  0  0  0  0  0  0
   -0.3268   -0.1184    0.0807 C   0  0  2  0  0  0  0  0  0  0  0  0
   -1.7395   -0.4786   -0.3688 C   0  0  0  0  0  0  0  0  0  0  0  0
   -2.7482   -0.0169    0.1608 O   0  0  0  0  0  0  0  0  0  0  0  0
    0.4750    0.6124   -1.0050 C   0  0  0  0  0  0  0  0  0  0  0  0
    1.8069    1.1794   -0.5079 C   0  0  0  0  0  0  0  0  0  0  0  0
    1.5281    2.3968    0.8128 S   0  0  0  0  0  0  0  0  0  0  0  0
    0.7638    3.6943   -0.1862 C   0  0  0  0  0  0  0  0  0  0  0  0
    1.2790   -1.2290    0.9021 H   0  0  0  0  0  0  0  0  0  0  0  0
   -0.4066    0.5293    0.9623 H   0  0  0  0  0  0  0  0  0  0  0  0
   -0.1433    1.4296   -1.4002 H   0  0  0  0  0  0  0  0  0  0  0  0
    0.6616   -0.0779   -1.8376 H   0  0  0  0  0  0  0  0  0  0  0  0
    2.3464    1.6804   -1.3172 H   0  0  0  0  0  0  0  0  0  0  0  0
    2.4479    0.3877   -0.1090 H   0  0  0  0  0  0  0  0  0  0  0  0
    0.5106    4.5492    0.4454 H   0  0  0  0  0  0  0  0  0  0  0  0
   -0.1479    3.3141   -0.6537 H   0  0  0  0  0  0  0  0  0  0  0  0
    1.4568    4.0189   -0.9662 H   0  0  0  0  0  0  0  0  0  0  0  0
   -1.7414   -1.3991   -1.4070 N   0  0  0  0  0  0  0  0  0  0  0  0
   -2.9591   -1.9052   -1.9956 C   0  0  2  0  0  0  0  0  0  0  0  0
   -2.7605   -3.3870   -2.2863 C   0  0  0  0  0  0  0  0  0  0  0  0
   -1.6523   -3.9010   -2.4235 O   0  0  0  0  0  0  0  0  0  0  0  0
   -3.3180   -1.1459   -3.2635 C   0  0  0  0  0  0  0  0  0  0  0  0
   -0.8587   -1.7073   -1.8039 H   0  0  0  0  0  0  0  0  0  0  0  0
   -3.7479   -1.7821   -1.2456 H   0  0  0  0  0  0  0  0  0  0  0  0
   -2.5392   -1.2575   -4.0267 H   0  0  0  0  0  0  0  0  0  0  0  0
   -4.2564   -1.5119   -3.6929 H   0  0  0  0  0  0  0  0  0  0  0  0
   -3.4312   -0.0760   -3.0581 H   0  0  0  0  0  0  0  0  0  0  0  0
   -3.9674   -4.0595   -2.4172 N   0  0  0  0  0  0  0  0  0  0  0  0
   -4.0453   -5.4724   -2.7065 C   0  0  0  0  0  0  0  0  0  0  0  0
   -4.8378   -3.5575   -2.2685 H   0  0  0  0  0  0  0  0  0  0  0  0
   -4.1170   -5.6211   -3.7941 H   0  0  0  0  0  0  0  0  0  0  0  0
   -3.1434   -5.9745   -2.3266 H   0  0  0  0  0  0  0  0  0  0  0  0
   -4.9348   -5.8979   -2.2190 H   0  0  0  0  0  0  0  0  0  0  0  0
  1  3  1  0  0  0  0
  1  7  1  0  0  0  0
  1  2  2  0  0  0  0
 35 36  1  0  0  0  0
 36 44  1  0  0  0  0
 36 37  2  0  0  0  0
  8  9  1  0  0  0  0
  9 17  1  0  0  0  0
  9 10  2  0  0  0  0
 18 19  1  0  0  0  0
 19 34  1  0  0  0  0
 19 20  2  0  0  0  0
 35 38  1  0  0  0  0
  8 11  1  0  0  0  0
 44 45  1  0  0  0  0
 23 24  1  0  0  0  0
 21 22  1  0  0  0  0
 18 21  1  0  0  0  0
 22 23  1  0  0  0  0
 34 35  1  0  0  0  0
  7  8  1  0  0  0  0
 17 18  1  0  0  0  0
  3  4  1  0  0  0  0
  3  5  1  0  0  0  0
  3  6  1  0  0  0  0
 38 41  1  0  0  0  0
 38 42  1  0  0  0  0
 38 43  1  0  0  0  0
 11 14  1  0  0  0  0
 11 15  1  0  0  0  0
 11 16  1  0  0  0  0
 45 47  1  0  0  0  0
 45 48  1  0  0  0  0
 45 49  1  0  0  0  0
 24 31  1  0  0  0  0
 24 32  1  0  0  0  0
 24 33  1  0  0  0  0
 21 27  1  0  0  0  0
 21 28  1  0  0  0  0
 22 29  1  0  0  0  0
 22 30  1  0  0  0  0
 35 40  1  0  0  0  0
  8 13  1  0  0  0  0
 18 26  1  0  0  0  0
 44 46  1  0  0  0  0
  7 12  1  0  0  0  0
 34 39  1  0  0  0  0
 17 25  1  0  0  0  0
M  END
$$$$

  -OEChem-05262214473D

 49 48  0     1  0  0  0  0  0999 V2000
   -0.0561   -5.3799    2.6949 C   0  0  0  0  0  0  0  0  0  0  0  0
    0.7325   -5.0736    3.5815 O   0  0  0  0  0  0  0  0  0  0  0  0
   -1.0067   -6.5099    2.9135 C   0  0  0  0  0  0  0  0  0  0  0  0
   -0.5910   -7.4777    2.5899 H   0  0  0  0  0  0  0  0  0  0  0  0
   -1.2629   -6.6440    3.9767 H   0  0  0  0  0  0  0  0  0  0  0  0
   -1.9729   -6.4206    2.3918 H   0  0  0  0  0  0  0  0  0  0  0  0
   -0.1735   -4.7694    1.4571 N   0  0  0  0  0  0  0  0  0  0  0  0
    0.6439   -3.6603    1.0409 C   0  0  2  0  0  0  0  0  0  0  0  0
   -0.2788   -2.5625    0.5280 C   0  0  0  0  0  0  0  0  0  0  0  0
   -1.4197   -2.7791    0.1251 O   0  0  0  0  0  0  0  0  0  0  0  0
    1.6395   -4.0779   -0.0301 C   0  0  0  0  0  0  0  0  0  0  0  0
   -0.8741   -5.1235    0.8083 H   0  0  0  0  0  0  0  0  0  0  0  0
    1.1738   -3.3062    1.9318 H   0  0  0  0  0  0  0  0  0  0  0  0
    1.1270   -4.4358   -0.9305 H   0  0  0  0  0  0  0  0  0  0  0  0
    2.2797   -3.2400   -0.3251 H   0  0  0  0  0  0  0  0  0  0  0  0
    2.2827   -4.8880    0.3303 H   0  0  0  0  0  0  0  0  0  0  0  0
    0.3351   -1.3153    0.5316 N   0  0  0  0  0  0  0  0  0  0  0  0
   -0.3268   -0.1184    0.0807 C   0  0  2  0  0  0  0  0  0  0  0  0
   -1.7395   -0.4786   -0.3688 C   0  0  0  0  0  0  0  0  0  0  0  0
   -2.7321    0.1659   -0.0362 O   0  0  0  0  0  0  0  0  0  0  0  0
    0.4750    0.6124   -1.0050 C   0  0  0  0  0  0  0  0  0  0  0  0
    1.8069    1.1794   -0.5079 C   0  0  0  0  0  0  0  0  0  0  0  0
    1.5281    2.3968    0.8128 S   0  0  0  0  0  0  0  0  0  0  0  0
    0.7638    3.6943   -0.1862 C   0  0  0  0  0  0  0  0  0  0  0  0
    1.2790   -1.2290    0.9021 H   0  0  0  0  0  0  0  0  0  0  0  0
   -0.4066    0.5293    0.9623 H   0  0  0  0  0  0  0  0  0  0  0  0
   -0.1433    1.4296   -1.4002 H   0  0  0  0  0  0  0  0  0  0  0  0
    0.6616   -0.0779   -1.8376 H   0  0  0  0  0  0  0  0  0  0  0  0
    2.3464    1.6804   -1.3172 H   0  0  0  0  0  0  0  0  0  0  0  0
    2.4479    0.3877   -0.1090 H   0  0  0  0  0  0  0  0  0  0  0  0
    0.5106    4.5492    0.4454 H   0  0  0  0  0  0  0  0  0  0  0  0
   -0.1479    3.3141   -0.6537 H   0  0  0  0  0  0  0  0  0  0  0  0
    1.4568    4.0189   -0.9662 H   0  0  0  0  0  0  0  0  0  0  0  0
   -1.7646   -1.6206   -1.1564 N   0  0  0  0  0  0  0  0  0  0  0  0
   -2.9883   -2.1691   -1.6924 C   0  0  2  0  0  0  0  0  0  0  0  0
   -2.8996   -3.6872   -1.6084 C   0  0  0  0  0  0  0  0  0  0  0  0
   -1.8328   -4.2941   -1.5413 O   0  0  0  0  0  0  0  0  0  0  0  0
   -3.2162   -1.7164   -3.1262 C   0  0  0  0  0  0  0  0  0  0  0  0
   -0.8915   -2.0757   -1.4056 H   0  0  0  0  0  0  0  0  0  0  0  0
   -3.8019   -1.8142   -1.0504 H   0  0  0  0  0  0  0  0  0  0  0  0
   -2.4110   -2.0627   -3.7844 H   0  0  0  0  0  0  0  0  0  0  0  0
   -4.1585   -2.1099   -3.5215 H   0  0  0  0  0  0  0  0  0  0  0  0
   -3.2499   -0.6234   -3.1891 H   0  0  0  0  0  0  0  0  0  0  0  0
   -4.1502   -4.2867   -1.6606 N   0  0  0  0  0  0  0  0  0  0  0  0
   -4.3310   -5.7188   -1.6112 C   0  0  0  0  0  0  0  0  0  0  0  0
   -4.9821   -3.7050   -1.6969 H   0  0  0  0  0  0  0  0  0  0  0  0
   -4.3585   -6.1210   -2.6346 H   0  0  0  0  0  0  0  0  0  0  0  0
   -3.4952   -6.1749   -1.0604 H   0  0  0  0  0  0  0  0  0  0  0  0
   -5.2771   -5.9514   -1.1005 H   0  0  0  0  0  0  0  0  0  0  0  0
  1  3  1  0  0  0  0
  1  7  1  0  0  0  0
  1  2  2  0  0  0  0
 35 36  1  0  0  0  0
 36 44  1  0  0  0  0
 36 37  2  0  0  0  0
  8  9  1  0  0  0  0
  9 17  1  0  0  0  0
  9 10  2  0  0  0  0
 18 19  1  0  0  0  0
 19 34  1  0  0  0  0
 19 20  2  0  0  0  0
 35 38  1  0  0  0  0
  8 11  1  0  0  0  0
 44 45  1  0  0  0  0
 23 24  1  0  0  0  0
 21 22  1  0  0  0  0
 18 21  1  0  0  0  0
 22 23  1  0  0  0  0
 34 35  1  0  0  0  0
  7  8  1  0  0  0  0
 17 18  1  0  0  0  0
  3  4  1  0  0  0  0
  3  5  1  0  0  0  0
  3  6  1  0  0  0  0
 38 41  1  0  0  0  0
 38 42  1  0  0  0  0
 38 43  1  0  0  0  0
 11 14  1  0  0  0  0
 11 15  1  0  0  0  0
 11 16  1  0  0  0  0
 45 47  1  0  0  0  0
 45 48  1  0  0  0  0
 45 49  1  0  0  0  0
 24 31  1  0  0  0  0
 24 32  1  0  0  0  0
 24 33  1  0  0  0  0
 21 27  1  0  0  0  0
 21 28  1  0  0  0  0
 22 29  1  0  0  0  0
 22 30  1  0  0  0  0
 35 40  1  0  0  0  0
  8 13  1  0  0  0  0
 18 26  1  0  0  0  0
 44 46  1  0  0  0  0
  7 12  1  0  0  0  0
 34 39  1  0  0  0  0
 17 25  1  0  0  0  0
M  END
$$$$

  -OEChem-05262214473D

 49 48  0     1  0  0  0  0  0999 V2000
   -0.0561   -5.3799    2.6949 C   0  0  0  0  0  0  0  0  0  0  0  0
    0.7325   -5.0736    3.5815 O   0  0  0  0  0  0  0  0  0  0  0  0
   -1.0067   -6.5099    2.9135 C   0  0  0  0  0  0  0  0  0  0  0  0
   -0.5910   -7.4777    2.5899 H   0  0  0  0  0  0  0  0  0  0  0  0
   -1.2629   -6.6440    3.9767 H   0  0  0  0  0  0  0  0  0  0  0  0
   -1.9729   -6.4206    2.3918 H   0  0  0  0  0  0  0  0  0  0  0  0
   -0.1735   -4.7694    1.4571 N   0  0  0  0  0  0  0  0  0  0  0  0
    0.6439   -3.6603    1.0409 C   0  0  2  0  0  0  0  0  0  0  0  0
   -0.2788   -2.5625    0.5280 C   0  0  0  0  0  0  0  0  0  0  0  0
   -1.4197   -2.7791    0.1251 O   0  0  0  0  0  0  0  0  0  0  0  0
    1.6395   -4.0779   -0.0301 C   0  0  0  0  0  0  0  0  0  0  0  0
   -0.8741   -5.1235    0.8083 H   0  0  0  0  0  0  0  0  0  0  0  0
    1.1738   -3.3062    1.9318 H   0  0  0  0  0  0  0  0  0  0  0  0
    1.1270   -4.4358   -0.9305 H   0  0  0  0  0  0  0  0  0  0  0  0
    2.2797   -3.2400   -0.3251 H   0  0  0  0  0  0  0  0  0  0  0  0
    2.2827   -4.8880    0.3303 H   0  0  0  0  0  0  0  0  0  0  0  0
    0.3351   -1.3153    0.5316 N   0  0  0  0  0  0  0  0  0  0  0  0
   -0.3268   -0.1184    0.0807 C   0  0  2  0  0  0  0  0  0  0  0  0
   -1.7395   -0.4786   -0.3688 C   0  0  0  0  0  0  0  0  0  0  0  0
   -2.6905    0.2940   -0.2694 O   0  0  0  0  0  0  0  0  0  0  0  0
    0.4750    0.6124   -1.0050 C   0  0  0  0  0  0  0  0  0  0  0  0
    1.8069    1.1794   -0.5079 C   0  0  0  0  0  0  0  0  0  0  0  0
    1.5281    2.3968    0.8128 S   0  0  0  0  0  0  0  0  0  0  0  0
    0.7638    3.6943   -0.1862 C   0  0  0  0  0  0  0  0  0  0  0  0
    1.2790   -1.2290    0.9021 H   0  0  0  0  0  0  0  0  0  0  0  0
   -0.4066    0.5293    0.9623 H   0  0  0  0  0  0  0  0  0  0  0  0
   -0.1433    1.4296   -1.4002 H   0  0  0  0  0  0  0  0  0  0  0  0
    0.6616   -0.0779   -1.8376 H   0  0  0  0  0  0  0  0  0  0  0  0
    2.3464    1.6804   -1.3172 H   0  0  0  0  0  0  0  0  0  0  0  0
    2.4479    0.3877   -0.1090 H   0  0  0  0  0  0  0  0  0  0  0  0
    0.5106    4.5492    0.4454 H   0  0  0  0  0  0  0  0  0  0  0  0
   -0.1479    3.3141   -0.6537 H   0  0  0  0  0  0  0  0  0  0  0  0
    1.4568    4.0189   -0.9662 H   0  0  0  0  0  0  0  0  0  0  0  0
   -1.8193   -1.7728   -0.8626 N   0  0  0  0  0  0  0  0  0  0  0  0
   -3.0552   -2.3491   -1.3380 C   0  0  2  0  0  0  0  0  0  0  0  0
   -3.0984   -3.8042   -0.8901 C   0  0  0  0  0  0  0  0  0  0  0  0
   -2.0910   -4.4487   -0.6060 O   0  0  0  0  0  0  0  0  0  0  0  0
   -3.1698   -2.2424   -2.8506 C   0  0  0  0  0  0  0  0  0  0  0  0
   -0.9756   -2.3337   -0.9347 H   0  0  0  0  0  0  0  0  0  0  0  0
   -3.8683   -1.7942   -0.8575 H   0  0  0  0  0  0  0  0  0  0  0  0
   -2.3634   -2.7922   -3.3495 H   0  0  0  0  0  0  0  0  0  0  0  0
   -4.1200   -2.6540   -3.2066 H   0  0  0  0  0  0  0  0  0  0  0  0
   -3.1086   -1.1974   -3.1733 H   0  0  0  0  0  0  0  0  0  0  0  0
   -4.3904   -4.3110   -0.8866 N   0  0  0  0  0  0  0  0  0  0  0  0
   -4.6927   -5.6725   -0.5116 C   0  0  0  0  0  0  0  0  0  0  0  0
   -5.1677   -3.6995   -1.1183 H   0  0  0  0  0  0  0  0  0  0  0  0
   -4.7007   -6.3076   -1.4097 H   0  0  0  0  0  0  0  0  0  0  0  0
   -3.9277   -6.0382    0.1892 H   0  0  0  0  0  0  0  0  0  0  0  0
   -5.6802   -5.7089   -0.0281 H   0  0  0  0  0  0  0  0  0  0  0  0
  1  3  1  0  0  0  0
  1  7  1  0  0  0  0
  1  2  2  0  0  0  0
 35 36  1  0  0  0  0
 36 44  1  0  0  0  0
 36 37  2  0  0  0  0
  8  9  1  0  0  0  0
  9 17  1  0  0  0  0
  9 10  2  0  0  0  0
 18 19  1  0  0  0  0
 19 34  1  0  0  0  0
 19 20  2  0  0  0  0
 35 38  1  0  0  0  0
  8 11  1  0  0  0  0
 44 45  1  0  0  0  0
 23 24  1  0  0  0  0
 21 22  1  0  0  0  0
 18 21  1  0  0  0  0
 22 23  1  0  0  0  0
 34 35  1  0  0  0  0
  7  8  1  0  0  0  0
 17 18  1  0  0  0  0
  3  4  1  0  0  0  0
  3  5  1  0  0  0  0
  3  6  1  0  0  0  0
 38 41  1  0  0  0  0
 38 42  1  0  0  0  0
 38 43  1  0  0  0  0
 11 14  1  0  0  0  0
 11 15  1  0  0  0  0
 11 16  1  0  0  0  0
 45 47  1  0  0  0  0
 45 48  1  0  0  0  0
 45 49  1  0  0  0  0
 24 31  1  0  0  0  0
 24 32  1  0  0  0  0
 24 33  1  0  0  0  0
 21 27  1  0  0  0  0
 21 28  1  0  0  0  0
 22 29  1  0  0  0  0
 22 30  1  0  0  0  0
 35 40  1  0  0  0  0
  8 13  1  0  0  0  0
 18 26  1  0  0  0  0
 44 46  1  0  0  0  0
  7 12  1  0  0  0  0
 34 39  1  0  0  0  0
 17 25  1  0  0  0  0
M  END
$$$$

  -OEChem-05262214473D

 49 48  0     1  0  0  0  0  0999 V2000
   -0.0561   -5.3799    2.6949 C   0  0  0  0  0  0  0  0  0  0  0  0
    0.7325   -5.0736    3.5815 O   0  0  0  0  0  0  0  0  0  0  0  0
   -1.0067   -6.5099    2.9135 C   0  0  0  0  0  0  0  0  0  0  0  0
   -0.5910   -7.4777    2.5899 H   0  0  0  0  0  0  0  0  0  0  0  0
   -1.2629   -6.6440    3.9767 H   0  0  0  0  0  0  0  0  0  0  0  0
   -1.9729   -6.4206    2.3918 H   0  0  0  0  0  0  0  0  0  0  0  0
   -0.1735   -4.7694    1.4571 N   0  0  0  0  0  0  0  0  0  0  0  0
    0.6439   -3.6603    1.0409 C   0  0  2  0  0  0  0  0  0  0  0  0
   -0.2788   -2.5625    0.5280 C   0  0  0  0  0  0  0  0  0  0  0  0
   -1.4197   -2.7791    0.1251 O   0  0  0  0  0  0  0  0  0  0  0  0
    1.6395   -4.0779   -0.0301 C   0  0  0  0  0  0  0  0  0  0  0  0
   -0.8741   -5.1235    0.8083 H   0  0  0  0  0  0  0  0  0  0  0  0
    1.1738   -3.3062    1.9318 H   0  0  0  0  0  0  0  0  0  0  0  0
    1.1270   -4.4358   -0.9305 H   0  0  0  0  0  0  0  0  0  0  0  0
    2.2797   -3.2400   -0.3251 H   0  0  0  0  0  0  0  0  0  0  0  0
    2.2827   -4.8880    0.3303 H   0  0  0  0  0  0  0  0  0  0  0  0
    0.3351   -1.3153    0.5316 N   0  0  0  0  0  0  0  0  0  0  0  0
   -0.3268   -0.1184    0.0807 C   0  0  2  0  0  0  0  0  0  0  0  0
   -1.7395   -0.4786   -0.3688 C   0  0  0  0  0  0  0  0  0  0  0  0
   -2.6264    0.3586   -0.5228 O   0  0  0  0  0  0  0  0  0  0  0  0
    0.4750    0.6124   -1.0050 C   0  0  0  0  0  0  0  0  0  0  0  0
    1.8069    1.1794   -0.5079 C   0  0  0  0  0  0  0  0  0  0  0  0
    1.5281    2.3968    0.8128 S   0  0  0  0  0  0  0  0  0  0  0  0
    0.7638    3.6943   -0.1862 C   0  0  0  0  0  0  0  0  0  0  0  0
    1.2790   -1.2290    0.9021 H   0  0  0  0  0  0  0  0  0  0  0  0
   -0.4066    0.5293    0.9623 H   0  0  0  0  0  0  0  0  0  0  0  0
   -0.1433    1.4296   -1.4002 H   0  0  0  0  0  0  0  0  0  0  0  0
    0.6616   -0.0779   -1.8376 H   0  0  0  0  0  0  0  0  0  0  0  0
    2.3464    1.6804   -1.3172 H   0  0  0  0  0  0  0  0  0  0  0  0
    2.4479    0.3877   -0.1090 H   0  0  0  0  0  0  0  0  0  0  0  0
    0.5106    4.5492    0.4454 H   0  0  0  0  0  0  0  0  0  0  0  0
   -0.1479    3.3141   -0.6537 H   0  0  0  0  0  0  0  0  0  0  0  0
    1.4568    4.0189   -0.9662 H   0  0  0  0  0  0  0  0  0  0  0  0
   -1.9017   -1.8452   -0.5458 N   0  0  0  0  0  0  0  0  0  0  0  0
   -3.1552   -2.4330   -0.9566 C   0  0  2  0  0  0  0  0  0  0  0  0
   -3.3432   -3.7298   -0.1805 C   0  0  0  0  0  0  0  0  0  0  0  0
   -2.4093   -4.3542    0.3187 O   0  0  0  0  0  0  0  0  0  0  0  0
   -3.1819   -2.6879   -2.4556 C   0  0  0  0  0  0  0  0  0  0  0  0
   -1.1053   -2.4635   -0.4231 H   0  0  0  0  0  0  0  0  0  0  0  0
   -3.9428   -1.7237   -0.6800 H   0  0  0  0  0  0  0  0  0  0  0  0
   -2.3996   -3.3963   -2.7517 H   0  0  0  0  0  0  0  0  0  0  0  0
   -4.1435   -3.1070   -2.7697 H   0  0  0  0  0  0  0  0  0  0  0  0
   -3.0168   -1.7588   -3.0119 H   0  0  0  0  0  0  0  0  0  0  0  0
   -4.6715   -4.1305   -0.1477 N   0  0  0  0  0  0  0  0  0  0  0  0
   -5.1058   -5.3368    0.5174 C   0  0  0  0  0  0  0  0  0  0  0  0
   -5.3818   -3.5413   -0.5721 H   0  0  0  0  0  0  0  0  0  0  0  0
   -5.1204   -6.1682   -0.2026 H   0  0  0  0  0  0  0  0  0  0  0  0
   -4.4114   -5.5737    1.3370 H   0  0  0  0  0  0  0  0  0  0  0  0
   -6.1165   -5.1870    0.9249 H   0  0  0  0  0  0  0  0  0  0  0  0
  1  3  1  0  0  0  0
  1  7  1  0  0  0  0
  1  2  2  0  0  0  0
 35 36  1  0  0  0  0
 36 44  1  0  0  0  0
 36 37  2  0  0  0  0
  8  9  1  0  0  0  0
  9 17  1  0  0  0  0
  9 10  2  0  0  0  0
 18 19  1  0  0  0  0
 19 34  1  0  0  0  0
 19 20  2  0  0  0  0
 35 38  1  0  0  0  0
  8 11  1  0  0  0  0
 44 45  1  0  0  0  0
 23 24  1  0  0  0  0
 21 22  1  0  0  0  0
 18 21  1  0  0  0  0
 22 23  1  0  0  0  0
 34 35  1  0  0  0  0
  7  8  1  0  0  0  0
 17 18  1  0  0  0  0
  3  4  1  0  0  0  0
  3  5  1  0  0  0  0
  3  6  1  0  0  0  0
 38 41  1  0  0  0  0
 38 42  1  0  0  0  0
 38 43  1  0  0  0  0
 11 14  1  0  0  0  0
 11 15  1  0  0  0  0
 11 16  1  0  0  0  0
 45 47  1  0  0  0  0
 45 48  1  0  0  0  0
 45 49  1  0  0  0  0
 24 31  1  0  0  0  0
 24 32  1  0  0  0  0
 24 33  1  0  0  0  0
 21 27  1  0  0  0  0
 21 28  1  0  0  0  0
 22 29  1  0  0  0  0
 22 30  1  0  0  0  0
 35 40  1  0  0  0  0
  8 13  1  0  0  0  0
 18 26  1  0  0  0  0
 44 46  1  0  0  0  0
  7 12  1  0  0  0  0
 34 39  1  0  0  0  0
 17 25  1  0  0  0  0
M  END
$$$$

  -OEChem-05262214473D

 49 48  0     1  0  0  0  0  0999 V2000
   -0.0561   -5.3799    2.6949 C   0  0  0  0  0  0  0  0  0  0  0  0
    0.7325   -5.0736    3.5815 O   0  0  0  0  0  0  0  0  0  0  0  0
   -1.0067   -6.5099    2.9135 C   0  0  0  0  0  0  0  0  0  0  0  0
   -0.5910   -7.4777    2.5899 H   0  0  0  0  0  0  0  0  0  0  0  0
   -1.2629   -6.6440    3.9767 H   0  0  0  0  0  0  0  0  0  0  0  0
   -1.9729   -6.4206    2.3918 H   0  0  0  0  0  0  0  0  0  0  0  0
   -0.1735   -4.7694    1.4571 N   0  0  0  0  0  0  0  0  0  0  0  0
    0.6439   -3.6603    1.0409 C   0  0  2  0  0  0  0  0  0  0  0  0
   -0.2788   -2.5625    0.5280 C   0  0  0  0  0  0  0  0  0  0  0  0
   -1.4197   -2.7791    0.1251 O   0  0  0  0  0  0  0  0  0  0  0  0
    1.6395   -4.0779   -0.0301 C   0  0  0  0  0  0  0  0  0  0  0  0
   -0.8741   -5.1235    0.8083 H   0  0  0  0  0  0  0  0  0  0  0  0
    1.1738   -3.3062    1.9318 H   0  0  0  0  0  0  0  0  0  0  0  0
    1.1270   -4.4358   -0.9305 H   0  0  0  0  0  0  0  0  0  0  0  0
    2.2797   -3.2400   -0.3251 H   0  0  0  0  0  0  0  0  0  0  0  0
    2.2827   -4.8880    0.3303 H   0  0  0  0  0  0  0  0  0  0  0  0
    0.3351   -1.3153    0.5316 N   0  0  0  0  0  0  0  0  0  0  0  0
   -0.3268   -0.1184    0.0807 C   0  0  2  0  0  0  0  0  0  0  0  0
   -1.7395   -0.4786   -0.3688 C   0  0  0  0  0  0  0  0  0  0  0  0
   -2.5440    0.3555   -0.7791 O   0  0  0  0  0  0  0  0  0  0  0  0
    0.4750    0.6124   -1.0050 C   0  0  0  0  0  0  0  0  0  0  0  0
    1.8069    1.1794   -0.5079 C   0  0  0  0  0  0  0  0  0  0  0  0
    1.5281    2.3968    0.8128 S   0  0  0  0  0  0  0  0  0  0  0  0
    0.7638    3.6943   -0.1862 C   0  0  0  0  0  0  0  0  0  0  0  0
    1.2790   -1.2290    0.9021 H   0  0  0  0  0  0  0  0  0  0  0  0
   -0.4066    0.5293    0.9623 H   0  0  0  0  0  0  0  0  0  0  0  0
   -0.1433    1.4296   -1.4002 H   0  0  0  0  0  0  0  0  0  0  0  0
    0.6616   -0.0779   -1.8376 H   0  0  0  0  0  0  0  0  0  0  0  0
    2.3464    1.6804   -1.3172 H   0  0  0  0  0  0  0  0  0  0  0  0
    2.4479    0.3877   -0.1090 H   0  0  0  0  0  0  0  0  0  0  0  0
    0.5106    4.5492    0.4454 H   0  0  0  0  0  0  0  0  0  0  0  0
   -0.1479    3.3141   -0.6537 H   0  0  0  0  0  0  0  0  0  0  0  0
    1.4568    4.0189   -0.9662 H   0  0  0  0  0  0  0  0  0  0  0  0
   -2.0061   -1.8329   -0.2274 N   0  0  0  0  0  0  0  0  0  0  0  0
   -3.2814   -2.4149   -0.5742 C   0  0  2  0  0  0  0  0  0  0  0  0
   -3.6173   -3.4693    0.4722 C   0  0  0  0  0  0  0  0  0  0  0  0
   -2.7662   -4.0170    1.1698 O   0  0  0  0  0  0  0  0  0  0  0  0
   -3.2517   -3.0226   -1.9680 C   0  0  0  0  0  0  0  0  0  0  0  0
   -1.2717   -2.4564    0.0942 H   0  0  0  0  0  0  0  0  0  0  0  0
   -4.0202   -1.6073   -0.5300 H   0  0  0  0  0  0  0  0  0  0  0  0
   -2.5172   -3.8337   -2.0317 H   0  0  0  0  0  0  0  0  0  0  0  0
   -4.2274   -3.4381   -2.2406 H   0  0  0  0  0  0  0  0  0  0  0  0
   -2.9808   -2.2694   -2.7158 H   0  0  0  0  0  0  0  0  0  0  0  0
   -4.9745   -3.7578    0.5055 N   0  0  0  0  0  0  0  0  0  0  0  0
   -5.5421   -4.7343    1.4056 C   0  0  0  0  0  0  0  0  0  0  0  0
   -5.6100   -3.2413   -0.0955 H   0  0  0  0  0  0  0  0  0  0  0  0
   -5.5889   -5.7123    0.9043 H   0  0  0  0  0  0  0  0  0  0  0  0
   -4.9134   -4.8130    2.3048 H   0  0  0  0  0  0  0  0  0  0  0  0
   -6.5565   -4.4212    1.6937 H   0  0  0  0  0  0  0  0  0  0  0  0
  1  3  1  0  0  0  0
  1  7  1  0  0  0  0
  1  2  2  0  0  0  0
 35 36  1  0  0  0  0
 36 44  1  0  0  0  0
 36 37  2  0  0  0  0
  8  9  1  0  0  0  0
  9 17  1  0  0  0  0
  9 10  2  0  0  0  0
 18 19  1  0  0  0  0
 19 34  1  0  0  0  0
 19 20  2  0  0  0  0
 35 38  1  0  0  0  0
  8 11  1  0  0  0  0
 44 45  1  0  0  0  0
 23 24  1  0  0  0  0
 21 22  1  0  0  0  0
 18 21  1  0  0  0  0
 22 23  1  0  0  0  0
 34 35  1  0  0  0  0
  7  8  1  0  0  0  0
 17 18  1  0  0  0  0
  3  4  1  0  0  0  0
  3  5  1  0  0  0  0
  3  6  1  0  0  0  0
 38 41  1  0  0  0  0
 38 42  1  0  0  0  0
 38 43  1  0  0  0  0
 11 14  1  0  0  0  0
 11 15  1  0  0  0  0
 11 16  1  0  0  0  0
 45 47  1  0  0  0  0
 45 48  1  0  0  0  0
 45 49  1  0  0  0  0
 24 31  1  0  0  0  0
 24 32  1  0  0  0  0
 24 33  1  0  0  0  0
 21 27  1  0  0  0  0
 21 28  1  0  0  0  0
 22 29  1  0  0  0  0
 22 30  1  0  0  0  0
 35 40  1  0  0  0  0
  8 13  1  0  0  0  0
 18 26  1  0  0  0  0
 44 46  1  0  0  0  0
  7 12  1  0  0  0  0
 34 39  1  0  0  0  0
 17 25  1  0  0  0  0
M  END
$$$$

  -OEChem-05262214473D

 49 48  0     1  0  0  0  0  0999 V2000
   -0.0561   -5.3799    2.6949 C   0  0  0  0  0  0  0  0  0  0  0  0
    0.7325   -5.0736    3.5815 O   0  0  0  0  0  0  0  0  0  0  0  0
   -1.0067   -6.5099    2.9135 C   0  0  0  0  0  0  0  0  0  0  0  0
   -0.5910   -7.4777    2.5899 H   0  0  0  0  0  0  0  0  0  0  0  0
   -1.2629   -6.6440    3.9767 H   0  0  0  0  0  0  0  0  0  0  0  0
   -1.9729   -6.4206    2.3918 H   0  0  0  0  0  0  0  0  0  0  0  0
   -0.1735   -4.7694    1.4571 N   0  0  0  0  0  0  0  0  0  0  0  0
    0.6439   -3.6603    1.0409 C   0  0  2  0  0  0  0  0  0  0  0  0
   -0.2788   -2.5625    0.5280 C   0  0  0  0  0  0  0  0  0  0  0  0
   -1.4197   -2.7791    0.1251 O   0  0  0  0  0  0  0  0  0  0  0  0
    1.6395   -4.0779   -0.0301 C   0  0  0  0  0  0  0  0  0  0  0  0
   -0.8741   -5.1235    0.8083 H   0  0  0  0  0  0  0  0  0  0  0  0
    1.1738   -3.3062    1.9318 H   0  0  0  0  0  0  0  0  0  0  0  0
    1.1270   -4.4358   -0.9305 H   0  0  0  0  0  0  0  0  0  0  0  0
    2.2797   -3.2400   -0.3251 H   0  0  0  0  0  0  0  0  0  0  0  0
    2.2827   -4.8880    0.3303 H   0  0  0  0  0  0  0  0  0  0  0  0
    0.3351   -1.3153    0.5316 N   0  0  0  0  0  0  0  0  0  0  0  0
   -0.3268   -0.1184    0.0807 C   0  0  2  0  0  0  0  0  0  0  0  0
   -1.7395   -0.4786   -0.3688 C   0  0  0  0  0  0  0  0  0  0  0  0
   -2.4490    0.2847   -1.0209 O   0  0  0  0  0  0  0  0  0  0  0  0
    0.4750    0.6124   -1.0050 C   0  0  0  0  0  0  0  0  0  0  0  0
    1.8069    1.1794   -0.5079 C   0  0  0  0  0  0  0  0  0  0  0  0
    1.5281    2.3968    0.8128 S   0  0  0  0  0  0  0  0  0  0  0  0
    0.7638    3.6943   -0.1862 C   0  0  0  0  0  0  0  0  0  0  0  0
    1.2790   -1.2290    0.9021 H   0  0  0  0  0  0  0  0  0  0  0  0
   -0.4066    0.5293    0.9623 H   0  0  0  0  0  0  0  0  0  0  0  0
   -0.1433    1.4296   -1.4002 H   0  0  0  0  0  0  0  0  0  0  0  0
    0.6616   -0.0779   -1.8376 H   0  0  0  0  0  0  0  0  0  0  0  0
    2.3464    1.6804   -1.3172 H   0  0  0  0  0  0  0  0  0  0  0  0
    2.4479    0.3877   -0.1090 H   0  0  0  0  0  0  0  0  0  0  0  0
    0.5106    4.5492    0.4454 H   0  0  0  0  0  0  0  0  0  0  0  0
   -0.1479    3.3141   -0.6537 H   0  0  0  0  0  0  0  0  0  0  0  0
    1.4568    4.0189   -0.9662 H   0  0  0  0  0  0  0  0  0  0  0  0
   -2.1255   -1.7367    0.0707 N   0  0  0  0  0  0  0  0  0  0  0  0
   -3.4254   -2.2962   -0.2169 C   0  0  2  0  0  0  0  0  0  0  0  0
   -3.9021   -3.0403    1.0235 C   0  0  0  0  0  0  0  0  0  0  0  0
   -3.1371   -3.4602    1.8892 O   0  0  0  0  0  0  0  0  0  0  0  0
   -3.3745   -3.2237   -1.4210 C   0  0  0  0  0  0  0  0  0  0  0  0
   -1.4636   -2.3129    0.5821 H   0  0  0  0  0  0  0  0  0  0  0  0
   -4.0953   -1.4530   -0.4177 H   0  0  0  0  0  0  0  0  0  0  0  0
   -2.7081   -4.0747   -1.2386 H   0  0  0  0  0  0  0  0  0  0  0  0
   -4.3661   -3.6247   -1.6552 H   0  0  0  0  0  0  0  0  0  0  0  0
   -3.0031   -2.6944   -2.3052 H   0  0  0  0  0  0  0  0  0  0  0  0
   -5.2786   -3.2180    1.0287 N   0  0  0  0  0  0  0  0  0  0  0  0
   -5.9718   -3.9062    2.0925 C   0  0  0  0  0  0  0  0  0  0  0  0
   -5.8366   -2.8199    0.2791 H   0  0  0  0  0  0  0  0  0  0  0  0
   -6.0743   -4.9709    1.8355 H   0  0  0  0  0  0  0  0  0  0  0  0
   -5.3993   -3.8081    3.0267 H   0  0  0  0  0  0  0  0  0  0  0  0
   -6.9700   -3.4637    2.2259 H   0  0  0  0  0  0  0  0  0  0  0  0
  1  3  1  0  0  0  0
  1  7  1  0  0  0  0
  1  2  2  0  0  0  0
 35 36  1  0  0  0  0
 36 44  1  0  0  0  0
 36 37  2  0  0  0  0
  8  9  1  0  0  0  0
  9 17  1  0  0  0  0
  9 10  2  0  0  0  0
 18 19  1  0  0  0  0
 19 34  1  0  0  0  0
 19 20  2  0  0  0  0
 35 38  1  0  0  0  0
  8 11  1  0  0  0  0
 44 45  1  0  0  0  0
 23 24  1  0  0  0  0
 21 22  1  0  0  0  0
 18 21  1  0  0  0  0
 22 23  1  0  0  0  0
 34 35  1  0  0  0  0
  7  8  1  0  0  0  0
 17 18  1  0  0  0  0
  3  4  1  0  0  0  0
  3  5  1  0  0  0  0
  3  6  1  0  0  0  0
 38 41  1  0  0  0  0
 38 42  1  0  0  0  0
 38 43  1  0  0  0  0
 11 14  1  0  0  0  0
 11 15  1  0  0  0  0
 11 16  1  0  0  0  0
 45 47  1  0  0  0  0
 45 48  1  0  0  0  0
 45 49  1  0  0  0  0
 24 31  1  0  0  0  0
 24 32  1  0  0  0  0
 24 33  1  0  0  0  0
 21 27  1  0  0  0  0
 21 28  1  0  0  0  0
 22 29  1  0  0  0  0
 22 30  1  0  0  0  0
 35 40  1  0  0  0  0
  8 13  1  0  0  0  0
 18 26  1  0  0  0  0
 44 46  1  0  0  0  0
  7 12  1  0  0  0  0
 34 39  1  0  0  0  0
 17 25  1  0  0  0  0
M  END
$$$$

  -OEChem-05262214473D

 49 48  0     1  0  0  0  0  0999 V2000
   -0.0561   -5.3799    2.6949 C   0  0  0  0  0  0  0  0  0  0  0  0
    0.7325   -5.0736    3.5815 O   0  0  0  0  0  0  0  0  0  0  0  0
   -1.0067   -6.5099    2.9135 C   0  0  0  0  0  0  0  0  0  0  0  0
   -0.5910   -7.4777    2.5899 H   0  0  0  0  0  0  0  0  0  0  0  0
   -1.2629   -6.6440    3.9767 H   0  0  0  0  0  0  0  0  0  0  0  0
   -1.9729   -6.4206    2.3918 H   0  0  0  0  0  0  0  0  0  0  0  0
   -0.1735   -4.7694    1.4571 N   0  0  0  0  0  0  0  0  0  0  0  0
    0.6439   -3.6603    1.0409 C   0  0  2  0  0  0  0  0  0  0  0  0
   -0.2788   -2.5625    0.5280 C   0  0  0  0  0  0  0  0  0  0  0  0
   -1.4197   -2.7791    0.1251 O   0  0  0  0  0  0  0  0  0  0  0  0
    1.6395   -4.0779   -0.0301 C   0  0  0  0  0  0  0  0  0  0  0  0
   -0.8741   -5.1235    0.8083 H   0  0  0  0  0  0  0  0  0  0  0  0
    1.1738   -3.3062    1.9318 H   0  0  0  0  0  0  0  0  0  0  0  0
    1.1270   -4.4358   -0.9305 H   0  0  0  0  0  0  0  0  0  0  0  0
    2.2797   -3.2400   -0.3251 H   0  0  0  0  0  0  0  0  0  0  0  0
    2.2827   -4.8880    0.3303 H   0  0  0  0  0  0  0  0  0  0  0  0
    0.3351   -1.3153    0.5316 N   0  0  0  0  0  0  0  0  0  0  0  0
   -0.3268   -0.1184    0.0807 C   0  0  2  0  0  0  0  0  0  0  0  0
   -1.7395   -0.4786   -0.3688 C   0  0  0  0  0  0  0  0  0  0  0  0
   -2.3479    0.1511   -1.2316 O   0  0  0  0  0  0  0  0  0  0  0  0
    0.4750    0.6124   -1.0050 C   0  0  0  0  0  0  0  0  0  0  0  0
    1.8069    1.1794   -0.5079 C   0  0  0  0  0  0  0  0  0  0  0  0
    1.5281    2.3968    0.8128 S   0  0  0  0  0  0  0  0  0  0  0  0
    0.7638    3.6943   -0.1862 C   0  0  0  0  0  0  0  0  0  0  0  0
    1.2790   -1.2290    0.9021 H   0  0  0  0  0  0  0  0  0  0  0  0
   -0.4066    0.5293    0.9623 H   0  0  0  0  0  0  0  0  0  0  0  0
   -0.1433    1.4296   -1.4002 H   0  0  0  0  0  0  0  0  0  0  0  0
    0.6616   -0.0779   -1.8376 H   0  0  0  0  0  0  0  0  0  0  0  0
    2.3464    1.6804   -1.3172 H   0  0  0  0  0  0  0  0  0  0  0  0
    2.4479    0.3877   -0.1090 H   0  0  0  0  0  0  0  0  0  0  0  0
    0.5106    4.5492    0.4454 H   0  0  0  0  0  0  0  0  0  0  0  0
   -0.1479    3.3141   -0.6537 H   0  0  0  0  0  0  0  0  0  0  0  0
    1.4568    4.0189   -0.9662 H   0  0  0  0  0  0  0  0  0  0  0  0
   -2.2518   -1.5633    0.3284 N   0  0  0  0  0  0  0  0  0  0  0  0
   -3.5773   -2.0850    0.0910 C   0  0  2  0  0  0  0  0  0  0  0  0
   -4.1782   -2.4720    1.4358 C   0  0  0  0  0  0  0  0  0  0  0  0
   -3.4969   -2.7215    2.4281 O   0  0  0  0  0  0  0  0  0  0  0  0
   -3.5418   -3.2775   -0.8520 C   0  0  0  0  0  0  0  0  0  0  0  0
   -1.6677   -2.0427    1.0072 H   0  0  0  0  0  0  0  0  0  0  0  0
   -4.1629   -1.2714   -0.3508 H   0  0  0  0  0  0  0  0  0  0  0  0
   -2.9594   -4.1028   -0.4264 H   0  0  0  0  0  0  0  0  0  0  0  0
   -4.5501   -3.6541   -1.0536 H   0  0  0  0  0  0  0  0  0  0  0  0
   -3.0821   -3.0049   -1.8081 H   0  0  0  0  0  0  0  0  0  0  0  0
   -5.5631   -2.5481    1.3860 N   0  0  0  0  0  0  0  0  0  0  0  0
   -6.3657   -2.9090    2.5313 C   0  0  0  0  0  0  0  0  0  0  0  0
   -6.0463   -2.3058    0.5260 H   0  0  0  0  0  0  0  0  0  0  0  0
   -6.5435   -3.9945    2.5277 H   0  0  0  0  0  0  0  0  0  0  0  0
   -5.8362   -2.6273    3.4534 H   0  0  0  0  0  0  0  0  0  0  0  0
   -7.3289   -2.3797    2.4853 H   0  0  0  0  0  0  0  0  0  0  0  0
  1  3  1  0  0  0  0
  1  7  1  0  0  0  0
  1  2  2  0  0  0  0
 35 36  1  0  0  0  0
 36 44  1  0  0  0  0
 36 37  2  0  0  0  0
  8  9  1  0  0  0  0
  9 17  1  0  0  0  0
  9 10  2  0  0  0  0
 18 19  1  0  0  0  0
 19 34  1  0  0  0  0
 19 20  2  0  0  0  0
 35 38  1  0  0  0  0
  8 11  1  0  0  0  0
 44 45  1  0  0  0  0
 23 24  1  0  0  0  0
 21 22  1  0  0  0  0
 18 21  1  0  0  0  0
 22 23  1  0  0  0  0
 34 35  1  0  0  0  0
  7  8  1  0  0  0  0
 17 18  1  0  0  0  0
  3  4  1  0  0  0  0
  3  5  1  0  0  0  0
  3  6  1  0  0  0  0
 38 41  1  0  0  0  0
 38 42  1  0  0  0  0
 38 43  1  0  0  0  0
 11 14  1  0  0  0  0
 11 15  1  0  0  0  0
 11 16  1  0  0  0  0
 45 47  1  0  0  0  0
 45 48  1  0  0  0  0
 45 49  1  0  0  0  0
 24 31  1  0  0  0  0
 24 32  1  0  0  0  0
 24 33  1  0  0  0  0
 21 27  1  0  0  0  0
 21 28  1  0  0  0  0
 22 29  1  0  0  0  0
 22 30  1  0  0  0  0
 35 40  1  0  0  0  0
  8 13  1  0  0  0  0
 18 26  1  0  0  0  0
 44 46  1  0  0  0  0
  7 12  1  0  0  0  0
 34 39  1  0  0  0  0
 17 25  1  0  0  0  0
M  END
$$$$

  -OEChem-05262214473D

 49 48  0     1  0  0  0  0  0999 V2000
   -0.0561   -5.3799    2.6949 C   0  0  0  0  0  0  0  0  0  0  0  0
    0.7325   -5.0736    3.5815 O   0  0  0  0  0  0  0  0  0  0  0  0
   -1.0067   -6.5099    2.9135 C   0  0  0  0  0  0  0  0  0  0  0  0
   -0.5910   -7.4777    2.5899 H   0  0  0  0  0  0  0  0  0  0  0  0
   -1.2629   -6.6440    3.9767 H   0  0  0  0  0  0  0  0  0  0  0  0
   -1.9729   -6.4206    2.3918 H   0  0  0  0  0  0  0  0  0  0  0  0
   -0.1735   -4.7694    1.4571 N   0  0  0  0  0  0  0  0  0  0  0  0
    0.6439   -3.6603    1.0409 C   0  0  2  0  0  0  0  0  0  0  0  0
   -0.2788   -2.5625    0.5280 C   0  0  0  0  0  0  0  0  0  0  0  0
   -1.4197   -2.7791    0.1251 O   0  0  0  0  0  0  0  0  0  0  0  0
    1.6395   -4.0779   -0.0301 C   0  0  0  0  0  0  0  0  0  0  0  0
   -0.8741   -5.1235    0.8083 H   0  0  0  0  0  0  0  0  0  0  0  0
    1.1738   -3.3062    1.9318 H   0  0  0  0  0  0  0  0  0  0  0  0
    1.1270   -4.4358   -0.9305 H   0  0  0  0  0  0  0  0  0  0  0  0
    2.2797   -3.2400   -0.3251 H   0  0  0  0  0  0  0  0  0  0  0  0
    2.2827   -4.8880    0.3303 H   0  0  0  0  0  0  0  0  0  0  0  0
    0.3351   -1.3153    0.5316 N   0  0  0  0  0  0  0  0  0  0  0  0
   -0.3268   -0.1184    0.0807 C   0  0  2  0  0  0  0  0  0  0  0  0
   -1.7395   -0.4786   -0.3688 C   0  0  0  0  0  0  0  0  0  0  0  0
   -2.2475   -0.0361   -1.3971 O   0  0  0  0  0  0  0  0  0  0  0  0
    0.4750    0.6124   -1.0050 C   0  0  0  0  0  0  0  0  0  0  0  0
    1.8069    1.1794   -0.5079 C   0  0  0  0  0  0  0  0  0  0  0  0
    1.5281    2.3968    0.8128 S   0  0  0  0  0  0  0  0  0  0  0  0
    0.7638    3.6943   -0.1862 C   0  0  0  0  0  0  0  0  0  0  0  0
    1.2790   -1.2290    0.9021 H   0  0  0  0  0  0  0  0  0  0  0  0
   -0.4066    0.5293    0.9623 H   0  0  0  0  0  0  0  0  0  0  0  0
   -0.1433    1.4296   -1.4002 H   0  0  0  0  0  0  0  0  0  0  0  0
    0.6616   -0.0779   -1.8376 H   0  0  0  0  0  0  0  0  0  0  0  0
    2.3464    1.6804   -1.3172 H   0  0  0  0  0  0  0  0  0  0  0  0
    2.4479    0.3877   -0.1090 H   0  0  0  0  0  0  0  0  0  0  0  0
    0.5106    4.5492    0.4454 H   0  0  0  0  0  0  0  0  0  0  0  0
   -0.1479    3.3141   -0.6537 H   0  0  0  0  0  0  0  0  0  0  0  0
    1.4568    4.0189   -0.9662 H   0  0  0  0  0  0  0  0  0  0  0  0
   -2.3762   -1.3244    0.5280 N   0  0  0  0  0  0  0  0  0  0  0  0
   -3.7266   -1.7955    0.3284 C   0  0  2  0  0  0  0  0  0  0  0  0
   -4.4268   -1.8033    1.6809 C   0  0  0  0  0  0  0  0  0  0  0  0
   -3.8211   -1.8515    2.7495 O   0  0  0  0  0  0  0  0  0  0  0  0
   -3.7423   -3.1804   -0.2997 C   0  0  0  0  0  0  0  0  0  0  0  0
   -1.8703   -1.6643    1.3406 H   0  0  0  0  0  0  0  0  0  0  0  0
   -4.2184   -1.0748   -0.3339 H   0  0  0  0  0  0  0  0  0  0  0  0
   -3.2539   -3.9162    0.3495 H   0  0  0  0  0  0  0  0  0  0  0  0
   -4.7668   -3.5242   -0.4767 H   0  0  0  0  0  0  0  0  0  0  0  0
   -3.2125   -3.1795   -1.2584 H   0  0  0  0  0  0  0  0  0  0  0  0
   -5.8087   -1.7937    1.5533 N   0  0  0  0  0  0  0  0  0  0  0  0
   -6.6970   -1.8105    2.6920 C   0  0  0  0  0  0  0  0  0  0  0  0
   -6.2247   -1.7341    0.6285 H   0  0  0  0  0  0  0  0  0  0  0  0
   -6.9646   -2.8498    2.9336 H   0  0  0  0  0  0  0  0  0  0  0  0
   -6.1942   -1.3512    3.5559 H   0  0  0  0  0  0  0  0  0  0  0  0
   -7.6088   -1.2431    2.4540 H   0  0  0  0  0  0  0  0  0  0  0  0
  1  3  1  0  0  0  0
  1  7  1  0  0  0  0
  1  2  2  0  0  0  0
 35 36  1  0  0  0  0
 36 44  1  0  0  0  0
 36 37  2  0  0  0  0
  8  9  1  0  0  0  0
  9 17  1  0  0  0  0
  9 10  2  0  0  0  0
 18 19  1  0  0  0  0
 19 34  1  0  0  0  0
 19 20  2  0  0  0  0
 35 38  1  0  0  0  0
  8 11  1  0  0  0  0
 44 45  1  0  0  0  0
 23 24  1  0  0  0  0
 21 22  1  0  0  0  0
 18 21  1  0  0  0  0
 22 23  1  0  0  0  0
 34 35  1  0  0  0  0
  7  8  1  0  0  0  0
 17 18  1  0  0  0  0
  3  4  1  0  0  0  0
  3  5  1  0  0  0  0
  3  6  1  0  0  0  0
 38 41  1  0  0  0  0
 38 42  1  0  0  0  0
 38 43  1  0  0  0  0
 11 14  1  0  0  0  0
 11 15  1  0  0  0  0
 11 16  1  0  0  0  0
 45 47  1  0  0  0  0
 45 48  1  0  0  0  0
 45 49  1  0  0  0  0
 24 31  1  0  0  0  0
 24 32  1  0  0  0  0
 24 33  1  0  0  0  0
 21 27  1  0  0  0  0
 21 28  1  0  0  0  0
 22 29  1  0  0  0  0
 22 30  1  0  0  0  0
 35 40  1  0  0  0  0
  8 13  1  0  0  0  0
 18 26  1  0  0  0  0
 44 46  1  0  0  0  0
  7 12  1  0  0  0  0
 34 39  1  0  0  0  0
 17 25  1  0  0  0  0
M  END
$$$$

  -OEChem-05262214473D

 49 48  0     1  0  0  0  0  0999 V2000
   -0.0561   -5.3799    2.6949 C   0  0  0  0  0  0  0  0  0  0  0  0
    0.7325   -5.0736    3.5815 O   0  0  0  0  0  0  0  0  0  0  0  0
   -1.0067   -6.5099    2.9135 C   0  0  0  0  0  0  0  0  0  0  0  0
   -0.5910   -7.4777    2.5899 H   0  0  0  0  0  0  0  0  0  0  0  0
   -1.2629   -6.6440    3.9767 H   0  0  0  0  0  0  0  0  0  0  0  0
   -1.9729   -6.4206    2.3918 H   0  0  0  0  0  0  0  0  0  0  0  0
   -0.1735   -4.7694    1.4571 N   0  0  0  0  0  0  0  0  0  0  0  0
    0.6439   -3.6603    1.0409 C   0  0  2  0  0  0  0  0  0  0  0  0
   -0.2788   -2.5625    0.5280 C   0  0  0  0  0  0  0  0  0  0  0  0
   -1.4197   -2.7791    0.1251 O   0  0  0  0  0  0  0  0  0  0  0  0
    1.6395   -4.0779   -0.0301 C   0  0  0  0  0  0  0  0  0  0  0  0
   -0.8741   -5.1235    0.8083 H   0  0  0  0  0  0  0  0  0  0  0  0
    1.1738   -3.3062    1.9318 H   0  0  0  0  0  0  0  0  0  0  0  0
    1.1270   -4.4358   -0.9305 H   0  0  0  0  0  0  0  0  0  0  0  0
    2.2797   -3.2400   -0.3251 H   0  0  0  0  0  0  0  0  0  0  0  0
    2.2827   -4.8880    0.3303 H   0  0  0  0  0  0  0  0  0  0  0  0
    0.3351   -1.3153    0.5316 N   0  0  0  0  0  0  0  0  0  0  0  0
   -0.3268   -0.1184    0.0807 C   0  0  2  0  0  0  0  0  0  0  0  0
   -1.7395   -0.4786   -0.3688 C   0  0  0  0  0  0  0  0  0  0  0  0
   -2.1547   -0.2642   -1.5058 O   0  0  0  0  0  0  0  0  0  0  0  0
    0.4750    0.6124   -1.0050 C   0  0  0  0  0  0  0  0  0  0  0  0
    1.8069    1.1794   -0.5079 C   0  0  0  0  0  0  0  0  0  0  0  0
    1.5281    2.3968    0.8128 S   0  0  0  0  0  0  0  0  0  0  0  0
    0.7638    3.6943   -0.1862 C   0  0  0  0  0  0  0  0  0  0  0  0
    1.2790   -1.2290    0.9021 H   0  0  0  0  0  0  0  0  0  0  0  0
   -0.4066    0.5293    0.9623 H   0  0  0  0  0  0  0  0  0  0  0  0
   -0.1433    1.4296   -1.4002 H   0  0  0  0  0  0  0  0  0  0  0  0
    0.6616   -0.0779   -1.8376 H   0  0  0  0  0  0  0  0  0  0  0  0
    2.3464    1.6804   -1.3172 H   0  0  0  0  0  0  0  0  0  0  0  0
    2.4479    0.3877   -0.1090 H   0  0  0  0  0  0  0  0  0  0  0  0
    0.5106    4.5492    0.4454 H   0  0  0  0  0  0  0  0  0  0  0  0
   -0.1479    3.3141   -0.6537 H   0  0  0  0  0  0  0  0  0  0  0  0
    1.4568    4.0189   -0.9662 H   0  0  0  0  0  0  0  0  0  0  0  0
   -2.4904   -1.0363    0.6560 N   0  0  0  0  0  0  0  0  0  0  0  0
   -3.8633   -1.4477    0.4793 C   0  0  2  0  0  0  0  0  0  0  0  0
   -4.6308   -1.0797    1.7423 C   0  0  0  0  0  0  0  0  0  0  0  0
   -4.0875   -0.9094    2.8317 O   0  0  0  0  0  0  0  0  0  0  0  0
   -3.9624   -2.9389    0.1982 C   0  0  0  0  0  0  0  0  0  0  0  0
   -2.0575   -1.2034    1.5595 H   0  0  0  0  0  0  0  0  0  0  0  0
   -4.2581   -0.8765   -0.3681 H   0  0  0  0  0  0  0  0  0  0  0  0
   -3.5715   -3.5276    1.0362 H   0  0  0  0  0  0  0  0  0  0  0  0
   -5.0015   -3.2440    0.0362 H   0  0  0  0  0  0  0  0  0  0  0  0
   -3.3854   -3.2066   -0.6936 H   0  0  0  0  0  0  0  0  0  0  0  0
   -5.9986   -1.0061    1.5190 N   0  0  0  0  0  0  0  0  0  0  0  0
   -6.9430   -0.6857    2.5638 C   0  0  0  0  0  0  0  0  0  0  0  0
   -6.3597   -1.1437    0.5796 H   0  0  0  0  0  0  0  0  0  0  0  0
   -7.3088   -1.6146    3.0256 H   0  0  0  0  0  0  0  0  0  0  0  0
   -6.4490   -0.0666    3.3271 H   0  0  0  0  0  0  0  0  0  0  0  0
   -7.7905   -0.1314    2.1344 H   0  0  0  0  0  0  0  0  0  0  0  0
  1  3  1  0  0  0  0
  1  7  1  0  0  0  0
  1  2  2  0  0  0  0
 35 36  1  0  0  0  0
 36 44  1  0  0  0  0
 36 37  2  0  0  0  0
  8  9  1  0  0  0  0
  9 17  1  0  0  0  0
  9 10  2  0  0  0  0
 18 19  1  0  0  0  0
 19 34  1  0  0  0  0
 19 20  2  0  0  0  0
 35 38  1  0  0  0  0
  8 11  1  0  0  0  0
 44 45  1  0  0  0  0
 23 24  1  0  0  0  0
 21 22  1  0  0  0  0
 18 21  1  0  0  0  0
 22 23  1  0  0  0  0
 34 35  1  0  0  0  0
  7  8  1  0  0  0  0
 17 18  1  0  0  0  0
  3  4  1  0  0  0  0
  3  5  1  0  0  0  0
  3  6  1  0  0  0  0
 38 41  1  0  0  0  0
 38 42  1  0  0  0  0
 38 43  1  0  0  0  0
 11 14  1  0  0  0  0
 11 15  1  0  0  0  0
 11 16  1  0  0  0  0
 45 47  1  0  0  0  0
 45 48  1  0  0  0  0
 45 49  1  0  0  0  0
 24 31  1  0  0  0  0
 24 32  1  0  0  0  0
 24 33  1  0  0  0  0
 21 27  1  0  0  0  0
 21 28  1  0  0  0  0
 22 29  1  0  0  0  0
 22 30  1  0  0  0  0
 35 40  1  0  0  0  0
  8 13  1  0  0  0  0
 18 26  1  0  0  0  0
 44 46  1  0  0  0  0
  7 12  1  0  0  0  0
 34 39  1  0  0  0  0
 17 25  1  0  0  0  0
M  END
$$$$

  -OEChem-05262214473D

 49 48  0     1  0  0  0  0  0999 V2000
   -0.0561   -5.3799    2.6949 C   0  0  0  0  0  0  0  0  0  0  0  0
    0.7325   -5.0736    3.5815 O   0  0  0  0  0  0  0  0  0  0  0  0
   -1.0067   -6.5099    2.9135 C   0  0  0  0  0  0  0  0  0  0  0  0
   -0.5910   -7.4777    2.5899 H   0  0  0  0  0  0  0  0  0  0  0  0
   -1.2629   -6.6440    3.9767 H   0  0  0  0  0  0  0  0  0  0  0  0
   -1.9729   -6.4206    2.3918 H   0  0  0  0  0  0  0  0  0  0  0  0
   -0.1735   -4.7694    1.4571 N   0  0  0  0  0  0  0  0  0  0  0  0
    0.6439   -3.6603    1.0409 C   0  0  2  0  0  0  0  0  0  0  0  0
   -0.2788   -2.5625    0.5280 C   0  0  0  0  0  0  0  0  0  0  0  0
   -1.4197   -2.7791    0.1251 O   0  0  0  0  0  0  0  0  0  0  0  0
    1.6395   -4.0779   -0.0301 C   0  0  0  0  0  0  0  0  0  0  0  0
   -0.8741   -5.1235    0.8083 H   0  0  0  0  0  0  0  0  0  0  0  0
    1.1738   -3.3062    1.9318 H   0  0  0  0  0  0  0  0  0  0  0  0
    1.1270   -4.4358   -0.9305 H   0  0  0  0  0  0  0  0  0  0  0  0
    2.2797   -3.2400   -0.3251 H   0  0  0  0  0  0  0  0  0  0  0  0
    2.2827   -4.8880    0.3303 H   0  0  0  0  0  0  0  0  0  0  0  0
    0.3351   -1.3153    0.5316 N   0  0  0  0  0  0  0  0  0  0  0  0
   -0.3268   -0.1184    0.0807 C   0  0  2  0  0  0  0  0  0  0  0  0
   -1.7395   -0.4786   -0.3688 C   0  0  0  0  0  0  0  0  0  0  0  0
   -2.0759   -0.5177   -1.5506 O   0  0  0  0  0  0  0  0  0  0  0  0
    0.4750    0.6124   -1.0050 C   0  0  0  0  0  0  0  0  0  0  0  0
    1.8069    1.1794   -0.5079 C   0  0  0  0  0  0  0  0  0  0  0  0
    1.5281    2.3968    0.8128 S   0  0  0  0  0  0  0  0  0  0  0  0
    0.7638    3.6943   -0.1862 C   0  0  0  0  0  0  0  0  0  0  0  0
    1.2790   -1.2290    0.9021 H   0  0  0  0  0  0  0  0  0  0  0  0
   -0.4066    0.5293    0.9623 H   0  0  0  0  0  0  0  0  0  0  0  0
   -0.1433    1.4296   -1.4002 H   0  0  0  0  0  0  0  0  0  0  0  0
    0.6616   -0.0779   -1.8376 H   0  0  0  0  0  0  0  0  0  0  0  0
    2.3464    1.6804   -1.3172 H   0  0  0  0  0  0  0  0  0  0  0  0
    2.4479    0.3877   -0.1090 H   0  0  0  0  0  0  0  0  0  0  0  0
    0.5106    4.5492    0.4454 H   0  0  0  0  0  0  0  0  0  0  0  0
   -0.1479    3.3141   -0.6537 H   0  0  0  0  0  0  0  0  0  0  0  0
    1.4568    4.0189   -0.9662 H   0  0  0  0  0  0  0  0  0  0  0  0
   -2.5865   -0.7186    0.7036 N   0  0  0  0  0  0  0  0  0  0  0  0
   -3.9781   -1.0651    0.5333 C   0  0  2  0  0  0  0  0  0  0  0  0
   -4.7765   -0.3504    1.6156 C   0  0  0  0  0  0  0  0  0  0  0  0
   -4.2779    0.0407    2.6690 O   0  0  0  0  0  0  0  0  0  0  0  0
   -4.1869   -2.5696    0.6079 C   0  0  0  0  0  0  0  0  0  0  0  0
   -2.2166   -0.6915    1.6491 H   0  0  0  0  0  0  0  0  0  0  0  0
   -4.2792   -0.6902   -0.4510 H   0  0  0  0  0  0  0  0  0  0  0  0
   -3.8907   -2.9633    1.5870 H   0  0  0  0  0  0  0  0  0  0  0  0
   -5.2381   -2.8325    0.4502 H   0  0  0  0  0  0  0  0  0  0  0  0
   -3.5889   -3.0841   -0.1520 H   0  0  0  0  0  0  0  0  0  0  0  0
   -6.1199   -0.2391    1.2856 N   0  0  0  0  0  0  0  0  0  0  0  0
   -7.0870    0.3888    2.1553 C   0  0  0  0  0  0  0  0  0  0  0  0
   -6.4421   -0.5748    0.3826 H   0  0  0  0  0  0  0  0  0  0  0  0
   -7.5527   -0.3732    2.7974 H   0  0  0  0  0  0  0  0  0  0  0  0
   -6.5831    1.1387    2.7828 H   0  0  0  0  0  0  0  0  0  0  0  0
   -7.8618    0.8797    1.5480 H   0  0  0  0  0  0  0  0  0  0  0  0
  1  3  1  0  0  0  0
  1  7  1  0  0  0  0
  1  2  2  0  0  0  0
 35 36  1  0  0  0  0
 36 44  1  0  0  0  0
 36 37  2  0  0  0  0
  8  9  1  0  0  0  0
  9 17  1  0  0  0  0
  9 10  2  0  0  0  0
 18 19  1  0  0  0  0
 19 34  1  0  0  0  0
 19 20  2  0  0  0  0
 35 38  1  0  0  0  0
  8 11  1  0  0  0  0
 44 45  1  0  0  0  0
 23 24  1  0  0  0  0
 21 22  1  0  0  0  0
 18 21  1  0  0  0  0
 22 23  1  0  0  0  0
 34 35  1  0  0  0  0
  7  8  1  0  0  0  0
 17 18  1  0  0  0  0
  3  4  1  0  0  0  0
  3  5  1  0  0  0  0
  3  6  1  0  0  0  0
 38 41  1  0  0  0  0
 38 42  1  0  0  0  0
 38 43  1  0  0  0  0
 11 14  1  0  0  0  0
 11 15  1  0  0  0  0
 11 16  1  0  0  0  0
 45 47  1  0  0  0  0
 45 48  1  0  0  0  0
 45 49  1  0  0  0  0
 24 31  1  0  0  0  0
 24 32  1  0  0  0  0
 24 33  1  0  0  0  0
 21 27  1  0  0  0  0
 21 28  1  0  0  0  0
 22 29  1  0  0  0  0
 22 30  1  0  0  0  0
 35 40  1  0  0  0  0
  8 13  1  0  0  0  0
 18 26  1  0  0  0  0
 44 46  1  0  0  0  0
  7 12  1  0  0  0  0
 34 39  1  0  0  0  0
 17 25  1  0  0  0  0
M  END
$$$$

  -OEChem-05262214473D

 49 48  0     1  0  0  0  0  0999 V2000
   -0.0561   -5.3799    2.6949 C   0  0  0  0  0  0  0  0  0  0  0  0
    0.7325   -5.0736    3.5815 O   0  0  0  0  0  0  0  0  0  0  0  0
   -1.0067   -6.5099    2.9135 C   0  0  0  0  0  0  0  0  0  0  0  0
   -0.5910   -7.4777    2.5899 H   0  0  0  0  0  0  0  0  0  0  0  0
   -1.2629   -6.6440    3.9767 H   0  0  0  0  0  0  0  0  0  0  0  0
   -1.9729   -6.4206    2.3918 H   0  0  0  0  0  0  0  0  0  0  0  0
   -0.1735   -4.7694    1.4571 N   0  0  0  0  0  0  0  0  0  0  0  0
    0.6439   -3.6603    1.0409 C   0  0  2  0  0  0  0  0  0  0  0  0
   -0.2788   -2.5625    0.5280 C   0  0  0  0  0  0  0  0  0  0  0  0
   -1.4197   -2.7791    0.1251 O   0  0  0  0  0  0  0  0  0  0  0  0
    1.6395   -4.0779   -0.0301 C   0  0  0  0  0  0  0  0  0  0  0  0
   -0.8741   -5.1235    0.8083 H   0  0  0  0  0  0  0  0  0  0  0  0
    1.1738   -3.3062    1.9318 H   0  0  0  0  0  0  0  0  0  0  0  0
    1.1270   -4.4358   -0.9305 H   0  0  0  0  0  0  0  0  0  0  0  0
    2.2797   -3.2400   -0.3251 H   0  0  0  0  0  0  0  0  0  0  0  0
    2.2827   -4.8880    0.3303 H   0  0  0  0  0  0  0  0  0  0  0  0
    0.3351   -1.3153    0.5316 N   0  0  0  0  0  0  0  0  0  0  0  0
   -0.3268   -0.1184    0.0807 C   0  0  2  0  0  0  0  0  0  0  0  0
   -1.7395   -0.4786   -0.3688 C   0  0  0  0  0  0  0  0  0  0  0  0
   -2.0163   -0.7794   -1.5282 O   0  0  0  0  0  0  0  0  0  0  0  0
    0.4750    0.6124   -1.0050 C   0  0  0  0  0  0  0  0  0  0  0  0
    1.8069    1.1794   -0.5079 C   0  0  0  0  0  0  0  0  0  0  0  0
    1.5281    2.3968    0.8128 S   0  0  0  0  0  0  0  0  0  0  0  0
    0.7638    3.6943   -0.1862 C   0  0  0  0  0  0  0  0  0  0  0  0
    1.2790   -1.2290    0.9021 H   0  0  0  0  0  0  0  0  0  0  0  0
   -0.4066    0.5293    0.9623 H   0  0  0  0  0  0  0  0  0  0  0  0
   -0.1433    1.4296   -1.4002 H   0  0  0  0  0  0  0  0  0  0  0  0
    0.6616   -0.0779   -1.8376 H   0  0  0  0  0  0  0  0  0  0  0  0
    2.3464    1.6804   -1.3172 H   0  0  0  0  0  0  0  0  0  0  0  0
    2.4479    0.3877   -0.1090 H   0  0  0  0  0  0  0  0  0  0  0  0
    0.5106    4.5492    0.4454 H   0  0  0  0  0  0  0  0  0  0  0  0
   -0.1479    3.3141   -0.6537 H   0  0  0  0  0  0  0  0  0  0  0  0
    1.4568    4.0189   -0.9662 H   0  0  0  0  0  0  0  0  0  0  0  0
   -2.6581   -0.3931    0.6675 N   0  0  0  0  0  0  0  0  0  0  0  0
   -4.0631   -0.6738    0.4868 C   0  0  2  0  0  0  0  0  0  0  0  0
   -4.8538    0.3348    1.3097 C   0  0  0  0  0  0  0  0  0  0  0  0
   -4.3795    0.9339    2.2726 O   0  0  0  0  0  0  0  0  0  0  0  0
   -4.4007   -2.0975    0.9013 C   0  0  0  0  0  0  0  0  0  0  0  0
   -2.3366   -0.1634    1.6033 H   0  0  0  0  0  0  0  0  0  0  0  0
   -4.2803   -0.5285   -0.5770 H   0  0  0  0  0  0  0  0  0  0  0  0
   -4.1896   -2.2620    1.9643 H   0  0  0  0  0  0  0  0  0  0  0  0
   -5.4606   -2.3178    0.7369 H   0  0  0  0  0  0  0  0  0  0  0  0
   -3.8093   -2.8206    0.3293 H   0  0  0  0  0  0  0  0  0  0  0  0
   -6.1643    0.4550    0.8689 N   0  0  0  0  0  0  0  0  0  0  0  0
   -7.1192    1.3398    1.4944 C   0  0  0  0  0  0  0  0  0  0  0  0
   -6.4662   -0.0662    0.0510 H   0  0  0  0  0  0  0  0  0  0  0  0
   -7.6797    0.7897    2.2646 H   0  0  0  0  0  0  0  0  0  0  0  0
   -6.5875    2.1828    1.9599 H   0  0  0  0  0  0  0  0  0  0  0  0
   -7.8176    1.7212    0.7350 H   0  0  0  0  0  0  0  0  0  0  0  0
  1  3  1  0  0  0  0
  1  7  1  0  0  0  0
  1  2  2  0  0  0  0
 35 36  1  0  0  0  0
 36 44  1  0  0  0  0
 36 37  2  0  0  0  0
  8  9  1  0  0  0  0
  9 17  1  0  0  0  0
  9 10  2  0  0  0  0
 18 19  1  0  0  0  0
 19 34  1  0  0  0  0
 19 20  2  0  0  0  0
 35 38  1  0  0  0  0
  8 11  1  0  0  0  0
 44 45  1  0  0  0  0
 23 24  1  0  0  0  0
 21 22  1  0  0  0  0
 18 21  1  0  0  0  0
 22 23  1  0  0  0  0
 34 35  1  0  0  0  0
  7  8  1  0  0  0  0
 17 18  1  0  0  0  0
  3  4  1  0  0  0  0
  3  5  1  0  0  0  0
  3  6  1  0  0  0  0
 38 41  1  0  0  0  0
 38 42  1  0  0  0  0
 38 43  1  0  0  0  0
 11 14  1  0  0  0  0
 11 15  1  0  0  0  0
 11 16  1  0  0  0  0
 45 47  1  0  0  0  0
 45 48  1  0  0  0  0
 45 49  1  0  0  0  0
 24 31  1  0  0  0  0
 24 32  1  0  0  0  0
 24 33  1  0  0  0  0
 21 27  1  0  0  0  0
 21 28  1  0  0  0  0
 22 29  1  0  0  0  0
 22 30  1  0  0  0  0
 35 40  1  0  0  0  0
  8 13  1  0  0  0  0
 18 26  1  0  0  0  0
 44 46  1  0  0  0  0
  7 12  1  0  0  0  0
 34 39  1  0  0  0  0
 17 25  1  0  0  0  0
M  END
$$$$

  -OEChem-05262214473D

 49 48  0     1  0  0  0  0  0999 V2000
   -0.0561   -5.3799    2.6949 C   0  0  0  0  0  0  0  0  0  0  0  0
    0.7325   -5.0736    3.5815 O   0  0  0  0  0  0  0  0  0  0  0  0
   -1.0067   -6.5099    2.9135 C   0  0  0  0  0  0  0  0  0  0  0  0
   -0.5910   -7.4777    2.5899 H   0  0  0  0  0  0  0  0  0  0  0  0
   -1.2629   -6.6440    3.9767 H   0  0  0  0  0  0  0  0  0  0  0  0
   -1.9729   -6.4206    2.3918 H   0  0  0  0  0  0  0  0  0  0  0  0
   -0.1735   -4.7694    1.4571 N   0  0  0  0  0  0  0  0  0  0  0  0
    0.6439   -3.6603    1.0409 C   0  0  2  0  0  0  0  0  0  0  0  0
   -0.2788   -2.5625    0.5280 C   0  0  0  0  0  0  0  0  0  0  0  0
   -1.4197   -2.7791    0.1251 O   0  0  0  0  0  0  0  0  0  0  0  0
    1.6395   -4.0779   -0.0301 C   0  0  0  0  0  0  0  0  0  0  0  0
   -0.8741   -5.1235    0.8083 H   0  0  0  0  0  0  0  0  0  0  0  0
    1.1738   -3.3062    1.9318 H   0  0  0  0  0  0  0  0  0  0  0  0
    1.1270   -4.4358   -0.9305 H   0  0  0  0  0  0  0  0  0  0  0  0
    2.2797   -3.2400   -0.3251 H   0  0  0  0  0  0  0  0  0  0  0  0
    2.2827   -4.8880    0.3303 H   0  0  0  0  0  0  0  0  0  0  0  0
    0.3351   -1.3153    0.5316 N   0  0  0  0  0  0  0  0  0  0  0  0
   -0.3268   -0.1184    0.0807 C   0  0  2  0  0  0  0  0  0  0  0  0
   -1.7395   -0.4786   -0.3688 C   0  0  0  0  0  0  0  0  0  0  0  0
   -1.9800   -1.0312   -1.4402 O   0  0  0  0  0  0  0  0  0  0  0  0
    0.4750    0.6124   -1.0050 C   0  0  0  0  0  0  0  0  0  0  0  0
    1.8069    1.1794   -0.5079 C   0  0  0  0  0  0  0  0  0  0  0  0
    1.5281    2.3968    0.8128 S   0  0  0  0  0  0  0  0  0  0  0  0
    0.7638    3.6943   -0.1862 C   0  0  0  0  0  0  0  0  0  0  0  0
    1.2790   -1.2290    0.9021 H   0  0  0  0  0  0  0  0  0  0  0  0
   -0.4066    0.5293    0.9623 H   0  0  0  0  0  0  0  0  0  0  0  0
   -0.1433    1.4296   -1.4002 H   0  0  0  0  0  0  0  0  0  0  0  0
    0.6616   -0.0779   -1.8376 H   0  0  0  0  0  0  0  0  0  0  0  0
    2.3464    1.6804   -1.3172 H   0  0  0  0  0  0  0  0  0  0  0  0
    2.4479    0.3877   -0.1090 H   0  0  0  0  0  0  0  0  0  0  0  0
    0.5106    4.5492    0.4454 H   0  0  0  0  0  0  0  0  0  0  0  0
   -0.1479    3.3141   -0.6537 H   0  0  0  0  0  0  0  0  0  0  0  0
    1.4568    4.0189   -0.9662 H   0  0  0  0  0  0  0  0  0  0  0  0
   -2.7001   -0.0818    0.5503 N   0  0  0  0  0  0  0  0  0  0  0  0
   -4.1125   -0.3005    0.3429 C   0  0  2  0  0  0  0  0  0  0  0  0
   -4.8575    0.9291    0.8452 C   0  0  0  0  0  0  0  0  0  0  0  0
   -4.3853    1.7094    1.6693 O   0  0  0  0  0  0  0  0  0  0  0  0
   -4.5891   -1.5549    1.0586 C   0  0  0  0  0  0  0  0  0  0  0  0
   -2.4095    0.3448    1.4251 H   0  0  0  0  0  0  0  0  0  0  0  0
   -4.2614   -0.4025   -0.7376 H   0  0  0  0  0  0  0  0  0  0  0  0
   -4.4479   -1.4713    2.1423 H   0  0  0  0  0  0  0  0  0  0  0  0
   -5.6538   -1.7350    0.8769 H   0  0  0  0  0  0  0  0  0  0  0  0
   -4.0315   -2.4338    0.7175 H   0  0  0  0  0  0  0  0  0  0  0  0
   -6.1288    1.0290    0.2973 N   0  0  0  0  0  0  0  0  0  0  0  0
   -7.0373    2.1025    0.6262 C   0  0  0  0  0  0  0  0  0  0  0  0
   -6.4305    0.3474   -0.3927 H   0  0  0  0  0  0  0  0  0  0  0  0
   -7.6811    1.7951    1.4635 H   0  0  0  0  0  0  0  0  0  0  0  0
   -6.4618    2.9944    0.9146 H   0  0  0  0  0  0  0  0  0  0  0  0
   -7.6611    2.3359   -0.2493 H   0  0  0  0  0  0  0  0  0  0  0  0
  1  3  1  0  0  0  0
  1  7  1  0  0  0  0
  1  2  2  0  0  0  0
 35 36  1  0  0  0  0
 36 44  1  0  0  0  0
 36 37  2  0  0  0  0
  8  9  1  0  0  0  0
  9 17  1  0  0  0  0
  9 10  2  0  0  0  0
 18 19  1  0  0  0  0
 19 34  1  0  0  0  0
 19 20  2  0  0  0  0
 35 38  1  0  0  0  0
  8 11  1  0  0  0  0
 44 45  1  0  0  0  0
 23 24  1  0  0  0  0
 21 22  1  0  0  0  0
 18 21  1  0  0  0  0
 22 23  1  0  0  0  0
 34 35  1  0  0  0  0
  7  8  1  0  0  0  0
 17 18  1  0  0  0  0
  3  4  1  0  0  0  0
  3  5  1  0  0  0  0
  3  6  1  0  0  0  0
 38 41  1  0  0  0  0
 38 42  1  0  0  0  0
 38 43  1  0  0  0  0
 11 14  1  0  0  0  0
 11 15  1  0  0  0  0
 11 16  1  0  0  0  0
 45 47  1  0  0  0  0
 45 48  1  0  0  0  0
 45 49  1  0  0  0  0
 24 31  1  0  0  0  0
 24 32  1  0  0  0  0
 24 33  1  0  0  0  0
 21 27  1  0  0  0  0
 21 28  1  0  0  0  0
 22 29  1  0  0  0  0
 22 30  1  0  0  0  0
 35 40  1  0  0  0  0
  8 13  1  0  0  0  0
 18 26  1  0  0  0  0
 44 46  1  0  0  0  0
  7 12  1  0  0  0  0
 34 39  1  0  0  0  0
 17 25  1  0  0  0  0
M  END
$$$$

  -OEChem-05262214473D

 49 48  0     1  0  0  0  0  0999 V2000
   -0.0561   -5.3799    2.6949 C   0  0  0  0  0  0  0  0  0  0  0  0
    0.7325   -5.0736    3.5815 O   0  0  0  0  0  0  0  0  0  0  0  0
   -1.0067   -6.5099    2.9135 C   0  0  0  0  0  0  0  0  0  0  0  0
   -0.5910   -7.4777    2.5899 H   0  0  0  0  0  0  0  0  0  0  0  0
   -1.2629   -6.6440    3.9767 H   0  0  0  0  0  0  0  0  0  0  0  0
   -1.9729   -6.4206    2.3918 H   0  0  0  0  0  0  0  0  0  0  0  0
   -0.1735   -4.7694    1.4571 N   0  0  0  0  0  0  0  0  0  0  0  0
    0.6439   -3.6603    1.0409 C   0  0  2  0  0  0  0  0  0  0  0  0
   -0.2788   -2.5625    0.5280 C   0  0  0  0  0  0  0  0  0  0  0  0
   -1.4197   -2.7791    0.1251 O   0  0  0  0  0  0  0  0  0  0  0  0
    1.6395   -4.0779   -0.0301 C   0  0  0  0  0  0  0  0  0  0  0  0
   -0.8741   -5.1235    0.8083 H   0  0  0  0  0  0  0  0  0  0  0  0
    1.1738   -3.3062    1.9318 H   0  0  0  0  0  0  0  0  0  0  0  0
    1.1270   -4.4358   -0.9305 H   0  0  0  0  0  0  0  0  0  0  0  0
    2.2797   -3.2400   -0.3251 H   0  0  0  0  0  0  0  0  0  0  0  0
    2.2827   -4.8880    0.3303 H   0  0  0  0  0  0  0  0  0  0  0  0
    0.3351   -1.3153    0.5316 N   0  0  0  0  0  0  0  0  0  0  0  0
   -0.3268   -0.1184    0.0807 C   0  0  2  0  0  0  0  0  0  0  0  0
   -1.7395   -0.4786   -0.3688 C   0  0  0  0  0  0  0  0  0  0  0  0
   -1.9696   -1.2562   -1.2927 O   0  0  0  0  0  0  0  0  0  0  0  0
    0.4750    0.6124   -1.0050 C   0  0  0  0  0  0  0  0  0  0  0  0
    1.8069    1.1794   -0.5079 C   0  0  0  0  0  0  0  0  0  0  0  0
    1.5281    2.3968    0.8128 S   0  0  0  0  0  0  0  0  0  0  0  0
    0.7638    3.6943   -0.1862 C   0  0  0  0  0  0  0  0  0  0  0  0
    1.2790   -1.2290    0.9021 H   0  0  0  0  0  0  0  0  0  0  0  0
   -0.4066    0.5293    0.9623 H   0  0  0  0  0  0  0  0  0  0  0  0
   -0.1433    1.4296   -1.4002 H   0  0  0  0  0  0  0  0  0  0  0  0
    0.6616   -0.0779   -1.8376 H   0  0  0  0  0  0  0  0  0  0  0  0
    2.3464    1.6804   -1.3172 H   0  0  0  0  0  0  0  0  0  0  0  0
    2.4479    0.3877   -0.1090 H   0  0  0  0  0  0  0  0  0  0  0  0
    0.5106    4.5492    0.4454 H   0  0  0  0  0  0  0  0  0  0  0  0
   -0.1479    3.3141   -0.6537 H   0  0  0  0  0  0  0  0  0  0  0  0
    1.4568    4.0189   -0.9662 H   0  0  0  0  0  0  0  0  0  0  0  0
   -2.7099    0.1940    0.3599 N   0  0  0  0  0  0  0  0  0  0  0  0
   -4.1229    0.0293    0.1114 C   0  0  2  0  0  0  0  0  0  0  0  0
   -4.7874    1.3922    0.2538 C   0  0  0  0  0  0  0  0  0  0  0  0
   -4.2949    2.3144    0.9004 O   0  0  0  0  0  0  0  0  0  0  0  0
   -4.7393   -0.9787    1.0689 C   0  0  0  0  0  0  0  0  0  0  0  0
   -2.4303    0.7986    1.1267 H   0  0  0  0  0  0  0  0  0  0  0  0
   -4.2236   -0.3206   -0.9217 H   0  0  0  0  0  0  0  0  0  0  0  0
   -4.6479   -0.6452    2.1091 H   0  0  0  0  0  0  0  0  0  0  0  0
   -5.8045   -1.1237    0.8607 H   0  0  0  0  0  0  0  0  0  0  0  0
   -4.2403   -1.9503    0.9863 H   0  0  0  0  0  0  0  0  0  0  0  0
   -6.0157    1.4438   -0.3902 N   0  0  0  0  0  0  0  0  0  0  0  0
   -6.8471    2.6248   -0.3902 C   0  0  0  0  0  0  0  0  0  0  0  0
   -6.3373    0.6379   -0.9183 H   0  0  0  0  0  0  0  0  0  0  0  0
   -7.5568    2.5743    0.4486 H   0  0  0  0  0  0  0  0  0  0  0  0
   -6.2146    3.5183   -0.2819 H   0  0  0  0  0  0  0  0  0  0  0  0
   -7.4029    2.6818   -1.3377 H   0  0  0  0  0  0  0  0  0  0  0  0
  1  3  1  0  0  0  0
  1  7  1  0  0  0  0
  1  2  2  0  0  0  0
 35 36  1  0  0  0  0
 36 44  1  0  0  0  0
 36 37  2  0  0  0  0
  8  9  1  0  0  0  0
  9 17  1  0  0  0  0
  9 10  2  0  0  0  0
 18 19  1  0  0  0  0
 19 34  1  0  0  0  0
 19 20  2  0  0  0  0
 35 38  1  0  0  0  0
  8 11  1  0  0  0  0
 44 45  1  0  0  0  0
 23 24  1  0  0  0  0
 21 22  1  0  0  0  0
 18 21  1  0  0  0  0
 22 23  1  0  0  0  0
 34 35  1  0  0  0  0
  7  8  1  0  0  0  0
 17 18  1  0  0  0  0
  3  4  1  0  0  0  0
  3  5  1  0  0  0  0
  3  6  1  0  0  0  0
 38 41  1  0  0  0  0
 38 42  1  0  0  0  0
 38 43  1  0  0  0  0
 11 14  1  0  0  0  0
 11 15  1  0  0  0  0
 11 16  1  0  0  0  0
 45 47  1  0  0  0  0
 45 48  1  0  0  0  0
 45 49  1  0  0  0  0
 24 31  1  0  0  0  0
 24 32  1  0  0  0  0
 24 33  1  0  0  0  0
 21 27  1  0  0  0  0
 21 28  1  0  0  0  0
 22 29  1  0  0  0  0
 22 30  1  0  0  0  0
 35 40  1  0  0  0  0
  8 13  1  0  0  0  0
 18 26  1  0  0  0  0
 44 46  1  0  0  0  0
  7 12  1  0  0  0  0
 34 39  1  0  0  0  0
 17 25  1  0  0  0  0
M  END
$$$$

  -OEChem-05262214473D

 49 48  0     1  0  0  0  0  0999 V2000
   -0.0561   -5.3799    2.6949 C   0  0  0  0  0  0  0  0  0  0  0  0
    0.7325   -5.0736    3.5815 O   0  0  0  0  0  0  0  0  0  0  0  0
   -1.0067   -6.5099    2.9135 C   0  0  0  0  0  0  0  0  0  0  0  0
   -0.5910   -7.4777    2.5899 H   0  0  0  0  0  0  0  0  0  0  0  0
   -1.2629   -6.6440    3.9767 H   0  0  0  0  0  0  0  0  0  0  0  0
   -1.9729   -6.4206    2.3918 H   0  0  0  0  0  0  0  0  0  0  0  0
   -0.1735   -4.7694    1.4571 N   0  0  0  0  0  0  0  0  0  0  0  0
    0.6439   -3.6603    1.0409 C   0  0  2  0  0  0  0  0  0  0  0  0
   -0.2788   -2.5625    0.5280 C   0  0  0  0  0  0  0  0  0  0  0  0
   -1.4197   -2.7791    0.1251 O   0  0  0  0  0  0  0  0  0  0  0  0
    1.6395   -4.0779   -0.0301 C   0  0  0  0  0  0  0  0  0  0  0  0
   -0.8741   -5.1235    0.8083 H   0  0  0  0  0  0  0  0  0  0  0  0
    1.1738   -3.3062    1.9318 H   0  0  0  0  0  0  0  0  0  0  0  0
    1.1270   -4.4358   -0.9305 H   0  0  0  0  0  0  0  0  0  0  0  0
    2.2797   -3.2400   -0.3251 H   0  0  0  0  0  0  0  0  0  0  0  0
    2.2827   -4.8880    0.3303 H   0  0  0  0  0  0  0  0  0  0  0  0
    0.3351   -1.3153    0.5316 N   0  0  0  0  0  0  0  0  0  0  0  0
   -0.3268   -0.1184    0.0807 C   0  0  2  0  0  0  0  0  0  0  0  0
   -1.7395   -0.4786   -0.3688 C   0  0  0  0  0  0  0  0  0  0  0  0
   -1.9857   -1.4390   -1.0956 O   0  0  0  0  0  0  0  0  0  0  0  0
    0.4750    0.6124   -1.0050 C   0  0  0  0  0  0  0  0  0  0  0  0
    1.8069    1.1794   -0.5079 C   0  0  0  0  0  0  0  0  0  0  0  0
    1.5281    2.3968    0.8128 S   0  0  0  0  0  0  0  0  0  0  0  0
    0.7638    3.6943   -0.1862 C   0  0  0  0  0  0  0  0  0  0  0  0
    1.2790   -1.2290    0.9021 H   0  0  0  0  0  0  0  0  0  0  0  0
   -0.4066    0.5293    0.9623 H   0  0  0  0  0  0  0  0  0  0  0  0
   -0.1433    1.4296   -1.4002 H   0  0  0  0  0  0  0  0  0  0  0  0
    0.6616   -0.0779   -1.8376 H   0  0  0  0  0  0  0  0  0  0  0  0
    2.3464    1.6804   -1.3172 H   0  0  0  0  0  0  0  0  0  0  0  0
    2.4479    0.3877   -0.1090 H   0  0  0  0  0  0  0  0  0  0  0  0
    0.5106    4.5492    0.4454 H   0  0  0  0  0  0  0  0  0  0  0  0
   -0.1479    3.3141   -0.6537 H   0  0  0  0  0  0  0  0  0  0  0  0
    1.4568    4.0189   -0.9662 H   0  0  0  0  0  0  0  0  0  0  0  0
   -2.6866    0.4155    0.1093 N   0  0  0  0  0  0  0  0  0  0  0  0
   -4.0937    0.2932   -0.1918 C   0  0  2  0  0  0  0  0  0  0  0  0
   -4.6483    1.6925   -0.4241 C   0  0  0  0  0  0  0  0  0  0  0  0
   -4.1144    2.7076    0.0183 O   0  0  0  0  0  0  0  0  0  0  0  0
   -4.8411   -0.4082    0.9316 C   0  0  0  0  0  0  0  0  0  0  0  0
   -2.3975    1.1670    0.7285 H   0  0  0  0  0  0  0  0  0  0  0  0
   -4.1697   -0.2886   -1.1169 H   0  0  0  0  0  0  0  0  0  0  0  0
   -4.7761    0.1600    1.8667 H   0  0  0  0  0  0  0  0  0  0  0  0
   -5.9025   -0.5256    0.6893 H   0  0  0  0  0  0  0  0  0  0  0  0
   -4.4216   -1.4028    1.1173 H   0  0  0  0  0  0  0  0  0  0  0  0
   -5.8329    1.6710   -1.1468 N   0  0  0  0  0  0  0  0  0  0  0  0
   -6.5614    2.8713   -1.4856 C   0  0  0  0  0  0  0  0  0  0  0  0
   -6.1930    0.7853   -1.4898 H   0  0  0  0  0  0  0  0  0  0  0  0
   -7.3154    3.0742   -0.7108 H   0  0  0  0  0  0  0  0  0  0  0  0
   -5.8628    3.7187   -1.5481 H   0  0  0  0  0  0  0  0  0  0  0  0
   -7.0607    2.7353   -2.4563 H   0  0  0  0  0  0  0  0  0  0  0  0
  1  3  1  0  0  0  0
  1  7  1  0  0  0  0
  1  2  2  0  0  0  0
 35 36  1  0  0  0  0
 36 44  1  0  0  0  0
 36 37  2  0  0  0  0
  8  9  1  0  0  0  0
  9 17  1  0  0  0  0
  9 10  2  0  0  0  0
 18 19  1  0  0  0  0
 19 34  1  0  0  0  0
 19 20  2  0  0  0  0
 35 38  1  0  0  0  0
  8 11  1  0  0  0  0
 44 45  1  0  0  0  0
 23 24  1  0  0  0  0
 21 22  1  0  0  0  0
 18 21  1  0  0  0  0
 22 23  1  0  0  0  0
 34 35  1  0  0  0  0
  7  8  1  0  0  0  0
 17 18  1  0  0  0  0
  3  4  1  0  0  0  0
  3  5  1  0  0  0  0
  3  6  1  0  0  0  0
 38 41  1  0  0  0  0
 38 42  1  0  0  0  0
 38 43  1  0  0  0  0
 11 14  1  0  0  0  0
 11 15  1  0  0  0  0
 11 16  1  0  0  0  0
 45 47  1  0  0  0  0
 45 48  1  0  0  0  0
 45 49  1  0  0  0  0
 24 31  1  0  0  0  0
 24 32  1  0  0  0  0
 24 33  1  0  0  0  0
 21 27  1  0  0  0  0
 21 28  1  0  0  0  0
 22 29  1  0  0  0  0
 22 30  1  0  0  0  0
 35 40  1  0  0  0  0
  8 13  1  0  0  0  0
 18 26  1  0  0  0  0
 44 46  1  0  0  0  0
  7 12  1  0  0  0  0
 34 39  1  0  0  0  0
 17 25  1  0  0  0  0
M  END
$$$$

  -OEChem-05262214473D

 49 48  0     1  0  0  0  0  0999 V2000
   -0.0561   -5.3799    2.6949 C   0  0  0  0  0  0  0  0  0  0  0  0
    0.7325   -5.0736    3.5815 O   0  0  0  0  0  0  0  0  0  0  0  0
   -1.0067   -6.5099    2.9135 C   0  0  0  0  0  0  0  0  0  0  0  0
   -0.5910   -7.4777    2.5899 H   0  0  0  0  0  0  0  0  0  0  0  0
   -1.2629   -6.6440    3.9767 H   0  0  0  0  0  0  0  0  0  0  0  0
   -1.9729   -6.4206    2.3918 H   0  0  0  0  0  0  0  0  0  0  0  0
   -0.1735   -4.7694    1.4571 N   0  0  0  0  0  0  0  0  0  0  0  0
    0.6439   -3.6603    1.0409 C   0  0  2  0  0  0  0  0  0  0  0  0
   -0.2788   -2.5625    0.5280 C   0  0  0  0  0  0  0  0  0  0  0  0
   -1.4197   -2.7791    0.1251 O   0  0  0  0  0  0  0  0  0  0  0  0
    1.6395   -4.0779   -0.0301 C   0  0  0  0  0  0  0  0  0  0  0  0
   -0.8741   -5.1235    0.8083 H   0  0  0  0  0  0  0  0  0  0  0  0
    1.1738   -3.3062    1.9318 H   0  0  0  0  0  0  0  0  0  0  0  0
    1.1270   -4.4358   -0.9305 H   0  0  0  0  0  0  0  0  0  0  0  0
    2.2797   -3.2400   -0.3251 H   0  0  0  0  0  0  0  0  0  0  0  0
    2.2827   -4.8880    0.3303 H   0  0  0  0  0  0  0  0  0  0  0  0
    0.3351   -1.3153    0.5316 N   0  0  0  0  0  0  0  0  0  0  0  0
   -0.3268   -0.1184    0.0807 C   0  0  2  0  0  0  0  0  0  0  0  0
   -1.7395   -0.4786   -0.3688 C   0  0  0  0  0  0  0  0  0  0  0  0
   -2.0273   -1.5670   -0.8625 O   0  0  0  0  0  0  0  0  0  0  0  0
    0.4750    0.6124   -1.0050 C   0  0  0  0  0  0  0  0  0  0  0  0
    1.8069    1.1794   -0.5079 C   0  0  0  0  0  0  0  0  0  0  0  0
    1.5281    2.3968    0.8128 S   0  0  0  0  0  0  0  0  0  0  0  0
    0.7638    3.6943   -0.1862 C   0  0  0  0  0  0  0  0  0  0  0  0
    1.2790   -1.2290    0.9021 H   0  0  0  0  0  0  0  0  0  0  0  0
   -0.4066    0.5293    0.9623 H   0  0  0  0  0  0  0  0  0  0  0  0
   -0.1433    1.4296   -1.4002 H   0  0  0  0  0  0  0  0  0  0  0  0
    0.6616   -0.0779   -1.8376 H   0  0  0  0  0  0  0  0  0  0  0  0
    2.3464    1.6804   -1.3172 H   0  0  0  0  0  0  0  0  0  0  0  0
    2.4479    0.3877   -0.1090 H   0  0  0  0  0  0  0  0  0  0  0  0
    0.5106    4.5492    0.4454 H   0  0  0  0  0  0  0  0  0  0  0  0
   -0.1479    3.3141   -0.6537 H   0  0  0  0  0  0  0  0  0  0  0  0
    1.4568    4.0189   -0.9662 H   0  0  0  0  0  0  0  0  0  0  0  0
   -2.6319    0.5677   -0.1844 N   0  0  0  0  0  0  0  0  0  0  0  0
   -4.0268    0.4732   -0.5462 C   0  0  2  0  0  0  0  0  0  0  0  0
   -4.4495    1.8094   -1.1423 C   0  0  0  0  0  0  0  0  0  0  0  0
   -3.8562    2.8622   -0.9170 O   0  0  0  0  0  0  0  0  0  0  0  0
   -4.8875    0.1178    0.6561 C   0  0  0  0  0  0  0  0  0  0  0  0
   -2.3134    1.4249    0.2575 H   0  0  0  0  0  0  0  0  0  0  0  0
   -4.1032   -0.3085   -1.3098 H   0  0  0  0  0  0  0  0  0  0  0  0
   -4.8237    0.8895    1.4318 H   0  0  0  0  0  0  0  0  0  0  0  0
   -5.9410    0.0185    0.3744 H   0  0  0  0  0  0  0  0  0  0  0  0
   -4.5629   -0.8288    1.1015 H   0  0  0  0  0  0  0  0  0  0  0  0
   -5.5928    1.6953   -1.9209 N   0  0  0  0  0  0  0  0  0  0  0  0
   -6.1996    2.8250   -2.5852 C   0  0  0  0  0  0  0  0  0  0  0  0
   -6.0075    0.7798   -2.0684 H   0  0  0  0  0  0  0  0  0  0  0  0
   -6.9731    3.2608   -1.9358 H   0  0  0  0  0  0  0  0  0  0  0  0
   -5.4303    3.5819   -2.7977 H   0  0  0  0  0  0  0  0  0  0  0  0
   -6.6576    2.4929   -3.5286 H   0  0  0  0  0  0  0  0  0  0  0  0
  1  3  1  0  0  0  0
  1  7  1  0  0  0  0
  1  2  2  0  0  0  0
 35 36  1  0  0  0  0
 36 44  1  0  0  0  0
 36 37  2  0  0  0  0
  8  9  1  0  0  0  0
  9 17  1  0  0  0  0
  9 10  2  0  0  0  0
 18 19  1  0  0  0  0
 19 34  1  0  0  0  0
 19 20  2  0  0  0  0
 35 38  1  0  0  0  0
  8 11  1  0  0  0  0
 44 45  1  0  0  0  0
 23 24  1  0  0  0  0
 21 22  1  0  0  0  0
 18 21  1  0  0  0  0
 22 23  1  0  0  0  0
 34 35  1  0  0  0  0
  7  8  1  0  0  0  0
 17 18  1  0  0  0  0
  3  4  1  0  0  0  0
  3  5  1  0  0  0  0
  3  6  1  0  0  0  0
 38 41  1  0  0  0  0
 38 42  1  0  0  0  0
 38 43  1  0  0  0  0
 11 14  1  0  0  0  0
 11 15  1  0  0  0  0
 11 16  1  0  0  0  0
 45 47  1  0  0  0  0
 45 48  1  0  0  0  0
 45 49  1  0  0  0  0
 24 31  1  0  0  0  0
 24 32  1  0  0  0  0
 24 33  1  0  0  0  0
 21 27  1  0  0  0  0
 21 28  1  0  0  0  0
 22 29  1  0  0  0  0
 22 30  1  0  0  0  0
 35 40  1  0  0  0  0
  8 13  1  0  0  0  0
 18 26  1  0  0  0  0
 44 46  1  0  0  0  0
  7 12  1  0  0  0  0
 34 39  1  0  0  0  0
 17 25  1  0  0  0  0
M  END
$$$$

  -OEChem-05262214473D

 49 48  0     1  0  0  0  0  0999 V2000
   -0.0561   -5.3799    2.6949 C   0  0  0  0  0  0  0  0  0  0  0  0
    0.7325   -5.0736    3.5815 O   0  0  0  0  0  0  0  0  0  0  0  0
   -1.0067   -6.5099    2.9135 C   0  0  0  0  0  0  0  0  0  0  0  0
   -0.5910   -7.4777    2.5899 H   0  0  0  0  0  0  0  0  0  0  0  0
   -1.2629   -6.6440    3.9767 H   0  0  0  0  0  0  0  0  0  0  0  0
   -1.9729   -6.4206    2.3918 H   0  0  0  0  0  0  0  0  0  0  0  0
   -0.1735   -4.7694    1.4571 N   0  0  0  0  0  0  0  0  0  0  0  0
    0.6439   -3.6603    1.0409 C   0  0  2  0  0  0  0  0  0  0  0  0
   -0.2788   -2.5625    0.5280 C   0  0  0  0  0  0  0  0  0  0  0  0
   -1.4197   -2.7791    0.1251 O   0  0  0  0  0  0  0  0  0  0  0  0
    1.6395   -4.0779   -0.0301 C   0  0  0  0  0  0  0  0  0  0  0  0
   -0.8741   -5.1235    0.8083 H   0  0  0  0  0  0  0  0  0  0  0  0
    1.1738   -3.3062    1.9318 H   0  0  0  0  0  0  0  0  0  0  0  0
    1.1270   -4.4358   -0.9305 H   0  0  0  0  0  0  0  0  0  0  0  0
    2.2797   -3.2400   -0.3251 H   0  0  0  0  0  0  0  0  0  0  0  0
    2.2827   -4.8880    0.3303 H   0  0  0  0  0  0  0  0  0  0  0  0
    0.3351   -1.3153    0.5316 N   0  0  0  0  0  0  0  0  0  0  0  0
   -0.3268   -0.1184    0.0807 C   0  0  2  0  0  0  0  0  0  0  0  0
   -1.7395   -0.4786   -0.3688 C   0  0  0  0  0  0  0  0  0  0  0  0
   -2.0914   -1.6317   -0.6091 O   0  0  0  0  0  0  0  0  0  0  0  0
    0.4750    0.6124   -1.0050 C   0  0  0  0  0  0  0  0  0  0  0  0
    1.8069    1.1794   -0.5079 C   0  0  0  0  0  0  0  0  0  0  0  0
    1.5281    2.3968    0.8128 S   0  0  0  0  0  0  0  0  0  0  0  0
    0.7638    3.6943   -0.1862 C   0  0  0  0  0  0  0  0  0  0  0  0
    1.2790   -1.2290    0.9021 H   0  0  0  0  0  0  0  0  0  0  0  0
   -0.4066    0.5293    0.9623 H   0  0  0  0  0  0  0  0  0  0  0  0
   -0.1433    1.4296   -1.4002 H   0  0  0  0  0  0  0  0  0  0  0  0
    0.6616   -0.0779   -1.8376 H   0  0  0  0  0  0  0  0  0  0  0  0
    2.3464    1.6804   -1.3172 H   0  0  0  0  0  0  0  0  0  0  0  0
    2.4479    0.3877   -0.1090 H   0  0  0  0  0  0  0  0  0  0  0  0
    0.5106    4.5492    0.4454 H   0  0  0  0  0  0  0  0  0  0  0  0
   -0.1479    3.3141   -0.6537 H   0  0  0  0  0  0  0  0  0  0  0  0
    1.4568    4.0189   -0.9662 H   0  0  0  0  0  0  0  0  0  0  0  0
   -2.5496    0.6400   -0.5012 N   0  0  0  0  0  0  0  0  0  0  0  0
   -3.9268    0.5571   -0.9276 C   0  0  2  0  0  0  0  0  0  0  0  0
   -4.2047    1.7351   -1.8520 C   0  0  0  0  0  0  0  0  0  0  0  0
   -3.5379    2.7677   -1.8417 O   0  0  0  0  0  0  0  0  0  0  0  0
   -4.8754    0.5633    0.2610 C   0  0  0  0  0  0  0  0  0  0  0  0
   -2.1837    1.5548   -0.2541 H   0  0  0  0  0  0  0  0  0  0  0  0
   -4.0287   -0.3791   -1.4873 H   0  0  0  0  0  0  0  0  0  0  0  0
   -4.7875    1.4935    0.8340 H   0  0  0  0  0  0  0  0  0  0  0  0
   -5.9175    0.4715   -0.0625 H   0  0  0  0  0  0  0  0  0  0  0  0
   -4.6547   -0.2674    0.9401 H   0  0  0  0  0  0  0  0  0  0  0  0
   -5.3117    1.5148   -2.6597 N   0  0  0  0  0  0  0  0  0  0  0  0
   -5.7866    2.4892   -3.6142 C   0  0  0  0  0  0  0  0  0  0  0  0
   -5.7933    0.6217   -2.6146 H   0  0  0  0  0  0  0  0  0  0  0  0
   -6.5535    3.1214   -3.1428 H   0  0  0  0  0  0  0  0  0  0  0  0
   -4.9466    3.1174   -3.9455 H   0  0  0  0  0  0  0  0  0  0  0  0
   -6.2212    1.9709   -4.4816 H   0  0  0  0  0  0  0  0  0  0  0  0
  1  3  1  0  0  0  0
  1  7  1  0  0  0  0
  1  2  2  0  0  0  0
 35 36  1  0  0  0  0
 36 44  1  0  0  0  0
 36 37  2  0  0  0  0
  8  9  1  0  0  0  0
  9 17  1  0  0  0  0
  9 10  2  0  0  0  0
 18 19  1  0  0  0  0
 19 34  1  0  0  0  0
 19 20  2  0  0  0  0
 35 38  1  0  0  0  0
  8 11  1  0  0  0  0
 44 45  1  0  0  0  0
 23 24  1  0  0  0  0
 21 22  1  0  0  0  0
 18 21  1  0  0  0  0
 22 23  1  0  0  0  0
 34 35  1  0  0  0  0
  7  8  1  0  0  0  0
 17 18  1  0  0  0  0
  3  4  1  0  0  0  0
  3  5  1  0  0  0  0
  3  6  1  0  0  0  0
 38 41  1  0  0  0  0
 38 42  1  0  0  0  0
 38 43  1  0  0  0  0
 11 14  1  0  0  0  0
 11 15  1  0  0  0  0
 11 16  1  0  0  0  0
 45 47  1  0  0  0  0
 45 48  1  0  0  0  0
 45 49  1  0  0  0  0
 24 31  1  0  0  0  0
 24 32  1  0  0  0  0
 24 33  1  0  0  0  0
 21 27  1  0  0  0  0
 21 28  1  0  0  0  0
 22 29  1  0  0  0  0
 22 30  1  0  0  0  0
 35 40  1  0  0  0  0
  8 13  1  0  0  0  0
 18 26  1  0  0  0  0
 44 46  1  0  0  0  0
  7 12  1  0  0  0  0
 34 39  1  0  0  0  0
 17 25  1  0  0  0  0
M  END
$$$$

  -OEChem-05262214473D

 49 48  0     1  0  0  0  0  0999 V2000
   -0.0561   -5.3799    2.6949 C   0  0  0  0  0  0  0  0  0  0  0  0
    0.7325   -5.0736    3.5815 O   0  0  0  0  0  0  0  0  0  0  0  0
   -1.0067   -6.5099    2.9135 C   0  0  0  0  0  0  0  0  0  0  0  0
   -0.5910   -7.4777    2.5899 H   0  0  0  0  0  0  0  0  0  0  0  0
   -1.2629   -6.6440    3.9767 H   0  0  0  0  0  0  0  0  0  0  0  0
   -1.9729   -6.4206    2.3918 H   0  0  0  0  0  0  0  0  0  0  0  0
   -0.1735   -4.7694    1.4571 N   0  0  0  0  0  0  0  0  0  0  0  0
    0.6439   -3.6603    1.0409 C   0  0  2  0  0  0  0  0  0  0  0  0
   -0.2788   -2.5625    0.5280 C   0  0  0  0  0  0  0  0  0  0  0  0
   -1.4197   -2.7791    0.1251 O   0  0  0  0  0  0  0  0  0  0  0  0
    1.6395   -4.0779   -0.0301 C   0  0  0  0  0  0  0  0  0  0  0  0
   -0.8741   -5.1235    0.8083 H   0  0  0  0  0  0  0  0  0  0  0  0
    1.1738   -3.3062    1.9318 H   0  0  0  0  0  0  0  0  0  0  0  0
    1.1270   -4.4358   -0.9305 H   0  0  0  0  0  0  0  0  0  0  0  0
    2.2797   -3.2400   -0.3251 H   0  0  0  0  0  0  0  0  0  0  0  0
    2.2827   -4.8880    0.3303 H   0  0  0  0  0  0  0  0  0  0  0  0
    0.3351   -1.3153    0.5316 N   0  0  0  0  0  0  0  0  0  0  0  0
   -0.3268   -0.1184    0.0807 C   0  0  2  0  0  0  0  0  0  0  0  0
   -1.8249   -0.3914   -0.0120 C   0  0  0  0  0  0  0  0  0  0  0  0
   -2.3222   -1.4867    0.2418 O   0  0  0  0  0  0  0  0  0  0  0  0
    0.2643    0.4098   -1.2336 C   0  0  0  0  0  0  0  0  0  0  0  0
    1.7083    0.9003   -1.1042 C   0  0  0  0  0  0  0  0  0  0  0  0
    1.8103    2.2765    0.0789 S   0  0  0  0  0  0  0  0  0  0  0  0
    0.9350    3.5221   -0.8946 C   0  0  0  0  0  0  0  0  0  0  0  0
    1.2790   -1.2290    0.9021 H   0  0  0  0  0  0  0  0  0  0  0  0
   -0.1664    0.6270    0.8692 H   0  0  0  0  0  0  0  0  0  0  0  0
   -0.3688    1.2330   -1.5911 H   0  0  0  0  0  0  0  0  0  0  0  0
    0.2157   -0.3825   -1.9916 H   0  0  0  0  0  0  0  0  0  0  0  0
    2.0893    1.2561   -2.0661 H   0  0  0  0  0  0  0  0  0  0  0  0
    2.3660    0.1005   -0.7511 H   0  0  0  0  0  0  0  0  0  0  0  0
    0.8857    4.4614   -0.3385 H   0  0  0  0  0  0  0  0  0  0  0  0
   -0.0809    3.1802   -1.1075 H   0  0  0  0  0  0  0  0  0  0  0  0
    1.4599    3.6923   -1.8378 H   0  0  0  0  0  0  0  0  0  0  0  0
   -2.5355    0.7200   -0.4420 N   0  0  0  0  0  0  0  0  0  0  0  0
   -3.9684    0.7056   -0.6211 C   0  0  2  0  0  0  0  0  0  0  0  0
   -4.2942    1.5120   -1.8713 C   0  0  0  0  0  0  0  0  0  0  0  0
   -3.5412    2.3667   -2.3334 O   0  0  0  0  0  0  0  0  0  0  0  0
   -4.6837    1.2746    0.5944 C   0  0  0  0  0  0  0  0  0  0  0  0
   -2.0460    1.5953   -0.6028 H   0  0  0  0  0  0  0  0  0  0  0  0
   -4.2576   -0.3398   -0.7744 H   0  0  0  0  0  0  0  0  0  0  0  0
   -4.4065    2.3215    0.7640 H   0  0  0  0  0  0  0  0  0  0  0  0
   -5.7708    1.2367    0.4689 H   0  0  0  0  0  0  0  0  0  0  0  0
   -4.4249    0.7118    1.4978 H   0  0  0  0  0  0  0  0  0  0  0  0
   -5.5438    1.1954   -2.3856 N   0  0  0  0  0  0  0  0  0  0  0  0
   -6.0873    1.8335   -3.5619 C   0  0  0  0  0  0  0  0  0  0  0  0
   -6.0923    0.4605   -1.9489 H   0  0  0  0  0  0  0  0  0  0  0  0
   -6.6936    2.7009   -3.2621 H   0  0  0  0  0  0  0  0  0  0  0  0
   -5.2644    2.1681   -4.2106 H   0  0  0  0  0  0  0  0  0  0  0  0
   -6.7176    1.1172   -4.1092 H   0  0  0  0  0  0  0  0  0  0  0  0
  1  3  1  0  0  0  0
  1  7  1  0  0  0  0
  1  2  2  0  0  0  0
 35 36  1  0  0  0  0
 36 44  1  0  0  0  0
 36 37  2  0  0  0  0
  8  9  1  0  0  0  0
  9 17  1  0  0  0  0
  9 10  2  0  0  0  0
 18 19  1  0  0  0  0
 19 34  1  0  0  0  0
 19 20  2  0  0  0  0
 35 38  1  0  0  0  0
  8 11  1  0  0  0  0
 44 45  1  0  0  0  0
 23 24  1  0  0  0  0
 21 22  1  0  0  0  0
 18 21  1  0  0  0  0
 22 23  1  0  0  0  0
 34 35  1  0  0  0  0
  7  8  1  0  0  0  0
 17 18  1  0  0  0  0
  3  4  1  0  0  0  0
  3  5  1  0  0  0  0
  3  6  1  0  0  0  0
 38 41  1  0  0  0  0
 38 42  1  0  0  0  0
 38 43  1  0  0  0  0
 11 14  1  0  0  0  0
 11 15  1  0  0  0  0
 11 16  1  0  0  0  0
 45 47  1  0  0  0  0
 45 48  1  0  0  0  0
 45 49  1  0  0  0  0
 24 31  1  0  0  0  0
 24 32  1  0  0  0  0
 24 33  1  0  0  0  0
 21 27  1  0  0  0  0
 21 28  1  0  0  0  0
 22 29  1  0  0  0  0
 22 30  1  0  0  0  0
 35 40  1  0  0  0  0
  8 13  1  0  0  0  0
 18 26  1  0  0  0  0
 44 46  1  0  0  0  0
  7 12  1  0  0  0  0
 34 39  1  0  0  0  0
 17 25  1  0  0  0  0
M  END
$$$$

  -OEChem-05262214473D

 49 48  0     1  0  0  0  0  0999 V2000
   -0.0561   -5.3799    2.6949 C   0  0  0  0  0  0  0  0  0  0  0  0
    0.7325   -5.0736    3.5815 O   0  0  0  0  0  0  0  0  0  0  0  0
   -1.0067   -6.5099    2.9135 C   0  0  0  0  0  0  0  0  0  0  0  0
   -0.5910   -7.4777    2.5899 H   0  0  0  0  0  0  0  0  0  0  0  0
   -1.2629   -6.6440    3.9767 H   0  0  0  0  0  0  0  0  0  0  0  0
   -1.9729   -6.4206    2.3918 H   0  0  0  0  0  0  0  0  0  0  0  0
   -0.1735   -4.7694    1.4571 N   0  0  0  0  0  0  0  0  0  0  0  0
    0.6439   -3.6603    1.0409 C   0  0  2  0  0  0  0  0  0  0  0  0
   -0.2788   -2.5625    0.5280 C   0  0  0  0  0  0  0  0  0  0  0  0
   -1.4197   -2.7791    0.1251 O   0  0  0  0  0  0  0  0  0  0  0  0
    1.6395   -4.0779   -0.0301 C   0  0  0  0  0  0  0  0  0  0  0  0
   -0.8741   -5.1235    0.8083 H   0  0  0  0  0  0  0  0  0  0  0  0
    1.1738   -3.3062    1.9318 H   0  0  0  0  0  0  0  0  0  0  0  0
    1.1270   -4.4358   -0.9305 H   0  0  0  0  0  0  0  0  0  0  0  0
    2.2797   -3.2400   -0.3251 H   0  0  0  0  0  0  0  0  0  0  0  0
    2.2827   -4.8880    0.3303 H   0  0  0  0  0  0  0  0  0  0  0  0
    0.3351   -1.3153    0.5316 N   0  0  0  0  0  0  0  0  0  0  0  0
   -0.3268   -0.1184    0.0807 C   0  0  2  0  0  0  0  0  0  0  0  0
   -1.8249   -0.3914   -0.0120 C   0  0  0  0  0  0  0  0  0  0  0  0
   -2.3567   -1.3811    0.4871 O   0  0  0  0  0  0  0  0  0  0  0  0
    0.2643    0.4098   -1.2336 C   0  0  0  0  0  0  0  0  0  0  0  0
    1.7083    0.9003   -1.1042 C   0  0  0  0  0  0  0  0  0  0  0  0
    1.8103    2.2765    0.0789 S   0  0  0  0  0  0  0  0  0  0  0  0
    0.9350    3.5221   -0.8946 C   0  0  0  0  0  0  0  0  0  0  0  0
    1.2790   -1.2290    0.9021 H   0  0  0  0  0  0  0  0  0  0  0  0
   -0.1664    0.6270    0.8692 H   0  0  0  0  0  0  0  0  0  0  0  0
   -0.3688    1.2330   -1.5911 H   0  0  0  0  0  0  0  0  0  0  0  0
    0.2157   -0.3825   -1.9916 H   0  0  0  0  0  0  0  0  0  0  0  0
    2.0893    1.2561   -2.0661 H   0  0  0  0  0  0  0  0  0  0  0  0
    2.3660    0.1005   -0.7511 H   0  0  0  0  0  0  0  0  0  0  0  0
    0.8857    4.4614   -0.3385 H   0  0  0  0  0  0  0  0  0  0  0  0
   -0.0809    3.1802   -1.1075 H   0  0  0  0  0  0  0  0  0  0  0  0
    1.4599    3.6923   -1.8378 H   0  0  0  0  0  0  0  0  0  0  0  0
   -2.4915    0.5808   -0.7438 N   0  0  0  0  0  0  0  0  0  0  0  0
   -3.9150    0.5353   -0.9825 C   0  0  2  0  0  0  0  0  0  0  0  0
   -4.1675    1.0001   -2.4107 C   0  0  0  0  0  0  0  0  0  0  0  0
   -3.3764    1.7016   -3.0376 O   0  0  0  0  0  0  0  0  0  0  0  0
   -4.6709    1.4019    0.0128 C   0  0  0  0  0  0  0  0  0  0  0  0
   -1.9764    1.3815   -1.0977 H   0  0  0  0  0  0  0  0  0  0  0  0
   -4.2197   -0.5118   -0.8793 H   0  0  0  0  0  0  0  0  0  0  0  0
   -4.3788    2.4546   -0.0757 H   0  0  0  0  0  0  0  0  0  0  0  0
   -5.7519    1.3439   -0.1515 H   0  0  0  0  0  0  0  0  0  0  0  0
   -4.4646    1.0850    1.0408 H   0  0  0  0  0  0  0  0  0  0  0  0
   -5.3997    0.5752   -2.8876 N   0  0  0  0  0  0  0  0  0  0  0  0
   -5.8765    0.8981   -4.2121 C   0  0  0  0  0  0  0  0  0  0  0  0
   -5.9828   -0.0191   -2.3057 H   0  0  0  0  0  0  0  0  0  0  0  0
   -6.4766    1.8191   -4.1720 H   0  0  0  0  0  0  0  0  0  0  0  0
   -5.0186    1.0486   -4.8840 H   0  0  0  0  0  0  0  0  0  0  0  0
   -6.4974    0.0722   -4.5896 H   0  0  0  0  0  0  0  0  0  0  0  0
  1  3  1  0  0  0  0
  1  7  1  0  0  0  0
  1  2  2  0  0  0  0
 35 36  1  0  0  0  0
 36 44  1  0  0  0  0
 36 37  2  0  0  0  0
  8  9  1  0  0  0  0
  9 17  1  0  0  0  0
  9 10  2  0  0  0  0
 18 19  1  0  0  0  0
 19 34  1  0  0  0  0
 19 20  2  0  0  0  0
 35 38  1  0  0  0  0
  8 11  1  0  0  0  0
 44 45  1  0  0  0  0
 23 24  1  0  0  0  0
 21 22  1  0  0  0  0
 18 21  1  0  0  0  0
 22 23  1  0  0  0  0
 34 35  1  0  0  0  0
  7  8  1  0  0  0  0
 17 18  1  0  0  0  0
  3  4  1  0  0  0  0
  3  5  1  0  0  0  0
  3  6  1  0  0  0  0
 38 41  1  0  0  0  0
 38 42  1  0  0  0  0
 38 43  1  0  0  0  0
 11 14  1  0  0  0  0
 11 15  1  0  0  0  0
 11 16  1  0  0  0  0
 45 47  1  0  0  0  0
 45 48  1  0  0  0  0
 45 49  1  0  0  0  0
 24 31  1  0  0  0  0
 24 32  1  0  0  0  0
 24 33  1  0  0  0  0
 21 27  1  0  0  0  0
 21 28  1  0  0  0  0
 22 29  1  0  0  0  0
 22 30  1  0  0  0  0
 35 40  1  0  0  0  0
  8 13  1  0  0  0  0
 18 26  1  0  0  0  0
 44 46  1  0  0  0  0
  7 12  1  0  0  0  0
 34 39  1  0  0  0  0
 17 25  1  0  0  0  0
M  END
$$$$

  -OEChem-05262214473D

 49 48  0     1  0  0  0  0  0999 V2000
   -0.0561   -5.3799    2.6949 C   0  0  0  0  0  0  0  0  0  0  0  0
    0.7325   -5.0736    3.5815 O   0  0  0  0  0  0  0  0  0  0  0  0
   -1.0067   -6.5099    2.9135 C   0  0  0  0  0  0  0  0  0  0  0  0
   -0.5910   -7.4777    2.5899 H   0  0  0  0  0  0  0  0  0  0  0  0
   -1.2629   -6.6440    3.9767 H   0  0  0  0  0  0  0  0  0  0  0  0
   -1.9729   -6.4206    2.3918 H   0  0  0  0  0  0  0  0  0  0  0  0
   -0.1735   -4.7694    1.4571 N   0  0  0  0  0  0  0  0  0  0  0  0
    0.6439   -3.6603    1.0409 C   0  0  2  0  0  0  0  0  0  0  0  0
   -0.2788   -2.5625    0.5280 C   0  0  0  0  0  0  0  0  0  0  0  0
   -1.4197   -2.7791    0.1251 O   0  0  0  0  0  0  0  0  0  0  0  0
    1.6395   -4.0779   -0.0301 C   0  0  0  0  0  0  0  0  0  0  0  0
   -0.8741   -5.1235    0.8083 H   0  0  0  0  0  0  0  0  0  0  0  0
    1.1738   -3.3062    1.9318 H   0  0  0  0  0  0  0  0  0  0  0  0
    1.1270   -4.4358   -0.9305 H   0  0  0  0  0  0  0  0  0  0  0  0
    2.2797   -3.2400   -0.3251 H   0  0  0  0  0  0  0  0  0  0  0  0
    2.2827   -4.8880    0.3303 H   0  0  0  0  0  0  0  0  0  0  0  0
    0.3351   -1.3153    0.5316 N   0  0  0  0  0  0  0  0  0  0  0  0
   -0.3268   -0.1184    0.0807 C   0  0  2  0  0  0  0  0  0  0  0  0
   -1.8249   -0.3914   -0.0120 C   0  0  0  0  0  0  0  0  0  0  0  0
   -2.3996   -1.2162    0.6956 O   0  0  0  0  0  0  0  0  0  0  0  0
    0.2643    0.4098   -1.2336 C   0  0  0  0  0  0  0  0  0  0  0  0
    1.7083    0.9003   -1.1042 C   0  0  0  0  0  0  0  0  0  0  0  0
    1.8103    2.2765    0.0789 S   0  0  0  0  0  0  0  0  0  0  0  0
    0.9350    3.5221   -0.8946 C   0  0  0  0  0  0  0  0  0  0  0  0
    1.2790   -1.2290    0.9021 H   0  0  0  0  0  0  0  0  0  0  0  0
   -0.1664    0.6270    0.8692 H   0  0  0  0  0  0  0  0  0  0  0  0
   -0.3688    1.2330   -1.5911 H   0  0  0  0  0  0  0  0  0  0  0  0
    0.2157   -0.3825   -1.9916 H   0  0  0  0  0  0  0  0  0  0  0  0
    2.0893    1.2561   -2.0661 H   0  0  0  0  0  0  0  0  0  0  0  0
    2.3660    0.1005   -0.7511 H   0  0  0  0  0  0  0  0  0  0  0  0
    0.8857    4.4614   -0.3385 H   0  0  0  0  0  0  0  0  0  0  0  0
   -0.0809    3.1802   -1.1075 H   0  0  0  0  0  0  0  0  0  0  0  0
    1.4599    3.6923   -1.8378 H   0  0  0  0  0  0  0  0  0  0  0  0
   -2.4371    0.3690   -0.9980 N   0  0  0  0  0  0  0  0  0  0  0  0
   -3.8494    0.2781   -1.2858 C   0  0  2  0  0  0  0  0  0  0  0  0
   -4.0282    0.3665   -2.7957 C   0  0  0  0  0  0  0  0  0  0  0  0
   -3.1950    0.8776   -3.5411 O   0  0  0  0  0  0  0  0  0  0  0  0
   -4.6295    1.3767   -0.5808 C   0  0  0  0  0  0  0  0  0  0  0  0
   -1.8896    1.0482   -1.5181 H   0  0  0  0  0  0  0  0  0  0  0  0
   -4.1810   -0.7053   -0.9351 H   0  0  0  0  0  0  0  0  0  0  0  0
   -4.3111    2.3695   -0.9193 H   0  0  0  0  0  0  0  0  0  0  0  0
   -5.7033    1.2894   -0.7771 H   0  0  0  0  0  0  0  0  0  0  0  0
   -4.4760    1.3300    0.5027 H   0  0  0  0  0  0  0  0  0  0  0  0
   -5.2470   -0.1538   -3.2082 N   0  0  0  0  0  0  0  0  0  0  0  0
   -5.6575   -0.1740   -4.5927 C   0  0  0  0  0  0  0  0  0  0  0  0
   -5.8681   -0.5746   -2.5234 H   0  0  0  0  0  0  0  0  0  0  0  0
   -6.2387    0.7327   -4.8167 H   0  0  0  0  0  0  0  0  0  0  0  0
   -4.7677   -0.2079   -5.2385 H   0  0  0  0  0  0  0  0  0  0  0  0
   -6.2789   -1.0626   -4.7778 H   0  0  0  0  0  0  0  0  0  0  0  0
  1  3  1  0  0  0  0
  1  7  1  0  0  0  0
  1  2  2  0  0  0  0
 35 36  1  0  0  0  0
 36 44  1  0  0  0  0
 36 37  2  0  0  0  0
  8  9  1  0  0  0  0
  9 17  1  0  0  0  0
  9 10  2  0  0  0  0
 18 19  1  0  0  0  0
 19 34  1  0  0  0  0
 19 20  2  0  0  0  0
 35 38  1  0  0  0  0
  8 11  1  0  0  0  0
 44 45  1  0  0  0  0
 23 24  1  0  0  0  0
 21 22  1  0  0  0  0
 18 21  1  0  0  0  0
 22 23  1  0  0  0  0
 34 35  1  0  0  0  0
  7  8  1  0  0  0  0
 17 18  1  0  0  0  0
  3  4  1  0  0  0  0
  3  5  1  0  0  0  0
  3  6  1  0  0  0  0
 38 41  1  0  0  0  0
 38 42  1  0  0  0  0
 38 43  1  0  0  0  0
 11 14  1  0  0  0  0
 11 15  1  0  0  0  0
 11 16  1  0  0  0  0
 45 47  1  0  0  0  0
 45 48  1  0  0  0  0
 45 49  1  0  0  0  0
 24 31  1  0  0  0  0
 24 32  1  0  0  0  0
 24 33  1  0  0  0  0
 21 27  1  0  0  0  0
 21 28  1  0  0  0  0
 22 29  1  0  0  0  0
 22 30  1  0  0  0  0
 35 40  1  0  0  0  0
  8 13  1  0  0  0  0
 18 26  1  0  0  0  0
 44 46  1  0  0  0  0
  7 12  1  0  0  0  0
 34 39  1  0  0  0  0
 17 25  1  0  0  0  0
M  END
$$$$

  -OEChem-05262214473D

 49 48  0     1  0  0  0  0  0999 V2000
   -0.0561   -5.3799    2.6949 C   0  0  0  0  0  0  0  0  0  0  0  0
    0.7325   -5.0736    3.5815 O   0  0  0  0  0  0  0  0  0  0  0  0
   -1.0067   -6.5099    2.9135 C   0  0  0  0  0  0  0  0  0  0  0  0
   -0.5910   -7.4777    2.5899 H   0  0  0  0  0  0  0  0  0  0  0  0
   -1.2629   -6.6440    3.9767 H   0  0  0  0  0  0  0  0  0  0  0  0
   -1.9729   -6.4206    2.3918 H   0  0  0  0  0  0  0  0  0  0  0  0
   -0.1735   -4.7694    1.4571 N   0  0  0  0  0  0  0  0  0  0  0  0
    0.6439   -3.6603    1.0409 C   0  0  2  0  0  0  0  0  0  0  0  0
   -0.2788   -2.5625    0.5280 C   0  0  0  0  0  0  0  0  0  0  0  0
   -1.4197   -2.7791    0.1251 O   0  0  0  0  0  0  0  0  0  0  0  0
    1.6395   -4.0779   -0.0301 C   0  0  0  0  0  0  0  0  0  0  0  0
   -0.8741   -5.1235    0.8083 H   0  0  0  0  0  0  0  0  0  0  0  0
    1.1738   -3.3062    1.9318 H   0  0  0  0  0  0  0  0  0  0  0  0
    1.1270   -4.4358   -0.9305 H   0  0  0  0  0  0  0  0  0  0  0  0
    2.2797   -3.2400   -0.3251 H   0  0  0  0  0  0  0  0  0  0  0  0
    2.2827   -4.8880    0.3303 H   0  0  0  0  0  0  0  0  0  0  0  0
    0.3351   -1.3153    0.5316 N   0  0  0  0  0  0  0  0  0  0  0  0
   -0.3268   -0.1184    0.0807 C   0  0  2  0  0  0  0  0  0  0  0  0
   -1.8249   -0.3914   -0.0120 C   0  0  0  0  0  0  0  0  0  0  0  0
   -2.4482   -1.0033    0.8531 O   0  0  0  0  0  0  0  0  0  0  0  0
    0.2643    0.4098   -1.2336 C   0  0  0  0  0  0  0  0  0  0  0  0
    1.7083    0.9003   -1.1042 C   0  0  0  0  0  0  0  0  0  0  0  0
    1.8103    2.2765    0.0789 S   0  0  0  0  0  0  0  0  0  0  0  0
    0.9350    3.5221   -0.8946 C   0  0  0  0  0  0  0  0  0  0  0  0
    1.2790   -1.2290    0.9021 H   0  0  0  0  0  0  0  0  0  0  0  0
   -0.1664    0.6270    0.8692 H   0  0  0  0  0  0  0  0  0  0  0  0
   -0.3688    1.2330   -1.5911 H   0  0  0  0  0  0  0  0  0  0  0  0
    0.2157   -0.3825   -1.9916 H   0  0  0  0  0  0  0  0  0  0  0  0
    2.0893    1.2561   -2.0661 H   0  0  0  0  0  0  0  0  0  0  0  0
    2.3660    0.1005   -0.7511 H   0  0  0  0  0  0  0  0  0  0  0  0
    0.8857    4.4614   -0.3385 H   0  0  0  0  0  0  0  0  0  0  0  0
   -0.0809    3.1802   -1.1075 H   0  0  0  0  0  0  0  0  0  0  0  0
    1.4599    3.6923   -1.8378 H   0  0  0  0  0  0  0  0  0  0  0  0
   -2.3762    0.0989   -1.1871 N   0  0  0  0  0  0  0  0  0  0  0  0
   -3.7759   -0.0485   -1.5104 C   0  0  2  0  0  0  0  0  0  0  0  0
   -3.8858   -0.3456   -3.0001 C   0  0  0  0  0  0  0  0  0  0  0  0
   -3.0095   -0.0492   -3.8096 O   0  0  0  0  0  0  0  0  0  0  0  0
   -4.5625    1.2010   -1.1459 C   0  0  0  0  0  0  0  0  0  0  0  0
   -1.7916    0.6180   -1.8354 H   0  0  0  0  0  0  0  0  0  0  0  0
   -4.1440   -0.9069   -0.9381 H   0  0  0  0  0  0  0  0  0  0  0  0
   -4.2079    2.0717   -1.7094 H   0  0  0  0  0  0  0  0  0  0  0  0
   -5.6282    1.0770   -1.3652 H   0  0  0  0  0  0  0  0  0  0  0  0
   -4.4582    1.4300   -0.0798 H   0  0  0  0  0  0  0  0  0  0  0  0
   -5.0961   -0.9418   -3.3255 N   0  0  0  0  0  0  0  0  0  0  0  0
   -5.4453   -1.3097   -4.6778 C   0  0  0  0  0  0  0  0  0  0  0  0
   -5.7559   -1.1684   -2.5872 H   0  0  0  0  0  0  0  0  0  0  0  0
   -5.9960   -0.4843   -5.1523 H   0  0  0  0  0  0  0  0  0  0  0  0
   -4.5286   -1.5155   -5.2499 H   0  0  0  0  0  0  0  0  0  0  0  0
   -6.0770   -2.2101   -4.6611 H   0  0  0  0  0  0  0  0  0  0  0  0
  1  3  1  0  0  0  0
  1  7  1  0  0  0  0
  1  2  2  0  0  0  0
 35 36  1  0  0  0  0
 36 44  1  0  0  0  0
 36 37  2  0  0  0  0
  8  9  1  0  0  0  0
  9 17  1  0  0  0  0
  9 10  2  0  0  0  0
 18 19  1  0  0  0  0
 19 34  1  0  0  0  0
 19 20  2  0  0  0  0
 35 38  1  0  0  0  0
  8 11  1  0  0  0  0
 44 45  1  0  0  0  0
 23 24  1  0  0  0  0
 21 22  1  0  0  0  0
 18 21  1  0  0  0  0
 22 23  1  0  0  0  0
 34 35  1  0  0  0  0
  7  8  1  0  0  0  0
 17 18  1  0  0  0  0
  3  4  1  0  0  0  0
  3  5  1  0  0  0  0
  3  6  1  0  0  0  0
 38 41  1  0  0  0  0
 38 42  1  0  0  0  0
 38 43  1  0  0  0  0
 11 14  1  0  0  0  0
 11 15  1  0  0  0  0
 11 16  1  0  0  0  0
 45 47  1  0  0  0  0
 45 48  1  0  0  0  0
 45 49  1  0  0  0  0
 24 31  1  0  0  0  0
 24 32  1  0  0  0  0
 24 33  1  0  0  0  0
 21 27  1  0  0  0  0
 21 28  1  0  0  0  0
 22 29  1  0  0  0  0
 22 30  1  0  0  0  0
 35 40  1  0  0  0  0
  8 13  1  0  0  0  0
 18 26  1  0  0  0  0
 44 46  1  0  0  0  0
  7 12  1  0  0  0  0
 34 39  1  0  0  0  0
 17 25  1  0  0  0  0
M  END
$$$$

  -OEChem-05262214473D

 49 48  0     1  0  0  0  0  0999 V2000
   -0.0561   -5.3799    2.6949 C   0  0  0  0  0  0  0  0  0  0  0  0
    0.7325   -5.0736    3.5815 O   0  0  0  0  0  0  0  0  0  0  0  0
   -1.0067   -6.5099    2.9135 C   0  0  0  0  0  0  0  0  0  0  0  0
   -0.5910   -7.4777    2.5899 H   0  0  0  0  0  0  0  0  0  0  0  0
   -1.2629   -6.6440    3.9767 H   0  0  0  0  0  0  0  0  0  0  0  0
   -1.9729   -6.4206    2.3918 H   0  0  0  0  0  0  0  0  0  0  0  0
   -0.1735   -4.7694    1.4571 N   0  0  0  0  0  0  0  0  0  0  0  0
    0.6439   -3.6603    1.0409 C   0  0  2  0  0  0  0  0  0  0  0  0
   -0.2788   -2.5625    0.5280 C   0  0  0  0  0  0  0  0  0  0  0  0
   -1.4197   -2.7791    0.1251 O   0  0  0  0  0  0  0  0  0  0  0  0
    1.6395   -4.0779   -0.0301 C   0  0  0  0  0  0  0  0  0  0  0  0
   -0.8741   -5.1235    0.8083 H   0  0  0  0  0  0  0  0  0  0  0  0
    1.1738   -3.3062    1.9318 H   0  0  0  0  0  0  0  0  0  0  0  0
    1.1270   -4.4358   -0.9305 H   0  0  0  0  0  0  0  0  0  0  0  0
    2.2797   -3.2400   -0.3251 H   0  0  0  0  0  0  0  0  0  0  0  0
    2.2827   -4.8880    0.3303 H   0  0  0  0  0  0  0  0  0  0  0  0
    0.3351   -1.3153    0.5316 N   0  0  0  0  0  0  0  0  0  0  0  0
   -0.3268   -0.1184    0.0807 C   0  0  2  0  0  0  0  0  0  0  0  0
   -1.8249   -0.3914   -0.0120 C   0  0  0  0  0  0  0  0  0  0  0  0
   -2.4990   -0.7569    0.9489 O   0  0  0  0  0  0  0  0  0  0  0  0
    0.2643    0.4098   -1.2336 C   0  0  0  0  0  0  0  0  0  0  0  0
    1.7083    0.9003   -1.1042 C   0  0  0  0  0  0  0  0  0  0  0  0
    1.8103    2.2765    0.0789 S   0  0  0  0  0  0  0  0  0  0  0  0
    0.9350    3.5221   -0.8946 C   0  0  0  0  0  0  0  0  0  0  0  0
    1.2790   -1.2290    0.9021 H   0  0  0  0  0  0  0  0  0  0  0  0
   -0.1664    0.6270    0.8692 H   0  0  0  0  0  0  0  0  0  0  0  0
   -0.3688    1.2330   -1.5911 H   0  0  0  0  0  0  0  0  0  0  0  0
    0.2157   -0.3825   -1.9916 H   0  0  0  0  0  0  0  0  0  0  0  0
    2.0893    1.2561   -2.0661 H   0  0  0  0  0  0  0  0  0  0  0  0
    2.3660    0.1005   -0.7511 H   0  0  0  0  0  0  0  0  0  0  0  0
    0.8857    4.4614   -0.3385 H   0  0  0  0  0  0  0  0  0  0  0  0
   -0.0809    3.1802   -1.1075 H   0  0  0  0  0  0  0  0  0  0  0  0
    1.4599    3.6923   -1.8378 H   0  0  0  0  0  0  0  0  0  0  0  0
   -2.3128   -0.2110   -1.2983 N   0  0  0  0  0  0  0  0  0  0  0  0
   -3.6997   -0.4221   -1.6409 C   0  0  2  0  0  0  0  0  0  0  0  0
   -3.7499   -1.0875   -3.0099 C   0  0  0  0  0  0  0  0  0  0  0  0
   -2.8324   -1.0155   -3.8248 O   0  0  0  0  0  0  0  0  0  0  0  0
   -4.4744    0.8865   -1.6439 C   0  0  0  0  0  0  0  0  0  0  0  0
   -1.6889    0.1203   -2.0281 H   0  0  0  0  0  0  0  0  0  0  0  0
   -4.1114   -1.1030   -0.8880 H   0  0  0  0  0  0  0  0  0  0  0  0
   -4.0763    1.5816   -2.3921 H   0  0  0  0  0  0  0  0  0  0  0  0
   -5.5317    0.7212   -1.8759 H   0  0  0  0  0  0  0  0  0  0  0  0
   -4.4124    1.3784   -0.6671 H   0  0  0  0  0  0  0  0  0  0  0  0
   -4.9573   -1.7351   -3.2315 N   0  0  0  0  0  0  0  0  0  0  0  0
   -5.2541   -2.4317   -4.4614 C   0  0  0  0  0  0  0  0  0  0  0  0
   -5.6539   -1.7599   -2.4927 H   0  0  0  0  0  0  0  0  0  0  0  0
   -5.7653   -1.7489   -5.1560 H   0  0  0  0  0  0  0  0  0  0  0  0
   -4.3177   -2.7852   -4.9176 H   0  0  0  0  0  0  0  0  0  0  0  0
   -5.9054   -3.2920   -4.2474 H   0  0  0  0  0  0  0  0  0  0  0  0
  1  3  1  0  0  0  0
  1  7  1  0  0  0  0
  1  2  2  0  0  0  0
 35 36  1  0  0  0  0
 36 44  1  0  0  0  0
 36 37  2  0  0  0  0
  8  9  1  0  0  0  0
  9 17  1  0  0  0  0
  9 10  2  0  0  0  0
 18 19  1  0  0  0  0
 19 34  1  0  0  0  0
 19 20  2  0  0  0  0
 35 38  1  0  0  0  0
  8 11  1  0  0  0  0
 44 45  1  0  0  0  0
 23 24  1  0  0  0  0
 21 22  1  0  0  0  0
 18 21  1  0  0  0  0
 22 23  1  0  0  0  0
 34 35  1  0  0  0  0
  7  8  1  0  0  0  0
 17 18  1  0  0  0  0
  3  4  1  0  0  0  0
  3  5  1  0  0  0  0
  3  6  1  0  0  0  0
 38 41  1  0  0  0  0
 38 42  1  0  0  0  0
 38 43  1  0  0  0  0
 11 14  1  0  0  0  0
 11 15  1  0  0  0  0
 11 16  1  0  0  0  0
 45 47  1  0  0  0  0
 45 48  1  0  0  0  0
 45 49  1  0  0  0  0
 24 31  1  0  0  0  0
 24 32  1  0  0  0  0
 24 33  1  0  0  0  0
 21 27  1  0  0  0  0
 21 28  1  0  0  0  0
 22 29  1  0  0  0  0
 22 30  1  0  0  0  0
 35 40  1  0  0  0  0
  8 13  1  0  0  0  0
 18 26  1  0  0  0  0
 44 46  1  0  0  0  0
  7 12  1  0  0  0  0
 34 39  1  0  0  0  0
 17 25  1  0  0  0  0
M  END
$$$$

  -OEChem-05262214473D

 49 48  0     1  0  0  0  0  0999 V2000
   -0.0561   -5.3799    2.6949 C   0  0  0  0  0  0  0  0  0  0  0  0
    0.7325   -5.0736    3.5815 O   0  0  0  0  0  0  0  0  0  0  0  0
   -1.0067   -6.5099    2.9135 C   0  0  0  0  0  0  0  0  0  0  0  0
   -0.5910   -7.4777    2.5899 H   0  0  0  0  0  0  0  0  0  0  0  0
   -1.2629   -6.6440    3.9767 H   0  0  0  0  0  0  0  0  0  0  0  0
   -1.9729   -6.4206    2.3918 H   0  0  0  0  0  0  0  0  0  0  0  0
   -0.1735   -4.7694    1.4571 N   0  0  0  0  0  0  0  0  0  0  0  0
    0.6439   -3.6603    1.0409 C   0  0  2  0  0  0  0  0  0  0  0  0
   -0.2788   -2.5625    0.5280 C   0  0  0  0  0  0  0  0  0  0  0  0
   -1.4197   -2.7791    0.1251 O   0  0  0  0  0  0  0  0  0  0  0  0
    1.6395   -4.0779   -0.0301 C   0  0  0  0  0  0  0  0  0  0  0  0
   -0.8741   -5.1235    0.8083 H   0  0  0  0  0  0  0  0  0  0  0  0
    1.1738   -3.3062    1.9318 H   0  0  0  0  0  0  0  0  0  0  0  0
    1.1270   -4.4358   -0.9305 H   0  0  0  0  0  0  0  0  0  0  0  0
    2.2797   -3.2400   -0.3251 H   0  0  0  0  0  0  0  0  0  0  0  0
    2.2827   -4.8880    0.3303 H   0  0  0  0  0  0  0  0  0  0  0  0
    0.3351   -1.3153    0.5316 N   0  0  0  0  0  0  0  0  0  0  0  0
   -0.3268   -0.1184    0.0807 C   0  0  2  0  0  0  0  0  0  0  0  0
   -1.8249   -0.3914   -0.0120 C   0  0  0  0  0  0  0  0  0  0  0  0
   -2.5487   -0.4937    0.9764 O   0  0  0  0  0  0  0  0  0  0  0  0
    0.2643    0.4098   -1.2336 C   0  0  0  0  0  0  0  0  0  0  0  0
    1.7083    0.9003   -1.1042 C   0  0  0  0  0  0  0  0  0  0  0  0
    1.8103    2.2765    0.0789 S   0  0  0  0  0  0  0  0  0  0  0  0
    0.9350    3.5221   -0.8946 C   0  0  0  0  0  0  0  0  0  0  0  0
    1.2790   -1.2290    0.9021 H   0  0  0  0  0  0  0  0  0  0  0  0
   -0.1664    0.6270    0.8692 H   0  0  0  0  0  0  0  0  0  0  0  0
   -0.3688    1.2330   -1.5911 H   0  0  0  0  0  0  0  0  0  0  0  0
    0.2157   -0.3825   -1.9916 H   0  0  0  0  0  0  0  0  0  0  0  0
    2.0893    1.2561   -2.0661 H   0  0  0  0  0  0  0  0  0  0  0  0
    2.3660    0.1005   -0.7511 H   0  0  0  0  0  0  0  0  0  0  0  0
    0.8857    4.4614   -0.3385 H   0  0  0  0  0  0  0  0  0  0  0  0
   -0.0809    3.1802   -1.1075 H   0  0  0  0  0  0  0  0  0  0  0  0
    1.4599    3.6923   -1.8378 H   0  0  0  0  0  0  0  0  0  0  0  0
   -2.2514   -0.5396   -1.3240 N   0  0  0  0  0  0  0  0  0  0  0  0
   -3.6260   -0.8175   -1.6685 C   0  0  2  0  0  0  0  0  0  0  0  0
   -3.6299   -1.8089   -2.8246 C   0  0  0  0  0  0  0  0  0  0  0  0
   -2.6759   -1.9555   -3.5857 O   0  0  0  0  0  0  0  0  0  0  0  0
   -4.3711    0.4548   -2.0410 C   0  0  0  0  0  0  0  0  0  0  0  0
   -1.5887   -0.4111   -2.0829 H   0  0  0  0  0  0  0  0  0  0  0  0
   -4.0853   -1.2802   -0.7882 H   0  0  0  0  0  0  0  0  0  0  0  0
   -3.9253    0.9327   -2.9209 H   0  0  0  0  0  0  0  0  0  0  0  0
   -5.4205    0.2462   -2.2742 H   0  0  0  0  0  0  0  0  0  0  0  0
   -4.3418    1.1784   -1.2192 H   0  0  0  0  0  0  0  0  0  0  0  0
   -4.8401   -2.4797   -2.9327 N   0  0  0  0  0  0  0  0  0  0  0  0
   -5.0972   -3.4635   -3.9584 C   0  0  0  0  0  0  0  0  0  0  0  0
   -5.5691   -2.3089   -2.2464 H   0  0  0  0  0  0  0  0  0  0  0  0
   -5.5622   -2.9750   -4.8274 H   0  0  0  0  0  0  0  0  0  0  0  0
   -4.1494   -3.9306   -4.2641 H   0  0  0  0  0  0  0  0  0  0  0  0
   -5.7758   -4.2346   -3.5648 H   0  0  0  0  0  0  0  0  0  0  0  0
  1  3  1  0  0  0  0
  1  7  1  0  0  0  0
  1  2  2  0  0  0  0
 35 36  1  0  0  0  0
 36 44  1  0  0  0  0
 36 37  2  0  0  0  0
  8  9  1  0  0  0  0
  9 17  1  0  0  0  0
  9 10  2  0  0  0  0
 18 19  1  0  0  0  0
 19 34  1  0  0  0  0
 19 20  2  0  0  0  0
 35 38  1  0  0  0  0
  8 11  1  0  0  0  0
 44 45  1  0  0  0  0
 23 24  1  0  0  0  0
 21 22  1  0  0  0  0
 18 21  1  0  0  0  0
 22 23  1  0  0  0  0
 34 35  1  0  0  0  0
  7  8  1  0  0  0  0
 17 18  1  0  0  0  0
  3  4  1  0  0  0  0
  3  5  1  0  0  0  0
  3  6  1  0  0  0  0
 38 41  1  0  0  0  0
 38 42  1  0  0  0  0
 38 43  1  0  0  0  0
 11 14  1  0  0  0  0
 11 15  1  0  0  0  0
 11 16  1  0  0  0  0
 45 47  1  0  0  0  0
 45 48  1  0  0  0  0
 45 49  1  0  0  0  0
 24 31  1  0  0  0  0
 24 32  1  0  0  0  0
 24 33  1  0  0  0  0
 21 27  1  0  0  0  0
 21 28  1  0  0  0  0
 22 29  1  0  0  0  0
 22 30  1  0  0  0  0
 35 40  1  0  0  0  0
  8 13  1  0  0  0  0
 18 26  1  0  0  0  0
 44 46  1  0  0  0  0
  7 12  1  0  0  0  0
 34 39  1  0  0  0  0
 17 25  1  0  0  0  0
M  END
$$$$

  -OEChem-05262214473D

 49 48  0     1  0  0  0  0  0999 V2000
   -0.0561   -5.3799    2.6949 C   0  0  0  0  0  0  0  0  0  0  0  0
    0.7325   -5.0736    3.5815 O   0  0  0  0  0  0  0  0  0  0  0  0
   -1.0067   -6.5099    2.9135 C   0  0  0  0  0  0  0  0  0  0  0  0
   -0.5910   -7.4777    2.5899 H   0  0  0  0  0  0  0  0  0  0  0  0
   -1.2629   -6.6440    3.9767 H   0  0  0  0  0  0  0  0  0  0  0  0
   -1.9729   -6.4206    2.3918 H   0  0  0  0  0  0  0  0  0  0  0  0
   -0.1735   -4.7694    1.4571 N   0  0  0  0  0  0  0  0  0  0  0  0
    0.6439   -3.6603    1.0409 C   0  0  2  0  0  0  0  0  0  0  0  0
   -0.2788   -2.5625    0.5280 C   0  0  0  0  0  0  0  0  0  0  0  0
   -1.4197   -2.7791    0.1251 O   0  0  0  0  0  0  0  0  0  0  0  0
    1.6395   -4.0779   -0.0301 C   0  0  0  0  0  0  0  0  0  0  0  0
   -0.8741   -5.1235    0.8083 H   0  0  0  0  0  0  0  0  0  0  0  0
    1.1738   -3.3062    1.9318 H   0  0  0  0  0  0  0  0  0  0  0  0
    1.1270   -4.4358   -0.9305 H   0  0  0  0  0  0  0  0  0  0  0  0
    2.2797   -3.2400   -0.3251 H   0  0  0  0  0  0  0  0  0  0  0  0
    2.2827   -4.8880    0.3303 H   0  0  0  0  0  0  0  0  0  0  0  0
    0.3351   -1.3153    0.5316 N   0  0  0  0  0  0  0  0  0  0  0  0
   -0.3268   -0.1184    0.0807 C   0  0  2  0  0  0  0  0  0  0  0  0
   -1.8249   -0.3914   -0.0120 C   0  0  0  0  0  0  0  0  0  0  0  0
   -2.5938   -0.2317    0.9338 O   0  0  0  0  0  0  0  0  0  0  0  0
    0.2643    0.4098   -1.2336 C   0  0  0  0  0  0  0  0  0  0  0  0
    1.7083    0.9003   -1.1042 C   0  0  0  0  0  0  0  0  0  0  0  0
    1.8103    2.2765    0.0789 S   0  0  0  0  0  0  0  0  0  0  0  0
    0.9350    3.5221   -0.8946 C   0  0  0  0  0  0  0  0  0  0  0  0
    1.2790   -1.2290    0.9021 H   0  0  0  0  0  0  0  0  0  0  0  0
   -0.1664    0.6270    0.8692 H   0  0  0  0  0  0  0  0  0  0  0  0
   -0.3688    1.2330   -1.5911 H   0  0  0  0  0  0  0  0  0  0  0  0
    0.2157   -0.3825   -1.9916 H   0  0  0  0  0  0  0  0  0  0  0  0
    2.0893    1.2561   -2.0661 H   0  0  0  0  0  0  0  0  0  0  0  0
    2.3660    0.1005   -0.7511 H   0  0  0  0  0  0  0  0  0  0  0  0
    0.8857    4.4614   -0.3385 H   0  0  0  0  0  0  0  0  0  0  0  0
   -0.0809    3.1802   -1.1075 H   0  0  0  0  0  0  0  0  0  0  0  0
    1.4599    3.6923   -1.8378 H   0  0  0  0  0  0  0  0  0  0  0  0
   -2.1959   -0.8645   -1.2625 N   0  0  0  0  0  0  0  0  0  0  0  0
   -3.5597   -1.2075   -1.5912 C   0  0  2  0  0  0  0  0  0  0  0  0
   -3.5339   -2.4604   -2.4567 C   0  0  0  0  0  0  0  0  0  0  0  0
   -2.5505   -2.8052   -3.1086 O   0  0  0  0  0  0  0  0  0  0  0  0
   -4.2598   -0.0647   -2.3100 C   0  0  0  0  0  0  0  0  0  0  0  0
   -1.4977   -0.9398   -1.9962 H   0  0  0  0  0  0  0  0  0  0  0  0
   -4.0675   -1.4265   -0.6456 H   0  0  0  0  0  0  0  0  0  0  0  0
   -3.7651    0.1691   -3.2598 H   0  0  0  0  0  0  0  0  0  0  0  0
   -5.3020   -0.3155   -2.5331 H   0  0  0  0  0  0  0  0  0  0  0  0
   -4.2511    0.8439   -1.6983 H   0  0  0  0  0  0  0  0  0  0  0  0
   -4.7524   -3.1248   -2.4494 N   0  0  0  0  0  0  0  0  0  0  0  0
   -4.9852   -4.3347   -3.2030 C   0  0  0  0  0  0  0  0  0  0  0  0
   -5.5073   -2.7779   -1.8650 H   0  0  0  0  0  0  0  0  0  0  0  0
   -5.4005   -4.0790   -4.1890 H   0  0  0  0  0  0  0  0  0  0  0  0
   -4.0351   -4.8735   -3.3340 H   0  0  0  0  0  0  0  0  0  0  0  0
   -5.6971   -4.9736   -2.6599 H   0  0  0  0  0  0  0  0  0  0  0  0
  1  3  1  0  0  0  0
  1  7  1  0  0  0  0
  1  2  2  0  0  0  0
 35 36  1  0  0  0  0
 36 44  1  0  0  0  0
 36 37  2  0  0  0  0
  8  9  1  0  0  0  0
  9 17  1  0  0  0  0
  9 10  2  0  0  0  0
 18 19  1  0  0  0  0
 19 34  1  0  0  0  0
 19 20  2  0  0  0  0
 35 38  1  0  0  0  0
  8 11  1  0  0  0  0
 44 45  1  0  0  0  0
 23 24  1  0  0  0  0
 21 22  1  0  0  0  0
 18 21  1  0  0  0  0
 22 23  1  0  0  0  0
 34 35  1  0  0  0  0
  7  8  1  0  0  0  0
 17 18  1  0  0  0  0
  3  4  1  0  0  0  0
  3  5  1  0  0  0  0
  3  6  1  0  0  0  0
 38 41  1  0  0  0  0
 38 42  1  0  0  0  0
 38 43  1  0  0  0  0
 11 14  1  0  0  0  0
 11 15  1  0  0  0  0
 11 16  1  0  0  0  0
 45 47  1  0  0  0  0
 45 48  1  0  0  0  0
 45 49  1  0  0  0  0
 24 31  1  0  0  0  0
 24 32  1  0  0  0  0
 24 33  1  0  0  0  0
 21 27  1  0  0  0  0
 21 28  1  0  0  0  0
 22 29  1  0  0  0  0
 22 30  1  0  0  0  0
 35 40  1  0  0  0  0
  8 13  1  0  0  0  0
 18 26  1  0  0  0  0
 44 46  1  0  0  0  0
  7 12  1  0  0  0  0
 34 39  1  0  0  0  0
 17 25  1  0  0  0  0
M  END
$$$$

  -OEChem-05262214473D

 49 48  0     1  0  0  0  0  0999 V2000
   -0.0561   -5.3799    2.6949 C   0  0  0  0  0  0  0  0  0  0  0  0
    0.7325   -5.0736    3.5815 O   0  0  0  0  0  0  0  0  0  0  0  0
   -1.0067   -6.5099    2.9135 C   0  0  0  0  0  0  0  0  0  0  0  0
   -0.5910   -7.4777    2.5899 H   0  0  0  0  0  0  0  0  0  0  0  0
   -1.2629   -6.6440    3.9767 H   0  0  0  0  0  0  0  0  0  0  0  0
   -1.9729   -6.4206    2.3918 H   0  0  0  0  0  0  0  0  0  0  0  0
   -0.1735   -4.7694    1.4571 N   0  0  0  0  0  0  0  0  0  0  0  0
    0.6439   -3.6603    1.0409 C   0  0  2  0  0  0  0  0  0  0  0  0
   -0.2788   -2.5625    0.5280 C   0  0  0  0  0  0  0  0  0  0  0  0
   -1.4197   -2.7791    0.1251 O   0  0  0  0  0  0  0  0  0  0  0  0
    1.6395   -4.0779   -0.0301 C   0  0  0  0  0  0  0  0  0  0  0  0
   -0.8741   -5.1235    0.8083 H   0  0  0  0  0  0  0  0  0  0  0  0
    1.1738   -3.3062    1.9318 H   0  0  0  0  0  0  0  0  0  0  0  0
    1.1270   -4.4358   -0.9305 H   0  0  0  0  0  0  0  0  0  0  0  0
    2.2797   -3.2400   -0.3251 H   0  0  0  0  0  0  0  0  0  0  0  0
    2.2827   -4.8880    0.3303 H   0  0  0  0  0  0  0  0  0  0  0  0
    0.3351   -1.3153    0.5316 N   0  0  0  0  0  0  0  0  0  0  0  0
   -0.3268   -0.1184    0.0807 C   0  0  2  0  0  0  0  0  0  0  0  0
   -1.8249   -0.3914   -0.0120 C   0  0  0  0  0  0  0  0  0  0  0  0
   -2.6313    0.0112    0.8240 O   0  0  0  0  0  0  0  0  0  0  0  0
    0.2643    0.4098   -1.2336 C   0  0  0  0  0  0  0  0  0  0  0  0
    1.7083    0.9003   -1.1042 C   0  0  0  0  0  0  0  0  0  0  0  0
    1.8103    2.2765    0.0789 S   0  0  0  0  0  0  0  0  0  0  0  0
    0.9350    3.5221   -0.8946 C   0  0  0  0  0  0  0  0  0  0  0  0
    1.2790   -1.2290    0.9021 H   0  0  0  0  0  0  0  0  0  0  0  0
   -0.1664    0.6270    0.8692 H   0  0  0  0  0  0  0  0  0  0  0  0
   -0.3688    1.2330   -1.5911 H   0  0  0  0  0  0  0  0  0  0  0  0
    0.2157   -0.3825   -1.9916 H   0  0  0  0  0  0  0  0  0  0  0  0
    2.0893    1.2561   -2.0661 H   0  0  0  0  0  0  0  0  0  0  0  0
    2.3660    0.1005   -0.7511 H   0  0  0  0  0  0  0  0  0  0  0  0
    0.8857    4.4614   -0.3385 H   0  0  0  0  0  0  0  0  0  0  0  0
   -0.0809    3.1802   -1.1075 H   0  0  0  0  0  0  0  0  0  0  0  0
    1.4599    3.6923   -1.8378 H   0  0  0  0  0  0  0  0  0  0  0  0
   -2.1504   -1.1635   -1.1179 N   0  0  0  0  0  0  0  0  0  0  0  0
   -3.5053   -1.5656   -1.4144 C   0  0  2  0  0  0  0  0  0  0  0  0
   -3.4685   -2.9977   -1.9313 C   0  0  0  0  0  0  0  0  0  0  0  0
   -2.4649   -3.5067   -2.4260 O   0  0  0  0  0  0  0  0  0  0  0  0
   -4.1479   -0.6366   -2.4326 C   0  0  0  0  0  0  0  0  0  0  0  0
   -1.4221   -1.4300   -1.7739 H   0  0  0  0  0  0  0  0  0  0  0  0
   -4.0591   -1.5317   -0.4699 H   0  0  0  0  0  0  0  0  0  0  0  0
   -3.6067   -0.6571   -3.3856 H   0  0  0  0  0  0  0  0  0  0  0  0
   -5.1845   -0.9258   -2.6350 H   0  0  0  0  0  0  0  0  0  0  0  0
   -4.1467    0.3976   -2.0719 H   0  0  0  0  0  0  0  0  0  0  0  0
   -4.7002   -3.6265   -1.8145 N   0  0  0  0  0  0  0  0  0  0  0  0
   -4.9256   -4.9861   -2.2468 C   0  0  0  0  0  0  0  0  0  0  0  0
   -5.4725   -3.1349   -1.3745 H   0  0  0  0  0  0  0  0  0  0  0  0
   -5.2912   -4.9857   -3.2843 H   0  0  0  0  0  0  0  0  0  0  0  0
   -3.9826   -5.5496   -2.1906 H   0  0  0  0  0  0  0  0  0  0  0  0
   -5.6747   -5.4587   -1.5944 H   0  0  0  0  0  0  0  0  0  0  0  0
  1  3  1  0  0  0  0
  1  7  1  0  0  0  0
  1  2  2  0  0  0  0
 35 36  1  0  0  0  0
 36 44  1  0  0  0  0
 36 37  2  0  0  0  0
  8  9  1  0  0  0  0
  9 17  1  0  0  0  0
  9 10  2  0  0  0  0
 18 19  1  0  0  0  0
 19 34  1  0  0  0  0
 19 20  2  0  0  0  0
 35 38  1  0  0  0  0
  8 11  1  0  0  0  0
 44 45  1  0  0  0  0
 23 24  1  0  0  0  0
 21 22  1  0  0  0  0
 18 21  1  0  0  0  0
 22 23  1  0  0  0  0
 34 35  1  0  0  0  0
  7  8  1  0  0  0  0
 17 18  1  0  0  0  0
  3  4  1  0  0  0  0
  3  5  1  0  0  0  0
  3  6  1  0  0  0  0
 38 41  1  0  0  0  0
 38 42  1  0  0  0  0
 38 43  1  0  0  0  0
 11 14  1  0  0  0  0
 11 15  1  0  0  0  0
 11 16  1  0  0  0  0
 45 47  1  0  0  0  0
 45 48  1  0  0  0  0
 45 49  1  0  0  0  0
 24 31  1  0  0  0  0
 24 32  1  0  0  0  0
 24 33  1  0  0  0  0
 21 27  1  0  0  0  0
 21 28  1  0  0  0  0
 22 29  1  0  0  0  0
 22 30  1  0  0  0  0
 35 40  1  0  0  0  0
  8 13  1  0  0  0  0
 18 26  1  0  0  0  0
 44 46  1  0  0  0  0
  7 12  1  0  0  0  0
 34 39  1  0  0  0  0
 17 25  1  0  0  0  0
M  END
$$$$

  -OEChem-05262214473D

 49 48  0     1  0  0  0  0  0999 V2000
   -0.0561   -5.3799    2.6949 C   0  0  0  0  0  0  0  0  0  0  0  0
    0.7325   -5.0736    3.5815 O   0  0  0  0  0  0  0  0  0  0  0  0
   -1.0067   -6.5099    2.9135 C   0  0  0  0  0  0  0  0  0  0  0  0
   -0.5910   -7.4777    2.5899 H   0  0  0  0  0  0  0  0  0  0  0  0
   -1.2629   -6.6440    3.9767 H   0  0  0  0  0  0  0  0  0  0  0  0
   -1.9729   -6.4206    2.3918 H   0  0  0  0  0  0  0  0  0  0  0  0
   -0.1735   -4.7694    1.4571 N   0  0  0  0  0  0  0  0  0  0  0  0
    0.6439   -3.6603    1.0409 C   0  0  2  0  0  0  0  0  0  0  0  0
   -0.2788   -2.5625    0.5280 C   0  0  0  0  0  0  0  0  0  0  0  0
   -1.4197   -2.7791    0.1251 O   0  0  0  0  0  0  0  0  0  0  0  0
    1.6395   -4.0779   -0.0301 C   0  0  0  0  0  0  0  0  0  0  0  0
   -0.8741   -5.1235    0.8083 H   0  0  0  0  0  0  0  0  0  0  0  0
    1.1738   -3.3062    1.9318 H   0  0  0  0  0  0  0  0  0  0  0  0
    1.1270   -4.4358   -0.9305 H   0  0  0  0  0  0  0  0  0  0  0  0
    2.2797   -3.2400   -0.3251 H   0  0  0  0  0  0  0  0  0  0  0  0
    2.2827   -4.8880    0.3303 H   0  0  0  0  0  0  0  0  0  0  0  0
    0.3351   -1.3153    0.5316 N   0  0  0  0  0  0  0  0  0  0  0  0
   -0.3268   -0.1184    0.0807 C   0  0  2  0  0  0  0  0  0  0  0  0
   -1.8249   -0.3914   -0.0120 C   0  0  0  0  0  0  0  0  0  0  0  0
   -2.6586    0.2186    0.6544 O   0  0  0  0  0  0  0  0  0  0  0  0
    0.2643    0.4098   -1.2336 C   0  0  0  0  0  0  0  0  0  0  0  0
    1.7083    0.9003   -1.1042 C   0  0  0  0  0  0  0  0  0  0  0  0
    1.8103    2.2765    0.0789 S   0  0  0  0  0  0  0  0  0  0  0  0
    0.9350    3.5221   -0.8946 C   0  0  0  0  0  0  0  0  0  0  0  0
    1.2790   -1.2290    0.9021 H   0  0  0  0  0  0  0  0  0  0  0  0
   -0.1664    0.6270    0.8692 H   0  0  0  0  0  0  0  0  0  0  0  0
   -0.3688    1.2330   -1.5911 H   0  0  0  0  0  0  0  0  0  0  0  0
    0.2157   -0.3825   -1.9916 H   0  0  0  0  0  0  0  0  0  0  0  0
    2.0893    1.2561   -2.0661 H   0  0  0  0  0  0  0  0  0  0  0  0
    2.3660    0.1005   -0.7511 H   0  0  0  0  0  0  0  0  0  0  0  0
    0.8857    4.4614   -0.3385 H   0  0  0  0  0  0  0  0  0  0  0  0
   -0.0809    3.1802   -1.1075 H   0  0  0  0  0  0  0  0  0  0  0  0
    1.4599    3.6923   -1.8378 H   0  0  0  0  0  0  0  0  0  0  0  0
   -2.1178   -1.4164   -0.9002 N   0  0  0  0  0  0  0  0  0  0  0  0
   -3.4667   -1.8675   -1.1501 C   0  0  2  0  0  0  0  0  0  0  0  0
   -3.4381   -3.3843   -1.2842 C   0  0  0  0  0  0  0  0  0  0  0  0
   -2.4249   -4.0122   -1.5844 O   0  0  0  0  0  0  0  0  0  0  0  0
   -4.0432   -1.2220   -2.4006 C   0  0  0  0  0  0  0  0  0  0  0  0
   -1.3671   -1.8481   -1.4310 H   0  0  0  0  0  0  0  0  0  0  0  0
   -4.0609   -1.5889   -0.2730 H   0  0  0  0  0  0  0  0  0  0  0  0
   -3.4609   -1.4897   -3.2898 H   0  0  0  0  0  0  0  0  0  0  0  0
   -5.0758   -1.5431   -2.5728 H   0  0  0  0  0  0  0  0  0  0  0  0
   -4.0355   -0.1301   -2.3145 H   0  0  0  0  0  0  0  0  0  0  0  0
   -4.6872   -3.9506   -1.0714 N   0  0  0  0  0  0  0  0  0  0  0  0
   -4.9227   -5.3731   -1.1549 C   0  0  0  0  0  0  0  0  0  0  0  0
   -5.4673   -3.3557   -0.8084 H   0  0  0  0  0  0  0  0  0  0  0  0
   -5.2418   -5.6332   -2.1749 H   0  0  0  0  0  0  0  0  0  0  0  0
   -3.9956   -5.9130   -0.9120 H   0  0  0  0  0  0  0  0  0  0  0  0
   -5.7100   -5.6568   -0.4409 H   0  0  0  0  0  0  0  0  0  0  0  0
  1  3  1  0  0  0  0
  1  7  1  0  0  0  0
  1  2  2  0  0  0  0
 35 36  1  0  0  0  0
 36 44  1  0  0  0  0
 36 37  2  0  0  0  0
  8  9  1  0  0  0  0
  9 17  1  0  0  0  0
  9 10  2  0  0  0  0
 18 19  1  0  0  0  0
 19 34  1  0  0  0  0
 19 20  2  0  0  0  0
 35 38  1  0  0  0  0
  8 11  1  0  0  0  0
 44 45  1  0  0  0  0
 23 24  1  0  0  0  0
 21 22  1  0  0  0  0
 18 21  1  0  0  0  0
 22 23  1  0  0  0  0
 34 35  1  0  0  0  0
  7  8  1  0  0  0  0
 17 18  1  0  0  0  0
  3  4  1  0  0  0  0
  3  5  1  0  0  0  0
  3  6  1  0  0  0  0
 38 41  1  0  0  0  0
 38 42  1  0  0  0  0
 38 43  1  0  0  0  0
 11 14  1  0  0  0  0
 11 15  1  0  0  0  0
 11 16  1  0  0  0  0
 45 47  1  0  0  0  0
 45 48  1  0  0  0  0
 45 49  1  0  0  0  0
 24 31  1  0  0  0  0
 24 32  1  0  0  0  0
 24 33  1  0  0  0  0
 21 27  1  0  0  0  0
 21 28  1  0  0  0  0
 22 29  1  0  0  0  0
 22 30  1  0  0  0  0
 35 40  1  0  0  0  0
  8 13  1  0  0  0  0
 18 26  1  0  0  0  0
 44 46  1  0  0  0  0
  7 12  1  0  0  0  0
 34 39  1  0  0  0  0
 17 25  1  0  0  0  0
M  END
$$$$

  -OEChem-05262214473D

 49 48  0     1  0  0  0  0  0999 V2000
   -0.0561   -5.3799    2.6949 C   0  0  0  0  0  0  0  0  0  0  0  0
    0.7325   -5.0736    3.5815 O   0  0  0  0  0  0  0  0  0  0  0  0
   -1.0067   -6.5099    2.9135 C   0  0  0  0  0  0  0  0  0  0  0  0
   -0.5910   -7.4777    2.5899 H   0  0  0  0  0  0  0  0  0  0  0  0
   -1.2629   -6.6440    3.9767 H   0  0  0  0  0  0  0  0  0  0  0  0
   -1.9729   -6.4206    2.3918 H   0  0  0  0  0  0  0  0  0  0  0  0
   -0.1735   -4.7694    1.4571 N   0  0  0  0  0  0  0  0  0  0  0  0
    0.6439   -3.6603    1.0409 C   0  0  2  0  0  0  0  0  0  0  0  0
   -0.2788   -2.5625    0.5280 C   0  0  0  0  0  0  0  0  0  0  0  0
   -1.4197   -2.7791    0.1251 O   0  0  0  0  0  0  0  0  0  0  0  0
    1.6395   -4.0779   -0.0301 C   0  0  0  0  0  0  0  0  0  0  0  0
   -0.8741   -5.1235    0.8083 H   0  0  0  0  0  0  0  0  0  0  0  0
    1.1738   -3.3062    1.9318 H   0  0  0  0  0  0  0  0  0  0  0  0
    1.1270   -4.4358   -0.9305 H   0  0  0  0  0  0  0  0  0  0  0  0
    2.2797   -3.2400   -0.3251 H   0  0  0  0  0  0  0  0  0  0  0  0
    2.2827   -4.8880    0.3303 H   0  0  0  0  0  0  0  0  0  0  0  0
    0.3351   -1.3153    0.5316 N   0  0  0  0  0  0  0  0  0  0  0  0
   -0.3268   -0.1184    0.0807 C   0  0  2  0  0  0  0  0  0  0  0  0
   -1.8249   -0.3914   -0.0120 C   0  0  0  0  0  0  0  0  0  0  0  0
   -2.6738    0.3762    0.4366 O   0  0  0  0  0  0  0  0  0  0  0  0
    0.2643    0.4098   -1.2336 C   0  0  0  0  0  0  0  0  0  0  0  0
    1.7083    0.9003   -1.1042 C   0  0  0  0  0  0  0  0  0  0  0  0
    1.8103    2.2765    0.0789 S   0  0  0  0  0  0  0  0  0  0  0  0
    0.9350    3.5221   -0.8946 C   0  0  0  0  0  0  0  0  0  0  0  0
    1.2790   -1.2290    0.9021 H   0  0  0  0  0  0  0  0  0  0  0  0
   -0.1664    0.6270    0.8692 H   0  0  0  0  0  0  0  0  0  0  0  0
   -0.3688    1.2330   -1.5911 H   0  0  0  0  0  0  0  0  0  0  0  0
    0.2157   -0.3825   -1.9916 H   0  0  0  0  0  0  0  0  0  0  0  0
    2.0893    1.2561   -2.0661 H   0  0  0  0  0  0  0  0  0  0  0  0
    2.3660    0.1005   -0.7511 H   0  0  0  0  0  0  0  0  0  0  0  0
    0.8857    4.4614   -0.3385 H   0  0  0  0  0  0  0  0  0  0  0  0
   -0.0809    3.1802   -1.1075 H   0  0  0  0  0  0  0  0  0  0  0  0
    1.4599    3.6923   -1.8378 H   0  0  0  0  0  0  0  0  0  0  0  0
   -2.1003   -1.6058   -0.6241 N   0  0  0  0  0  0  0  0  0  0  0  0
   -3.4463   -2.0924   -0.8163 C   0  0  2  0  0  0  0  0  0  0  0  0
   -3.4448   -3.5936   -0.5595 C   0  0  0  0  0  0  0  0  0  0  0  0
   -2.4331   -4.2871   -0.6412 O   0  0  0  0  0  0  0  0  0  0  0  0
   -3.9528   -1.7810   -2.2160 C   0  0  0  0  0  0  0  0  0  0  0  0
   -1.3364   -2.1657   -0.9911 H   0  0  0  0  0  0  0  0  0  0  0  0
   -4.0726   -1.5940   -0.0684 H   0  0  0  0  0  0  0  0  0  0  0  0
   -3.3376   -2.2718   -2.9790 H   0  0  0  0  0  0  0  0  0  0  0  0
   -4.9835   -2.1252   -2.3508 H   0  0  0  0  0  0  0  0  0  0  0  0
   -3.9251   -0.7032   -2.4096 H   0  0  0  0  0  0  0  0  0  0  0  0
   -4.7141   -4.0750   -0.2706 N   0  0  0  0  0  0  0  0  0  0  0  0
   -4.9765   -5.4695   -0.0016 C   0  0  0  0  0  0  0  0  0  0  0  0
   -5.4920   -3.4251   -0.2053 H   0  0  0  0  0  0  0  0  0  0  0  0
   -5.2557   -5.9776   -0.9364 H   0  0  0  0  0  0  0  0  0  0  0  0
   -4.0730   -5.9388    0.4149 H   0  0  0  0  0  0  0  0  0  0  0  0
   -5.8006   -5.5545    0.7220 H   0  0  0  0  0  0  0  0  0  0  0  0
  1  3  1  0  0  0  0
  1  7  1  0  0  0  0
  1  2  2  0  0  0  0
 35 36  1  0  0  0  0
 36 44  1  0  0  0  0
 36 37  2  0  0  0  0
  8  9  1  0  0  0  0
  9 17  1  0  0  0  0
  9 10  2  0  0  0  0
 18 19  1  0  0  0  0
 19 34  1  0  0  0  0
 19 20  2  0  0  0  0
 35 38  1  0  0  0  0
  8 11  1  0  0  0  0
 44 45  1  0  0  0  0
 23 24  1  0  0  0  0
 21 22  1  0  0  0  0
 18 21  1  0  0  0  0
 22 23  1  0  0  0  0
 34 35  1  0  0  0  0
  7  8  1  0  0  0  0
 17 18  1  0  0  0  0
  3  4  1  0  0  0  0
  3  5  1  0  0  0  0
  3  6  1  0  0  0  0
 38 41  1  0  0  0  0
 38 42  1  0  0  0  0
 38 43  1  0  0  0  0
 11 14  1  0  0  0  0
 11 15  1  0  0  0  0
 11 16  1  0  0  0  0
 45 47  1  0  0  0  0
 45 48  1  0  0  0  0
 45 49  1  0  0  0  0
 24 31  1  0  0  0  0
 24 32  1  0  0  0  0
 24 33  1  0  0  0  0
 21 27  1  0  0  0  0
 21 28  1  0  0  0  0
 22 29  1  0  0  0  0
 22 30  1  0  0  0  0
 35 40  1  0  0  0  0
  8 13  1  0  0  0  0
 18 26  1  0  0  0  0
 44 46  1  0  0  0  0
  7 12  1  0  0  0  0
 34 39  1  0  0  0  0
 17 25  1  0  0  0  0
M  END
$$$$

  -OEChem-05262214473D

 49 48  0     1  0  0  0  0  0999 V2000
   -0.0561   -5.3799    2.6949 C   0  0  0  0  0  0  0  0  0  0  0  0
    0.7325   -5.0736    3.5815 O   0  0  0  0  0  0  0  0  0  0  0  0
   -1.0067   -6.5099    2.9135 C   0  0  0  0  0  0  0  0  0  0  0  0
   -0.5910   -7.4777    2.5899 H   0  0  0  0  0  0  0  0  0  0  0  0
   -1.2629   -6.6440    3.9767 H   0  0  0  0  0  0  0  0  0  0  0  0
   -1.9729   -6.4206    2.3918 H   0  0  0  0  0  0  0  0  0  0  0  0
   -0.1735   -4.7694    1.4571 N   0  0  0  0  0  0  0  0  0  0  0  0
    0.6439   -3.6603    1.0409 C   0  0  2  0  0  0  0  0  0  0  0  0
   -0.2788   -2.5625    0.5280 C   0  0  0  0  0  0  0  0  0  0  0  0
   -1.4197   -2.7791    0.1251 O   0  0  0  0  0  0  0  0  0  0  0  0
    1.6395   -4.0779   -0.0301 C   0  0  0  0  0  0  0  0  0  0  0  0
   -0.8741   -5.1235    0.8083 H   0  0  0  0  0  0  0  0  0  0  0  0
    1.1738   -3.3062    1.9318 H   0  0  0  0  0  0  0  0  0  0  0  0
    1.1270   -4.4358   -0.9305 H   0  0  0  0  0  0  0  0  0  0  0  0
    2.2797   -3.2400   -0.3251 H   0  0  0  0  0  0  0  0  0  0  0  0
    2.2827   -4.8880    0.3303 H   0  0  0  0  0  0  0  0  0  0  0  0
    0.3351   -1.3153    0.5316 N   0  0  0  0  0  0  0  0  0  0  0  0
   -0.3268   -0.1184    0.0807 C   0  0  2  0  0  0  0  0  0  0  0  0
   -1.8249   -0.3914   -0.0120 C   0  0  0  0  0  0  0  0  0  0  0  0
   -2.6760    0.4733    0.1855 O   0  0  0  0  0  0  0  0  0  0  0  0
    0.2643    0.4098   -1.2336 C   0  0  0  0  0  0  0  0  0  0  0  0
    1.7083    0.9003   -1.1042 C   0  0  0  0  0  0  0  0  0  0  0  0
    1.8103    2.2765    0.0789 S   0  0  0  0  0  0  0  0  0  0  0  0
    0.9350    3.5221   -0.8946 C   0  0  0  0  0  0  0  0  0  0  0  0
    1.2790   -1.2290    0.9021 H   0  0  0  0  0  0  0  0  0  0  0  0
   -0.1664    0.6270    0.8692 H   0  0  0  0  0  0  0  0  0  0  0  0
   -0.3688    1.2330   -1.5911 H   0  0  0  0  0  0  0  0  0  0  0  0
    0.2157   -0.3825   -1.9916 H   0  0  0  0  0  0  0  0  0  0  0  0
    2.0893    1.2561   -2.0661 H   0  0  0  0  0  0  0  0  0  0  0  0
    2.3660    0.1005   -0.7511 H   0  0  0  0  0  0  0  0  0  0  0  0
    0.8857    4.4614   -0.3385 H   0  0  0  0  0  0  0  0  0  0  0  0
   -0.0809    3.1802   -1.1075 H   0  0  0  0  0  0  0  0  0  0  0  0
    1.4599    3.6923   -1.8378 H   0  0  0  0  0  0  0  0  0  0  0  0
   -2.0993   -1.7188   -0.3084 N   0  0  0  0  0  0  0  0  0  0  0  0
   -3.4457   -2.2252   -0.4357 C   0  0  2  0  0  0  0  0  0  0  0  0
   -3.4882   -3.6116    0.1934 C   0  0  0  0  0  0  0  0  0  0  0  0
   -2.4892   -4.3128    0.3394 O   0  0  0  0  0  0  0  0  0  0  0  0
   -3.8827   -2.2754   -1.8914 C   0  0  0  0  0  0  0  0  0  0  0  0
   -1.3322   -2.3611   -0.4839 H   0  0  0  0  0  0  0  0  0  0  0  0
   -4.0935   -1.5468    0.1300 H   0  0  0  0  0  0  0  0  0  0  0  0
   -3.2452   -2.9502   -2.4742 H   0  0  0  0  0  0  0  0  0  0  0  0
   -4.9137   -2.6325   -1.9841 H   0  0  0  0  0  0  0  0  0  0  0  0
   -3.8231   -1.2827   -2.3506 H   0  0  0  0  0  0  0  0  0  0  0  0
   -4.7791   -3.9911    0.5333 N   0  0  0  0  0  0  0  0  0  0  0  0
   -5.0834   -5.2687    1.1344 C   0  0  0  0  0  0  0  0  0  0  0  0
   -5.5449   -3.3385    0.3938 H   0  0  0  0  0  0  0  0  0  0  0  0
   -5.3320   -5.9952    0.3467 H   0  0  0  0  0  0  0  0  0  0  0  0
   -4.2097   -5.6253    1.6995 H   0  0  0  0  0  0  0  0  0  0  0  0
   -5.9404   -5.1586    1.8151 H   0  0  0  0  0  0  0  0  0  0  0  0
  1  3  1  0  0  0  0
  1  7  1  0  0  0  0
  1  2  2  0  0  0  0
 35 36  1  0  0  0  0
 36 44  1  0  0  0  0
 36 37  2  0  0  0  0
  8  9  1  0  0  0  0
  9 17  1  0  0  0  0
  9 10  2  0  0  0  0
 18 19  1  0  0  0  0
 19 34  1  0  0  0  0
 19 20  2  0  0  0  0
 35 38  1  0  0  0  0
  8 11  1  0  0  0  0
 44 45  1  0  0  0  0
 23 24  1  0  0  0  0
 21 22  1  0  0  0  0
 18 21  1  0  0  0  0
 22 23  1  0  0  0  0
 34 35  1  0  0  0  0
  7  8  1  0  0  0  0
 17 18  1  0  0  0  0
  3  4  1  0  0  0  0
  3  5  1  0  0  0  0
  3  6  1  0  0  0  0
 38 41  1  0  0  0  0
 38 42  1  0  0  0  0
 38 43  1  0  0  0  0
 11 14  1  0  0  0  0
 11 15  1  0  0  0  0
 11 16  1  0  0  0  0
 45 47  1  0  0  0  0
 45 48  1  0  0  0  0
 45 49  1  0  0  0  0
 24 31  1  0  0  0  0
 24 32  1  0  0  0  0
 24 33  1  0  0  0  0
 21 27  1  0  0  0  0
 21 28  1  0  0  0  0
 22 29  1  0  0  0  0
 22 30  1  0  0  0  0
 35 40  1  0  0  0  0
  8 13  1  0  0  0  0
 18 26  1  0  0  0  0
 44 46  1  0  0  0  0
  7 12  1  0  0  0  0
 34 39  1  0  0  0  0
 17 25  1  0  0  0  0
M  END
$$$$

  -OEChem-05262214473D

 49 48  0     1  0  0  0  0  0999 V2000
   -0.0561   -5.3799    2.6949 C   0  0  0  0  0  0  0  0  0  0  0  0
    0.7325   -5.0736    3.5815 O   0  0  0  0  0  0  0  0  0  0  0  0
   -1.0067   -6.5099    2.9135 C   0  0  0  0  0  0  0  0  0  0  0  0
   -0.5910   -7.4777    2.5899 H   0  0  0  0  0  0  0  0  0  0  0  0
   -1.2629   -6.6440    3.9767 H   0  0  0  0  0  0  0  0  0  0  0  0
   -1.9729   -6.4206    2.3918 H   0  0  0  0  0  0  0  0  0  0  0  0
   -0.1735   -4.7694    1.4571 N   0  0  0  0  0  0  0  0  0  0  0  0
    0.6439   -3.6603    1.0409 C   0  0  2  0  0  0  0  0  0  0  0  0
   -0.2788   -2.5625    0.5280 C   0  0  0  0  0  0  0  0  0  0  0  0
   -1.4197   -2.7791    0.1251 O   0  0  0  0  0  0  0  0  0  0  0  0
    1.6395   -4.0779   -0.0301 C   0  0  0  0  0  0  0  0  0  0  0  0
   -0.8741   -5.1235    0.8083 H   0  0  0  0  0  0  0  0  0  0  0  0
    1.1738   -3.3062    1.9318 H   0  0  0  0  0  0  0  0  0  0  0  0
    1.1270   -4.4358   -0.9305 H   0  0  0  0  0  0  0  0  0  0  0  0
    2.2797   -3.2400   -0.3251 H   0  0  0  0  0  0  0  0  0  0  0  0
    2.2827   -4.8880    0.3303 H   0  0  0  0  0  0  0  0  0  0  0  0
    0.3351   -1.3153    0.5316 N   0  0  0  0  0  0  0  0  0  0  0  0
   -0.3268   -0.1184    0.0807 C   0  0  2  0  0  0  0  0  0  0  0  0
   -1.8249   -0.3914   -0.0120 C   0  0  0  0  0  0  0  0  0  0  0  0
   -2.6649    0.5034   -0.0818 O   0  0  0  0  0  0  0  0  0  0  0  0
    0.2643    0.4098   -1.2336 C   0  0  0  0  0  0  0  0  0  0  0  0
    1.7083    0.9003   -1.1042 C   0  0  0  0  0  0  0  0  0  0  0  0
    1.8103    2.2765    0.0789 S   0  0  0  0  0  0  0  0  0  0  0  0
    0.9350    3.5221   -0.8946 C   0  0  0  0  0  0  0  0  0  0  0  0
    1.2790   -1.2290    0.9021 H   0  0  0  0  0  0  0  0  0  0  0  0
   -0.1664    0.6270    0.8692 H   0  0  0  0  0  0  0  0  0  0  0  0
   -0.3688    1.2330   -1.5911 H   0  0  0  0  0  0  0  0  0  0  0  0
    0.2157   -0.3825   -1.9916 H   0  0  0  0  0  0  0  0  0  0  0  0
    2.0893    1.2561   -2.0661 H   0  0  0  0  0  0  0  0  0  0  0  0
    2.3660    0.1005   -0.7511 H   0  0  0  0  0  0  0  0  0  0  0  0
    0.8857    4.4614   -0.3385 H   0  0  0  0  0  0  0  0  0  0  0  0
   -0.0809    3.1802   -1.1075 H   0  0  0  0  0  0  0  0  0  0  0  0
    1.4599    3.6923   -1.8378 H   0  0  0  0  0  0  0  0  0  0  0  0
   -2.1146   -1.7478    0.0252 N   0  0  0  0  0  0  0  0  0  0  0  0
   -3.4648   -2.2568   -0.0343 C   0  0  2  0  0  0  0  0  0  0  0  0
   -3.5652   -3.4369    0.9232 C   0  0  0  0  0  0  0  0  0  0  0  0
   -2.5891   -4.0876    1.2906 O   0  0  0  0  0  0  0  0  0  0  0  0
   -3.8379   -2.6715   -1.4490 C   0  0  0  0  0  0  0  0  0  0  0  0
   -1.3547   -2.4210    0.0558 H   0  0  0  0  0  0  0  0  0  0  0  0
   -4.1222   -1.4505    0.3087 H   0  0  0  0  0  0  0  0  0  0  0  0
   -3.1900   -3.4786   -1.8099 H   0  0  0  0  0  0  0  0  0  0  0  0
   -4.8713   -3.0304   -1.4978 H   0  0  0  0  0  0  0  0  0  0  0  0
   -3.7365   -1.8291   -2.1417 H   0  0  0  0  0  0  0  0  0  0  0  0
   -4.8779   -3.7048    1.2854 N   0  0  0  0  0  0  0  0  0  0  0  0
   -5.2362   -4.7843    2.1756 C   0  0  0  0  0  0  0  0  0  0  0  0
   -5.6224   -3.1018    0.9481 H   0  0  0  0  0  0  0  0  0  0  0  0
   -5.4653   -5.6849    1.5871 H   0  0  0  0  0  0  0  0  0  0  0  0
   -4.3963   -4.9938    2.8543 H   0  0  0  0  0  0  0  0  0  0  0  0
   -6.1199   -4.4962    2.7639 H   0  0  0  0  0  0  0  0  0  0  0  0
  1  3  1  0  0  0  0
  1  7  1  0  0  0  0
  1  2  2  0  0  0  0
 35 36  1  0  0  0  0
 36 44  1  0  0  0  0
 36 37  2  0  0  0  0
  8  9  1  0  0  0  0
  9 17  1  0  0  0  0
  9 10  2  0  0  0  0
 18 19  1  0  0  0  0
 19 34  1  0  0  0  0
 19 20  2  0  0  0  0
 35 38  1  0  0  0  0
  8 11  1  0  0  0  0
 44 45  1  0  0  0  0
 23 24  1  0  0  0  0
 21 22  1  0  0  0  0
 18 21  1  0  0  0  0
 22 23  1  0  0  0  0
 34 35  1  0  0  0  0
  7  8  1  0  0  0  0
 17 18  1  0  0  0  0
  3  4  1  0  0  0  0
  3  5  1  0  0  0  0
  3  6  1  0  0  0  0
 38 41  1  0  0  0  0
 38 42  1  0  0  0  0
 38 43  1  0  0  0  0
 11 14  1  0  0  0  0
 11 15  1  0  0  0  0
 11 16  1  0  0  0  0
 45 47  1  0  0  0  0
 45 48  1  0  0  0  0
 45 49  1  0  0  0  0
 24 31  1  0  0  0  0
 24 32  1  0  0  0  0
 24 33  1  0  0  0  0
 21 27  1  0  0  0  0
 21 28  1  0  0  0  0
 22 29  1  0  0  0  0
 22 30  1  0  0  0  0
 35 40  1  0  0  0  0
  8 13  1  0  0  0  0
 18 26  1  0  0  0  0
 44 46  1  0  0  0  0
  7 12  1  0  0  0  0
 34 39  1  0  0  0  0
 17 25  1  0  0  0  0
M  END
$$$$

  -OEChem-05262214473D

 49 48  0     1  0  0  0  0  0999 V2000
   -0.0561   -5.3799    2.6949 C   0  0  0  0  0  0  0  0  0  0  0  0
    0.7325   -5.0736    3.5815 O   0  0  0  0  0  0  0  0  0  0  0  0
   -1.0067   -6.5099    2.9135 C   0  0  0  0  0  0  0  0  0  0  0  0
   -0.5910   -7.4777    2.5899 H   0  0  0  0  0  0  0  0  0  0  0  0
   -1.2629   -6.6440    3.9767 H   0  0  0  0  0  0  0  0  0  0  0  0
   -1.9729   -6.4206    2.3918 H   0  0  0  0  0  0  0  0  0  0  0  0
   -0.1735   -4.7694    1.4571 N   0  0  0  0  0  0  0  0  0  0  0  0
    0.6439   -3.6603    1.0409 C   0  0  2  0  0  0  0  0  0  0  0  0
   -0.2788   -2.5625    0.5280 C   0  0  0  0  0  0  0  0  0  0  0  0
   -1.4197   -2.7791    0.1251 O   0  0  0  0  0  0  0  0  0  0  0  0
    1.6395   -4.0779   -0.0301 C   0  0  0  0  0  0  0  0  0  0  0  0
   -0.8741   -5.1235    0.8083 H   0  0  0  0  0  0  0  0  0  0  0  0
    1.1738   -3.3062    1.9318 H   0  0  0  0  0  0  0  0  0  0  0  0
    1.1270   -4.4358   -0.9305 H   0  0  0  0  0  0  0  0  0  0  0  0
    2.2797   -3.2400   -0.3251 H   0  0  0  0  0  0  0  0  0  0  0  0
    2.2827   -4.8880    0.3303 H   0  0  0  0  0  0  0  0  0  0  0  0
    0.3351   -1.3153    0.5316 N   0  0  0  0  0  0  0  0  0  0  0  0
   -0.3268   -0.1184    0.0807 C   0  0  2  0  0  0  0  0  0  0  0  0
   -1.8249   -0.3914   -0.0120 C   0  0  0  0  0  0  0  0  0  0  0  0
   -2.6414    0.4643   -0.3471 O   0  0  0  0  0  0  0  0  0  0  0  0
    0.2643    0.4098   -1.2336 C   0  0  0  0  0  0  0  0  0  0  0  0
    1.7083    0.9003   -1.1042 C   0  0  0  0  0  0  0  0  0  0  0  0
    1.8103    2.2765    0.0789 S   0  0  0  0  0  0  0  0  0  0  0  0
    0.9350    3.5221   -0.8946 C   0  0  0  0  0  0  0  0  0  0  0  0
    1.2790   -1.2290    0.9021 H   0  0  0  0  0  0  0  0  0  0  0  0
   -0.1664    0.6270    0.8692 H   0  0  0  0  0  0  0  0  0  0  0  0
   -0.3688    1.2330   -1.5911 H   0  0  0  0  0  0  0  0  0  0  0  0
    0.2157   -0.3825   -1.9916 H   0  0  0  0  0  0  0  0  0  0  0  0
    2.0893    1.2561   -2.0661 H   0  0  0  0  0  0  0  0  0  0  0  0
    2.3660    0.1005   -0.7511 H   0  0  0  0  0  0  0  0  0  0  0  0
    0.8857    4.4614   -0.3385 H   0  0  0  0  0  0  0  0  0  0  0  0
   -0.0809    3.1802   -1.1075 H   0  0  0  0  0  0  0  0  0  0  0  0
    1.4599    3.6923   -1.8378 H   0  0  0  0  0  0  0  0  0  0  0  0
   -2.1454   -1.6908    0.3542 N   0  0  0  0  0  0  0  0  0  0  0  0
   -3.5023   -2.1850    0.3605 C   0  0  2  0  0  0  0  0  0  0  0  0
   -3.6706   -3.0814    1.5802 C   0  0  0  0  0  0  0  0  0  0  0  0
   -2.7261   -3.6267    2.1474 O   0  0  0  0  0  0  0  0  0  0  0  0
   -3.8213   -2.9425   -0.9190 C   0  0  0  0  0  0  0  0  0  0  0  0
   -1.4024   -2.3414    0.5913 H   0  0  0  0  0  0  0  0  0  0  0  0
   -4.1566   -1.3115    0.4555 H   0  0  0  0  0  0  0  0  0  0  0  0
   -3.1757   -3.8211   -1.0314 H   0  0  0  0  0  0  0  0  0  0  0  0
   -4.8591   -3.2919   -0.9249 H   0  0  0  0  0  0  0  0  0  0  0  0
   -3.6710   -2.3051   -1.7970 H   0  0  0  0  0  0  0  0  0  0  0  0
   -5.0036   -3.2356    1.9346 N   0  0  0  0  0  0  0  0  0  0  0  0
   -5.4243   -4.0493    3.0512 C   0  0  0  0  0  0  0  0  0  0  0  0
   -5.7191   -2.7310    1.4197 H   0  0  0  0  0  0  0  0  0  0  0  0
   -5.6467   -5.0678    2.7001 H   0  0  0  0  0  0  0  0  0  0  0  0
   -4.6201   -4.0874    3.8007 H   0  0  0  0  0  0  0  0  0  0  0  0
   -6.3268   -3.6125    3.5037 H   0  0  0  0  0  0  0  0  0  0  0  0
  1  3  1  0  0  0  0
  1  7  1  0  0  0  0
  1  2  2  0  0  0  0
 35 36  1  0  0  0  0
 36 44  1  0  0  0  0
 36 37  2  0  0  0  0
  8  9  1  0  0  0  0
  9 17  1  0  0  0  0
  9 10  2  0  0  0  0
 18 19  1  0  0  0  0
 19 34  1  0  0  0  0
 19 20  2  0  0  0  0
 35 38  1  0  0  0  0
  8 11  1  0  0  0  0
 44 45  1  0  0  0  0
 23 24  1  0  0  0  0
 21 22  1  0  0  0  0
 18 21  1  0  0  0  0
 22 23  1  0  0  0  0
 34 35  1  0  0  0  0
  7  8  1  0  0  0  0
 17 18  1  0  0  0  0
  3  4  1  0  0  0  0
  3  5  1  0  0  0  0
  3  6  1  0  0  0  0
 38 41  1  0  0  0  0
 38 42  1  0  0  0  0
 38 43  1  0  0  0  0
 11 14  1  0  0  0  0
 11 15  1  0  0  0  0
 11 16  1  0  0  0  0
 45 47  1  0  0  0  0
 45 48  1  0  0  0  0
 45 49  1  0  0  0  0
 24 31  1  0  0  0  0
 24 32  1  0  0  0  0
 24 33  1  0  0  0  0
 21 27  1  0  0  0  0
 21 28  1  0  0  0  0
 22 29  1  0  0  0  0
 22 30  1  0  0  0  0
 35 40  1  0  0  0  0
  8 13  1  0  0  0  0
 18 26  1  0  0  0  0
 44 46  1  0  0  0  0
  7 12  1  0  0  0  0
 34 39  1  0  0  0  0
 17 25  1  0  0  0  0
M  END
$$$$

  -OEChem-05262214473D

 49 48  0     1  0  0  0  0  0999 V2000
   -0.0561   -5.3799    2.6949 C   0  0  0  0  0  0  0  0  0  0  0  0
    0.7325   -5.0736    3.5815 O   0  0  0  0  0  0  0  0  0  0  0  0
   -1.0067   -6.5099    2.9135 C   0  0  0  0  0  0  0  0  0  0  0  0
   -0.5910   -7.4777    2.5899 H   0  0  0  0  0  0  0  0  0  0  0  0
   -1.2629   -6.6440    3.9767 H   0  0  0  0  0  0  0  0  0  0  0  0
   -1.9729   -6.4206    2.3918 H   0  0  0  0  0  0  0  0  0  0  0  0
   -0.1735   -4.7694    1.4571 N   0  0  0  0  0  0  0  0  0  0  0  0
    0.6439   -3.6603    1.0409 C   0  0  2  0  0  0  0  0  0  0  0  0
   -0.2788   -2.5625    0.5280 C   0  0  0  0  0  0  0  0  0  0  0  0
   -1.4197   -2.7791    0.1251 O   0  0  0  0  0  0  0  0  0  0  0  0
    1.6395   -4.0779   -0.0301 C   0  0  0  0  0  0  0  0  0  0  0  0
   -0.8741   -5.1235    0.8083 H   0  0  0  0  0  0  0  0  0  0  0  0
    1.1738   -3.3062    1.9318 H   0  0  0  0  0  0  0  0  0  0  0  0
    1.1270   -4.4358   -0.9305 H   0  0  0  0  0  0  0  0  0  0  0  0
    2.2797   -3.2400   -0.3251 H   0  0  0  0  0  0  0  0  0  0  0  0
    2.2827   -4.8880    0.3303 H   0  0  0  0  0  0  0  0  0  0  0  0
    0.3351   -1.3153    0.5316 N   0  0  0  0  0  0  0  0  0  0  0  0
   -0.3268   -0.1184    0.0807 C   0  0  2  0  0  0  0  0  0  0  0  0
   -1.8249   -0.3914   -0.0120 C   0  0  0  0  0  0  0  0  0  0  0  0
   -2.6070    0.3587   -0.5924 O   0  0  0  0  0  0  0  0  0  0  0  0
    0.2643    0.4098   -1.2336 C   0  0  0  0  0  0  0  0  0  0  0  0
    1.7083    0.9003   -1.1042 C   0  0  0  0  0  0  0  0  0  0  0  0
    1.8103    2.2765    0.0789 S   0  0  0  0  0  0  0  0  0  0  0  0
    0.9350    3.5221   -0.8946 C   0  0  0  0  0  0  0  0  0  0  0  0
    1.2790   -1.2290    0.9021 H   0  0  0  0  0  0  0  0  0  0  0  0
   -0.1664    0.6270    0.8692 H   0  0  0  0  0  0  0  0  0  0  0  0
   -0.3688    1.2330   -1.5911 H   0  0  0  0  0  0  0  0  0  0  0  0
    0.2157   -0.3825   -1.9916 H   0  0  0  0  0  0  0  0  0  0  0  0
    2.0893    1.2561   -2.0661 H   0  0  0  0  0  0  0  0  0  0  0  0
    2.3660    0.1005   -0.7511 H   0  0  0  0  0  0  0  0  0  0  0  0
    0.8857    4.4614   -0.3385 H   0  0  0  0  0  0  0  0  0  0  0  0
   -0.0809    3.1802   -1.1075 H   0  0  0  0  0  0  0  0  0  0  0  0
    1.4599    3.6923   -1.8378 H   0  0  0  0  0  0  0  0  0  0  0  0
   -2.1895   -1.5516    0.6560 N   0  0  0  0  0  0  0  0  0  0  0  0
   -3.5557   -2.0147    0.7219 C   0  0  2  0  0  0  0  0  0  0  0  0
   -3.7973   -2.5695    2.1196 C   0  0  0  0  0  0  0  0  0  0  0  0
   -2.8910   -2.9616    2.8515 O   0  0  0  0  0  0  0  0  0  0  0  0
   -3.8341   -3.0697   -0.3373 C   0  0  0  0  0  0  0  0  0  0  0  0
   -1.4719   -2.1277    1.0861 H   0  0  0  0  0  0  0  0  0  0  0  0
   -4.1944   -1.1395    0.5604 H   0  0  0  0  0  0  0  0  0  0  0  0
   -3.2034   -3.9543   -0.1918 H   0  0  0  0  0  0  0  0  0  0  0  0
   -4.8779   -3.3990   -0.3046 H   0  0  0  0  0  0  0  0  0  0  0  0
   -3.6313   -2.6783   -1.3400 H   0  0  0  0  0  0  0  0  0  0  0  0
   -5.1477   -2.6153    2.4366 N   0  0  0  0  0  0  0  0  0  0  0  0
   -5.6351   -3.1140    3.7015 C   0  0  0  0  0  0  0  0  0  0  0  0
   -5.8286   -2.2515    1.7765 H   0  0  0  0  0  0  0  0  0  0  0  0
   -5.8637   -4.1861    3.6100 H   0  0  0  0  0  0  0  0  0  0  0  0
   -4.8658   -2.9678    4.4740 H   0  0  0  0  0  0  0  0  0  0  0  0
   -6.5470   -2.5675    3.9840 H   0  0  0  0  0  0  0  0  0  0  0  0
  1  3  1  0  0  0  0
  1  7  1  0  0  0  0
  1  2  2  0  0  0  0
 35 36  1  0  0  0  0
 36 44  1  0  0  0  0
 36 37  2  0  0  0  0
  8  9  1  0  0  0  0
  9 17  1  0  0  0  0
  9 10  2  0  0  0  0
 18 19  1  0  0  0  0
 19 34  1  0  0  0  0
 19 20  2  0  0  0  0
 35 38  1  0  0  0  0
  8 11  1  0  0  0  0
 44 45  1  0  0  0  0
 23 24  1  0  0  0  0
 21 22  1  0  0  0  0
 18 21  1  0  0  0  0
 22 23  1  0  0  0  0
 34 35  1  0  0  0  0
  7  8  1  0  0  0  0
 17 18  1  0  0  0  0
  3  4  1  0  0  0  0
  3  5  1  0  0  0  0
  3  6  1  0  0  0  0
 38 41  1  0  0  0  0
 38 42  1  0  0  0  0
 38 43  1  0  0  0  0
 11 14  1  0  0  0  0
 11 15  1  0  0  0  0
 11 16  1  0  0  0  0
 45 47  1  0  0  0  0
 45 48  1  0  0  0  0
 45 49  1  0  0  0  0
 24 31  1  0  0  0  0
 24 32  1  0  0  0  0
 24 33  1  0  0  0  0
 21 27  1  0  0  0  0
 21 28  1  0  0  0  0
 22 29  1  0  0  0  0
 22 30  1  0  0  0  0
 35 40  1  0  0  0  0
  8 13  1  0  0  0  0
 18 26  1  0  0  0  0
 44 46  1  0  0  0  0
  7 12  1  0  0  0  0
 34 39  1  0  0  0  0
 17 25  1  0  0  0  0
M  END
$$$$

  -OEChem-05262214473D

 49 48  0     1  0  0  0  0  0999 V2000
   -0.0561   -5.3799    2.6949 C   0  0  0  0  0  0  0  0  0  0  0  0
    0.7325   -5.0736    3.5815 O   0  0  0  0  0  0  0  0  0  0  0  0
   -1.0067   -6.5099    2.9135 C   0  0  0  0  0  0  0  0  0  0  0  0
   -0.5910   -7.4777    2.5899 H   0  0  0  0  0  0  0  0  0  0  0  0
   -1.2629   -6.6440    3.9767 H   0  0  0  0  0  0  0  0  0  0  0  0
   -1.9729   -6.4206    2.3918 H   0  0  0  0  0  0  0  0  0  0  0  0
   -0.1735   -4.7694    1.4571 N   0  0  0  0  0  0  0  0  0  0  0  0
    0.6439   -3.6603    1.0409 C   0  0  2  0  0  0  0  0  0  0  0  0
   -0.2788   -2.5625    0.5280 C   0  0  0  0  0  0  0  0  0  0  0  0
   -1.4197   -2.7791    0.1251 O   0  0  0  0  0  0  0  0  0  0  0  0
    1.6395   -4.0779   -0.0301 C   0  0  0  0  0  0  0  0  0  0  0  0
   -0.8741   -5.1235    0.8083 H   0  0  0  0  0  0  0  0  0  0  0  0
    1.1738   -3.3062    1.9318 H   0  0  0  0  0  0  0  0  0  0  0  0
    1.1270   -4.4358   -0.9305 H   0  0  0  0  0  0  0  0  0  0  0  0
    2.2797   -3.2400   -0.3251 H   0  0  0  0  0  0  0  0  0  0  0  0
    2.2827   -4.8880    0.3303 H   0  0  0  0  0  0  0  0  0  0  0  0
    0.3351   -1.3153    0.5316 N   0  0  0  0  0  0  0  0  0  0  0  0
   -0.3268   -0.1184    0.0807 C   0  0  2  0  0  0  0  0  0  0  0  0
   -1.8249   -0.3914   -0.0120 C   0  0  0  0  0  0  0  0  0  0  0  0
   -2.5640    0.1939   -0.8009 O   0  0  0  0  0  0  0  0  0  0  0  0
    0.2643    0.4098   -1.2336 C   0  0  0  0  0  0  0  0  0  0  0  0
    1.7083    0.9003   -1.1042 C   0  0  0  0  0  0  0  0  0  0  0  0
    1.8103    2.2765    0.0789 S   0  0  0  0  0  0  0  0  0  0  0  0
    0.9350    3.5221   -0.8946 C   0  0  0  0  0  0  0  0  0  0  0  0
    1.2790   -1.2290    0.9021 H   0  0  0  0  0  0  0  0  0  0  0  0
   -0.1664    0.6270    0.8692 H   0  0  0  0  0  0  0  0  0  0  0  0
   -0.3688    1.2330   -1.5911 H   0  0  0  0  0  0  0  0  0  0  0  0
    0.2157   -0.3825   -1.9916 H   0  0  0  0  0  0  0  0  0  0  0  0
    2.0893    1.2561   -2.0661 H   0  0  0  0  0  0  0  0  0  0  0  0
    2.3660    0.1005   -0.7511 H   0  0  0  0  0  0  0  0  0  0  0  0
    0.8857    4.4614   -0.3385 H   0  0  0  0  0  0  0  0  0  0  0  0
   -0.0809    3.1802   -1.1075 H   0  0  0  0  0  0  0  0  0  0  0  0
    1.4599    3.6923   -1.8378 H   0  0  0  0  0  0  0  0  0  0  0  0
   -2.2438   -1.3398    0.9101 N   0  0  0  0  0  0  0  0  0  0  0  0
   -3.6214   -1.7575    1.0253 C   0  0  2  0  0  0  0  0  0  0  0  0
   -3.9367   -1.9359    2.5045 C   0  0  0  0  0  0  0  0  0  0  0  0
   -3.0723   -2.1376    3.3550 O   0  0  0  0  0  0  0  0  0  0  0  0
   -3.8755   -3.0446    0.2563 C   0  0  0  0  0  0  0  0  0  0  0  0
   -1.5587   -1.7944    1.5065 H   0  0  0  0  0  0  0  0  0  0  0  0
   -4.2331   -0.9460    0.6162 H   0  0  0  0  0  0  0  0  0  0  0  0
   -3.2712   -3.8691    0.6519 H   0  0  0  0  0  0  0  0  0  0  0  0
   -4.9266   -3.3446    0.3210 H   0  0  0  0  0  0  0  0  0  0  0  0
   -3.6200   -2.9233   -0.8019 H   0  0  0  0  0  0  0  0  0  0  0  0
   -5.3004   -1.8864    2.7572 N   0  0  0  0  0  0  0  0  0  0  0  0
   -5.8541   -2.0419    4.0821 C   0  0  0  0  0  0  0  0  0  0  0  0
   -5.9434   -1.6959    1.9942 H   0  0  0  0  0  0  0  0  0  0  0  0
   -6.1017   -3.0997    4.2547 H   0  0  0  0  0  0  0  0  0  0  0  0
   -5.1168   -1.7114    4.8285 H   0  0  0  0  0  0  0  0  0  0  0  0
   -6.7655   -1.4327    4.1723 H   0  0  0  0  0  0  0  0  0  0  0  0
  1  3  1  0  0  0  0
  1  7  1  0  0  0  0
  1  2  2  0  0  0  0
 35 36  1  0  0  0  0
 36 44  1  0  0  0  0
 36 37  2  0  0  0  0
  8  9  1  0  0  0  0
  9 17  1  0  0  0  0
  9 10  2  0  0  0  0
 18 19  1  0  0  0  0
 19 34  1  0  0  0  0
 19 20  2  0  0  0  0
 35 38  1  0  0  0  0
  8 11  1  0  0  0  0
 44 45  1  0  0  0  0
 23 24  1  0  0  0  0
 21 22  1  0  0  0  0
 18 21  1  0  0  0  0
 22 23  1  0  0  0  0
 34 35  1  0  0  0  0
  7  8  1  0  0  0  0
 17 18  1  0  0  0  0
  3  4  1  0  0  0  0
  3  5  1  0  0  0  0
  3  6  1  0  0  0  0
 38 41  1  0  0  0  0
 38 42  1  0  0  0  0
 38 43  1  0  0  0  0
 11 14  1  0  0  0  0
 11 15  1  0  0  0  0
 11 16  1  0  0  0  0
 45 47  1  0  0  0  0
 45 48  1  0  0  0  0
 45 49  1  0  0  0  0
 24 31  1  0  0  0  0
 24 32  1  0  0  0  0
 24 33  1  0  0  0  0
 21 27  1  0  0  0  0
 21 28  1  0  0  0  0
 22 29  1  0  0  0  0
 22 30  1  0  0  0  0
 35 40  1  0  0  0  0
  8 13  1  0  0  0  0
 18 26  1  0  0  0  0
 44 46  1  0  0  0  0
  7 12  1  0  0  0  0
 34 39  1  0  0  0  0
 17 25  1  0  0  0  0
M  END
$$$$

  -OEChem-05262214473D

 49 48  0     1  0  0  0  0  0999 V2000
   -0.0561   -5.3799    2.6949 C   0  0  0  0  0  0  0  0  0  0  0  0
    0.7325   -5.0736    3.5815 O   0  0  0  0  0  0  0  0  0  0  0  0
   -1.0067   -6.5099    2.9135 C   0  0  0  0  0  0  0  0  0  0  0  0
   -0.5910   -7.4777    2.5899 H   0  0  0  0  0  0  0  0  0  0  0  0
   -1.2629   -6.6440    3.9767 H   0  0  0  0  0  0  0  0  0  0  0  0
   -1.9729   -6.4206    2.3918 H   0  0  0  0  0  0  0  0  0  0  0  0
   -0.1735   -4.7694    1.4571 N   0  0  0  0  0  0  0  0  0  0  0  0
    0.6439   -3.6603    1.0409 C   0  0  2  0  0  0  0  0  0  0  0  0
   -0.2788   -2.5625    0.5280 C   0  0  0  0  0  0  0  0  0  0  0  0
   -1.4197   -2.7791    0.1251 O   0  0  0  0  0  0  0  0  0  0  0  0
    1.6395   -4.0779   -0.0301 C   0  0  0  0  0  0  0  0  0  0  0  0
   -0.8741   -5.1235    0.8083 H   0  0  0  0  0  0  0  0  0  0  0  0
    1.1738   -3.3062    1.9318 H   0  0  0  0  0  0  0  0  0  0  0  0
    1.1270   -4.4358   -0.9305 H   0  0  0  0  0  0  0  0  0  0  0  0
    2.2797   -3.2400   -0.3251 H   0  0  0  0  0  0  0  0  0  0  0  0
    2.2827   -4.8880    0.3303 H   0  0  0  0  0  0  0  0  0  0  0  0
    0.3351   -1.3153    0.5316 N   0  0  0  0  0  0  0  0  0  0  0  0
   -0.3268   -0.1184    0.0807 C   0  0  2  0  0  0  0  0  0  0  0  0
   -1.8249   -0.3914   -0.0120 C   0  0  0  0  0  0  0  0  0  0  0  0
   -2.5154   -0.0190   -0.9584 O   0  0  0  0  0  0  0  0  0  0  0  0
    0.2643    0.4098   -1.2336 C   0  0  0  0  0  0  0  0  0  0  0  0
    1.7083    0.9003   -1.1042 C   0  0  0  0  0  0  0  0  0  0  0  0
    1.8103    2.2765    0.0789 S   0  0  0  0  0  0  0  0  0  0  0  0
    0.9350    3.5221   -0.8946 C   0  0  0  0  0  0  0  0  0  0  0  0
    1.2790   -1.2290    0.9021 H   0  0  0  0  0  0  0  0  0  0  0  0
   -0.1664    0.6270    0.8692 H   0  0  0  0  0  0  0  0  0  0  0  0
   -0.3688    1.2330   -1.5911 H   0  0  0  0  0  0  0  0  0  0  0  0
    0.2157   -0.3825   -1.9916 H   0  0  0  0  0  0  0  0  0  0  0  0
    2.0893    1.2561   -2.0661 H   0  0  0  0  0  0  0  0  0  0  0  0
    2.3660    0.1005   -0.7511 H   0  0  0  0  0  0  0  0  0  0  0  0
    0.8857    4.4614   -0.3385 H   0  0  0  0  0  0  0  0  0  0  0  0
   -0.0809    3.1802   -1.1075 H   0  0  0  0  0  0  0  0  0  0  0  0
    1.4599    3.6923   -1.8378 H   0  0  0  0  0  0  0  0  0  0  0  0
   -2.3047   -1.0697    1.0992 N   0  0  0  0  0  0  0  0  0  0  0  0
   -3.6948   -1.4309    1.2499 C   0  0  2  0  0  0  0  0  0  0  0  0
   -4.0791   -1.2238    2.7089 C   0  0  0  0  0  0  0  0  0  0  0  0
   -3.2579   -1.2108    3.6235 O   0  0  0  0  0  0  0  0  0  0  0  0
   -3.9425   -2.8688    0.8213 C   0  0  0  0  0  0  0  0  0  0  0  0
   -1.6568   -1.3642    1.8239 H   0  0  0  0  0  0  0  0  0  0  0  0
   -4.2701   -0.7444    0.6191 H   0  0  0  0  0  0  0  0  0  0  0  0
   -3.3744   -3.5714    1.4420 H   0  0  0  0  0  0  0  0  0  0  0  0
   -5.0017   -3.1322    0.9091 H   0  0  0  0  0  0  0  0  0  0  0  0
   -3.6378   -3.0233   -0.2194 H   0  0  0  0  0  0  0  0  0  0  0  0
   -5.4513   -1.0984    2.8745 N   0  0  0  0  0  0  0  0  0  0  0  0
   -6.0663   -0.9062    4.1671 C   0  0  0  0  0  0  0  0  0  0  0  0
   -6.0555   -1.1021    2.0580 H   0  0  0  0  0  0  0  0  0  0  0  0
   -6.3443   -1.8827    4.5904 H   0  0  0  0  0  0  0  0  0  0  0  0
   -5.3558   -0.4038    4.8400 H   0  0  0  0  0  0  0  0  0  0  0  0
   -6.9674   -0.2852    4.0555 H   0  0  0  0  0  0  0  0  0  0  0  0
  1  3  1  0  0  0  0
  1  7  1  0  0  0  0
  1  2  2  0  0  0  0
 35 36  1  0  0  0  0
 36 44  1  0  0  0  0
 36 37  2  0  0  0  0
  8  9  1  0  0  0  0
  9 17  1  0  0  0  0
  9 10  2  0  0  0  0
 18 19  1  0  0  0  0
 19 34  1  0  0  0  0
 19 20  2  0  0  0  0
 35 38  1  0  0  0  0
  8 11  1  0  0  0  0
 44 45  1  0  0  0  0
 23 24  1  0  0  0  0
 21 22  1  0  0  0  0
 18 21  1  0  0  0  0
 22 23  1  0  0  0  0
 34 35  1  0  0  0  0
  7  8  1  0  0  0  0
 17 18  1  0  0  0  0
  3  4  1  0  0  0  0
  3  5  1  0  0  0  0
  3  6  1  0  0  0  0
 38 41  1  0  0  0  0
 38 42  1  0  0  0  0
 38 43  1  0  0  0  0
 11 14  1  0  0  0  0
 11 15  1  0  0  0  0
 11 16  1  0  0  0  0
 45 47  1  0  0  0  0
 45 48  1  0  0  0  0
 45 49  1  0  0  0  0
 24 31  1  0  0  0  0
 24 32  1  0  0  0  0
 24 33  1  0  0  0  0
 21 27  1  0  0  0  0
 21 28  1  0  0  0  0
 22 29  1  0  0  0  0
 22 30  1  0  0  0  0
 35 40  1  0  0  0  0
  8 13  1  0  0  0  0
 18 26  1  0  0  0  0
 44 46  1  0  0  0  0
  7 12  1  0  0  0  0
 34 39  1  0  0  0  0
 17 25  1  0  0  0  0
M  END
$$$$

  -OEChem-05262214473D

 49 48  0     1  0  0  0  0  0999 V2000
   -0.0561   -5.3799    2.6949 C   0  0  0  0  0  0  0  0  0  0  0  0
    0.7325   -5.0736    3.5815 O   0  0  0  0  0  0  0  0  0  0  0  0
   -1.0067   -6.5099    2.9135 C   0  0  0  0  0  0  0  0  0  0  0  0
   -0.5910   -7.4777    2.5899 H   0  0  0  0  0  0  0  0  0  0  0  0
   -1.2629   -6.6440    3.9767 H   0  0  0  0  0  0  0  0  0  0  0  0
   -1.9729   -6.4206    2.3918 H   0  0  0  0  0  0  0  0  0  0  0  0
   -0.1735   -4.7694    1.4571 N   0  0  0  0  0  0  0  0  0  0  0  0
    0.6439   -3.6603    1.0409 C   0  0  2  0  0  0  0  0  0  0  0  0
   -0.2788   -2.5625    0.5280 C   0  0  0  0  0  0  0  0  0  0  0  0
   -1.4197   -2.7791    0.1251 O   0  0  0  0  0  0  0  0  0  0  0  0
    1.6395   -4.0779   -0.0301 C   0  0  0  0  0  0  0  0  0  0  0  0
   -0.8741   -5.1235    0.8083 H   0  0  0  0  0  0  0  0  0  0  0  0
    1.1738   -3.3062    1.9318 H   0  0  0  0  0  0  0  0  0  0  0  0
    1.1270   -4.4358   -0.9305 H   0  0  0  0  0  0  0  0  0  0  0  0
    2.2797   -3.2400   -0.3251 H   0  0  0  0  0  0  0  0  0  0  0  0
    2.2827   -4.8880    0.3303 H   0  0  0  0  0  0  0  0  0  0  0  0
    0.3351   -1.3153    0.5316 N   0  0  0  0  0  0  0  0  0  0  0  0
   -0.3268   -0.1184    0.0807 C   0  0  2  0  0  0  0  0  0  0  0  0
   -1.8249   -0.3914   -0.0120 C   0  0  0  0  0  0  0  0  0  0  0  0
   -2.4646   -0.2655   -1.0542 O   0  0  0  0  0  0  0  0  0  0  0  0
    0.2643    0.4098   -1.2336 C   0  0  0  0  0  0  0  0  0  0  0  0
    1.7083    0.9003   -1.1042 C   0  0  0  0  0  0  0  0  0  0  0  0
    1.8103    2.2765    0.0789 S   0  0  0  0  0  0  0  0  0  0  0  0
    0.9350    3.5221   -0.8946 C   0  0  0  0  0  0  0  0  0  0  0  0
    1.2790   -1.2290    0.9021 H   0  0  0  0  0  0  0  0  0  0  0  0
   -0.1664    0.6270    0.8692 H   0  0  0  0  0  0  0  0  0  0  0  0
   -0.3688    1.2330   -1.5911 H   0  0  0  0  0  0  0  0  0  0  0  0
    0.2157   -0.3825   -1.9916 H   0  0  0  0  0  0  0  0  0  0  0  0
    2.0893    1.2561   -2.0661 H   0  0  0  0  0  0  0  0  0  0  0  0
    2.3660    0.1005   -0.7511 H   0  0  0  0  0  0  0  0  0  0  0  0
    0.8857    4.4614   -0.3385 H   0  0  0  0  0  0  0  0  0  0  0  0
   -0.0809    3.1802   -1.1075 H   0  0  0  0  0  0  0  0  0  0  0  0
    1.4599    3.6923   -1.8378 H   0  0  0  0  0  0  0  0  0  0  0  0
   -2.3681   -0.7598    1.2104 N   0  0  0  0  0  0  0  0  0  0  0  0
   -3.7710   -1.0572    1.3804 C   0  0  2  0  0  0  0  0  0  0  0  0
   -4.2149   -0.4819    2.7188 C   0  0  0  0  0  0  0  0  0  0  0  0
   -3.4349   -0.2445    3.6388 O   0  0  0  0  0  0  0  0  0  0  0  0
   -4.0306   -2.5544    1.3193 C   0  0  0  0  0  0  0  0  0  0  0  0
   -1.7594   -0.8664    2.0166 H   0  0  0  0  0  0  0  0  0  0  0  0
   -4.3027   -0.5483    0.5690 H   0  0  0  0  0  0  0  0  0  0  0  0
   -3.5060   -3.0813    2.1247 H   0  0  0  0  0  0  0  0  0  0  0  0
   -5.0982   -2.7764    1.4198 H   0  0  0  0  0  0  0  0  0  0  0  0
   -3.6836   -2.9717    0.3679 H   0  0  0  0  0  0  0  0  0  0  0  0
   -5.5901   -0.3051    2.7805 N   0  0  0  0  0  0  0  0  0  0  0  0
   -6.2575    0.2158    3.9507 C   0  0  0  0  0  0  0  0  0  0  0  0
   -6.1575   -0.5106    1.9635 H   0  0  0  0  0  0  0  0  0  0  0  0
   -6.5750   -0.6181    4.5940 H   0  0  0  0  0  0  0  0  0  0  0  0
   -5.5667    0.8660    4.5077 H   0  0  0  0  0  0  0  0  0  0  0  0
   -7.1390    0.7967    3.6418 H   0  0  0  0  0  0  0  0  0  0  0  0
  1  3  1  0  0  0  0
  1  7  1  0  0  0  0
  1  2  2  0  0  0  0
 35 36  1  0  0  0  0
 36 44  1  0  0  0  0
 36 37  2  0  0  0  0
  8  9  1  0  0  0  0
  9 17  1  0  0  0  0
  9 10  2  0  0  0  0
 18 19  1  0  0  0  0
 19 34  1  0  0  0  0
 19 20  2  0  0  0  0
 35 38  1  0  0  0  0
  8 11  1  0  0  0  0
 44 45  1  0  0  0  0
 23 24  1  0  0  0  0
 21 22  1  0  0  0  0
 18 21  1  0  0  0  0
 22 23  1  0  0  0  0
 34 35  1  0  0  0  0
  7  8  1  0  0  0  0
 17 18  1  0  0  0  0
  3  4  1  0  0  0  0
  3  5  1  0  0  0  0
  3  6  1  0  0  0  0
 38 41  1  0  0  0  0
 38 42  1  0  0  0  0
 38 43  1  0  0  0  0
 11 14  1  0  0  0  0
 11 15  1  0  0  0  0
 11 16  1  0  0  0  0
 45 47  1  0  0  0  0
 45 48  1  0  0  0  0
 45 49  1  0  0  0  0
 24 31  1  0  0  0  0
 24 32  1  0  0  0  0
 24 33  1  0  0  0  0
 21 27  1  0  0  0  0
 21 28  1  0  0  0  0
 22 29  1  0  0  0  0
 22 30  1  0  0  0  0
 35 40  1  0  0  0  0
  8 13  1  0  0  0  0
 18 26  1  0  0  0  0
 44 46  1  0  0  0  0
  7 12  1  0  0  0  0
 34 39  1  0  0  0  0
 17 25  1  0  0  0  0
M  END
$$$$

  -OEChem-05262214473D

 49 48  0     1  0  0  0  0  0999 V2000
   -0.0561   -5.3799    2.6949 C   0  0  0  0  0  0  0  0  0  0  0  0
    0.7325   -5.0736    3.5815 O   0  0  0  0  0  0  0  0  0  0  0  0
   -1.0067   -6.5099    2.9135 C   0  0  0  0  0  0  0  0  0  0  0  0
   -0.5910   -7.4777    2.5899 H   0  0  0  0  0  0  0  0  0  0  0  0
   -1.2629   -6.6440    3.9767 H   0  0  0  0  0  0  0  0  0  0  0  0
   -1.9729   -6.4206    2.3918 H   0  0  0  0  0  0  0  0  0  0  0  0
   -0.1735   -4.7694    1.4571 N   0  0  0  0  0  0  0  0  0  0  0  0
    0.6439   -3.6603    1.0409 C   0  0  2  0  0  0  0  0  0  0  0  0
   -0.2788   -2.5625    0.5280 C   0  0  0  0  0  0  0  0  0  0  0  0
   -1.4197   -2.7791    0.1251 O   0  0  0  0  0  0  0  0  0  0  0  0
    1.6395   -4.0779   -0.0301 C   0  0  0  0  0  0  0  0  0  0  0  0
   -0.8741   -5.1235    0.8083 H   0  0  0  0  0  0  0  0  0  0  0  0
    1.1738   -3.3062    1.9318 H   0  0  0  0  0  0  0  0  0  0  0  0
    1.1270   -4.4358   -0.9305 H   0  0  0  0  0  0  0  0  0  0  0  0
    2.2797   -3.2400   -0.3251 H   0  0  0  0  0  0  0  0  0  0  0  0
    2.2827   -4.8880    0.3303 H   0  0  0  0  0  0  0  0  0  0  0  0
    0.3351   -1.3153    0.5316 N   0  0  0  0  0  0  0  0  0  0  0  0
   -0.3268   -0.1184    0.0807 C   0  0  2  0  0  0  0  0  0  0  0  0
   -1.8249   -0.3914   -0.0120 C   0  0  0  0  0  0  0  0  0  0  0  0
   -2.4149   -0.5287   -1.0817 O   0  0  0  0  0  0  0  0  0  0  0  0
    0.2643    0.4098   -1.2336 C   0  0  0  0  0  0  0  0  0  0  0  0
    1.7083    0.9003   -1.1042 C   0  0  0  0  0  0  0  0  0  0  0  0
    1.8103    2.2765    0.0789 S   0  0  0  0  0  0  0  0  0  0  0  0
    0.9350    3.5221   -0.8946 C   0  0  0  0  0  0  0  0  0  0  0  0
    1.2790   -1.2290    0.9021 H   0  0  0  0  0  0  0  0  0  0  0  0
   -0.1664    0.6270    0.8692 H   0  0  0  0  0  0  0  0  0  0  0  0
   -0.3688    1.2330   -1.5911 H   0  0  0  0  0  0  0  0  0  0  0  0
    0.2157   -0.3825   -1.9916 H   0  0  0  0  0  0  0  0  0  0  0  0
    2.0893    1.2561   -2.0661 H   0  0  0  0  0  0  0  0  0  0  0  0
    2.3660    0.1005   -0.7511 H   0  0  0  0  0  0  0  0  0  0  0  0
    0.8857    4.4614   -0.3385 H   0  0  0  0  0  0  0  0  0  0  0  0
   -0.0809    3.1802   -1.1075 H   0  0  0  0  0  0  0  0  0  0  0  0
    1.4599    3.6923   -1.8378 H   0  0  0  0  0  0  0  0  0  0  0  0
   -2.4296   -0.4313    1.2362 N   0  0  0  0  0  0  0  0  0  0  0  0
   -3.8448   -0.6619    1.4080 C   0  0  2  0  0  0  0  0  0  0  0  0
   -4.3350    0.2395    2.5335 C   0  0  0  0  0  0  0  0  0  0  0  0
   -3.5915    0.6955    3.3997 O   0  0  0  0  0  0  0  0  0  0  0  0
   -4.1339   -2.1227    1.7164 C   0  0  0  0  0  0  0  0  0  0  0  0
   -1.8597   -0.3351    2.0714 H   0  0  0  0  0  0  0  0  0  0  0  0
   -4.3288   -0.3711    0.4693 H   0  0  0  0  0  0  0  0  0  0  0  0
   -3.6570   -2.4324    2.6535 H   0  0  0  0  0  0  0  0  0  0  0  0
   -5.2094   -2.3014    1.8181 H   0  0  0  0  0  0  0  0  0  0  0  0
   -3.7542   -2.7718    0.9199 H   0  0  0  0  0  0  0  0  0  0  0  0
   -5.7073    0.4395    2.4817 N   0  0  0  0  0  0  0  0  0  0  0  0
   -6.4144    1.2476    3.4477 C   0  0  0  0  0  0  0  0  0  0  0  0
   -6.2423    0.0383    1.7171 H   0  0  0  0  0  0  0  0  0  0  0  0
   -6.7781    0.6080    4.2654 H   0  0  0  0  0  0  0  0  0  0  0  0
   -5.7350    2.0113    3.8542 H   0  0  0  0  0  0  0  0  0  0  0  0
   -7.2686    1.7393    2.9592 H   0  0  0  0  0  0  0  0  0  0  0  0
  1  3  1  0  0  0  0
  1  7  1  0  0  0  0
  1  2  2  0  0  0  0
 35 36  1  0  0  0  0
 36 44  1  0  0  0  0
 36 37  2  0  0  0  0
  8  9  1  0  0  0  0
  9 17  1  0  0  0  0
  9 10  2  0  0  0  0
 18 19  1  0  0  0  0
 19 34  1  0  0  0  0
 19 20  2  0  0  0  0
 35 38  1  0  0  0  0
  8 11  1  0  0  0  0
 44 45  1  0  0  0  0
 23 24  1  0  0  0  0
 21 22  1  0  0  0  0
 18 21  1  0  0  0  0
 22 23  1  0  0  0  0
 34 35  1  0  0  0  0
  7  8  1  0  0  0  0
 17 18  1  0  0  0  0
  3  4  1  0  0  0  0
  3  5  1  0  0  0  0
  3  6  1  0  0  0  0
 38 41  1  0  0  0  0
 38 42  1  0  0  0  0
 38 43  1  0  0  0  0
 11 14  1  0  0  0  0
 11 15  1  0  0  0  0
 11 16  1  0  0  0  0
 45 47  1  0  0  0  0
 45 48  1  0  0  0  0
 45 49  1  0  0  0  0
 24 31  1  0  0  0  0
 24 32  1  0  0  0  0
 24 33  1  0  0  0  0
 21 27  1  0  0  0  0
 21 28  1  0  0  0  0
 22 29  1  0  0  0  0
 22 30  1  0  0  0  0
 35 40  1  0  0  0  0
  8 13  1  0  0  0  0
 18 26  1  0  0  0  0
 44 46  1  0  0  0  0
  7 12  1  0  0  0  0
 34 39  1  0  0  0  0
 17 25  1  0  0  0  0
M  END
$$$$

  -OEChem-05262214473D

 49 48  0     1  0  0  0  0  0999 V2000
   -0.0561   -5.3799    2.6949 C   0  0  0  0  0  0  0  0  0  0  0  0
    0.7325   -5.0736    3.5815 O   0  0  0  0  0  0  0  0  0  0  0  0
   -1.0067   -6.5099    2.9135 C   0  0  0  0  0  0  0  0  0  0  0  0
   -0.5910   -7.4777    2.5899 H   0  0  0  0  0  0  0  0  0  0  0  0
   -1.2629   -6.6440    3.9767 H   0  0  0  0  0  0  0  0  0  0  0  0
   -1.9729   -6.4206    2.3918 H   0  0  0  0  0  0  0  0  0  0  0  0
   -0.1735   -4.7694    1.4571 N   0  0  0  0  0  0  0  0  0  0  0  0
    0.6439   -3.6603    1.0409 C   0  0  2  0  0  0  0  0  0  0  0  0
   -0.2788   -2.5625    0.5280 C   0  0  0  0  0  0  0  0  0  0  0  0
   -1.4197   -2.7791    0.1251 O   0  0  0  0  0  0  0  0  0  0  0  0
    1.6395   -4.0779   -0.0301 C   0  0  0  0  0  0  0  0  0  0  0  0
   -0.8741   -5.1235    0.8083 H   0  0  0  0  0  0  0  0  0  0  0  0
    1.1738   -3.3062    1.9318 H   0  0  0  0  0  0  0  0  0  0  0  0
    1.1270   -4.4358   -0.9305 H   0  0  0  0  0  0  0  0  0  0  0  0
    2.2797   -3.2400   -0.3251 H   0  0  0  0  0  0  0  0  0  0  0  0
    2.2827   -4.8880    0.3303 H   0  0  0  0  0  0  0  0  0  0  0  0
    0.3351   -1.3153    0.5316 N   0  0  0  0  0  0  0  0  0  0  0  0
   -0.3268   -0.1184    0.0807 C   0  0  2  0  0  0  0  0  0  0  0  0
   -1.8249   -0.3914   -0.0120 C   0  0  0  0  0  0  0  0  0  0  0  0
   -2.3698   -0.7906   -1.0391 O   0  0  0  0  0  0  0  0  0  0  0  0
    0.2643    0.4098   -1.2336 C   0  0  0  0  0  0  0  0  0  0  0  0
    1.7083    0.9003   -1.1042 C   0  0  0  0  0  0  0  0  0  0  0  0
    1.8103    2.2765    0.0789 S   0  0  0  0  0  0  0  0  0  0  0  0
    0.9350    3.5221   -0.8946 C   0  0  0  0  0  0  0  0  0  0  0  0
    1.2790   -1.2290    0.9021 H   0  0  0  0  0  0  0  0  0  0  0  0
   -0.1664    0.6270    0.8692 H   0  0  0  0  0  0  0  0  0  0  0  0
   -0.3688    1.2330   -1.5911 H   0  0  0  0  0  0  0  0  0  0  0  0
    0.2157   -0.3825   -1.9916 H   0  0  0  0  0  0  0  0  0  0  0  0
    2.0893    1.2561   -2.0661 H   0  0  0  0  0  0  0  0  0  0  0  0
    2.3660    0.1005   -0.7511 H   0  0  0  0  0  0  0  0  0  0  0  0
    0.8857    4.4614   -0.3385 H   0  0  0  0  0  0  0  0  0  0  0  0
   -0.0809    3.1802   -1.1075 H   0  0  0  0  0  0  0  0  0  0  0  0
    1.4599    3.6923   -1.8378 H   0  0  0  0  0  0  0  0  0  0  0  0
   -2.4850   -0.1064    1.1747 N   0  0  0  0  0  0  0  0  0  0  0  0
   -3.9111   -0.2719    1.3307 C   0  0  2  0  0  0  0  0  0  0  0  0
   -4.4309    0.8910    2.1656 C   0  0  0  0  0  0  0  0  0  0  0  0
   -3.7168    1.5452    2.9226 O   0  0  0  0  0  0  0  0  0  0  0  0
   -4.2452   -1.6032    1.9854 C   0  0  0  0  0  0  0  0  0  0  0  0
   -1.9507    0.1937    1.9847 H   0  0  0  0  0  0  0  0  0  0  0  0
   -4.3467   -0.2248    0.3267 H   0  0  0  0  0  0  0  0  0  0  0  0
   -3.8171   -1.6688    2.9924 H   0  0  0  0  0  0  0  0  0  0  0  0
   -5.3278   -1.7396    2.0770 H   0  0  0  0  0  0  0  0  0  0  0  0
   -3.8448   -2.4372    1.3991 H   0  0  0  0  0  0  0  0  0  0  0  0
   -5.7950    1.0847    1.9984 N   0  0  0  0  0  0  0  0  0  0  0  0
   -6.5264    2.1188    2.6924 C   0  0  0  0  0  0  0  0  0  0  0  0
   -6.3042    0.5073    1.3357 H   0  0  0  0  0  0  0  0  0  0  0  0
   -6.9398    1.7121    3.6270 H   0  0  0  0  0  0  0  0  0  0  0  0
   -5.8493    2.9542    2.9240 H   0  0  0  0  0  0  0  0  0  0  0  0
   -7.3473    2.4783    2.0544 H   0  0  0  0  0  0  0  0  0  0  0  0
  1  3  1  0  0  0  0
  1  7  1  0  0  0  0
  1  2  2  0  0  0  0
 35 36  1  0  0  0  0
 36 44  1  0  0  0  0
 36 37  2  0  0  0  0
  8  9  1  0  0  0  0
  9 17  1  0  0  0  0
  9 10  2  0  0  0  0
 18 19  1  0  0  0  0
 19 34  1  0  0  0  0
 19 20  2  0  0  0  0
 35 38  1  0  0  0  0
  8 11  1  0  0  0  0
 44 45  1  0  0  0  0
 23 24  1  0  0  0  0
 21 22  1  0  0  0  0
 18 21  1  0  0  0  0
 22 23  1  0  0  0  0
 34 35  1  0  0  0  0
  7  8  1  0  0  0  0
 17 18  1  0  0  0  0
  3  4  1  0  0  0  0
  3  5  1  0  0  0  0
  3  6  1  0  0  0  0
 38 41  1  0  0  0  0
 38 42  1  0  0  0  0
 38 43  1  0  0  0  0
 11 14  1  0  0  0  0
 11 15  1  0  0  0  0
 11 16  1  0  0  0  0
 45 47  1  0  0  0  0
 45 48  1  0  0  0  0
 45 49  1  0  0  0  0
 24 31  1  0  0  0  0
 24 32  1  0  0  0  0
 24 33  1  0  0  0  0
 21 27  1  0  0  0  0
 21 28  1  0  0  0  0
 22 29  1  0  0  0  0
 22 30  1  0  0  0  0
 35 40  1  0  0  0  0
  8 13  1  0  0  0  0
 18 26  1  0  0  0  0
 44 46  1  0  0  0  0
  7 12  1  0  0  0  0
 34 39  1  0  0  0  0
 17 25  1  0  0  0  0
M  END
$$$$

  -OEChem-05262214473D

 49 48  0     1  0  0  0  0  0999 V2000
   -0.0561   -5.3799    2.6949 C   0  0  0  0  0  0  0  0  0  0  0  0
    0.7325   -5.0736    3.5815 O   0  0  0  0  0  0  0  0  0  0  0  0
   -1.0067   -6.5099    2.9135 C   0  0  0  0  0  0  0  0  0  0  0  0
   -0.5910   -7.4777    2.5899 H   0  0  0  0  0  0  0  0  0  0  0  0
   -1.2629   -6.6440    3.9767 H   0  0  0  0  0  0  0  0  0  0  0  0
   -1.9729   -6.4206    2.3918 H   0  0  0  0  0  0  0  0  0  0  0  0
   -0.1735   -4.7694    1.4571 N   0  0  0  0  0  0  0  0  0  0  0  0
    0.6439   -3.6603    1.0409 C   0  0  2  0  0  0  0  0  0  0  0  0
   -0.2788   -2.5625    0.5280 C   0  0  0  0  0  0  0  0  0  0  0  0
   -1.4197   -2.7791    0.1251 O   0  0  0  0  0  0  0  0  0  0  0  0
    1.6395   -4.0779   -0.0301 C   0  0  0  0  0  0  0  0  0  0  0  0
   -0.8741   -5.1235    0.8083 H   0  0  0  0  0  0  0  0  0  0  0  0
    1.1738   -3.3062    1.9318 H   0  0  0  0  0  0  0  0  0  0  0  0
    1.1270   -4.4358   -0.9305 H   0  0  0  0  0  0  0  0  0  0  0  0
    2.2797   -3.2400   -0.3251 H   0  0  0  0  0  0  0  0  0  0  0  0
    2.2827   -4.8880    0.3303 H   0  0  0  0  0  0  0  0  0  0  0  0
    0.3351   -1.3153    0.5316 N   0  0  0  0  0  0  0  0  0  0  0  0
   -0.3268   -0.1184    0.0807 C   0  0  2  0  0  0  0  0  0  0  0  0
   -1.8249   -0.3914   -0.0120 C   0  0  0  0  0  0  0  0  0  0  0  0
   -2.3323   -1.0336   -0.9293 O   0  0  0  0  0  0  0  0  0  0  0  0
    0.2643    0.4098   -1.2336 C   0  0  0  0  0  0  0  0  0  0  0  0
    1.7083    0.9003   -1.1042 C   0  0  0  0  0  0  0  0  0  0  0  0
    1.8103    2.2765    0.0789 S   0  0  0  0  0  0  0  0  0  0  0  0
    0.9350    3.5221   -0.8946 C   0  0  0  0  0  0  0  0  0  0  0  0
    1.2790   -1.2290    0.9021 H   0  0  0  0  0  0  0  0  0  0  0  0
   -0.1664    0.6270    0.8692 H   0  0  0  0  0  0  0  0  0  0  0  0
   -0.3688    1.2330   -1.5911 H   0  0  0  0  0  0  0  0  0  0  0  0
    0.2157   -0.3825   -1.9916 H   0  0  0  0  0  0  0  0  0  0  0  0
    2.0893    1.2561   -2.0661 H   0  0  0  0  0  0  0  0  0  0  0  0
    2.3660    0.1005   -0.7511 H   0  0  0  0  0  0  0  0  0  0  0  0
    0.8857    4.4614   -0.3385 H   0  0  0  0  0  0  0  0  0  0  0  0
   -0.0809    3.1802   -1.1075 H   0  0  0  0  0  0  0  0  0  0  0  0
    1.4599    3.6923   -1.8378 H   0  0  0  0  0  0  0  0  0  0  0  0
   -2.5306    0.1927    1.0301 N   0  0  0  0  0  0  0  0  0  0  0  0
   -3.9654    0.0863    1.1539 C   0  0  2  0  0  0  0  0  0  0  0  0
   -4.4964    1.4283    1.6401 C   0  0  0  0  0  0  0  0  0  0  0  0
   -3.8024    2.2467    2.2400 O   0  0  0  0  0  0  0  0  0  0  0  0
   -4.3571   -1.0312    2.1081 C   0  0  0  0  0  0  0  0  0  0  0  0
   -2.0263    0.6838    1.7623 H   0  0  0  0  0  0  0  0  0  0  0  0
   -4.3550   -0.1196    0.1509 H   0  0  0  0  0  0  0  0  0  0  0  0
   -3.9755   -0.8425    3.1182 H   0  0  0  0  0  0  0  0  0  0  0  0
   -5.4454   -1.1293    2.1789 H   0  0  0  0  0  0  0  0  0  0  0  0
   -3.9493   -1.9909    1.7727 H   0  0  0  0  0  0  0  0  0  0  0  0
   -5.8472    1.5864    1.3636 N   0  0  0  0  0  0  0  0  0  0  0  0
   -6.5860    2.7702    1.7361 C   0  0  0  0  0  0  0  0  0  0  0  0
   -6.3389    0.8644    0.8453 H   0  0  0  0  0  0  0  0  0  0  0  0
   -7.0491    2.6187    2.7223 H   0  0  0  0  0  0  0  0  0  0  0  0
   -5.9018    3.6303    1.7807 H   0  0  0  0  0  0  0  0  0  0  0  0
   -7.3697    2.9634    0.9889 H   0  0  0  0  0  0  0  0  0  0  0  0
  1  3  1  0  0  0  0
  1  7  1  0  0  0  0
  1  2  2  0  0  0  0
 35 36  1  0  0  0  0
 36 44  1  0  0  0  0
 36 37  2  0  0  0  0
  8  9  1  0  0  0  0
  9 17  1  0  0  0  0
  9 10  2  0  0  0  0
 18 19  1  0  0  0  0
 19 34  1  0  0  0  0
 19 20  2  0  0  0  0
 35 38  1  0  0  0  0
  8 11  1  0  0  0  0
 44 45  1  0  0  0  0
 23 24  1  0  0  0  0
 21 22  1  0  0  0  0
 18 21  1  0  0  0  0
 22 23  1  0  0  0  0
 34 35  1  0  0  0  0
  7  8  1  0  0  0  0
 17 18  1  0  0  0  0
  3  4  1  0  0  0  0
  3  5  1  0  0  0  0
  3  6  1  0  0  0  0
 38 41  1  0  0  0  0
 38 42  1  0  0  0  0
 38 43  1  0  0  0  0
 11 14  1  0  0  0  0
 11 15  1  0  0  0  0
 11 16  1  0  0  0  0
 45 47  1  0  0  0  0
 45 48  1  0  0  0  0
 45 49  1  0  0  0  0
 24 31  1  0  0  0  0
 24 32  1  0  0  0  0
 24 33  1  0  0  0  0
 21 27  1  0  0  0  0
 21 28  1  0  0  0  0
 22 29  1  0  0  0  0
 22 30  1  0  0  0  0
 35 40  1  0  0  0  0
  8 13  1  0  0  0  0
 18 26  1  0  0  0  0
 44 46  1  0  0  0  0
  7 12  1  0  0  0  0
 34 39  1  0  0  0  0
 17 25  1  0  0  0  0
M  END
$$$$

  -OEChem-05262214473D

 49 48  0     1  0  0  0  0  0999 V2000
   -0.0561   -5.3799    2.6949 C   0  0  0  0  0  0  0  0  0  0  0  0
    0.7325   -5.0736    3.5815 O   0  0  0  0  0  0  0  0  0  0  0  0
   -1.0067   -6.5099    2.9135 C   0  0  0  0  0  0  0  0  0  0  0  0
   -0.5910   -7.4777    2.5899 H   0  0  0  0  0  0  0  0  0  0  0  0
   -1.2629   -6.6440    3.9767 H   0  0  0  0  0  0  0  0  0  0  0  0
   -1.9729   -6.4206    2.3918 H   0  0  0  0  0  0  0  0  0  0  0  0
   -0.1735   -4.7694    1.4571 N   0  0  0  0  0  0  0  0  0  0  0  0
    0.6439   -3.6603    1.0409 C   0  0  2  0  0  0  0  0  0  0  0  0
   -0.2788   -2.5625    0.5280 C   0  0  0  0  0  0  0  0  0  0  0  0
   -1.4197   -2.7791    0.1251 O   0  0  0  0  0  0  0  0  0  0  0  0
    1.6395   -4.0779   -0.0301 C   0  0  0  0  0  0  0  0  0  0  0  0
   -0.8741   -5.1235    0.8083 H   0  0  0  0  0  0  0  0  0  0  0  0
    1.1738   -3.3062    1.9318 H   0  0  0  0  0  0  0  0  0  0  0  0
    1.1270   -4.4358   -0.9305 H   0  0  0  0  0  0  0  0  0  0  0  0
    2.2797   -3.2400   -0.3251 H   0  0  0  0  0  0  0  0  0  0  0  0
    2.2827   -4.8880    0.3303 H   0  0  0  0  0  0  0  0  0  0  0  0
    0.3351   -1.3153    0.5316 N   0  0  0  0  0  0  0  0  0  0  0  0
   -0.3268   -0.1184    0.0807 C   0  0  2  0  0  0  0  0  0  0  0  0
   -1.8249   -0.3914   -0.0120 C   0  0  0  0  0  0  0  0  0  0  0  0
   -2.3050   -1.2409   -0.7597 O   0  0  0  0  0  0  0  0  0  0  0  0
    0.2643    0.4098   -1.2336 C   0  0  0  0  0  0  0  0  0  0  0  0
    1.7083    0.9003   -1.1042 C   0  0  0  0  0  0  0  0  0  0  0  0
    1.8103    2.2765    0.0789 S   0  0  0  0  0  0  0  0  0  0  0  0
    0.9350    3.5221   -0.8946 C   0  0  0  0  0  0  0  0  0  0  0  0
    1.2790   -1.2290    0.9021 H   0  0  0  0  0  0  0  0  0  0  0  0
   -0.1664    0.6270    0.8692 H   0  0  0  0  0  0  0  0  0  0  0  0
   -0.3688    1.2330   -1.5911 H   0  0  0  0  0  0  0  0  0  0  0  0
    0.2157   -0.3825   -1.9916 H   0  0  0  0  0  0  0  0  0  0  0  0
    2.0893    1.2561   -2.0661 H   0  0  0  0  0  0  0  0  0  0  0  0
    2.3660    0.1005   -0.7511 H   0  0  0  0  0  0  0  0  0  0  0  0
    0.8857    4.4614   -0.3385 H   0  0  0  0  0  0  0  0  0  0  0  0
   -0.0809    3.1802   -1.1075 H   0  0  0  0  0  0  0  0  0  0  0  0
    1.4599    3.6923   -1.8378 H   0  0  0  0  0  0  0  0  0  0  0  0
   -2.5632    0.4456    0.8123 N   0  0  0  0  0  0  0  0  0  0  0  0
   -4.0041    0.3881    0.8896 C   0  0  2  0  0  0  0  0  0  0  0  0
   -4.5267    1.8148    0.9930 C   0  0  0  0  0  0  0  0  0  0  0  0
   -3.8425    2.7522    1.3984 O   0  0  0  0  0  0  0  0  0  0  0  0
   -4.4618   -0.4459    2.0760 C   0  0  0  0  0  0  0  0  0  0  0  0
   -2.0813    1.1019    1.4195 H   0  0  0  0  0  0  0  0  0  0  0  0
   -4.3532   -0.0624   -0.0459 H   0  0  0  0  0  0  0  0  0  0  0  0
   -4.1214   -0.0100    3.0224 H   0  0  0  0  0  0  0  0  0  0  0  0
   -5.5540   -0.5121    2.1167 H   0  0  0  0  0  0  0  0  0  0  0  0
   -4.0605   -1.4632    2.0153 H   0  0  0  0  0  0  0  0  0  0  0  0
   -5.8602    1.9105    0.6204 N   0  0  0  0  0  0  0  0  0  0  0  0
   -6.5889    3.1572    0.6442 C   0  0  0  0  0  0  0  0  0  0  0  0
   -6.3441    1.0851    0.2792 H   0  0  0  0  0  0  0  0  0  0  0  0
   -7.0985    3.2663    1.6129 H   0  0  0  0  0  0  0  0  0  0  0  0
   -5.8888    3.9937    0.5020 H   0  0  0  0  0  0  0  0  0  0  0  0
   -7.3344    3.1615   -0.1646 H   0  0  0  0  0  0  0  0  0  0  0  0
  1  3  1  0  0  0  0
  1  7  1  0  0  0  0
  1  2  2  0  0  0  0
 35 36  1  0  0  0  0
 36 44  1  0  0  0  0
 36 37  2  0  0  0  0
  8  9  1  0  0  0  0
  9 17  1  0  0  0  0
  9 10  2  0  0  0  0
 18 19  1  0  0  0  0
 19 34  1  0  0  0  0
 19 20  2  0  0  0  0
 35 38  1  0  0  0  0
  8 11  1  0  0  0  0
 44 45  1  0  0  0  0
 23 24  1  0  0  0  0
 21 22  1  0  0  0  0
 18 21  1  0  0  0  0
 22 23  1  0  0  0  0
 34 35  1  0  0  0  0
  7  8  1  0  0  0  0
 17 18  1  0  0  0  0
  3  4  1  0  0  0  0
  3  5  1  0  0  0  0
  3  6  1  0  0  0  0
 38 41  1  0  0  0  0
 38 42  1  0  0  0  0
 38 43  1  0  0  0  0
 11 14  1  0  0  0  0
 11 15  1  0  0  0  0
 11 16  1  0  0  0  0
 45 47  1  0  0  0  0
 45 48  1  0  0  0  0
 45 49  1  0  0  0  0
 24 31  1  0  0  0  0
 24 32  1  0  0  0  0
 24 33  1  0  0  0  0
 21 27  1  0  0  0  0
 21 28  1  0  0  0  0
 22 29  1  0  0  0  0
 22 30  1  0  0  0  0
 35 40  1  0  0  0  0
  8 13  1  0  0  0  0
 18 26  1  0  0  0  0
 44 46  1  0  0  0  0
  7 12  1  0  0  0  0
 34 39  1  0  0  0  0
 17 25  1  0  0  0  0
M  END
$$$$

  -OEChem-05262214473D

 49 48  0     1  0  0  0  0  0999 V2000
   -0.0561   -5.3799    2.6949 C   0  0  0  0  0  0  0  0  0  0  0  0
    0.7325   -5.0736    3.5815 O   0  0  0  0  0  0  0  0  0  0  0  0
   -1.0067   -6.5099    2.9135 C   0  0  0  0  0  0  0  0  0  0  0  0
   -0.5910   -7.4777    2.5899 H   0  0  0  0  0  0  0  0  0  0  0  0
   -1.2629   -6.6440    3.9767 H   0  0  0  0  0  0  0  0  0  0  0  0
   -1.9729   -6.4206    2.3918 H   0  0  0  0  0  0  0  0  0  0  0  0
   -0.1735   -4.7694    1.4571 N   0  0  0  0  0  0  0  0  0  0  0  0
    0.6439   -3.6603    1.0409 C   0  0  2  0  0  0  0  0  0  0  0  0
   -0.2788   -2.5625    0.5280 C   0  0  0  0  0  0  0  0  0  0  0  0
   -1.4197   -2.7791    0.1251 O   0  0  0  0  0  0  0  0  0  0  0  0
    1.6395   -4.0779   -0.0301 C   0  0  0  0  0  0  0  0  0  0  0  0
   -0.8741   -5.1235    0.8083 H   0  0  0  0  0  0  0  0  0  0  0  0
    1.1738   -3.3062    1.9318 H   0  0  0  0  0  0  0  0  0  0  0  0
    1.1270   -4.4358   -0.9305 H   0  0  0  0  0  0  0  0  0  0  0  0
    2.2797   -3.2400   -0.3251 H   0  0  0  0  0  0  0  0  0  0  0  0
    2.2827   -4.8880    0.3303 H   0  0  0  0  0  0  0  0  0  0  0  0
    0.3351   -1.3153    0.5316 N   0  0  0  0  0  0  0  0  0  0  0  0
   -0.3268   -0.1184    0.0807 C   0  0  2  0  0  0  0  0  0  0  0  0
   -1.8249   -0.3914   -0.0120 C   0  0  0  0  0  0  0  0  0  0  0  0
   -2.2898   -1.3986   -0.5420 O   0  0  0  0  0  0  0  0  0  0  0  0
    0.2643    0.4098   -1.2336 C   0  0  0  0  0  0  0  0  0  0  0  0
    1.7083    0.9003   -1.1042 C   0  0  0  0  0  0  0  0  0  0  0  0
    1.8103    2.2765    0.0789 S   0  0  0  0  0  0  0  0  0  0  0  0
    0.9350    3.5221   -0.8946 C   0  0  0  0  0  0  0  0  0  0  0  0
    1.2790   -1.2290    0.9021 H   0  0  0  0  0  0  0  0  0  0  0  0
   -0.1664    0.6270    0.8692 H   0  0  0  0  0  0  0  0  0  0  0  0
   -0.3688    1.2330   -1.5911 H   0  0  0  0  0  0  0  0  0  0  0  0
    0.2157   -0.3825   -1.9916 H   0  0  0  0  0  0  0  0  0  0  0  0
    2.0893    1.2561   -2.0661 H   0  0  0  0  0  0  0  0  0  0  0  0
    2.3660    0.1005   -0.7511 H   0  0  0  0  0  0  0  0  0  0  0  0
    0.8857    4.4614   -0.3385 H   0  0  0  0  0  0  0  0  0  0  0  0
   -0.0809    3.1802   -1.1075 H   0  0  0  0  0  0  0  0  0  0  0  0
    1.4599    3.6923   -1.8378 H   0  0  0  0  0  0  0  0  0  0  0  0
   -2.5806    0.6350    0.5362 N   0  0  0  0  0  0  0  0  0  0  0  0
   -4.0244    0.6131    0.5557 C   0  0  2  0  0  0  0  0  0  0  0  0
   -4.5201    2.0242    0.2683 C   0  0  0  0  0  0  0  0  0  0  0  0
   -3.8342    3.0271    0.4551 O   0  0  0  0  0  0  0  0  0  0  0  0
   -4.5523    0.1131    1.8914 C   0  0  0  0  0  0  0  0  0  0  0  0
   -2.1119    1.4195    0.9795 H   0  0  0  0  0  0  0  0  0  0  0  0
   -4.3415   -0.0573   -0.2506 H   0  0  0  0  0  0  0  0  0  0  0  0
   -4.2447    0.7721    2.7115 H   0  0  0  0  0  0  0  0  0  0  0  0
   -5.6464    0.0700    1.8947 H   0  0  0  0  0  0  0  0  0  0  0  0
   -4.1708   -0.8901    2.1104 H   0  0  0  0  0  0  0  0  0  0  0  0
   -5.8333    2.0348   -0.1804 N   0  0  0  0  0  0  0  0  0  0  0  0
   -6.5351    3.2536   -0.5091 C   0  0  0  0  0  0  0  0  0  0  0  0
   -6.3194    1.1546   -0.3240 H   0  0  0  0  0  0  0  0  0  0  0  0
   -7.0846    3.6106    0.3745 H   0  0  0  0  0  0  0  0  0  0  0  0
   -5.8114    4.0195   -0.8248 H   0  0  0  0  0  0  0  0  0  0  0  0
   -7.2438    3.0592   -1.3276 H   0  0  0  0  0  0  0  0  0  0  0  0
  1  3  1  0  0  0  0
  1  7  1  0  0  0  0
  1  2  2  0  0  0  0
 35 36  1  0  0  0  0
 36 44  1  0  0  0  0
 36 37  2  0  0  0  0
  8  9  1  0  0  0  0
  9 17  1  0  0  0  0
  9 10  2  0  0  0  0
 18 19  1  0  0  0  0
 19 34  1  0  0  0  0
 19 20  2  0  0  0  0
 35 38  1  0  0  0  0
  8 11  1  0  0  0  0
 44 45  1  0  0  0  0
 23 24  1  0  0  0  0
 21 22  1  0  0  0  0
 18 21  1  0  0  0  0
 22 23  1  0  0  0  0
 34 35  1  0  0  0  0
  7  8  1  0  0  0  0
 17 18  1  0  0  0  0
  3  4  1  0  0  0  0
  3  5  1  0  0  0  0
  3  6  1  0  0  0  0
 38 41  1  0  0  0  0
 38 42  1  0  0  0  0
 38 43  1  0  0  0  0
 11 14  1  0  0  0  0
 11 15  1  0  0  0  0
 11 16  1  0  0  0  0
 45 47  1  0  0  0  0
 45 48  1  0  0  0  0
 45 49  1  0  0  0  0
 24 31  1  0  0  0  0
 24 32  1  0  0  0  0
 24 33  1  0  0  0  0
 21 27  1  0  0  0  0
 21 28  1  0  0  0  0
 22 29  1  0  0  0  0
 22 30  1  0  0  0  0
 35 40  1  0  0  0  0
  8 13  1  0  0  0  0
 18 26  1  0  0  0  0
 44 46  1  0  0  0  0
  7 12  1  0  0  0  0
 34 39  1  0  0  0  0
 17 25  1  0  0  0  0
M  END
$$$$

  -OEChem-05262214473D

 49 48  0     1  0  0  0  0  0999 V2000
   -0.0561   -5.3799    2.6949 C   0  0  0  0  0  0  0  0  0  0  0  0
    0.7325   -5.0736    3.5815 O   0  0  0  0  0  0  0  0  0  0  0  0
   -1.0067   -6.5099    2.9135 C   0  0  0  0  0  0  0  0  0  0  0  0
   -0.5910   -7.4777    2.5899 H   0  0  0  0  0  0  0  0  0  0  0  0
   -1.2629   -6.6440    3.9767 H   0  0  0  0  0  0  0  0  0  0  0  0
   -1.9729   -6.4206    2.3918 H   0  0  0  0  0  0  0  0  0  0  0  0
   -0.1735   -4.7694    1.4571 N   0  0  0  0  0  0  0  0  0  0  0  0
    0.6439   -3.6603    1.0409 C   0  0  2  0  0  0  0  0  0  0  0  0
   -0.2788   -2.5625    0.5280 C   0  0  0  0  0  0  0  0  0  0  0  0
   -1.4197   -2.7791    0.1251 O   0  0  0  0  0  0  0  0  0  0  0  0
    1.6395   -4.0779   -0.0301 C   0  0  0  0  0  0  0  0  0  0  0  0
   -0.8741   -5.1235    0.8083 H   0  0  0  0  0  0  0  0  0  0  0  0
    1.1738   -3.3062    1.9318 H   0  0  0  0  0  0  0  0  0  0  0  0
    1.1270   -4.4358   -0.9305 H   0  0  0  0  0  0  0  0  0  0  0  0
    2.2797   -3.2400   -0.3251 H   0  0  0  0  0  0  0  0  0  0  0  0
    2.2827   -4.8880    0.3303 H   0  0  0  0  0  0  0  0  0  0  0  0
    0.3351   -1.3153    0.5316 N   0  0  0  0  0  0  0  0  0  0  0  0
   -0.3268   -0.1184    0.0807 C   0  0  2  0  0  0  0  0  0  0  0  0
   -1.8249   -0.3914   -0.0120 C   0  0  0  0  0  0  0  0  0  0  0  0
   -2.2876   -1.4957   -0.2909 O   0  0  0  0  0  0  0  0  0  0  0  0
    0.2643    0.4098   -1.2336 C   0  0  0  0  0  0  0  0  0  0  0  0
    1.7083    0.9003   -1.1042 C   0  0  0  0  0  0  0  0  0  0  0  0
    1.8103    2.2765    0.0789 S   0  0  0  0  0  0  0  0  0  0  0  0
    0.9350    3.5221   -0.8946 C   0  0  0  0  0  0  0  0  0  0  0  0
    1.2790   -1.2290    0.9021 H   0  0  0  0  0  0  0  0  0  0  0  0
   -0.1664    0.6270    0.8692 H   0  0  0  0  0  0  0  0  0  0  0  0
   -0.3688    1.2330   -1.5911 H   0  0  0  0  0  0  0  0  0  0  0  0
    0.2157   -0.3825   -1.9916 H   0  0  0  0  0  0  0  0  0  0  0  0
    2.0893    1.2561   -2.0661 H   0  0  0  0  0  0  0  0  0  0  0  0
    2.3660    0.1005   -0.7511 H   0  0  0  0  0  0  0  0  0  0  0  0
    0.8857    4.4614   -0.3385 H   0  0  0  0  0  0  0  0  0  0  0  0
   -0.0809    3.1802   -1.1075 H   0  0  0  0  0  0  0  0  0  0  0  0
    1.4599    3.6923   -1.8378 H   0  0  0  0  0  0  0  0  0  0  0  0
   -2.5817    0.7480    0.2206 N   0  0  0  0  0  0  0  0  0  0  0  0
   -4.0251    0.7459    0.1752 C   0  0  2  0  0  0  0  0  0  0  0  0
   -4.4767    2.0422   -0.4846 C   0  0  0  0  0  0  0  0  0  0  0  0
   -3.7782    3.0528   -0.5255 O   0  0  0  0  0  0  0  0  0  0  0  0
   -4.6223    0.6075    1.5669 C   0  0  0  0  0  0  0  0  0  0  0  0
   -2.1161    1.6149    0.4724 H   0  0  0  0  0  0  0  0  0  0  0  0
   -4.3206   -0.1045   -0.4490 H   0  0  0  0  0  0  0  0  0  0  0  0
   -4.3371    1.4505    2.2068 H   0  0  0  0  0  0  0  0  0  0  0  0
   -5.7162    0.5773    1.5280 H   0  0  0  0  0  0  0  0  0  0  0  0
   -4.2728   -0.3106    2.0514 H   0  0  0  0  0  0  0  0  0  0  0  0
   -5.7683    1.9510   -0.9843 N   0  0  0  0  0  0  0  0  0  0  0  0
   -6.4282    3.0528   -1.6450 C   0  0  0  0  0  0  0  0  0  0  0  0
   -6.2666    1.0680   -0.9231 H   0  0  0  0  0  0  0  0  0  0  0  0
   -7.0083    3.6282   -0.9087 H   0  0  0  0  0  0  0  0  0  0  0  0
   -5.6747    3.7060   -2.1094 H   0  0  0  0  0  0  0  0  0  0  0  0
   -7.1040    2.6633   -2.4207 H   0  0  0  0  0  0  0  0  0  0  0  0
  1  3  1  0  0  0  0
  1  7  1  0  0  0  0
  1  2  2  0  0  0  0
 35 36  1  0  0  0  0
 36 44  1  0  0  0  0
 36 37  2  0  0  0  0
  8  9  1  0  0  0  0
  9 17  1  0  0  0  0
  9 10  2  0  0  0  0
 18 19  1  0  0  0  0
 19 34  1  0  0  0  0
 19 20  2  0  0  0  0
 35 38  1  0  0  0  0
  8 11  1  0  0  0  0
 44 45  1  0  0  0  0
 23 24  1  0  0  0  0
 21 22  1  0  0  0  0
 18 21  1  0  0  0  0
 22 23  1  0  0  0  0
 34 35  1  0  0  0  0
  7  8  1  0  0  0  0
 17 18  1  0  0  0  0
  3  4  1  0  0  0  0
  3  5  1  0  0  0  0
  3  6  1  0  0  0  0
 38 41  1  0  0  0  0
 38 42  1  0  0  0  0
 38 43  1  0  0  0  0
 11 14  1  0  0  0  0
 11 15  1  0  0  0  0
 11 16  1  0  0  0  0
 45 47  1  0  0  0  0
 45 48  1  0  0  0  0
 45 49  1  0  0  0  0
 24 31  1  0  0  0  0
 24 32  1  0  0  0  0
 24 33  1  0  0  0  0
 21 27  1  0  0  0  0
 21 28  1  0  0  0  0
 22 29  1  0  0  0  0
 22 30  1  0  0  0  0
 35 40  1  0  0  0  0
  8 13  1  0  0  0  0
 18 26  1  0  0  0  0
 44 46  1  0  0  0  0
  7 12  1  0  0  0  0
 34 39  1  0  0  0  0
 17 25  1  0  0  0  0
M  END
$$$$

  -OEChem-05262214473D

 49 48  0     1  0  0  0  0  0999 V2000
   -0.0561   -5.3799    2.6949 C   0  0  0  0  0  0  0  0  0  0  0  0
    0.7325   -5.0736    3.5815 O   0  0  0  0  0  0  0  0  0  0  0  0
   -1.0067   -6.5099    2.9135 C   0  0  0  0  0  0  0  0  0  0  0  0
   -0.5910   -7.4777    2.5899 H   0  0  0  0  0  0  0  0  0  0  0  0
   -1.2629   -6.6440    3.9767 H   0  0  0  0  0  0  0  0  0  0  0  0
   -1.9729   -6.4206    2.3918 H   0  0  0  0  0  0  0  0  0  0  0  0
   -0.1735   -4.7694    1.4571 N   0  0  0  0  0  0  0  0  0  0  0  0
    0.6439   -3.6603    1.0409 C   0  0  2  0  0  0  0  0  0  0  0  0
   -0.2788   -2.5625    0.5280 C   0  0  0  0  0  0  0  0  0  0  0  0
   -1.4197   -2.7791    0.1251 O   0  0  0  0  0  0  0  0  0  0  0  0
    1.6395   -4.0779   -0.0301 C   0  0  0  0  0  0  0  0  0  0  0  0
   -0.8741   -5.1235    0.8083 H   0  0  0  0  0  0  0  0  0  0  0  0
    1.1738   -3.3062    1.9318 H   0  0  0  0  0  0  0  0  0  0  0  0
    1.1270   -4.4358   -0.9305 H   0  0  0  0  0  0  0  0  0  0  0  0
    2.2797   -3.2400   -0.3251 H   0  0  0  0  0  0  0  0  0  0  0  0
    2.2827   -4.8880    0.3303 H   0  0  0  0  0  0  0  0  0  0  0  0
    0.3351   -1.3153    0.5316 N   0  0  0  0  0  0  0  0  0  0  0  0
   -0.3268   -0.1184    0.0807 C   0  0  2  0  0  0  0  0  0  0  0  0
   -1.8249   -0.3914   -0.0120 C   0  0  0  0  0  0  0  0  0  0  0  0
   -2.2987   -1.5258   -0.0235 O   0  0  0  0  0  0  0  0  0  0  0  0
    0.2643    0.4098   -1.2336 C   0  0  0  0  0  0  0  0  0  0  0  0
    1.7083    0.9003   -1.1042 C   0  0  0  0  0  0  0  0  0  0  0  0
    1.8103    2.2765    0.0789 S   0  0  0  0  0  0  0  0  0  0  0  0
    0.9350    3.5221   -0.8946 C   0  0  0  0  0  0  0  0  0  0  0  0
    1.2790   -1.2290    0.9021 H   0  0  0  0  0  0  0  0  0  0  0  0
   -0.1664    0.6270    0.8692 H   0  0  0  0  0  0  0  0  0  0  0  0
   -0.3688    1.2330   -1.5911 H   0  0  0  0  0  0  0  0  0  0  0  0
    0.2157   -0.3825   -1.9916 H   0  0  0  0  0  0  0  0  0  0  0  0
    2.0893    1.2561   -2.0661 H   0  0  0  0  0  0  0  0  0  0  0  0
    2.3660    0.1005   -0.7511 H   0  0  0  0  0  0  0  0  0  0  0  0
    0.8857    4.4614   -0.3385 H   0  0  0  0  0  0  0  0  0  0  0  0
   -0.0809    3.1802   -1.1075 H   0  0  0  0  0  0  0  0  0  0  0  0
    1.4599    3.6923   -1.8378 H   0  0  0  0  0  0  0  0  0  0  0  0
   -2.5663    0.7770   -0.1131 N   0  0  0  0  0  0  0  0  0  0  0  0
   -4.0060    0.7775   -0.2262 C   0  0  2  0  0  0  0  0  0  0  0  0
   -4.3997    1.8675   -1.2144 C   0  0  0  0  0  0  0  0  0  0  0  0
   -3.6782    2.8276   -1.4766 O   0  0  0  0  0  0  0  0  0  0  0  0
   -4.6671    1.0037    1.1245 C   0  0  0  0  0  0  0  0  0  0  0  0
   -2.0937    1.6749   -0.0673 H   0  0  0  0  0  0  0  0  0  0  0  0
   -4.2920   -0.2008   -0.6277 H   0  0  0  0  0  0  0  0  0  0  0  0
   -4.3923    1.9790    1.5425 H   0  0  0  0  0  0  0  0  0  0  0  0
   -5.7586    0.9753    1.0417 H   0  0  0  0  0  0  0  0  0  0  0  0
   -4.3595    0.2358    1.8425 H   0  0  0  0  0  0  0  0  0  0  0  0
   -5.6695    1.6647   -1.7364 N   0  0  0  0  0  0  0  0  0  0  0  0
   -6.2754    2.5684   -2.6863 C   0  0  0  0  0  0  0  0  0  0  0  0
   -6.1891    0.8312   -1.4773 H   0  0  0  0  0  0  0  0  0  0  0  0
   -6.8750    3.3179   -2.1490 H   0  0  0  0  0  0  0  0  0  0  0  0
   -5.4881    3.0745   -3.2643 H   0  0  0  0  0  0  0  0  0  0  0  0
   -6.9245    2.0009   -3.3694 H   0  0  0  0  0  0  0  0  0  0  0  0
  1  3  1  0  0  0  0
  1  7  1  0  0  0  0
  1  2  2  0  0  0  0
 35 36  1  0  0  0  0
 36 44  1  0  0  0  0
 36 37  2  0  0  0  0
  8  9  1  0  0  0  0
  9 17  1  0  0  0  0
  9 10  2  0  0  0  0
 18 19  1  0  0  0  0
 19 34  1  0  0  0  0
 19 20  2  0  0  0  0
 35 38  1  0  0  0  0
  8 11  1  0  0  0  0
 44 45  1  0  0  0  0
 23 24  1  0  0  0  0
 21 22  1  0  0  0  0
 18 21  1  0  0  0  0
 22 23  1  0  0  0  0
 34 35  1  0  0  0  0
  7  8  1  0  0  0  0
 17 18  1  0  0  0  0
  3  4  1  0  0  0  0
  3  5  1  0  0  0  0
  3  6  1  0  0  0  0
 38 41  1  0  0  0  0
 38 42  1  0  0  0  0
 38 43  1  0  0  0  0
 11 14  1  0  0  0  0
 11 15  1  0  0  0  0
 11 16  1  0  0  0  0
 45 47  1  0  0  0  0
 45 48  1  0  0  0  0
 45 49  1  0  0  0  0
 24 31  1  0  0  0  0
 24 32  1  0  0  0  0
 24 33  1  0  0  0  0
 21 27  1  0  0  0  0
 21 28  1  0  0  0  0
 22 29  1  0  0  0  0
 22 30  1  0  0  0  0
 35 40  1  0  0  0  0
  8 13  1  0  0  0  0
 18 26  1  0  0  0  0
 44 46  1  0  0  0  0
  7 12  1  0  0  0  0
 34 39  1  0  0  0  0
 17 25  1  0  0  0  0
M  END
$$$$

  -OEChem-05262214473D

 49 48  0     1  0  0  0  0  0999 V2000
   -0.0561   -5.3799    2.6949 C   0  0  0  0  0  0  0  0  0  0  0  0
    0.7325   -5.0736    3.5815 O   0  0  0  0  0  0  0  0  0  0  0  0
   -1.0067   -6.5099    2.9135 C   0  0  0  0  0  0  0  0  0  0  0  0
   -0.5910   -7.4777    2.5899 H   0  0  0  0  0  0  0  0  0  0  0  0
   -1.2629   -6.6440    3.9767 H   0  0  0  0  0  0  0  0  0  0  0  0
   -1.9729   -6.4206    2.3918 H   0  0  0  0  0  0  0  0  0  0  0  0
   -0.1735   -4.7694    1.4571 N   0  0  0  0  0  0  0  0  0  0  0  0
    0.6439   -3.6603    1.0409 C   0  0  2  0  0  0  0  0  0  0  0  0
   -0.2788   -2.5625    0.5280 C   0  0  0  0  0  0  0  0  0  0  0  0
   -1.4197   -2.7791    0.1251 O   0  0  0  0  0  0  0  0  0  0  0  0
    1.6395   -4.0779   -0.0301 C   0  0  0  0  0  0  0  0  0  0  0  0
   -0.8741   -5.1235    0.8083 H   0  0  0  0  0  0  0  0  0  0  0  0
    1.1738   -3.3062    1.9318 H   0  0  0  0  0  0  0  0  0  0  0  0
    1.1270   -4.4358   -0.9305 H   0  0  0  0  0  0  0  0  0  0  0  0
    2.2797   -3.2400   -0.3251 H   0  0  0  0  0  0  0  0  0  0  0  0
    2.2827   -4.8880    0.3303 H   0  0  0  0  0  0  0  0  0  0  0  0
    0.3351   -1.3153    0.5316 N   0  0  0  0  0  0  0  0  0  0  0  0
   -0.3268   -0.1184    0.0807 C   0  0  2  0  0  0  0  0  0  0  0  0
   -1.8236   -0.2579    0.3407 C   0  0  0  0  0  0  0  0  0  0  0  0
   -2.3262   -1.2669    0.8312 O   0  0  0  0  0  0  0  0  0  0  0  0
   -0.0048    0.2039   -1.3849 C   0  0  0  0  0  0  0  0  0  0  0  0
    1.4622    0.5677   -1.6258 C   0  0  0  0  0  0  0  0  0  0  0  0
    1.9154    2.0501   -0.6764 S   0  0  0  0  0  0  0  0  0  0  0  0
    0.9341    3.2577   -1.5953 C   0  0  0  0  0  0  0  0  0  0  0  0
    1.2790   -1.2290    0.9021 H   0  0  0  0  0  0  0  0  0  0  0  0
    0.0534    0.6909    0.7159 H   0  0  0  0  0  0  0  0  0  0  0  0
   -0.6436    1.0386   -1.7037 H   0  0  0  0  0  0  0  0  0  0  0  0
   -0.2728   -0.6589   -2.0081 H   0  0  0  0  0  0  0  0  0  0  0  0
    1.6455    0.7781   -2.6837 H   0  0  0  0  0  0  0  0  0  0  0  0
    2.1255   -0.2466   -1.3195 H   0  0  0  0  0  0  0  0  0  0  0  0
    1.0724    4.2530   -1.1659 H   0  0  0  0  0  0  0  0  0  0  0  0
   -0.1246    2.9915   -1.5443 H   0  0  0  0  0  0  0  0  0  0  0  0
    1.2490    3.2729   -2.6415 H   0  0  0  0  0  0  0  0  0  0  0  0
   -2.5342    0.8613   -0.0688 N   0  0  0  0  0  0  0  0  0  0  0  0
   -3.9689    0.9621    0.0606 C   0  0  2  0  0  0  0  0  0  0  0  0
   -4.5062    1.6530   -1.1858 C   0  0  0  0  0  0  0  0  0  0  0  0
   -3.8170    2.3770   -1.9012 O   0  0  0  0  0  0  0  0  0  0  0  0
   -4.3588    1.7262    1.3164 C   0  0  0  0  0  0  0  0  0  0  0  0
   -2.0336    1.6636   -0.4395 H   0  0  0  0  0  0  0  0  0  0  0  0
   -4.3551   -0.0620    0.1064 H   0  0  0  0  0  0  0  0  0  0  0  0
   -3.9806    2.7546    1.2887 H   0  0  0  0  0  0  0  0  0  0  0  0
   -5.4469    1.7771    1.4281 H   0  0  0  0  0  0  0  0  0  0  0  0
   -3.9465    1.2444    2.2095 H   0  0  0  0  0  0  0  0  0  0  0  0
   -5.8569    1.4007   -1.3811 N   0  0  0  0  0  0  0  0  0  0  0  0
   -6.6011    1.9536   -2.4885 C   0  0  0  0  0  0  0  0  0  0  0  0
   -6.3445    0.7731   -0.7486 H   0  0  0  0  0  0  0  0  0  0  0  0
   -7.0662    2.9019   -2.1814 H   0  0  0  0  0  0  0  0  0  0  0  0
   -5.9203    2.1359   -3.3331 H   0  0  0  0  0  0  0  0  0  0  0  0
   -7.3837    1.2438   -2.7950 H   0  0  0  0  0  0  0  0  0  0  0  0
  1  3  1  0  0  0  0
  1  7  1  0  0  0  0
  1  2  2  0  0  0  0
 35 36  1  0  0  0  0
 36 44  1  0  0  0  0
 36 37  2  0  0  0  0
  8  9  1  0  0  0  0
  9 17  1  0  0  0  0
  9 10  2  0  0  0  0
 18 19  1  0  0  0  0
 19 34  1  0  0  0  0
 19 20  2  0  0  0  0
 35 38  1  0  0  0  0
  8 11  1  0  0  0  0
 44 45  1  0  0  0  0
 23 24  1  0  0  0  0
 21 22  1  0  0  0  0
 18 21  1  0  0  0  0
 22 23  1  0  0  0  0
 34 35  1  0  0  0  0
  7  8  1  0  0  0  0
 17 18  1  0  0  0  0
  3  4  1  0  0  0  0
  3  5  1  0  0  0  0
  3  6  1  0  0  0  0
 38 41  1  0  0  0  0
 38 42  1  0  0  0  0
 38 43  1  0  0  0  0
 11 14  1  0  0  0  0
 11 15  1  0  0  0  0
 11 16  1  0  0  0  0
 45 47  1  0  0  0  0
 45 48  1  0  0  0  0
 45 49  1  0  0  0  0
 24 31  1  0  0  0  0
 24 32  1  0  0  0  0
 24 33  1  0  0  0  0
 21 27  1  0  0  0  0
 21 28  1  0  0  0  0
 22 29  1  0  0  0  0
 22 30  1  0  0  0  0
 35 40  1  0  0  0  0
  8 13  1  0  0  0  0
 18 26  1  0  0  0  0
 44 46  1  0  0  0  0
  7 12  1  0  0  0  0
 34 39  1  0  0  0  0
 17 25  1  0  0  0  0
M  END
$$$$

  -OEChem-05262214473D

 49 48  0     1  0  0  0  0  0999 V2000
   -0.0561   -5.3799    2.6949 C   0  0  0  0  0  0  0  0  0  0  0  0
    0.7325   -5.0736    3.5815 O   0  0  0  0  0  0  0  0  0  0  0  0
   -1.0067   -6.5099    2.9135 C   0  0  0  0  0  0  0  0  0  0  0  0
   -0.5910   -7.4777    2.5899 H   0  0  0  0  0  0  0  0  0  0  0  0
   -1.2629   -6.6440    3.9767 H   0  0  0  0  0  0  0  0  0  0  0  0
   -1.9729   -6.4206    2.3918 H   0  0  0  0  0  0  0  0  0  0  0  0
   -0.1735   -4.7694    1.4571 N   0  0  0  0  0  0  0  0  0  0  0  0
    0.6439   -3.6603    1.0409 C   0  0  2  0  0  0  0  0  0  0  0  0
   -0.2788   -2.5625    0.5280 C   0  0  0  0  0  0  0  0  0  0  0  0
   -1.4197   -2.7791    0.1251 O   0  0  0  0  0  0  0  0  0  0  0  0
    1.6395   -4.0779   -0.0301 C   0  0  0  0  0  0  0  0  0  0  0  0
   -0.8741   -5.1235    0.8083 H   0  0  0  0  0  0  0  0  0  0  0  0
    1.1738   -3.3062    1.9318 H   0  0  0  0  0  0  0  0  0  0  0  0
    1.1270   -4.4358   -0.9305 H   0  0  0  0  0  0  0  0  0  0  0  0
    2.2797   -3.2400   -0.3251 H   0  0  0  0  0  0  0  0  0  0  0  0
    2.2827   -4.8880    0.3303 H   0  0  0  0  0  0  0  0  0  0  0  0
    0.3351   -1.3153    0.5316 N   0  0  0  0  0  0  0  0  0  0  0  0
   -0.3268   -0.1184    0.0807 C   0  0  2  0  0  0  0  0  0  0  0  0
   -1.8236   -0.2579    0.3407 C   0  0  0  0  0  0  0  0  0  0  0  0
   -2.2986   -1.1322    1.0627 O   0  0  0  0  0  0  0  0  0  0  0  0
   -0.0048    0.2039   -1.3849 C   0  0  0  0  0  0  0  0  0  0  0  0
    1.4622    0.5677   -1.6258 C   0  0  0  0  0  0  0  0  0  0  0  0
    1.9154    2.0501   -0.6764 S   0  0  0  0  0  0  0  0  0  0  0  0
    0.9341    3.2577   -1.5953 C   0  0  0  0  0  0  0  0  0  0  0  0
    1.2790   -1.2290    0.9021 H   0  0  0  0  0  0  0  0  0  0  0  0
    0.0534    0.6909    0.7159 H   0  0  0  0  0  0  0  0  0  0  0  0
   -0.6436    1.0386   -1.7037 H   0  0  0  0  0  0  0  0  0  0  0  0
   -0.2728   -0.6589   -2.0081 H   0  0  0  0  0  0  0  0  0  0  0  0
    1.6455    0.7781   -2.6837 H   0  0  0  0  0  0  0  0  0  0  0  0
    2.1255   -0.2466   -1.3195 H   0  0  0  0  0  0  0  0  0  0  0  0
    1.0724    4.2530   -1.1659 H   0  0  0  0  0  0  0  0  0  0  0  0
   -0.1246    2.9915   -1.5443 H   0  0  0  0  0  0  0  0  0  0  0  0
    1.2490    3.2729   -2.6415 H   0  0  0  0  0  0  0  0  0  0  0  0
   -2.5672    0.6862   -0.3528 N   0  0  0  0  0  0  0  0  0  0  0  0
   -4.0080    0.7488   -0.2791 C   0  0  2  0  0  0  0  0  0  0  0  0
   -4.5364    1.0751   -1.6697 C   0  0  0  0  0  0  0  0  0  0  0  0
   -3.8567    1.6259   -2.5334 O   0  0  0  0  0  0  0  0  0  0  0  0
   -4.4657    1.7869    0.7337 C   0  0  0  0  0  0  0  0  0  0  0  0
   -2.0893    1.3911   -0.9064 H   0  0  0  0  0  0  0  0  0  0  0  0
   -4.3530   -0.2473    0.0188 H   0  0  0  0  0  0  0  0  0  0  0  0
   -4.1294    2.7914    0.4520 H   0  0  0  0  0  0  0  0  0  0  0  0
   -5.5578    1.8131    0.8091 H   0  0  0  0  0  0  0  0  0  0  0  0
   -4.0604    1.5671    1.7273 H   0  0  0  0  0  0  0  0  0  0  0  0
   -5.8692    0.7181   -1.8187 N   0  0  0  0  0  0  0  0  0  0  0  0
   -6.6027    0.9366   -3.0435 C   0  0  0  0  0  0  0  0  0  0  0  0
   -6.3491    0.2490   -1.0562 H   0  0  0  0  0  0  0  0  0  0  0  0
   -7.1152    1.9088   -2.9962 H   0  0  0  0  0  0  0  0  0  0  0  0
   -5.9054    0.9309   -3.8943 H   0  0  0  0  0  0  0  0  0  0  0  0
   -7.3461    0.1363   -3.1733 H   0  0  0  0  0  0  0  0  0  0  0  0
  1  3  1  0  0  0  0
  1  7  1  0  0  0  0
  1  2  2  0  0  0  0
 35 36  1  0  0  0  0
 36 44  1  0  0  0  0
 36 37  2  0  0  0  0
  8  9  1  0  0  0  0
  9 17  1  0  0  0  0
  9 10  2  0  0  0  0
 18 19  1  0  0  0  0
 19 34  1  0  0  0  0
 19 20  2  0  0  0  0
 35 38  1  0  0  0  0
  8 11  1  0  0  0  0
 44 45  1  0  0  0  0
 23 24  1  0  0  0  0
 21 22  1  0  0  0  0
 18 21  1  0  0  0  0
 22 23  1  0  0  0  0
 34 35  1  0  0  0  0
  7  8  1  0  0  0  0
 17 18  1  0  0  0  0
  3  4  1  0  0  0  0
  3  5  1  0  0  0  0
  3  6  1  0  0  0  0
 38 41  1  0  0  0  0
 38 42  1  0  0  0  0
 38 43  1  0  0  0  0
 11 14  1  0  0  0  0
 11 15  1  0  0  0  0
 11 16  1  0  0  0  0
 45 47  1  0  0  0  0
 45 48  1  0  0  0  0
 45 49  1  0  0  0  0
 24 31  1  0  0  0  0
 24 32  1  0  0  0  0
 24 33  1  0  0  0  0
 21 27  1  0  0  0  0
 21 28  1  0  0  0  0
 22 29  1  0  0  0  0
 22 30  1  0  0  0  0
 35 40  1  0  0  0  0
  8 13  1  0  0  0  0
 18 26  1  0  0  0  0
 44 46  1  0  0  0  0
  7 12  1  0  0  0  0
 34 39  1  0  0  0  0
 17 25  1  0  0  0  0
M  END
$$$$

  -OEChem-05262214473D

 49 48  0     1  0  0  0  0  0999 V2000
   -0.0561   -5.3799    2.6949 C   0  0  0  0  0  0  0  0  0  0  0  0
    0.7325   -5.0736    3.5815 O   0  0  0  0  0  0  0  0  0  0  0  0
   -1.0067   -6.5099    2.9135 C   0  0  0  0  0  0  0  0  0  0  0  0
   -0.5910   -7.4777    2.5899 H   0  0  0  0  0  0  0  0  0  0  0  0
   -1.2629   -6.6440    3.9767 H   0  0  0  0  0  0  0  0  0  0  0  0
   -1.9729   -6.4206    2.3918 H   0  0  0  0  0  0  0  0  0  0  0  0
   -0.1735   -4.7694    1.4571 N   0  0  0  0  0  0  0  0  0  0  0  0
    0.6439   -3.6603    1.0409 C   0  0  2  0  0  0  0  0  0  0  0  0
   -0.2788   -2.5625    0.5280 C   0  0  0  0  0  0  0  0  0  0  0  0
   -1.4197   -2.7791    0.1251 O   0  0  0  0  0  0  0  0  0  0  0  0
    1.6395   -4.0779   -0.0301 C   0  0  0  0  0  0  0  0  0  0  0  0
   -0.8741   -5.1235    0.8083 H   0  0  0  0  0  0  0  0  0  0  0  0
    1.1738   -3.3062    1.9318 H   0  0  0  0  0  0  0  0  0  0  0  0
    1.1270   -4.4358   -0.9305 H   0  0  0  0  0  0  0  0  0  0  0  0
    2.2797   -3.2400   -0.3251 H   0  0  0  0  0  0  0  0  0  0  0  0
    2.2827   -4.8880    0.3303 H   0  0  0  0  0  0  0  0  0  0  0  0
    0.3351   -1.3153    0.5316 N   0  0  0  0  0  0  0  0  0  0  0  0
   -0.3268   -0.1184    0.0807 C   0  0  2  0  0  0  0  0  0  0  0  0
   -1.8236   -0.2579    0.3407 C   0  0  0  0  0  0  0  0  0  0  0  0
   -2.2833   -0.9421    1.2527 O   0  0  0  0  0  0  0  0  0  0  0  0
   -0.0048    0.2039   -1.3849 C   0  0  0  0  0  0  0  0  0  0  0  0
    1.4622    0.5677   -1.6258 C   0  0  0  0  0  0  0  0  0  0  0  0
    1.9154    2.0501   -0.6764 S   0  0  0  0  0  0  0  0  0  0  0  0
    0.9341    3.2577   -1.5953 C   0  0  0  0  0  0  0  0  0  0  0  0
    1.2790   -1.2290    0.9021 H   0  0  0  0  0  0  0  0  0  0  0  0
    0.0534    0.6909    0.7159 H   0  0  0  0  0  0  0  0  0  0  0  0
   -0.6436    1.0386   -1.7037 H   0  0  0  0  0  0  0  0  0  0  0  0
   -0.2728   -0.6589   -2.0081 H   0  0  0  0  0  0  0  0  0  0  0  0
    1.6455    0.7781   -2.6837 H   0  0  0  0  0  0  0  0  0  0  0  0
    2.1255   -0.2466   -1.3195 H   0  0  0  0  0  0  0  0  0  0  0  0
    1.0724    4.2530   -1.1659 H   0  0  0  0  0  0  0  0  0  0  0  0
   -0.1246    2.9915   -1.5443 H   0  0  0  0  0  0  0  0  0  0  0  0
    1.2490    3.2729   -2.6415 H   0  0  0  0  0  0  0  0  0  0  0  0
   -2.5846    0.4435   -0.5835 N   0  0  0  0  0  0  0  0  0  0  0  0
   -4.0284    0.4547   -0.5540 C   0  0  2  0  0  0  0  0  0  0  0  0
   -4.5286    0.3927   -1.9912 C   0  0  0  0  0  0  0  0  0  0  0  0
   -3.8470    0.7381   -2.9542 O   0  0  0  0  0  0  0  0  0  0  0  0
   -4.5578    1.6928    0.1528 C   0  0  0  0  0  0  0  0  0  0  0  0
   -2.1200    1.0068   -1.2895 H   0  0  0  0  0  0  0  0  0  0  0  0
   -4.3408   -0.4485   -0.0187 H   0  0  0  0  0  0  0  0  0  0  0  0
   -4.2548    2.6078   -0.3691 H   0  0  0  0  0  0  0  0  0  0  0  0
   -5.6518    1.6857    0.1995 H   0  0  0  0  0  0  0  0  0  0  0  0
   -4.1731    1.7514    1.1768 H   0  0  0  0  0  0  0  0  0  0  0  0
   -5.8407   -0.0528   -2.0683 N   0  0  0  0  0  0  0  0  0  0  0  0
   -6.5463   -0.1866   -3.3214 C   0  0  0  0  0  0  0  0  0  0  0  0
   -6.3231   -0.3354   -1.2203 H   0  0  0  0  0  0  0  0  0  0  0  0
   -7.0994    0.7405   -3.5323 H   0  0  0  0  0  0  0  0  0  0  0  0
   -5.8247   -0.3749   -4.1301 H   0  0  0  0  0  0  0  0  0  0  0  0
   -7.2521   -1.0279   -3.2567 H   0  0  0  0  0  0  0  0  0  0  0  0
  1  3  1  0  0  0  0
  1  7  1  0  0  0  0
  1  2  2  0  0  0  0
 35 36  1  0  0  0  0
 36 44  1  0  0  0  0
 36 37  2  0  0  0  0
  8  9  1  0  0  0  0
  9 17  1  0  0  0  0
  9 10  2  0  0  0  0
 18 19  1  0  0  0  0
 19 34  1  0  0  0  0
 19 20  2  0  0  0  0
 35 38  1  0  0  0  0
  8 11  1  0  0  0  0
 44 45  1  0  0  0  0
 23 24  1  0  0  0  0
 21 22  1  0  0  0  0
 18 21  1  0  0  0  0
 22 23  1  0  0  0  0
 34 35  1  0  0  0  0
  7  8  1  0  0  0  0
 17 18  1  0  0  0  0
  3  4  1  0  0  0  0
  3  5  1  0  0  0  0
  3  6  1  0  0  0  0
 38 41  1  0  0  0  0
 38 42  1  0  0  0  0
 38 43  1  0  0  0  0
 11 14  1  0  0  0  0
 11 15  1  0  0  0  0
 11 16  1  0  0  0  0
 45 47  1  0  0  0  0
 45 48  1  0  0  0  0
 45 49  1  0  0  0  0
 24 31  1  0  0  0  0
 24 32  1  0  0  0  0
 24 33  1  0  0  0  0
 21 27  1  0  0  0  0
 21 28  1  0  0  0  0
 22 29  1  0  0  0  0
 22 30  1  0  0  0  0
 35 40  1  0  0  0  0
  8 13  1  0  0  0  0
 18 26  1  0  0  0  0
 44 46  1  0  0  0  0
  7 12  1  0  0  0  0
 34 39  1  0  0  0  0
 17 25  1  0  0  0  0
M  END
$$$$

  -OEChem-05262214473D

 49 48  0     1  0  0  0  0  0999 V2000
   -0.0561   -5.3799    2.6949 C   0  0  0  0  0  0  0  0  0  0  0  0
    0.7325   -5.0736    3.5815 O   0  0  0  0  0  0  0  0  0  0  0  0
   -1.0067   -6.5099    2.9135 C   0  0  0  0  0  0  0  0  0  0  0  0
   -0.5910   -7.4777    2.5899 H   0  0  0  0  0  0  0  0  0  0  0  0
   -1.2629   -6.6440    3.9767 H   0  0  0  0  0  0  0  0  0  0  0  0
   -1.9729   -6.4206    2.3918 H   0  0  0  0  0  0  0  0  0  0  0  0
   -0.1735   -4.7694    1.4571 N   0  0  0  0  0  0  0  0  0  0  0  0
    0.6439   -3.6603    1.0409 C   0  0  2  0  0  0  0  0  0  0  0  0
   -0.2788   -2.5625    0.5280 C   0  0  0  0  0  0  0  0  0  0  0  0
   -1.4197   -2.7791    0.1251 O   0  0  0  0  0  0  0  0  0  0  0  0
    1.6395   -4.0779   -0.0301 C   0  0  0  0  0  0  0  0  0  0  0  0
   -0.8741   -5.1235    0.8083 H   0  0  0  0  0  0  0  0  0  0  0  0
    1.1738   -3.3062    1.9318 H   0  0  0  0  0  0  0  0  0  0  0  0
    1.1270   -4.4358   -0.9305 H   0  0  0  0  0  0  0  0  0  0  0  0
    2.2797   -3.2400   -0.3251 H   0  0  0  0  0  0  0  0  0  0  0  0
    2.2827   -4.8880    0.3303 H   0  0  0  0  0  0  0  0  0  0  0  0
    0.3351   -1.3153    0.5316 N   0  0  0  0  0  0  0  0  0  0  0  0
   -0.3268   -0.1184    0.0807 C   0  0  2  0  0  0  0  0  0  0  0  0
   -1.8236   -0.2579    0.3407 C   0  0  0  0  0  0  0  0  0  0  0  0
   -2.2814   -0.7095    1.3884 O   0  0  0  0  0  0  0  0  0  0  0  0
   -0.0048    0.2039   -1.3849 C   0  0  0  0  0  0  0  0  0  0  0  0
    1.4622    0.5677   -1.6258 C   0  0  0  0  0  0  0  0  0  0  0  0
    1.9154    2.0501   -0.6764 S   0  0  0  0  0  0  0  0  0  0  0  0
    0.9341    3.2577   -1.5953 C   0  0  0  0  0  0  0  0  0  0  0  0
    1.2790   -1.2290    0.9021 H   0  0  0  0  0  0  0  0  0  0  0  0
    0.0534    0.6909    0.7159 H   0  0  0  0  0  0  0  0  0  0  0  0
   -0.6436    1.0386   -1.7037 H   0  0  0  0  0  0  0  0  0  0  0  0
   -0.2728   -0.6589   -2.0081 H   0  0  0  0  0  0  0  0  0  0  0  0
    1.6455    0.7781   -2.6837 H   0  0  0  0  0  0  0  0  0  0  0  0
    2.1255   -0.2466   -1.3195 H   0  0  0  0  0  0  0  0  0  0  0  0
    1.0724    4.2530   -1.1659 H   0  0  0  0  0  0  0  0  0  0  0  0
   -0.1246    2.9915   -1.5443 H   0  0  0  0  0  0  0  0  0  0  0  0
    1.2490    3.2729   -2.6415 H   0  0  0  0  0  0  0  0  0  0  0  0
   -2.5853    0.1497   -0.7451 N   0  0  0  0  0  0  0  0  0  0  0  0
   -4.0285    0.1000   -0.7454 C   0  0  2  0  0  0  0  0  0  0  0  0
   -4.4834   -0.3477   -2.1282 C   0  0  0  0  0  0  0  0  0  0  0  0
   -3.7886   -0.2259   -3.1350 O   0  0  0  0  0  0  0  0  0  0  0  0
   -4.6288    1.4503   -0.3865 C   0  0  0  0  0  0  0  0  0  0  0  0
   -2.1237    0.5370   -1.5628 H   0  0  0  0  0  0  0  0  0  0  0  0
   -4.3192   -0.6518   -0.0036 H   0  0  0  0  0  0  0  0  0  0  0  0
   -4.3485    2.2165   -1.1185 H   0  0  0  0  0  0  0  0  0  0  0  0
   -5.7225    1.4038   -0.3592 H   0  0  0  0  0  0  0  0  0  0  0  0
   -4.2772    1.7846    0.5956 H   0  0  0  0  0  0  0  0  0  0  0  0
   -5.7733   -0.8596   -2.1130 N   0  0  0  0  0  0  0  0  0  0  0  0
   -6.4356   -1.3397   -3.3033 C   0  0  0  0  0  0  0  0  0  0  0  0
   -6.2684   -0.9405   -1.2298 H   0  0  0  0  0  0  0  0  0  0  0  0
   -7.0199   -0.5234   -3.7530 H   0  0  0  0  0  0  0  0  0  0  0  0
   -5.6835   -1.6925   -4.0243 H   0  0  0  0  0  0  0  0  0  0  0  0
   -7.1079   -2.1694   -3.0393 H   0  0  0  0  0  0  0  0  0  0  0  0
  1  3  1  0  0  0  0
  1  7  1  0  0  0  0
  1  2  2  0  0  0  0
 35 36  1  0  0  0  0
 36 44  1  0  0  0  0
 36 37  2  0  0  0  0
  8  9  1  0  0  0  0
  9 17  1  0  0  0  0
  9 10  2  0  0  0  0
 18 19  1  0  0  0  0
 19 34  1  0  0  0  0
 19 20  2  0  0  0  0
 35 38  1  0  0  0  0
  8 11  1  0  0  0  0
 44 45  1  0  0  0  0
 23 24  1  0  0  0  0
 21 22  1  0  0  0  0
 18 21  1  0  0  0  0
 22 23  1  0  0  0  0
 34 35  1  0  0  0  0
  7  8  1  0  0  0  0
 17 18  1  0  0  0  0
  3  4  1  0  0  0  0
  3  5  1  0  0  0  0
  3  6  1  0  0  0  0
 38 41  1  0  0  0  0
 38 42  1  0  0  0  0
 38 43  1  0  0  0  0
 11 14  1  0  0  0  0
 11 15  1  0  0  0  0
 11 16  1  0  0  0  0
 45 47  1  0  0  0  0
 45 48  1  0  0  0  0
 45 49  1  0  0  0  0
 24 31  1  0  0  0  0
 24 32  1  0  0  0  0
 24 33  1  0  0  0  0
 21 27  1  0  0  0  0
 21 28  1  0  0  0  0
 22 29  1  0  0  0  0
 22 30  1  0  0  0  0
 35 40  1  0  0  0  0
  8 13  1  0  0  0  0
 18 26  1  0  0  0  0
 44 46  1  0  0  0  0
  7 12  1  0  0  0  0
 34 39  1  0  0  0  0
 17 25  1  0  0  0  0
M  END
$$$$

  -OEChem-05262214473D

 49 48  0     1  0  0  0  0  0999 V2000
   -0.0561   -5.3799    2.6949 C   0  0  0  0  0  0  0  0  0  0  0  0
    0.7325   -5.0736    3.5815 O   0  0  0  0  0  0  0  0  0  0  0  0
   -1.0067   -6.5099    2.9135 C   0  0  0  0  0  0  0  0  0  0  0  0
   -0.5910   -7.4777    2.5899 H   0  0  0  0  0  0  0  0  0  0  0  0
   -1.2629   -6.6440    3.9767 H   0  0  0  0  0  0  0  0  0  0  0  0
   -1.9729   -6.4206    2.3918 H   0  0  0  0  0  0  0  0  0  0  0  0
   -0.1735   -4.7694    1.4571 N   0  0  0  0  0  0  0  0  0  0  0  0
    0.6439   -3.6603    1.0409 C   0  0  2  0  0  0  0  0  0  0  0  0
   -0.2788   -2.5625    0.5280 C   0  0  0  0  0  0  0  0  0  0  0  0
   -1.4197   -2.7791    0.1251 O   0  0  0  0  0  0  0  0  0  0  0  0
    1.6395   -4.0779   -0.0301 C   0  0  0  0  0  0  0  0  0  0  0  0
   -0.8741   -5.1235    0.8083 H   0  0  0  0  0  0  0  0  0  0  0  0
    1.1738   -3.3062    1.9318 H   0  0  0  0  0  0  0  0  0  0  0  0
    1.1270   -4.4358   -0.9305 H   0  0  0  0  0  0  0  0  0  0  0  0
    2.2797   -3.2400   -0.3251 H   0  0  0  0  0  0  0  0  0  0  0  0
    2.2827   -4.8880    0.3303 H   0  0  0  0  0  0  0  0  0  0  0  0
    0.3351   -1.3153    0.5316 N   0  0  0  0  0  0  0  0  0  0  0  0
   -0.3268   -0.1184    0.0807 C   0  0  2  0  0  0  0  0  0  0  0  0
   -1.8236   -0.2579    0.3407 C   0  0  0  0  0  0  0  0  0  0  0  0
   -2.2931   -0.4503    1.4604 O   0  0  0  0  0  0  0  0  0  0  0  0
   -0.0048    0.2039   -1.3849 C   0  0  0  0  0  0  0  0  0  0  0  0
    1.4622    0.5677   -1.6258 C   0  0  0  0  0  0  0  0  0  0  0  0
    1.9154    2.0501   -0.6764 S   0  0  0  0  0  0  0  0  0  0  0  0
    0.9341    3.2577   -1.5953 C   0  0  0  0  0  0  0  0  0  0  0  0
    1.2790   -1.2290    0.9021 H   0  0  0  0  0  0  0  0  0  0  0  0
    0.0534    0.6909    0.7159 H   0  0  0  0  0  0  0  0  0  0  0  0
   -0.6436    1.0386   -1.7037 H   0  0  0  0  0  0  0  0  0  0  0  0
   -0.2728   -0.6589   -2.0081 H   0  0  0  0  0  0  0  0  0  0  0  0
    1.6455    0.7781   -2.6837 H   0  0  0  0  0  0  0  0  0  0  0  0
    2.1255   -0.2466   -1.3195 H   0  0  0  0  0  0  0  0  0  0  0  0
    1.0724    4.2530   -1.1659 H   0  0  0  0  0  0  0  0  0  0  0  0
   -0.1246    2.9915   -1.5443 H   0  0  0  0  0  0  0  0  0  0  0  0
    1.2490    3.2729   -2.6415 H   0  0  0  0  0  0  0  0  0  0  0  0
   -2.5692   -0.1751   -0.8266 N   0  0  0  0  0  0  0  0  0  0  0  0
   -4.0085   -0.2913   -0.8402 C   0  0  2  0  0  0  0  0  0  0  0  0
   -4.4038   -1.0957   -2.0715 C   0  0  0  0  0  0  0  0  0  0  0  0
   -3.6853   -1.2004   -3.0634 O   0  0  0  0  0  0  0  0  0  0  0  0
   -4.6740    1.0761   -0.8475 C   0  0  0  0  0  0  0  0  0  0  0  0
   -2.1000    0.0137   -1.7075 H   0  0  0  0  0  0  0  0  0  0  0  0
   -4.2898   -0.8434    0.0632 H   0  0  0  0  0  0  0  0  0  0  0  0
   -4.4040    1.6441   -1.7453 H   0  0  0  0  0  0  0  0  0  0  0  0
   -5.7652    0.9864   -0.8290 H   0  0  0  0  0  0  0  0  0  0  0  0
   -4.3653    1.6644    0.0233 H   0  0  0  0  0  0  0  0  0  0  0  0
   -5.6715   -1.6473   -1.9497 N   0  0  0  0  0  0  0  0  0  0  0  0
   -6.2784   -2.4440   -2.9903 C   0  0  0  0  0  0  0  0  0  0  0  0
   -6.1886   -1.5250   -1.0840 H   0  0  0  0  0  0  0  0  0  0  0  0
   -6.8822   -1.7968   -3.6434 H   0  0  0  0  0  0  0  0  0  0  0  0
   -5.4915   -2.9321   -3.5842 H   0  0  0  0  0  0  0  0  0  0  0  0
   -6.9235   -3.2105   -2.5360 H   0  0  0  0  0  0  0  0  0  0  0  0
  1  3  1  0  0  0  0
  1  7  1  0  0  0  0
  1  2  2  0  0  0  0
 35 36  1  0  0  0  0
 36 44  1  0  0  0  0
 36 37  2  0  0  0  0
  8  9  1  0  0  0  0
  9 17  1  0  0  0  0
  9 10  2  0  0  0  0
 18 19  1  0  0  0  0
 19 34  1  0  0  0  0
 19 20  2  0  0  0  0
 35 38  1  0  0  0  0
  8 11  1  0  0  0  0
 44 45  1  0  0  0  0
 23 24  1  0  0  0  0
 21 22  1  0  0  0  0
 18 21  1  0  0  0  0
 22 23  1  0  0  0  0
 34 35  1  0  0  0  0
  7  8  1  0  0  0  0
 17 18  1  0  0  0  0
  3  4  1  0  0  0  0
  3  5  1  0  0  0  0
  3  6  1  0  0  0  0
 38 41  1  0  0  0  0
 38 42  1  0  0  0  0
 38 43  1  0  0  0  0
 11 14  1  0  0  0  0
 11 15  1  0  0  0  0
 11 16  1  0  0  0  0
 45 47  1  0  0  0  0
 45 48  1  0  0  0  0
 45 49  1  0  0  0  0
 24 31  1  0  0  0  0
 24 32  1  0  0  0  0
 24 33  1  0  0  0  0
 21 27  1  0  0  0  0
 21 28  1  0  0  0  0
 22 29  1  0  0  0  0
 22 30  1  0  0  0  0
 35 40  1  0  0  0  0
  8 13  1  0  0  0  0
 18 26  1  0  0  0  0
 44 46  1  0  0  0  0
  7 12  1  0  0  0  0
 34 39  1  0  0  0  0
 17 25  1  0  0  0  0
M  END
$$$$

  -OEChem-05262214473D

 49 48  0     1  0  0  0  0  0999 V2000
   -0.0561   -5.3799    2.6949 C   0  0  0  0  0  0  0  0  0  0  0  0
    0.7325   -5.0736    3.5815 O   0  0  0  0  0  0  0  0  0  0  0  0
   -1.0067   -6.5099    2.9135 C   0  0  0  0  0  0  0  0  0  0  0  0
   -0.5910   -7.4777    2.5899 H   0  0  0  0  0  0  0  0  0  0  0  0
   -1.2629   -6.6440    3.9767 H   0  0  0  0  0  0  0  0  0  0  0  0
   -1.9729   -6.4206    2.3918 H   0  0  0  0  0  0  0  0  0  0  0  0
   -0.1735   -4.7694    1.4571 N   0  0  0  0  0  0  0  0  0  0  0  0
    0.6439   -3.6603    1.0409 C   0  0  2  0  0  0  0  0  0  0  0  0
   -0.2788   -2.5625    0.5280 C   0  0  0  0  0  0  0  0  0  0  0  0
   -1.4197   -2.7791    0.1251 O   0  0  0  0  0  0  0  0  0  0  0  0
    1.6395   -4.0779   -0.0301 C   0  0  0  0  0  0  0  0  0  0  0  0
   -0.8741   -5.1235    0.8083 H   0  0  0  0  0  0  0  0  0  0  0  0
    1.1738   -3.3062    1.9318 H   0  0  0  0  0  0  0  0  0  0  0  0
    1.1270   -4.4358   -0.9305 H   0  0  0  0  0  0  0  0  0  0  0  0
    2.2797   -3.2400   -0.3251 H   0  0  0  0  0  0  0  0  0  0  0  0
    2.2827   -4.8880    0.3303 H   0  0  0  0  0  0  0  0  0  0  0  0
    0.3351   -1.3153    0.5316 N   0  0  0  0  0  0  0  0  0  0  0  0
   -0.3268   -0.1184    0.0807 C   0  0  2  0  0  0  0  0  0  0  0  0
   -1.8236   -0.2579    0.3407 C   0  0  0  0  0  0  0  0  0  0  0  0
   -2.3174   -0.1822    1.4639 O   0  0  0  0  0  0  0  0  0  0  0  0
   -0.0048    0.2039   -1.3849 C   0  0  0  0  0  0  0  0  0  0  0  0
    1.4622    0.5677   -1.6258 C   0  0  0  0  0  0  0  0  0  0  0  0
    1.9154    2.0501   -0.6764 S   0  0  0  0  0  0  0  0  0  0  0  0
    0.9341    3.2577   -1.5953 C   0  0  0  0  0  0  0  0  0  0  0  0
    1.2790   -1.2290    0.9021 H   0  0  0  0  0  0  0  0  0  0  0  0
    0.0534    0.6909    0.7159 H   0  0  0  0  0  0  0  0  0  0  0  0
   -0.6436    1.0386   -1.7037 H   0  0  0  0  0  0  0  0  0  0  0  0
   -0.2728   -0.6589   -2.0081 H   0  0  0  0  0  0  0  0  0  0  0  0
    1.6455    0.7781   -2.6837 H   0  0  0  0  0  0  0  0  0  0  0  0
    2.1255   -0.2466   -1.3195 H   0  0  0  0  0  0  0  0  0  0  0  0
    1.0724    4.2530   -1.1659 H   0  0  0  0  0  0  0  0  0  0  0  0
   -0.1246    2.9915   -1.5443 H   0  0  0  0  0  0  0  0  0  0  0  0
    1.2490    3.2729   -2.6415 H   0  0  0  0  0  0  0  0  0  0  0  0
   -2.5373   -0.5088   -0.8224 N   0  0  0  0  0  0  0  0  0  0  0  0
   -3.9697   -0.6924   -0.8319 C   0  0  2  0  0  0  0  0  0  0  0  0
   -4.2953   -1.8003   -1.8249 C   0  0  0  0  0  0  0  0  0  0  0  0
   -3.5443   -2.1189   -2.7444 O   0  0  0  0  0  0  0  0  0  0  0  0
   -4.6902    0.5955   -1.1989 C   0  0  0  0  0  0  0  0  0  0  0  0
   -2.0507   -0.5275   -1.7138 H   0  0  0  0  0  0  0  0  0  0  0  0
   -4.2545   -1.0102    0.1771 H   0  0  0  0  0  0  0  0  0  0  0  0
   -4.4175    0.9295   -2.2066 H   0  0  0  0  0  0  0  0  0  0  0  0
   -5.7769    0.4621   -1.1777 H   0  0  0  0  0  0  0  0  0  0  0  0
   -4.4317    1.3992   -0.5010 H   0  0  0  0  0  0  0  0  0  0  0  0
   -5.5423   -2.3622   -1.5895 N   0  0  0  0  0  0  0  0  0  0  0  0
   -6.0851   -3.4243   -2.4039 C   0  0  0  0  0  0  0  0  0  0  0  0
   -6.0892   -2.0490   -0.7929 H   0  0  0  0  0  0  0  0  0  0  0  0
   -6.6956   -2.9929   -3.2109 H   0  0  0  0  0  0  0  0  0  0  0  0
   -5.2618   -4.0093   -2.8397 H   0  0  0  0  0  0  0  0  0  0  0  0
   -6.7114   -4.0801   -1.7812 H   0  0  0  0  0  0  0  0  0  0  0  0
  1  3  1  0  0  0  0
  1  7  1  0  0  0  0
  1  2  2  0  0  0  0
 35 36  1  0  0  0  0
 36 44  1  0  0  0  0
 36 37  2  0  0  0  0
  8  9  1  0  0  0  0
  9 17  1  0  0  0  0
  9 10  2  0  0  0  0
 18 19  1  0  0  0  0
 19 34  1  0  0  0  0
 19 20  2  0  0  0  0
 35 38  1  0  0  0  0
  8 11  1  0  0  0  0
 44 45  1  0  0  0  0
 23 24  1  0  0  0  0
 21 22  1  0  0  0  0
 18 21  1  0  0  0  0
 22 23  1  0  0  0  0
 34 35  1  0  0  0  0
  7  8  1  0  0  0  0
 17 18  1  0  0  0  0
  3  4  1  0  0  0  0
  3  5  1  0  0  0  0
  3  6  1  0  0  0  0
 38 41  1  0  0  0  0
 38 42  1  0  0  0  0
 38 43  1  0  0  0  0
 11 14  1  0  0  0  0
 11 15  1  0  0  0  0
 11 16  1  0  0  0  0
 45 47  1  0  0  0  0
 45 48  1  0  0  0  0
 45 49  1  0  0  0  0
 24 31  1  0  0  0  0
 24 32  1  0  0  0  0
 24 33  1  0  0  0  0
 21 27  1  0  0  0  0
 21 28  1  0  0  0  0
 22 29  1  0  0  0  0
 22 30  1  0  0  0  0
 35 40  1  0  0  0  0
  8 13  1  0  0  0  0
 18 26  1  0  0  0  0
 44 46  1  0  0  0  0
  7 12  1  0  0  0  0
 34 39  1  0  0  0  0
 17 25  1  0  0  0  0
M  END
$$$$

  -OEChem-05262214473D

 49 48  0     1  0  0  0  0  0999 V2000
   -0.0561   -5.3799    2.6949 C   0  0  0  0  0  0  0  0  0  0  0  0
    0.7325   -5.0736    3.5815 O   0  0  0  0  0  0  0  0  0  0  0  0
   -1.0067   -6.5099    2.9135 C   0  0  0  0  0  0  0  0  0  0  0  0
   -0.5910   -7.4777    2.5899 H   0  0  0  0  0  0  0  0  0  0  0  0
   -1.2629   -6.6440    3.9767 H   0  0  0  0  0  0  0  0  0  0  0  0
   -1.9729   -6.4206    2.3918 H   0  0  0  0  0  0  0  0  0  0  0  0
   -0.1735   -4.7694    1.4571 N   0  0  0  0  0  0  0  0  0  0  0  0
    0.6439   -3.6603    1.0409 C   0  0  2  0  0  0  0  0  0  0  0  0
   -0.2788   -2.5625    0.5280 C   0  0  0  0  0  0  0  0  0  0  0  0
   -1.4197   -2.7791    0.1251 O   0  0  0  0  0  0  0  0  0  0  0  0
    1.6395   -4.0779   -0.0301 C   0  0  0  0  0  0  0  0  0  0  0  0
   -0.8741   -5.1235    0.8083 H   0  0  0  0  0  0  0  0  0  0  0  0
    1.1738   -3.3062    1.9318 H   0  0  0  0  0  0  0  0  0  0  0  0
    1.1270   -4.4358   -0.9305 H   0  0  0  0  0  0  0  0  0  0  0  0
    2.2797   -3.2400   -0.3251 H   0  0  0  0  0  0  0  0  0  0  0  0
    2.2827   -4.8880    0.3303 H   0  0  0  0  0  0  0  0  0  0  0  0
    0.3351   -1.3153    0.5316 N   0  0  0  0  0  0  0  0  0  0  0  0
   -0.3268   -0.1184    0.0807 C   0  0  2  0  0  0  0  0  0  0  0  0
   -1.8236   -0.2579    0.3407 C   0  0  0  0  0  0  0  0  0  0  0  0
   -2.3529    0.0766    1.3986 O   0  0  0  0  0  0  0  0  0  0  0  0
   -0.0048    0.2039   -1.3849 C   0  0  0  0  0  0  0  0  0  0  0  0
    1.4622    0.5677   -1.6258 C   0  0  0  0  0  0  0  0  0  0  0  0
    1.9154    2.0501   -0.6764 S   0  0  0  0  0  0  0  0  0  0  0  0
    0.9341    3.2577   -1.5953 C   0  0  0  0  0  0  0  0  0  0  0  0
    1.2790   -1.2290    0.9021 H   0  0  0  0  0  0  0  0  0  0  0  0
    0.0534    0.6909    0.7159 H   0  0  0  0  0  0  0  0  0  0  0  0
   -0.6436    1.0386   -1.7037 H   0  0  0  0  0  0  0  0  0  0  0  0
   -0.2728   -0.6589   -2.0081 H   0  0  0  0  0  0  0  0  0  0  0  0
    1.6455    0.7781   -2.6837 H   0  0  0  0  0  0  0  0  0  0  0  0
    2.1255   -0.2466   -1.3195 H   0  0  0  0  0  0  0  0  0  0  0  0
    1.0724    4.2530   -1.1659 H   0  0  0  0  0  0  0  0  0  0  0  0
   -0.1246    2.9915   -1.5443 H   0  0  0  0  0  0  0  0  0  0  0  0
    1.2490    3.2729   -2.6415 H   0  0  0  0  0  0  0  0  0  0  0  0
   -2.4920   -0.8287   -0.7329 N   0  0  0  0  0  0  0  0  0  0  0  0
   -3.9147   -1.0761   -0.7211 C   0  0  2  0  0  0  0  0  0  0  0  0
   -4.1653   -2.4135   -1.4052 C   0  0  0  0  0  0  0  0  0  0  0  0
   -3.3752   -2.9190   -2.1997 O   0  0  0  0  0  0  0  0  0  0  0  0
   -4.6764    0.0414   -1.4166 C   0  0  0  0  0  0  0  0  0  0  0  0
   -1.9790   -1.0497   -1.5813 H   0  0  0  0  0  0  0  0  0  0  0  0
   -4.2157   -1.1409    0.3302 H   0  0  0  0  0  0  0  0  0  0  0  0
   -4.3881    0.1216   -2.4711 H   0  0  0  0  0  0  0  0  0  0  0  0
   -5.7568   -0.1334   -1.3818 H   0  0  0  0  0  0  0  0  0  0  0  0
   -4.4716    1.0070   -0.9417 H   0  0  0  0  0  0  0  0  0  0  0  0
   -5.3946   -2.9555   -1.0571 N   0  0  0  0  0  0  0  0  0  0  0  0
   -5.8692   -4.2138   -1.5840 C   0  0  0  0  0  0  0  0  0  0  0  0
   -5.9770   -2.4769   -0.3763 H   0  0  0  0  0  0  0  0  0  0  0  0
   -6.4728   -4.0302   -2.4850 H   0  0  0  0  0  0  0  0  0  0  0  0
   -5.0101   -4.8506   -1.8417 H   0  0  0  0  0  0  0  0  0  0  0  0
   -6.4860   -4.7191   -0.8262 H   0  0  0  0  0  0  0  0  0  0  0  0
  1  3  1  0  0  0  0
  1  7  1  0  0  0  0
  1  2  2  0  0  0  0
 35 36  1  0  0  0  0
 36 44  1  0  0  0  0
 36 37  2  0  0  0  0
  8  9  1  0  0  0  0
  9 17  1  0  0  0  0
  9 10  2  0  0  0  0
 18 19  1  0  0  0  0
 19 34  1  0  0  0  0
 19 20  2  0  0  0  0
 35 38  1  0  0  0  0
  8 11  1  0  0  0  0
 44 45  1  0  0  0  0
 23 24  1  0  0  0  0
 21 22  1  0  0  0  0
 18 21  1  0  0  0  0
 22 23  1  0  0  0  0
 34 35  1  0  0  0  0
  7  8  1  0  0  0  0
 17 18  1  0  0  0  0
  3  4  1  0  0  0  0
  3  5  1  0  0  0  0
  3  6  1  0  0  0  0
 38 41  1  0  0  0  0
 38 42  1  0  0  0  0
 38 43  1  0  0  0  0
 11 14  1  0  0  0  0
 11 15  1  0  0  0  0
 11 16  1  0  0  0  0
 45 47  1  0  0  0  0
 45 48  1  0  0  0  0
 45 49  1  0  0  0  0
 24 31  1  0  0  0  0
 24 32  1  0  0  0  0
 24 33  1  0  0  0  0
 21 27  1  0  0  0  0
 21 28  1  0  0  0  0
 22 29  1  0  0  0  0
 22 30  1  0  0  0  0
 35 40  1  0  0  0  0
  8 13  1  0  0  0  0
 18 26  1  0  0  0  0
 44 46  1  0  0  0  0
  7 12  1  0  0  0  0
 34 39  1  0  0  0  0
 17 25  1  0  0  0  0
M  END
$$$$

  -OEChem-05262214473D

 49 48  0     1  0  0  0  0  0999 V2000
   -0.0561   -5.3799    2.6949 C   0  0  0  0  0  0  0  0  0  0  0  0
    0.7325   -5.0736    3.5815 O   0  0  0  0  0  0  0  0  0  0  0  0
   -1.0067   -6.5099    2.9135 C   0  0  0  0  0  0  0  0  0  0  0  0
   -0.5910   -7.4777    2.5899 H   0  0  0  0  0  0  0  0  0  0  0  0
   -1.2629   -6.6440    3.9767 H   0  0  0  0  0  0  0  0  0  0  0  0
   -1.9729   -6.4206    2.3918 H   0  0  0  0  0  0  0  0  0  0  0  0
   -0.1735   -4.7694    1.4571 N   0  0  0  0  0  0  0  0  0  0  0  0
    0.6439   -3.6603    1.0409 C   0  0  2  0  0  0  0  0  0  0  0  0
   -0.2788   -2.5625    0.5280 C   0  0  0  0  0  0  0  0  0  0  0  0
   -1.4197   -2.7791    0.1251 O   0  0  0  0  0  0  0  0  0  0  0  0
    1.6395   -4.0779   -0.0301 C   0  0  0  0  0  0  0  0  0  0  0  0
   -0.8741   -5.1235    0.8083 H   0  0  0  0  0  0  0  0  0  0  0  0
    1.1738   -3.3062    1.9318 H   0  0  0  0  0  0  0  0  0  0  0  0
    1.1270   -4.4358   -0.9305 H   0  0  0  0  0  0  0  0  0  0  0  0
    2.2797   -3.2400   -0.3251 H   0  0  0  0  0  0  0  0  0  0  0  0
    2.2827   -4.8880    0.3303 H   0  0  0  0  0  0  0  0  0  0  0  0
    0.3351   -1.3153    0.5316 N   0  0  0  0  0  0  0  0  0  0  0  0
   -0.3268   -0.1184    0.0807 C   0  0  2  0  0  0  0  0  0  0  0  0
   -1.8236   -0.2579    0.3407 C   0  0  0  0  0  0  0  0  0  0  0  0
   -2.3970    0.3084    1.2690 O   0  0  0  0  0  0  0  0  0  0  0  0
   -0.0048    0.2039   -1.3849 C   0  0  0  0  0  0  0  0  0  0  0  0
    1.4622    0.5677   -1.6258 C   0  0  0  0  0  0  0  0  0  0  0  0
    1.9154    2.0501   -0.6764 S   0  0  0  0  0  0  0  0  0  0  0  0
    0.9341    3.2577   -1.5953 C   0  0  0  0  0  0  0  0  0  0  0  0
    1.2790   -1.2290    0.9021 H   0  0  0  0  0  0  0  0  0  0  0  0
    0.0534    0.6909    0.7159 H   0  0  0  0  0  0  0  0  0  0  0  0
   -0.6436    1.0386   -1.7037 H   0  0  0  0  0  0  0  0  0  0  0  0
   -0.2728   -0.6589   -2.0081 H   0  0  0  0  0  0  0  0  0  0  0  0
    1.6455    0.7781   -2.6837 H   0  0  0  0  0  0  0  0  0  0  0  0
    2.1255   -0.2466   -1.3195 H   0  0  0  0  0  0  0  0  0  0  0  0
    1.0724    4.2530   -1.1659 H   0  0  0  0  0  0  0  0  0  0  0  0
   -0.1246    2.9915   -1.5443 H   0  0  0  0  0  0  0  0  0  0  0  0
    1.2490    3.2729   -2.6415 H   0  0  0  0  0  0  0  0  0  0  0  0
   -2.4362   -1.1130   -0.5642 N   0  0  0  0  0  0  0  0  0  0  0  0
   -3.8473   -1.4161   -0.5153 C   0  0  2  0  0  0  0  0  0  0  0  0
   -4.0226   -2.8935   -0.8410 C   0  0  0  0  0  0  0  0  0  0  0  0
   -3.1894   -3.5459   -1.4664 O   0  0  0  0  0  0  0  0  0  0  0  0
   -4.6334   -0.5485   -1.4859 C   0  0  0  0  0  0  0  0  0  0  0  0
   -1.8899   -1.5173   -1.3190 H   0  0  0  0  0  0  0  0  0  0  0  0
   -4.1761   -1.2265    0.5123 H   0  0  0  0  0  0  0  0  0  0  0  0
   -4.3179   -0.7246   -2.5208 H   0  0  0  0  0  0  0  0  0  0  0  0
   -5.7063   -0.7595   -1.4272 H   0  0  0  0  0  0  0  0  0  0  0  0
   -4.4825    0.5144   -1.2688 H   0  0  0  0  0  0  0  0  0  0  0  0
   -5.2383   -3.3869   -0.3886 N   0  0  0  0  0  0  0  0  0  0  0  0
   -5.6452   -4.7586   -0.5864 C   0  0  0  0  0  0  0  0  0  0  0  0
   -5.8595   -2.7794    0.1375 H   0  0  0  0  0  0  0  0  0  0  0  0
   -6.2291   -4.8380   -1.5152 H   0  0  0  0  0  0  0  0  0  0  0  0
   -4.7535   -5.3987   -0.6581 H   0  0  0  0  0  0  0  0  0  0  0  0
   -6.2627   -5.0839    0.2638 H   0  0  0  0  0  0  0  0  0  0  0  0
  1  3  1  0  0  0  0
  1  7  1  0  0  0  0
  1  2  2  0  0  0  0
 35 36  1  0  0  0  0
 36 44  1  0  0  0  0
 36 37  2  0  0  0  0
  8  9  1  0  0  0  0
  9 17  1  0  0  0  0
  9 10  2  0  0  0  0
 18 19  1  0  0  0  0
 19 34  1  0  0  0  0
 19 20  2  0  0  0  0
 35 38  1  0  0  0  0
  8 11  1  0  0  0  0
 44 45  1  0  0  0  0
 23 24  1  0  0  0  0
 21 22  1  0  0  0  0
 18 21  1  0  0  0  0
 22 23  1  0  0  0  0
 34 35  1  0  0  0  0
  7  8  1  0  0  0  0
 17 18  1  0  0  0  0
  3  4  1  0  0  0  0
  3  5  1  0  0  0  0
  3  6  1  0  0  0  0
 38 41  1  0  0  0  0
 38 42  1  0  0  0  0
 38 43  1  0  0  0  0
 11 14  1  0  0  0  0
 11 15  1  0  0  0  0
 11 16  1  0  0  0  0
 45 47  1  0  0  0  0
 45 48  1  0  0  0  0
 45 49  1  0  0  0  0
 24 31  1  0  0  0  0
 24 32  1  0  0  0  0
 24 33  1  0  0  0  0
 21 27  1  0  0  0  0
 21 28  1  0  0  0  0
 22 29  1  0  0  0  0
 22 30  1  0  0  0  0
 35 40  1  0  0  0  0
  8 13  1  0  0  0  0
 18 26  1  0  0  0  0
 44 46  1  0  0  0  0
  7 12  1  0  0  0  0
 34 39  1  0  0  0  0
 17 25  1  0  0  0  0
M  END
$$$$

  -OEChem-05262214473D

 49 48  0     1  0  0  0  0  0999 V2000
   -0.0561   -5.3799    2.6949 C   0  0  0  0  0  0  0  0  0  0  0  0
    0.7325   -5.0736    3.5815 O   0  0  0  0  0  0  0  0  0  0  0  0
   -1.0067   -6.5099    2.9135 C   0  0  0  0  0  0  0  0  0  0  0  0
   -0.5910   -7.4777    2.5899 H   0  0  0  0  0  0  0  0  0  0  0  0
   -1.2629   -6.6440    3.9767 H   0  0  0  0  0  0  0  0  0  0  0  0
   -1.9729   -6.4206    2.3918 H   0  0  0  0  0  0  0  0  0  0  0  0
   -0.1735   -4.7694    1.4571 N   0  0  0  0  0  0  0  0  0  0  0  0
    0.6439   -3.6603    1.0409 C   0  0  2  0  0  0  0  0  0  0  0  0
   -0.2788   -2.5625    0.5280 C   0  0  0  0  0  0  0  0  0  0  0  0
   -1.4197   -2.7791    0.1251 O   0  0  0  0  0  0  0  0  0  0  0  0
    1.6395   -4.0779   -0.0301 C   0  0  0  0  0  0  0  0  0  0  0  0
   -0.8741   -5.1235    0.8083 H   0  0  0  0  0  0  0  0  0  0  0  0
    1.1738   -3.3062    1.9318 H   0  0  0  0  0  0  0  0  0  0  0  0
    1.1270   -4.4358   -0.9305 H   0  0  0  0  0  0  0  0  0  0  0  0
    2.2797   -3.2400   -0.3251 H   0  0  0  0  0  0  0  0  0  0  0  0
    2.2827   -4.8880    0.3303 H   0  0  0  0  0  0  0  0  0  0  0  0
    0.3351   -1.3153    0.5316 N   0  0  0  0  0  0  0  0  0  0  0  0
   -0.3268   -0.1184    0.0807 C   0  0  2  0  0  0  0  0  0  0  0  0
   -1.8236   -0.2579    0.3407 C   0  0  0  0  0  0  0  0  0  0  0  0
   -2.4468    0.4975    1.0838 O   0  0  0  0  0  0  0  0  0  0  0  0
   -0.0048    0.2039   -1.3849 C   0  0  0  0  0  0  0  0  0  0  0  0
    1.4622    0.5677   -1.6258 C   0  0  0  0  0  0  0  0  0  0  0  0
    1.9154    2.0501   -0.6764 S   0  0  0  0  0  0  0  0  0  0  0  0
    0.9341    3.2577   -1.5953 C   0  0  0  0  0  0  0  0  0  0  0  0
    1.2790   -1.2290    0.9021 H   0  0  0  0  0  0  0  0  0  0  0  0
    0.0534    0.6909    0.7159 H   0  0  0  0  0  0  0  0  0  0  0  0
   -0.6436    1.0386   -1.7037 H   0  0  0  0  0  0  0  0  0  0  0  0
   -0.2728   -0.6589   -2.0081 H   0  0  0  0  0  0  0  0  0  0  0  0
    1.6455    0.7781   -2.6837 H   0  0  0  0  0  0  0  0  0  0  0  0
    2.1255   -0.2466   -1.3195 H   0  0  0  0  0  0  0  0  0  0  0  0
    1.0724    4.2530   -1.1659 H   0  0  0  0  0  0  0  0  0  0  0  0
   -0.1246    2.9915   -1.5443 H   0  0  0  0  0  0  0  0  0  0  0  0
    1.2490    3.2729   -2.6415 H   0  0  0  0  0  0  0  0  0  0  0  0
   -2.3737   -1.3423   -0.3277 N   0  0  0  0  0  0  0  0  0  0  0  0
   -3.7720   -1.6893   -0.2287 C   0  0  2  0  0  0  0  0  0  0  0  0
   -3.8769   -3.2075   -0.1707 C   0  0  0  0  0  0  0  0  0  0  0  0
   -2.9996   -3.9572   -0.5945 O   0  0  0  0  0  0  0  0  0  0  0  0
   -4.5643   -1.1341   -1.4020 C   0  0  0  0  0  0  0  0  0  0  0  0
   -1.7894   -1.8985   -0.9448 H   0  0  0  0  0  0  0  0  0  0  0  0
   -4.1384   -1.2612    0.7108 H   0  0  0  0  0  0  0  0  0  0  0  0
   -4.2115   -1.5516   -2.3522 H   0  0  0  0  0  0  0  0  0  0  0  0
   -5.6289   -1.3736   -1.3108 H   0  0  0  0  0  0  0  0  0  0  0  0
   -4.4636   -0.0449   -1.4598 H   0  0  0  0  0  0  0  0  0  0  0  0
   -5.0841   -3.6270    0.3704 N   0  0  0  0  0  0  0  0  0  0  0  0
   -5.4284   -5.0216    0.5209 C   0  0  0  0  0  0  0  0  0  0  0  0
   -5.7450   -2.9360    0.7133 H   0  0  0  0  0  0  0  0  0  0  0  0
   -5.9810   -5.3613   -0.3675 H   0  0  0  0  0  0  0  0  0  0  0  0
   -4.5094   -5.6162    0.6304 H   0  0  0  0  0  0  0  0  0  0  0  0
   -6.0567   -5.1497    1.4146 H   0  0  0  0  0  0  0  0  0  0  0  0
  1  3  1  0  0  0  0
  1  7  1  0  0  0  0
  1  2  2  0  0  0  0
 35 36  1  0  0  0  0
 36 44  1  0  0  0  0
 36 37  2  0  0  0  0
  8  9  1  0  0  0  0
  9 17  1  0  0  0  0
  9 10  2  0  0  0  0
 18 19  1  0  0  0  0
 19 34  1  0  0  0  0
 19 20  2  0  0  0  0
 35 38  1  0  0  0  0
  8 11  1  0  0  0  0
 44 45  1  0  0  0  0
 23 24  1  0  0  0  0
 21 22  1  0  0  0  0
 18 21  1  0  0  0  0
 22 23  1  0  0  0  0
 34 35  1  0  0  0  0
  7  8  1  0  0  0  0
 17 18  1  0  0  0  0
  3  4  1  0  0  0  0
  3  5  1  0  0  0  0
  3  6  1  0  0  0  0
 38 41  1  0  0  0  0
 38 42  1  0  0  0  0
 38 43  1  0  0  0  0
 11 14  1  0  0  0  0
 11 15  1  0  0  0  0
 11 16  1  0  0  0  0
 45 47  1  0  0  0  0
 45 48  1  0  0  0  0
 45 49  1  0  0  0  0
 24 31  1  0  0  0  0
 24 32  1  0  0  0  0
 24 33  1  0  0  0  0
 21 27  1  0  0  0  0
 21 28  1  0  0  0  0
 22 29  1  0  0  0  0
 22 30  1  0  0  0  0
 35 40  1  0  0  0  0
  8 13  1  0  0  0  0
 18 26  1  0  0  0  0
 44 46  1  0  0  0  0
  7 12  1  0  0  0  0
 34 39  1  0  0  0  0
 17 25  1  0  0  0  0
M  END
$$$$

  -OEChem-05262214473D

 49 48  0     1  0  0  0  0  0999 V2000
   -0.0561   -5.3799    2.6949 C   0  0  0  0  0  0  0  0  0  0  0  0
    0.7325   -5.0736    3.5815 O   0  0  0  0  0  0  0  0  0  0  0  0
   -1.0067   -6.5099    2.9135 C   0  0  0  0  0  0  0  0  0  0  0  0
   -0.5910   -7.4777    2.5899 H   0  0  0  0  0  0  0  0  0  0  0  0
   -1.2629   -6.6440    3.9767 H   0  0  0  0  0  0  0  0  0  0  0  0
   -1.9729   -6.4206    2.3918 H   0  0  0  0  0  0  0  0  0  0  0  0
   -0.1735   -4.7694    1.4571 N   0  0  0  0  0  0  0  0  0  0  0  0
    0.6439   -3.6603    1.0409 C   0  0  2  0  0  0  0  0  0  0  0  0
   -0.2788   -2.5625    0.5280 C   0  0  0  0  0  0  0  0  0  0  0  0
   -1.4197   -2.7791    0.1251 O   0  0  0  0  0  0  0  0  0  0  0  0
    1.6395   -4.0779   -0.0301 C   0  0  0  0  0  0  0  0  0  0  0  0
   -0.8741   -5.1235    0.8083 H   0  0  0  0  0  0  0  0  0  0  0  0
    1.1738   -3.3062    1.9318 H   0  0  0  0  0  0  0  0  0  0  0  0
    1.1270   -4.4358   -0.9305 H   0  0  0  0  0  0  0  0  0  0  0  0
    2.2797   -3.2400   -0.3251 H   0  0  0  0  0  0  0  0  0  0  0  0
    2.2827   -4.8880    0.3303 H   0  0  0  0  0  0  0  0  0  0  0  0
    0.3351   -1.3153    0.5316 N   0  0  0  0  0  0  0  0  0  0  0  0
   -0.3268   -0.1184    0.0807 C   0  0  2  0  0  0  0  0  0  0  0  0
   -1.8236   -0.2579    0.3407 C   0  0  0  0  0  0  0  0  0  0  0  0
   -2.4988    0.6309    0.8558 O   0  0  0  0  0  0  0  0  0  0  0  0
   -0.0048    0.2039   -1.3849 C   0  0  0  0  0  0  0  0  0  0  0  0
    1.4622    0.5677   -1.6258 C   0  0  0  0  0  0  0  0  0  0  0  0
    1.9154    2.0501   -0.6764 S   0  0  0  0  0  0  0  0  0  0  0  0
    0.9341    3.2577   -1.5953 C   0  0  0  0  0  0  0  0  0  0  0  0
    1.2790   -1.2290    0.9021 H   0  0  0  0  0  0  0  0  0  0  0  0
    0.0534    0.6909    0.7159 H   0  0  0  0  0  0  0  0  0  0  0  0
   -0.6436    1.0386   -1.7037 H   0  0  0  0  0  0  0  0  0  0  0  0
   -0.2728   -0.6589   -2.0081 H   0  0  0  0  0  0  0  0  0  0  0  0
    1.6455    0.7781   -2.6837 H   0  0  0  0  0  0  0  0  0  0  0  0
    2.1255   -0.2466   -1.3195 H   0  0  0  0  0  0  0  0  0  0  0  0
    1.0724    4.2530   -1.1659 H   0  0  0  0  0  0  0  0  0  0  0  0
   -0.1246    2.9915   -1.5443 H   0  0  0  0  0  0  0  0  0  0  0  0
    1.2490    3.2729   -2.6415 H   0  0  0  0  0  0  0  0  0  0  0  0
   -2.3089   -1.5009   -0.0395 N   0  0  0  0  0  0  0  0  0  0  0  0
   -3.6941   -1.8770    0.1194 C   0  0  2  0  0  0  0  0  0  0  0  0
   -3.7382   -3.3343    0.5598 C   0  0  0  0  0  0  0  0  0  0  0  0
   -2.8189   -4.1246    0.3567 O   0  0  0  0  0  0  0  0  0  0  0  0
   -4.4737   -1.6753   -1.1707 C   0  0  0  0  0  0  0  0  0  0  0  0
   -1.6843   -2.1671   -0.4842 H   0  0  0  0  0  0  0  0  0  0  0  0
   -4.1051   -1.2426    0.9122 H   0  0  0  0  0  0  0  0  0  0  0  0
   -4.0763   -2.3028   -1.9768 H   0  0  0  0  0  0  0  0  0  0  0  0
   -5.5297   -1.9338   -1.0407 H   0  0  0  0  0  0  0  0  0  0  0  0
   -4.4161   -0.6328   -1.5019 H   0  0  0  0  0  0  0  0  0  0  0  0
   -4.9425   -3.6594    1.1682 N   0  0  0  0  0  0  0  0  0  0  0  0
   -5.2336   -4.9849    1.6623 C   0  0  0  0  0  0  0  0  0  0  0  0
   -5.6410   -2.9360    1.3120 H   0  0  0  0  0  0  0  0  0  0  0  0
   -5.7455   -5.5643    0.8799 H   0  0  0  0  0  0  0  0  0  0  0  0
   -4.2946   -5.4884    1.9361 H   0  0  0  0  0  0  0  0  0  0  0  0
   -5.8821   -4.9118    2.5478 H   0  0  0  0  0  0  0  0  0  0  0  0
  1  3  1  0  0  0  0
  1  7  1  0  0  0  0
  1  2  2  0  0  0  0
 35 36  1  0  0  0  0
 36 44  1  0  0  0  0
 36 37  2  0  0  0  0
  8  9  1  0  0  0  0
  9 17  1  0  0  0  0
  9 10  2  0  0  0  0
 18 19  1  0  0  0  0
 19 34  1  0  0  0  0
 19 20  2  0  0  0  0
 35 38  1  0  0  0  0
  8 11  1  0  0  0  0
 44 45  1  0  0  0  0
 23 24  1  0  0  0  0
 21 22  1  0  0  0  0
 18 21  1  0  0  0  0
 22 23  1  0  0  0  0
 34 35  1  0  0  0  0
  7  8  1  0  0  0  0
 17 18  1  0  0  0  0
  3  4  1  0  0  0  0
  3  5  1  0  0  0  0
  3  6  1  0  0  0  0
 38 41  1  0  0  0  0
 38 42  1  0  0  0  0
 38 43  1  0  0  0  0
 11 14  1  0  0  0  0
 11 15  1  0  0  0  0
 11 16  1  0  0  0  0
 45 47  1  0  0  0  0
 45 48  1  0  0  0  0
 45 49  1  0  0  0  0
 24 31  1  0  0  0  0
 24 32  1  0  0  0  0
 24 33  1  0  0  0  0
 21 27  1  0  0  0  0
 21 28  1  0  0  0  0
 22 29  1  0  0  0  0
 22 30  1  0  0  0  0
 35 40  1  0  0  0  0
  8 13  1  0  0  0  0
 18 26  1  0  0  0  0
 44 46  1  0  0  0  0
  7 12  1  0  0  0  0
 34 39  1  0  0  0  0
 17 25  1  0  0  0  0
M  END
$$$$

  -OEChem-05262214473D

 49 48  0     1  0  0  0  0  0999 V2000
   -0.0561   -5.3799    2.6949 C   0  0  0  0  0  0  0  0  0  0  0  0
    0.7325   -5.0736    3.5815 O   0  0  0  0  0  0  0  0  0  0  0  0
   -1.0067   -6.5099    2.9135 C   0  0  0  0  0  0  0  0  0  0  0  0
   -0.5910   -7.4777    2.5899 H   0  0  0  0  0  0  0  0  0  0  0  0
   -1.2629   -6.6440    3.9767 H   0  0  0  0  0  0  0  0  0  0  0  0
   -1.9729   -6.4206    2.3918 H   0  0  0  0  0  0  0  0  0  0  0  0
   -0.1735   -4.7694    1.4571 N   0  0  0  0  0  0  0  0  0  0  0  0
    0.6439   -3.6603    1.0409 C   0  0  2  0  0  0  0  0  0  0  0  0
   -0.2788   -2.5625    0.5280 C   0  0  0  0  0  0  0  0  0  0  0  0
   -1.4197   -2.7791    0.1251 O   0  0  0  0  0  0  0  0  0  0  0  0
    1.6395   -4.0779   -0.0301 C   0  0  0  0  0  0  0  0  0  0  0  0
   -0.8741   -5.1235    0.8083 H   0  0  0  0  0  0  0  0  0  0  0  0
    1.1738   -3.3062    1.9318 H   0  0  0  0  0  0  0  0  0  0  0  0
    1.1270   -4.4358   -0.9305 H   0  0  0  0  0  0  0  0  0  0  0  0
    2.2797   -3.2400   -0.3251 H   0  0  0  0  0  0  0  0  0  0  0  0
    2.2827   -4.8880    0.3303 H   0  0  0  0  0  0  0  0  0  0  0  0
    0.3351   -1.3153    0.5316 N   0  0  0  0  0  0  0  0  0  0  0  0
   -0.3268   -0.1184    0.0807 C   0  0  2  0  0  0  0  0  0  0  0  0
   -1.8236   -0.2579    0.3407 C   0  0  0  0  0  0  0  0  0  0  0  0
   -2.5496    0.6996    0.6005 O   0  0  0  0  0  0  0  0  0  0  0  0
   -0.0048    0.2039   -1.3849 C   0  0  0  0  0  0  0  0  0  0  0  0
    1.4622    0.5677   -1.6258 C   0  0  0  0  0  0  0  0  0  0  0  0
    1.9154    2.0501   -0.6764 S   0  0  0  0  0  0  0  0  0  0  0  0
    0.9341    3.2577   -1.5953 C   0  0  0  0  0  0  0  0  0  0  0  0
    1.2790   -1.2290    0.9021 H   0  0  0  0  0  0  0  0  0  0  0  0
    0.0534    0.6909    0.7159 H   0  0  0  0  0  0  0  0  0  0  0  0
   -0.6436    1.0386   -1.7037 H   0  0  0  0  0  0  0  0  0  0  0  0
   -0.2728   -0.6589   -2.0081 H   0  0  0  0  0  0  0  0  0  0  0  0
    1.6455    0.7781   -2.6837 H   0  0  0  0  0  0  0  0  0  0  0  0
    2.1255   -0.2466   -1.3195 H   0  0  0  0  0  0  0  0  0  0  0  0
    1.0724    4.2530   -1.1659 H   0  0  0  0  0  0  0  0  0  0  0  0
   -0.1246    2.9915   -1.5443 H   0  0  0  0  0  0  0  0  0  0  0  0
    1.2490    3.2729   -2.6415 H   0  0  0  0  0  0  0  0  0  0  0  0
   -2.2461   -1.5781    0.2807 N   0  0  0  0  0  0  0  0  0  0  0  0
   -3.6188   -1.9666    0.5051 C   0  0  2  0  0  0  0  0  0  0  0  0
   -3.6160   -3.2651    1.3010 C   0  0  0  0  0  0  0  0  0  0  0  0
   -2.6594   -4.0368    1.3222 O   0  0  0  0  0  0  0  0  0  0  0  0
   -4.3677   -2.1354   -0.8076 C   0  0  0  0  0  0  0  0  0  0  0  0
   -1.5819   -2.3051    0.0314 H   0  0  0  0  0  0  0  0  0  0  0  0
   -4.0786   -1.1721    1.1029 H   0  0  0  0  0  0  0  0  0  0  0  0
   -3.9214   -2.9272   -1.4202 H   0  0  0  0  0  0  0  0  0  0  0  0
   -5.4157   -2.4020   -0.6351 H   0  0  0  0  0  0  0  0  0  0  0  0
   -4.3433   -1.2093   -1.3921 H   0  0  0  0  0  0  0  0  0  0  0  0
   -4.8233   -3.4818    1.9503 N   0  0  0  0  0  0  0  0  0  0  0  0
   -5.0740   -4.6511    2.7602 C   0  0  0  0  0  0  0  0  0  0  0  0
   -5.5547   -2.7794    1.8927 H   0  0  0  0  0  0  0  0  0  0  0  0
   -5.5386   -5.4333    2.1418 H   0  0  0  0  0  0  0  0  0  0  0  0
   -4.1237   -5.0239    3.1698 H   0  0  0  0  0  0  0  0  0  0  0  0
   -5.7507   -4.3866    3.5861 H   0  0  0  0  0  0  0  0  0  0  0  0
  1  3  1  0  0  0  0
  1  7  1  0  0  0  0
  1  2  2  0  0  0  0
 35 36  1  0  0  0  0
 36 44  1  0  0  0  0
 36 37  2  0  0  0  0
  8  9  1  0  0  0  0
  9 17  1  0  0  0  0
  9 10  2  0  0  0  0
 18 19  1  0  0  0  0
 19 34  1  0  0  0  0
 19 20  2  0  0  0  0
 35 38  1  0  0  0  0
  8 11  1  0  0  0  0
 44 45  1  0  0  0  0
 23 24  1  0  0  0  0
 21 22  1  0  0  0  0
 18 21  1  0  0  0  0
 22 23  1  0  0  0  0
 34 35  1  0  0  0  0
  7  8  1  0  0  0  0
 17 18  1  0  0  0  0
  3  4  1  0  0  0  0
  3  5  1  0  0  0  0
  3  6  1  0  0  0  0
 38 41  1  0  0  0  0
 38 42  1  0  0  0  0
 38 43  1  0  0  0  0
 11 14  1  0  0  0  0
 11 15  1  0  0  0  0
 11 16  1  0  0  0  0
 45 47  1  0  0  0  0
 45 48  1  0  0  0  0
 45 49  1  0  0  0  0
 24 31  1  0  0  0  0
 24 32  1  0  0  0  0
 24 33  1  0  0  0  0
 21 27  1  0  0  0  0
 21 28  1  0  0  0  0
 22 29  1  0  0  0  0
 22 30  1  0  0  0  0
 35 40  1  0  0  0  0
  8 13  1  0  0  0  0
 18 26  1  0  0  0  0
 44 46  1  0  0  0  0
  7 12  1  0  0  0  0
 34 39  1  0  0  0  0
 17 25  1  0  0  0  0
M  END
$$$$

  -OEChem-05262214473D

 49 48  0     1  0  0  0  0  0999 V2000
   -0.0561   -5.3799    2.6949 C   0  0  0  0  0  0  0  0  0  0  0  0
    0.7325   -5.0736    3.5815 O   0  0  0  0  0  0  0  0  0  0  0  0
   -1.0067   -6.5099    2.9135 C   0  0  0  0  0  0  0  0  0  0  0  0
   -0.5910   -7.4777    2.5899 H   0  0  0  0  0  0  0  0  0  0  0  0
   -1.2629   -6.6440    3.9767 H   0  0  0  0  0  0  0  0  0  0  0  0
   -1.9729   -6.4206    2.3918 H   0  0  0  0  0  0  0  0  0  0  0  0
   -0.1735   -4.7694    1.4571 N   0  0  0  0  0  0  0  0  0  0  0  0
    0.6439   -3.6603    1.0409 C   0  0  2  0  0  0  0  0  0  0  0  0
   -0.2788   -2.5625    0.5280 C   0  0  0  0  0  0  0  0  0  0  0  0
   -1.4197   -2.7791    0.1251 O   0  0  0  0  0  0  0  0  0  0  0  0
    1.6395   -4.0779   -0.0301 C   0  0  0  0  0  0  0  0  0  0  0  0
   -0.8741   -5.1235    0.8083 H   0  0  0  0  0  0  0  0  0  0  0  0
    1.1738   -3.3062    1.9318 H   0  0  0  0  0  0  0  0  0  0  0  0
    1.1270   -4.4358   -0.9305 H   0  0  0  0  0  0  0  0  0  0  0  0
    2.2797   -3.2400   -0.3251 H   0  0  0  0  0  0  0  0  0  0  0  0
    2.2827   -4.8880    0.3303 H   0  0  0  0  0  0  0  0  0  0  0  0
    0.3351   -1.3153    0.5316 N   0  0  0  0  0  0  0  0  0  0  0  0
   -0.3268   -0.1184    0.0807 C   0  0  2  0  0  0  0  0  0  0  0  0
   -1.8236   -0.2579    0.3407 C   0  0  0  0  0  0  0  0  0  0  0  0
   -2.5956    0.6988    0.3352 O   0  0  0  0  0  0  0  0  0  0  0  0
   -0.0048    0.2039   -1.3849 C   0  0  0  0  0  0  0  0  0  0  0  0
    1.4622    0.5677   -1.6258 C   0  0  0  0  0  0  0  0  0  0  0  0
    1.9154    2.0501   -0.6764 S   0  0  0  0  0  0  0  0  0  0  0  0
    0.9341    3.2577   -1.5953 C   0  0  0  0  0  0  0  0  0  0  0  0
    1.2790   -1.2290    0.9021 H   0  0  0  0  0  0  0  0  0  0  0  0
    0.0534    0.6909    0.7159 H   0  0  0  0  0  0  0  0  0  0  0  0
   -0.6436    1.0386   -1.7037 H   0  0  0  0  0  0  0  0  0  0  0  0
   -0.2728   -0.6589   -2.0081 H   0  0  0  0  0  0  0  0  0  0  0  0
    1.6455    0.7781   -2.6837 H   0  0  0  0  0  0  0  0  0  0  0  0
    2.1255   -0.2466   -1.3195 H   0  0  0  0  0  0  0  0  0  0  0  0
    1.0724    4.2530   -1.1659 H   0  0  0  0  0  0  0  0  0  0  0  0
   -0.1246    2.9915   -1.5443 H   0  0  0  0  0  0  0  0  0  0  0  0
    1.2490    3.2729   -2.6415 H   0  0  0  0  0  0  0  0  0  0  0  0
   -2.1896   -1.5687    0.6110 N   0  0  0  0  0  0  0  0  0  0  0  0
   -3.5512   -1.9519    0.9022 C   0  0  2  0  0  0  0  0  0  0  0  0
   -3.5185   -3.0046    2.0022 C   0  0  0  0  0  0  0  0  0  0  0  0
   -2.5320   -3.6998    2.2363 O   0  0  0  0  0  0  0  0  0  0  0  0
   -4.2537   -2.4829   -0.3376 C   0  0  0  0  0  0  0  0  0  0  0  0
   -1.4892   -2.3029    0.5669 H   0  0  0  0  0  0  0  0  0  0  0  0
   -4.0606   -1.0544    1.2698 H   0  0  0  0  0  0  0  0  0  0  0  0
   -3.7575   -3.3821   -0.7204 H   0  0  0  0  0  0  0  0  0  0  0  0
   -5.2945   -2.7462   -0.1218 H   0  0  0  0  0  0  0  0  0  0  0  0
   -4.2501   -1.7351   -1.1380 H   0  0  0  0  0  0  0  0  0  0  0  0
   -4.7344   -3.1064    2.6635 N   0  0  0  0  0  0  0  0  0  0  0  0
   -4.9607   -4.0428    3.7396 C   0  0  0  0  0  0  0  0  0  0  0  0
   -5.4921   -2.4768    2.4159 H   0  0  0  0  0  0  0  0  0  0  0  0
   -5.3743   -4.9772    3.3324 H   0  0  0  0  0  0  0  0  0  0  0  0
   -4.0082   -4.2544    4.2477 H   0  0  0  0  0  0  0  0  0  0  0  0
   -5.6716   -3.6099    4.4588 H   0  0  0  0  0  0  0  0  0  0  0  0
  1  3  1  0  0  0  0
  1  7  1  0  0  0  0
  1  2  2  0  0  0  0
 35 36  1  0  0  0  0
 36 44  1  0  0  0  0
 36 37  2  0  0  0  0
  8  9  1  0  0  0  0
  9 17  1  0  0  0  0
  9 10  2  0  0  0  0
 18 19  1  0  0  0  0
 19 34  1  0  0  0  0
 19 20  2  0  0  0  0
 35 38  1  0  0  0  0
  8 11  1  0  0  0  0
 44 45  1  0  0  0  0
 23 24  1  0  0  0  0
 21 22  1  0  0  0  0
 18 21  1  0  0  0  0
 22 23  1  0  0  0  0
 34 35  1  0  0  0  0
  7  8  1  0  0  0  0
 17 18  1  0  0  0  0
  3  4  1  0  0  0  0
  3  5  1  0  0  0  0
  3  6  1  0  0  0  0
 38 41  1  0  0  0  0
 38 42  1  0  0  0  0
 38 43  1  0  0  0  0
 11 14  1  0  0  0  0
 11 15  1  0  0  0  0
 11 16  1  0  0  0  0
 45 47  1  0  0  0  0
 45 48  1  0  0  0  0
 45 49  1  0  0  0  0
 24 31  1  0  0  0  0
 24 32  1  0  0  0  0
 24 33  1  0  0  0  0
 21 27  1  0  0  0  0
 21 28  1  0  0  0  0
 22 29  1  0  0  0  0
 22 30  1  0  0  0  0
 35 40  1  0  0  0  0
  8 13  1  0  0  0  0
 18 26  1  0  0  0  0
 44 46  1  0  0  0  0
  7 12  1  0  0  0  0
 34 39  1  0  0  0  0
 17 25  1  0  0  0  0
M  END
$$$$

  -OEChem-05262214473D

 49 48  0     1  0  0  0  0  0999 V2000
   -0.0561   -5.3799    2.6949 C   0  0  0  0  0  0  0  0  0  0  0  0
    0.7325   -5.0736    3.5815 O   0  0  0  0  0  0  0  0  0  0  0  0
   -1.0067   -6.5099    2.9135 C   0  0  0  0  0  0  0  0  0  0  0  0
   -0.5910   -7.4777    2.5899 H   0  0  0  0  0  0  0  0  0  0  0  0
   -1.2629   -6.6440    3.9767 H   0  0  0  0  0  0  0  0  0  0  0  0
   -1.9729   -6.4206    2.3918 H   0  0  0  0  0  0  0  0  0  0  0  0
   -0.1735   -4.7694    1.4571 N   0  0  0  0  0  0  0  0  0  0  0  0
    0.6439   -3.6603    1.0409 C   0  0  2  0  0  0  0  0  0  0  0  0
   -0.2788   -2.5625    0.5280 C   0  0  0  0  0  0  0  0  0  0  0  0
   -1.4197   -2.7791    0.1251 O   0  0  0  0  0  0  0  0  0  0  0  0
    1.6395   -4.0779   -0.0301 C   0  0  0  0  0  0  0  0  0  0  0  0
   -0.8741   -5.1235    0.8083 H   0  0  0  0  0  0  0  0  0  0  0  0
    1.1738   -3.3062    1.9318 H   0  0  0  0  0  0  0  0  0  0  0  0
    1.1270   -4.4358   -0.9305 H   0  0  0  0  0  0  0  0  0  0  0  0
    2.2797   -3.2400   -0.3251 H   0  0  0  0  0  0  0  0  0  0  0  0
    2.2827   -4.8880    0.3303 H   0  0  0  0  0  0  0  0  0  0  0  0
    0.3351   -1.3153    0.5316 N   0  0  0  0  0  0  0  0  0  0  0  0
   -0.3268   -0.1184    0.0807 C   0  0  2  0  0  0  0  0  0  0  0  0
   -1.8236   -0.2579    0.3407 C   0  0  0  0  0  0  0  0  0  0  0  0
   -2.6337    0.6287    0.0781 O   0  0  0  0  0  0  0  0  0  0  0  0
   -0.0048    0.2039   -1.3849 C   0  0  0  0  0  0  0  0  0  0  0  0
    1.4622    0.5677   -1.6258 C   0  0  0  0  0  0  0  0  0  0  0  0
    1.9154    2.0501   -0.6764 S   0  0  0  0  0  0  0  0  0  0  0  0
    0.9341    3.2577   -1.5953 C   0  0  0  0  0  0  0  0  0  0  0  0
    1.2790   -1.2290    0.9021 H   0  0  0  0  0  0  0  0  0  0  0  0
    0.0534    0.6909    0.7159 H   0  0  0  0  0  0  0  0  0  0  0  0
   -0.6436    1.0386   -1.7037 H   0  0  0  0  0  0  0  0  0  0  0  0
   -0.2728   -0.6589   -2.0081 H   0  0  0  0  0  0  0  0  0  0  0  0
    1.6455    0.7781   -2.6837 H   0  0  0  0  0  0  0  0  0  0  0  0
    2.1255   -0.2466   -1.3195 H   0  0  0  0  0  0  0  0  0  0  0  0
    1.0724    4.2530   -1.1659 H   0  0  0  0  0  0  0  0  0  0  0  0
   -0.1246    2.9915   -1.5443 H   0  0  0  0  0  0  0  0  0  0  0  0
    1.2490    3.2729   -2.6415 H   0  0  0  0  0  0  0  0  0  0  0  0
   -2.1433   -1.4731    0.9290 N   0  0  0  0  0  0  0  0  0  0  0  0
   -3.4959   -1.8338    1.2836 C   0  0  2  0  0  0  0  0  0  0  0  0
   -3.4524   -2.5707    2.6157 C   0  0  0  0  0  0  0  0  0  0  0  0
   -2.4456   -3.1366    3.0367 O   0  0  0  0  0  0  0  0  0  0  0  0
   -4.1394   -2.6942    0.2073 C   0  0  0  0  0  0  0  0  0  0  0  0
   -1.4123   -2.1607    1.0858 H   0  0  0  0  0  0  0  0  0  0  0  0
   -4.0523   -0.8975    1.4015 H   0  0  0  0  0  0  0  0  0  0  0  0
   -3.5957   -3.6367    0.0749 H   0  0  0  0  0  0  0  0  0  0  0  0
   -5.1743   -2.9430    0.4643 H   0  0  0  0  0  0  0  0  0  0  0  0
   -4.1430   -2.1743   -0.7568 H   0  0  0  0  0  0  0  0  0  0  0  0
   -4.6820   -2.5588    3.2592 N   0  0  0  0  0  0  0  0  0  0  0  0
   -4.9011   -3.2015    4.5339 C   0  0  0  0  0  0  0  0  0  0  0  0
   -5.4573   -2.0490    2.8460 H   0  0  0  0  0  0  0  0  0  0  0  0
   -5.2640   -4.2270    4.3705 H   0  0  0  0  0  0  0  0  0  0  0  0
   -3.9562   -3.2323    5.0961 H   0  0  0  0  0  0  0  0  0  0  0  0
   -5.6501   -2.6346    5.1063 H   0  0  0  0  0  0  0  0  0  0  0  0
  1  3  1  0  0  0  0
  1  7  1  0  0  0  0
  1  2  2  0  0  0  0
 35 36  1  0  0  0  0
 36 44  1  0  0  0  0
 36 37  2  0  0  0  0
  8  9  1  0  0  0  0
  9 17  1  0  0  0  0
  9 10  2  0  0  0  0
 18 19  1  0  0  0  0
 19 34  1  0  0  0  0
 19 20  2  0  0  0  0
 35 38  1  0  0  0  0
  8 11  1  0  0  0  0
 44 45  1  0  0  0  0
 23 24  1  0  0  0  0
 21 22  1  0  0  0  0
 18 21  1  0  0  0  0
 22 23  1  0  0  0  0
 34 35  1  0  0  0  0
  7  8  1  0  0  0  0
 17 18  1  0  0  0  0
  3  4  1  0  0  0  0
  3  5  1  0  0  0  0
  3  6  1  0  0  0  0
 38 41  1  0  0  0  0
 38 42  1  0  0  0  0
 38 43  1  0  0  0  0
 11 14  1  0  0  0  0
 11 15  1  0  0  0  0
 11 16  1  0  0  0  0
 45 47  1  0  0  0  0
 45 48  1  0  0  0  0
 45 49  1  0  0  0  0
 24 31  1  0  0  0  0
 24 32  1  0  0  0  0
 24 33  1  0  0  0  0
 21 27  1  0  0  0  0
 21 28  1  0  0  0  0
 22 29  1  0  0  0  0
 22 30  1  0  0  0  0
 35 40  1  0  0  0  0
  8 13  1  0  0  0  0
 18 26  1  0  0  0  0
 44 46  1  0  0  0  0
  7 12  1  0  0  0  0
 34 39  1  0  0  0  0
 17 25  1  0  0  0  0
M  END
$$$$

  -OEChem-05262214473D

 49 48  0     1  0  0  0  0  0999 V2000
   -0.0561   -5.3799    2.6949 C   0  0  0  0  0  0  0  0  0  0  0  0
    0.7325   -5.0736    3.5815 O   0  0  0  0  0  0  0  0  0  0  0  0
   -1.0067   -6.5099    2.9135 C   0  0  0  0  0  0  0  0  0  0  0  0
   -0.5910   -7.4777    2.5899 H   0  0  0  0  0  0  0  0  0  0  0  0
   -1.2629   -6.6440    3.9767 H   0  0  0  0  0  0  0  0  0  0  0  0
   -1.9729   -6.4206    2.3918 H   0  0  0  0  0  0  0  0  0  0  0  0
   -0.1735   -4.7694    1.4571 N   0  0  0  0  0  0  0  0  0  0  0  0
    0.6439   -3.6603    1.0409 C   0  0  2  0  0  0  0  0  0  0  0  0
   -0.2788   -2.5625    0.5280 C   0  0  0  0  0  0  0  0  0  0  0  0
   -1.4197   -2.7791    0.1251 O   0  0  0  0  0  0  0  0  0  0  0  0
    1.6395   -4.0779   -0.0301 C   0  0  0  0  0  0  0  0  0  0  0  0
   -0.8741   -5.1235    0.8083 H   0  0  0  0  0  0  0  0  0  0  0  0
    1.1738   -3.3062    1.9318 H   0  0  0  0  0  0  0  0  0  0  0  0
    1.1270   -4.4358   -0.9305 H   0  0  0  0  0  0  0  0  0  0  0  0
    2.2797   -3.2400   -0.3251 H   0  0  0  0  0  0  0  0  0  0  0  0
    2.2827   -4.8880    0.3303 H   0  0  0  0  0  0  0  0  0  0  0  0
    0.3351   -1.3153    0.5316 N   0  0  0  0  0  0  0  0  0  0  0  0
   -0.3268   -0.1184    0.0807 C   0  0  2  0  0  0  0  0  0  0  0  0
   -1.8236   -0.2579    0.3407 C   0  0  0  0  0  0  0  0  0  0  0  0
   -2.6613    0.4940   -0.1534 O   0  0  0  0  0  0  0  0  0  0  0  0
   -0.0048    0.2039   -1.3849 C   0  0  0  0  0  0  0  0  0  0  0  0
    1.4622    0.5677   -1.6258 C   0  0  0  0  0  0  0  0  0  0  0  0
    1.9154    2.0501   -0.6764 S   0  0  0  0  0  0  0  0  0  0  0  0
    0.9341    3.2577   -1.5953 C   0  0  0  0  0  0  0  0  0  0  0  0
    1.2790   -1.2290    0.9021 H   0  0  0  0  0  0  0  0  0  0  0  0
    0.0534    0.6909    0.7159 H   0  0  0  0  0  0  0  0  0  0  0  0
   -0.6436    1.0386   -1.7037 H   0  0  0  0  0  0  0  0  0  0  0  0
   -0.2728   -0.6589   -2.0081 H   0  0  0  0  0  0  0  0  0  0  0  0
    1.6455    0.7781   -2.6837 H   0  0  0  0  0  0  0  0  0  0  0  0
    2.1255   -0.2466   -1.3195 H   0  0  0  0  0  0  0  0  0  0  0  0
    1.0724    4.2530   -1.1659 H   0  0  0  0  0  0  0  0  0  0  0  0
   -0.1246    2.9915   -1.5443 H   0  0  0  0  0  0  0  0  0  0  0  0
    1.2490    3.2729   -2.6415 H   0  0  0  0  0  0  0  0  0  0  0  0
   -2.1103   -1.2980    1.2131 N   0  0  0  0  0  0  0  0  0  0  0  0
   -3.4568   -1.6204    1.6234 C   0  0  2  0  0  0  0  0  0  0  0  0
   -3.4222   -1.9928    3.0997 C   0  0  0  0  0  0  0  0  0  0  0  0
   -2.4058   -2.3854    3.6688 O   0  0  0  0  0  0  0  0  0  0  0  0
   -4.0326   -2.7548    0.7900 C   0  0  0  0  0  0  0  0  0  0  0  0
   -1.3566   -1.8881    1.5528 H   0  0  0  0  0  0  0  0  0  0  0  0
   -4.0544   -0.7122    1.4891 H   0  0  0  0  0  0  0  0  0  0  0  0
   -3.4470   -3.6734    0.9116 H   0  0  0  0  0  0  0  0  0  0  0  0
   -5.0635   -2.9789    1.0833 H   0  0  0  0  0  0  0  0  0  0  0  0
   -4.0292   -2.4970   -0.2745 H   0  0  0  0  0  0  0  0  0  0  0  0
   -4.6696   -1.8763    3.6967 N   0  0  0  0  0  0  0  0  0  0  0  0
   -4.8995   -2.1846    5.0889 C   0  0  0  0  0  0  0  0  0  0  0  0
   -5.4527   -1.5249    3.1535 H   0  0  0  0  0  0  0  0  0  0  0  0
   -5.2151   -3.2340    5.1854 H   0  0  0  0  0  0  0  0  0  0  0  0
   -3.9710   -2.0273    5.6573 H   0  0  0  0  0  0  0  0  0  0  0  0
   -5.6876   -1.5270    5.4846 H   0  0  0  0  0  0  0  0  0  0  0  0
  1  3  1  0  0  0  0
  1  7  1  0  0  0  0
  1  2  2  0  0  0  0
 35 36  1  0  0  0  0
 36 44  1  0  0  0  0
 36 37  2  0  0  0  0
  8  9  1  0  0  0  0
  9 17  1  0  0  0  0
  9 10  2  0  0  0  0
 18 19  1  0  0  0  0
 19 34  1  0  0  0  0
 19 20  2  0  0  0  0
 35 38  1  0  0  0  0
  8 11  1  0  0  0  0
 44 45  1  0  0  0  0
 23 24  1  0  0  0  0
 21 22  1  0  0  0  0
 18 21  1  0  0  0  0
 22 23  1  0  0  0  0
 34 35  1  0  0  0  0
  7  8  1  0  0  0  0
 17 18  1  0  0  0  0
  3  4  1  0  0  0  0
  3  5  1  0  0  0  0
  3  6  1  0  0  0  0
 38 41  1  0  0  0  0
 38 42  1  0  0  0  0
 38 43  1  0  0  0  0
 11 14  1  0  0  0  0
 11 15  1  0  0  0  0
 11 16  1  0  0  0  0
 45 47  1  0  0  0  0
 45 48  1  0  0  0  0
 45 49  1  0  0  0  0
 24 31  1  0  0  0  0
 24 32  1  0  0  0  0
 24 33  1  0  0  0  0
 21 27  1  0  0  0  0
 21 28  1  0  0  0  0
 22 29  1  0  0  0  0
 22 30  1  0  0  0  0
 35 40  1  0  0  0  0
  8 13  1  0  0  0  0
 18 26  1  0  0  0  0
 44 46  1  0  0  0  0
  7 12  1  0  0  0  0
 34 39  1  0  0  0  0
 17 25  1  0  0  0  0
M  END
$$$$

  -OEChem-05262214473D

 49 48  0     1  0  0  0  0  0999 V2000
   -0.0561   -5.3799    2.6949 C   0  0  0  0  0  0  0  0  0  0  0  0
    0.7325   -5.0736    3.5815 O   0  0  0  0  0  0  0  0  0  0  0  0
   -1.0067   -6.5099    2.9135 C   0  0  0  0  0  0  0  0  0  0  0  0
   -0.5910   -7.4777    2.5899 H   0  0  0  0  0  0  0  0  0  0  0  0
   -1.2629   -6.6440    3.9767 H   0  0  0  0  0  0  0  0  0  0  0  0
   -1.9729   -6.4206    2.3918 H   0  0  0  0  0  0  0  0  0  0  0  0
   -0.1735   -4.7694    1.4571 N   0  0  0  0  0  0  0  0  0  0  0  0
    0.6439   -3.6603    1.0409 C   0  0  2  0  0  0  0  0  0  0  0  0
   -0.2788   -2.5625    0.5280 C   0  0  0  0  0  0  0  0  0  0  0  0
   -1.4197   -2.7791    0.1251 O   0  0  0  0  0  0  0  0  0  0  0  0
    1.6395   -4.0779   -0.0301 C   0  0  0  0  0  0  0  0  0  0  0  0
   -0.8741   -5.1235    0.8083 H   0  0  0  0  0  0  0  0  0  0  0  0
    1.1738   -3.3062    1.9318 H   0  0  0  0  0  0  0  0  0  0  0  0
    1.1270   -4.4358   -0.9305 H   0  0  0  0  0  0  0  0  0  0  0  0
    2.2797   -3.2400   -0.3251 H   0  0  0  0  0  0  0  0  0  0  0  0
    2.2827   -4.8880    0.3303 H   0  0  0  0  0  0  0  0  0  0  0  0
    0.3351   -1.3153    0.5316 N   0  0  0  0  0  0  0  0  0  0  0  0
   -0.3268   -0.1184    0.0807 C   0  0  2  0  0  0  0  0  0  0  0  0
   -1.8236   -0.2579    0.3407 C   0  0  0  0  0  0  0  0  0  0  0  0
   -2.6766    0.3039   -0.3435 O   0  0  0  0  0  0  0  0  0  0  0  0
   -0.0048    0.2039   -1.3849 C   0  0  0  0  0  0  0  0  0  0  0  0
    1.4622    0.5677   -1.6258 C   0  0  0  0  0  0  0  0  0  0  0  0
    1.9154    2.0501   -0.6764 S   0  0  0  0  0  0  0  0  0  0  0  0
    0.9341    3.2577   -1.5953 C   0  0  0  0  0  0  0  0  0  0  0  0
    1.2790   -1.2290    0.9021 H   0  0  0  0  0  0  0  0  0  0  0  0
    0.0534    0.6909    0.7159 H   0  0  0  0  0  0  0  0  0  0  0  0
   -0.6436    1.0386   -1.7037 H   0  0  0  0  0  0  0  0  0  0  0  0
   -0.2728   -0.6589   -2.0081 H   0  0  0  0  0  0  0  0  0  0  0  0
    1.6455    0.7781   -2.6837 H   0  0  0  0  0  0  0  0  0  0  0  0
    2.1255   -0.2466   -1.3195 H   0  0  0  0  0  0  0  0  0  0  0  0
    1.0724    4.2530   -1.1659 H   0  0  0  0  0  0  0  0  0  0  0  0
   -0.1246    2.9915   -1.5443 H   0  0  0  0  0  0  0  0  0  0  0  0
    1.2490    3.2729   -2.6415 H   0  0  0  0  0  0  0  0  0  0  0  0
   -2.0929   -1.0553    1.4437 N   0  0  0  0  0  0  0  0  0  0  0  0
   -3.4365   -1.3264    1.8983 C   0  0  2  0  0  0  0  0  0  0  0  0
   -3.4300   -1.3104    3.4212 C   0  0  0  0  0  0  0  0  0  0  0  0
   -2.4155   -1.4976    4.0896 O   0  0  0  0  0  0  0  0  0  0  0  0
   -3.9405   -2.6607    1.3709 C   0  0  0  0  0  0  0  0  0  0  0  0
   -1.3259   -1.5039    1.9359 H   0  0  0  0  0  0  0  0  0  0  0  0
   -4.0666   -0.5110    1.5266 H   0  0  0  0  0  0  0  0  0  0  0  0
   -3.3215   -3.4898    1.7327 H   0  0  0  0  0  0  0  0  0  0  0  0
   -4.9695   -2.8516    1.6929 H   0  0  0  0  0  0  0  0  0  0  0  0
   -3.9164   -2.6812    0.2760 H   0  0  0  0  0  0  0  0  0  0  0  0
   -4.6982   -1.1054    3.9464 N   0  0  0  0  0  0  0  0  0  0  0  0
   -4.9560   -1.0613    5.3668 C   0  0  0  0  0  0  0  0  0  0  0  0
   -5.4787   -0.9405    3.3177 H   0  0  0  0  0  0  0  0  0  0  0  0
   -5.2309   -2.0657    5.7214 H   0  0  0  0  0  0  0  0  0  0  0  0
   -4.0518   -0.7215    5.8931 H   0  0  0  0  0  0  0  0  0  0  0  0
   -5.7816   -0.3629    5.5680 H   0  0  0  0  0  0  0  0  0  0  0  0
  1  3  1  0  0  0  0
  1  7  1  0  0  0  0
  1  2  2  0  0  0  0
 35 36  1  0  0  0  0
 36 44  1  0  0  0  0
 36 37  2  0  0  0  0
  8  9  1  0  0  0  0
  9 17  1  0  0  0  0
  9 10  2  0  0  0  0
 18 19  1  0  0  0  0
 19 34  1  0  0  0  0
 19 20  2  0  0  0  0
 35 38  1  0  0  0  0
  8 11  1  0  0  0  0
 44 45  1  0  0  0  0
 23 24  1  0  0  0  0
 21 22  1  0  0  0  0
 18 21  1  0  0  0  0
 22 23  1  0  0  0  0
 34 35  1  0  0  0  0
  7  8  1  0  0  0  0
 17 18  1  0  0  0  0
  3  4  1  0  0  0  0
  3  5  1  0  0  0  0
  3  6  1  0  0  0  0
 38 41  1  0  0  0  0
 38 42  1  0  0  0  0
 38 43  1  0  0  0  0
 11 14  1  0  0  0  0
 11 15  1  0  0  0  0
 11 16  1  0  0  0  0
 45 47  1  0  0  0  0
 45 48  1  0  0  0  0
 45 49  1  0  0  0  0
 24 31  1  0  0  0  0
 24 32  1  0  0  0  0
 24 33  1  0  0  0  0
 21 27  1  0  0  0  0
 21 28  1  0  0  0  0
 22 29  1  0  0  0  0
 22 30  1  0  0  0  0
 35 40  1  0  0  0  0
  8 13  1  0  0  0  0
 18 26  1  0  0  0  0
 44 46  1  0  0  0  0
  7 12  1  0  0  0  0
 34 39  1  0  0  0  0
 17 25  1  0  0  0  0
M  END
$$$$

  -OEChem-05262214473D

 49 48  0     1  0  0  0  0  0999 V2000
   -0.0561   -5.3799    2.6949 C   0  0  0  0  0  0  0  0  0  0  0  0
    0.7325   -5.0736    3.5815 O   0  0  0  0  0  0  0  0  0  0  0  0
   -1.0067   -6.5099    2.9135 C   0  0  0  0  0  0  0  0  0  0  0  0
   -0.5910   -7.4777    2.5899 H   0  0  0  0  0  0  0  0  0  0  0  0
   -1.2629   -6.6440    3.9767 H   0  0  0  0  0  0  0  0  0  0  0  0
   -1.9729   -6.4206    2.3918 H   0  0  0  0  0  0  0  0  0  0  0  0
   -0.1735   -4.7694    1.4571 N   0  0  0  0  0  0  0  0  0  0  0  0
    0.6439   -3.6603    1.0409 C   0  0  2  0  0  0  0  0  0  0  0  0
   -0.2788   -2.5625    0.5280 C   0  0  0  0  0  0  0  0  0  0  0  0
   -1.4197   -2.7791    0.1251 O   0  0  0  0  0  0  0  0  0  0  0  0
    1.6395   -4.0779   -0.0301 C   0  0  0  0  0  0  0  0  0  0  0  0
   -0.8741   -5.1235    0.8083 H   0  0  0  0  0  0  0  0  0  0  0  0
    1.1738   -3.3062    1.9318 H   0  0  0  0  0  0  0  0  0  0  0  0
    1.1270   -4.4358   -0.9305 H   0  0  0  0  0  0  0  0  0  0  0  0
    2.2797   -3.2400   -0.3251 H   0  0  0  0  0  0  0  0  0  0  0  0
    2.2827   -4.8880    0.3303 H   0  0  0  0  0  0  0  0  0  0  0  0
    0.3351   -1.3153    0.5316 N   0  0  0  0  0  0  0  0  0  0  0  0
   -0.3268   -0.1184    0.0807 C   0  0  2  0  0  0  0  0  0  0  0  0
   -1.8236   -0.2579    0.3407 C   0  0  0  0  0  0  0  0  0  0  0  0
   -2.6785    0.0713   -0.4791 O   0  0  0  0  0  0  0  0  0  0  0  0
   -0.0048    0.2039   -1.3849 C   0  0  0  0  0  0  0  0  0  0  0  0
    1.4622    0.5677   -1.6258 C   0  0  0  0  0  0  0  0  0  0  0  0
    1.9154    2.0501   -0.6764 S   0  0  0  0  0  0  0  0  0  0  0  0
    0.9341    3.2577   -1.5953 C   0  0  0  0  0  0  0  0  0  0  0  0
    1.2790   -1.2290    0.9021 H   0  0  0  0  0  0  0  0  0  0  0  0
    0.0534    0.6909    0.7159 H   0  0  0  0  0  0  0  0  0  0  0  0
   -0.6436    1.0386   -1.7037 H   0  0  0  0  0  0  0  0  0  0  0  0
   -0.2728   -0.6589   -2.0081 H   0  0  0  0  0  0  0  0  0  0  0  0
    1.6455    0.7781   -2.6837 H   0  0  0  0  0  0  0  0  0  0  0  0
    2.1255   -0.2466   -1.3195 H   0  0  0  0  0  0  0  0  0  0  0  0
    1.0724    4.2530   -1.1659 H   0  0  0  0  0  0  0  0  0  0  0  0
   -0.1246    2.9915   -1.5443 H   0  0  0  0  0  0  0  0  0  0  0  0
    1.2490    3.2729   -2.6415 H   0  0  0  0  0  0  0  0  0  0  0  0
   -2.0922   -0.7616    1.6053 N   0  0  0  0  0  0  0  0  0  0  0  0
   -3.4363   -0.9716    2.0897 C   0  0  2  0  0  0  0  0  0  0  0  0
   -3.4752   -0.5700    3.5582 C   0  0  0  0  0  0  0  0  0  0  0  0
   -2.4739   -0.5337    4.2704 O   0  0  0  0  0  0  0  0  0  0  0  0
   -3.8694   -2.4183    1.9102 C   0  0  0  0  0  0  0  0  0  0  0  0
   -1.3222   -1.0341    2.2091 H   0  0  0  0  0  0  0  0  0  0  0  0
   -4.0882   -0.3077    1.5115 H   0  0  0  0  0  0  0  0  0  0  0  0
   -3.2278   -3.0985    2.4821 H   0  0  0  0  0  0  0  0  0  0  0  0
   -4.8988   -2.5696    2.2516 H   0  0  0  0  0  0  0  0  0  0  0  0
   -3.8124   -2.7144    0.8571 H   0  0  0  0  0  0  0  0  0  0  0  0
   -4.7656   -0.2986    3.9911 N   0  0  0  0  0  0  0  0  0  0  0  0
   -5.0666    0.0918    5.3487 C   0  0  0  0  0  0  0  0  0  0  0  0
   -5.5335   -0.3354    3.3272 H   0  0  0  0  0  0  0  0  0  0  0  0
   -5.3104   -0.8017    5.9422 H   0  0  0  0  0  0  0  0  0  0  0  0
   -4.1930    0.5961    5.7873 H   0  0  0  0  0  0  0  0  0  0  0  0
   -5.9258    0.7787    5.3506 H   0  0  0  0  0  0  0  0  0  0  0  0
  1  3  1  0  0  0  0
  1  7  1  0  0  0  0
  1  2  2  0  0  0  0
 35 36  1  0  0  0  0
 36 44  1  0  0  0  0
 36 37  2  0  0  0  0
  8  9  1  0  0  0  0
  9 17  1  0  0  0  0
  9 10  2  0  0  0  0
 18 19  1  0  0  0  0
 19 34  1  0  0  0  0
 19 20  2  0  0  0  0
 35 38  1  0  0  0  0
  8 11  1  0  0  0  0
 44 45  1  0  0  0  0
 23 24  1  0  0  0  0
 21 22  1  0  0  0  0
 18 21  1  0  0  0  0
 22 23  1  0  0  0  0
 34 35  1  0  0  0  0
  7  8  1  0  0  0  0
 17 18  1  0  0  0  0
  3  4  1  0  0  0  0
  3  5  1  0  0  0  0
  3  6  1  0  0  0  0
 38 41  1  0  0  0  0
 38 42  1  0  0  0  0
 38 43  1  0  0  0  0
 11 14  1  0  0  0  0
 11 15  1  0  0  0  0
 11 16  1  0  0  0  0
 45 47  1  0  0  0  0
 45 48  1  0  0  0  0
 45 49  1  0  0  0  0
 24 31  1  0  0  0  0
 24 32  1  0  0  0  0
 24 33  1  0  0  0  0
 21 27  1  0  0  0  0
 21 28  1  0  0  0  0
 22 29  1  0  0  0  0
 22 30  1  0  0  0  0
 35 40  1  0  0  0  0
  8 13  1  0  0  0  0
 18 26  1  0  0  0  0
 44 46  1  0  0  0  0
  7 12  1  0  0  0  0
 34 39  1  0  0  0  0
 17 25  1  0  0  0  0
M  END
$$$$

  -OEChem-05262214473D

 49 48  0     1  0  0  0  0  0999 V2000
   -0.0561   -5.3799    2.6949 C   0  0  0  0  0  0  0  0  0  0  0  0
    0.7325   -5.0736    3.5815 O   0  0  0  0  0  0  0  0  0  0  0  0
   -1.0067   -6.5099    2.9135 C   0  0  0  0  0  0  0  0  0  0  0  0
   -0.5910   -7.4777    2.5899 H   0  0  0  0  0  0  0  0  0  0  0  0
   -1.2629   -6.6440    3.9767 H   0  0  0  0  0  0  0  0  0  0  0  0
   -1.9729   -6.4206    2.3918 H   0  0  0  0  0  0  0  0  0  0  0  0
   -0.1735   -4.7694    1.4571 N   0  0  0  0  0  0  0  0  0  0  0  0
    0.6439   -3.6603    1.0409 C   0  0  2  0  0  0  0  0  0  0  0  0
   -0.2788   -2.5625    0.5280 C   0  0  0  0  0  0  0  0  0  0  0  0
   -1.4197   -2.7791    0.1251 O   0  0  0  0  0  0  0  0  0  0  0  0
    1.6395   -4.0779   -0.0301 C   0  0  0  0  0  0  0  0  0  0  0  0
   -0.8741   -5.1235    0.8083 H   0  0  0  0  0  0  0  0  0  0  0  0
    1.1738   -3.3062    1.9318 H   0  0  0  0  0  0  0  0  0  0  0  0
    1.1270   -4.4358   -0.9305 H   0  0  0  0  0  0  0  0  0  0  0  0
    2.2797   -3.2400   -0.3251 H   0  0  0  0  0  0  0  0  0  0  0  0
    2.2827   -4.8880    0.3303 H   0  0  0  0  0  0  0  0  0  0  0  0
    0.3351   -1.3153    0.5316 N   0  0  0  0  0  0  0  0  0  0  0  0
   -0.3268   -0.1184    0.0807 C   0  0  2  0  0  0  0  0  0  0  0  0
   -1.8236   -0.2579    0.3407 C   0  0  0  0  0  0  0  0  0  0  0  0
   -2.6668   -0.1878   -0.5512 O   0  0  0  0  0  0  0  0  0  0  0  0
   -0.0048    0.2039   -1.3849 C   0  0  0  0  0  0  0  0  0  0  0  0
    1.4622    0.5677   -1.6258 C   0  0  0  0  0  0  0  0  0  0  0  0
    1.9154    2.0501   -0.6764 S   0  0  0  0  0  0  0  0  0  0  0  0
    0.9341    3.2577   -1.5953 C   0  0  0  0  0  0  0  0  0  0  0  0
    1.2790   -1.2290    0.9021 H   0  0  0  0  0  0  0  0  0  0  0  0
    0.0534    0.6909    0.7159 H   0  0  0  0  0  0  0  0  0  0  0  0
   -0.6436    1.0386   -1.7037 H   0  0  0  0  0  0  0  0  0  0  0  0
   -0.2728   -0.6589   -2.0081 H   0  0  0  0  0  0  0  0  0  0  0  0
    1.6455    0.7781   -2.6837 H   0  0  0  0  0  0  0  0  0  0  0  0
    2.1255   -0.2466   -1.3195 H   0  0  0  0  0  0  0  0  0  0  0  0
    1.0724    4.2530   -1.1659 H   0  0  0  0  0  0  0  0  0  0  0  0
   -0.1246    2.9915   -1.5443 H   0  0  0  0  0  0  0  0  0  0  0  0
    1.2490    3.2729   -2.6415 H   0  0  0  0  0  0  0  0  0  0  0  0
   -2.1083   -0.4367    1.6868 N   0  0  0  0  0  0  0  0  0  0  0  0
   -3.4564   -0.5803    2.1844 C   0  0  2  0  0  0  0  0  0  0  0  0
   -3.5548    0.1780    3.5015 C   0  0  0  0  0  0  0  0  0  0  0  0
   -2.5772    0.4408    4.1989 O   0  0  0  0  0  0  0  0  0  0  0  0
   -3.8242   -2.0441    2.3712 C   0  0  0  0  0  0  0  0  0  0  0  0
   -1.3459   -0.5107    2.3538 H   0  0  0  0  0  0  0  0  0  0  0  0
   -4.1177   -0.1161    1.4447 H   0  0  0  0  0  0  0  0  0  0  0  0
   -3.1723   -2.5261    3.1089 H   0  0  0  0  0  0  0  0  0  0  0  0
   -4.8561   -2.1523    2.7213 H   0  0  0  0  0  0  0  0  0  0  0  0
   -3.7242   -2.5943    1.4294 H   0  0  0  0  0  0  0  0  0  0  0  0
   -4.8674    0.4891    3.8278 N   0  0  0  0  0  0  0  0  0  0  0  0
   -5.2239    1.1961    5.0357 C   0  0  0  0  0  0  0  0  0  0  0  0
   -5.6133    0.2491    3.1814 H   0  0  0  0  0  0  0  0  0  0  0  0
   -5.4481    0.4717    5.8326 H   0  0  0  0  0  0  0  0  0  0  0  0
   -4.3850    1.8357    5.3472 H   0  0  0  0  0  0  0  0  0  0  0  0
   -6.1102    1.8197    4.8473 H   0  0  0  0  0  0  0  0  0  0  0  0
  1  3  1  0  0  0  0
  1  7  1  0  0  0  0
  1  2  2  0  0  0  0
 35 36  1  0  0  0  0
 36 44  1  0  0  0  0
 36 37  2  0  0  0  0
  8  9  1  0  0  0  0
  9 17  1  0  0  0  0
  9 10  2  0  0  0  0
 18 19  1  0  0  0  0
 19 34  1  0  0  0  0
 19 20  2  0  0  0  0
 35 38  1  0  0  0  0
  8 11  1  0  0  0  0
 44 45  1  0  0  0  0
 23 24  1  0  0  0  0
 21 22  1  0  0  0  0
 18 21  1  0  0  0  0
 22 23  1  0  0  0  0
 34 35  1  0  0  0  0
  7  8  1  0  0  0  0
 17 18  1  0  0  0  0
  3  4  1  0  0  0  0
  3  5  1  0  0  0  0
  3  6  1  0  0  0  0
 38 41  1  0  0  0  0
 38 42  1  0  0  0  0
 38 43  1  0  0  0  0
 11 14  1  0  0  0  0
 11 15  1  0  0  0  0
 11 16  1  0  0  0  0
 45 47  1  0  0  0  0
 45 48  1  0  0  0  0
 45 49  1  0  0  0  0
 24 31  1  0  0  0  0
 24 32  1  0  0  0  0
 24 33  1  0  0  0  0
 21 27  1  0  0  0  0
 21 28  1  0  0  0  0
 22 29  1  0  0  0  0
 22 30  1  0  0  0  0
 35 40  1  0  0  0  0
  8 13  1  0  0  0  0
 18 26  1  0  0  0  0
 44 46  1  0  0  0  0
  7 12  1  0  0  0  0
 34 39  1  0  0  0  0
 17 25  1  0  0  0  0
M  END
$$$$

  -OEChem-05262214473D

 49 48  0     1  0  0  0  0  0999 V2000
   -0.0561   -5.3799    2.6949 C   0  0  0  0  0  0  0  0  0  0  0  0
    0.7325   -5.0736    3.5815 O   0  0  0  0  0  0  0  0  0  0  0  0
   -1.0067   -6.5099    2.9135 C   0  0  0  0  0  0  0  0  0  0  0  0
   -0.5910   -7.4777    2.5899 H   0  0  0  0  0  0  0  0  0  0  0  0
   -1.2629   -6.6440    3.9767 H   0  0  0  0  0  0  0  0  0  0  0  0
   -1.9729   -6.4206    2.3918 H   0  0  0  0  0  0  0  0  0  0  0  0
   -0.1735   -4.7694    1.4571 N   0  0  0  0  0  0  0  0  0  0  0  0
    0.6439   -3.6603    1.0409 C   0  0  2  0  0  0  0  0  0  0  0  0
   -0.2788   -2.5625    0.5280 C   0  0  0  0  0  0  0  0  0  0  0  0
   -1.4197   -2.7791    0.1251 O   0  0  0  0  0  0  0  0  0  0  0  0
    1.6395   -4.0779   -0.0301 C   0  0  0  0  0  0  0  0  0  0  0  0
   -0.8741   -5.1235    0.8083 H   0  0  0  0  0  0  0  0  0  0  0  0
    1.1738   -3.3062    1.9318 H   0  0  0  0  0  0  0  0  0  0  0  0
    1.1270   -4.4358   -0.9305 H   0  0  0  0  0  0  0  0  0  0  0  0
    2.2797   -3.2400   -0.3251 H   0  0  0  0  0  0  0  0  0  0  0  0
    2.2827   -4.8880    0.3303 H   0  0  0  0  0  0  0  0  0  0  0  0
    0.3351   -1.3153    0.5316 N   0  0  0  0  0  0  0  0  0  0  0  0
   -0.3268   -0.1184    0.0807 C   0  0  2  0  0  0  0  0  0  0  0  0
   -1.8236   -0.2579    0.3407 C   0  0  0  0  0  0  0  0  0  0  0  0
   -2.6425   -0.4559   -0.5546 O   0  0  0  0  0  0  0  0  0  0  0  0
   -0.0048    0.2039   -1.3849 C   0  0  0  0  0  0  0  0  0  0  0  0
    1.4622    0.5677   -1.6258 C   0  0  0  0  0  0  0  0  0  0  0  0
    1.9154    2.0501   -0.6764 S   0  0  0  0  0  0  0  0  0  0  0  0
    0.9341    3.2577   -1.5953 C   0  0  0  0  0  0  0  0  0  0  0  0
    1.2790   -1.2290    0.9021 H   0  0  0  0  0  0  0  0  0  0  0  0
    0.0534    0.6909    0.7159 H   0  0  0  0  0  0  0  0  0  0  0  0
   -0.6436    1.0386   -1.7037 H   0  0  0  0  0  0  0  0  0  0  0  0
   -0.2728   -0.6589   -2.0081 H   0  0  0  0  0  0  0  0  0  0  0  0
    1.6455    0.7781   -2.6837 H   0  0  0  0  0  0  0  0  0  0  0  0
    2.1255   -0.2466   -1.3195 H   0  0  0  0  0  0  0  0  0  0  0  0
    1.0724    4.2530   -1.1659 H   0  0  0  0  0  0  0  0  0  0  0  0
   -0.1246    2.9915   -1.5443 H   0  0  0  0  0  0  0  0  0  0  0  0
    1.2490    3.2729   -2.6415 H   0  0  0  0  0  0  0  0  0  0  0  0
   -2.1401   -0.1030    1.6827 N   0  0  0  0  0  0  0  0  0  0  0  0
   -3.4952   -0.1792    2.1761 C   0  0  2  0  0  0  0  0  0  0  0  0
   -3.6633    0.8826    3.2549 C   0  0  0  0  0  0  0  0  0  0  0  0
   -2.7182    1.3594    3.8799 O   0  0  0  0  0  0  0  0  0  0  0  0
   -3.8080   -1.5635    2.7226 C   0  0  0  0  0  0  0  0  0  0  0  0
   -1.3953    0.0305    2.3601 H   0  0  0  0  0  0  0  0  0  0  0  0
   -4.1530    0.0507    1.3309 H   0  0  0  0  0  0  0  0  0  0  0  0
   -3.1588   -1.8116    3.5702 H   0  0  0  0  0  0  0  0  0  0  0  0
   -4.8444   -1.6280    3.0701 H   0  0  0  0  0  0  0  0  0  0  0  0
   -3.6579   -2.3291    1.9538 H   0  0  0  0  0  0  0  0  0  0  0  0
   -4.9966    1.2040    3.4676 N   0  0  0  0  0  0  0  0  0  0  0  0
   -5.4171    2.1763    4.4493 C   0  0  0  0  0  0  0  0  0  0  0  0
   -5.7126    0.7731    2.8903 H   0  0  0  0  0  0  0  0  0  0  0  0
   -5.6347    1.6678    5.4001 H   0  0  0  0  0  0  0  0  0  0  0  0
   -4.6146    2.9129    4.6028 H   0  0  0  0  0  0  0  0  0  0  0  0
   -6.3224    2.6894    4.0925 H   0  0  0  0  0  0  0  0  0  0  0  0
  1  3  1  0  0  0  0
  1  7  1  0  0  0  0
  1  2  2  0  0  0  0
 35 36  1  0  0  0  0
 36 44  1  0  0  0  0
 36 37  2  0  0  0  0
  8  9  1  0  0  0  0
  9 17  1  0  0  0  0
  9 10  2  0  0  0  0
 18 19  1  0  0  0  0
 19 34  1  0  0  0  0
 19 20  2  0  0  0  0
 35 38  1  0  0  0  0
  8 11  1  0  0  0  0
 44 45  1  0  0  0  0
 23 24  1  0  0  0  0
 21 22  1  0  0  0  0
 18 21  1  0  0  0  0
 22 23  1  0  0  0  0
 34 35  1  0  0  0  0
  7  8  1  0  0  0  0
 17 18  1  0  0  0  0
  3  4  1  0  0  0  0
  3  5  1  0  0  0  0
  3  6  1  0  0  0  0
 38 41  1  0  0  0  0
 38 42  1  0  0  0  0
 38 43  1  0  0  0  0
 11 14  1  0  0  0  0
 11 15  1  0  0  0  0
 11 16  1  0  0  0  0
 45 47  1  0  0  0  0
 45 48  1  0  0  0  0
 45 49  1  0  0  0  0
 24 31  1  0  0  0  0
 24 32  1  0  0  0  0
 24 33  1  0  0  0  0
 21 27  1  0  0  0  0
 21 28  1  0  0  0  0
 22 29  1  0  0  0  0
 22 30  1  0  0  0  0
 35 40  1  0  0  0  0
  8 13  1  0  0  0  0
 18 26  1  0  0  0  0
 44 46  1  0  0  0  0
  7 12  1  0  0  0  0
 34 39  1  0  0  0  0
 17 25  1  0  0  0  0
M  END
$$$$

  -OEChem-05262214473D

 49 48  0     1  0  0  0  0  0999 V2000
   -0.0561   -5.3799    2.6949 C   0  0  0  0  0  0  0  0  0  0  0  0
    0.7325   -5.0736    3.5815 O   0  0  0  0  0  0  0  0  0  0  0  0
   -1.0067   -6.5099    2.9135 C   0  0  0  0  0  0  0  0  0  0  0  0
   -0.5910   -7.4777    2.5899 H   0  0  0  0  0  0  0  0  0  0  0  0
   -1.2629   -6.6440    3.9767 H   0  0  0  0  0  0  0  0  0  0  0  0
   -1.9729   -6.4206    2.3918 H   0  0  0  0  0  0  0  0  0  0  0  0
   -0.1735   -4.7694    1.4571 N   0  0  0  0  0  0  0  0  0  0  0  0
    0.6439   -3.6603    1.0409 C   0  0  2  0  0  0  0  0  0  0  0  0
   -0.2788   -2.5625    0.5280 C   0  0  0  0  0  0  0  0  0  0  0  0
   -1.4197   -2.7791    0.1251 O   0  0  0  0  0  0  0  0  0  0  0  0
    1.6395   -4.0779   -0.0301 C   0  0  0  0  0  0  0  0  0  0  0  0
   -0.8741   -5.1235    0.8083 H   0  0  0  0  0  0  0  0  0  0  0  0
    1.1738   -3.3062    1.9318 H   0  0  0  0  0  0  0  0  0  0  0  0
    1.1270   -4.4358   -0.9305 H   0  0  0  0  0  0  0  0  0  0  0  0
    2.2797   -3.2400   -0.3251 H   0  0  0  0  0  0  0  0  0  0  0  0
    2.2827   -4.8880    0.3303 H   0  0  0  0  0  0  0  0  0  0  0  0
    0.3351   -1.3153    0.5316 N   0  0  0  0  0  0  0  0  0  0  0  0
   -0.3268   -0.1184    0.0807 C   0  0  2  0  0  0  0  0  0  0  0  0
   -1.8236   -0.2579    0.3407 C   0  0  0  0  0  0  0  0  0  0  0  0
   -2.6070   -0.7147   -0.4893 O   0  0  0  0  0  0  0  0  0  0  0  0
   -0.0048    0.2039   -1.3849 C   0  0  0  0  0  0  0  0  0  0  0  0
    1.4622    0.5677   -1.6258 C   0  0  0  0  0  0  0  0  0  0  0  0
    1.9154    2.0501   -0.6764 S   0  0  0  0  0  0  0  0  0  0  0  0
    0.9341    3.2577   -1.5953 C   0  0  0  0  0  0  0  0  0  0  0  0
    1.2790   -1.2290    0.9021 H   0  0  0  0  0  0  0  0  0  0  0  0
    0.0534    0.6909    0.7159 H   0  0  0  0  0  0  0  0  0  0  0  0
   -0.6436    1.0386   -1.7037 H   0  0  0  0  0  0  0  0  0  0  0  0
   -0.2728   -0.6589   -2.0081 H   0  0  0  0  0  0  0  0  0  0  0  0
    1.6455    0.7781   -2.6837 H   0  0  0  0  0  0  0  0  0  0  0  0
    2.1255   -0.2466   -1.3195 H   0  0  0  0  0  0  0  0  0  0  0  0
    1.0724    4.2530   -1.1659 H   0  0  0  0  0  0  0  0  0  0  0  0
   -0.1246    2.9915   -1.5443 H   0  0  0  0  0  0  0  0  0  0  0  0
    1.2490    3.2729   -2.6415 H   0  0  0  0  0  0  0  0  0  0  0  0
   -2.1855    0.2169    1.5932 N   0  0  0  0  0  0  0  0  0  0  0  0
   -3.5502    0.2044    2.0653 C   0  0  2  0  0  0  0  0  0  0  0  0
   -3.7933    1.4958    2.8352 C   0  0  0  0  0  0  0  0  0  0  0  0
   -2.8874    2.1594    3.3352 O   0  0  0  0  0  0  0  0  0  0  0  0
   -3.8219   -1.0094    2.9403 C   0  0  0  0  0  0  0  0  0  0  0  0
   -1.4669    0.5527    2.2276 H   0  0  0  0  0  0  0  0  0  0  0  0
   -4.1918    0.1814    1.1777 H   0  0  0  0  0  0  0  0  0  0  0  0
   -3.1882   -1.0037    3.8347 H   0  0  0  0  0  0  0  0  0  0  0  0
   -4.8645   -1.0325    3.2741 H   0  0  0  0  0  0  0  0  0  0  0  0
   -3.6179   -1.9368    2.3945 H   0  0  0  0  0  0  0  0  0  0  0  0
   -5.1443    1.7974    2.9351 N   0  0  0  0  0  0  0  0  0  0  0  0
   -5.6331    2.9658    3.6293 C   0  0  0  0  0  0  0  0  0  0  0  0
   -5.8249    1.2010    2.4737 H   0  0  0  0  0  0  0  0  0  0  0  0
   -5.8574    2.7051    4.6742 H   0  0  0  0  0  0  0  0  0  0  0  0
   -4.8664    3.7542    3.6048 H   0  0  0  0  0  0  0  0  0  0  0  0
   -6.5478    3.3284    3.1375 H   0  0  0  0  0  0  0  0  0  0  0  0
  1  3  1  0  0  0  0
  1  7  1  0  0  0  0
  1  2  2  0  0  0  0
 35 36  1  0  0  0  0
 36 44  1  0  0  0  0
 36 37  2  0  0  0  0
  8  9  1  0  0  0  0
  9 17  1  0  0  0  0
  9 10  2  0  0  0  0
 18 19  1  0  0  0  0
 19 34  1  0  0  0  0
 19 20  2  0  0  0  0
 35 38  1  0  0  0  0
  8 11  1  0  0  0  0
 44 45  1  0  0  0  0
 23 24  1  0  0  0  0
 21 22  1  0  0  0  0
 18 21  1  0  0  0  0
 22 23  1  0  0  0  0
 34 35  1  0  0  0  0
  7  8  1  0  0  0  0
 17 18  1  0  0  0  0
  3  4  1  0  0  0  0
  3  5  1  0  0  0  0
  3  6  1  0  0  0  0
 38 41  1  0  0  0  0
 38 42  1  0  0  0  0
 38 43  1  0  0  0  0
 11 14  1  0  0  0  0
 11 15  1  0  0  0  0
 11 16  1  0  0  0  0
 45 47  1  0  0  0  0
 45 48  1  0  0  0  0
 45 49  1  0  0  0  0
 24 31  1  0  0  0  0
 24 32  1  0  0  0  0
 24 33  1  0  0  0  0
 21 27  1  0  0  0  0
 21 28  1  0  0  0  0
 22 29  1  0  0  0  0
 22 30  1  0  0  0  0
 35 40  1  0  0  0  0
  8 13  1  0  0  0  0
 18 26  1  0  0  0  0
 44 46  1  0  0  0  0
  7 12  1  0  0  0  0
 34 39  1  0  0  0  0
 17 25  1  0  0  0  0
M  END
$$$$

  -OEChem-05262214473D

 49 48  0     1  0  0  0  0  0999 V2000
   -0.0561   -5.3799    2.6949 C   0  0  0  0  0  0  0  0  0  0  0  0
    0.7325   -5.0736    3.5815 O   0  0  0  0  0  0  0  0  0  0  0  0
   -1.0067   -6.5099    2.9135 C   0  0  0  0  0  0  0  0  0  0  0  0
   -0.5910   -7.4777    2.5899 H   0  0  0  0  0  0  0  0  0  0  0  0
   -1.2629   -6.6440    3.9767 H   0  0  0  0  0  0  0  0  0  0  0  0
   -1.9729   -6.4206    2.3918 H   0  0  0  0  0  0  0  0  0  0  0  0
   -0.1735   -4.7694    1.4571 N   0  0  0  0  0  0  0  0  0  0  0  0
    0.6439   -3.6603    1.0409 C   0  0  2  0  0  0  0  0  0  0  0  0
   -0.2788   -2.5625    0.5280 C   0  0  0  0  0  0  0  0  0  0  0  0
   -1.4197   -2.7791    0.1251 O   0  0  0  0  0  0  0  0  0  0  0  0
    1.6395   -4.0779   -0.0301 C   0  0  0  0  0  0  0  0  0  0  0  0
   -0.8741   -5.1235    0.8083 H   0  0  0  0  0  0  0  0  0  0  0  0
    1.1738   -3.3062    1.9318 H   0  0  0  0  0  0  0  0  0  0  0  0
    1.1270   -4.4358   -0.9305 H   0  0  0  0  0  0  0  0  0  0  0  0
    2.2797   -3.2400   -0.3251 H   0  0  0  0  0  0  0  0  0  0  0  0
    2.2827   -4.8880    0.3303 H   0  0  0  0  0  0  0  0  0  0  0  0
    0.3351   -1.3153    0.5316 N   0  0  0  0  0  0  0  0  0  0  0  0
   -0.3268   -0.1184    0.0807 C   0  0  2  0  0  0  0  0  0  0  0  0
   -1.8236   -0.2579    0.3407 C   0  0  0  0  0  0  0  0  0  0  0  0
   -2.5629   -0.9466   -0.3597 O   0  0  0  0  0  0  0  0  0  0  0  0
   -0.0048    0.2039   -1.3849 C   0  0  0  0  0  0  0  0  0  0  0  0
    1.4622    0.5677   -1.6258 C   0  0  0  0  0  0  0  0  0  0  0  0
    1.9154    2.0501   -0.6764 S   0  0  0  0  0  0  0  0  0  0  0  0
    0.9341    3.2577   -1.5953 C   0  0  0  0  0  0  0  0  0  0  0  0
    1.2790   -1.2290    0.9021 H   0  0  0  0  0  0  0  0  0  0  0  0
    0.0534    0.6909    0.7159 H   0  0  0  0  0  0  0  0  0  0  0  0
   -0.6436    1.0386   -1.7037 H   0  0  0  0  0  0  0  0  0  0  0  0
   -0.2728   -0.6589   -2.0081 H   0  0  0  0  0  0  0  0  0  0  0  0
    1.6455    0.7781   -2.6837 H   0  0  0  0  0  0  0  0  0  0  0  0
    2.1255   -0.2466   -1.3195 H   0  0  0  0  0  0  0  0  0  0  0  0
    1.0724    4.2530   -1.1659 H   0  0  0  0  0  0  0  0  0  0  0  0
   -0.1246    2.9915   -1.5443 H   0  0  0  0  0  0  0  0  0  0  0  0
    1.2490    3.2729   -2.6415 H   0  0  0  0  0  0  0  0  0  0  0  0
   -2.2413    0.5012    1.4244 N   0  0  0  0  0  0  0  0  0  0  0  0
   -3.6176    0.5444    1.8596 C   0  0  2  0  0  0  0  0  0  0  0  0
   -3.9360    1.9758    2.2710 C   0  0  0  0  0  0  0  0  0  0  0  0
   -3.0731    2.7864    2.6019 O   0  0  0  0  0  0  0  0  0  0  0  0
   -3.8648   -0.4194    3.0096 C   0  0  0  0  0  0  0  0  0  0  0  0
   -1.5561    1.0203    1.9654 H   0  0  0  0  0  0  0  0  0  0  0  0
   -4.2314    0.2670    0.9957 H   0  0  0  0  0  0  0  0  0  0  0  0
   -3.2585   -0.1574    3.8844 H   0  0  0  0  0  0  0  0  0  0  0  0
   -4.9150   -0.4063    3.3195 H   0  0  0  0  0  0  0  0  0  0  0  0
   -3.6070   -1.4443    2.7215 H   0  0  0  0  0  0  0  0  0  0  0  0
   -5.3006    2.2288    2.2666 N   0  0  0  0  0  0  0  0  0  0  0  0
   -5.8571    3.5106    2.6317 C   0  0  0  0  0  0  0  0  0  0  0  0
   -5.9423    1.5035    1.9599 H   0  0  0  0  0  0  0  0  0  0  0  0
   -6.1011    3.5129    3.7043 H   0  0  0  0  0  0  0  0  0  0  0  0
   -5.1230    4.3023    2.4211 H   0  0  0  0  0  0  0  0  0  0  0  0
   -6.7710    3.6932    2.0475 H   0  0  0  0  0  0  0  0  0  0  0  0
  1  3  1  0  0  0  0
  1  7  1  0  0  0  0
  1  2  2  0  0  0  0
 35 36  1  0  0  0  0
 36 44  1  0  0  0  0
 36 37  2  0  0  0  0
  8  9  1  0  0  0  0
  9 17  1  0  0  0  0
  9 10  2  0  0  0  0
 18 19  1  0  0  0  0
 19 34  1  0  0  0  0
 19 20  2  0  0  0  0
 35 38  1  0  0  0  0
  8 11  1  0  0  0  0
 44 45  1  0  0  0  0
 23 24  1  0  0  0  0
 21 22  1  0  0  0  0
 18 21  1  0  0  0  0
 22 23  1  0  0  0  0
 34 35  1  0  0  0  0
  7  8  1  0  0  0  0
 17 18  1  0  0  0  0
  3  4  1  0  0  0  0
  3  5  1  0  0  0  0
  3  6  1  0  0  0  0
 38 41  1  0  0  0  0
 38 42  1  0  0  0  0
 38 43  1  0  0  0  0
 11 14  1  0  0  0  0
 11 15  1  0  0  0  0
 11 16  1  0  0  0  0
 45 47  1  0  0  0  0
 45 48  1  0  0  0  0
 45 49  1  0  0  0  0
 24 31  1  0  0  0  0
 24 32  1  0  0  0  0
 24 33  1  0  0  0  0
 21 27  1  0  0  0  0
 21 28  1  0  0  0  0
 22 29  1  0  0  0  0
 22 30  1  0  0  0  0
 35 40  1  0  0  0  0
  8 13  1  0  0  0  0
 18 26  1  0  0  0  0
 44 46  1  0  0  0  0
  7 12  1  0  0  0  0
 34 39  1  0  0  0  0
 17 25  1  0  0  0  0
M  END
$$$$

  -OEChem-05262214473D

 49 48  0     1  0  0  0  0  0999 V2000
   -0.0561   -5.3799    2.6949 C   0  0  0  0  0  0  0  0  0  0  0  0
    0.7325   -5.0736    3.5815 O   0  0  0  0  0  0  0  0  0  0  0  0
   -1.0067   -6.5099    2.9135 C   0  0  0  0  0  0  0  0  0  0  0  0
   -0.5910   -7.4777    2.5899 H   0  0  0  0  0  0  0  0  0  0  0  0
   -1.2629   -6.6440    3.9767 H   0  0  0  0  0  0  0  0  0  0  0  0
   -1.9729   -6.4206    2.3918 H   0  0  0  0  0  0  0  0  0  0  0  0
   -0.1735   -4.7694    1.4571 N   0  0  0  0  0  0  0  0  0  0  0  0
    0.6439   -3.6603    1.0409 C   0  0  2  0  0  0  0  0  0  0  0  0
   -0.2788   -2.5625    0.5280 C   0  0  0  0  0  0  0  0  0  0  0  0
   -1.4197   -2.7791    0.1251 O   0  0  0  0  0  0  0  0  0  0  0  0
    1.6395   -4.0779   -0.0301 C   0  0  0  0  0  0  0  0  0  0  0  0
   -0.8741   -5.1235    0.8083 H   0  0  0  0  0  0  0  0  0  0  0  0
    1.1738   -3.3062    1.9318 H   0  0  0  0  0  0  0  0  0  0  0  0
    1.1270   -4.4358   -0.9305 H   0  0  0  0  0  0  0  0  0  0  0  0
    2.2797   -3.2400   -0.3251 H   0  0  0  0  0  0  0  0  0  0  0  0
    2.2827   -4.8880    0.3303 H   0  0  0  0  0  0  0  0  0  0  0  0
    0.3351   -1.3153    0.5316 N   0  0  0  0  0  0  0  0  0  0  0  0
   -0.3268   -0.1184    0.0807 C   0  0  2  0  0  0  0  0  0  0  0  0
   -1.8236   -0.2579    0.3407 C   0  0  0  0  0  0  0  0  0  0  0  0
   -2.5131   -1.1356   -0.1746 O   0  0  0  0  0  0  0  0  0  0  0  0
   -0.0048    0.2039   -1.3849 C   0  0  0  0  0  0  0  0  0  0  0  0
    1.4622    0.5677   -1.6258 C   0  0  0  0  0  0  0  0  0  0  0  0
    1.9154    2.0501   -0.6764 S   0  0  0  0  0  0  0  0  0  0  0  0
    0.9341    3.2577   -1.5953 C   0  0  0  0  0  0  0  0  0  0  0  0
    1.2790   -1.2290    0.9021 H   0  0  0  0  0  0  0  0  0  0  0  0
    0.0534    0.6909    0.7159 H   0  0  0  0  0  0  0  0  0  0  0  0
   -0.6436    1.0386   -1.7037 H   0  0  0  0  0  0  0  0  0  0  0  0
   -0.2728   -0.6589   -2.0081 H   0  0  0  0  0  0  0  0  0  0  0  0
    1.6455    0.7781   -2.6837 H   0  0  0  0  0  0  0  0  0  0  0  0
    2.1255   -0.2466   -1.3195 H   0  0  0  0  0  0  0  0  0  0  0  0
    1.0724    4.2530   -1.1659 H   0  0  0  0  0  0  0  0  0  0  0  0
   -0.1246    2.9915   -1.5443 H   0  0  0  0  0  0  0  0  0  0  0  0
    1.2490    3.2729   -2.6415 H   0  0  0  0  0  0  0  0  0  0  0  0
   -2.3037    0.7305    1.1879 N   0  0  0  0  0  0  0  0  0  0  0  0
   -3.6928    0.8176    1.5729 C   0  0  2  0  0  0  0  0  0  0  0  0
   -4.0817    2.2899    1.6007 C   0  0  0  0  0  0  0  0  0  0  0  0
   -3.2629    3.1976    1.7299 O   0  0  0  0  0  0  0  0  0  0  0  0
   -3.9340    0.1661    2.9258 C   0  0  0  0  0  0  0  0  0  0  0  0
   -1.6566    1.4014    1.5912 H   0  0  0  0  0  0  0  0  0  0  0  0
   -4.2691    0.3017    0.7972 H   0  0  0  0  0  0  0  0  0  0  0  0
   -3.3648    0.6695    3.7158 H   0  0  0  0  0  0  0  0  0  0  0  0
   -4.9924    0.2078    3.2032 H   0  0  0  0  0  0  0  0  0  0  0  0
   -3.6260   -0.8850    2.9126 H   0  0  0  0  0  0  0  0  0  0  0  0
   -5.4548    2.4688    1.5076 N   0  0  0  0  0  0  0  0  0  0  0  0
   -6.0739    3.7736    1.5245 C   0  0  0  0  0  0  0  0  0  0  0  0
   -6.0569    1.6601    1.3841 H   0  0  0  0  0  0  0  0  0  0  0  0
   -6.3492    4.0361    2.5566 H   0  0  0  0  0  0  0  0  0  0  0  0
   -5.3670    4.5198    1.1326 H   0  0  0  0  0  0  0  0  0  0  0  0
   -6.9770    3.7589    0.8967 H   0  0  0  0  0  0  0  0  0  0  0  0
  1  3  1  0  0  0  0
  1  7  1  0  0  0  0
  1  2  2  0  0  0  0
 35 36  1  0  0  0  0
 36 44  1  0  0  0  0
 36 37  2  0  0  0  0
  8  9  1  0  0  0  0
  9 17  1  0  0  0  0
  9 10  2  0  0  0  0
 18 19  1  0  0  0  0
 19 34  1  0  0  0  0
 19 20  2  0  0  0  0
 35 38  1  0  0  0  0
  8 11  1  0  0  0  0
 44 45  1  0  0  0  0
 23 24  1  0  0  0  0
 21 22  1  0  0  0  0
 18 21  1  0  0  0  0
 22 23  1  0  0  0  0
 34 35  1  0  0  0  0
  7  8  1  0  0  0  0
 17 18  1  0  0  0  0
  3  4  1  0  0  0  0
  3  5  1  0  0  0  0
  3  6  1  0  0  0  0
 38 41  1  0  0  0  0
 38 42  1  0  0  0  0
 38 43  1  0  0  0  0
 11 14  1  0  0  0  0
 11 15  1  0  0  0  0
 11 16  1  0  0  0  0
 45 47  1  0  0  0  0
 45 48  1  0  0  0  0
 45 49  1  0  0  0  0
 24 31  1  0  0  0  0
 24 32  1  0  0  0  0
 24 33  1  0  0  0  0
 21 27  1  0  0  0  0
 21 28  1  0  0  0  0
 22 29  1  0  0  0  0
 22 30  1  0  0  0  0
 35 40  1  0  0  0  0
  8 13  1  0  0  0  0
 18 26  1  0  0  0  0
 44 46  1  0  0  0  0
  7 12  1  0  0  0  0
 34 39  1  0  0  0  0
 17 25  1  0  0  0  0
M  END
$$$$

  -OEChem-05262214473D

 49 48  0     1  0  0  0  0  0999 V2000
   -0.0561   -5.3799    2.6949 C   0  0  0  0  0  0  0  0  0  0  0  0
    0.7325   -5.0736    3.5815 O   0  0  0  0  0  0  0  0  0  0  0  0
   -1.0067   -6.5099    2.9135 C   0  0  0  0  0  0  0  0  0  0  0  0
   -0.5910   -7.4777    2.5899 H   0  0  0  0  0  0  0  0  0  0  0  0
   -1.2629   -6.6440    3.9767 H   0  0  0  0  0  0  0  0  0  0  0  0
   -1.9729   -6.4206    2.3918 H   0  0  0  0  0  0  0  0  0  0  0  0
   -0.1735   -4.7694    1.4571 N   0  0  0  0  0  0  0  0  0  0  0  0
    0.6439   -3.6603    1.0409 C   0  0  2  0  0  0  0  0  0  0  0  0
   -0.2788   -2.5625    0.5280 C   0  0  0  0  0  0  0  0  0  0  0  0
   -1.4197   -2.7791    0.1251 O   0  0  0  0  0  0  0  0  0  0  0  0
    1.6395   -4.0779   -0.0301 C   0  0  0  0  0  0  0  0  0  0  0  0
   -0.8741   -5.1235    0.8083 H   0  0  0  0  0  0  0  0  0  0  0  0
    1.1738   -3.3062    1.9318 H   0  0  0  0  0  0  0  0  0  0  0  0
    1.1270   -4.4358   -0.9305 H   0  0  0  0  0  0  0  0  0  0  0  0
    2.2797   -3.2400   -0.3251 H   0  0  0  0  0  0  0  0  0  0  0  0
    2.2827   -4.8880    0.3303 H   0  0  0  0  0  0  0  0  0  0  0  0
    0.3351   -1.3153    0.5316 N   0  0  0  0  0  0  0  0  0  0  0  0
   -0.3268   -0.1184    0.0807 C   0  0  2  0  0  0  0  0  0  0  0  0
   -1.8236   -0.2579    0.3407 C   0  0  0  0  0  0  0  0  0  0  0  0
   -2.4611   -1.2690    0.0534 O   0  0  0  0  0  0  0  0  0  0  0  0
   -0.0048    0.2039   -1.3849 C   0  0  0  0  0  0  0  0  0  0  0  0
    1.4622    0.5677   -1.6258 C   0  0  0  0  0  0  0  0  0  0  0  0
    1.9154    2.0501   -0.6764 S   0  0  0  0  0  0  0  0  0  0  0  0
    0.9341    3.2577   -1.5953 C   0  0  0  0  0  0  0  0  0  0  0  0
    1.2790   -1.2290    0.9021 H   0  0  0  0  0  0  0  0  0  0  0  0
    0.0534    0.6909    0.7159 H   0  0  0  0  0  0  0  0  0  0  0  0
   -0.6436    1.0386   -1.7037 H   0  0  0  0  0  0  0  0  0  0  0  0
   -0.2728   -0.6589   -2.0081 H   0  0  0  0  0  0  0  0  0  0  0  0
    1.6455    0.7781   -2.6837 H   0  0  0  0  0  0  0  0  0  0  0  0
    2.1255   -0.2466   -1.3195 H   0  0  0  0  0  0  0  0  0  0  0  0
    1.0724    4.2530   -1.1659 H   0  0  0  0  0  0  0  0  0  0  0  0
   -0.1246    2.9915   -1.5443 H   0  0  0  0  0  0  0  0  0  0  0  0
    1.2490    3.2729   -2.6415 H   0  0  0  0  0  0  0  0  0  0  0  0
   -2.3686    0.8891    0.8997 N   0  0  0  0  0  0  0  0  0  0  0  0
   -3.7708    1.0054    1.2249 C   0  0  2  0  0  0  0  0  0  0  0  0
   -4.2204    2.4166    0.8701 C   0  0  0  0  0  0  0  0  0  0  0  0
   -3.4437    3.3650    0.7788 O   0  0  0  0  0  0  0  0  0  0  0  0
   -4.0246    0.7073    2.6944 C   0  0  0  0  0  0  0  0  0  0  0  0
   -1.7616    1.6701    1.1305 H   0  0  0  0  0  0  0  0  0  0  0  0
   -4.3023    0.2832    0.5957 H   0  0  0  0  0  0  0  0  0  0  0  0
   -3.5000    1.4208    3.3404 H   0  0  0  0  0  0  0  0  0  0  0  0
   -5.0915    0.7680    2.9330 H   0  0  0  0  0  0  0  0  0  0  0  0
   -3.6735   -0.2970    2.9546 H   0  0  0  0  0  0  0  0  0  0  0  0
   -5.5964    2.5012    0.7099 N   0  0  0  0  0  0  0  0  0  0  0  0
   -6.2687    3.7370    0.3830 C   0  0  0  0  0  0  0  0  0  0  0  0
   -6.1608    1.6601    0.7854 H   0  0  0  0  0  0  0  0  0  0  0  0
   -6.5847    4.2392    1.3093 H   0  0  0  0  0  0  0  0  0  0  0  0
   -5.5818    4.3920   -0.1730 H   0  0  0  0  0  0  0  0  0  0  0  0
   -7.1516    3.5211   -0.2365 H   0  0  0  0  0  0  0  0  0  0  0  0
  1  3  1  0  0  0  0
  1  7  1  0  0  0  0
  1  2  2  0  0  0  0
 35 36  1  0  0  0  0
 36 44  1  0  0  0  0
 36 37  2  0  0  0  0
  8  9  1  0  0  0  0
  9 17  1  0  0  0  0
  9 10  2  0  0  0  0
 18 19  1  0  0  0  0
 19 34  1  0  0  0  0
 19 20  2  0  0  0  0
 35 38  1  0  0  0  0
  8 11  1  0  0  0  0
 44 45  1  0  0  0  0
 23 24  1  0  0  0  0
 21 22  1  0  0  0  0
 18 21  1  0  0  0  0
 22 23  1  0  0  0  0
 34 35  1  0  0  0  0
  7  8  1  0  0  0  0
 17 18  1  0  0  0  0
  3  4  1  0  0  0  0
  3  5  1  0  0  0  0
  3  6  1  0  0  0  0
 38 41  1  0  0  0  0
 38 42  1  0  0  0  0
 38 43  1  0  0  0  0
 11 14  1  0  0  0  0
 11 15  1  0  0  0  0
 11 16  1  0  0  0  0
 45 47  1  0  0  0  0
 45 48  1  0  0  0  0
 45 49  1  0  0  0  0
 24 31  1  0  0  0  0
 24 32  1  0  0  0  0
 24 33  1  0  0  0  0
 21 27  1  0  0  0  0
 21 28  1  0  0  0  0
 22 29  1  0  0  0  0
 22 30  1  0  0  0  0
 35 40  1  0  0  0  0
  8 13  1  0  0  0  0
 18 26  1  0  0  0  0
 44 46  1  0  0  0  0
  7 12  1  0  0  0  0
 34 39  1  0  0  0  0
 17 25  1  0  0  0  0
M  END
$$$$

  -OEChem-05262214473D

 49 48  0     1  0  0  0  0  0999 V2000
   -0.0561   -5.3799    2.6949 C   0  0  0  0  0  0  0  0  0  0  0  0
    0.7325   -5.0736    3.5815 O   0  0  0  0  0  0  0  0  0  0  0  0
   -1.0067   -6.5099    2.9135 C   0  0  0  0  0  0  0  0  0  0  0  0
   -0.5910   -7.4777    2.5899 H   0  0  0  0  0  0  0  0  0  0  0  0
   -1.2629   -6.6440    3.9767 H   0  0  0  0  0  0  0  0  0  0  0  0
   -1.9729   -6.4206    2.3918 H   0  0  0  0  0  0  0  0  0  0  0  0
   -0.1735   -4.7694    1.4571 N   0  0  0  0  0  0  0  0  0  0  0  0
    0.6439   -3.6603    1.0409 C   0  0  2  0  0  0  0  0  0  0  0  0
   -0.2788   -2.5625    0.5280 C   0  0  0  0  0  0  0  0  0  0  0  0
   -1.4197   -2.7791    0.1251 O   0  0  0  0  0  0  0  0  0  0  0  0
    1.6395   -4.0779   -0.0301 C   0  0  0  0  0  0  0  0  0  0  0  0
   -0.8741   -5.1235    0.8083 H   0  0  0  0  0  0  0  0  0  0  0  0
    1.1738   -3.3062    1.9318 H   0  0  0  0  0  0  0  0  0  0  0  0
    1.1270   -4.4358   -0.9305 H   0  0  0  0  0  0  0  0  0  0  0  0
    2.2797   -3.2400   -0.3251 H   0  0  0  0  0  0  0  0  0  0  0  0
    2.2827   -4.8880    0.3303 H   0  0  0  0  0  0  0  0  0  0  0  0
    0.3351   -1.3153    0.5316 N   0  0  0  0  0  0  0  0  0  0  0  0
   -0.3268   -0.1184    0.0807 C   0  0  2  0  0  0  0  0  0  0  0  0
   -1.8236   -0.2579    0.3407 C   0  0  0  0  0  0  0  0  0  0  0  0
   -2.4103   -1.3377    0.3088 O   0  0  0  0  0  0  0  0  0  0  0  0
   -0.0048    0.2039   -1.3849 C   0  0  0  0  0  0  0  0  0  0  0  0
    1.4622    0.5677   -1.6258 C   0  0  0  0  0  0  0  0  0  0  0  0
    1.9154    2.0501   -0.6764 S   0  0  0  0  0  0  0  0  0  0  0  0
    0.9341    3.2577   -1.5953 C   0  0  0  0  0  0  0  0  0  0  0  0
    1.2790   -1.2290    0.9021 H   0  0  0  0  0  0  0  0  0  0  0  0
    0.0534    0.6909    0.7159 H   0  0  0  0  0  0  0  0  0  0  0  0
   -0.6436    1.0386   -1.7037 H   0  0  0  0  0  0  0  0  0  0  0  0
   -0.2728   -0.6589   -2.0081 H   0  0  0  0  0  0  0  0  0  0  0  0
    1.6455    0.7781   -2.6837 H   0  0  0  0  0  0  0  0  0  0  0  0
    2.1255   -0.2466   -1.3195 H   0  0  0  0  0  0  0  0  0  0  0  0
    1.0724    4.2530   -1.1659 H   0  0  0  0  0  0  0  0  0  0  0  0
   -0.1246    2.9915   -1.5443 H   0  0  0  0  0  0  0  0  0  0  0  0
    1.2490    3.2729   -2.6415 H   0  0  0  0  0  0  0  0  0  0  0  0
   -2.4314    0.9663    0.5795 N   0  0  0  0  0  0  0  0  0  0  0  0
   -3.8461    1.0950    0.8392 C   0  0  2  0  0  0  0  0  0  0  0  0
   -4.3426    2.3474    0.1290 C   0  0  0  0  0  0  0  0  0  0  0  0
   -3.6031    3.2772   -0.1867 O   0  0  0  0  0  0  0  0  0  0  0  0
   -4.1305    1.1674    2.3313 C   0  0  0  0  0  0  0  0  0  0  0  0
   -1.8640    1.8080    0.6149 H   0  0  0  0  0  0  0  0  0  0  0  0
   -4.3288    0.2126    0.4050 H   0  0  0  0  0  0  0  0  0  0  0  0
   -3.6549    2.0452    2.7838 H   0  0  0  0  0  0  0  0  0  0  0  0
   -5.2056    1.2362    2.5275 H   0  0  0  0  0  0  0  0  0  0  0  0
   -3.7463    0.2795    2.8449 H   0  0  0  0  0  0  0  0  0  0  0  0
   -5.7156    2.3236   -0.0722 N   0  0  0  0  0  0  0  0  0  0  0  0
   -6.4282    3.4031   -0.7148 C   0  0  0  0  0  0  0  0  0  0  0  0
   -6.2471    1.5035    0.2047 H   0  0  0  0  0  0  0  0  0  0  0  0
   -6.7917    4.1082    0.0473 H   0  0  0  0  0  0  0  0  0  0  0  0
   -5.7528    3.9275   -1.4068 H   0  0  0  0  0  0  0  0  0  0  0  0
   -7.2830    2.9959   -1.2748 H   0  0  0  0  0  0  0  0  0  0  0  0
  1  3  1  0  0  0  0
  1  7  1  0  0  0  0
  1  2  2  0  0  0  0
 35 36  1  0  0  0  0
 36 44  1  0  0  0  0
 36 37  2  0  0  0  0
  8  9  1  0  0  0  0
  9 17  1  0  0  0  0
  9 10  2  0  0  0  0
 18 19  1  0  0  0  0
 19 34  1  0  0  0  0
 19 20  2  0  0  0  0
 35 38  1  0  0  0  0
  8 11  1  0  0  0  0
 44 45  1  0  0  0  0
 23 24  1  0  0  0  0
 21 22  1  0  0  0  0
 18 21  1  0  0  0  0
 22 23  1  0  0  0  0
 34 35  1  0  0  0  0
  7  8  1  0  0  0  0
 17 18  1  0  0  0  0
  3  4  1  0  0  0  0
  3  5  1  0  0  0  0
  3  6  1  0  0  0  0
 38 41  1  0  0  0  0
 38 42  1  0  0  0  0
 38 43  1  0  0  0  0
 11 14  1  0  0  0  0
 11 15  1  0  0  0  0
 11 16  1  0  0  0  0
 45 47  1  0  0  0  0
 45 48  1  0  0  0  0
 45 49  1  0  0  0  0
 24 31  1  0  0  0  0
 24 32  1  0  0  0  0
 24 33  1  0  0  0  0
 21 27  1  0  0  0  0
 21 28  1  0  0  0  0
 22 29  1  0  0  0  0
 22 30  1  0  0  0  0
 35 40  1  0  0  0  0
  8 13  1  0  0  0  0
 18 26  1  0  0  0  0
 44 46  1  0  0  0  0
  7 12  1  0  0  0  0
 34 39  1  0  0  0  0
 17 25  1  0  0  0  0
M  END
$$$$

  -OEChem-05262214473D

 49 48  0     1  0  0  0  0  0999 V2000
   -0.0561   -5.3799    2.6949 C   0  0  0  0  0  0  0  0  0  0  0  0
    0.7325   -5.0736    3.5815 O   0  0  0  0  0  0  0  0  0  0  0  0
   -1.0067   -6.5099    2.9135 C   0  0  0  0  0  0  0  0  0  0  0  0
   -0.5910   -7.4777    2.5899 H   0  0  0  0  0  0  0  0  0  0  0  0
   -1.2629   -6.6440    3.9767 H   0  0  0  0  0  0  0  0  0  0  0  0
   -1.9729   -6.4206    2.3918 H   0  0  0  0  0  0  0  0  0  0  0  0
   -0.1735   -4.7694    1.4571 N   0  0  0  0  0  0  0  0  0  0  0  0
    0.6439   -3.6603    1.0409 C   0  0  2  0  0  0  0  0  0  0  0  0
   -0.2788   -2.5625    0.5280 C   0  0  0  0  0  0  0  0  0  0  0  0
   -1.4197   -2.7791    0.1251 O   0  0  0  0  0  0  0  0  0  0  0  0
    1.6395   -4.0779   -0.0301 C   0  0  0  0  0  0  0  0  0  0  0  0
   -0.8741   -5.1235    0.8083 H   0  0  0  0  0  0  0  0  0  0  0  0
    1.1738   -3.3062    1.9318 H   0  0  0  0  0  0  0  0  0  0  0  0
    1.1270   -4.4358   -0.9305 H   0  0  0  0  0  0  0  0  0  0  0  0
    2.2797   -3.2400   -0.3251 H   0  0  0  0  0  0  0  0  0  0  0  0
    2.2827   -4.8880    0.3303 H   0  0  0  0  0  0  0  0  0  0  0  0
    0.3351   -1.3153    0.5316 N   0  0  0  0  0  0  0  0  0  0  0  0
   -0.3268   -0.1184    0.0807 C   0  0  2  0  0  0  0  0  0  0  0  0
   -1.8236   -0.2579    0.3407 C   0  0  0  0  0  0  0  0  0  0  0  0
   -2.3643   -1.3370    0.5741 O   0  0  0  0  0  0  0  0  0  0  0  0
   -0.0048    0.2039   -1.3849 C   0  0  0  0  0  0  0  0  0  0  0  0
    1.4622    0.5677   -1.6258 C   0  0  0  0  0  0  0  0  0  0  0  0
    1.9154    2.0501   -0.6764 S   0  0  0  0  0  0  0  0  0  0  0  0
    0.9341    3.2577   -1.5953 C   0  0  0  0  0  0  0  0  0  0  0  0
    1.2790   -1.2290    0.9021 H   0  0  0  0  0  0  0  0  0  0  0  0
    0.0534    0.6909    0.7159 H   0  0  0  0  0  0  0  0  0  0  0  0
   -0.6436    1.0386   -1.7037 H   0  0  0  0  0  0  0  0  0  0  0  0
   -0.2728   -0.6589   -2.0081 H   0  0  0  0  0  0  0  0  0  0  0  0
    1.6455    0.7781   -2.6837 H   0  0  0  0  0  0  0  0  0  0  0  0
    2.1255   -0.2466   -1.3195 H   0  0  0  0  0  0  0  0  0  0  0  0
    1.0724    4.2530   -1.1659 H   0  0  0  0  0  0  0  0  0  0  0  0
   -0.1246    2.9915   -1.5443 H   0  0  0  0  0  0  0  0  0  0  0  0
    1.2490    3.2729   -2.6415 H   0  0  0  0  0  0  0  0  0  0  0  0
   -2.4879    0.9568    0.2492 N   0  0  0  0  0  0  0  0  0  0  0  0
   -3.9137    1.0802    0.4421 C   0  0  2  0  0  0  0  0  0  0  0  0
   -4.4401    2.0870   -0.5723 C   0  0  0  0  0  0  0  0  0  0  0  0
   -3.7305    2.9402   -1.1008 O   0  0  0  0  0  0  0  0  0  0  0  0
   -4.2445    1.5149    1.8613 C   0  0  0  0  0  0  0  0  0  0  0  0
   -1.9568    1.8058    0.0794 H   0  0  0  0  0  0  0  0  0  0  0  0
   -4.3469    0.0949    0.2382 H   0  0  0  0  0  0  0  0  0  0  0  0
   -3.8188    2.5001    2.0840 H   0  0  0  0  0  0  0  0  0  0  0  0
   -5.3268    1.5803    2.0142 H   0  0  0  0  0  0  0  0  0  0  0  0
   -3.8394    0.8052    2.5907 H   0  0  0  0  0  0  0  0  0  0  0  0
   -5.8045    1.9483   -0.7854 N   0  0  0  0  0  0  0  0  0  0  0  0
   -6.5416    2.7948   -1.6943 C   0  0  0  0  0  0  0  0  0  0  0  0
   -6.3097    1.2010   -0.3185 H   0  0  0  0  0  0  0  0  0  0  0  0
   -6.9559    3.6520   -1.1433 H   0  0  0  0  0  0  0  0  0  0  0  0
   -5.8682    3.1580   -2.4847 H   0  0  0  0  0  0  0  0  0  0  0  0
   -7.3621    2.2192   -2.1475 H   0  0  0  0  0  0  0  0  0  0  0  0
  1  3  1  0  0  0  0
  1  7  1  0  0  0  0
  1  2  2  0  0  0  0
 35 36  1  0  0  0  0
 36 44  1  0  0  0  0
 36 37  2  0  0  0  0
  8  9  1  0  0  0  0
  9 17  1  0  0  0  0
  9 10  2  0  0  0  0
 18 19  1  0  0  0  0
 19 34  1  0  0  0  0
 19 20  2  0  0  0  0
 35 38  1  0  0  0  0
  8 11  1  0  0  0  0
 44 45  1  0  0  0  0
 23 24  1  0  0  0  0
 21 22  1  0  0  0  0
 18 21  1  0  0  0  0
 22 23  1  0  0  0  0
 34 35  1  0  0  0  0
  7  8  1  0  0  0  0
 17 18  1  0  0  0  0
  3  4  1  0  0  0  0
  3  5  1  0  0  0  0
  3  6  1  0  0  0  0
 38 41  1  0  0  0  0
 38 42  1  0  0  0  0
 38 43  1  0  0  0  0
 11 14  1  0  0  0  0
 11 15  1  0  0  0  0
 11 16  1  0  0  0  0
 45 47  1  0  0  0  0
 45 48  1  0  0  0  0
 45 49  1  0  0  0  0
 24 31  1  0  0  0  0
 24 32  1  0  0  0  0
 24 33  1  0  0  0  0
 21 27  1  0  0  0  0
 21 28  1  0  0  0  0
 22 29  1  0  0  0  0
 22 30  1  0  0  0  0
 35 40  1  0  0  0  0
  8 13  1  0  0  0  0
 18 26  1  0  0  0  0
 44 46  1  0  0  0  0
  7 12  1  0  0  0  0
 34 39  1  0  0  0  0
 17 25  1  0  0  0  0
M  END
$$$$

  -OEChem-05262214473D

 49 48  0     1  0  0  0  0  0999 V2000
   -0.0561   -5.3799    2.6949 C   0  0  0  0  0  0  0  0  0  0  0  0
    0.7325   -5.0736    3.5815 O   0  0  0  0  0  0  0  0  0  0  0  0
   -1.0067   -6.5099    2.9135 C   0  0  0  0  0  0  0  0  0  0  0  0
   -0.5910   -7.4777    2.5899 H   0  0  0  0  0  0  0  0  0  0  0  0
   -1.2629   -6.6440    3.9767 H   0  0  0  0  0  0  0  0  0  0  0  0
   -1.9729   -6.4206    2.3918 H   0  0  0  0  0  0  0  0  0  0  0  0
   -0.1735   -4.7694    1.4571 N   0  0  0  0  0  0  0  0  0  0  0  0
    0.6439   -3.6603    1.0409 C   0  0  2  0  0  0  0  0  0  0  0  0
   -0.2788   -2.5625    0.5280 C   0  0  0  0  0  0  0  0  0  0  0  0
   -1.4197   -2.7791    0.1251 O   0  0  0  0  0  0  0  0  0  0  0  0
    1.6395   -4.0779   -0.0301 C   0  0  0  0  0  0  0  0  0  0  0  0
   -0.8741   -5.1235    0.8083 H   0  0  0  0  0  0  0  0  0  0  0  0
    1.1738   -3.3062    1.9318 H   0  0  0  0  0  0  0  0  0  0  0  0
    1.1270   -4.4358   -0.9305 H   0  0  0  0  0  0  0  0  0  0  0  0
    2.2797   -3.2400   -0.3251 H   0  0  0  0  0  0  0  0  0  0  0  0
    2.2827   -4.8880    0.3303 H   0  0  0  0  0  0  0  0  0  0  0  0
    0.3351   -1.3153    0.5316 N   0  0  0  0  0  0  0  0  0  0  0  0
   -0.3268   -0.1184    0.0807 C   0  0  2  0  0  0  0  0  0  0  0  0
   -1.7357   -0.0871    0.6651 C   0  0  0  0  0  0  0  0  0  0  0  0
   -2.1855   -0.9841    1.3752 O   0  0  0  0  0  0  0  0  0  0  0  0
   -0.3140    0.0089   -1.4488 C   0  0  0  0  0  0  0  0  0  0  0  0
    1.0853    0.2044   -2.0371 C   0  0  0  0  0  0  0  0  0  0  0  0
    1.8360    1.7330   -1.4017 S   0  0  0  0  0  0  0  0  0  0  0  0
    0.7611    2.9190   -2.2404 C   0  0  0  0  0  0  0  0  0  0  0  0
    1.2790   -1.2290    0.9021 H   0  0  0  0  0  0  0  0  0  0  0  0
    0.2380    0.7166    0.5130 H   0  0  0  0  0  0  0  0  0  0  0  0
   -0.9490    0.8597   -1.7301 H   0  0  0  0  0  0  0  0  0  0  0  0
   -0.7706   -0.8882   -1.8862 H   0  0  0  0  0  0  0  0  0  0  0  0
    1.0453    0.2788   -3.1279 H   0  0  0  0  0  0  0  0  0  0  0  0
    1.7428   -0.6300   -1.7756 H   0  0  0  0  0  0  0  0  0  0  0  0
    1.0578    3.9381   -1.9804 H   0  0  0  0  0  0  0  0  0  0  0  0
   -0.2760    2.7608   -1.9344 H   0  0  0  0  0  0  0  0  0  0  0  0
    0.8383    2.7893   -3.3226 H   0  0  0  0  0  0  0  0  0  0  0  0
   -2.4411    1.0421    0.2745 N   0  0  0  0  0  0  0  0  0  0  0  0
   -3.8020    1.2910    0.6887 C   0  0  2  0  0  0  0  0  0  0  0  0
   -4.5521    1.8879   -0.4947 C   0  0  0  0  0  0  0  0  0  0  0  0
   -3.9895    2.4607   -1.4256 O   0  0  0  0  0  0  0  0  0  0  0  0
   -3.8532    2.2220    1.8902 C   0  0  0  0  0  0  0  0  0  0  0  0
   -1.9810    1.7481   -0.2925 H   0  0  0  0  0  0  0  0  0  0  0  0
   -4.2374    0.3191    0.9452 H   0  0  0  0  0  0  0  0  0  0  0  0
   -3.4213    3.2009    1.6524 H   0  0  0  0  0  0  0  0  0  0  0  0
   -4.8840    2.3870    2.2206 H   0  0  0  0  0  0  0  0  0  0  0  0
   -3.2882    1.8048    2.7308 H   0  0  0  0  0  0  0  0  0  0  0  0
   -5.9266    1.7437   -0.3679 N   0  0  0  0  0  0  0  0  0  0  0  0
   -6.8568    2.2389   -1.3555 C   0  0  0  0  0  0  0  0  0  0  0  0
   -6.3046    1.2383    0.4279 H   0  0  0  0  0  0  0  0  0  0  0  0
   -7.1774    3.2548   -1.0813 H   0  0  0  0  0  0  0  0  0  0  0  0
   -6.3677    2.2623   -2.3405 H   0  0  0  0  0  0  0  0  0  0  0  0
   -7.7341    1.5765   -1.3974 H   0  0  0  0  0  0  0  0  0  0  0  0
  1  3  1  0  0  0  0
  1  7  1  0  0  0  0
  1  2  2  0  0  0  0
 35 36  1  0  0  0  0
 36 44  1  0  0  0  0
 36 37  2  0  0  0  0
  8  9  1  0  0  0  0
  9 17  1  0  0  0  0
  9 10  2  0  0  0  0
 18 19  1  0  0  0  0
 19 34  1  0  0  0  0
 19 20  2  0  0  0  0
 35 38  1  0  0  0  0
  8 11  1  0  0  0  0
 44 45  1  0  0  0  0
 23 24  1  0  0  0  0
 21 22  1  0  0  0  0
 18 21  1  0  0  0  0
 22 23  1  0  0  0  0
 34 35  1  0  0  0  0
  7  8  1  0  0  0  0
 17 18  1  0  0  0  0
  3  4  1  0  0  0  0
  3  5  1  0  0  0  0
  3  6  1  0  0  0  0
 38 41  1  0  0  0  0
 38 42  1  0  0  0  0
 38 43  1  0  0  0  0
 11 14  1  0  0  0  0
 11 15  1  0  0  0  0
 11 16  1  0  0  0  0
 45 47  1  0  0  0  0
 45 48  1  0  0  0  0
 45 49  1  0  0  0  0
 24 31  1  0  0  0  0
 24 32  1  0  0  0  0
 24 33  1  0  0  0  0
 21 27  1  0  0  0  0
 21 28  1  0  0  0  0
 22 29  1  0  0  0  0
 22 30  1  0  0  0  0
 35 40  1  0  0  0  0
  8 13  1  0  0  0  0
 18 26  1  0  0  0  0
 44 46  1  0  0  0  0
  7 12  1  0  0  0  0
 34 39  1  0  0  0  0
 17 25  1  0  0  0  0
M  END
$$$$

  -OEChem-05262214473D

 49 48  0     1  0  0  0  0  0999 V2000
   -0.0561   -5.3799    2.6949 C   0  0  0  0  0  0  0  0  0  0  0  0
    0.7325   -5.0736    3.5815 O   0  0  0  0  0  0  0  0  0  0  0  0
   -1.0067   -6.5099    2.9135 C   0  0  0  0  0  0  0  0  0  0  0  0
   -0.5910   -7.4777    2.5899 H   0  0  0  0  0  0  0  0  0  0  0  0
   -1.2629   -6.6440    3.9767 H   0  0  0  0  0  0  0  0  0  0  0  0
   -1.9729   -6.4206    2.3918 H   0  0  0  0  0  0  0  0  0  0  0  0
   -0.1735   -4.7694    1.4571 N   0  0  0  0  0  0  0  0  0  0  0  0
    0.6439   -3.6603    1.0409 C   0  0  2  0  0  0  0  0  0  0  0  0
   -0.2788   -2.5625    0.5280 C   0  0  0  0  0  0  0  0  0  0  0  0
   -1.4197   -2.7791    0.1251 O   0  0  0  0  0  0  0  0  0  0  0  0
    1.6395   -4.0779   -0.0301 C   0  0  0  0  0  0  0  0  0  0  0  0
   -0.8741   -5.1235    0.8083 H   0  0  0  0  0  0  0  0  0  0  0  0
    1.1738   -3.3062    1.9318 H   0  0  0  0  0  0  0  0  0  0  0  0
    1.1270   -4.4358   -0.9305 H   0  0  0  0  0  0  0  0  0  0  0  0
    2.2797   -3.2400   -0.3251 H   0  0  0  0  0  0  0  0  0  0  0  0
    2.2827   -4.8880    0.3303 H   0  0  0  0  0  0  0  0  0  0  0  0
    0.3351   -1.3153    0.5316 N   0  0  0  0  0  0  0  0  0  0  0  0
   -0.3268   -0.1184    0.0807 C   0  0  2  0  0  0  0  0  0  0  0  0
   -1.7357   -0.0871    0.6651 C   0  0  0  0  0  0  0  0  0  0  0  0
   -2.0985   -0.8280    1.5766 O   0  0  0  0  0  0  0  0  0  0  0  0
   -0.3140    0.0089   -1.4488 C   0  0  0  0  0  0  0  0  0  0  0  0
    1.0853    0.2044   -2.0371 C   0  0  0  0  0  0  0  0  0  0  0  0
    1.8360    1.7330   -1.4017 S   0  0  0  0  0  0  0  0  0  0  0  0
    0.7611    2.9190   -2.2404 C   0  0  0  0  0  0  0  0  0  0  0  0
    1.2790   -1.2290    0.9021 H   0  0  0  0  0  0  0  0  0  0  0  0
    0.2380    0.7166    0.5130 H   0  0  0  0  0  0  0  0  0  0  0  0
   -0.9490    0.8597   -1.7301 H   0  0  0  0  0  0  0  0  0  0  0  0
   -0.7706   -0.8882   -1.8862 H   0  0  0  0  0  0  0  0  0  0  0  0
    1.0453    0.2788   -3.1279 H   0  0  0  0  0  0  0  0  0  0  0  0
    1.7428   -0.6300   -1.7756 H   0  0  0  0  0  0  0  0  0  0  0  0
    1.0578    3.9381   -1.9804 H   0  0  0  0  0  0  0  0  0  0  0  0
   -0.2760    2.7608   -1.9344 H   0  0  0  0  0  0  0  0  0  0  0  0
    0.8383    2.7893   -3.3226 H   0  0  0  0  0  0  0  0  0  0  0  0
   -2.5476    0.8407    0.0286 N   0  0  0  0  0  0  0  0  0  0  0  0
   -3.9293    1.0462    0.3949 C   0  0  2  0  0  0  0  0  0  0  0  0
   -4.7272    1.2657   -0.8836 C   0  0  0  0  0  0  0  0  0  0  0  0
   -4.2183    1.6516   -1.9340 O   0  0  0  0  0  0  0  0  0  0  0  0
   -4.0812    2.2279    1.3401 C   0  0  0  0  0  0  0  0  0  0  0  0
   -2.1565    1.4323   -0.6985 H   0  0  0  0  0  0  0  0  0  0  0  0
   -4.2672    0.1258    0.8835 H   0  0  0  0  0  0  0  0  0  0  0  0
   -3.7476    3.1592    0.8679 H   0  0  0  0  0  0  0  0  0  0  0  0
   -5.1256    2.3648    1.6394 H   0  0  0  0  0  0  0  0  0  0  0  0
   -3.4832    2.0817    2.2460 H   0  0  0  0  0  0  0  0  0  0  0  0
   -6.0813    1.0214   -0.7022 N   0  0  0  0  0  0  0  0  0  0  0  0
   -7.0497    1.1717   -1.7632 C   0  0  0  0  0  0  0  0  0  0  0  0
   -6.4124    0.6863    0.1977 H   0  0  0  0  0  0  0  0  0  0  0  0
   -7.4718    2.1871   -1.7338 H   0  0  0  0  0  0  0  0  0  0  0  0
   -6.5587    1.0068   -2.7336 H   0  0  0  0  0  0  0  0  0  0  0  0
   -7.8561    0.4355   -1.6304 H   0  0  0  0  0  0  0  0  0  0  0  0
  1  3  1  0  0  0  0
  1  7  1  0  0  0  0
  1  2  2  0  0  0  0
 35 36  1  0  0  0  0
 36 44  1  0  0  0  0
 36 37  2  0  0  0  0
  8  9  1  0  0  0  0
  9 17  1  0  0  0  0
  9 10  2  0  0  0  0
 18 19  1  0  0  0  0
 19 34  1  0  0  0  0
 19 20  2  0  0  0  0
 35 38  1  0  0  0  0
  8 11  1  0  0  0  0
 44 45  1  0  0  0  0
 23 24  1  0  0  0  0
 21 22  1  0  0  0  0
 18 21  1  0  0  0  0
 22 23  1  0  0  0  0
 34 35  1  0  0  0  0
  7  8  1  0  0  0  0
 17 18  1  0  0  0  0
  3  4  1  0  0  0  0
  3  5  1  0  0  0  0
  3  6  1  0  0  0  0
 38 41  1  0  0  0  0
 38 42  1  0  0  0  0
 38 43  1  0  0  0  0
 11 14  1  0  0  0  0
 11 15  1  0  0  0  0
 11 16  1  0  0  0  0
 45 47  1  0  0  0  0
 45 48  1  0  0  0  0
 45 49  1  0  0  0  0
 24 31  1  0  0  0  0
 24 32  1  0  0  0  0
 24 33  1  0  0  0  0
 21 27  1  0  0  0  0
 21 28  1  0  0  0  0
 22 29  1  0  0  0  0
 22 30  1  0  0  0  0
 35 40  1  0  0  0  0
  8 13  1  0  0  0  0
 18 26  1  0  0  0  0
 44 46  1  0  0  0  0
  7 12  1  0  0  0  0
 34 39  1  0  0  0  0
 17 25  1  0  0  0  0
M  END
$$$$

  -OEChem-05262214473D

 49 48  0     1  0  0  0  0  0999 V2000
   -0.0561   -5.3799    2.6949 C   0  0  0  0  0  0  0  0  0  0  0  0
    0.7325   -5.0736    3.5815 O   0  0  0  0  0  0  0  0  0  0  0  0
   -1.0067   -6.5099    2.9135 C   0  0  0  0  0  0  0  0  0  0  0  0
   -0.5910   -7.4777    2.5899 H   0  0  0  0  0  0  0  0  0  0  0  0
   -1.2629   -6.6440    3.9767 H   0  0  0  0  0  0  0  0  0  0  0  0
   -1.9729   -6.4206    2.3918 H   0  0  0  0  0  0  0  0  0  0  0  0
   -0.1735   -4.7694    1.4571 N   0  0  0  0  0  0  0  0  0  0  0  0
    0.6439   -3.6603    1.0409 C   0  0  2  0  0  0  0  0  0  0  0  0
   -0.2788   -2.5625    0.5280 C   0  0  0  0  0  0  0  0  0  0  0  0
   -1.4197   -2.7791    0.1251 O   0  0  0  0  0  0  0  0  0  0  0  0
    1.6395   -4.0779   -0.0301 C   0  0  0  0  0  0  0  0  0  0  0  0
   -0.8741   -5.1235    0.8083 H   0  0  0  0  0  0  0  0  0  0  0  0
    1.1738   -3.3062    1.9318 H   0  0  0  0  0  0  0  0  0  0  0  0
    1.1270   -4.4358   -0.9305 H   0  0  0  0  0  0  0  0  0  0  0  0
    2.2797   -3.2400   -0.3251 H   0  0  0  0  0  0  0  0  0  0  0  0
    2.2827   -4.8880    0.3303 H   0  0  0  0  0  0  0  0  0  0  0  0
    0.3351   -1.3153    0.5316 N   0  0  0  0  0  0  0  0  0  0  0  0
   -0.3268   -0.1184    0.0807 C   0  0  2  0  0  0  0  0  0  0  0  0
   -1.7357   -0.0871    0.6651 C   0  0  0  0  0  0  0  0  0  0  0  0
   -2.0289   -0.6204    1.7333 O   0  0  0  0  0  0  0  0  0  0  0  0
   -0.3140    0.0089   -1.4488 C   0  0  0  0  0  0  0  0  0  0  0  0
    1.0853    0.2044   -2.0371 C   0  0  0  0  0  0  0  0  0  0  0  0
    1.8360    1.7330   -1.4017 S   0  0  0  0  0  0  0  0  0  0  0  0
    0.7611    2.9190   -2.2404 C   0  0  0  0  0  0  0  0  0  0  0  0
    1.2790   -1.2290    0.9021 H   0  0  0  0  0  0  0  0  0  0  0  0
    0.2380    0.7166    0.5130 H   0  0  0  0  0  0  0  0  0  0  0  0
   -0.9490    0.8597   -1.7301 H   0  0  0  0  0  0  0  0  0  0  0  0
   -0.7706   -0.8882   -1.8862 H   0  0  0  0  0  0  0  0  0  0  0  0
    1.0453    0.2788   -3.1279 H   0  0  0  0  0  0  0  0  0  0  0  0
    1.7428   -0.6300   -1.7756 H   0  0  0  0  0  0  0  0  0  0  0  0
    1.0578    3.9381   -1.9804 H   0  0  0  0  0  0  0  0  0  0  0  0
   -0.2760    2.7608   -1.9344 H   0  0  0  0  0  0  0  0  0  0  0  0
    0.8383    2.7893   -3.3226 H   0  0  0  0  0  0  0  0  0  0  0  0
   -2.6319    0.5768   -0.1603 N   0  0  0  0  0  0  0  0  0  0  0  0
   -4.0296    0.7269    0.1703 C   0  0  2  0  0  0  0  0  0  0  0  0
   -4.8368    0.5544   -1.1096 C   0  0  0  0  0  0  0  0  0  0  0  0
   -4.3619    0.7259   -2.2304 O   0  0  0  0  0  0  0  0  0  0  0  0
   -4.3050    2.0795    0.8085 C   0  0  0  0  0  0  0  0  0  0  0  0
   -2.2968    1.0128   -1.0143 H   0  0  0  0  0  0  0  0  0  0  0  0
   -4.2773   -0.0785    0.8703 H   0  0  0  0  0  0  0  0  0  0  0  0
   -4.0628    2.8989    0.1219 H   0  0  0  0  0  0  0  0  0  0  0  0
   -5.3598    2.1805    1.0846 H   0  0  0  0  0  0  0  0  0  0  0  0
   -3.7015    2.2140    1.7126 H   0  0  0  0  0  0  0  0  0  0  0  0
   -6.1609    0.2284   -0.8516 N   0  0  0  0  0  0  0  0  0  0  0  0
   -7.1323    0.0244   -1.9008 C   0  0  0  0  0  0  0  0  0  0  0  0
   -6.4630    0.0875    0.1079 H   0  0  0  0  0  0  0  0  0  0  0  0
   -7.6538    0.9706   -2.1074 H   0  0  0  0  0  0  0  0  0  0  0  0
   -6.6208   -0.3188   -2.8122 H   0  0  0  0  0  0  0  0  0  0  0  0
   -7.8621   -0.7345   -1.5821 H   0  0  0  0  0  0  0  0  0  0  0  0
  1  3  1  0  0  0  0
  1  7  1  0  0  0  0
  1  2  2  0  0  0  0
 35 36  1  0  0  0  0
 36 44  1  0  0  0  0
 36 37  2  0  0  0  0
  8  9  1  0  0  0  0
  9 17  1  0  0  0  0
  9 10  2  0  0  0  0
 18 19  1  0  0  0  0
 19 34  1  0  0  0  0
 19 20  2  0  0  0  0
 35 38  1  0  0  0  0
  8 11  1  0  0  0  0
 44 45  1  0  0  0  0
 23 24  1  0  0  0  0
 21 22  1  0  0  0  0
 18 21  1  0  0  0  0
 22 23  1  0  0  0  0
 34 35  1  0  0  0  0
  7  8  1  0  0  0  0
 17 18  1  0  0  0  0
  3  4  1  0  0  0  0
  3  5  1  0  0  0  0
  3  6  1  0  0  0  0
 38 41  1  0  0  0  0
 38 42  1  0  0  0  0
 38 43  1  0  0  0  0
 11 14  1  0  0  0  0
 11 15  1  0  0  0  0
 11 16  1  0  0  0  0
 45 47  1  0  0  0  0
 45 48  1  0  0  0  0
 45 49  1  0  0  0  0
 24 31  1  0  0  0  0
 24 32  1  0  0  0  0
 24 33  1  0  0  0  0
 21 27  1  0  0  0  0
 21 28  1  0  0  0  0
 22 29  1  0  0  0  0
 22 30  1  0  0  0  0
 35 40  1  0  0  0  0
  8 13  1  0  0  0  0
 18 26  1  0  0  0  0
 44 46  1  0  0  0  0
  7 12  1  0  0  0  0
 34 39  1  0  0  0  0
 17 25  1  0  0  0  0
M  END
$$$$

  -OEChem-05262214473D

 49 48  0     1  0  0  0  0  0999 V2000
   -0.0561   -5.3799    2.6949 C   0  0  0  0  0  0  0  0  0  0  0  0
    0.7325   -5.0736    3.5815 O   0  0  0  0  0  0  0  0  0  0  0  0
   -1.0067   -6.5099    2.9135 C   0  0  0  0  0  0  0  0  0  0  0  0
   -0.5910   -7.4777    2.5899 H   0  0  0  0  0  0  0  0  0  0  0  0
   -1.2629   -6.6440    3.9767 H   0  0  0  0  0  0  0  0  0  0  0  0
   -1.9729   -6.4206    2.3918 H   0  0  0  0  0  0  0  0  0  0  0  0
   -0.1735   -4.7694    1.4571 N   0  0  0  0  0  0  0  0  0  0  0  0
    0.6439   -3.6603    1.0409 C   0  0  2  0  0  0  0  0  0  0  0  0
   -0.2788   -2.5625    0.5280 C   0  0  0  0  0  0  0  0  0  0  0  0
   -1.4197   -2.7791    0.1251 O   0  0  0  0  0  0  0  0  0  0  0  0
    1.6395   -4.0779   -0.0301 C   0  0  0  0  0  0  0  0  0  0  0  0
   -0.8741   -5.1235    0.8083 H   0  0  0  0  0  0  0  0  0  0  0  0
    1.1738   -3.3062    1.9318 H   0  0  0  0  0  0  0  0  0  0  0  0
    1.1270   -4.4358   -0.9305 H   0  0  0  0  0  0  0  0  0  0  0  0
    2.2797   -3.2400   -0.3251 H   0  0  0  0  0  0  0  0  0  0  0  0
    2.2827   -4.8880    0.3303 H   0  0  0  0  0  0  0  0  0  0  0  0
    0.3351   -1.3153    0.5316 N   0  0  0  0  0  0  0  0  0  0  0  0
   -0.3268   -0.1184    0.0807 C   0  0  2  0  0  0  0  0  0  0  0  0
   -1.7357   -0.0871    0.6651 C   0  0  0  0  0  0  0  0  0  0  0  0
   -1.9814   -0.3755    1.8346 O   0  0  0  0  0  0  0  0  0  0  0  0
   -0.3140    0.0089   -1.4488 C   0  0  0  0  0  0  0  0  0  0  0  0
    1.0853    0.2044   -2.0371 C   0  0  0  0  0  0  0  0  0  0  0  0
    1.8360    1.7330   -1.4017 S   0  0  0  0  0  0  0  0  0  0  0  0
    0.7611    2.9190   -2.2404 C   0  0  0  0  0  0  0  0  0  0  0  0
    1.2790   -1.2290    0.9021 H   0  0  0  0  0  0  0  0  0  0  0  0
    0.2380    0.7166    0.5130 H   0  0  0  0  0  0  0  0  0  0  0  0
   -0.9490    0.8597   -1.7301 H   0  0  0  0  0  0  0  0  0  0  0  0
   -0.7706   -0.8882   -1.8862 H   0  0  0  0  0  0  0  0  0  0  0  0
    1.0453    0.2788   -3.1279 H   0  0  0  0  0  0  0  0  0  0  0  0
    1.7428   -0.6300   -1.7756 H   0  0  0  0  0  0  0  0  0  0  0  0
    1.0578    3.9381   -1.9804 H   0  0  0  0  0  0  0  0  0  0  0  0
   -0.2760    2.7608   -1.9344 H   0  0  0  0  0  0  0  0  0  0  0  0
    0.8383    2.7893   -3.3226 H   0  0  0  0  0  0  0  0  0  0  0  0
   -2.6880    0.2684   -0.2792 N   0  0  0  0  0  0  0  0  0  0  0  0
   -4.0960    0.3548    0.0302 C   0  0  2  0  0  0  0  0  0  0  0  0
   -4.8733   -0.1976   -1.1573 C   0  0  0  0  0  0  0  0  0  0  0  0
   -4.4103   -0.2533   -2.2947 O   0  0  0  0  0  0  0  0  0  0  0  0
   -4.5093    1.7869    0.3317 C   0  0  0  0  0  0  0  0  0  0  0  0
   -2.3924    0.5182   -1.2183 H   0  0  0  0  0  0  0  0  0  0  0  0
   -4.2667   -0.2800    0.9064 H   0  0  0  0  0  0  0  0  0  0  0  0
   -4.3455    2.4380   -0.5347 H   0  0  0  0  0  0  0  0  0  0  0  0
   -5.5708    1.8467    0.5940 H   0  0  0  0  0  0  0  0  0  0  0  0
   -3.9283    2.1927    1.1669 H   0  0  0  0  0  0  0  0  0  0  0  0
   -6.1600   -0.5811   -0.8060 N   0  0  0  0  0  0  0  0  0  0  0  0
   -7.0990   -1.1250   -1.7591 C   0  0  0  0  0  0  0  0  0  0  0  0
   -6.4529   -0.5174    0.1645 H   0  0  0  0  0  0  0  0  0  0  0  0
   -7.7110   -0.3118   -2.1765 H   0  0  0  0  0  0  0  0  0  0  0  0
   -6.5497   -1.6241   -2.5709 H   0  0  0  0  0  0  0  0  0  0  0  0
   -7.7516   -1.8536   -1.2558 H   0  0  0  0  0  0  0  0  0  0  0  0
  1  3  1  0  0  0  0
  1  7  1  0  0  0  0
  1  2  2  0  0  0  0
 35 36  1  0  0  0  0
 36 44  1  0  0  0  0
 36 37  2  0  0  0  0
  8  9  1  0  0  0  0
  9 17  1  0  0  0  0
  9 10  2  0  0  0  0
 18 19  1  0  0  0  0
 19 34  1  0  0  0  0
 19 20  2  0  0  0  0
 35 38  1  0  0  0  0
  8 11  1  0  0  0  0
 44 45  1  0  0  0  0
 23 24  1  0  0  0  0
 21 22  1  0  0  0  0
 18 21  1  0  0  0  0
 22 23  1  0  0  0  0
 34 35  1  0  0  0  0
  7  8  1  0  0  0  0
 17 18  1  0  0  0  0
  3  4  1  0  0  0  0
  3  5  1  0  0  0  0
  3  6  1  0  0  0  0
 38 41  1  0  0  0  0
 38 42  1  0  0  0  0
 38 43  1  0  0  0  0
 11 14  1  0  0  0  0
 11 15  1  0  0  0  0
 11 16  1  0  0  0  0
 45 47  1  0  0  0  0
 45 48  1  0  0  0  0
 45 49  1  0  0  0  0
 24 31  1  0  0  0  0
 24 32  1  0  0  0  0
 24 33  1  0  0  0  0
 21 27  1  0  0  0  0
 21 28  1  0  0  0  0
 22 29  1  0  0  0  0
 22 30  1  0  0  0  0
 35 40  1  0  0  0  0
  8 13  1  0  0  0  0
 18 26  1  0  0  0  0
 44 46  1  0  0  0  0
  7 12  1  0  0  0  0
 34 39  1  0  0  0  0
 17 25  1  0  0  0  0
M  END
$$$$

  -OEChem-05262214473D

 49 48  0     1  0  0  0  0  0999 V2000
   -0.0561   -5.3799    2.6949 C   0  0  0  0  0  0  0  0  0  0  0  0
    0.7325   -5.0736    3.5815 O   0  0  0  0  0  0  0  0  0  0  0  0
   -1.0067   -6.5099    2.9135 C   0  0  0  0  0  0  0  0  0  0  0  0
   -0.5910   -7.4777    2.5899 H   0  0  0  0  0  0  0  0  0  0  0  0
   -1.2629   -6.6440    3.9767 H   0  0  0  0  0  0  0  0  0  0  0  0
   -1.9729   -6.4206    2.3918 H   0  0  0  0  0  0  0  0  0  0  0  0
   -0.1735   -4.7694    1.4571 N   0  0  0  0  0  0  0  0  0  0  0  0
    0.6439   -3.6603    1.0409 C   0  0  2  0  0  0  0  0  0  0  0  0
   -0.2788   -2.5625    0.5280 C   0  0  0  0  0  0  0  0  0  0  0  0
   -1.4197   -2.7791    0.1251 O   0  0  0  0  0  0  0  0  0  0  0  0
    1.6395   -4.0779   -0.0301 C   0  0  0  0  0  0  0  0  0  0  0  0
   -0.8741   -5.1235    0.8083 H   0  0  0  0  0  0  0  0  0  0  0  0
    1.1738   -3.3062    1.9318 H   0  0  0  0  0  0  0  0  0  0  0  0
    1.1270   -4.4358   -0.9305 H   0  0  0  0  0  0  0  0  0  0  0  0
    2.2797   -3.2400   -0.3251 H   0  0  0  0  0  0  0  0  0  0  0  0
    2.2827   -4.8880    0.3303 H   0  0  0  0  0  0  0  0  0  0  0  0
    0.3351   -1.3153    0.5316 N   0  0  0  0  0  0  0  0  0  0  0  0
   -0.3268   -0.1184    0.0807 C   0  0  2  0  0  0  0  0  0  0  0  0
   -1.7357   -0.0871    0.6651 C   0  0  0  0  0  0  0  0  0  0  0  0
   -1.9592   -0.1100    1.8737 O   0  0  0  0  0  0  0  0  0  0  0  0
   -0.3140    0.0089   -1.4488 C   0  0  0  0  0  0  0  0  0  0  0  0
    1.0853    0.2044   -2.0371 C   0  0  0  0  0  0  0  0  0  0  0  0
    1.8360    1.7330   -1.4017 S   0  0  0  0  0  0  0  0  0  0  0  0
    0.7611    2.9190   -2.2404 C   0  0  0  0  0  0  0  0  0  0  0  0
    1.2790   -1.2290    0.9021 H   0  0  0  0  0  0  0  0  0  0  0  0
    0.2380    0.7166    0.5130 H   0  0  0  0  0  0  0  0  0  0  0  0
   -0.9490    0.8597   -1.7301 H   0  0  0  0  0  0  0  0  0  0  0  0
   -0.7706   -0.8882   -1.8862 H   0  0  0  0  0  0  0  0  0  0  0  0
    1.0453    0.2788   -3.1279 H   0  0  0  0  0  0  0  0  0  0  0  0
    1.7428   -0.6300   -1.7756 H   0  0  0  0  0  0  0  0  0  0  0  0
    1.0578    3.9381   -1.9804 H   0  0  0  0  0  0  0  0  0  0  0  0
   -0.2760    2.7608   -1.9344 H   0  0  0  0  0  0  0  0  0  0  0  0
    0.8383    2.7893   -3.3226 H   0  0  0  0  0  0  0  0  0  0  0  0
   -2.7124   -0.0635   -0.3201 N   0  0  0  0  0  0  0  0  0  0  0  0
   -4.1239   -0.0446   -0.0158 C   0  0  2  0  0  0  0  0  0  0  0  0
   -4.8342   -0.9389   -1.0234 C   0  0  0  0  0  0  0  0  0  0  0  0
   -4.3604   -1.2193   -2.1225 O   0  0  0  0  0  0  0  0  0  0  0  0
   -4.6802    1.3701   -0.0579 C   0  0  0  0  0  0  0  0  0  0  0  0
   -2.4368   -0.0178   -1.2967 H   0  0  0  0  0  0  0  0  0  0  0  0
   -4.2364   -0.4650    0.9895 H   0  0  0  0  0  0  0  0  0  0  0  0
   -4.5763    1.8079   -1.0574 H   0  0  0  0  0  0  0  0  0  0  0  0
   -5.7440    1.3860    0.2010 H   0  0  0  0  0  0  0  0  0  0  0  0
   -4.1482    2.0191    0.6461 H   0  0  0  0  0  0  0  0  0  0  0  0
   -6.0786   -1.3521   -0.5684 N   0  0  0  0  0  0  0  0  0  0  0  0
   -6.9522   -2.1980   -1.3476 C   0  0  0  0  0  0  0  0  0  0  0  0
   -6.3830   -1.0872    0.3638 H   0  0  0  0  0  0  0  0  0  0  0  0
   -7.6395   -1.5727   -1.9364 H   0  0  0  0  0  0  0  0  0  0  0  0
   -6.3504   -2.8203   -2.0262 H   0  0  0  0  0  0  0  0  0  0  0  0
   -7.5322   -2.8456   -0.6737 H   0  0  0  0  0  0  0  0  0  0  0  0
  1  3  1  0  0  0  0
  1  7  1  0  0  0  0
  1  2  2  0  0  0  0
 35 36  1  0  0  0  0
 36 44  1  0  0  0  0
 36 37  2  0  0  0  0
  8  9  1  0  0  0  0
  9 17  1  0  0  0  0
  9 10  2  0  0  0  0
 18 19  1  0  0  0  0
 19 34  1  0  0  0  0
 19 20  2  0  0  0  0
 35 38  1  0  0  0  0
  8 11  1  0  0  0  0
 44 45  1  0  0  0  0
 23 24  1  0  0  0  0
 21 22  1  0  0  0  0
 18 21  1  0  0  0  0
 22 23  1  0  0  0  0
 34 35  1  0  0  0  0
  7  8  1  0  0  0  0
 17 18  1  0  0  0  0
  3  4  1  0  0  0  0
  3  5  1  0  0  0  0
  3  6  1  0  0  0  0
 38 41  1  0  0  0  0
 38 42  1  0  0  0  0
 38 43  1  0  0  0  0
 11 14  1  0  0  0  0
 11 15  1  0  0  0  0
 11 16  1  0  0  0  0
 45 47  1  0  0  0  0
 45 48  1  0  0  0  0
 45 49  1  0  0  0  0
 24 31  1  0  0  0  0
 24 32  1  0  0  0  0
 24 33  1  0  0  0  0
 21 27  1  0  0  0  0
 21 28  1  0  0  0  0
 22 29  1  0  0  0  0
 22 30  1  0  0  0  0
 35 40  1  0  0  0  0
  8 13  1  0  0  0  0
 18 26  1  0  0  0  0
 44 46  1  0  0  0  0
  7 12  1  0  0  0  0
 34 39  1  0  0  0  0
 17 25  1  0  0  0  0
M  END
$$$$

  -OEChem-05262214473D

 49 48  0     1  0  0  0  0  0999 V2000
   -0.0561   -5.3799    2.6949 C   0  0  0  0  0  0  0  0  0  0  0  0
    0.7325   -5.0736    3.5815 O   0  0  0  0  0  0  0  0  0  0  0  0
   -1.0067   -6.5099    2.9135 C   0  0  0  0  0  0  0  0  0  0  0  0
   -0.5910   -7.4777    2.5899 H   0  0  0  0  0  0  0  0  0  0  0  0
   -1.2629   -6.6440    3.9767 H   0  0  0  0  0  0  0  0  0  0  0  0
   -1.9729   -6.4206    2.3918 H   0  0  0  0  0  0  0  0  0  0  0  0
   -0.1735   -4.7694    1.4571 N   0  0  0  0  0  0  0  0  0  0  0  0
    0.6439   -3.6603    1.0409 C   0  0  2  0  0  0  0  0  0  0  0  0
   -0.2788   -2.5625    0.5280 C   0  0  0  0  0  0  0  0  0  0  0  0
   -1.4197   -2.7791    0.1251 O   0  0  0  0  0  0  0  0  0  0  0  0
    1.6395   -4.0779   -0.0301 C   0  0  0  0  0  0  0  0  0  0  0  0
   -0.8741   -5.1235    0.8083 H   0  0  0  0  0  0  0  0  0  0  0  0
    1.1738   -3.3062    1.9318 H   0  0  0  0  0  0  0  0  0  0  0  0
    1.1270   -4.4358   -0.9305 H   0  0  0  0  0  0  0  0  0  0  0  0
    2.2797   -3.2400   -0.3251 H   0  0  0  0  0  0  0  0  0  0  0  0
    2.2827   -4.8880    0.3303 H   0  0  0  0  0  0  0  0  0  0  0  0
    0.3351   -1.3153    0.5316 N   0  0  0  0  0  0  0  0  0  0  0  0
   -0.3268   -0.1184    0.0807 C   0  0  2  0  0  0  0  0  0  0  0  0
   -1.7357   -0.0871    0.6651 C   0  0  0  0  0  0  0  0  0  0  0  0
   -1.9640    0.1579    1.8480 O   0  0  0  0  0  0  0  0  0  0  0  0
   -0.3140    0.0089   -1.4488 C   0  0  0  0  0  0  0  0  0  0  0  0
    1.0853    0.2044   -2.0371 C   0  0  0  0  0  0  0  0  0  0  0  0
    1.8360    1.7330   -1.4017 S   0  0  0  0  0  0  0  0  0  0  0  0
    0.7611    2.9190   -2.2404 C   0  0  0  0  0  0  0  0  0  0  0  0
    1.2790   -1.2290    0.9021 H   0  0  0  0  0  0  0  0  0  0  0  0
    0.2380    0.7166    0.5130 H   0  0  0  0  0  0  0  0  0  0  0  0
   -0.9490    0.8597   -1.7301 H   0  0  0  0  0  0  0  0  0  0  0  0
   -0.7706   -0.8882   -1.8862 H   0  0  0  0  0  0  0  0  0  0  0  0
    1.0453    0.2788   -3.1279 H   0  0  0  0  0  0  0  0  0  0  0  0
    1.7428   -0.6300   -1.7756 H   0  0  0  0  0  0  0  0  0  0  0  0
    1.0578    3.9381   -1.9804 H   0  0  0  0  0  0  0  0  0  0  0  0
   -0.2760    2.7608   -1.9344 H   0  0  0  0  0  0  0  0  0  0  0  0
    0.8383    2.7893   -3.3226 H   0  0  0  0  0  0  0  0  0  0  0  0
   -2.7032   -0.3963   -0.2801 N   0  0  0  0  0  0  0  0  0  0  0  0
   -4.1116   -0.4443    0.0353 C   0  0  2  0  0  0  0  0  0  0  0  0
   -4.7223   -1.6192   -0.7171 C   0  0  0  0  0  0  0  0  0  0  0  0
   -4.2155   -2.1063   -1.7255 O   0  0  0  0  0  0  0  0  0  0  0  0
   -4.8059    0.8575   -0.3336 C   0  0  0  0  0  0  0  0  0  0  0  0
   -2.4270   -0.5587   -1.2440 H   0  0  0  0  0  0  0  0  0  0  0  0
   -4.1884   -0.6209    1.1137 H   0  0  0  0  0  0  0  0  0  0  0  0
   -4.7395    1.0514   -1.4104 H   0  0  0  0  0  0  0  0  0  0  0  0
   -5.8678    0.8300   -0.0676 H   0  0  0  0  0  0  0  0  0  0  0  0
   -4.3461    1.7052    0.1857 H   0  0  0  0  0  0  0  0  0  0  0  0
   -5.9222   -2.0319   -0.1551 N   0  0  0  0  0  0  0  0  0  0  0  0
   -6.7019   -3.1215   -0.6945 C   0  0  0  0  0  0  0  0  0  0  0  0
   -6.2578   -1.5830    0.6920 H   0  0  0  0  0  0  0  0  0  0  0  0
   -7.4441   -2.7261   -1.4036 H   0  0  0  0  0  0  0  0  0  0  0  0
   -6.0363   -3.8257   -1.2153 H   0  0  0  0  0  0  0  0  0  0  0  0
   -7.2188   -3.6430    0.1245 H   0  0  0  0  0  0  0  0  0  0  0  0
  1  3  1  0  0  0  0
  1  7  1  0  0  0  0
  1  2  2  0  0  0  0
 35 36  1  0  0  0  0
 36 44  1  0  0  0  0
 36 37  2  0  0  0  0
  8  9  1  0  0  0  0
  9 17  1  0  0  0  0
  9 10  2  0  0  0  0
 18 19  1  0  0  0  0
 19 34  1  0  0  0  0
 19 20  2  0  0  0  0
 35 38  1  0  0  0  0
  8 11  1  0  0  0  0
 44 45  1  0  0  0  0
 23 24  1  0  0  0  0
 21 22  1  0  0  0  0
 18 21  1  0  0  0  0
 22 23  1  0  0  0  0
 34 35  1  0  0  0  0
  7  8  1  0  0  0  0
 17 18  1  0  0  0  0
  3  4  1  0  0  0  0
  3  5  1  0  0  0  0
  3  6  1  0  0  0  0
 38 41  1  0  0  0  0
 38 42  1  0  0  0  0
 38 43  1  0  0  0  0
 11 14  1  0  0  0  0
 11 15  1  0  0  0  0
 11 16  1  0  0  0  0
 45 47  1  0  0  0  0
 45 48  1  0  0  0  0
 45 49  1  0  0  0  0
 24 31  1  0  0  0  0
 24 32  1  0  0  0  0
 24 33  1  0  0  0  0
 21 27  1  0  0  0  0
 21 28  1  0  0  0  0
 22 29  1  0  0  0  0
 22 30  1  0  0  0  0
 35 40  1  0  0  0  0
  8 13  1  0  0  0  0
 18 26  1  0  0  0  0
 44 46  1  0  0  0  0
  7 12  1  0  0  0  0
 34 39  1  0  0  0  0
 17 25  1  0  0  0  0
M  END
$$$$

  -OEChem-05262214473D

 49 48  0     1  0  0  0  0  0999 V2000
   -0.0561   -5.3799    2.6949 C   0  0  0  0  0  0  0  0  0  0  0  0
    0.7325   -5.0736    3.5815 O   0  0  0  0  0  0  0  0  0  0  0  0
   -1.0067   -6.5099    2.9135 C   0  0  0  0  0  0  0  0  0  0  0  0
   -0.5910   -7.4777    2.5899 H   0  0  0  0  0  0  0  0  0  0  0  0
   -1.2629   -6.6440    3.9767 H   0  0  0  0  0  0  0  0  0  0  0  0
   -1.9729   -6.4206    2.3918 H   0  0  0  0  0  0  0  0  0  0  0  0
   -0.1735   -4.7694    1.4571 N   0  0  0  0  0  0  0  0  0  0  0  0
    0.6439   -3.6603    1.0409 C   0  0  2  0  0  0  0  0  0  0  0  0
   -0.2788   -2.5625    0.5280 C   0  0  0  0  0  0  0  0  0  0  0  0
   -1.4197   -2.7791    0.1251 O   0  0  0  0  0  0  0  0  0  0  0  0
    1.6395   -4.0779   -0.0301 C   0  0  0  0  0  0  0  0  0  0  0  0
   -0.8741   -5.1235    0.8083 H   0  0  0  0  0  0  0  0  0  0  0  0
    1.1738   -3.3062    1.9318 H   0  0  0  0  0  0  0  0  0  0  0  0
    1.1270   -4.4358   -0.9305 H   0  0  0  0  0  0  0  0  0  0  0  0
    2.2797   -3.2400   -0.3251 H   0  0  0  0  0  0  0  0  0  0  0  0
    2.2827   -4.8880    0.3303 H   0  0  0  0  0  0  0  0  0  0  0  0
    0.3351   -1.3153    0.5316 N   0  0  0  0  0  0  0  0  0  0  0  0
   -0.3268   -0.1184    0.0807 C   0  0  2  0  0  0  0  0  0  0  0  0
   -1.7357   -0.0871    0.6651 C   0  0  0  0  0  0  0  0  0  0  0  0
   -1.9953    0.4101    1.7591 O   0  0  0  0  0  0  0  0  0  0  0  0
   -0.3140    0.0089   -1.4488 C   0  0  0  0  0  0  0  0  0  0  0  0
    1.0853    0.2044   -2.0371 C   0  0  0  0  0  0  0  0  0  0  0  0
    1.8360    1.7330   -1.4017 S   0  0  0  0  0  0  0  0  0  0  0  0
    0.7611    2.9190   -2.2404 C   0  0  0  0  0  0  0  0  0  0  0  0
    1.2790   -1.2290    0.9021 H   0  0  0  0  0  0  0  0  0  0  0  0
    0.2380    0.7166    0.5130 H   0  0  0  0  0  0  0  0  0  0  0  0
   -0.9490    0.8597   -1.7301 H   0  0  0  0  0  0  0  0  0  0  0  0
   -0.7706   -0.8882   -1.8862 H   0  0  0  0  0  0  0  0  0  0  0  0
    1.0453    0.2788   -3.1279 H   0  0  0  0  0  0  0  0  0  0  0  0
    1.7428   -0.6300   -1.7756 H   0  0  0  0  0  0  0  0  0  0  0  0
    1.0578    3.9381   -1.9804 H   0  0  0  0  0  0  0  0  0  0  0  0
   -0.2760    2.7608   -1.9344 H   0  0  0  0  0  0  0  0  0  0  0  0
    0.8383    2.7893   -3.3226 H   0  0  0  0  0  0  0  0  0  0  0  0
   -2.6611   -0.7072   -0.1620 N   0  0  0  0  0  0  0  0  0  0  0  0
   -4.0598   -0.8168    0.1802 C   0  0  2  0  0  0  0  0  0  0  0  0
   -4.5451   -2.1919   -0.2593 C   0  0  0  0  0  0  0  0  0  0  0  0
   -3.9854   -2.8538   -1.1309 O   0  0  0  0  0  0  0  0  0  0  0  0
   -4.8781    0.2839   -0.4767 C   0  0  0  0  0  0  0  0  0  0  0  0
   -2.3636   -1.0675   -1.0639 H   0  0  0  0  0  0  0  0  0  0  0  0
   -4.1258   -0.7369    1.2707 H   0  0  0  0  0  0  0  0  0  0  0  0
   -4.8241    0.2201   -1.5697 H   0  0  0  0  0  0  0  0  0  0  0  0
   -5.9337    0.2164   -0.1935 H   0  0  0  0  0  0  0  0  0  0  0  0
   -4.5087    1.2723   -0.1829 H   0  0  0  0  0  0  0  0  0  0  0  0
   -5.7016   -2.5743    0.4058 N   0  0  0  0  0  0  0  0  0  0  0  0
   -6.3650   -3.8327    0.1557 C   0  0  0  0  0  0  0  0  0  0  0  0
   -6.0860   -1.9710    1.1269 H   0  0  0  0  0  0  0  0  0  0  0  0
   -7.1382   -3.6935   -0.6142 H   0  0  0  0  0  0  0  0  0  0  0  0
   -5.6290   -4.5720   -0.1933 H   0  0  0  0  0  0  0  0  0  0  0  0
   -6.8328   -4.1913    1.0844 H   0  0  0  0  0  0  0  0  0  0  0  0
  1  3  1  0  0  0  0
  1  7  1  0  0  0  0
  1  2  2  0  0  0  0
 35 36  1  0  0  0  0
 36 44  1  0  0  0  0
 36 37  2  0  0  0  0
  8  9  1  0  0  0  0
  9 17  1  0  0  0  0
  9 10  2  0  0  0  0
 18 19  1  0  0  0  0
 19 34  1  0  0  0  0
 19 20  2  0  0  0  0
 35 38  1  0  0  0  0
  8 11  1  0  0  0  0
 44 45  1  0  0  0  0
 23 24  1  0  0  0  0
 21 22  1  0  0  0  0
 18 21  1  0  0  0  0
 22 23  1  0  0  0  0
 34 35  1  0  0  0  0
  7  8  1  0  0  0  0
 17 18  1  0  0  0  0
  3  4  1  0  0  0  0
  3  5  1  0  0  0  0
  3  6  1  0  0  0  0
 38 41  1  0  0  0  0
 38 42  1  0  0  0  0
 38 43  1  0  0  0  0
 11 14  1  0  0  0  0
 11 15  1  0  0  0  0
 11 16  1  0  0  0  0
 45 47  1  0  0  0  0
 45 48  1  0  0  0  0
 45 49  1  0  0  0  0
 24 31  1  0  0  0  0
 24 32  1  0  0  0  0
 24 33  1  0  0  0  0
 21 27  1  0  0  0  0
 21 28  1  0  0  0  0
 22 29  1  0  0  0  0
 22 30  1  0  0  0  0
 35 40  1  0  0  0  0
  8 13  1  0  0  0  0
 18 26  1  0  0  0  0
 44 46  1  0  0  0  0
  7 12  1  0  0  0  0
 34 39  1  0  0  0  0
 17 25  1  0  0  0  0
M  END
$$$$

  -OEChem-05262214473D

 49 48  0     1  0  0  0  0  0999 V2000
   -0.0561   -5.3799    2.6949 C   0  0  0  0  0  0  0  0  0  0  0  0
    0.7325   -5.0736    3.5815 O   0  0  0  0  0  0  0  0  0  0  0  0
   -1.0067   -6.5099    2.9135 C   0  0  0  0  0  0  0  0  0  0  0  0
   -0.5910   -7.4777    2.5899 H   0  0  0  0  0  0  0  0  0  0  0  0
   -1.2629   -6.6440    3.9767 H   0  0  0  0  0  0  0  0  0  0  0  0
   -1.9729   -6.4206    2.3918 H   0  0  0  0  0  0  0  0  0  0  0  0
   -0.1735   -4.7694    1.4571 N   0  0  0  0  0  0  0  0  0  0  0  0
    0.6439   -3.6603    1.0409 C   0  0  2  0  0  0  0  0  0  0  0  0
   -0.2788   -2.5625    0.5280 C   0  0  0  0  0  0  0  0  0  0  0  0
   -1.4197   -2.7791    0.1251 O   0  0  0  0  0  0  0  0  0  0  0  0
    1.6395   -4.0779   -0.0301 C   0  0  0  0  0  0  0  0  0  0  0  0
   -0.8741   -5.1235    0.8083 H   0  0  0  0  0  0  0  0  0  0  0  0
    1.1738   -3.3062    1.9318 H   0  0  0  0  0  0  0  0  0  0  0  0
    1.1270   -4.4358   -0.9305 H   0  0  0  0  0  0  0  0  0  0  0  0
    2.2797   -3.2400   -0.3251 H   0  0  0  0  0  0  0  0  0  0  0  0
    2.2827   -4.8880    0.3303 H   0  0  0  0  0  0  0  0  0  0  0  0
    0.3351   -1.3153    0.5316 N   0  0  0  0  0  0  0  0  0  0  0  0
   -0.3268   -0.1184    0.0807 C   0  0  2  0  0  0  0  0  0  0  0  0
   -1.7357   -0.0871    0.6651 C   0  0  0  0  0  0  0  0  0  0  0  0
   -2.0509    0.6294    1.6131 O   0  0  0  0  0  0  0  0  0  0  0  0
   -0.3140    0.0089   -1.4488 C   0  0  0  0  0  0  0  0  0  0  0  0
    1.0853    0.2044   -2.0371 C   0  0  0  0  0  0  0  0  0  0  0  0
    1.8360    1.7330   -1.4017 S   0  0  0  0  0  0  0  0  0  0  0  0
    0.7611    2.9190   -2.2404 C   0  0  0  0  0  0  0  0  0  0  0  0
    1.2790   -1.2290    0.9021 H   0  0  0  0  0  0  0  0  0  0  0  0
    0.2380    0.7166    0.5130 H   0  0  0  0  0  0  0  0  0  0  0  0
   -0.9490    0.8597   -1.7301 H   0  0  0  0  0  0  0  0  0  0  0  0
   -0.7706   -0.8882   -1.8862 H   0  0  0  0  0  0  0  0  0  0  0  0
    1.0453    0.2788   -3.1279 H   0  0  0  0  0  0  0  0  0  0  0  0
    1.7428   -0.6300   -1.7756 H   0  0  0  0  0  0  0  0  0  0  0  0
    1.0578    3.9381   -1.9804 H   0  0  0  0  0  0  0  0  0  0  0  0
   -0.2760    2.7608   -1.9344 H   0  0  0  0  0  0  0  0  0  0  0  0
    0.8383    2.7893   -3.3226 H   0  0  0  0  0  0  0  0  0  0  0  0
   -2.5890   -0.9752    0.0262 N   0  0  0  0  0  0  0  0  0  0  0  0
   -3.9721   -1.1370    0.4089 C   0  0  2  0  0  0  0  0  0  0  0  0
   -4.3147   -2.6182    0.3189 C   0  0  0  0  0  0  0  0  0  0  0  0
   -3.6859   -3.4110   -0.3790 O   0  0  0  0  0  0  0  0  0  0  0  0
   -4.8916   -0.3115   -0.4775 C   0  0  0  0  0  0  0  0  0  0  0  0
   -2.2510   -1.5097   -0.7686 H   0  0  0  0  0  0  0  0  0  0  0  0
   -4.0531   -0.8053    1.4498 H   0  0  0  0  0  0  0  0  0  0  0  0
   -4.8242   -0.6294   -1.5244 H   0  0  0  0  0  0  0  0  0  0  0  0
   -5.9371   -0.4129   -0.1681 H   0  0  0  0  0  0  0  0  0  0  0  0
   -4.6247    0.7500   -0.4346 H   0  0  0  0  0  0  0  0  0  0  0  0
   -5.4318   -2.9423    1.0761 N   0  0  0  0  0  0  0  0  0  0  0  0
   -5.9645   -4.2830    1.1452 C   0  0  0  0  0  0  0  0  0  0  0  0
   -5.8793   -2.2249    1.6389 H   0  0  0  0  0  0  0  0  0  0  0  0
   -6.7426   -4.4089    0.3779 H   0  0  0  0  0  0  0  0  0  0  0  0
   -5.1562   -5.0081    0.9701 H   0  0  0  0  0  0  0  0  0  0  0  0
   -6.4005   -4.4533    2.1407 H   0  0  0  0  0  0  0  0  0  0  0  0
  1  3  1  0  0  0  0
  1  7  1  0  0  0  0
  1  2  2  0  0  0  0
 35 36  1  0  0  0  0
 36 44  1  0  0  0  0
 36 37  2  0  0  0  0
  8  9  1  0  0  0  0
  9 17  1  0  0  0  0
  9 10  2  0  0  0  0
 18 19  1  0  0  0  0
 19 34  1  0  0  0  0
 19 20  2  0  0  0  0
 35 38  1  0  0  0  0
  8 11  1  0  0  0  0
 44 45  1  0  0  0  0
 23 24  1  0  0  0  0
 21 22  1  0  0  0  0
 18 21  1  0  0  0  0
 22 23  1  0  0  0  0
 34 35  1  0  0  0  0
  7  8  1  0  0  0  0
 17 18  1  0  0  0  0
  3  4  1  0  0  0  0
  3  5  1  0  0  0  0
  3  6  1  0  0  0  0
 38 41  1  0  0  0  0
 38 42  1  0  0  0  0
 38 43  1  0  0  0  0
 11 14  1  0  0  0  0
 11 15  1  0  0  0  0
 11 16  1  0  0  0  0
 45 47  1  0  0  0  0
 45 48  1  0  0  0  0
 45 49  1  0  0  0  0
 24 31  1  0  0  0  0
 24 32  1  0  0  0  0
 24 33  1  0  0  0  0
 21 27  1  0  0  0  0
 21 28  1  0  0  0  0
 22 29  1  0  0  0  0
 22 30  1  0  0  0  0
 35 40  1  0  0  0  0
  8 13  1  0  0  0  0
 18 26  1  0  0  0  0
 44 46  1  0  0  0  0
  7 12  1  0  0  0  0
 34 39  1  0  0  0  0
 17 25  1  0  0  0  0
M  END
$$$$

  -OEChem-05262214473D

 49 48  0     1  0  0  0  0  0999 V2000
   -0.0561   -5.3799    2.6949 C   0  0  0  0  0  0  0  0  0  0  0  0
    0.7325   -5.0736    3.5815 O   0  0  0  0  0  0  0  0  0  0  0  0
   -1.0067   -6.5099    2.9135 C   0  0  0  0  0  0  0  0  0  0  0  0
   -0.5910   -7.4777    2.5899 H   0  0  0  0  0  0  0  0  0  0  0  0
   -1.2629   -6.6440    3.9767 H   0  0  0  0  0  0  0  0  0  0  0  0
   -1.9729   -6.4206    2.3918 H   0  0  0  0  0  0  0  0  0  0  0  0
   -0.1735   -4.7694    1.4571 N   0  0  0  0  0  0  0  0  0  0  0  0
    0.6439   -3.6603    1.0409 C   0  0  2  0  0  0  0  0  0  0  0  0
   -0.2788   -2.5625    0.5280 C   0  0  0  0  0  0  0  0  0  0  0  0
   -1.4197   -2.7791    0.1251 O   0  0  0  0  0  0  0  0  0  0  0  0
    1.6395   -4.0779   -0.0301 C   0  0  0  0  0  0  0  0  0  0  0  0
   -0.8741   -5.1235    0.8083 H   0  0  0  0  0  0  0  0  0  0  0  0
    1.1738   -3.3062    1.9318 H   0  0  0  0  0  0  0  0  0  0  0  0
    1.1270   -4.4358   -0.9305 H   0  0  0  0  0  0  0  0  0  0  0  0
    2.2797   -3.2400   -0.3251 H   0  0  0  0  0  0  0  0  0  0  0  0
    2.2827   -4.8880    0.3303 H   0  0  0  0  0  0  0  0  0  0  0  0
    0.3351   -1.3153    0.5316 N   0  0  0  0  0  0  0  0  0  0  0  0
   -0.3268   -0.1184    0.0807 C   0  0  2  0  0  0  0  0  0  0  0  0
   -1.7357   -0.0871    0.6651 C   0  0  0  0  0  0  0  0  0  0  0  0
   -2.1272    0.8008    1.4199 O   0  0  0  0  0  0  0  0  0  0  0  0
   -0.3140    0.0089   -1.4488 C   0  0  0  0  0  0  0  0  0  0  0  0
    1.0853    0.2044   -2.0371 C   0  0  0  0  0  0  0  0  0  0  0  0
    1.8360    1.7330   -1.4017 S   0  0  0  0  0  0  0  0  0  0  0  0
    0.7611    2.9190   -2.2404 C   0  0  0  0  0  0  0  0  0  0  0  0
    1.2790   -1.2290    0.9021 H   0  0  0  0  0  0  0  0  0  0  0  0
    0.2380    0.7166    0.5130 H   0  0  0  0  0  0  0  0  0  0  0  0
   -0.9490    0.8597   -1.7301 H   0  0  0  0  0  0  0  0  0  0  0  0
   -0.7706   -0.8882   -1.8862 H   0  0  0  0  0  0  0  0  0  0  0  0
    1.0453    0.2788   -3.1279 H   0  0  0  0  0  0  0  0  0  0  0  0
    1.7428   -0.6300   -1.7756 H   0  0  0  0  0  0  0  0  0  0  0  0
    1.0578    3.9381   -1.9804 H   0  0  0  0  0  0  0  0  0  0  0  0
   -0.2760    2.7608   -1.9344 H   0  0  0  0  0  0  0  0  0  0  0  0
    0.8383    2.7893   -3.3226 H   0  0  0  0  0  0  0  0  0  0  0  0
   -2.4918   -1.1819    0.2716 N   0  0  0  0  0  0  0  0  0  0  0  0
   -3.8543   -1.3828    0.7058 C   0  0  2  0  0  0  0  0  0  0  0  0
   -4.0469   -2.8688    0.9781 C   0  0  0  0  0  0  0  0  0  0  0  0
   -3.3374   -3.7397    0.4788 O   0  0  0  0  0  0  0  0  0  0  0  0
   -4.8457   -0.8881   -0.3359 C   0  0  0  0  0  0  0  0  0  0  0  0
   -2.0967   -1.8551   -0.3783 H   0  0  0  0  0  0  0  0  0  0  0  0
   -3.9750   -0.8213    1.6387 H   0  0  0  0  0  0  0  0  0  0  0  0
   -4.7398   -1.4390   -1.2776 H   0  0  0  0  0  0  0  0  0  0  0  0
   -5.8779   -1.0150    0.0069 H   0  0  0  0  0  0  0  0  0  0  0  0
   -4.6863    0.1737   -0.5523 H   0  0  0  0  0  0  0  0  0  0  0  0
   -5.1311   -3.1108    1.8100 N   0  0  0  0  0  0  0  0  0  0  0  0
   -5.5279   -4.4417    2.2065 C   0  0  0  0  0  0  0  0  0  0  0  0
   -5.6518   -2.3272    2.1929 H   0  0  0  0  0  0  0  0  0  0  0  0
   -6.2842   -4.8236    1.5050 H   0  0  0  0  0  0  0  0  0  0  0  0
   -4.6500   -5.1044    2.1955 H   0  0  0  0  0  0  0  0  0  0  0  0
   -5.9514   -4.4110    3.2212 H   0  0  0  0  0  0  0  0  0  0  0  0
  1  3  1  0  0  0  0
  1  7  1  0  0  0  0
  1  2  2  0  0  0  0
 35 36  1  0  0  0  0
 36 44  1  0  0  0  0
 36 37  2  0  0  0  0
  8  9  1  0  0  0  0
  9 17  1  0  0  0  0
  9 10  2  0  0  0  0
 18 19  1  0  0  0  0
 19 34  1  0  0  0  0
 19 20  2  0  0  0  0
 35 38  1  0  0  0  0
  8 11  1  0  0  0  0
 44 45  1  0  0  0  0
 23 24  1  0  0  0  0
 21 22  1  0  0  0  0
 18 21  1  0  0  0  0
 22 23  1  0  0  0  0
 34 35  1  0  0  0  0
  7  8  1  0  0  0  0
 17 18  1  0  0  0  0
  3  4  1  0  0  0  0
  3  5  1  0  0  0  0
  3  6  1  0  0  0  0
 38 41  1  0  0  0  0
 38 42  1  0  0  0  0
 38 43  1  0  0  0  0
 11 14  1  0  0  0  0
 11 15  1  0  0  0  0
 11 16  1  0  0  0  0
 45 47  1  0  0  0  0
 45 48  1  0  0  0  0
 45 49  1  0  0  0  0
 24 31  1  0  0  0  0
 24 32  1  0  0  0  0
 24 33  1  0  0  0  0
 21 27  1  0  0  0  0
 21 28  1  0  0  0  0
 22 29  1  0  0  0  0
 22 30  1  0  0  0  0
 35 40  1  0  0  0  0
  8 13  1  0  0  0  0
 18 26  1  0  0  0  0
 44 46  1  0  0  0  0
  7 12  1  0  0  0  0
 34 39  1  0  0  0  0
 17 25  1  0  0  0  0
M  END
$$$$

  -OEChem-05262214473D

 49 48  0     1  0  0  0  0  0999 V2000
   -0.0561   -5.3799    2.6949 C   0  0  0  0  0  0  0  0  0  0  0  0
    0.7325   -5.0736    3.5815 O   0  0  0  0  0  0  0  0  0  0  0  0
   -1.0067   -6.5099    2.9135 C   0  0  0  0  0  0  0  0  0  0  0  0
   -0.5910   -7.4777    2.5899 H   0  0  0  0  0  0  0  0  0  0  0  0
   -1.2629   -6.6440    3.9767 H   0  0  0  0  0  0  0  0  0  0  0  0
   -1.9729   -6.4206    2.3918 H   0  0  0  0  0  0  0  0  0  0  0  0
   -0.1735   -4.7694    1.4571 N   0  0  0  0  0  0  0  0  0  0  0  0
    0.6439   -3.6603    1.0409 C   0  0  2  0  0  0  0  0  0  0  0  0
   -0.2788   -2.5625    0.5280 C   0  0  0  0  0  0  0  0  0  0  0  0
   -1.4197   -2.7791    0.1251 O   0  0  0  0  0  0  0  0  0  0  0  0
    1.6395   -4.0779   -0.0301 C   0  0  0  0  0  0  0  0  0  0  0  0
   -0.8741   -5.1235    0.8083 H   0  0  0  0  0  0  0  0  0  0  0  0
    1.1738   -3.3062    1.9318 H   0  0  0  0  0  0  0  0  0  0  0  0
    1.1270   -4.4358   -0.9305 H   0  0  0  0  0  0  0  0  0  0  0  0
    2.2797   -3.2400   -0.3251 H   0  0  0  0  0  0  0  0  0  0  0  0
    2.2827   -4.8880    0.3303 H   0  0  0  0  0  0  0  0  0  0  0  0
    0.3351   -1.3153    0.5316 N   0  0  0  0  0  0  0  0  0  0  0  0
   -0.3268   -0.1184    0.0807 C   0  0  2  0  0  0  0  0  0  0  0  0
   -1.7357   -0.0871    0.6651 C   0  0  0  0  0  0  0  0  0  0  0  0
   -2.2190    0.9126    1.1928 O   0  0  0  0  0  0  0  0  0  0  0  0
   -0.3140    0.0089   -1.4488 C   0  0  0  0  0  0  0  0  0  0  0  0
    1.0853    0.2044   -2.0371 C   0  0  0  0  0  0  0  0  0  0  0  0
    1.8360    1.7330   -1.4017 S   0  0  0  0  0  0  0  0  0  0  0  0
    0.7611    2.9190   -2.2404 C   0  0  0  0  0  0  0  0  0  0  0  0
    1.2790   -1.2290    0.9021 H   0  0  0  0  0  0  0  0  0  0  0  0
    0.2380    0.7166    0.5130 H   0  0  0  0  0  0  0  0  0  0  0  0
   -0.9490    0.8597   -1.7301 H   0  0  0  0  0  0  0  0  0  0  0  0
   -0.7706   -0.8882   -1.8862 H   0  0  0  0  0  0  0  0  0  0  0  0
    1.0453    0.2788   -3.1279 H   0  0  0  0  0  0  0  0  0  0  0  0
    1.7428   -0.6300   -1.7756 H   0  0  0  0  0  0  0  0  0  0  0  0
    1.0578    3.9381   -1.9804 H   0  0  0  0  0  0  0  0  0  0  0  0
   -0.2760    2.7608   -1.9344 H   0  0  0  0  0  0  0  0  0  0  0  0
    0.8383    2.7893   -3.3226 H   0  0  0  0  0  0  0  0  0  0  0  0
   -2.3761   -1.3132    0.5576 N   0  0  0  0  0  0  0  0  0  0  0  0
   -3.7147   -1.5376    1.0508 C   0  0  2  0  0  0  0  0  0  0  0  0
   -3.7598   -2.9268    1.6733 C   0  0  0  0  0  0  0  0  0  0  0  0
   -2.9636   -3.8176    1.3841 O   0  0  0  0  0  0  0  0  0  0  0  0
   -4.7434   -1.4067   -0.0615 C   0  0  0  0  0  0  0  0  0  0  0  0
   -1.9115   -2.0801    0.0804 H   0  0  0  0  0  0  0  0  0  0  0  0
   -3.8971   -0.7840    1.8246 H   0  0  0  0  0  0  0  0  0  0  0  0
   -4.5767   -2.1537   -0.8462 H   0  0  0  0  0  0  0  0  0  0  0  0
   -5.7601   -1.5489    0.3195 H   0  0  0  0  0  0  0  0  0  0  0  0
   -4.6893   -0.4171   -0.5279 H   0  0  0  0  0  0  0  0  0  0  0  0
   -4.8201   -3.0683    2.5576 N   0  0  0  0  0  0  0  0  0  0  0  0
   -5.0847   -4.2981    3.2672 C   0  0  0  0  0  0  0  0  0  0  0  0
   -5.4189   -2.2710    2.7513 H   0  0  0  0  0  0  0  0  0  0  0  0
   -5.7944   -4.9094    2.6905 H   0  0  0  0  0  0  0  0  0  0  0  0
   -4.1450   -4.8544    3.3995 H   0  0  0  0  0  0  0  0  0  0  0  0
   -5.5160   -4.0673    4.2524 H   0  0  0  0  0  0  0  0  0  0  0  0
  1  3  1  0  0  0  0
  1  7  1  0  0  0  0
  1  2  2  0  0  0  0
 35 36  1  0  0  0  0
 36 44  1  0  0  0  0
 36 37  2  0  0  0  0
  8  9  1  0  0  0  0
  9 17  1  0  0  0  0
  9 10  2  0  0  0  0
 18 19  1  0  0  0  0
 19 34  1  0  0  0  0
 19 20  2  0  0  0  0
 35 38  1  0  0  0  0
  8 11  1  0  0  0  0
 44 45  1  0  0  0  0
 23 24  1  0  0  0  0
 21 22  1  0  0  0  0
 18 21  1  0  0  0  0
 22 23  1  0  0  0  0
 34 35  1  0  0  0  0
  7  8  1  0  0  0  0
 17 18  1  0  0  0  0
  3  4  1  0  0  0  0
  3  5  1  0  0  0  0
  3  6  1  0  0  0  0
 38 41  1  0  0  0  0
 38 42  1  0  0  0  0
 38 43  1  0  0  0  0
 11 14  1  0  0  0  0
 11 15  1  0  0  0  0
 11 16  1  0  0  0  0
 45 47  1  0  0  0  0
 45 48  1  0  0  0  0
 45 49  1  0  0  0  0
 24 31  1  0  0  0  0
 24 32  1  0  0  0  0
 24 33  1  0  0  0  0
 21 27  1  0  0  0  0
 21 28  1  0  0  0  0
 22 29  1  0  0  0  0
 22 30  1  0  0  0  0
 35 40  1  0  0  0  0
  8 13  1  0  0  0  0
 18 26  1  0  0  0  0
 44 46  1  0  0  0  0
  7 12  1  0  0  0  0
 34 39  1  0  0  0  0
 17 25  1  0  0  0  0
M  END
$$$$

  -OEChem-05262214473D

 49 48  0     1  0  0  0  0  0999 V2000
   -0.0561   -5.3799    2.6949 C   0  0  0  0  0  0  0  0  0  0  0  0
    0.7325   -5.0736    3.5815 O   0  0  0  0  0  0  0  0  0  0  0  0
   -1.0067   -6.5099    2.9135 C   0  0  0  0  0  0  0  0  0  0  0  0
   -0.5910   -7.4777    2.5899 H   0  0  0  0  0  0  0  0  0  0  0  0
   -1.2629   -6.6440    3.9767 H   0  0  0  0  0  0  0  0  0  0  0  0
   -1.9729   -6.4206    2.3918 H   0  0  0  0  0  0  0  0  0  0  0  0
   -0.1735   -4.7694    1.4571 N   0  0  0  0  0  0  0  0  0  0  0  0
    0.6439   -3.6603    1.0409 C   0  0  2  0  0  0  0  0  0  0  0  0
   -0.2788   -2.5625    0.5280 C   0  0  0  0  0  0  0  0  0  0  0  0
   -1.4197   -2.7791    0.1251 O   0  0  0  0  0  0  0  0  0  0  0  0
    1.6395   -4.0779   -0.0301 C   0  0  0  0  0  0  0  0  0  0  0  0
   -0.8741   -5.1235    0.8083 H   0  0  0  0  0  0  0  0  0  0  0  0
    1.1738   -3.3062    1.9318 H   0  0  0  0  0  0  0  0  0  0  0  0
    1.1270   -4.4358   -0.9305 H   0  0  0  0  0  0  0  0  0  0  0  0
    2.2797   -3.2400   -0.3251 H   0  0  0  0  0  0  0  0  0  0  0  0
    2.2827   -4.8880    0.3303 H   0  0  0  0  0  0  0  0  0  0  0  0
    0.3351   -1.3153    0.5316 N   0  0  0  0  0  0  0  0  0  0  0  0
   -0.3268   -0.1184    0.0807 C   0  0  2  0  0  0  0  0  0  0  0  0
   -1.7357   -0.0871    0.6651 C   0  0  0  0  0  0  0  0  0  0  0  0
   -2.3199    0.9572    0.9472 O   0  0  0  0  0  0  0  0  0  0  0  0
   -0.3140    0.0089   -1.4488 C   0  0  0  0  0  0  0  0  0  0  0  0
    1.0853    0.2044   -2.0371 C   0  0  0  0  0  0  0  0  0  0  0  0
    1.8360    1.7330   -1.4017 S   0  0  0  0  0  0  0  0  0  0  0  0
    0.7611    2.9190   -2.2404 C   0  0  0  0  0  0  0  0  0  0  0  0
    1.2790   -1.2290    0.9021 H   0  0  0  0  0  0  0  0  0  0  0  0
    0.2380    0.7166    0.5130 H   0  0  0  0  0  0  0  0  0  0  0  0
   -0.9490    0.8597   -1.7301 H   0  0  0  0  0  0  0  0  0  0  0  0
   -0.7706   -0.8882   -1.8862 H   0  0  0  0  0  0  0  0  0  0  0  0
    1.0453    0.2788   -3.1279 H   0  0  0  0  0  0  0  0  0  0  0  0
    1.7428   -0.6300   -1.7756 H   0  0  0  0  0  0  0  0  0  0  0  0
    1.0578    3.9381   -1.9804 H   0  0  0  0  0  0  0  0  0  0  0  0
   -0.2760    2.7608   -1.9344 H   0  0  0  0  0  0  0  0  0  0  0  0
    0.8383    2.7893   -3.3226 H   0  0  0  0  0  0  0  0  0  0  0  0
   -2.2498   -1.3603    0.8646 N   0  0  0  0  0  0  0  0  0  0  0  0
   -3.5626   -1.5908    1.4203 C   0  0  2  0  0  0  0  0  0  0  0  0
   -3.4731   -2.7883    2.3571 C   0  0  0  0  0  0  0  0  0  0  0  0
   -2.5900   -3.6395    2.2752 O   0  0  0  0  0  0  0  0  0  0  0  0
   -4.5918   -1.8319    0.3269 C   0  0  0  0  0  0  0  0  0  0  0  0
   -1.7078   -2.1694    0.5763 H   0  0  0  0  0  0  0  0  0  0  0  0
   -3.8245   -0.6957    1.9948 H   0  0  0  0  0  0  0  0  0  0  0  0
   -4.3461   -2.7248   -0.2595 H   0  0  0  0  0  0  0  0  0  0  0  0
   -5.5917   -1.9782    0.7485 H   0  0  0  0  0  0  0  0  0  0  0  0
   -4.6336   -0.9823   -0.3632 H   0  0  0  0  0  0  0  0  0  0  0  0
   -4.5198   -2.8177    3.2679 N   0  0  0  0  0  0  0  0  0  0  0  0
   -4.6652   -3.8619    4.2551 C   0  0  0  0  0  0  0  0  0  0  0  0
   -5.1966   -2.0602    3.2761 H   0  0  0  0  0  0  0  0  0  0  0  0
   -5.3065   -4.6603    3.8534 H   0  0  0  0  0  0  0  0  0  0  0  0
   -3.6756   -4.2750    4.5001 H   0  0  0  0  0  0  0  0  0  0  0  0
   -5.1240   -3.4457    5.1641 H   0  0  0  0  0  0  0  0  0  0  0  0
  1  3  1  0  0  0  0
  1  7  1  0  0  0  0
  1  2  2  0  0  0  0
 35 36  1  0  0  0  0
 36 44  1  0  0  0  0
 36 37  2  0  0  0  0
  8  9  1  0  0  0  0
  9 17  1  0  0  0  0
  9 10  2  0  0  0  0
 18 19  1  0  0  0  0
 19 34  1  0  0  0  0
 19 20  2  0  0  0  0
 35 38  1  0  0  0  0
  8 11  1  0  0  0  0
 44 45  1  0  0  0  0
 23 24  1  0  0  0  0
 21 22  1  0  0  0  0
 18 21  1  0  0  0  0
 22 23  1  0  0  0  0
 34 35  1  0  0  0  0
  7  8  1  0  0  0  0
 17 18  1  0  0  0  0
  3  4  1  0  0  0  0
  3  5  1  0  0  0  0
  3  6  1  0  0  0  0
 38 41  1  0  0  0  0
 38 42  1  0  0  0  0
 38 43  1  0  0  0  0
 11 14  1  0  0  0  0
 11 15  1  0  0  0  0
 11 16  1  0  0  0  0
 45 47  1  0  0  0  0
 45 48  1  0  0  0  0
 45 49  1  0  0  0  0
 24 31  1  0  0  0  0
 24 32  1  0  0  0  0
 24 33  1  0  0  0  0
 21 27  1  0  0  0  0
 21 28  1  0  0  0  0
 22 29  1  0  0  0  0
 22 30  1  0  0  0  0
 35 40  1  0  0  0  0
  8 13  1  0  0  0  0
 18 26  1  0  0  0  0
 44 46  1  0  0  0  0
  7 12  1  0  0  0  0
 34 39  1  0  0  0  0
 17 25  1  0  0  0  0
M  END
$$$$

  -OEChem-05262214473D

 49 48  0     1  0  0  0  0  0999 V2000
   -0.0561   -5.3799    2.6949 C   0  0  0  0  0  0  0  0  0  0  0  0
    0.7325   -5.0736    3.5815 O   0  0  0  0  0  0  0  0  0  0  0  0
   -1.0067   -6.5099    2.9135 C   0  0  0  0  0  0  0  0  0  0  0  0
   -0.5910   -7.4777    2.5899 H   0  0  0  0  0  0  0  0  0  0  0  0
   -1.2629   -6.6440    3.9767 H   0  0  0  0  0  0  0  0  0  0  0  0
   -1.9729   -6.4206    2.3918 H   0  0  0  0  0  0  0  0  0  0  0  0
   -0.1735   -4.7694    1.4571 N   0  0  0  0  0  0  0  0  0  0  0  0
    0.6439   -3.6603    1.0409 C   0  0  2  0  0  0  0  0  0  0  0  0
   -0.2788   -2.5625    0.5280 C   0  0  0  0  0  0  0  0  0  0  0  0
   -1.4197   -2.7791    0.1251 O   0  0  0  0  0  0  0  0  0  0  0  0
    1.6395   -4.0779   -0.0301 C   0  0  0  0  0  0  0  0  0  0  0  0
   -0.8741   -5.1235    0.8083 H   0  0  0  0  0  0  0  0  0  0  0  0
    1.1738   -3.3062    1.9318 H   0  0  0  0  0  0  0  0  0  0  0  0
    1.1270   -4.4358   -0.9305 H   0  0  0  0  0  0  0  0  0  0  0  0
    2.2797   -3.2400   -0.3251 H   0  0  0  0  0  0  0  0  0  0  0  0
    2.2827   -4.8880    0.3303 H   0  0  0  0  0  0  0  0  0  0  0  0
    0.3351   -1.3153    0.5316 N   0  0  0  0  0  0  0  0  0  0  0  0
   -0.3268   -0.1184    0.0807 C   0  0  2  0  0  0  0  0  0  0  0  0
   -1.7357   -0.0871    0.6651 C   0  0  0  0  0  0  0  0  0  0  0  0
   -2.4230    0.9316    0.6998 O   0  0  0  0  0  0  0  0  0  0  0  0
   -0.3140    0.0089   -1.4488 C   0  0  0  0  0  0  0  0  0  0  0  0
    1.0853    0.2044   -2.0371 C   0  0  0  0  0  0  0  0  0  0  0  0
    1.8360    1.7330   -1.4017 S   0  0  0  0  0  0  0  0  0  0  0  0
    0.7611    2.9190   -2.2404 C   0  0  0  0  0  0  0  0  0  0  0  0
    1.2790   -1.2290    0.9021 H   0  0  0  0  0  0  0  0  0  0  0  0
    0.2380    0.7166    0.5130 H   0  0  0  0  0  0  0  0  0  0  0  0
   -0.9490    0.8597   -1.7301 H   0  0  0  0  0  0  0  0  0  0  0  0
   -0.7706   -0.8882   -1.8862 H   0  0  0  0  0  0  0  0  0  0  0  0
    1.0453    0.2788   -3.1279 H   0  0  0  0  0  0  0  0  0  0  0  0
    1.7428   -0.6300   -1.7756 H   0  0  0  0  0  0  0  0  0  0  0  0
    1.0578    3.9381   -1.9804 H   0  0  0  0  0  0  0  0  0  0  0  0
   -0.2760    2.7608   -1.9344 H   0  0  0  0  0  0  0  0  0  0  0  0
    0.8383    2.7893   -3.3226 H   0  0  0  0  0  0  0  0  0  0  0  0
   -2.1215   -1.3198    1.1717 N   0  0  0  0  0  0  0  0  0  0  0  0
   -3.4085   -1.5389    1.7891 C   0  0  2  0  0  0  0  0  0  0  0  0
   -3.2062   -2.4625    2.9830 C   0  0  0  0  0  0  0  0  0  0  0  0
   -2.2421   -3.2174    3.0914 O   0  0  0  0  0  0  0  0  0  0  0  0
   -4.4010   -2.1347    0.8029 C   0  0  0  0  0  0  0  0  0  0  0  0
   -1.4995   -2.1170    1.0756 H   0  0  0  0  0  0  0  0  0  0  0  0
   -3.7623   -0.5625    2.1377 H   0  0  0  0  0  0  0  0  0  0  0  0
   -4.0635   -3.1133    0.4425 H   0  0  0  0  0  0  0  0  0  0  0  0
   -5.3842   -2.2737    1.2646 H   0  0  0  0  0  0  0  0  0  0  0  0
   -4.5228   -1.4833   -0.0692 H   0  0  0  0  0  0  0  0  0  0  0  0
   -4.2509   -2.3761    3.8926 N   0  0  0  0  0  0  0  0  0  0  0  0
   -4.2980   -3.1629    5.1028 C   0  0  0  0  0  0  0  0  0  0  0  0
   -4.9999   -1.7092    3.7314 H   0  0  0  0  0  0  0  0  0  0  0  0
   -4.8537   -4.0933    4.9146 H   0  0  0  0  0  0  0  0  0  0  0  0
   -3.2738   -3.4058    5.4221 H   0  0  0  0  0  0  0  0  0  0  0  0
   -4.8022   -2.5885    5.8940 H   0  0  0  0  0  0  0  0  0  0  0  0
  1  3  1  0  0  0  0
  1  7  1  0  0  0  0
  1  2  2  0  0  0  0
 35 36  1  0  0  0  0
 36 44  1  0  0  0  0
 36 37  2  0  0  0  0
  8  9  1  0  0  0  0
  9 17  1  0  0  0  0
  9 10  2  0  0  0  0
 18 19  1  0  0  0  0
 19 34  1  0  0  0  0
 19 20  2  0  0  0  0
 35 38  1  0  0  0  0
  8 11  1  0  0  0  0
 44 45  1  0  0  0  0
 23 24  1  0  0  0  0
 21 22  1  0  0  0  0
 18 21  1  0  0  0  0
 22 23  1  0  0  0  0
 34 35  1  0  0  0  0
  7  8  1  0  0  0  0
 17 18  1  0  0  0  0
  3  4  1  0  0  0  0
  3  5  1  0  0  0  0
  3  6  1  0  0  0  0
 38 41  1  0  0  0  0
 38 42  1  0  0  0  0
 38 43  1  0  0  0  0
 11 14  1  0  0  0  0
 11 15  1  0  0  0  0
 11 16  1  0  0  0  0
 45 47  1  0  0  0  0
 45 48  1  0  0  0  0
 45 49  1  0  0  0  0
 24 31  1  0  0  0  0
 24 32  1  0  0  0  0
 24 33  1  0  0  0  0
 21 27  1  0  0  0  0
 21 28  1  0  0  0  0
 22 29  1  0  0  0  0
 22 30  1  0  0  0  0
 35 40  1  0  0  0  0
  8 13  1  0  0  0  0
 18 26  1  0  0  0  0
 44 46  1  0  0  0  0
  7 12  1  0  0  0  0
 34 39  1  0  0  0  0
 17 25  1  0  0  0  0
M  END
$$$$

  -OEChem-05262214473D

 49 48  0     1  0  0  0  0  0999 V2000
   -0.0561   -5.3799    2.6949 C   0  0  0  0  0  0  0  0  0  0  0  0
    0.7325   -5.0736    3.5815 O   0  0  0  0  0  0  0  0  0  0  0  0
   -1.0067   -6.5099    2.9135 C   0  0  0  0  0  0  0  0  0  0  0  0
   -0.5910   -7.4777    2.5899 H   0  0  0  0  0  0  0  0  0  0  0  0
   -1.2629   -6.6440    3.9767 H   0  0  0  0  0  0  0  0  0  0  0  0
   -1.9729   -6.4206    2.3918 H   0  0  0  0  0  0  0  0  0  0  0  0
   -0.1735   -4.7694    1.4571 N   0  0  0  0  0  0  0  0  0  0  0  0
    0.6439   -3.6603    1.0409 C   0  0  2  0  0  0  0  0  0  0  0  0
   -0.2788   -2.5625    0.5280 C   0  0  0  0  0  0  0  0  0  0  0  0
   -1.4197   -2.7791    0.1251 O   0  0  0  0  0  0  0  0  0  0  0  0
    1.6395   -4.0779   -0.0301 C   0  0  0  0  0  0  0  0  0  0  0  0
   -0.8741   -5.1235    0.8083 H   0  0  0  0  0  0  0  0  0  0  0  0
    1.1738   -3.3062    1.9318 H   0  0  0  0  0  0  0  0  0  0  0  0
    1.1270   -4.4358   -0.9305 H   0  0  0  0  0  0  0  0  0  0  0  0
    2.2797   -3.2400   -0.3251 H   0  0  0  0  0  0  0  0  0  0  0  0
    2.2827   -4.8880    0.3303 H   0  0  0  0  0  0  0  0  0  0  0  0
    0.3351   -1.3153    0.5316 N   0  0  0  0  0  0  0  0  0  0  0  0
   -0.3268   -0.1184    0.0807 C   0  0  2  0  0  0  0  0  0  0  0  0
   -1.7357   -0.0871    0.6651 C   0  0  0  0  0  0  0  0  0  0  0  0
   -2.5215    0.8375    0.4676 O   0  0  0  0  0  0  0  0  0  0  0  0
   -0.3140    0.0089   -1.4488 C   0  0  0  0  0  0  0  0  0  0  0  0
    1.0853    0.2044   -2.0371 C   0  0  0  0  0  0  0  0  0  0  0  0
    1.8360    1.7330   -1.4017 S   0  0  0  0  0  0  0  0  0  0  0  0
    0.7611    2.9190   -2.2404 C   0  0  0  0  0  0  0  0  0  0  0  0
    1.2790   -1.2290    0.9021 H   0  0  0  0  0  0  0  0  0  0  0  0
    0.2380    0.7166    0.5130 H   0  0  0  0  0  0  0  0  0  0  0  0
   -0.9490    0.8597   -1.7301 H   0  0  0  0  0  0  0  0  0  0  0  0
   -0.7706   -0.8882   -1.8862 H   0  0  0  0  0  0  0  0  0  0  0  0
    1.0453    0.2788   -3.1279 H   0  0  0  0  0  0  0  0  0  0  0  0
    1.7428   -0.6300   -1.7756 H   0  0  0  0  0  0  0  0  0  0  0  0
    1.0578    3.9381   -1.9804 H   0  0  0  0  0  0  0  0  0  0  0  0
   -0.2760    2.7608   -1.9344 H   0  0  0  0  0  0  0  0  0  0  0  0
    0.8383    2.7893   -3.3226 H   0  0  0  0  0  0  0  0  0  0  0  0
   -2.0000   -1.1946    1.4580 N   0  0  0  0  0  0  0  0  0  0  0  0
   -3.2628   -1.3853    2.1321 C   0  0  2  0  0  0  0  0  0  0  0  0
   -2.9774   -1.9718    3.5083 C   0  0  0  0  0  0  0  0  0  0  0  0
   -1.9435   -2.5801    3.7770 O   0  0  0  0  0  0  0  0  0  0  0  0
   -4.1843   -2.2945    1.3341 C   0  0  0  0  0  0  0  0  0  0  0  0
   -1.3009   -1.9264    1.5442 H   0  0  0  0  0  0  0  0  0  0  0  0
   -3.7146   -0.3936    2.2436 H   0  0  0  0  0  0  0  0  0  0  0  0
   -3.7484   -3.2928    1.2119 H   0  0  0  0  0  0  0  0  0  0  0  0
   -5.1518   -2.4151    1.8326 H   0  0  0  0  0  0  0  0  0  0  0  0
   -4.3645   -1.8860    0.3339 H   0  0  0  0  0  0  0  0  0  0  0  0
   -4.0316   -1.7736    4.3889 N   0  0  0  0  0  0  0  0  0  0  0  0
   -4.0081   -2.2486    5.7527 C   0  0  0  0  0  0  0  0  0  0  0  0
   -4.8423   -1.2417    4.0862 H   0  0  0  0  0  0  0  0  0  0  0  0
   -4.4669   -3.2472    5.8017 H   0  0  0  0  0  0  0  0  0  0  0  0
   -2.9670   -2.3060    6.1029 H   0  0  0  0  0  0  0  0  0  0  0  0
   -4.5724   -1.5542    6.3925 H   0  0  0  0  0  0  0  0  0  0  0  0
  1  3  1  0  0  0  0
  1  7  1  0  0  0  0
  1  2  2  0  0  0  0
 35 36  1  0  0  0  0
 36 44  1  0  0  0  0
 36 37  2  0  0  0  0
  8  9  1  0  0  0  0
  9 17  1  0  0  0  0
  9 10  2  0  0  0  0
 18 19  1  0  0  0  0
 19 34  1  0  0  0  0
 19 20  2  0  0  0  0
 35 38  1  0  0  0  0
  8 11  1  0  0  0  0
 44 45  1  0  0  0  0
 23 24  1  0  0  0  0
 21 22  1  0  0  0  0
 18 21  1  0  0  0  0
 22 23  1  0  0  0  0
 34 35  1  0  0  0  0
  7  8  1  0  0  0  0
 17 18  1  0  0  0  0
  3  4  1  0  0  0  0
  3  5  1  0  0  0  0
  3  6  1  0  0  0  0
 38 41  1  0  0  0  0
 38 42  1  0  0  0  0
 38 43  1  0  0  0  0
 11 14  1  0  0  0  0
 11 15  1  0  0  0  0
 11 16  1  0  0  0  0
 45 47  1  0  0  0  0
 45 48  1  0  0  0  0
 45 49  1  0  0  0  0
 24 31  1  0  0  0  0
 24 32  1  0  0  0  0
 24 33  1  0  0  0  0
 21 27  1  0  0  0  0
 21 28  1  0  0  0  0
 22 29  1  0  0  0  0
 22 30  1  0  0  0  0
 35 40  1  0  0  0  0
  8 13  1  0  0  0  0
 18 26  1  0  0  0  0
 44 46  1  0  0  0  0
  7 12  1  0  0  0  0
 34 39  1  0  0  0  0
 17 25  1  0  0  0  0
M  END
$$$$

  -OEChem-05262214473D

 49 48  0     1  0  0  0  0  0999 V2000
   -0.0561   -5.3799    2.6949 C   0  0  0  0  0  0  0  0  0  0  0  0
    0.7325   -5.0736    3.5815 O   0  0  0  0  0  0  0  0  0  0  0  0
   -1.0067   -6.5099    2.9135 C   0  0  0  0  0  0  0  0  0  0  0  0
   -0.5910   -7.4777    2.5899 H   0  0  0  0  0  0  0  0  0  0  0  0
   -1.2629   -6.6440    3.9767 H   0  0  0  0  0  0  0  0  0  0  0  0
   -1.9729   -6.4206    2.3918 H   0  0  0  0  0  0  0  0  0  0  0  0
   -0.1735   -4.7694    1.4571 N   0  0  0  0  0  0  0  0  0  0  0  0
    0.6439   -3.6603    1.0409 C   0  0  2  0  0  0  0  0  0  0  0  0
   -0.2788   -2.5625    0.5280 C   0  0  0  0  0  0  0  0  0  0  0  0
   -1.4197   -2.7791    0.1251 O   0  0  0  0  0  0  0  0  0  0  0  0
    1.6395   -4.0779   -0.0301 C   0  0  0  0  0  0  0  0  0  0  0  0
   -0.8741   -5.1235    0.8083 H   0  0  0  0  0  0  0  0  0  0  0  0
    1.1738   -3.3062    1.9318 H   0  0  0  0  0  0  0  0  0  0  0  0
    1.1270   -4.4358   -0.9305 H   0  0  0  0  0  0  0  0  0  0  0  0
    2.2797   -3.2400   -0.3251 H   0  0  0  0  0  0  0  0  0  0  0  0
    2.2827   -4.8880    0.3303 H   0  0  0  0  0  0  0  0  0  0  0  0
    0.3351   -1.3153    0.5316 N   0  0  0  0  0  0  0  0  0  0  0  0
   -0.3268   -0.1184    0.0807 C   0  0  2  0  0  0  0  0  0  0  0  0
   -1.7357   -0.0871    0.6651 C   0  0  0  0  0  0  0  0  0  0  0  0
   -2.6085    0.6813    0.2662 O   0  0  0  0  0  0  0  0  0  0  0  0
   -0.3140    0.0089   -1.4488 C   0  0  0  0  0  0  0  0  0  0  0  0
    1.0853    0.2044   -2.0371 C   0  0  0  0  0  0  0  0  0  0  0  0
    1.8360    1.7330   -1.4017 S   0  0  0  0  0  0  0  0  0  0  0  0
    0.7611    2.9190   -2.2404 C   0  0  0  0  0  0  0  0  0  0  0  0
    1.2790   -1.2290    0.9021 H   0  0  0  0  0  0  0  0  0  0  0  0
    0.2380    0.7166    0.5130 H   0  0  0  0  0  0  0  0  0  0  0  0
   -0.9490    0.8597   -1.7301 H   0  0  0  0  0  0  0  0  0  0  0  0
   -0.7706   -0.8882   -1.8862 H   0  0  0  0  0  0  0  0  0  0  0  0
    1.0453    0.2788   -3.1279 H   0  0  0  0  0  0  0  0  0  0  0  0
    1.7428   -0.6300   -1.7756 H   0  0  0  0  0  0  0  0  0  0  0  0
    1.0578    3.9381   -1.9804 H   0  0  0  0  0  0  0  0  0  0  0  0
   -0.2760    2.7608   -1.9344 H   0  0  0  0  0  0  0  0  0  0  0  0
    0.8383    2.7893   -3.3226 H   0  0  0  0  0  0  0  0  0  0  0  0
   -1.8935   -0.9932    1.7039 N   0  0  0  0  0  0  0  0  0  0  0  0
   -3.1355   -1.1404    2.4259 C   0  0  2  0  0  0  0  0  0  0  0  0
   -2.8023   -1.3496    3.8972 C   0  0  0  0  0  0  0  0  0  0  0  0
   -1.7147   -1.7710    4.2853 O   0  0  0  0  0  0  0  0  0  0  0  0
   -3.9562   -2.3005    1.8842 C   0  0  0  0  0  0  0  0  0  0  0  0
   -1.1254   -1.6106    1.9502 H   0  0  0  0  0  0  0  0  0  0  0  0
   -3.6847   -0.2003    2.3053 H   0  0  0  0  0  0  0  0  0  0  0  0
   -3.4220   -3.2510    1.9964 H   0  0  0  0  0  0  0  0  0  0  0  0
   -4.9102   -2.3930    2.4138 H   0  0  0  0  0  0  0  0  0  0  0  0
   -4.1696   -2.1629    0.8187 H   0  0  0  0  0  0  0  0  0  0  0  0
   -3.8769   -1.0513    4.7232 N   0  0  0  0  0  0  0  0  0  0  0  0
   -3.8153   -1.1814    6.1603 C   0  0  0  0  0  0  0  0  0  0  0  0
   -4.7346   -0.6898    4.3164 H   0  0  0  0  0  0  0  0  0  0  0  0
   -4.1725   -2.1794    6.4542 H   0  0  0  0  0  0  0  0  0  0  0  0
   -2.7760   -1.0505    6.4960 H   0  0  0  0  0  0  0  0  0  0  0  0
   -4.4504   -0.4131    6.6255 H   0  0  0  0  0  0  0  0  0  0  0  0
  1  3  1  0  0  0  0
  1  7  1  0  0  0  0
  1  2  2  0  0  0  0
 35 36  1  0  0  0  0
 36 44  1  0  0  0  0
 36 37  2  0  0  0  0
  8  9  1  0  0  0  0
  9 17  1  0  0  0  0
  9 10  2  0  0  0  0
 18 19  1  0  0  0  0
 19 34  1  0  0  0  0
 19 20  2  0  0  0  0
 35 38  1  0  0  0  0
  8 11  1  0  0  0  0
 44 45  1  0  0  0  0
 23 24  1  0  0  0  0
 21 22  1  0  0  0  0
 18 21  1  0  0  0  0
 22 23  1  0  0  0  0
 34 35  1  0  0  0  0
  7  8  1  0  0  0  0
 17 18  1  0  0  0  0
  3  4  1  0  0  0  0
  3  5  1  0  0  0  0
  3  6  1  0  0  0  0
 38 41  1  0  0  0  0
 38 42  1  0  0  0  0
 38 43  1  0  0  0  0
 11 14  1  0  0  0  0
 11 15  1  0  0  0  0
 11 16  1  0  0  0  0
 45 47  1  0  0  0  0
 45 48  1  0  0  0  0
 45 49  1  0  0  0  0
 24 31  1  0  0  0  0
 24 32  1  0  0  0  0
 24 33  1  0  0  0  0
 21 27  1  0  0  0  0
 21 28  1  0  0  0  0
 22 29  1  0  0  0  0
 22 30  1  0  0  0  0
 35 40  1  0  0  0  0
  8 13  1  0  0  0  0
 18 26  1  0  0  0  0
 44 46  1  0  0  0  0
  7 12  1  0  0  0  0
 34 39  1  0  0  0  0
 17 25  1  0  0  0  0
M  END
$$$$

  -OEChem-05262214473D

 49 48  0     1  0  0  0  0  0999 V2000
   -0.0561   -5.3799    2.6949 C   0  0  0  0  0  0  0  0  0  0  0  0
    0.7325   -5.0736    3.5815 O   0  0  0  0  0  0  0  0  0  0  0  0
   -1.0067   -6.5099    2.9135 C   0  0  0  0  0  0  0  0  0  0  0  0
   -0.5910   -7.4777    2.5899 H   0  0  0  0  0  0  0  0  0  0  0  0
   -1.2629   -6.6440    3.9767 H   0  0  0  0  0  0  0  0  0  0  0  0
   -1.9729   -6.4206    2.3918 H   0  0  0  0  0  0  0  0  0  0  0  0
   -0.1735   -4.7694    1.4571 N   0  0  0  0  0  0  0  0  0  0  0  0
    0.6439   -3.6603    1.0409 C   0  0  2  0  0  0  0  0  0  0  0  0
   -0.2788   -2.5625    0.5280 C   0  0  0  0  0  0  0  0  0  0  0  0
   -1.4197   -2.7791    0.1251 O   0  0  0  0  0  0  0  0  0  0  0  0
    1.6395   -4.0779   -0.0301 C   0  0  0  0  0  0  0  0  0  0  0  0
   -0.8741   -5.1235    0.8083 H   0  0  0  0  0  0  0  0  0  0  0  0
    1.1738   -3.3062    1.9318 H   0  0  0  0  0  0  0  0  0  0  0  0
    1.1270   -4.4358   -0.9305 H   0  0  0  0  0  0  0  0  0  0  0  0
    2.2797   -3.2400   -0.3251 H   0  0  0  0  0  0  0  0  0  0  0  0
    2.2827   -4.8880    0.3303 H   0  0  0  0  0  0  0  0  0  0  0  0
    0.3351   -1.3153    0.5316 N   0  0  0  0  0  0  0  0  0  0  0  0
   -0.3268   -0.1184    0.0807 C   0  0  2  0  0  0  0  0  0  0  0  0
   -1.7357   -0.0871    0.6651 C   0  0  0  0  0  0  0  0  0  0  0  0
   -2.6781    0.4737    0.1095 O   0  0  0  0  0  0  0  0  0  0  0  0
   -0.3140    0.0089   -1.4488 C   0  0  0  0  0  0  0  0  0  0  0  0
    1.0853    0.2044   -2.0371 C   0  0  0  0  0  0  0  0  0  0  0  0
    1.8360    1.7330   -1.4017 S   0  0  0  0  0  0  0  0  0  0  0  0
    0.7611    2.9190   -2.2404 C   0  0  0  0  0  0  0  0  0  0  0  0
    1.2790   -1.2290    0.9021 H   0  0  0  0  0  0  0  0  0  0  0  0
    0.2380    0.7166    0.5130 H   0  0  0  0  0  0  0  0  0  0  0  0
   -0.9490    0.8597   -1.7301 H   0  0  0  0  0  0  0  0  0  0  0  0
   -0.7706   -0.8882   -1.8862 H   0  0  0  0  0  0  0  0  0  0  0  0
    1.0453    0.2788   -3.1279 H   0  0  0  0  0  0  0  0  0  0  0  0
    1.7428   -0.6300   -1.7756 H   0  0  0  0  0  0  0  0  0  0  0  0
    1.0578    3.9381   -1.9804 H   0  0  0  0  0  0  0  0  0  0  0  0
   -0.2760    2.7608   -1.9344 H   0  0  0  0  0  0  0  0  0  0  0  0
    0.8383    2.7893   -3.3226 H   0  0  0  0  0  0  0  0  0  0  0  0
   -1.8092   -0.7293    1.8928 N   0  0  0  0  0  0  0  0  0  0  0  0
   -3.0352   -0.8211    2.6505 C   0  0  2  0  0  0  0  0  0  0  0  0
   -2.6927   -0.6383    4.1232 C   0  0  0  0  0  0  0  0  0  0  0  0
   -1.5711   -0.8453    4.5817 O   0  0  0  0  0  0  0  0  0  0  0  0
   -3.7324   -2.1521    2.4158 C   0  0  0  0  0  0  0  0  0  0  0  0
   -0.9851   -1.1911    2.2660 H   0  0  0  0  0  0  0  0  0  0  0  0
   -3.6747    0.0040    2.3185 H   0  0  0  0  0  0  0  0  0  0  0  0
   -3.1068   -2.9908    2.7424 H   0  0  0  0  0  0  0  0  0  0  0  0
   -4.6759   -2.2087    2.9686 H   0  0  0  0  0  0  0  0  0  0  0  0
   -3.9513   -2.2952    1.3521 H   0  0  0  0  0  0  0  0  0  0  0  0
   -3.7973   -0.2583    4.8726 N   0  0  0  0  0  0  0  0  0  0  0  0
   -3.7327   -0.0341    6.2979 C   0  0  0  0  0  0  0  0  0  0  0  0
   -4.6840   -0.0909    4.4062 H   0  0  0  0  0  0  0  0  0  0  0  0
   -3.9905   -0.9630    6.8278 H   0  0  0  0  0  0  0  0  0  0  0  0
   -2.7139    0.2750    6.5745 H   0  0  0  0  0  0  0  0  0  0  0  0
   -4.4444    0.7568    6.5772 H   0  0  0  0  0  0  0  0  0  0  0  0
  1  3  1  0  0  0  0
  1  7  1  0  0  0  0
  1  2  2  0  0  0  0
 35 36  1  0  0  0  0
 36 44  1  0  0  0  0
 36 37  2  0  0  0  0
  8  9  1  0  0  0  0
  9 17  1  0  0  0  0
  9 10  2  0  0  0  0
 18 19  1  0  0  0  0
 19 34  1  0  0  0  0
 19 20  2  0  0  0  0
 35 38  1  0  0  0  0
  8 11  1  0  0  0  0
 44 45  1  0  0  0  0
 23 24  1  0  0  0  0
 21 22  1  0  0  0  0
 18 21  1  0  0  0  0
 22 23  1  0  0  0  0
 34 35  1  0  0  0  0
  7  8  1  0  0  0  0
 17 18  1  0  0  0  0
  3  4  1  0  0  0  0
  3  5  1  0  0  0  0
  3  6  1  0  0  0  0
 38 41  1  0  0  0  0
 38 42  1  0  0  0  0
 38 43  1  0  0  0  0
 11 14  1  0  0  0  0
 11 15  1  0  0  0  0
 11 16  1  0  0  0  0
 45 47  1  0  0  0  0
 45 48  1  0  0  0  0
 45 49  1  0  0  0  0
 24 31  1  0  0  0  0
 24 32  1  0  0  0  0
 24 33  1  0  0  0  0
 21 27  1  0  0  0  0
 21 28  1  0  0  0  0
 22 29  1  0  0  0  0
 22 30  1  0  0  0  0
 35 40  1  0  0  0  0
  8 13  1  0  0  0  0
 18 26  1  0  0  0  0
 44 46  1  0  0  0  0
  7 12  1  0  0  0  0
 34 39  1  0  0  0  0
 17 25  1  0  0  0  0
M  END
$$$$

  -OEChem-05262214473D

 49 48  0     1  0  0  0  0  0999 V2000
   -0.0561   -5.3799    2.6949 C   0  0  0  0  0  0  0  0  0  0  0  0
    0.7325   -5.0736    3.5815 O   0  0  0  0  0  0  0  0  0  0  0  0
   -1.0067   -6.5099    2.9135 C   0  0  0  0  0  0  0  0  0  0  0  0
   -0.5910   -7.4777    2.5899 H   0  0  0  0  0  0  0  0  0  0  0  0
   -1.2629   -6.6440    3.9767 H   0  0  0  0  0  0  0  0  0  0  0  0
   -1.9729   -6.4206    2.3918 H   0  0  0  0  0  0  0  0  0  0  0  0
   -0.1735   -4.7694    1.4571 N   0  0  0  0  0  0  0  0  0  0  0  0
    0.6439   -3.6603    1.0409 C   0  0  2  0  0  0  0  0  0  0  0  0
   -0.2788   -2.5625    0.5280 C   0  0  0  0  0  0  0  0  0  0  0  0
   -1.4197   -2.7791    0.1251 O   0  0  0  0  0  0  0  0  0  0  0  0
    1.6395   -4.0779   -0.0301 C   0  0  0  0  0  0  0  0  0  0  0  0
   -0.8741   -5.1235    0.8083 H   0  0  0  0  0  0  0  0  0  0  0  0
    1.1738   -3.3062    1.9318 H   0  0  0  0  0  0  0  0  0  0  0  0
    1.1270   -4.4358   -0.9305 H   0  0  0  0  0  0  0  0  0  0  0  0
    2.2797   -3.2400   -0.3251 H   0  0  0  0  0  0  0  0  0  0  0  0
    2.2827   -4.8880    0.3303 H   0  0  0  0  0  0  0  0  0  0  0  0
    0.3351   -1.3153    0.5316 N   0  0  0  0  0  0  0  0  0  0  0  0
   -0.3268   -0.1184    0.0807 C   0  0  2  0  0  0  0  0  0  0  0  0
   -1.7357   -0.0871    0.6651 C   0  0  0  0  0  0  0  0  0  0  0  0
   -2.7256    0.2288    0.0082 O   0  0  0  0  0  0  0  0  0  0  0  0
   -0.3140    0.0089   -1.4488 C   0  0  0  0  0  0  0  0  0  0  0  0
    1.0853    0.2044   -2.0371 C   0  0  0  0  0  0  0  0  0  0  0  0
    1.8360    1.7330   -1.4017 S   0  0  0  0  0  0  0  0  0  0  0  0
    0.7611    2.9190   -2.2404 C   0  0  0  0  0  0  0  0  0  0  0  0
    1.2790   -1.2290    0.9021 H   0  0  0  0  0  0  0  0  0  0  0  0
    0.2380    0.7166    0.5130 H   0  0  0  0  0  0  0  0  0  0  0  0
   -0.9490    0.8597   -1.7301 H   0  0  0  0  0  0  0  0  0  0  0  0
   -0.7706   -0.8882   -1.8862 H   0  0  0  0  0  0  0  0  0  0  0  0
    1.0453    0.2788   -3.1279 H   0  0  0  0  0  0  0  0  0  0  0  0
    1.7428   -0.6300   -1.7756 H   0  0  0  0  0  0  0  0  0  0  0  0
    1.0578    3.9381   -1.9804 H   0  0  0  0  0  0  0  0  0  0  0  0
   -0.2760    2.7608   -1.9344 H   0  0  0  0  0  0  0  0  0  0  0  0
    0.8383    2.7893   -3.3226 H   0  0  0  0  0  0  0  0  0  0  0  0
   -1.7531   -0.4209    2.0117 N   0  0  0  0  0  0  0  0  0  0  0  0
   -2.9688   -0.4490    2.7906 C   0  0  2  0  0  0  0  0  0  0  0  0
   -2.6562    0.1137    4.1709 C   0  0  0  0  0  0  0  0  0  0  0  0
   -1.5227    0.1339    4.6461 O   0  0  0  0  0  0  0  0  0  0  0  0
   -3.5281   -1.8595    2.8926 C   0  0  0  0  0  0  0  0  0  0  0  0
   -0.8895   -0.6965    2.4700 H   0  0  0  0  0  0  0  0  0  0  0  0
   -3.6852    0.2055    2.2824 H   0  0  0  0  0  0  0  0  0  0  0  0
   -2.8242   -2.5299    3.3991 H   0  0  0  0  0  0  0  0  0  0  0  0
   -4.4650   -1.8748    3.4592 H   0  0  0  0  0  0  0  0  0  0  0  0
   -3.7244   -2.2738    1.8978 H   0  0  0  0  0  0  0  0  0  0  0  0
   -3.7982    0.5512    4.8270 N   0  0  0  0  0  0  0  0  0  0  0  0
   -3.7659    1.1152    6.1562 C   0  0  0  0  0  0  0  0  0  0  0  0
   -4.6940    0.5140    4.3496 H   0  0  0  0  0  0  0  0  0  0  0  0
   -3.9333    0.3194    6.8969 H   0  0  0  0  0  0  0  0  0  0  0  0
   -2.7850    1.5804    6.3333 H   0  0  0  0  0  0  0  0  0  0  0  0
   -4.5549    1.8759    6.2509 H   0  0  0  0  0  0  0  0  0  0  0  0
  1  3  1  0  0  0  0
  1  7  1  0  0  0  0
  1  2  2  0  0  0  0
 35 36  1  0  0  0  0
 36 44  1  0  0  0  0
 36 37  2  0  0  0  0
  8  9  1  0  0  0  0
  9 17  1  0  0  0  0
  9 10  2  0  0  0  0
 18 19  1  0  0  0  0
 19 34  1  0  0  0  0
 19 20  2  0  0  0  0
 35 38  1  0  0  0  0
  8 11  1  0  0  0  0
 44 45  1  0  0  0  0
 23 24  1  0  0  0  0
 21 22  1  0  0  0  0
 18 21  1  0  0  0  0
 22 23  1  0  0  0  0
 34 35  1  0  0  0  0
  7  8  1  0  0  0  0
 17 18  1  0  0  0  0
  3  4  1  0  0  0  0
  3  5  1  0  0  0  0
  3  6  1  0  0  0  0
 38 41  1  0  0  0  0
 38 42  1  0  0  0  0
 38 43  1  0  0  0  0
 11 14  1  0  0  0  0
 11 15  1  0  0  0  0
 11 16  1  0  0  0  0
 45 47  1  0  0  0  0
 45 48  1  0  0  0  0
 45 49  1  0  0  0  0
 24 31  1  0  0  0  0
 24 32  1  0  0  0  0
 24 33  1  0  0  0  0
 21 27  1  0  0  0  0
 21 28  1  0  0  0  0
 22 29  1  0  0  0  0
 22 30  1  0  0  0  0
 35 40  1  0  0  0  0
  8 13  1  0  0  0  0
 18 26  1  0  0  0  0
 44 46  1  0  0  0  0
  7 12  1  0  0  0  0
 34 39  1  0  0  0  0
 17 25  1  0  0  0  0
M  END
$$$$

  -OEChem-05262214473D

 49 48  0     1  0  0  0  0  0999 V2000
   -0.0561   -5.3799    2.6949 C   0  0  0  0  0  0  0  0  0  0  0  0
    0.7325   -5.0736    3.5815 O   0  0  0  0  0  0  0  0  0  0  0  0
   -1.0067   -6.5099    2.9135 C   0  0  0  0  0  0  0  0  0  0  0  0
   -0.5910   -7.4777    2.5899 H   0  0  0  0  0  0  0  0  0  0  0  0
   -1.2629   -6.6440    3.9767 H   0  0  0  0  0  0  0  0  0  0  0  0
   -1.9729   -6.4206    2.3918 H   0  0  0  0  0  0  0  0  0  0  0  0
   -0.1735   -4.7694    1.4571 N   0  0  0  0  0  0  0  0  0  0  0  0
    0.6439   -3.6603    1.0409 C   0  0  2  0  0  0  0  0  0  0  0  0
   -0.2788   -2.5625    0.5280 C   0  0  0  0  0  0  0  0  0  0  0  0
   -1.4197   -2.7791    0.1251 O   0  0  0  0  0  0  0  0  0  0  0  0
    1.6395   -4.0779   -0.0301 C   0  0  0  0  0  0  0  0  0  0  0  0
   -0.8741   -5.1235    0.8083 H   0  0  0  0  0  0  0  0  0  0  0  0
    1.1738   -3.3062    1.9318 H   0  0  0  0  0  0  0  0  0  0  0  0
    1.1270   -4.4358   -0.9305 H   0  0  0  0  0  0  0  0  0  0  0  0
    2.2797   -3.2400   -0.3251 H   0  0  0  0  0  0  0  0  0  0  0  0
    2.2827   -4.8880    0.3303 H   0  0  0  0  0  0  0  0  0  0  0  0
    0.3351   -1.3153    0.5316 N   0  0  0  0  0  0  0  0  0  0  0  0
   -0.3268   -0.1184    0.0807 C   0  0  2  0  0  0  0  0  0  0  0  0
   -1.7357   -0.0871    0.6651 C   0  0  0  0  0  0  0  0  0  0  0  0
   -2.7477   -0.0366   -0.0310 O   0  0  0  0  0  0  0  0  0  0  0  0
   -0.3140    0.0089   -1.4488 C   0  0  0  0  0  0  0  0  0  0  0  0
    1.0853    0.2044   -2.0371 C   0  0  0  0  0  0  0  0  0  0  0  0
    1.8360    1.7330   -1.4017 S   0  0  0  0  0  0  0  0  0  0  0  0
    0.7611    2.9190   -2.2404 C   0  0  0  0  0  0  0  0  0  0  0  0
    1.2790   -1.2290    0.9021 H   0  0  0  0  0  0  0  0  0  0  0  0
    0.2380    0.7166    0.5130 H   0  0  0  0  0  0  0  0  0  0  0  0
   -0.9490    0.8597   -1.7301 H   0  0  0  0  0  0  0  0  0  0  0  0
   -0.7706   -0.8882   -1.8862 H   0  0  0  0  0  0  0  0  0  0  0  0
    1.0453    0.2788   -3.1279 H   0  0  0  0  0  0  0  0  0  0  0  0
    1.7428   -0.6300   -1.7756 H   0  0  0  0  0  0  0  0  0  0  0  0
    1.0578    3.9381   -1.9804 H   0  0  0  0  0  0  0  0  0  0  0  0
   -0.2760    2.7608   -1.9344 H   0  0  0  0  0  0  0  0  0  0  0  0
    0.8383    2.7893   -3.3226 H   0  0  0  0  0  0  0  0  0  0  0  0
   -1.7287   -0.0890    2.0526 N   0  0  0  0  0  0  0  0  0  0  0  0
   -2.9408   -0.0496    2.8367 C   0  0  2  0  0  0  0  0  0  0  0  0
   -2.6953    0.8551    4.0370 C   0  0  0  0  0  0  0  0  0  0  0  0
   -1.5726    1.0999    4.4739 O   0  0  0  0  0  0  0  0  0  0  0  0
   -3.3573   -1.4427    3.2821 C   0  0  0  0  0  0  0  0  0  0  0  0
   -0.8451   -0.1605    2.5483 H   0  0  0  0  0  0  0  0  0  0  0  0
   -3.7155    0.3905    2.1994 H   0  0  0  0  0  0  0  0  0  0  0  0
   -2.5934   -1.8997    3.9217 H   0  0  0  0  0  0  0  0  0  0  0  0
   -4.2917   -1.4142    3.8522 H   0  0  0  0  0  0  0  0  0  0  0  0
   -3.5046   -2.1003    2.4186 H   0  0  0  0  0  0  0  0  0  0  0  0
   -3.8796    1.3222    4.5894 N   0  0  0  0  0  0  0  0  0  0  0  0
   -3.9128    2.1883    5.7448 C   0  0  0  0  0  0  0  0  0  0  0  0
   -4.7640    1.0837    4.1503 H   0  0  0  0  0  0  0  0  0  0  0  0
   -4.0049    1.5803    6.6569 H   0  0  0  0  0  0  0  0  0  0  0  0
   -2.9843    2.7766    5.7886 H   0  0  0  0  0  0  0  0  0  0  0  0
   -4.7743    2.8680    5.6688 H   0  0  0  0  0  0  0  0  0  0  0  0
  1  3  1  0  0  0  0
  1  7  1  0  0  0  0
  1  2  2  0  0  0  0
 35 36  1  0  0  0  0
 36 44  1  0  0  0  0
 36 37  2  0  0  0  0
  8  9  1  0  0  0  0
  9 17  1  0  0  0  0
  9 10  2  0  0  0  0
 18 19  1  0  0  0  0
 19 34  1  0  0  0  0
 19 20  2  0  0  0  0
 35 38  1  0  0  0  0
  8 11  1  0  0  0  0
 44 45  1  0  0  0  0
 23 24  1  0  0  0  0
 21 22  1  0  0  0  0
 18 21  1  0  0  0  0
 22 23  1  0  0  0  0
 34 35  1  0  0  0  0
  7  8  1  0  0  0  0
 17 18  1  0  0  0  0
  3  4  1  0  0  0  0
  3  5  1  0  0  0  0
  3  6  1  0  0  0  0
 38 41  1  0  0  0  0
 38 42  1  0  0  0  0
 38 43  1  0  0  0  0
 11 14  1  0  0  0  0
 11 15  1  0  0  0  0
 11 16  1  0  0  0  0
 45 47  1  0  0  0  0
 45 48  1  0  0  0  0
 45 49  1  0  0  0  0
 24 31  1  0  0  0  0
 24 32  1  0  0  0  0
 24 33  1  0  0  0  0
 21 27  1  0  0  0  0
 21 28  1  0  0  0  0
 22 29  1  0  0  0  0
 22 30  1  0  0  0  0
 35 40  1  0  0  0  0
  8 13  1  0  0  0  0
 18 26  1  0  0  0  0
 44 46  1  0  0  0  0
  7 12  1  0  0  0  0
 34 39  1  0  0  0  0
 17 25  1  0  0  0  0
M  END
$$$$

  -OEChem-05262214473D

 49 48  0     1  0  0  0  0  0999 V2000
   -0.0561   -5.3799    2.6949 C   0  0  0  0  0  0  0  0  0  0  0  0
    0.7325   -5.0736    3.5815 O   0  0  0  0  0  0  0  0  0  0  0  0
   -1.0067   -6.5099    2.9135 C   0  0  0  0  0  0  0  0  0  0  0  0
   -0.5910   -7.4777    2.5899 H   0  0  0  0  0  0  0  0  0  0  0  0
   -1.2629   -6.6440    3.9767 H   0  0  0  0  0  0  0  0  0  0  0  0
   -1.9729   -6.4206    2.3918 H   0  0  0  0  0  0  0  0  0  0  0  0
   -0.1735   -4.7694    1.4571 N   0  0  0  0  0  0  0  0  0  0  0  0
    0.6439   -3.6603    1.0409 C   0  0  2  0  0  0  0  0  0  0  0  0
   -0.2788   -2.5625    0.5280 C   0  0  0  0  0  0  0  0  0  0  0  0
   -1.4197   -2.7791    0.1251 O   0  0  0  0  0  0  0  0  0  0  0  0
    1.6395   -4.0779   -0.0301 C   0  0  0  0  0  0  0  0  0  0  0  0
   -0.8741   -5.1235    0.8083 H   0  0  0  0  0  0  0  0  0  0  0  0
    1.1738   -3.3062    1.9318 H   0  0  0  0  0  0  0  0  0  0  0  0
    1.1270   -4.4358   -0.9305 H   0  0  0  0  0  0  0  0  0  0  0  0
    2.2797   -3.2400   -0.3251 H   0  0  0  0  0  0  0  0  0  0  0  0
    2.2827   -4.8880    0.3303 H   0  0  0  0  0  0  0  0  0  0  0  0
    0.3351   -1.3153    0.5316 N   0  0  0  0  0  0  0  0  0  0  0  0
   -0.3268   -0.1184    0.0807 C   0  0  2  0  0  0  0  0  0  0  0  0
   -1.7357   -0.0871    0.6651 C   0  0  0  0  0  0  0  0  0  0  0  0
   -2.7430   -0.3046   -0.0052 O   0  0  0  0  0  0  0  0  0  0  0  0
   -0.3140    0.0089   -1.4488 C   0  0  0  0  0  0  0  0  0  0  0  0
    1.0853    0.2044   -2.0371 C   0  0  0  0  0  0  0  0  0  0  0  0
    1.8360    1.7330   -1.4017 S   0  0  0  0  0  0  0  0  0  0  0  0
    0.7611    2.9190   -2.2404 C   0  0  0  0  0  0  0  0  0  0  0  0
    1.2790   -1.2290    0.9021 H   0  0  0  0  0  0  0  0  0  0  0  0
    0.2380    0.7166    0.5130 H   0  0  0  0  0  0  0  0  0  0  0  0
   -0.9490    0.8597   -1.7301 H   0  0  0  0  0  0  0  0  0  0  0  0
   -0.7706   -0.8882   -1.8862 H   0  0  0  0  0  0  0  0  0  0  0  0
    1.0453    0.2788   -3.1279 H   0  0  0  0  0  0  0  0  0  0  0  0
    1.7428   -0.6300   -1.7756 H   0  0  0  0  0  0  0  0  0  0  0  0
    1.0578    3.9381   -1.9804 H   0  0  0  0  0  0  0  0  0  0  0  0
   -0.2760    2.7608   -1.9344 H   0  0  0  0  0  0  0  0  0  0  0  0
    0.8383    2.7893   -3.3226 H   0  0  0  0  0  0  0  0  0  0  0  0
   -1.7379    0.2437    2.0126 N   0  0  0  0  0  0  0  0  0  0  0  0
   -2.9532    0.3501    2.7855 C   0  0  2  0  0  0  0  0  0  0  0  0
   -2.8072    1.5353    3.7307 C   0  0  0  0  0  0  0  0  0  0  0  0
   -1.7176    1.9869    4.0769 O   0  0  0  0  0  0  0  0  0  0  0  0
   -3.2315   -0.9300    3.5579 C   0  0  0  0  0  0  0  0  0  0  0  0
   -0.8549    0.3803    2.4956 H   0  0  0  0  0  0  0  0  0  0  0  0
   -3.7636    0.5464    2.0751 H   0  0  0  0  0  0  0  0  0  0  0  0
   -2.4301   -1.1432    4.2747 H   0  0  0  0  0  0  0  0  0  0  0  0
   -4.1680   -0.8581    4.1208 H   0  0  0  0  0  0  0  0  0  0  0  0
   -3.3066   -1.7863    2.8790 H   0  0  0  0  0  0  0  0  0  0  0  0
   -4.0360    2.0021    4.1761 N   0  0  0  0  0  0  0  0  0  0  0  0
   -4.1631    3.1118    5.0917 C   0  0  0  0  0  0  0  0  0  0  0  0
   -4.8891    1.5795    3.8221 H   0  0  0  0  0  0  0  0  0  0  0  0
   -4.2002    2.7337    6.1240 H   0  0  0  0  0  0  0  0  0  0  0  0
   -3.2984    3.7820    4.9776 H   0  0  0  0  0  0  0  0  0  0  0  0
   -5.0877    3.6653    4.8706 H   0  0  0  0  0  0  0  0  0  0  0  0
  1  3  1  0  0  0  0
  1  7  1  0  0  0  0
  1  2  2  0  0  0  0
 35 36  1  0  0  0  0
 36 44  1  0  0  0  0
 36 37  2  0  0  0  0
  8  9  1  0  0  0  0
  9 17  1  0  0  0  0
  9 10  2  0  0  0  0
 18 19  1  0  0  0  0
 19 34  1  0  0  0  0
 19 20  2  0  0  0  0
 35 38  1  0  0  0  0
  8 11  1  0  0  0  0
 44 45  1  0  0  0  0
 23 24  1  0  0  0  0
 21 22  1  0  0  0  0
 18 21  1  0  0  0  0
 22 23  1  0  0  0  0
 34 35  1  0  0  0  0
  7  8  1  0  0  0  0
 17 18  1  0  0  0  0
  3  4  1  0  0  0  0
  3  5  1  0  0  0  0
  3  6  1  0  0  0  0
 38 41  1  0  0  0  0
 38 42  1  0  0  0  0
 38 43  1  0  0  0  0
 11 14  1  0  0  0  0
 11 15  1  0  0  0  0
 11 16  1  0  0  0  0
 45 47  1  0  0  0  0
 45 48  1  0  0  0  0
 45 49  1  0  0  0  0
 24 31  1  0  0  0  0
 24 32  1  0  0  0  0
 24 33  1  0  0  0  0
 21 27  1  0  0  0  0
 21 28  1  0  0  0  0
 22 29  1  0  0  0  0
 22 30  1  0  0  0  0
 35 40  1  0  0  0  0
  8 13  1  0  0  0  0
 18 26  1  0  0  0  0
 44 46  1  0  0  0  0
  7 12  1  0  0  0  0
 34 39  1  0  0  0  0
 17 25  1  0  0  0  0
M  END
$$$$

  -OEChem-05262214473D

 49 48  0     1  0  0  0  0  0999 V2000
   -0.0561   -5.3799    2.6949 C   0  0  0  0  0  0  0  0  0  0  0  0
    0.7325   -5.0736    3.5815 O   0  0  0  0  0  0  0  0  0  0  0  0
   -1.0067   -6.5099    2.9135 C   0  0  0  0  0  0  0  0  0  0  0  0
   -0.5910   -7.4777    2.5899 H   0  0  0  0  0  0  0  0  0  0  0  0
   -1.2629   -6.6440    3.9767 H   0  0  0  0  0  0  0  0  0  0  0  0
   -1.9729   -6.4206    2.3918 H   0  0  0  0  0  0  0  0  0  0  0  0
   -0.1735   -4.7694    1.4571 N   0  0  0  0  0  0  0  0  0  0  0  0
    0.6439   -3.6603    1.0409 C   0  0  2  0  0  0  0  0  0  0  0  0
   -0.2788   -2.5625    0.5280 C   0  0  0  0  0  0  0  0  0  0  0  0
   -1.4197   -2.7791    0.1251 O   0  0  0  0  0  0  0  0  0  0  0  0
    1.6395   -4.0779   -0.0301 C   0  0  0  0  0  0  0  0  0  0  0  0
   -0.8741   -5.1235    0.8083 H   0  0  0  0  0  0  0  0  0  0  0  0
    1.1738   -3.3062    1.9318 H   0  0  0  0  0  0  0  0  0  0  0  0
    1.1270   -4.4358   -0.9305 H   0  0  0  0  0  0  0  0  0  0  0  0
    2.2797   -3.2400   -0.3251 H   0  0  0  0  0  0  0  0  0  0  0  0
    2.2827   -4.8880    0.3303 H   0  0  0  0  0  0  0  0  0  0  0  0
    0.3351   -1.3153    0.5316 N   0  0  0  0  0  0  0  0  0  0  0  0
   -0.3268   -0.1184    0.0807 C   0  0  2  0  0  0  0  0  0  0  0  0
   -1.7357   -0.0871    0.6651 C   0  0  0  0  0  0  0  0  0  0  0  0
   -2.7117   -0.5568    0.0837 O   0  0  0  0  0  0  0  0  0  0  0  0
   -0.3140    0.0089   -1.4488 C   0  0  0  0  0  0  0  0  0  0  0  0
    1.0853    0.2044   -2.0371 C   0  0  0  0  0  0  0  0  0  0  0  0
    1.8360    1.7330   -1.4017 S   0  0  0  0  0  0  0  0  0  0  0  0
    0.7611    2.9190   -2.2404 C   0  0  0  0  0  0  0  0  0  0  0  0
    1.2790   -1.2290    0.9021 H   0  0  0  0  0  0  0  0  0  0  0  0
    0.2380    0.7166    0.5130 H   0  0  0  0  0  0  0  0  0  0  0  0
   -0.9490    0.8597   -1.7301 H   0  0  0  0  0  0  0  0  0  0  0  0
   -0.7706   -0.8882   -1.8862 H   0  0  0  0  0  0  0  0  0  0  0  0
    1.0453    0.2788   -3.1279 H   0  0  0  0  0  0  0  0  0  0  0  0
    1.7428   -0.6300   -1.7756 H   0  0  0  0  0  0  0  0  0  0  0  0
    1.0578    3.9381   -1.9804 H   0  0  0  0  0  0  0  0  0  0  0  0
   -0.2760    2.7608   -1.9344 H   0  0  0  0  0  0  0  0  0  0  0  0
    0.8383    2.7893   -3.3226 H   0  0  0  0  0  0  0  0  0  0  0  0
   -1.7800    0.5547    1.8945 N   0  0  0  0  0  0  0  0  0  0  0  0
   -3.0050    0.7226    2.6406 C   0  0  2  0  0  0  0  0  0  0  0  0
   -2.9844    2.1080    3.2728 C   0  0  0  0  0  0  0  0  0  0  0  0
   -1.9476    2.7345    3.4822 O   0  0  0  0  0  0  0  0  0  0  0  0
   -3.1594   -0.3565    3.7010 C   0  0  0  0  0  0  0  0  0  0  0  0
   -0.9183    0.8892    2.3155 H   0  0  0  0  0  0  0  0  0  0  0  0
   -3.8262    0.6624    1.9181 H   0  0  0  0  0  0  0  0  0  0  0  0
   -2.3456   -0.3119    4.4340 H   0  0  0  0  0  0  0  0  0  0  0  0
   -4.1021   -0.2446    4.2467 H   0  0  0  0  0  0  0  0  0  0  0  0
   -3.1441   -1.3535    3.2476 H   0  0  0  0  0  0  0  0  0  0  0  0
   -4.2566    2.5445    3.6152 N   0  0  0  0  0  0  0  0  0  0  0  0
   -4.5000    3.8230    4.2414 C   0  0  0  0  0  0  0  0  0  0  0  0
   -5.0609    1.9676    3.3872 H   0  0  0  0  0  0  0  0  0  0  0  0
   -4.5062    3.7011    5.3346 H   0  0  0  0  0  0  0  0  0  0  0  0
   -3.7057    4.5282    3.9557 H   0  0  0  0  0  0  0  0  0  0  0  0
   -5.4736    4.2136    3.9106 H   0  0  0  0  0  0  0  0  0  0  0  0
  1  3  1  0  0  0  0
  1  7  1  0  0  0  0
  1  2  2  0  0  0  0
 35 36  1  0  0  0  0
 36 44  1  0  0  0  0
 36 37  2  0  0  0  0
  8  9  1  0  0  0  0
  9 17  1  0  0  0  0
  9 10  2  0  0  0  0
 18 19  1  0  0  0  0
 19 34  1  0  0  0  0
 19 20  2  0  0  0  0
 35 38  1  0  0  0  0
  8 11  1  0  0  0  0
 44 45  1  0  0  0  0
 23 24  1  0  0  0  0
 21 22  1  0  0  0  0
 18 21  1  0  0  0  0
 22 23  1  0  0  0  0
 34 35  1  0  0  0  0
  7  8  1  0  0  0  0
 17 18  1  0  0  0  0
  3  4  1  0  0  0  0
  3  5  1  0  0  0  0
  3  6  1  0  0  0  0
 38 41  1  0  0  0  0
 38 42  1  0  0  0  0
 38 43  1  0  0  0  0
 11 14  1  0  0  0  0
 11 15  1  0  0  0  0
 11 16  1  0  0  0  0
 45 47  1  0  0  0  0
 45 48  1  0  0  0  0
 45 49  1  0  0  0  0
 24 31  1  0  0  0  0
 24 32  1  0  0  0  0
 24 33  1  0  0  0  0
 21 27  1  0  0  0  0
 21 28  1  0  0  0  0
 22 29  1  0  0  0  0
 22 30  1  0  0  0  0
 35 40  1  0  0  0  0
  8 13  1  0  0  0  0
 18 26  1  0  0  0  0
 44 46  1  0  0  0  0
  7 12  1  0  0  0  0
 34 39  1  0  0  0  0
 17 25  1  0  0  0  0
M  END
$$$$

  -OEChem-05262214473D

 49 48  0     1  0  0  0  0  0999 V2000
   -0.0561   -5.3799    2.6949 C   0  0  0  0  0  0  0  0  0  0  0  0
    0.7325   -5.0736    3.5815 O   0  0  0  0  0  0  0  0  0  0  0  0
   -1.0067   -6.5099    2.9135 C   0  0  0  0  0  0  0  0  0  0  0  0
   -0.5910   -7.4777    2.5899 H   0  0  0  0  0  0  0  0  0  0  0  0
   -1.2629   -6.6440    3.9767 H   0  0  0  0  0  0  0  0  0  0  0  0
   -1.9729   -6.4206    2.3918 H   0  0  0  0  0  0  0  0  0  0  0  0
   -0.1735   -4.7694    1.4571 N   0  0  0  0  0  0  0  0  0  0  0  0
    0.6439   -3.6603    1.0409 C   0  0  2  0  0  0  0  0  0  0  0  0
   -0.2788   -2.5625    0.5280 C   0  0  0  0  0  0  0  0  0  0  0  0
   -1.4197   -2.7791    0.1251 O   0  0  0  0  0  0  0  0  0  0  0  0
    1.6395   -4.0779   -0.0301 C   0  0  0  0  0  0  0  0  0  0  0  0
   -0.8741   -5.1235    0.8083 H   0  0  0  0  0  0  0  0  0  0  0  0
    1.1738   -3.3062    1.9318 H   0  0  0  0  0  0  0  0  0  0  0  0
    1.1270   -4.4358   -0.9305 H   0  0  0  0  0  0  0  0  0  0  0  0
    2.2797   -3.2400   -0.3251 H   0  0  0  0  0  0  0  0  0  0  0  0
    2.2827   -4.8880    0.3303 H   0  0  0  0  0  0  0  0  0  0  0  0
    0.3351   -1.3153    0.5316 N   0  0  0  0  0  0  0  0  0  0  0  0
   -0.3268   -0.1184    0.0807 C   0  0  2  0  0  0  0  0  0  0  0  0
   -1.7357   -0.0871    0.6651 C   0  0  0  0  0  0  0  0  0  0  0  0
   -2.6560   -0.7760    0.2297 O   0  0  0  0  0  0  0  0  0  0  0  0
   -0.3140    0.0089   -1.4488 C   0  0  0  0  0  0  0  0  0  0  0  0
    1.0853    0.2044   -2.0371 C   0  0  0  0  0  0  0  0  0  0  0  0
    1.8360    1.7330   -1.4017 S   0  0  0  0  0  0  0  0  0  0  0  0
    0.7611    2.9190   -2.2404 C   0  0  0  0  0  0  0  0  0  0  0  0
    1.2790   -1.2290    0.9021 H   0  0  0  0  0  0  0  0  0  0  0  0
    0.2380    0.7166    0.5130 H   0  0  0  0  0  0  0  0  0  0  0  0
   -0.9490    0.8597   -1.7301 H   0  0  0  0  0  0  0  0  0  0  0  0
   -0.7706   -0.8882   -1.8862 H   0  0  0  0  0  0  0  0  0  0  0  0
    1.0453    0.2788   -3.1279 H   0  0  0  0  0  0  0  0  0  0  0  0
    1.7428   -0.6300   -1.7756 H   0  0  0  0  0  0  0  0  0  0  0  0
    1.0578    3.9381   -1.9804 H   0  0  0  0  0  0  0  0  0  0  0  0
   -0.2760    2.7608   -1.9344 H   0  0  0  0  0  0  0  0  0  0  0  0
    0.8383    2.7893   -3.3226 H   0  0  0  0  0  0  0  0  0  0  0  0
   -1.8521    0.8226    1.7063 N   0  0  0  0  0  0  0  0  0  0  0  0
   -3.0927    1.0427    2.4119 C   0  0  2  0  0  0  0  0  0  0  0  0
   -3.2147    2.5343    2.6946 C   0  0  0  0  0  0  0  0  0  0  0  0
   -2.2471    3.2916    2.7304 O   0  0  0  0  0  0  0  0  0  0  0  0
   -3.1458    0.2389    3.7018 C   0  0  0  0  0  0  0  0  0  0  0  0
   -1.0310    1.3314    2.0203 H   0  0  0  0  0  0  0  0  0  0  0  0
   -3.8989    0.7308    1.7390 H   0  0  0  0  0  0  0  0  0  0  0  0
   -2.3455    0.5375    4.3887 H   0  0  0  0  0  0  0  0  0  0  0  0
   -4.0987    0.3847    4.2213 H   0  0  0  0  0  0  0  0  0  0  0  0
   -3.0280   -0.8311    3.4993 H   0  0  0  0  0  0  0  0  0  0  0  0
   -4.5264    2.9124    2.9449 N   0  0  0  0  0  0  0  0  0  0  0  0
   -4.9004    4.2733    3.2519 C   0  0  0  0  0  0  0  0  0  0  0  0
   -5.2676    2.2214    2.8752 H   0  0  0  0  0  0  0  0  0  0  0  0
   -4.9018    4.4166    4.3426 H   0  0  0  0  0  0  0  0  0  0  0  0
   -4.1785    4.9644    2.7923 H   0  0  0  0  0  0  0  0  0  0  0  0
   -5.9059    4.4756    2.8544 H   0  0  0  0  0  0  0  0  0  0  0  0
  1  3  1  0  0  0  0
  1  7  1  0  0  0  0
  1  2  2  0  0  0  0
 35 36  1  0  0  0  0
 36 44  1  0  0  0  0
 36 37  2  0  0  0  0
  8  9  1  0  0  0  0
  9 17  1  0  0  0  0
  9 10  2  0  0  0  0
 18 19  1  0  0  0  0
 19 34  1  0  0  0  0
 19 20  2  0  0  0  0
 35 38  1  0  0  0  0
  8 11  1  0  0  0  0
 44 45  1  0  0  0  0
 23 24  1  0  0  0  0
 21 22  1  0  0  0  0
 18 21  1  0  0  0  0
 22 23  1  0  0  0  0
 34 35  1  0  0  0  0
  7  8  1  0  0  0  0
 17 18  1  0  0  0  0
  3  4  1  0  0  0  0
  3  5  1  0  0  0  0
  3  6  1  0  0  0  0
 38 41  1  0  0  0  0
 38 42  1  0  0  0  0
 38 43  1  0  0  0  0
 11 14  1  0  0  0  0
 11 15  1  0  0  0  0
 11 16  1  0  0  0  0
 45 47  1  0  0  0  0
 45 48  1  0  0  0  0
 45 49  1  0  0  0  0
 24 31  1  0  0  0  0
 24 32  1  0  0  0  0
 24 33  1  0  0  0  0
 21 27  1  0  0  0  0
 21 28  1  0  0  0  0
 22 29  1  0  0  0  0
 22 30  1  0  0  0  0
 35 40  1  0  0  0  0
  8 13  1  0  0  0  0
 18 26  1  0  0  0  0
 44 46  1  0  0  0  0
  7 12  1  0  0  0  0
 34 39  1  0  0  0  0
 17 25  1  0  0  0  0
M  END
$$$$

  -OEChem-05262214473D

 49 48  0     1  0  0  0  0  0999 V2000
   -0.0561   -5.3799    2.6949 C   0  0  0  0  0  0  0  0  0  0  0  0
    0.7325   -5.0736    3.5815 O   0  0  0  0  0  0  0  0  0  0  0  0
   -1.0067   -6.5099    2.9135 C   0  0  0  0  0  0  0  0  0  0  0  0
   -0.5910   -7.4777    2.5899 H   0  0  0  0  0  0  0  0  0  0  0  0
   -1.2629   -6.6440    3.9767 H   0  0  0  0  0  0  0  0  0  0  0  0
   -1.9729   -6.4206    2.3918 H   0  0  0  0  0  0  0  0  0  0  0  0
   -0.1735   -4.7694    1.4571 N   0  0  0  0  0  0  0  0  0  0  0  0
    0.6439   -3.6603    1.0409 C   0  0  2  0  0  0  0  0  0  0  0  0
   -0.2788   -2.5625    0.5280 C   0  0  0  0  0  0  0  0  0  0  0  0
   -1.4197   -2.7791    0.1251 O   0  0  0  0  0  0  0  0  0  0  0  0
    1.6395   -4.0779   -0.0301 C   0  0  0  0  0  0  0  0  0  0  0  0
   -0.8741   -5.1235    0.8083 H   0  0  0  0  0  0  0  0  0  0  0  0
    1.1738   -3.3062    1.9318 H   0  0  0  0  0  0  0  0  0  0  0  0
    1.1270   -4.4358   -0.9305 H   0  0  0  0  0  0  0  0  0  0  0  0
    2.2797   -3.2400   -0.3251 H   0  0  0  0  0  0  0  0  0  0  0  0
    2.2827   -4.8880    0.3303 H   0  0  0  0  0  0  0  0  0  0  0  0
    0.3351   -1.3153    0.5316 N   0  0  0  0  0  0  0  0  0  0  0  0
   -0.3268   -0.1184    0.0807 C   0  0  2  0  0  0  0  0  0  0  0  0
   -1.7357   -0.0871    0.6651 C   0  0  0  0  0  0  0  0  0  0  0  0
   -2.5797   -0.9474    0.4229 O   0  0  0  0  0  0  0  0  0  0  0  0
   -0.3140    0.0089   -1.4488 C   0  0  0  0  0  0  0  0  0  0  0  0
    1.0853    0.2044   -2.0371 C   0  0  0  0  0  0  0  0  0  0  0  0
    1.8360    1.7330   -1.4017 S   0  0  0  0  0  0  0  0  0  0  0  0
    0.7611    2.9190   -2.2404 C   0  0  0  0  0  0  0  0  0  0  0  0
    1.2790   -1.2290    0.9021 H   0  0  0  0  0  0  0  0  0  0  0  0
    0.2380    0.7166    0.5130 H   0  0  0  0  0  0  0  0  0  0  0  0
   -0.9490    0.8597   -1.7301 H   0  0  0  0  0  0  0  0  0  0  0  0
   -0.7706   -0.8882   -1.8862 H   0  0  0  0  0  0  0  0  0  0  0  0
    1.0453    0.2788   -3.1279 H   0  0  0  0  0  0  0  0  0  0  0  0
    1.7428   -0.6300   -1.7756 H   0  0  0  0  0  0  0  0  0  0  0  0
    1.0578    3.9381   -1.9804 H   0  0  0  0  0  0  0  0  0  0  0  0
   -0.2760    2.7608   -1.9344 H   0  0  0  0  0  0  0  0  0  0  0  0
    0.8383    2.7893   -3.3226 H   0  0  0  0  0  0  0  0  0  0  0  0
   -1.9493    1.0293    1.4609 N   0  0  0  0  0  0  0  0  0  0  0  0
   -3.2104    1.2886    2.1150 C   0  0  2  0  0  0  0  0  0  0  0  0
   -3.4826    2.7849    2.0355 C   0  0  0  0  0  0  0  0  0  0  0  0
   -2.5956    3.6203    1.8726 O   0  0  0  0  0  0  0  0  0  0  0  0
   -3.1917    0.8155    3.5602 C   0  0  0  0  0  0  0  0  0  0  0  0
   -1.1852    1.6767    1.6300 H   0  0  0  0  0  0  0  0  0  0  0  0
   -3.9769    0.7469    1.5501 H   0  0  0  0  0  0  0  0  0  0  0  0
   -2.4298    1.3471    4.1419 H   0  0  0  0  0  0  0  0  0  0  0  0
   -4.1579    0.9868    4.0463 H   0  0  0  0  0  0  0  0  0  0  0  0
   -2.9664   -0.2549    3.6170 H   0  0  0  0  0  0  0  0  0  0  0  0
   -4.8271    3.0809    2.2110 N   0  0  0  0  0  0  0  0  0  0  0  0
   -5.3371    4.4320    2.1907 C   0  0  0  0  0  0  0  0  0  0  0  0
   -5.4952    2.3237    2.3212 H   0  0  0  0  0  0  0  0  0  0  0  0
   -5.3601    4.8313    3.2154 H   0  0  0  0  0  0  0  0  0  0  0  0
   -4.6847    5.0607    1.5669 H   0  0  0  0  0  0  0  0  0  0  0  0
   -6.3551    4.4333    1.7739 H   0  0  0  0  0  0  0  0  0  0  0  0
  1  3  1  0  0  0  0
  1  7  1  0  0  0  0
  1  2  2  0  0  0  0
 35 36  1  0  0  0  0
 36 44  1  0  0  0  0
 36 37  2  0  0  0  0
  8  9  1  0  0  0  0
  9 17  1  0  0  0  0
  9 10  2  0  0  0  0
 18 19  1  0  0  0  0
 19 34  1  0  0  0  0
 19 20  2  0  0  0  0
 35 38  1  0  0  0  0
  8 11  1  0  0  0  0
 44 45  1  0  0  0  0
 23 24  1  0  0  0  0
 21 22  1  0  0  0  0
 18 21  1  0  0  0  0
 22 23  1  0  0  0  0
 34 35  1  0  0  0  0
  7  8  1  0  0  0  0
 17 18  1  0  0  0  0
  3  4  1  0  0  0  0
  3  5  1  0  0  0  0
  3  6  1  0  0  0  0
 38 41  1  0  0  0  0
 38 42  1  0  0  0  0
 38 43  1  0  0  0  0
 11 14  1  0  0  0  0
 11 15  1  0  0  0  0
 11 16  1  0  0  0  0
 45 47  1  0  0  0  0
 45 48  1  0  0  0  0
 45 49  1  0  0  0  0
 24 31  1  0  0  0  0
 24 32  1  0  0  0  0
 24 33  1  0  0  0  0
 21 27  1  0  0  0  0
 21 28  1  0  0  0  0
 22 29  1  0  0  0  0
 22 30  1  0  0  0  0
 35 40  1  0  0  0  0
  8 13  1  0  0  0  0
 18 26  1  0  0  0  0
 44 46  1  0  0  0  0
  7 12  1  0  0  0  0
 34 39  1  0  0  0  0
 17 25  1  0  0  0  0
M  END
$$$$

  -OEChem-05262214473D

 49 48  0     1  0  0  0  0  0999 V2000
   -0.0561   -5.3799    2.6949 C   0  0  0  0  0  0  0  0  0  0  0  0
    0.7325   -5.0736    3.5815 O   0  0  0  0  0  0  0  0  0  0  0  0
   -1.0067   -6.5099    2.9135 C   0  0  0  0  0  0  0  0  0  0  0  0
   -0.5910   -7.4777    2.5899 H   0  0  0  0  0  0  0  0  0  0  0  0
   -1.2629   -6.6440    3.9767 H   0  0  0  0  0  0  0  0  0  0  0  0
   -1.9729   -6.4206    2.3918 H   0  0  0  0  0  0  0  0  0  0  0  0
   -0.1735   -4.7694    1.4571 N   0  0  0  0  0  0  0  0  0  0  0  0
    0.6439   -3.6603    1.0409 C   0  0  2  0  0  0  0  0  0  0  0  0
   -0.2788   -2.5625    0.5280 C   0  0  0  0  0  0  0  0  0  0  0  0
   -1.4197   -2.7791    0.1251 O   0  0  0  0  0  0  0  0  0  0  0  0
    1.6395   -4.0779   -0.0301 C   0  0  0  0  0  0  0  0  0  0  0  0
   -0.8741   -5.1235    0.8083 H   0  0  0  0  0  0  0  0  0  0  0  0
    1.1738   -3.3062    1.9318 H   0  0  0  0  0  0  0  0  0  0  0  0
    1.1270   -4.4358   -0.9305 H   0  0  0  0  0  0  0  0  0  0  0  0
    2.2797   -3.2400   -0.3251 H   0  0  0  0  0  0  0  0  0  0  0  0
    2.2827   -4.8880    0.3303 H   0  0  0  0  0  0  0  0  0  0  0  0
    0.3351   -1.3153    0.5316 N   0  0  0  0  0  0  0  0  0  0  0  0
   -0.3268   -0.1184    0.0807 C   0  0  2  0  0  0  0  0  0  0  0  0
   -1.7357   -0.0871    0.6651 C   0  0  0  0  0  0  0  0  0  0  0  0
   -2.4880   -1.0592    0.6500 O   0  0  0  0  0  0  0  0  0  0  0  0
   -0.3140    0.0089   -1.4488 C   0  0  0  0  0  0  0  0  0  0  0  0
    1.0853    0.2044   -2.0371 C   0  0  0  0  0  0  0  0  0  0  0  0
    1.8360    1.7330   -1.4017 S   0  0  0  0  0  0  0  0  0  0  0  0
    0.7611    2.9190   -2.2404 C   0  0  0  0  0  0  0  0  0  0  0  0
    1.2790   -1.2290    0.9021 H   0  0  0  0  0  0  0  0  0  0  0  0
    0.2380    0.7166    0.5130 H   0  0  0  0  0  0  0  0  0  0  0  0
   -0.9490    0.8597   -1.7301 H   0  0  0  0  0  0  0  0  0  0  0  0
   -0.7706   -0.8882   -1.8862 H   0  0  0  0  0  0  0  0  0  0  0  0
    1.0453    0.2788   -3.1279 H   0  0  0  0  0  0  0  0  0  0  0  0
    1.7428   -0.6300   -1.7756 H   0  0  0  0  0  0  0  0  0  0  0  0
    1.0578    3.9381   -1.9804 H   0  0  0  0  0  0  0  0  0  0  0  0
   -0.2760    2.7608   -1.9344 H   0  0  0  0  0  0  0  0  0  0  0  0
    0.8383    2.7893   -3.3226 H   0  0  0  0  0  0  0  0  0  0  0  0
   -2.0650    1.1607    1.1749 N   0  0  0  0  0  0  0  0  0  0  0  0
   -3.3501    1.4434    1.7700 C   0  0  2  0  0  0  0  0  0  0  0  0
   -3.7697    2.8430    1.3403 C   0  0  0  0  0  0  0  0  0  0  0  0
   -2.9694    3.6983    0.9673 O   0  0  0  0  0  0  0  0  0  0  0  0
   -3.2940    1.3341    3.2858 C   0  0  0  0  0  0  0  0  0  0  0  0
   -1.3704    1.9018    1.1713 H   0  0  0  0  0  0  0  0  0  0  0  0
   -4.0549    0.7095    1.3642 H   0  0  0  0  0  0  0  0  0  0  0  0
   -2.5929    2.0619    3.7105 H   0  0  0  0  0  0  0  0  0  0  0  0
   -4.2757    1.5207    3.7336 H   0  0  0  0  0  0  0  0  0  0  0  0
   -2.9634    0.3360    3.5926 H   0  0  0  0  0  0  0  0  0  0  0  0
   -5.1382    3.0384    1.4634 N   0  0  0  0  0  0  0  0  0  0  0  0
   -5.7803    4.2884    1.1299 C   0  0  0  0  0  0  0  0  0  0  0  0
   -5.7281    2.2676    1.7628 H   0  0  0  0  0  0  0  0  0  0  0  0
   -5.8499    4.9170    2.0300 H   0  0  0  0  0  0  0  0  0  0  0  0
   -5.1897    4.8107    0.3629 H   0  0  0  0  0  0  0  0  0  0  0  0
   -6.7905    4.0896    0.7426 H   0  0  0  0  0  0  0  0  0  0  0  0
  1  3  1  0  0  0  0
  1  7  1  0  0  0  0
  1  2  2  0  0  0  0
 35 36  1  0  0  0  0
 36 44  1  0  0  0  0
 36 37  2  0  0  0  0
  8  9  1  0  0  0  0
  9 17  1  0  0  0  0
  9 10  2  0  0  0  0
 18 19  1  0  0  0  0
 19 34  1  0  0  0  0
 19 20  2  0  0  0  0
 35 38  1  0  0  0  0
  8 11  1  0  0  0  0
 44 45  1  0  0  0  0
 23 24  1  0  0  0  0
 21 22  1  0  0  0  0
 18 21  1  0  0  0  0
 22 23  1  0  0  0  0
 34 35  1  0  0  0  0
  7  8  1  0  0  0  0
 17 18  1  0  0  0  0
  3  4  1  0  0  0  0
  3  5  1  0  0  0  0
  3  6  1  0  0  0  0
 38 41  1  0  0  0  0
 38 42  1  0  0  0  0
 38 43  1  0  0  0  0
 11 14  1  0  0  0  0
 11 15  1  0  0  0  0
 11 16  1  0  0  0  0
 45 47  1  0  0  0  0
 45 48  1  0  0  0  0
 45 49  1  0  0  0  0
 24 31  1  0  0  0  0
 24 32  1  0  0  0  0
 24 33  1  0  0  0  0
 21 27  1  0  0  0  0
 21 28  1  0  0  0  0
 22 29  1  0  0  0  0
 22 30  1  0  0  0  0
 35 40  1  0  0  0  0
  8 13  1  0  0  0  0
 18 26  1  0  0  0  0
 44 46  1  0  0  0  0
  7 12  1  0  0  0  0
 34 39  1  0  0  0  0
 17 25  1  0  0  0  0
M  END
$$$$

  -OEChem-05262214473D

 49 48  0     1  0  0  0  0  0999 V2000
   -0.0561   -5.3799    2.6949 C   0  0  0  0  0  0  0  0  0  0  0  0
    0.7325   -5.0736    3.5815 O   0  0  0  0  0  0  0  0  0  0  0  0
   -1.0067   -6.5099    2.9135 C   0  0  0  0  0  0  0  0  0  0  0  0
   -0.5910   -7.4777    2.5899 H   0  0  0  0  0  0  0  0  0  0  0  0
   -1.2629   -6.6440    3.9767 H   0  0  0  0  0  0  0  0  0  0  0  0
   -1.9729   -6.4206    2.3918 H   0  0  0  0  0  0  0  0  0  0  0  0
   -0.1735   -4.7694    1.4571 N   0  0  0  0  0  0  0  0  0  0  0  0
    0.6439   -3.6603    1.0409 C   0  0  2  0  0  0  0  0  0  0  0  0
   -0.2788   -2.5625    0.5280 C   0  0  0  0  0  0  0  0  0  0  0  0
   -1.4197   -2.7791    0.1251 O   0  0  0  0  0  0  0  0  0  0  0  0
    1.6395   -4.0779   -0.0301 C   0  0  0  0  0  0  0  0  0  0  0  0
   -0.8741   -5.1235    0.8083 H   0  0  0  0  0  0  0  0  0  0  0  0
    1.1738   -3.3062    1.9318 H   0  0  0  0  0  0  0  0  0  0  0  0
    1.1270   -4.4358   -0.9305 H   0  0  0  0  0  0  0  0  0  0  0  0
    2.2797   -3.2400   -0.3251 H   0  0  0  0  0  0  0  0  0  0  0  0
    2.2827   -4.8880    0.3303 H   0  0  0  0  0  0  0  0  0  0  0  0
    0.3351   -1.3153    0.5316 N   0  0  0  0  0  0  0  0  0  0  0  0
   -0.3268   -0.1184    0.0807 C   0  0  2  0  0  0  0  0  0  0  0  0
   -1.7357   -0.0871    0.6651 C   0  0  0  0  0  0  0  0  0  0  0  0
   -2.3871   -1.1038    0.8956 O   0  0  0  0  0  0  0  0  0  0  0  0
   -0.3140    0.0089   -1.4488 C   0  0  0  0  0  0  0  0  0  0  0  0
    1.0853    0.2044   -2.0371 C   0  0  0  0  0  0  0  0  0  0  0  0
    1.8360    1.7330   -1.4017 S   0  0  0  0  0  0  0  0  0  0  0  0
    0.7611    2.9190   -2.2404 C   0  0  0  0  0  0  0  0  0  0  0  0
    1.2790   -1.2290    0.9021 H   0  0  0  0  0  0  0  0  0  0  0  0
    0.2380    0.7166    0.5130 H   0  0  0  0  0  0  0  0  0  0  0  0
   -0.9490    0.8597   -1.7301 H   0  0  0  0  0  0  0  0  0  0  0  0
   -0.7706   -0.8882   -1.8862 H   0  0  0  0  0  0  0  0  0  0  0  0
    1.0453    0.2788   -3.1279 H   0  0  0  0  0  0  0  0  0  0  0  0
    1.7428   -0.6300   -1.7756 H   0  0  0  0  0  0  0  0  0  0  0  0
    1.0578    3.9381   -1.9804 H   0  0  0  0  0  0  0  0  0  0  0  0
   -0.2760    2.7608   -1.9344 H   0  0  0  0  0  0  0  0  0  0  0  0
    0.8383    2.7893   -3.3226 H   0  0  0  0  0  0  0  0  0  0  0  0
   -2.1913    1.2077    0.8679 N   0  0  0  0  0  0  0  0  0  0  0  0
   -3.5022    1.4966    1.4005 C   0  0  2  0  0  0  0  0  0  0  0  0
   -4.0564    2.7044    0.6564 C   0  0  0  0  0  0  0  0  0  0  0  0
   -3.3430    3.5201    0.0762 O   0  0  0  0  0  0  0  0  0  0  0  0
   -3.4457    1.7593    2.8974 C   0  0  0  0  0  0  0  0  0  0  0  0
   -1.5742    1.9911    0.6754 H   0  0  0  0  0  0  0  0  0  0  0  0
   -4.1274    0.6212    1.1940 H   0  0  0  0  0  0  0  0  0  0  0  0
   -2.8236    2.6329    3.1238 H   0  0  0  0  0  0  0  0  0  0  0  0
   -4.4441    1.9500    3.3047 H   0  0  0  0  0  0  0  0  0  0  0  0
   -3.0192    0.9011    3.4278 H   0  0  0  0  0  0  0  0  0  0  0  0
   -5.4384    2.7878    0.7531 N   0  0  0  0  0  0  0  0  0  0  0  0
   -6.1998    3.8522    0.1420 C   0  0  0  0  0  0  0  0  0  0  0  0
   -5.9504    2.0568    1.2380 H   0  0  0  0  0  0  0  0  0  0  0  0
   -6.3378    4.6679    0.8670 H   0  0  0  0  0  0  0  0  0  0  0  0
   -5.6591    4.2313   -0.7377 H   0  0  0  0  0  0  0  0  0  0  0  0
   -7.1825    3.4680   -0.1690 H   0  0  0  0  0  0  0  0  0  0  0  0
  1  3  1  0  0  0  0
  1  7  1  0  0  0  0
  1  2  2  0  0  0  0
 35 36  1  0  0  0  0
 36 44  1  0  0  0  0
 36 37  2  0  0  0  0
  8  9  1  0  0  0  0
  9 17  1  0  0  0  0
  9 10  2  0  0  0  0
 18 19  1  0  0  0  0
 19 34  1  0  0  0  0
 19 20  2  0  0  0  0
 35 38  1  0  0  0  0
  8 11  1  0  0  0  0
 44 45  1  0  0  0  0
 23 24  1  0  0  0  0
 21 22  1  0  0  0  0
 18 21  1  0  0  0  0
 22 23  1  0  0  0  0
 34 35  1  0  0  0  0
  7  8  1  0  0  0  0
 17 18  1  0  0  0  0
  3  4  1  0  0  0  0
  3  5  1  0  0  0  0
  3  6  1  0  0  0  0
 38 41  1  0  0  0  0
 38 42  1  0  0  0  0
 38 43  1  0  0  0  0
 11 14  1  0  0  0  0
 11 15  1  0  0  0  0
 11 16  1  0  0  0  0
 45 47  1  0  0  0  0
 45 48  1  0  0  0  0
 45 49  1  0  0  0  0
 24 31  1  0  0  0  0
 24 32  1  0  0  0  0
 24 33  1  0  0  0  0
 21 27  1  0  0  0  0
 21 28  1  0  0  0  0
 22 29  1  0  0  0  0
 22 30  1  0  0  0  0
 35 40  1  0  0  0  0
  8 13  1  0  0  0  0
 18 26  1  0  0  0  0
 44 46  1  0  0  0  0
  7 12  1  0  0  0  0
 34 39  1  0  0  0  0
 17 25  1  0  0  0  0
M  END
$$$$

  -OEChem-05262214473D

 49 48  0     1  0  0  0  0  0999 V2000
   -0.0561   -5.3799    2.6949 C   0  0  0  0  0  0  0  0  0  0  0  0
    0.7325   -5.0736    3.5815 O   0  0  0  0  0  0  0  0  0  0  0  0
   -1.0067   -6.5099    2.9135 C   0  0  0  0  0  0  0  0  0  0  0  0
   -0.5910   -7.4777    2.5899 H   0  0  0  0  0  0  0  0  0  0  0  0
   -1.2629   -6.6440    3.9767 H   0  0  0  0  0  0  0  0  0  0  0  0
   -1.9729   -6.4206    2.3918 H   0  0  0  0  0  0  0  0  0  0  0  0
   -0.1735   -4.7694    1.4571 N   0  0  0  0  0  0  0  0  0  0  0  0
    0.6439   -3.6603    1.0409 C   0  0  2  0  0  0  0  0  0  0  0  0
   -0.2788   -2.5625    0.5280 C   0  0  0  0  0  0  0  0  0  0  0  0
   -1.4197   -2.7791    0.1251 O   0  0  0  0  0  0  0  0  0  0  0  0
    1.6395   -4.0779   -0.0301 C   0  0  0  0  0  0  0  0  0  0  0  0
   -0.8741   -5.1235    0.8083 H   0  0  0  0  0  0  0  0  0  0  0  0
    1.1738   -3.3062    1.9318 H   0  0  0  0  0  0  0  0  0  0  0  0
    1.1270   -4.4358   -0.9305 H   0  0  0  0  0  0  0  0  0  0  0  0
    2.2797   -3.2400   -0.3251 H   0  0  0  0  0  0  0  0  0  0  0  0
    2.2827   -4.8880    0.3303 H   0  0  0  0  0  0  0  0  0  0  0  0
    0.3351   -1.3153    0.5316 N   0  0  0  0  0  0  0  0  0  0  0  0
   -0.3268   -0.1184    0.0807 C   0  0  2  0  0  0  0  0  0  0  0  0
   -1.7357   -0.0871    0.6651 C   0  0  0  0  0  0  0  0  0  0  0  0
   -2.2839   -1.0782    1.1430 O   0  0  0  0  0  0  0  0  0  0  0  0
   -0.3140    0.0089   -1.4488 C   0  0  0  0  0  0  0  0  0  0  0  0
    1.0853    0.2044   -2.0371 C   0  0  0  0  0  0  0  0  0  0  0  0
    1.8360    1.7330   -1.4017 S   0  0  0  0  0  0  0  0  0  0  0  0
    0.7611    2.9190   -2.2404 C   0  0  0  0  0  0  0  0  0  0  0  0
    1.2790   -1.2290    0.9021 H   0  0  0  0  0  0  0  0  0  0  0  0
    0.2380    0.7166    0.5130 H   0  0  0  0  0  0  0  0  0  0  0  0
   -0.9490    0.8597   -1.7301 H   0  0  0  0  0  0  0  0  0  0  0  0
   -0.7706   -0.8882   -1.8862 H   0  0  0  0  0  0  0  0  0  0  0  0
    1.0453    0.2788   -3.1279 H   0  0  0  0  0  0  0  0  0  0  0  0
    1.7428   -0.6300   -1.7756 H   0  0  0  0  0  0  0  0  0  0  0  0
    1.0578    3.9381   -1.9804 H   0  0  0  0  0  0  0  0  0  0  0  0
   -0.2760    2.7608   -1.9344 H   0  0  0  0  0  0  0  0  0  0  0  0
    0.8383    2.7893   -3.3226 H   0  0  0  0  0  0  0  0  0  0  0  0
   -2.3196    1.1673    0.5608 N   0  0  0  0  0  0  0  0  0  0  0  0
   -3.6563    1.4447    1.0317 C   0  0  2  0  0  0  0  0  0  0  0  0
   -4.3233    2.3786    0.0306 C   0  0  0  0  0  0  0  0  0  0  0  0
   -3.6909    3.0980   -0.7400 O   0  0  0  0  0  0  0  0  0  0  0  0
   -3.6364    2.0621    2.4213 C   0  0  0  0  0  0  0  0  0  0  0  0
   -1.7824    1.9387    0.1761 H   0  0  0  0  0  0  0  0  0  0  0  0
   -4.1897    0.4880    1.0511 H   0  0  0  0  0  0  0  0  0  0  0  0
   -3.1061    3.0215    2.4218 H   0  0  0  0  0  0  0  0  0  0  0  0
   -4.6515    2.2455    2.7886 H   0  0  0  0  0  0  0  0  0  0  0  0
   -3.1300    1.4021    3.1339 H   0  0  0  0  0  0  0  0  0  0  0  0
   -5.7073    2.3462    0.1285 N   0  0  0  0  0  0  0  0  0  0  0  0
   -6.5670    3.1531   -0.7057 C   0  0  0  0  0  0  0  0  0  0  0  0
   -6.1471    1.7057    0.7827 H   0  0  0  0  0  0  0  0  0  0  0  0
   -6.7906    4.1009   -0.1942 H   0  0  0  0  0  0  0  0  0  0  0  0
   -6.0609    3.3621   -1.6598 H   0  0  0  0  0  0  0  0  0  0  0  0
   -7.5043    2.6108   -0.8989 H   0  0  0  0  0  0  0  0  0  0  0  0
  1  3  1  0  0  0  0
  1  7  1  0  0  0  0
  1  2  2  0  0  0  0
 35 36  1  0  0  0  0
 36 44  1  0  0  0  0
 36 37  2  0  0  0  0
  8  9  1  0  0  0  0
  9 17  1  0  0  0  0
  9 10  2  0  0  0  0
 18 19  1  0  0  0  0
 19 34  1  0  0  0  0
 19 20  2  0  0  0  0
 35 38  1  0  0  0  0
  8 11  1  0  0  0  0
 44 45  1  0  0  0  0
 23 24  1  0  0  0  0
 21 22  1  0  0  0  0
 18 21  1  0  0  0  0
 22 23  1  0  0  0  0
 34 35  1  0  0  0  0
  7  8  1  0  0  0  0
 17 18  1  0  0  0  0
  3  4  1  0  0  0  0
  3  5  1  0  0  0  0
  3  6  1  0  0  0  0
 38 41  1  0  0  0  0
 38 42  1  0  0  0  0
 38 43  1  0  0  0  0
 11 14  1  0  0  0  0
 11 15  1  0  0  0  0
 11 16  1  0  0  0  0
 45 47  1  0  0  0  0
 45 48  1  0  0  0  0
 45 49  1  0  0  0  0
 24 31  1  0  0  0  0
 24 32  1  0  0  0  0
 24 33  1  0  0  0  0
 21 27  1  0  0  0  0
 21 28  1  0  0  0  0
 22 29  1  0  0  0  0
 22 30  1  0  0  0  0
 35 40  1  0  0  0  0
  8 13  1  0  0  0  0
 18 26  1  0  0  0  0
 44 46  1  0  0  0  0
  7 12  1  0  0  0  0
 34 39  1  0  0  0  0
 17 25  1  0  0  0  0
M  END
$$$$

  -OEChem-05262214473D

 49 48  0     1  0  0  0  0  0999 V2000
   -0.0561   -5.3799    2.6949 C   0  0  0  0  0  0  0  0  0  0  0  0
    0.7325   -5.0736    3.5815 O   0  0  0  0  0  0  0  0  0  0  0  0
   -1.0067   -6.5099    2.9135 C   0  0  0  0  0  0  0  0  0  0  0  0
   -0.5910   -7.4777    2.5899 H   0  0  0  0  0  0  0  0  0  0  0  0
   -1.2629   -6.6440    3.9767 H   0  0  0  0  0  0  0  0  0  0  0  0
   -1.9729   -6.4206    2.3918 H   0  0  0  0  0  0  0  0  0  0  0  0
   -0.1735   -4.7694    1.4571 N   0  0  0  0  0  0  0  0  0  0  0  0
    0.6439   -3.6603    1.0409 C   0  0  2  0  0  0  0  0  0  0  0  0
   -0.2788   -2.5625    0.5280 C   0  0  0  0  0  0  0  0  0  0  0  0
   -1.4197   -2.7791    0.1251 O   0  0  0  0  0  0  0  0  0  0  0  0
    1.6395   -4.0779   -0.0301 C   0  0  0  0  0  0  0  0  0  0  0  0
   -0.8741   -5.1235    0.8083 H   0  0  0  0  0  0  0  0  0  0  0  0
    1.1738   -3.3062    1.9318 H   0  0  0  0  0  0  0  0  0  0  0  0
    1.1270   -4.4358   -0.9305 H   0  0  0  0  0  0  0  0  0  0  0  0
    2.2797   -3.2400   -0.3251 H   0  0  0  0  0  0  0  0  0  0  0  0
    2.2827   -4.8880    0.3303 H   0  0  0  0  0  0  0  0  0  0  0  0
    0.3351   -1.3153    0.5316 N   0  0  0  0  0  0  0  0  0  0  0  0
   -0.3268   -0.1184    0.0807 C   0  0  2  0  0  0  0  0  0  0  0  0
   -1.5671    0.1094    0.9393 C   0  0  0  0  0  0  0  0  0  0  0  0
   -1.9096   -0.6577    1.8368 O   0  0  0  0  0  0  0  0  0  0  0  0
   -0.6422   -0.1620   -1.4207 C   0  0  0  0  0  0  0  0  0  0  0  0
    0.6034   -0.1650   -2.3101 C   0  0  0  0  0  0  0  0  0  0  0  0
    1.5776    1.3469   -2.0474 S   0  0  0  0  0  0  0  0  0  0  0  0
    0.4277    2.5292   -2.7860 C   0  0  0  0  0  0  0  0  0  0  0  0
    1.2790   -1.2290    0.9021 H   0  0  0  0  0  0  0  0  0  0  0  0
    0.3747    0.7022    0.2743 H   0  0  0  0  0  0  0  0  0  0  0  0
   -1.2642    0.7086   -1.6687 H   0  0  0  0  0  0  0  0  0  0  0  0
   -1.2437   -1.0550   -1.6341 H   0  0  0  0  0  0  0  0  0  0  0  0
    0.3295   -0.2077   -3.3685 H   0  0  0  0  0  0  0  0  0  0  0  0
    1.2440   -1.0236   -2.0882 H   0  0  0  0  0  0  0  0  0  0  0  0
    0.8429    3.5382   -2.7267 H   0  0  0  0  0  0  0  0  0  0  0  0
   -0.5250    2.5038   -2.2512 H   0  0  0  0  0  0  0  0  0  0  0  0
    0.2560    2.2744   -3.8345 H   0  0  0  0  0  0  0  0  0  0  0  0
   -2.2627    1.2500    0.5647 N   0  0  0  0  0  0  0  0  0  0  0  0
   -3.4790    1.6699    1.2204 C   0  0  2  0  0  0  0  0  0  0  0  0
   -4.4287    2.2008    0.1547 C   0  0  0  0  0  0  0  0  0  0  0  0
   -4.0471    2.6121   -0.9391 O   0  0  0  0  0  0  0  0  0  0  0  0
   -3.2012    2.7281    2.2767 C   0  0  0  0  0  0  0  0  0  0  0  0
   -1.8918    1.8429   -0.1719 H   0  0  0  0  0  0  0  0  0  0  0  0
   -3.9123    0.7774    1.6847 H   0  0  0  0  0  0  0  0  0  0  0  0
   -2.7666    3.6300    1.8302 H   0  0  0  0  0  0  0  0  0  0  0  0
   -4.1204    3.0247    2.7926 H   0  0  0  0  0  0  0  0  0  0  0  0
   -2.4948    2.3548    3.0260 H   0  0  0  0  0  0  0  0  0  0  0  0
   -5.7481    2.2013    0.5849 N   0  0  0  0  0  0  0  0  0  0  0  0
   -6.8370    2.6700   -0.2401 C   0  0  0  0  0  0  0  0  0  0  0  0
   -5.9753    1.8244    1.5004 H   0  0  0  0  0  0  0  0  0  0  0  0
   -7.0195    3.7355   -0.0367 H   0  0  0  0  0  0  0  0  0  0  0  0
   -6.5762    2.5387   -1.3006 H   0  0  0  0  0  0  0  0  0  0  0  0
   -7.7449    2.0925   -0.0116 H   0  0  0  0  0  0  0  0  0  0  0  0
  1  3  1  0  0  0  0
  1  7  1  0  0  0  0
  1  2  2  0  0  0  0
 35 36  1  0  0  0  0
 36 44  1  0  0  0  0
 36 37  2  0  0  0  0
  8  9  1  0  0  0  0
  9 17  1  0  0  0  0
  9 10  2  0  0  0  0
 18 19  1  0  0  0  0
 19 34  1  0  0  0  0
 19 20  2  0  0  0  0
 35 38  1  0  0  0  0
  8 11  1  0  0  0  0
 44 45  1  0  0  0  0
 23 24  1  0  0  0  0
 21 22  1  0  0  0  0
 18 21  1  0  0  0  0
 22 23  1  0  0  0  0
 34 35  1  0  0  0  0
  7  8  1  0  0  0  0
 17 18  1  0  0  0  0
  3  4  1  0  0  0  0
  3  5  1  0  0  0  0
  3  6  1  0  0  0  0
 38 41  1  0  0  0  0
 38 42  1  0  0  0  0
 38 43  1  0  0  0  0
 11 14  1  0  0  0  0
 11 15  1  0  0  0  0
 11 16  1  0  0  0  0
 45 47  1  0  0  0  0
 45 48  1  0  0  0  0
 45 49  1  0  0  0  0
 24 31  1  0  0  0  0
 24 32  1  0  0  0  0
 24 33  1  0  0  0  0
 21 27  1  0  0  0  0
 21 28  1  0  0  0  0
 22 29  1  0  0  0  0
 22 30  1  0  0  0  0
 35 40  1  0  0  0  0
  8 13  1  0  0  0  0
 18 26  1  0  0  0  0
 44 46  1  0  0  0  0
  7 12  1  0  0  0  0
 34 39  1  0  0  0  0
 17 25  1  0  0  0  0
M  END
$$$$

  -OEChem-05262214473D

 49 48  0     1  0  0  0  0  0999 V2000
   -0.0561   -5.3799    2.6949 C   0  0  0  0  0  0  0  0  0  0  0  0
    0.7325   -5.0736    3.5815 O   0  0  0  0  0  0  0  0  0  0  0  0
   -1.0067   -6.5099    2.9135 C   0  0  0  0  0  0  0  0  0  0  0  0
   -0.5910   -7.4777    2.5899 H   0  0  0  0  0  0  0  0  0  0  0  0
   -1.2629   -6.6440    3.9767 H   0  0  0  0  0  0  0  0  0  0  0  0
   -1.9729   -6.4206    2.3918 H   0  0  0  0  0  0  0  0  0  0  0  0
   -0.1735   -4.7694    1.4571 N   0  0  0  0  0  0  0  0  0  0  0  0
    0.6439   -3.6603    1.0409 C   0  0  2  0  0  0  0  0  0  0  0  0
   -0.2788   -2.5625    0.5280 C   0  0  0  0  0  0  0  0  0  0  0  0
   -1.4197   -2.7791    0.1251 O   0  0  0  0  0  0  0  0  0  0  0  0
    1.6395   -4.0779   -0.0301 C   0  0  0  0  0  0  0  0  0  0  0  0
   -0.8741   -5.1235    0.8083 H   0  0  0  0  0  0  0  0  0  0  0  0
    1.1738   -3.3062    1.9318 H   0  0  0  0  0  0  0  0  0  0  0  0
    1.1270   -4.4358   -0.9305 H   0  0  0  0  0  0  0  0  0  0  0  0
    2.2797   -3.2400   -0.3251 H   0  0  0  0  0  0  0  0  0  0  0  0
    2.2827   -4.8880    0.3303 H   0  0  0  0  0  0  0  0  0  0  0  0
    0.3351   -1.3153    0.5316 N   0  0  0  0  0  0  0  0  0  0  0  0
   -0.3268   -0.1184    0.0807 C   0  0  2  0  0  0  0  0  0  0  0  0
   -1.5671    0.1094    0.9393 C   0  0  0  0  0  0  0  0  0  0  0  0
   -1.7700   -0.4892    1.9937 O   0  0  0  0  0  0  0  0  0  0  0  0
   -0.6422   -0.1620   -1.4207 C   0  0  0  0  0  0  0  0  0  0  0  0
    0.6034   -0.1650   -2.3101 C   0  0  0  0  0  0  0  0  0  0  0  0
    1.5776    1.3469   -2.0474 S   0  0  0  0  0  0  0  0  0  0  0  0
    0.4277    2.5292   -2.7860 C   0  0  0  0  0  0  0  0  0  0  0  0
    1.2790   -1.2290    0.9021 H   0  0  0  0  0  0  0  0  0  0  0  0
    0.3747    0.7022    0.2743 H   0  0  0  0  0  0  0  0  0  0  0  0
   -1.2642    0.7086   -1.6687 H   0  0  0  0  0  0  0  0  0  0  0  0
   -1.2437   -1.0550   -1.6341 H   0  0  0  0  0  0  0  0  0  0  0  0
    0.3295   -0.2077   -3.3685 H   0  0  0  0  0  0  0  0  0  0  0  0
    1.2440   -1.0236   -2.0882 H   0  0  0  0  0  0  0  0  0  0  0  0
    0.8429    3.5382   -2.7267 H   0  0  0  0  0  0  0  0  0  0  0  0
   -0.5250    2.5038   -2.2512 H   0  0  0  0  0  0  0  0  0  0  0  0
    0.2560    2.2744   -3.8345 H   0  0  0  0  0  0  0  0  0  0  0  0
   -2.4342    1.0337    0.3744 N   0  0  0  0  0  0  0  0  0  0  0  0
   -3.6842    1.4073    0.9936 C   0  0  2  0  0  0  0  0  0  0  0  0
   -4.7270    1.5588   -0.1059 C   0  0  0  0  0  0  0  0  0  0  0  0
   -4.4366    1.7771   -1.2803 O   0  0  0  0  0  0  0  0  0  0  0  0
   -3.5437    2.6949    1.7906 C   0  0  0  0  0  0  0  0  0  0  0  0
   -2.1733    1.5022   -0.4882 H   0  0  0  0  0  0  0  0  0  0  0  0
   -3.9681    0.5822    1.6559 H   0  0  0  0  0  0  0  0  0  0  0  0
   -3.2596    3.5330    1.1438 H   0  0  0  0  0  0  0  0  0  0  0  0
   -4.4848    2.9615    2.2828 H   0  0  0  0  0  0  0  0  0  0  0  0
   -2.7723    2.5938    2.5617 H   0  0  0  0  0  0  0  0  0  0  0  0
   -6.0214    1.4643    0.3858 N   0  0  0  0  0  0  0  0  0  0  0  0
   -7.1869    1.5873   -0.4582 C   0  0  0  0  0  0  0  0  0  0  0  0
   -6.1684    1.2630    1.3705 H   0  0  0  0  0  0  0  0  0  0  0  0
   -7.5222    2.6349   -0.4708 H   0  0  0  0  0  0  0  0  0  0  0  0
   -6.9339    1.2711   -1.4810 H   0  0  0  0  0  0  0  0  0  0  0  0
   -7.9925    0.9493   -0.0659 H   0  0  0  0  0  0  0  0  0  0  0  0
  1  3  1  0  0  0  0
  1  7  1  0  0  0  0
  1  2  2  0  0  0  0
 35 36  1  0  0  0  0
 36 44  1  0  0  0  0
 36 37  2  0  0  0  0
  8  9  1  0  0  0  0
  9 17  1  0  0  0  0
  9 10  2  0  0  0  0
 18 19  1  0  0  0  0
 19 34  1  0  0  0  0
 19 20  2  0  0  0  0
 35 38  1  0  0  0  0
  8 11  1  0  0  0  0
 44 45  1  0  0  0  0
 23 24  1  0  0  0  0
 21 22  1  0  0  0  0
 18 21  1  0  0  0  0
 22 23  1  0  0  0  0
 34 35  1  0  0  0  0
  7  8  1  0  0  0  0
 17 18  1  0  0  0  0
  3  4  1  0  0  0  0
  3  5  1  0  0  0  0
  3  6  1  0  0  0  0
 38 41  1  0  0  0  0
 38 42  1  0  0  0  0
 38 43  1  0  0  0  0
 11 14  1  0  0  0  0
 11 15  1  0  0  0  0
 11 16  1  0  0  0  0
 45 47  1  0  0  0  0
 45 48  1  0  0  0  0
 45 49  1  0  0  0  0
 24 31  1  0  0  0  0
 24 32  1  0  0  0  0
 24 33  1  0  0  0  0
 21 27  1  0  0  0  0
 21 28  1  0  0  0  0
 22 29  1  0  0  0  0
 22 30  1  0  0  0  0
 35 40  1  0  0  0  0
  8 13  1  0  0  0  0
 18 26  1  0  0  0  0
 44 46  1  0  0  0  0
  7 12  1  0  0  0  0
 34 39  1  0  0  0  0
 17 25  1  0  0  0  0
M  END
$$$$

  -OEChem-05262214473D

 49 48  0     1  0  0  0  0  0999 V2000
   -0.0561   -5.3799    2.6949 C   0  0  0  0  0  0  0  0  0  0  0  0
    0.7325   -5.0736    3.5815 O   0  0  0  0  0  0  0  0  0  0  0  0
   -1.0067   -6.5099    2.9135 C   0  0  0  0  0  0  0  0  0  0  0  0
   -0.5910   -7.4777    2.5899 H   0  0  0  0  0  0  0  0  0  0  0  0
   -1.2629   -6.6440    3.9767 H   0  0  0  0  0  0  0  0  0  0  0  0
   -1.9729   -6.4206    2.3918 H   0  0  0  0  0  0  0  0  0  0  0  0
   -0.1735   -4.7694    1.4571 N   0  0  0  0  0  0  0  0  0  0  0  0
    0.6439   -3.6603    1.0409 C   0  0  2  0  0  0  0  0  0  0  0  0
   -0.2788   -2.5625    0.5280 C   0  0  0  0  0  0  0  0  0  0  0  0
   -1.4197   -2.7791    0.1251 O   0  0  0  0  0  0  0  0  0  0  0  0
    1.6395   -4.0779   -0.0301 C   0  0  0  0  0  0  0  0  0  0  0  0
   -0.8741   -5.1235    0.8083 H   0  0  0  0  0  0  0  0  0  0  0  0
    1.1738   -3.3062    1.9318 H   0  0  0  0  0  0  0  0  0  0  0  0
    1.1270   -4.4358   -0.9305 H   0  0  0  0  0  0  0  0  0  0  0  0
    2.2797   -3.2400   -0.3251 H   0  0  0  0  0  0  0  0  0  0  0  0
    2.2827   -4.8880    0.3303 H   0  0  0  0  0  0  0  0  0  0  0  0
    0.3351   -1.3153    0.5316 N   0  0  0  0  0  0  0  0  0  0  0  0
   -0.3268   -0.1184    0.0807 C   0  0  2  0  0  0  0  0  0  0  0  0
   -1.5671    0.1094    0.9393 C   0  0  0  0  0  0  0  0  0  0  0  0
   -1.6537   -0.2731    2.1044 O   0  0  0  0  0  0  0  0  0  0  0  0
   -0.6422   -0.1620   -1.4207 C   0  0  0  0  0  0  0  0  0  0  0  0
    0.6034   -0.1650   -2.3101 C   0  0  0  0  0  0  0  0  0  0  0  0
    1.5776    1.3469   -2.0474 S   0  0  0  0  0  0  0  0  0  0  0  0
    0.4277    2.5292   -2.7860 C   0  0  0  0  0  0  0  0  0  0  0  0
    1.2790   -1.2290    0.9021 H   0  0  0  0  0  0  0  0  0  0  0  0
    0.3747    0.7022    0.2743 H   0  0  0  0  0  0  0  0  0  0  0  0
   -1.2642    0.7086   -1.6687 H   0  0  0  0  0  0  0  0  0  0  0  0
   -1.2437   -1.0550   -1.6341 H   0  0  0  0  0  0  0  0  0  0  0  0
    0.3295   -0.2077   -3.3685 H   0  0  0  0  0  0  0  0  0  0  0  0
    1.2440   -1.0236   -2.0882 H   0  0  0  0  0  0  0  0  0  0  0  0
    0.8429    3.5382   -2.7267 H   0  0  0  0  0  0  0  0  0  0  0  0
   -0.5250    2.5038   -2.2512 H   0  0  0  0  0  0  0  0  0  0  0  0
    0.2560    2.2744   -3.8345 H   0  0  0  0  0  0  0  0  0  0  0  0
   -2.5757    0.7597    0.2428 N   0  0  0  0  0  0  0  0  0  0  0  0
   -3.8529    1.0761    0.8378 C   0  0  2  0  0  0  0  0  0  0  0  0
   -4.9317    0.8404   -0.2110 C   0  0  0  0  0  0  0  0  0  0  0  0
   -4.7045    0.8421   -1.4191 O   0  0  0  0  0  0  0  0  0  0  0  0
   -3.8885    2.5106    1.3414 C   0  0  0  0  0  0  0  0  0  0  0  0
   -2.4079    1.0655   -0.7112 H   0  0  0  0  0  0  0  0  0  0  0  0
   -3.9947    0.3795    1.6713 H   0  0  0  0  0  0  0  0  0  0  0  0
   -3.7482    3.2230    0.5203 H   0  0  0  0  0  0  0  0  0  0  0  0
   -4.8474    2.7401    1.8178 H   0  0  0  0  0  0  0  0  0  0  0  0
   -3.0931    2.6865    2.0737 H   0  0  0  0  0  0  0  0  0  0  0  0
   -6.1856    0.6708    0.3591 N   0  0  0  0  0  0  0  0  0  0  0  0
   -7.3756    0.4447   -0.4276 C   0  0  0  0  0  0  0  0  0  0  0  0
   -6.2781    0.6654    1.3706 H   0  0  0  0  0  0  0  0  0  0  0  0
   -7.8643    1.4072   -0.6392 H   0  0  0  0  0  0  0  0  0  0  0  0
   -7.1017   -0.0433   -1.3746 H   0  0  0  0  0  0  0  0  0  0  0  0
   -8.0673   -0.2024    0.1317 H   0  0  0  0  0  0  0  0  0  0  0  0
  1  3  1  0  0  0  0
  1  7  1  0  0  0  0
  1  2  2  0  0  0  0
 35 36  1  0  0  0  0
 36 44  1  0  0  0  0
 36 37  2  0  0  0  0
  8  9  1  0  0  0  0
  9 17  1  0  0  0  0
  9 10  2  0  0  0  0
 18 19  1  0  0  0  0
 19 34  1  0  0  0  0
 19 20  2  0  0  0  0
 35 38  1  0  0  0  0
  8 11  1  0  0  0  0
 44 45  1  0  0  0  0
 23 24  1  0  0  0  0
 21 22  1  0  0  0  0
 18 21  1  0  0  0  0
 22 23  1  0  0  0  0
 34 35  1  0  0  0  0
  7  8  1  0  0  0  0
 17 18  1  0  0  0  0
  3  4  1  0  0  0  0
  3  5  1  0  0  0  0
  3  6  1  0  0  0  0
 38 41  1  0  0  0  0
 38 42  1  0  0  0  0
 38 43  1  0  0  0  0
 11 14  1  0  0  0  0
 11 15  1  0  0  0  0
 11 16  1  0  0  0  0
 45 47  1  0  0  0  0
 45 48  1  0  0  0  0
 45 49  1  0  0  0  0
 24 31  1  0  0  0  0
 24 32  1  0  0  0  0
 24 33  1  0  0  0  0
 21 27  1  0  0  0  0
 21 28  1  0  0  0  0
 22 29  1  0  0  0  0
 22 30  1  0  0  0  0
 35 40  1  0  0  0  0
  8 13  1  0  0  0  0
 18 26  1  0  0  0  0
 44 46  1  0  0  0  0
  7 12  1  0  0  0  0
 34 39  1  0  0  0  0
 17 25  1  0  0  0  0
M  END
$$$$

  -OEChem-05262214473D

 49 48  0     1  0  0  0  0  0999 V2000
   -0.0561   -5.3799    2.6949 C   0  0  0  0  0  0  0  0  0  0  0  0
    0.7325   -5.0736    3.5815 O   0  0  0  0  0  0  0  0  0  0  0  0
   -1.0067   -6.5099    2.9135 C   0  0  0  0  0  0  0  0  0  0  0  0
   -0.5910   -7.4777    2.5899 H   0  0  0  0  0  0  0  0  0  0  0  0
   -1.2629   -6.6440    3.9767 H   0  0  0  0  0  0  0  0  0  0  0  0
   -1.9729   -6.4206    2.3918 H   0  0  0  0  0  0  0  0  0  0  0  0
   -0.1735   -4.7694    1.4571 N   0  0  0  0  0  0  0  0  0  0  0  0
    0.6439   -3.6603    1.0409 C   0  0  2  0  0  0  0  0  0  0  0  0
   -0.2788   -2.5625    0.5280 C   0  0  0  0  0  0  0  0  0  0  0  0
   -1.4197   -2.7791    0.1251 O   0  0  0  0  0  0  0  0  0  0  0  0
    1.6395   -4.0779   -0.0301 C   0  0  0  0  0  0  0  0  0  0  0  0
   -0.8741   -5.1235    0.8083 H   0  0  0  0  0  0  0  0  0  0  0  0
    1.1738   -3.3062    1.9318 H   0  0  0  0  0  0  0  0  0  0  0  0
    1.1270   -4.4358   -0.9305 H   0  0  0  0  0  0  0  0  0  0  0  0
    2.2797   -3.2400   -0.3251 H   0  0  0  0  0  0  0  0  0  0  0  0
    2.2827   -4.8880    0.3303 H   0  0  0  0  0  0  0  0  0  0  0  0
    0.3351   -1.3153    0.5316 N   0  0  0  0  0  0  0  0  0  0  0  0
   -0.3268   -0.1184    0.0807 C   0  0  2  0  0  0  0  0  0  0  0  0
   -1.5671    0.1094    0.9393 C   0  0  0  0  0  0  0  0  0  0  0  0
   -1.5685   -0.0241    2.1614 O   0  0  0  0  0  0  0  0  0  0  0  0
   -0.6422   -0.1620   -1.4207 C   0  0  0  0  0  0  0  0  0  0  0  0
    0.6034   -0.1650   -2.3101 C   0  0  0  0  0  0  0  0  0  0  0  0
    1.5776    1.3469   -2.0474 S   0  0  0  0  0  0  0  0  0  0  0  0
    0.4277    2.5292   -2.7860 C   0  0  0  0  0  0  0  0  0  0  0  0
    1.2790   -1.2290    0.9021 H   0  0  0  0  0  0  0  0  0  0  0  0
    0.3747    0.7022    0.2743 H   0  0  0  0  0  0  0  0  0  0  0  0
   -1.2642    0.7086   -1.6687 H   0  0  0  0  0  0  0  0  0  0  0  0
   -1.2437   -1.0550   -1.6341 H   0  0  0  0  0  0  0  0  0  0  0  0
    0.3295   -0.2077   -3.3685 H   0  0  0  0  0  0  0  0  0  0  0  0
    1.2440   -1.0236   -2.0882 H   0  0  0  0  0  0  0  0  0  0  0  0
    0.8429    3.5382   -2.7267 H   0  0  0  0  0  0  0  0  0  0  0  0
   -0.5250    2.5038   -2.2512 H   0  0  0  0  0  0  0  0  0  0  0  0
    0.2560    2.2744   -3.8345 H   0  0  0  0  0  0  0  0  0  0  0  0
   -2.6775    0.4467    0.1787 N   0  0  0  0  0  0  0  0  0  0  0  0
   -3.9736    0.6987    0.7636 C   0  0  2  0  0  0  0  0  0  0  0  0
   -5.0288    0.0945   -0.1534 C   0  0  0  0  0  0  0  0  0  0  0  0
   -4.8324   -0.1294   -1.3461 O   0  0  0  0  0  0  0  0  0  0  0  0
   -4.2121    2.1878    0.9596 C   0  0  0  0  0  0  0  0  0  0  0  0
   -2.5794    0.5627   -0.8256 H   0  0  0  0  0  0  0  0  0  0  0  0
   -3.9902    0.1831    1.7299 H   0  0  0  0  0  0  0  0  0  0  0  0
   -4.1990    2.7213    0.0021 H   0  0  0  0  0  0  0  0  0  0  0  0
   -5.1833    2.3756    1.4293 H   0  0  0  0  0  0  0  0  0  0  0  0
   -3.4354    2.6266    1.5952 H   0  0  0  0  0  0  0  0  0  0  0  0
   -6.2298   -0.1253    0.5066 N   0  0  0  0  0  0  0  0  0  0  0  0
   -7.3902   -0.6801   -0.1503 C   0  0  0  0  0  0  0  0  0  0  0  0
   -6.2970    0.0721    1.5007 H   0  0  0  0  0  0  0  0  0  0  0  0
   -8.0223    0.1361   -0.5302 H   0  0  0  0  0  0  0  0  0  0  0  0
   -7.0683   -1.3150   -0.9889 H   0  0  0  0  0  0  0  0  0  0  0  0
   -7.9641   -1.2842    0.5678 H   0  0  0  0  0  0  0  0  0  0  0  0
  1  3  1  0  0  0  0
  1  7  1  0  0  0  0
  1  2  2  0  0  0  0
 35 36  1  0  0  0  0
 36 44  1  0  0  0  0
 36 37  2  0  0  0  0
  8  9  1  0  0  0  0
  9 17  1  0  0  0  0
  9 10  2  0  0  0  0
 18 19  1  0  0  0  0
 19 34  1  0  0  0  0
 19 20  2  0  0  0  0
 35 38  1  0  0  0  0
  8 11  1  0  0  0  0
 44 45  1  0  0  0  0
 23 24  1  0  0  0  0
 21 22  1  0  0  0  0
 18 21  1  0  0  0  0
 22 23  1  0  0  0  0
 34 35  1  0  0  0  0
  7  8  1  0  0  0  0
 17 18  1  0  0  0  0
  3  4  1  0  0  0  0
  3  5  1  0  0  0  0
  3  6  1  0  0  0  0
 38 41  1  0  0  0  0
 38 42  1  0  0  0  0
 38 43  1  0  0  0  0
 11 14  1  0  0  0  0
 11 15  1  0  0  0  0
 11 16  1  0  0  0  0
 45 47  1  0  0  0  0
 45 48  1  0  0  0  0
 45 49  1  0  0  0  0
 24 31  1  0  0  0  0
 24 32  1  0  0  0  0
 24 33  1  0  0  0  0
 21 27  1  0  0  0  0
 21 28  1  0  0  0  0
 22 29  1  0  0  0  0
 22 30  1  0  0  0  0
 35 40  1  0  0  0  0
  8 13  1  0  0  0  0
 18 26  1  0  0  0  0
 44 46  1  0  0  0  0
  7 12  1  0  0  0  0
 34 39  1  0  0  0  0
 17 25  1  0  0  0  0
M  END
$$$$

  -OEChem-05262214473D

 49 48  0     1  0  0  0  0  0999 V2000
   -0.0561   -5.3799    2.6949 C   0  0  0  0  0  0  0  0  0  0  0  0
    0.7325   -5.0736    3.5815 O   0  0  0  0  0  0  0  0  0  0  0  0
   -1.0067   -6.5099    2.9135 C   0  0  0  0  0  0  0  0  0  0  0  0
   -0.5910   -7.4777    2.5899 H   0  0  0  0  0  0  0  0  0  0  0  0
   -1.2629   -6.6440    3.9767 H   0  0  0  0  0  0  0  0  0  0  0  0
   -1.9729   -6.4206    2.3918 H   0  0  0  0  0  0  0  0  0  0  0  0
   -0.1735   -4.7694    1.4571 N   0  0  0  0  0  0  0  0  0  0  0  0
    0.6439   -3.6603    1.0409 C   0  0  2  0  0  0  0  0  0  0  0  0
   -0.2788   -2.5625    0.5280 C   0  0  0  0  0  0  0  0  0  0  0  0
   -1.4197   -2.7791    0.1251 O   0  0  0  0  0  0  0  0  0  0  0  0
    1.6395   -4.0779   -0.0301 C   0  0  0  0  0  0  0  0  0  0  0  0
   -0.8741   -5.1235    0.8083 H   0  0  0  0  0  0  0  0  0  0  0  0
    1.1738   -3.3062    1.9318 H   0  0  0  0  0  0  0  0  0  0  0  0
    1.1270   -4.4358   -0.9305 H   0  0  0  0  0  0  0  0  0  0  0  0
    2.2797   -3.2400   -0.3251 H   0  0  0  0  0  0  0  0  0  0  0  0
    2.2827   -4.8880    0.3303 H   0  0  0  0  0  0  0  0  0  0  0  0
    0.3351   -1.3153    0.5316 N   0  0  0  0  0  0  0  0  0  0  0  0
   -0.3268   -0.1184    0.0807 C   0  0  2  0  0  0  0  0  0  0  0  0
   -1.5671    0.1094    0.9393 C   0  0  0  0  0  0  0  0  0  0  0  0
   -1.5203    0.2408    2.1607 O   0  0  0  0  0  0  0  0  0  0  0  0
   -0.6422   -0.1620   -1.4207 C   0  0  0  0  0  0  0  0  0  0  0  0
    0.6034   -0.1650   -2.3101 C   0  0  0  0  0  0  0  0  0  0  0  0
    1.5776    1.3469   -2.0474 S   0  0  0  0  0  0  0  0  0  0  0  0
    0.4277    2.5292   -2.7860 C   0  0  0  0  0  0  0  0  0  0  0  0
    1.2790   -1.2290    0.9021 H   0  0  0  0  0  0  0  0  0  0  0  0
    0.3747    0.7022    0.2743 H   0  0  0  0  0  0  0  0  0  0  0  0
   -1.2642    0.7086   -1.6687 H   0  0  0  0  0  0  0  0  0  0  0  0
   -1.2437   -1.0550   -1.6341 H   0  0  0  0  0  0  0  0  0  0  0  0
    0.3295   -0.2077   -3.3685 H   0  0  0  0  0  0  0  0  0  0  0  0
    1.2440   -1.0236   -2.0882 H   0  0  0  0  0  0  0  0  0  0  0  0
    0.8429    3.5382   -2.7267 H   0  0  0  0  0  0  0  0  0  0  0  0
   -0.5250    2.5038   -2.2512 H   0  0  0  0  0  0  0  0  0  0  0  0
    0.2560    2.2744   -3.8345 H   0  0  0  0  0  0  0  0  0  0  0  0
   -2.7327    0.1161    0.1867 N   0  0  0  0  0  0  0  0  0  0  0  0
   -4.0381    0.3010    0.7759 C   0  0  2  0  0  0  0  0  0  0  0  0
   -5.0118   -0.6280    0.0629 C   0  0  0  0  0  0  0  0  0  0  0  0
   -4.8116   -1.0710   -1.0662 O   0  0  0  0  0  0  0  0  0  0  0  0
   -4.4924    1.7486    0.6712 C   0  0  0  0  0  0  0  0  0  0  0  0
   -2.6763    0.0279   -0.8236 H   0  0  0  0  0  0  0  0  0  0  0  0
   -3.9550    0.0063    1.8277 H   0  0  0  0  0  0  0  0  0  0  0  0
   -4.5815    2.0619   -0.3754 H   0  0  0  0  0  0  0  0  0  0  0  0
   -5.4697    1.8928    1.1437 H   0  0  0  0  0  0  0  0  0  0  0  0
   -3.7757    2.4182    1.1588 H   0  0  0  0  0  0  0  0  0  0  0  0
   -6.1507   -0.8697    0.8183 N   0  0  0  0  0  0  0  0  0  0  0  0
   -7.2298   -1.7103    0.3548 C   0  0  0  0  0  0  0  0  0  0  0  0
   -6.2238   -0.4763    1.7519 H   0  0  0  0  0  0  0  0  0  0  0  0
   -7.9856   -1.0918   -0.1514 H   0  0  0  0  0  0  0  0  0  0  0  0
   -6.8358   -2.4573   -0.3499 H   0  0  0  0  0  0  0  0  0  0  0  0
   -7.6900   -2.2224    1.2127 H   0  0  0  0  0  0  0  0  0  0  0  0
  1  3  1  0  0  0  0
  1  7  1  0  0  0  0
  1  2  2  0  0  0  0
 35 36  1  0  0  0  0
 36 44  1  0  0  0  0
 36 37  2  0  0  0  0
  8  9  1  0  0  0  0
  9 17  1  0  0  0  0
  9 10  2  0  0  0  0
 18 19  1  0  0  0  0
 19 34  1  0  0  0  0
 19 20  2  0  0  0  0
 35 38  1  0  0  0  0
  8 11  1  0  0  0  0
 44 45  1  0  0  0  0
 23 24  1  0  0  0  0
 21 22  1  0  0  0  0
 18 21  1  0  0  0  0
 22 23  1  0  0  0  0
 34 35  1  0  0  0  0
  7  8  1  0  0  0  0
 17 18  1  0  0  0  0
  3  4  1  0  0  0  0
  3  5  1  0  0  0  0
  3  6  1  0  0  0  0
 38 41  1  0  0  0  0
 38 42  1  0  0  0  0
 38 43  1  0  0  0  0
 11 14  1  0  0  0  0
 11 15  1  0  0  0  0
 11 16  1  0  0  0  0
 45 47  1  0  0  0  0
 45 48  1  0  0  0  0
 45 49  1  0  0  0  0
 24 31  1  0  0  0  0
 24 32  1  0  0  0  0
 24 33  1  0  0  0  0
 21 27  1  0  0  0  0
 21 28  1  0  0  0  0
 22 29  1  0  0  0  0
 22 30  1  0  0  0  0
 35 40  1  0  0  0  0
  8 13  1  0  0  0  0
 18 26  1  0  0  0  0
 44 46  1  0  0  0  0
  7 12  1  0  0  0  0
 34 39  1  0  0  0  0
 17 25  1  0  0  0  0
M  END
$$$$

  -OEChem-05262214473D

 49 48  0     1  0  0  0  0  0999 V2000
   -0.0561   -5.3799    2.6949 C   0  0  0  0  0  0  0  0  0  0  0  0
    0.7325   -5.0736    3.5815 O   0  0  0  0  0  0  0  0  0  0  0  0
   -1.0067   -6.5099    2.9135 C   0  0  0  0  0  0  0  0  0  0  0  0
   -0.5910   -7.4777    2.5899 H   0  0  0  0  0  0  0  0  0  0  0  0
   -1.2629   -6.6440    3.9767 H   0  0  0  0  0  0  0  0  0  0  0  0
   -1.9729   -6.4206    2.3918 H   0  0  0  0  0  0  0  0  0  0  0  0
   -0.1735   -4.7694    1.4571 N   0  0  0  0  0  0  0  0  0  0  0  0
    0.6439   -3.6603    1.0409 C   0  0  2  0  0  0  0  0  0  0  0  0
   -0.2788   -2.5625    0.5280 C   0  0  0  0  0  0  0  0  0  0  0  0
   -1.4197   -2.7791    0.1251 O   0  0  0  0  0  0  0  0  0  0  0  0
    1.6395   -4.0779   -0.0301 C   0  0  0  0  0  0  0  0  0  0  0  0
   -0.8741   -5.1235    0.8083 H   0  0  0  0  0  0  0  0  0  0  0  0
    1.1738   -3.3062    1.9318 H   0  0  0  0  0  0  0  0  0  0  0  0
    1.1270   -4.4358   -0.9305 H   0  0  0  0  0  0  0  0  0  0  0  0
    2.2797   -3.2400   -0.3251 H   0  0  0  0  0  0  0  0  0  0  0  0
    2.2827   -4.8880    0.3303 H   0  0  0  0  0  0  0  0  0  0  0  0
    0.3351   -1.3153    0.5316 N   0  0  0  0  0  0  0  0  0  0  0  0
   -0.3268   -0.1184    0.0807 C   0  0  2  0  0  0  0  0  0  0  0  0
   -1.5671    0.1094    0.9393 C   0  0  0  0  0  0  0  0  0  0  0  0
   -1.5124    0.5036    2.1025 O   0  0  0  0  0  0  0  0  0  0  0  0
   -0.6422   -0.1620   -1.4207 C   0  0  0  0  0  0  0  0  0  0  0  0
    0.6034   -0.1650   -2.3101 C   0  0  0  0  0  0  0  0  0  0  0  0
    1.5776    1.3469   -2.0474 S   0  0  0  0  0  0  0  0  0  0  0  0
    0.4277    2.5292   -2.7860 C   0  0  0  0  0  0  0  0  0  0  0  0
    1.2790   -1.2290    0.9021 H   0  0  0  0  0  0  0  0  0  0  0  0
    0.3747    0.7022    0.2743 H   0  0  0  0  0  0  0  0  0  0  0  0
   -1.2642    0.7086   -1.6687 H   0  0  0  0  0  0  0  0  0  0  0  0
   -1.2437   -1.0550   -1.6341 H   0  0  0  0  0  0  0  0  0  0  0  0
    0.3295   -0.2077   -3.3685 H   0  0  0  0  0  0  0  0  0  0  0  0
    1.2440   -1.0236   -2.0882 H   0  0  0  0  0  0  0  0  0  0  0  0
    0.8429    3.5382   -2.7267 H   0  0  0  0  0  0  0  0  0  0  0  0
   -0.5250    2.5038   -2.2512 H   0  0  0  0  0  0  0  0  0  0  0  0
    0.2560    2.2744   -3.8345 H   0  0  0  0  0  0  0  0  0  0  0  0
   -2.7376   -0.2096    0.2660 N   0  0  0  0  0  0  0  0  0  0  0  0
   -4.0420   -0.0899    0.8739 C   0  0  2  0  0  0  0  0  0  0  0  0
   -4.8818   -1.2779    0.4232 C   0  0  0  0  0  0  0  0  0  0  0  0
   -4.6435   -1.9185   -0.5985 O   0  0  0  0  0  0  0  0  0  0  0  0
   -4.7104    1.2228    0.4959 C   0  0  0  0  0  0  0  0  0  0  0  0
   -2.6919   -0.5024   -0.7055 H   0  0  0  0  0  0  0  0  0  0  0  0
   -3.8915   -0.1387    1.9579 H   0  0  0  0  0  0  0  0  0  0  0  0
   -4.8694    1.2898   -0.5865 H   0  0  0  0  0  0  0  0  0  0  0  0
   -5.6870    1.3247    0.9804 H   0  0  0  0  0  0  0  0  0  0  0  0
   -4.0910    2.0755    0.7943 H   0  0  0  0  0  0  0  0  0  0  0  0
   -5.9539   -1.5116    1.2730 N   0  0  0  0  0  0  0  0  0  0  0  0
   -6.9053   -2.5757    1.0532 C   0  0  0  0  0  0  0  0  0  0  0  0
   -6.0635   -0.9425    2.1072 H   0  0  0  0  0  0  0  0  0  0  0  0
   -7.7567   -2.1928    0.4715 H   0  0  0  0  0  0  0  0  0  0  0  0
   -6.4202   -3.3924    0.4986 H   0  0  0  0  0  0  0  0  0  0  0  0
   -7.2637   -2.9529    2.0224 H   0  0  0  0  0  0  0  0  0  0  0  0
  1  3  1  0  0  0  0
  1  7  1  0  0  0  0
  1  2  2  0  0  0  0
 35 36  1  0  0  0  0
 36 44  1  0  0  0  0
 36 37  2  0  0  0  0
  8  9  1  0  0  0  0
  9 17  1  0  0  0  0
  9 10  2  0  0  0  0
 18 19  1  0  0  0  0
 19 34  1  0  0  0  0
 19 20  2  0  0  0  0
 35 38  1  0  0  0  0
  8 11  1  0  0  0  0
 44 45  1  0  0  0  0
 23 24  1  0  0  0  0
 21 22  1  0  0  0  0
 18 21  1  0  0  0  0
 22 23  1  0  0  0  0
 34 35  1  0  0  0  0
  7  8  1  0  0  0  0
 17 18  1  0  0  0  0
  3  4  1  0  0  0  0
  3  5  1  0  0  0  0
  3  6  1  0  0  0  0
 38 41  1  0  0  0  0
 38 42  1  0  0  0  0
 38 43  1  0  0  0  0
 11 14  1  0  0  0  0
 11 15  1  0  0  0  0
 11 16  1  0  0  0  0
 45 47  1  0  0  0  0
 45 48  1  0  0  0  0
 45 49  1  0  0  0  0
 24 31  1  0  0  0  0
 24 32  1  0  0  0  0
 24 33  1  0  0  0  0
 21 27  1  0  0  0  0
 21 28  1  0  0  0  0
 22 29  1  0  0  0  0
 22 30  1  0  0  0  0
 35 40  1  0  0  0  0
  8 13  1  0  0  0  0
 18 26  1  0  0  0  0
 44 46  1  0  0  0  0
  7 12  1  0  0  0  0
 34 39  1  0  0  0  0
 17 25  1  0  0  0  0
M  END
$$$$

  -OEChem-05262214473D

 49 48  0     1  0  0  0  0  0999 V2000
   -0.0561   -5.3799    2.6949 C   0  0  0  0  0  0  0  0  0  0  0  0
    0.7325   -5.0736    3.5815 O   0  0  0  0  0  0  0  0  0  0  0  0
   -1.0067   -6.5099    2.9135 C   0  0  0  0  0  0  0  0  0  0  0  0
   -0.5910   -7.4777    2.5899 H   0  0  0  0  0  0  0  0  0  0  0  0
   -1.2629   -6.6440    3.9767 H   0  0  0  0  0  0  0  0  0  0  0  0
   -1.9729   -6.4206    2.3918 H   0  0  0  0  0  0  0  0  0  0  0  0
   -0.1735   -4.7694    1.4571 N   0  0  0  0  0  0  0  0  0  0  0  0
    0.6439   -3.6603    1.0409 C   0  0  2  0  0  0  0  0  0  0  0  0
   -0.2788   -2.5625    0.5280 C   0  0  0  0  0  0  0  0  0  0  0  0
   -1.4197   -2.7791    0.1251 O   0  0  0  0  0  0  0  0  0  0  0  0
    1.6395   -4.0779   -0.0301 C   0  0  0  0  0  0  0  0  0  0  0  0
   -0.8741   -5.1235    0.8083 H   0  0  0  0  0  0  0  0  0  0  0  0
    1.1738   -3.3062    1.9318 H   0  0  0  0  0  0  0  0  0  0  0  0
    1.1270   -4.4358   -0.9305 H   0  0  0  0  0  0  0  0  0  0  0  0
    2.2797   -3.2400   -0.3251 H   0  0  0  0  0  0  0  0  0  0  0  0
    2.2827   -4.8880    0.3303 H   0  0  0  0  0  0  0  0  0  0  0  0
    0.3351   -1.3153    0.5316 N   0  0  0  0  0  0  0  0  0  0  0  0
   -0.3268   -0.1184    0.0807 C   0  0  2  0  0  0  0  0  0  0  0  0
   -1.5671    0.1094    0.9393 C   0  0  0  0  0  0  0  0  0  0  0  0
   -1.5452    0.7463    1.9906 O   0  0  0  0  0  0  0  0  0  0  0  0
   -0.6422   -0.1620   -1.4207 C   0  0  0  0  0  0  0  0  0  0  0  0
    0.6034   -0.1650   -2.3101 C   0  0  0  0  0  0  0  0  0  0  0  0
    1.5776    1.3469   -2.0474 S   0  0  0  0  0  0  0  0  0  0  0  0
    0.4277    2.5292   -2.7860 C   0  0  0  0  0  0  0  0  0  0  0  0
    1.2790   -1.2290    0.9021 H   0  0  0  0  0  0  0  0  0  0  0  0
    0.3747    0.7022    0.2743 H   0  0  0  0  0  0  0  0  0  0  0  0
   -1.2642    0.7086   -1.6687 H   0  0  0  0  0  0  0  0  0  0  0  0
   -1.2437   -1.0550   -1.6341 H   0  0  0  0  0  0  0  0  0  0  0  0
    0.3295   -0.2077   -3.3685 H   0  0  0  0  0  0  0  0  0  0  0  0
    1.2440   -1.0236   -2.0882 H   0  0  0  0  0  0  0  0  0  0  0  0
    0.8429    3.5382   -2.7267 H   0  0  0  0  0  0  0  0  0  0  0  0
   -0.5250    2.5038   -2.2512 H   0  0  0  0  0  0  0  0  0  0  0  0
    0.2560    2.2744   -3.8345 H   0  0  0  0  0  0  0  0  0  0  0  0
   -2.6918   -0.5082    0.4114 N   0  0  0  0  0  0  0  0  0  0  0  0
   -3.9851   -0.4475    1.0511 C   0  0  2  0  0  0  0  0  0  0  0  0
   -4.6475   -1.8108    0.9029 C   0  0  0  0  0  0  0  0  0  0  0  0
   -4.3397   -2.6144    0.0251 O   0  0  0  0  0  0  0  0  0  0  0  0
   -4.8510    0.6463    0.4457 C   0  0  0  0  0  0  0  0  0  0  0  0
   -2.6252   -0.9920   -0.4792 H   0  0  0  0  0  0  0  0  0  0  0  0
   -3.8040   -0.2421    2.1118 H   0  0  0  0  0  0  0  0  0  0  0  0
   -5.0433    0.4577   -0.6169 H   0  0  0  0  0  0  0  0  0  0  0  0
   -5.8205    0.7099    0.9507 H   0  0  0  0  0  0  0  0  0  0  0  0
   -4.3597    1.6219    0.5265 H   0  0  0  0  0  0  0  0  0  0  0  0
   -5.6527   -2.0072    1.8396 N   0  0  0  0  0  0  0  0  0  0  0  0
   -6.4388   -3.2175    1.8975 C   0  0  0  0  0  0  0  0  0  0  0  0
   -5.8271   -1.2947    2.5422 H   0  0  0  0  0  0  0  0  0  0  0  0
   -7.3511   -3.0918    1.2959 H   0  0  0  0  0  0  0  0  0  0  0  0
   -5.8497   -4.0566    1.4990 H   0  0  0  0  0  0  0  0  0  0  0  0
   -6.7141   -3.4261    2.9418 H   0  0  0  0  0  0  0  0  0  0  0  0
  1  3  1  0  0  0  0
  1  7  1  0  0  0  0
  1  2  2  0  0  0  0
 35 36  1  0  0  0  0
 36 44  1  0  0  0  0
 36 37  2  0  0  0  0
  8  9  1  0  0  0  0
  9 17  1  0  0  0  0
  9 10  2  0  0  0  0
 18 19  1  0  0  0  0
 19 34  1  0  0  0  0
 19 20  2  0  0  0  0
 35 38  1  0  0  0  0
  8 11  1  0  0  0  0
 44 45  1  0  0  0  0
 23 24  1  0  0  0  0
 21 22  1  0  0  0  0
 18 21  1  0  0  0  0
 22 23  1  0  0  0  0
 34 35  1  0  0  0  0
  7  8  1  0  0  0  0
 17 18  1  0  0  0  0
  3  4  1  0  0  0  0
  3  5  1  0  0  0  0
  3  6  1  0  0  0  0
 38 41  1  0  0  0  0
 38 42  1  0  0  0  0
 38 43  1  0  0  0  0
 11 14  1  0  0  0  0
 11 15  1  0  0  0  0
 11 16  1  0  0  0  0
 45 47  1  0  0  0  0
 45 48  1  0  0  0  0
 45 49  1  0  0  0  0
 24 31  1  0  0  0  0
 24 32  1  0  0  0  0
 24 33  1  0  0  0  0
 21 27  1  0  0  0  0
 21 28  1  0  0  0  0
 22 29  1  0  0  0  0
 22 30  1  0  0  0  0
 35 40  1  0  0  0  0
  8 13  1  0  0  0  0
 18 26  1  0  0  0  0
 44 46  1  0  0  0  0
  7 12  1  0  0  0  0
 34 39  1  0  0  0  0
 17 25  1  0  0  0  0
M  END
$$$$

  -OEChem-05262214473D

 49 48  0     1  0  0  0  0  0999 V2000
   -0.0561   -5.3799    2.6949 C   0  0  0  0  0  0  0  0  0  0  0  0
    0.7325   -5.0736    3.5815 O   0  0  0  0  0  0  0  0  0  0  0  0
   -1.0067   -6.5099    2.9135 C   0  0  0  0  0  0  0  0  0  0  0  0
   -0.5910   -7.4777    2.5899 H   0  0  0  0  0  0  0  0  0  0  0  0
   -1.2629   -6.6440    3.9767 H   0  0  0  0  0  0  0  0  0  0  0  0
   -1.9729   -6.4206    2.3918 H   0  0  0  0  0  0  0  0  0  0  0  0
   -0.1735   -4.7694    1.4571 N   0  0  0  0  0  0  0  0  0  0  0  0
    0.6439   -3.6603    1.0409 C   0  0  2  0  0  0  0  0  0  0  0  0
   -0.2788   -2.5625    0.5280 C   0  0  0  0  0  0  0  0  0  0  0  0
   -1.4197   -2.7791    0.1251 O   0  0  0  0  0  0  0  0  0  0  0  0
    1.6395   -4.0779   -0.0301 C   0  0  0  0  0  0  0  0  0  0  0  0
   -0.8741   -5.1235    0.8083 H   0  0  0  0  0  0  0  0  0  0  0  0
    1.1738   -3.3062    1.9318 H   0  0  0  0  0  0  0  0  0  0  0  0
    1.1270   -4.4358   -0.9305 H   0  0  0  0  0  0  0  0  0  0  0  0
    2.2797   -3.2400   -0.3251 H   0  0  0  0  0  0  0  0  0  0  0  0
    2.2827   -4.8880    0.3303 H   0  0  0  0  0  0  0  0  0  0  0  0
    0.3351   -1.3153    0.5316 N   0  0  0  0  0  0  0  0  0  0  0  0
   -0.3268   -0.1184    0.0807 C   0  0  2  0  0  0  0  0  0  0  0  0
   -1.5671    0.1094    0.9393 C   0  0  0  0  0  0  0  0  0  0  0  0
   -1.6166    0.9524    1.8328 O   0  0  0  0  0  0  0  0  0  0  0  0
   -0.6422   -0.1620   -1.4207 C   0  0  0  0  0  0  0  0  0  0  0  0
    0.6034   -0.1650   -2.3101 C   0  0  0  0  0  0  0  0  0  0  0  0
    1.5776    1.3469   -2.0474 S   0  0  0  0  0  0  0  0  0  0  0  0
    0.4277    2.5292   -2.7860 C   0  0  0  0  0  0  0  0  0  0  0  0
    1.2790   -1.2290    0.9021 H   0  0  0  0  0  0  0  0  0  0  0  0
    0.3747    0.7022    0.2743 H   0  0  0  0  0  0  0  0  0  0  0  0
   -1.2642    0.7086   -1.6687 H   0  0  0  0  0  0  0  0  0  0  0  0
   -1.2437   -1.0550   -1.6341 H   0  0  0  0  0  0  0  0  0  0  0  0
    0.3295   -0.2077   -3.3685 H   0  0  0  0  0  0  0  0  0  0  0  0
    1.2440   -1.0236   -2.0882 H   0  0  0  0  0  0  0  0  0  0  0  0
    0.8429    3.5382   -2.7267 H   0  0  0  0  0  0  0  0  0  0  0  0
   -0.5250    2.5038   -2.2512 H   0  0  0  0  0  0  0  0  0  0  0  0
    0.2560    2.2744   -3.8345 H   0  0  0  0  0  0  0  0  0  0  0  0
   -2.5985   -0.7594    0.6129 N   0  0  0  0  0  0  0  0  0  0  0  0
   -3.8712   -0.7473    1.2952 C   0  0  2  0  0  0  0  0  0  0  0  0
   -4.3251   -2.1906    1.4694 C   0  0  0  0  0  0  0  0  0  0  0  0
   -3.9207   -3.1110    0.7621 O   0  0  0  0  0  0  0  0  0  0  0  0
   -4.9049    0.0583    0.5239 C   0  0  0  0  0  0  0  0  0  0  0  0
   -2.4807   -1.4076   -0.1602 H   0  0  0  0  0  0  0  0  0  0  0  0
   -3.6984   -0.2969    2.2788 H   0  0  0  0  0  0  0  0  0  0  0  0
   -5.0912   -0.3778   -0.4644 H   0  0  0  0  0  0  0  0  0  0  0  0
   -5.8611    0.0904    1.0565 H   0  0  0  0  0  0  0  0  0  0  0  0
   -4.5635    1.0882    0.3736 H   0  0  0  0  0  0  0  0  0  0  0  0
   -5.2677   -2.3229    2.4795 N   0  0  0  0  0  0  0  0  0  0  0  0
   -5.8621   -3.5917    2.8299 C   0  0  0  0  0  0  0  0  0  0  0  0
   -5.5306   -1.5090    3.0274 H   0  0  0  0  0  0  0  0  0  0  0  0
   -6.7965   -3.7277    2.2658 H   0  0  0  0  0  0  0  0  0  0  0  0
   -5.1632   -4.4045    2.5829 H   0  0  0  0  0  0  0  0  0  0  0  0
   -6.0789   -3.6096    3.9082 H   0  0  0  0  0  0  0  0  0  0  0  0
  1  3  1  0  0  0  0
  1  7  1  0  0  0  0
  1  2  2  0  0  0  0
 35 36  1  0  0  0  0
 36 44  1  0  0  0  0
 36 37  2  0  0  0  0
  8  9  1  0  0  0  0
  9 17  1  0  0  0  0
  9 10  2  0  0  0  0
 18 19  1  0  0  0  0
 19 34  1  0  0  0  0
 19 20  2  0  0  0  0
 35 38  1  0  0  0  0
  8 11  1  0  0  0  0
 44 45  1  0  0  0  0
 23 24  1  0  0  0  0
 21 22  1  0  0  0  0
 18 21  1  0  0  0  0
 22 23  1  0  0  0  0
 34 35  1  0  0  0  0
  7  8  1  0  0  0  0
 17 18  1  0  0  0  0
  3  4  1  0  0  0  0
  3  5  1  0  0  0  0
  3  6  1  0  0  0  0
 38 41  1  0  0  0  0
 38 42  1  0  0  0  0
 38 43  1  0  0  0  0
 11 14  1  0  0  0  0
 11 15  1  0  0  0  0
 11 16  1  0  0  0  0
 45 47  1  0  0  0  0
 45 48  1  0  0  0  0
 45 49  1  0  0  0  0
 24 31  1  0  0  0  0
 24 32  1  0  0  0  0
 24 33  1  0  0  0  0
 21 27  1  0  0  0  0
 21 28  1  0  0  0  0
 22 29  1  0  0  0  0
 22 30  1  0  0  0  0
 35 40  1  0  0  0  0
  8 13  1  0  0  0  0
 18 26  1  0  0  0  0
 44 46  1  0  0  0  0
  7 12  1  0  0  0  0
 34 39  1  0  0  0  0
 17 25  1  0  0  0  0
M  END
$$$$

  -OEChem-05262214473D

 49 48  0     1  0  0  0  0  0999 V2000
   -0.0561   -5.3799    2.6949 C   0  0  0  0  0  0  0  0  0  0  0  0
    0.7325   -5.0736    3.5815 O   0  0  0  0  0  0  0  0  0  0  0  0
   -1.0067   -6.5099    2.9135 C   0  0  0  0  0  0  0  0  0  0  0  0
   -0.5910   -7.4777    2.5899 H   0  0  0  0  0  0  0  0  0  0  0  0
   -1.2629   -6.6440    3.9767 H   0  0  0  0  0  0  0  0  0  0  0  0
   -1.9729   -6.4206    2.3918 H   0  0  0  0  0  0  0  0  0  0  0  0
   -0.1735   -4.7694    1.4571 N   0  0  0  0  0  0  0  0  0  0  0  0
    0.6439   -3.6603    1.0409 C   0  0  2  0  0  0  0  0  0  0  0  0
   -0.2788   -2.5625    0.5280 C   0  0  0  0  0  0  0  0  0  0  0  0
   -1.4197   -2.7791    0.1251 O   0  0  0  0  0  0  0  0  0  0  0  0
    1.6395   -4.0779   -0.0301 C   0  0  0  0  0  0  0  0  0  0  0  0
   -0.8741   -5.1235    0.8083 H   0  0  0  0  0  0  0  0  0  0  0  0
    1.1738   -3.3062    1.9318 H   0  0  0  0  0  0  0  0  0  0  0  0
    1.1270   -4.4358   -0.9305 H   0  0  0  0  0  0  0  0  0  0  0  0
    2.2797   -3.2400   -0.3251 H   0  0  0  0  0  0  0  0  0  0  0  0
    2.2827   -4.8880    0.3303 H   0  0  0  0  0  0  0  0  0  0  0  0
    0.3351   -1.3153    0.5316 N   0  0  0  0  0  0  0  0  0  0  0  0
   -0.3268   -0.1184    0.0807 C   0  0  2  0  0  0  0  0  0  0  0  0
   -1.5671    0.1094    0.9393 C   0  0  0  0  0  0  0  0  0  0  0  0
   -1.7217    1.1078    1.6397 O   0  0  0  0  0  0  0  0  0  0  0  0
   -0.6422   -0.1620   -1.4207 C   0  0  0  0  0  0  0  0  0  0  0  0
    0.6034   -0.1650   -2.3101 C   0  0  0  0  0  0  0  0  0  0  0  0
    1.5776    1.3469   -2.0474 S   0  0  0  0  0  0  0  0  0  0  0  0
    0.4277    2.5292   -2.7860 C   0  0  0  0  0  0  0  0  0  0  0  0
    1.2790   -1.2290    0.9021 H   0  0  0  0  0  0  0  0  0  0  0  0
    0.3747    0.7022    0.2743 H   0  0  0  0  0  0  0  0  0  0  0  0
   -1.2642    0.7086   -1.6687 H   0  0  0  0  0  0  0  0  0  0  0  0
   -1.2437   -1.0550   -1.6341 H   0  0  0  0  0  0  0  0  0  0  0  0
    0.3295   -0.2077   -3.3685 H   0  0  0  0  0  0  0  0  0  0  0  0
    1.2440   -1.0236   -2.0882 H   0  0  0  0  0  0  0  0  0  0  0  0
    0.8429    3.5382   -2.7267 H   0  0  0  0  0  0  0  0  0  0  0  0
   -0.5250    2.5038   -2.2512 H   0  0  0  0  0  0  0  0  0  0  0  0
    0.2560    2.2744   -3.8345 H   0  0  0  0  0  0  0  0  0  0  0  0
   -2.4639   -0.9461    0.8568 N   0  0  0  0  0  0  0  0  0  0  0  0
   -3.7080   -0.9689    1.5897 C   0  0  2  0  0  0  0  0  0  0  0  0
   -3.9365   -2.3912    2.0841 C   0  0  0  0  0  0  0  0  0  0  0  0
   -3.4152   -3.3746    1.5623 O   0  0  0  0  0  0  0  0  0  0  0  0
   -4.8683   -0.5009    0.7252 C   0  0  0  0  0  0  0  0  0  0  0  0
   -2.2683   -1.7209    0.2298 H   0  0  0  0  0  0  0  0  0  0  0  0
   -3.5820   -0.2993    2.4475 H   0  0  0  0  0  0  0  0  0  0  0  0
   -5.0099   -1.1596   -0.1394 H   0  0  0  0  0  0  0  0  0  0  0  0
   -5.8059   -0.4917    1.2907 H   0  0  0  0  0  0  0  0  0  0  0  0
   -4.6886    0.5109    0.3462 H   0  0  0  0  0  0  0  0  0  0  0  0
   -4.8250   -2.4371    3.1493 N   0  0  0  0  0  0  0  0  0  0  0  0
   -5.2144   -3.6730    3.7871 C   0  0  0  0  0  0  0  0  0  0  0  0
   -5.1942   -1.5706    3.5297 H   0  0  0  0  0  0  0  0  0  0  0  0
   -6.1308   -4.0570    3.3150 H   0  0  0  0  0  0  0  0  0  0  0  0
   -4.4076   -4.4125    3.6766 H   0  0  0  0  0  0  0  0  0  0  0  0
   -5.4012   -3.4910    4.8557 H   0  0  0  0  0  0  0  0  0  0  0  0
  1  3  1  0  0  0  0
  1  7  1  0  0  0  0
  1  2  2  0  0  0  0
 35 36  1  0  0  0  0
 36 44  1  0  0  0  0
 36 37  2  0  0  0  0
  8  9  1  0  0  0  0
  9 17  1  0  0  0  0
  9 10  2  0  0  0  0
 18 19  1  0  0  0  0
 19 34  1  0  0  0  0
 19 20  2  0  0  0  0
 35 38  1  0  0  0  0
  8 11  1  0  0  0  0
 44 45  1  0  0  0  0
 23 24  1  0  0  0  0
 21 22  1  0  0  0  0
 18 21  1  0  0  0  0
 22 23  1  0  0  0  0
 34 35  1  0  0  0  0
  7  8  1  0  0  0  0
 17 18  1  0  0  0  0
  3  4  1  0  0  0  0
  3  5  1  0  0  0  0
  3  6  1  0  0  0  0
 38 41  1  0  0  0  0
 38 42  1  0  0  0  0
 38 43  1  0  0  0  0
 11 14  1  0  0  0  0
 11 15  1  0  0  0  0
 11 16  1  0  0  0  0
 45 47  1  0  0  0  0
 45 48  1  0  0  0  0
 45 49  1  0  0  0  0
 24 31  1  0  0  0  0
 24 32  1  0  0  0  0
 24 33  1  0  0  0  0
 21 27  1  0  0  0  0
 21 28  1  0  0  0  0
 22 29  1  0  0  0  0
 22 30  1  0  0  0  0
 35 40  1  0  0  0  0
  8 13  1  0  0  0  0
 18 26  1  0  0  0  0
 44 46  1  0  0  0  0
  7 12  1  0  0  0  0
 34 39  1  0  0  0  0
 17 25  1  0  0  0  0
M  END
$$$$

  -OEChem-05262214473D

 49 48  0     1  0  0  0  0  0999 V2000
   -0.0561   -5.3799    2.6949 C   0  0  0  0  0  0  0  0  0  0  0  0
    0.7325   -5.0736    3.5815 O   0  0  0  0  0  0  0  0  0  0  0  0
   -1.0067   -6.5099    2.9135 C   0  0  0  0  0  0  0  0  0  0  0  0
   -0.5910   -7.4777    2.5899 H   0  0  0  0  0  0  0  0  0  0  0  0
   -1.2629   -6.6440    3.9767 H   0  0  0  0  0  0  0  0  0  0  0  0
   -1.9729   -6.4206    2.3918 H   0  0  0  0  0  0  0  0  0  0  0  0
   -0.1735   -4.7694    1.4571 N   0  0  0  0  0  0  0  0  0  0  0  0
    0.6439   -3.6603    1.0409 C   0  0  2  0  0  0  0  0  0  0  0  0
   -0.2788   -2.5625    0.5280 C   0  0  0  0  0  0  0  0  0  0  0  0
   -1.4197   -2.7791    0.1251 O   0  0  0  0  0  0  0  0  0  0  0  0
    1.6395   -4.0779   -0.0301 C   0  0  0  0  0  0  0  0  0  0  0  0
   -0.8741   -5.1235    0.8083 H   0  0  0  0  0  0  0  0  0  0  0  0
    1.1738   -3.3062    1.9318 H   0  0  0  0  0  0  0  0  0  0  0  0
    1.1270   -4.4358   -0.9305 H   0  0  0  0  0  0  0  0  0  0  0  0
    2.2797   -3.2400   -0.3251 H   0  0  0  0  0  0  0  0  0  0  0  0
    2.2827   -4.8880    0.3303 H   0  0  0  0  0  0  0  0  0  0  0  0
    0.3351   -1.3153    0.5316 N   0  0  0  0  0  0  0  0  0  0  0  0
   -0.3268   -0.1184    0.0807 C   0  0  2  0  0  0  0  0  0  0  0  0
   -1.5671    0.1094    0.9393 C   0  0  0  0  0  0  0  0  0  0  0  0
   -1.8533    1.2021    1.4246 O   0  0  0  0  0  0  0  0  0  0  0  0
   -0.6422   -0.1620   -1.4207 C   0  0  0  0  0  0  0  0  0  0  0  0
    0.6034   -0.1650   -2.3101 C   0  0  0  0  0  0  0  0  0  0  0  0
    1.5776    1.3469   -2.0474 S   0  0  0  0  0  0  0  0  0  0  0  0
    0.4277    2.5292   -2.7860 C   0  0  0  0  0  0  0  0  0  0  0  0
    1.2790   -1.2290    0.9021 H   0  0  0  0  0  0  0  0  0  0  0  0
    0.3747    0.7022    0.2743 H   0  0  0  0  0  0  0  0  0  0  0  0
   -1.2642    0.7086   -1.6687 H   0  0  0  0  0  0  0  0  0  0  0  0
   -1.2437   -1.0550   -1.6341 H   0  0  0  0  0  0  0  0  0  0  0  0
    0.3295   -0.2077   -3.3685 H   0  0  0  0  0  0  0  0  0  0  0  0
    1.2440   -1.0236   -2.0882 H   0  0  0  0  0  0  0  0  0  0  0  0
    0.8429    3.5382   -2.7267 H   0  0  0  0  0  0  0  0  0  0  0  0
   -0.5250    2.5038   -2.2512 H   0  0  0  0  0  0  0  0  0  0  0  0
    0.2560    2.2744   -3.8345 H   0  0  0  0  0  0  0  0  0  0  0  0
   -2.2974   -1.0554    1.1264 N   0  0  0  0  0  0  0  0  0  0  0  0
   -3.5067   -1.0973    1.9145 C   0  0  2  0  0  0  0  0  0  0  0  0
   -3.5082   -2.3991    2.7050 C   0  0  0  0  0  0  0  0  0  0  0  0
   -2.8576   -3.3872    2.3712 O   0  0  0  0  0  0  0  0  0  0  0  0
   -4.7436   -0.9935    1.0359 C   0  0  0  0  0  0  0  0  0  0  0  0
   -2.0024   -1.9104    0.6643 H   0  0  0  0  0  0  0  0  0  0  0  0
   -3.4627   -0.2492    2.6066 H   0  0  0  0  0  0  0  0  0  0  0  0
   -4.8049   -1.8347    0.3358 H   0  0  0  0  0  0  0  0  0  0  0  0
   -5.6588   -0.9966    1.6372 H   0  0  0  0  0  0  0  0  0  0  0  0
   -4.7263   -0.0707    0.4460 H   0  0  0  0  0  0  0  0  0  0  0  0
   -4.3550   -2.3420    3.8031 N   0  0  0  0  0  0  0  0  0  0  0  0
   -4.5400   -3.4558    4.7037 C   0  0  0  0  0  0  0  0  0  0  0  0
   -4.8409   -1.4755    4.0148 H   0  0  0  0  0  0  0  0  0  0  0  0
   -5.3991   -4.0574    4.3720 H   0  0  0  0  0  0  0  0  0  0  0  0
   -3.6343   -4.0801    4.7055 H   0  0  0  0  0  0  0  0  0  0  0  0
   -4.7273   -3.0784    5.7198 H   0  0  0  0  0  0  0  0  0  0  0  0
  1  3  1  0  0  0  0
  1  7  1  0  0  0  0
  1  2  2  0  0  0  0
 35 36  1  0  0  0  0
 36 44  1  0  0  0  0
 36 37  2  0  0  0  0
  8  9  1  0  0  0  0
  9 17  1  0  0  0  0
  9 10  2  0  0  0  0
 18 19  1  0  0  0  0
 19 34  1  0  0  0  0
 19 20  2  0  0  0  0
 35 38  1  0  0  0  0
  8 11  1  0  0  0  0
 44 45  1  0  0  0  0
 23 24  1  0  0  0  0
 21 22  1  0  0  0  0
 18 21  1  0  0  0  0
 22 23  1  0  0  0  0
 34 35  1  0  0  0  0
  7  8  1  0  0  0  0
 17 18  1  0  0  0  0
  3  4  1  0  0  0  0
  3  5  1  0  0  0  0
  3  6  1  0  0  0  0
 38 41  1  0  0  0  0
 38 42  1  0  0  0  0
 38 43  1  0  0  0  0
 11 14  1  0  0  0  0
 11 15  1  0  0  0  0
 11 16  1  0  0  0  0
 45 47  1  0  0  0  0
 45 48  1  0  0  0  0
 45 49  1  0  0  0  0
 24 31  1  0  0  0  0
 24 32  1  0  0  0  0
 24 33  1  0  0  0  0
 21 27  1  0  0  0  0
 21 28  1  0  0  0  0
 22 29  1  0  0  0  0
 22 30  1  0  0  0  0
 35 40  1  0  0  0  0
  8 13  1  0  0  0  0
 18 26  1  0  0  0  0
 44 46  1  0  0  0  0
  7 12  1  0  0  0  0
 34 39  1  0  0  0  0
 17 25  1  0  0  0  0
M  END
$$$$

  -OEChem-05262214473D

 49 48  0     1  0  0  0  0  0999 V2000
   -0.0561   -5.3799    2.6949 C   0  0  0  0  0  0  0  0  0  0  0  0
    0.7325   -5.0736    3.5815 O   0  0  0  0  0  0  0  0  0  0  0  0
   -1.0067   -6.5099    2.9135 C   0  0  0  0  0  0  0  0  0  0  0  0
   -0.5910   -7.4777    2.5899 H   0  0  0  0  0  0  0  0  0  0  0  0
   -1.2629   -6.6440    3.9767 H   0  0  0  0  0  0  0  0  0  0  0  0
   -1.9729   -6.4206    2.3918 H   0  0  0  0  0  0  0  0  0  0  0  0
   -0.1735   -4.7694    1.4571 N   0  0  0  0  0  0  0  0  0  0  0  0
    0.6439   -3.6603    1.0409 C   0  0  2  0  0  0  0  0  0  0  0  0
   -0.2788   -2.5625    0.5280 C   0  0  0  0  0  0  0  0  0  0  0  0
   -1.4197   -2.7791    0.1251 O   0  0  0  0  0  0  0  0  0  0  0  0
    1.6395   -4.0779   -0.0301 C   0  0  0  0  0  0  0  0  0  0  0  0
   -0.8741   -5.1235    0.8083 H   0  0  0  0  0  0  0  0  0  0  0  0
    1.1738   -3.3062    1.9318 H   0  0  0  0  0  0  0  0  0  0  0  0
    1.1270   -4.4358   -0.9305 H   0  0  0  0  0  0  0  0  0  0  0  0
    2.2797   -3.2400   -0.3251 H   0  0  0  0  0  0  0  0  0  0  0  0
    2.2827   -4.8880    0.3303 H   0  0  0  0  0  0  0  0  0  0  0  0
    0.3351   -1.3153    0.5316 N   0  0  0  0  0  0  0  0  0  0  0  0
   -0.3268   -0.1184    0.0807 C   0  0  2  0  0  0  0  0  0  0  0  0
   -1.5671    0.1094    0.9393 C   0  0  0  0  0  0  0  0  0  0  0  0
   -2.0025    1.2287    1.2020 O   0  0  0  0  0  0  0  0  0  0  0  0
   -0.6422   -0.1620   -1.4207 C   0  0  0  0  0  0  0  0  0  0  0  0
    0.6034   -0.1650   -2.3101 C   0  0  0  0  0  0  0  0  0  0  0  0
    1.5776    1.3469   -2.0474 S   0  0  0  0  0  0  0  0  0  0  0  0
    0.4277    2.5292   -2.7860 C   0  0  0  0  0  0  0  0  0  0  0  0
    1.2790   -1.2290    0.9021 H   0  0  0  0  0  0  0  0  0  0  0  0
    0.3747    0.7022    0.2743 H   0  0  0  0  0  0  0  0  0  0  0  0
   -1.2642    0.7086   -1.6687 H   0  0  0  0  0  0  0  0  0  0  0  0
   -1.2437   -1.0550   -1.6341 H   0  0  0  0  0  0  0  0  0  0  0  0
    0.3295   -0.2077   -3.3685 H   0  0  0  0  0  0  0  0  0  0  0  0
    1.2440   -1.0236   -2.0882 H   0  0  0  0  0  0  0  0  0  0  0  0
    0.8429    3.5382   -2.7267 H   0  0  0  0  0  0  0  0  0  0  0  0
   -0.5250    2.5038   -2.2512 H   0  0  0  0  0  0  0  0  0  0  0  0
    0.2560    2.2744   -3.8345 H   0  0  0  0  0  0  0  0  0  0  0  0
   -2.1101   -1.0801    1.4034 N   0  0  0  0  0  0  0  0  0  0  0  0
   -3.2811   -1.1236    2.2475 C   0  0  2  0  0  0  0  0  0  0  0  0
   -3.0693   -2.2136    3.2898 C   0  0  0  0  0  0  0  0  0  0  0  0
   -2.2859   -3.1479    3.1336 O   0  0  0  0  0  0  0  0  0  0  0  0
   -4.5395   -1.3857    1.4349 C   0  0  0  0  0  0  0  0  0  0  0  0
   -1.7011   -1.9634    1.1135 H   0  0  0  0  0  0  0  0  0  0  0  0
   -3.3487   -0.1499    2.7450 H   0  0  0  0  0  0  0  0  0  0  0  0
   -4.4902   -2.3568    0.9290 H   0  0  0  0  0  0  0  0  0  0  0  0
   -5.4298   -1.3900    2.0724 H   0  0  0  0  0  0  0  0  0  0  0  0
   -4.6742   -0.6170    0.6662 H   0  0  0  0  0  0  0  0  0  0  0  0
   -3.8895   -2.0441    4.3964 N   0  0  0  0  0  0  0  0  0  0  0  0
   -3.8848   -2.9549    5.5173 C   0  0  0  0  0  0  0  0  0  0  0  0
   -4.4947   -1.2300    4.4497 H   0  0  0  0  0  0  0  0  0  0  0  0
   -4.6515   -3.7288    5.3648 H   0  0  0  0  0  0  0  0  0  0  0  0
   -2.8960   -3.4298    5.5995 H   0  0  0  0  0  0  0  0  0  0  0  0
   -4.1030   -2.3999    6.4415 H   0  0  0  0  0  0  0  0  0  0  0  0
  1  3  1  0  0  0  0
  1  7  1  0  0  0  0
  1  2  2  0  0  0  0
 35 36  1  0  0  0  0
 36 44  1  0  0  0  0
 36 37  2  0  0  0  0
  8  9  1  0  0  0  0
  9 17  1  0  0  0  0
  9 10  2  0  0  0  0
 18 19  1  0  0  0  0
 19 34  1  0  0  0  0
 19 20  2  0  0  0  0
 35 38  1  0  0  0  0
  8 11  1  0  0  0  0
 44 45  1  0  0  0  0
 23 24  1  0  0  0  0
 21 22  1  0  0  0  0
 18 21  1  0  0  0  0
 22 23  1  0  0  0  0
 34 35  1  0  0  0  0
  7  8  1  0  0  0  0
 17 18  1  0  0  0  0
  3  4  1  0  0  0  0
  3  5  1  0  0  0  0
  3  6  1  0  0  0  0
 38 41  1  0  0  0  0
 38 42  1  0  0  0  0
 38 43  1  0  0  0  0
 11 14  1  0  0  0  0
 11 15  1  0  0  0  0
 11 16  1  0  0  0  0
 45 47  1  0  0  0  0
 45 48  1  0  0  0  0
 45 49  1  0  0  0  0
 24 31  1  0  0  0  0
 24 32  1  0  0  0  0
 24 33  1  0  0  0  0
 21 27  1  0  0  0  0
 21 28  1  0  0  0  0
 22 29  1  0  0  0  0
 22 30  1  0  0  0  0
 35 40  1  0  0  0  0
  8 13  1  0  0  0  0
 18 26  1  0  0  0  0
 44 46  1  0  0  0  0
  7 12  1  0  0  0  0
 34 39  1  0  0  0  0
 17 25  1  0  0  0  0
M  END
$$$$

  -OEChem-05262214473D

 49 48  0     1  0  0  0  0  0999 V2000
   -0.0561   -5.3799    2.6949 C   0  0  0  0  0  0  0  0  0  0  0  0
    0.7325   -5.0736    3.5815 O   0  0  0  0  0  0  0  0  0  0  0  0
   -1.0067   -6.5099    2.9135 C   0  0  0  0  0  0  0  0  0  0  0  0
   -0.5910   -7.4777    2.5899 H   0  0  0  0  0  0  0  0  0  0  0  0
   -1.2629   -6.6440    3.9767 H   0  0  0  0  0  0  0  0  0  0  0  0
   -1.9729   -6.4206    2.3918 H   0  0  0  0  0  0  0  0  0  0  0  0
   -0.1735   -4.7694    1.4571 N   0  0  0  0  0  0  0  0  0  0  0  0
    0.6439   -3.6603    1.0409 C   0  0  2  0  0  0  0  0  0  0  0  0
   -0.2788   -2.5625    0.5280 C   0  0  0  0  0  0  0  0  0  0  0  0
   -1.4197   -2.7791    0.1251 O   0  0  0  0  0  0  0  0  0  0  0  0
    1.6395   -4.0779   -0.0301 C   0  0  0  0  0  0  0  0  0  0  0  0
   -0.8741   -5.1235    0.8083 H   0  0  0  0  0  0  0  0  0  0  0  0
    1.1738   -3.3062    1.9318 H   0  0  0  0  0  0  0  0  0  0  0  0
    1.1270   -4.4358   -0.9305 H   0  0  0  0  0  0  0  0  0  0  0  0
    2.2797   -3.2400   -0.3251 H   0  0  0  0  0  0  0  0  0  0  0  0
    2.2827   -4.8880    0.3303 H   0  0  0  0  0  0  0  0  0  0  0  0
    0.3351   -1.3153    0.5316 N   0  0  0  0  0  0  0  0  0  0  0  0
   -0.3268   -0.1184    0.0807 C   0  0  2  0  0  0  0  0  0  0  0  0
   -1.5671    0.1094    0.9393 C   0  0  0  0  0  0  0  0  0  0  0  0
   -2.1591    1.1858    0.9872 O   0  0  0  0  0  0  0  0  0  0  0  0
   -0.6422   -0.1620   -1.4207 C   0  0  0  0  0  0  0  0  0  0  0  0
    0.6034   -0.1650   -2.3101 C   0  0  0  0  0  0  0  0  0  0  0  0
    1.5776    1.3469   -2.0474 S   0  0  0  0  0  0  0  0  0  0  0  0
    0.4277    2.5292   -2.7860 C   0  0  0  0  0  0  0  0  0  0  0  0
    1.2790   -1.2290    0.9021 H   0  0  0  0  0  0  0  0  0  0  0  0
    0.3747    0.7022    0.2743 H   0  0  0  0  0  0  0  0  0  0  0  0
   -1.2642    0.7086   -1.6687 H   0  0  0  0  0  0  0  0  0  0  0  0
   -1.2437   -1.0550   -1.6341 H   0  0  0  0  0  0  0  0  0  0  0  0
    0.3295   -0.2077   -3.3685 H   0  0  0  0  0  0  0  0  0  0  0  0
    1.2440   -1.0236   -2.0882 H   0  0  0  0  0  0  0  0  0  0  0  0
    0.8429    3.5382   -2.7267 H   0  0  0  0  0  0  0  0  0  0  0  0
   -0.5250    2.5038   -2.2512 H   0  0  0  0  0  0  0  0  0  0  0  0
    0.2560    2.2744   -3.8345 H   0  0  0  0  0  0  0  0  0  0  0  0
   -1.9150   -1.0183    1.6690 N   0  0  0  0  0  0  0  0  0  0  0  0
   -3.0464   -1.0460    2.5659 C   0  0  2  0  0  0  0  0  0  0  0  0
   -2.6497   -1.8475    3.7987 C   0  0  0  0  0  0  0  0  0  0  0  0
   -1.7390   -2.6732    3.7976 O   0  0  0  0  0  0  0  0  0  0  0  0
   -4.2698   -1.6508    1.8949 C   0  0  0  0  0  0  0  0  0  0  0  0
   -1.3850   -1.8762    1.5470 H   0  0  0  0  0  0  0  0  0  0  0  0
   -3.2476   -0.0083    2.8534 H   0  0  0  0  0  0  0  0  0  0  0  0
   -4.0872   -2.6906    1.5997 H   0  0  0  0  0  0  0  0  0  0  0  0
   -5.1344   -1.6450    2.5668 H   0  0  0  0  0  0  0  0  0  0  0  0
   -4.5358   -1.0908    0.9919 H   0  0  0  0  0  0  0  0  0  0  0  0
   -3.4604   -1.5636    4.8889 N   0  0  0  0  0  0  0  0  0  0  0  0
   -3.2934   -2.2044    6.1724 C   0  0  0  0  0  0  0  0  0  0  0  0
   -4.1793   -0.8510    4.8048 H   0  0  0  0  0  0  0  0  0  0  0  0
   -3.9389   -3.0936    6.2257 H   0  0  0  0  0  0  0  0  0  0  0  0
   -2.2430   -2.5060    6.2977 H   0  0  0  0  0  0  0  0  0  0  0  0
   -3.5709   -1.5016    6.9718 H   0  0  0  0  0  0  0  0  0  0  0  0
  1  3  1  0  0  0  0
  1  7  1  0  0  0  0
  1  2  2  0  0  0  0
 35 36  1  0  0  0  0
 36 44  1  0  0  0  0
 36 37  2  0  0  0  0
  8  9  1  0  0  0  0
  9 17  1  0  0  0  0
  9 10  2  0  0  0  0
 18 19  1  0  0  0  0
 19 34  1  0  0  0  0
 19 20  2  0  0  0  0
 35 38  1  0  0  0  0
  8 11  1  0  0  0  0
 44 45  1  0  0  0  0
 23 24  1  0  0  0  0
 21 22  1  0  0  0  0
 18 21  1  0  0  0  0
 22 23  1  0  0  0  0
 34 35  1  0  0  0  0
  7  8  1  0  0  0  0
 17 18  1  0  0  0  0
  3  4  1  0  0  0  0
  3  5  1  0  0  0  0
  3  6  1  0  0  0  0
 38 41  1  0  0  0  0
 38 42  1  0  0  0  0
 38 43  1  0  0  0  0
 11 14  1  0  0  0  0
 11 15  1  0  0  0  0
 11 16  1  0  0  0  0
 45 47  1  0  0  0  0
 45 48  1  0  0  0  0
 45 49  1  0  0  0  0
 24 31  1  0  0  0  0
 24 32  1  0  0  0  0
 24 33  1  0  0  0  0
 21 27  1  0  0  0  0
 21 28  1  0  0  0  0
 22 29  1  0  0  0  0
 22 30  1  0  0  0  0
 35 40  1  0  0  0  0
  8 13  1  0  0  0  0
 18 26  1  0  0  0  0
 44 46  1  0  0  0  0
  7 12  1  0  0  0  0
 34 39  1  0  0  0  0
 17 25  1  0  0  0  0
M  END
$$$$

  -OEChem-05262214473D

 49 48  0     1  0  0  0  0  0999 V2000
   -0.0561   -5.3799    2.6949 C   0  0  0  0  0  0  0  0  0  0  0  0
    0.7325   -5.0736    3.5815 O   0  0  0  0  0  0  0  0  0  0  0  0
   -1.0067   -6.5099    2.9135 C   0  0  0  0  0  0  0  0  0  0  0  0
   -0.5910   -7.4777    2.5899 H   0  0  0  0  0  0  0  0  0  0  0  0
   -1.2629   -6.6440    3.9767 H   0  0  0  0  0  0  0  0  0  0  0  0
   -1.9729   -6.4206    2.3918 H   0  0  0  0  0  0  0  0  0  0  0  0
   -0.1735   -4.7694    1.4571 N   0  0  0  0  0  0  0  0  0  0  0  0
    0.6439   -3.6603    1.0409 C   0  0  2  0  0  0  0  0  0  0  0  0
   -0.2788   -2.5625    0.5280 C   0  0  0  0  0  0  0  0  0  0  0  0
   -1.4197   -2.7791    0.1251 O   0  0  0  0  0  0  0  0  0  0  0  0
    1.6395   -4.0779   -0.0301 C   0  0  0  0  0  0  0  0  0  0  0  0
   -0.8741   -5.1235    0.8083 H   0  0  0  0  0  0  0  0  0  0  0  0
    1.1738   -3.3062    1.9318 H   0  0  0  0  0  0  0  0  0  0  0  0
    1.1270   -4.4358   -0.9305 H   0  0  0  0  0  0  0  0  0  0  0  0
    2.2797   -3.2400   -0.3251 H   0  0  0  0  0  0  0  0  0  0  0  0
    2.2827   -4.8880    0.3303 H   0  0  0  0  0  0  0  0  0  0  0  0
    0.3351   -1.3153    0.5316 N   0  0  0  0  0  0  0  0  0  0  0  0
   -0.3268   -0.1184    0.0807 C   0  0  2  0  0  0  0  0  0  0  0  0
   -1.5671    0.1094    0.9393 C   0  0  0  0  0  0  0  0  0  0  0  0
   -2.3124    1.0764    0.7948 O   0  0  0  0  0  0  0  0  0  0  0  0
   -0.6422   -0.1620   -1.4207 C   0  0  0  0  0  0  0  0  0  0  0  0
    0.6034   -0.1650   -2.3101 C   0  0  0  0  0  0  0  0  0  0  0  0
    1.5776    1.3469   -2.0474 S   0  0  0  0  0  0  0  0  0  0  0  0
    0.4277    2.5292   -2.7860 C   0  0  0  0  0  0  0  0  0  0  0  0
    1.2790   -1.2290    0.9021 H   0  0  0  0  0  0  0  0  0  0  0  0
    0.3747    0.7022    0.2743 H   0  0  0  0  0  0  0  0  0  0  0  0
   -1.2642    0.7086   -1.6687 H   0  0  0  0  0  0  0  0  0  0  0  0
   -1.2437   -1.0550   -1.6341 H   0  0  0  0  0  0  0  0  0  0  0  0
    0.3295   -0.2077   -3.3685 H   0  0  0  0  0  0  0  0  0  0  0  0
    1.2440   -1.0236   -2.0882 H   0  0  0  0  0  0  0  0  0  0  0  0
    0.8429    3.5382   -2.7267 H   0  0  0  0  0  0  0  0  0  0  0  0
   -0.5250    2.5038   -2.2512 H   0  0  0  0  0  0  0  0  0  0  0  0
    0.2560    2.2744   -3.8345 H   0  0  0  0  0  0  0  0  0  0  0  0
   -1.7252   -0.8743    1.9049 N   0  0  0  0  0  0  0  0  0  0  0  0
   -2.8187   -0.8700    2.8481 C   0  0  2  0  0  0  0  0  0  0  0  0
   -2.2781   -1.3257    4.1970 C   0  0  0  0  0  0  0  0  0  0  0  0
   -1.2543   -1.9952    4.3179 O   0  0  0  0  0  0  0  0  0  0  0  0
   -3.9528   -1.7709    2.3846 C   0  0  0  0  0  0  0  0  0  0  0  0
   -1.0757   -1.6546    1.9351 H   0  0  0  0  0  0  0  0  0  0  0  0
   -3.1664    0.1660    2.9245 H   0  0  0  0  0  0  0  0  0  0  0  0
   -3.6234   -2.8131    2.3022 H   0  0  0  0  0  0  0  0  0  0  0  0
   -4.7929   -1.7443    3.0865 H   0  0  0  0  0  0  0  0  0  0  0  0
   -4.3205   -1.4598    1.4008 H   0  0  0  0  0  0  0  0  0  0  0  0
   -3.0968   -0.9335    5.2469 N   0  0  0  0  0  0  0  0  0  0  0  0
   -2.8062   -1.2555    6.6245 C   0  0  0  0  0  0  0  0  0  0  0  0
   -3.9161   -0.3643    5.0559 H   0  0  0  0  0  0  0  0  0  0  0  0
   -3.3098   -2.1950    6.8960 H   0  0  0  0  0  0  0  0  0  0  0  0
   -1.7198   -1.3717    6.7524 H   0  0  0  0  0  0  0  0  0  0  0  0
   -3.1673   -0.4449    7.2744 H   0  0  0  0  0  0  0  0  0  0  0  0
  1  3  1  0  0  0  0
  1  7  1  0  0  0  0
  1  2  2  0  0  0  0
 35 36  1  0  0  0  0
 36 44  1  0  0  0  0
 36 37  2  0  0  0  0
  8  9  1  0  0  0  0
  9 17  1  0  0  0  0
  9 10  2  0  0  0  0
 18 19  1  0  0  0  0
 19 34  1  0  0  0  0
 19 20  2  0  0  0  0
 35 38  1  0  0  0  0
  8 11  1  0  0  0  0
 44 45  1  0  0  0  0
 23 24  1  0  0  0  0
 21 22  1  0  0  0  0
 18 21  1  0  0  0  0
 22 23  1  0  0  0  0
 34 35  1  0  0  0  0
  7  8  1  0  0  0  0
 17 18  1  0  0  0  0
  3  4  1  0  0  0  0
  3  5  1  0  0  0  0
  3  6  1  0  0  0  0
 38 41  1  0  0  0  0
 38 42  1  0  0  0  0
 38 43  1  0  0  0  0
 11 14  1  0  0  0  0
 11 15  1  0  0  0  0
 11 16  1  0  0  0  0
 45 47  1  0  0  0  0
 45 48  1  0  0  0  0
 45 49  1  0  0  0  0
 24 31  1  0  0  0  0
 24 32  1  0  0  0  0
 24 33  1  0  0  0  0
 21 27  1  0  0  0  0
 21 28  1  0  0  0  0
 22 29  1  0  0  0  0
 22 30  1  0  0  0  0
 35 40  1  0  0  0  0
  8 13  1  0  0  0  0
 18 26  1  0  0  0  0
 44 46  1  0  0  0  0
  7 12  1  0  0  0  0
 34 39  1  0  0  0  0
 17 25  1  0  0  0  0
M  END
$$$$

  -OEChem-05262214473D

 49 48  0     1  0  0  0  0  0999 V2000
   -0.0561   -5.3799    2.6949 C   0  0  0  0  0  0  0  0  0  0  0  0
    0.7325   -5.0736    3.5815 O   0  0  0  0  0  0  0  0  0  0  0  0
   -1.0067   -6.5099    2.9135 C   0  0  0  0  0  0  0  0  0  0  0  0
   -0.5910   -7.4777    2.5899 H   0  0  0  0  0  0  0  0  0  0  0  0
   -1.2629   -6.6440    3.9767 H   0  0  0  0  0  0  0  0  0  0  0  0
   -1.9729   -6.4206    2.3918 H   0  0  0  0  0  0  0  0  0  0  0  0
   -0.1735   -4.7694    1.4571 N   0  0  0  0  0  0  0  0  0  0  0  0
    0.6439   -3.6603    1.0409 C   0  0  2  0  0  0  0  0  0  0  0  0
   -0.2788   -2.5625    0.5280 C   0  0  0  0  0  0  0  0  0  0  0  0
   -1.4197   -2.7791    0.1251 O   0  0  0  0  0  0  0  0  0  0  0  0
    1.6395   -4.0779   -0.0301 C   0  0  0  0  0  0  0  0  0  0  0  0
   -0.8741   -5.1235    0.8083 H   0  0  0  0  0  0  0  0  0  0  0  0
    1.1738   -3.3062    1.9318 H   0  0  0  0  0  0  0  0  0  0  0  0
    1.1270   -4.4358   -0.9305 H   0  0  0  0  0  0  0  0  0  0  0  0
    2.2797   -3.2400   -0.3251 H   0  0  0  0  0  0  0  0  0  0  0  0
    2.2827   -4.8880    0.3303 H   0  0  0  0  0  0  0  0  0  0  0  0
    0.3351   -1.3153    0.5316 N   0  0  0  0  0  0  0  0  0  0  0  0
   -0.3268   -0.1184    0.0807 C   0  0  2  0  0  0  0  0  0  0  0  0
   -1.5671    0.1094    0.9393 C   0  0  0  0  0  0  0  0  0  0  0  0
   -2.4519    0.9079    0.6379 O   0  0  0  0  0  0  0  0  0  0  0  0
   -0.6422   -0.1620   -1.4207 C   0  0  0  0  0  0  0  0  0  0  0  0
    0.6034   -0.1650   -2.3101 C   0  0  0  0  0  0  0  0  0  0  0  0
    1.5776    1.3469   -2.0474 S   0  0  0  0  0  0  0  0  0  0  0  0
    0.4277    2.5292   -2.7860 C   0  0  0  0  0  0  0  0  0  0  0  0
    1.2790   -1.2290    0.9021 H   0  0  0  0  0  0  0  0  0  0  0  0
    0.3747    0.7022    0.2743 H   0  0  0  0  0  0  0  0  0  0  0  0
   -1.2642    0.7086   -1.6687 H   0  0  0  0  0  0  0  0  0  0  0  0
   -1.2437   -1.0550   -1.6341 H   0  0  0  0  0  0  0  0  0  0  0  0
    0.3295   -0.2077   -3.3685 H   0  0  0  0  0  0  0  0  0  0  0  0
    1.2440   -1.0236   -2.0882 H   0  0  0  0  0  0  0  0  0  0  0  0
    0.8429    3.5382   -2.7267 H   0  0  0  0  0  0  0  0  0  0  0  0
   -0.5250    2.5038   -2.2512 H   0  0  0  0  0  0  0  0  0  0  0  0
    0.2560    2.2744   -3.8345 H   0  0  0  0  0  0  0  0  0  0  0  0
   -1.5537   -0.6580    2.0952 N   0  0  0  0  0  0  0  0  0  0  0  0
   -2.6135   -0.6074    3.0749 C   0  0  2  0  0  0  0  0  0  0  0  0
   -1.9798   -0.6837    4.4576 C   0  0  0  0  0  0  0  0  0  0  0  0
   -0.8647   -1.1602    4.6591 O   0  0  0  0  0  0  0  0  0  0  0  0
   -3.6103   -1.7376    2.8706 C   0  0  0  0  0  0  0  0  0  0  0  0
   -0.7941   -1.3139    2.2514 H   0  0  0  0  0  0  0  0  0  0  0  0
   -3.1106    0.3612    2.9532 H   0  0  0  0  0  0  0  0  0  0  0  0
   -3.1304   -2.7160    2.9886 H   0  0  0  0  0  0  0  0  0  0  0  0
   -4.4284   -1.6811    3.5962 H   0  0  0  0  0  0  0  0  0  0  0  0
   -4.0430   -1.6987    1.8651 H   0  0  0  0  0  0  0  0  0  0  0  0
   -2.8236   -0.1965    5.4460 N   0  0  0  0  0  0  0  0  0  0  0  0
   -2.4563   -0.1729    6.8426 C   0  0  0  0  0  0  0  0  0  0  0  0
   -3.7231    0.1971    5.1858 H   0  0  0  0  0  0  0  0  0  0  0  0
   -2.8071   -1.0944    7.3302 H   0  0  0  0  0  0  0  0  0  0  0  0
   -1.3621   -0.1041    6.9328 H   0  0  0  0  0  0  0  0  0  0  0  0
   -2.9197    0.6983    7.3288 H   0  0  0  0  0  0  0  0  0  0  0  0
  1  3  1  0  0  0  0
  1  7  1  0  0  0  0
  1  2  2  0  0  0  0
 35 36  1  0  0  0  0
 36 44  1  0  0  0  0
 36 37  2  0  0  0  0
  8  9  1  0  0  0  0
  9 17  1  0  0  0  0
  9 10  2  0  0  0  0
 18 19  1  0  0  0  0
 19 34  1  0  0  0  0
 19 20  2  0  0  0  0
 35 38  1  0  0  0  0
  8 11  1  0  0  0  0
 44 45  1  0  0  0  0
 23 24  1  0  0  0  0
 21 22  1  0  0  0  0
 18 21  1  0  0  0  0
 22 23  1  0  0  0  0
 34 35  1  0  0  0  0
  7  8  1  0  0  0  0
 17 18  1  0  0  0  0
  3  4  1  0  0  0  0
  3  5  1  0  0  0  0
  3  6  1  0  0  0  0
 38 41  1  0  0  0  0
 38 42  1  0  0  0  0
 38 43  1  0  0  0  0
 11 14  1  0  0  0  0
 11 15  1  0  0  0  0
 11 16  1  0  0  0  0
 45 47  1  0  0  0  0
 45 48  1  0  0  0  0
 45 49  1  0  0  0  0
 24 31  1  0  0  0  0
 24 32  1  0  0  0  0
 24 33  1  0  0  0  0
 21 27  1  0  0  0  0
 21 28  1  0  0  0  0
 22 29  1  0  0  0  0
 22 30  1  0  0  0  0
 35 40  1  0  0  0  0
  8 13  1  0  0  0  0
 18 26  1  0  0  0  0
 44 46  1  0  0  0  0
  7 12  1  0  0  0  0
 34 39  1  0  0  0  0
 17 25  1  0  0  0  0
M  END
$$$$

  -OEChem-05262214473D

 49 48  0     1  0  0  0  0  0999 V2000
   -0.0561   -5.3799    2.6949 C   0  0  0  0  0  0  0  0  0  0  0  0
    0.7325   -5.0736    3.5815 O   0  0  0  0  0  0  0  0  0  0  0  0
   -1.0067   -6.5099    2.9135 C   0  0  0  0  0  0  0  0  0  0  0  0
   -0.5910   -7.4777    2.5899 H   0  0  0  0  0  0  0  0  0  0  0  0
   -1.2629   -6.6440    3.9767 H   0  0  0  0  0  0  0  0  0  0  0  0
   -1.9729   -6.4206    2.3918 H   0  0  0  0  0  0  0  0  0  0  0  0
   -0.1735   -4.7694    1.4571 N   0  0  0  0  0  0  0  0  0  0  0  0
    0.6439   -3.6603    1.0409 C   0  0  2  0  0  0  0  0  0  0  0  0
   -0.2788   -2.5625    0.5280 C   0  0  0  0  0  0  0  0  0  0  0  0
   -1.4197   -2.7791    0.1251 O   0  0  0  0  0  0  0  0  0  0  0  0
    1.6395   -4.0779   -0.0301 C   0  0  0  0  0  0  0  0  0  0  0  0
   -0.8741   -5.1235    0.8083 H   0  0  0  0  0  0  0  0  0  0  0  0
    1.1738   -3.3062    1.9318 H   0  0  0  0  0  0  0  0  0  0  0  0
    1.1270   -4.4358   -0.9305 H   0  0  0  0  0  0  0  0  0  0  0  0
    2.2797   -3.2400   -0.3251 H   0  0  0  0  0  0  0  0  0  0  0  0
    2.2827   -4.8880    0.3303 H   0  0  0  0  0  0  0  0  0  0  0  0
    0.3351   -1.3153    0.5316 N   0  0  0  0  0  0  0  0  0  0  0  0
   -0.3268   -0.1184    0.0807 C   0  0  2  0  0  0  0  0  0  0  0  0
   -1.5671    0.1094    0.9393 C   0  0  0  0  0  0  0  0  0  0  0  0
   -2.5683    0.6918    0.5272 O   0  0  0  0  0  0  0  0  0  0  0  0
   -0.6422   -0.1620   -1.4207 C   0  0  0  0  0  0  0  0  0  0  0  0
    0.6034   -0.1650   -2.3101 C   0  0  0  0  0  0  0  0  0  0  0  0
    1.5776    1.3469   -2.0474 S   0  0  0  0  0  0  0  0  0  0  0  0
    0.4277    2.5292   -2.7860 C   0  0  0  0  0  0  0  0  0  0  0  0
    1.2790   -1.2290    0.9021 H   0  0  0  0  0  0  0  0  0  0  0  0
    0.3747    0.7022    0.2743 H   0  0  0  0  0  0  0  0  0  0  0  0
   -1.2642    0.7086   -1.6687 H   0  0  0  0  0  0  0  0  0  0  0  0
   -1.2437   -1.0550   -1.6341 H   0  0  0  0  0  0  0  0  0  0  0  0
    0.3295   -0.2077   -3.3685 H   0  0  0  0  0  0  0  0  0  0  0  0
    1.2440   -1.0236   -2.0882 H   0  0  0  0  0  0  0  0  0  0  0  0
    0.8429    3.5382   -2.7267 H   0  0  0  0  0  0  0  0  0  0  0  0
   -0.5250    2.5038   -2.2512 H   0  0  0  0  0  0  0  0  0  0  0  0
    0.2560    2.2744   -3.8345 H   0  0  0  0  0  0  0  0  0  0  0  0
   -1.4123   -0.3840    2.2268 N   0  0  0  0  0  0  0  0  0  0  0  0
   -2.4448   -0.2761    3.2307 C   0  0  2  0  0  0  0  0  0  0  0  0
   -1.7751    0.0347    4.5627 C   0  0  0  0  0  0  0  0  0  0  0  0
   -0.5969   -0.2251    4.7979 O   0  0  0  0  0  0  0  0  0  0  0  0
   -3.2655   -1.5533    3.3198 C   0  0  0  0  0  0  0  0  0  0  0  0
   -0.5596   -0.8773    2.4743 H   0  0  0  0  0  0  0  0  0  0  0  0
   -3.0841    0.5639    2.9378 H   0  0  0  0  0  0  0  0  0  0  0  0
   -2.6419   -2.4061    3.6121 H   0  0  0  0  0  0  0  0  0  0  0  0
   -4.0658   -1.4597    4.0612 H   0  0  0  0  0  0  0  0  0  0  0  0
   -3.7222   -1.7914    2.3531 H   0  0  0  0  0  0  0  0  0  0  0  0
   -2.6593    0.5971    5.4727 N   0  0  0  0  0  0  0  0  0  0  0  0
   -2.2676    0.9698    6.8120 C   0  0  0  0  0  0  0  0  0  0  0  0
   -3.6134    0.7947    5.1857 H   0  0  0  0  0  0  0  0  0  0  0  0
   -2.4650    0.1333    7.4985 H   0  0  0  0  0  0  0  0  0  0  0  0
   -1.1943    1.2103    6.8265 H   0  0  0  0  0  0  0  0  0  0  0  0
   -2.8449    1.8500    7.1312 H   0  0  0  0  0  0  0  0  0  0  0  0
  1  3  1  0  0  0  0
  1  7  1  0  0  0  0
  1  2  2  0  0  0  0
 35 36  1  0  0  0  0
 36 44  1  0  0  0  0
 36 37  2  0  0  0  0
  8  9  1  0  0  0  0
  9 17  1  0  0  0  0
  9 10  2  0  0  0  0
 18 19  1  0  0  0  0
 19 34  1  0  0  0  0
 19 20  2  0  0  0  0
 35 38  1  0  0  0  0
  8 11  1  0  0  0  0
 44 45  1  0  0  0  0
 23 24  1  0  0  0  0
 21 22  1  0  0  0  0
 18 21  1  0  0  0  0
 22 23  1  0  0  0  0
 34 35  1  0  0  0  0
  7  8  1  0  0  0  0
 17 18  1  0  0  0  0
  3  4  1  0  0  0  0
  3  5  1  0  0  0  0
  3  6  1  0  0  0  0
 38 41  1  0  0  0  0
 38 42  1  0  0  0  0
 38 43  1  0  0  0  0
 11 14  1  0  0  0  0
 11 15  1  0  0  0  0
 11 16  1  0  0  0  0
 45 47  1  0  0  0  0
 45 48  1  0  0  0  0
 45 49  1  0  0  0  0
 24 31  1  0  0  0  0
 24 32  1  0  0  0  0
 24 33  1  0  0  0  0
 21 27  1  0  0  0  0
 21 28  1  0  0  0  0
 22 29  1  0  0  0  0
 22 30  1  0  0  0  0
 35 40  1  0  0  0  0
  8 13  1  0  0  0  0
 18 26  1  0  0  0  0
 44 46  1  0  0  0  0
  7 12  1  0  0  0  0
 34 39  1  0  0  0  0
 17 25  1  0  0  0  0
M  END
$$$$

  -OEChem-05262214473D

 49 48  0     1  0  0  0  0  0999 V2000
   -0.0561   -5.3799    2.6949 C   0  0  0  0  0  0  0  0  0  0  0  0
    0.7325   -5.0736    3.5815 O   0  0  0  0  0  0  0  0  0  0  0  0
   -1.0067   -6.5099    2.9135 C   0  0  0  0  0  0  0  0  0  0  0  0
   -0.5910   -7.4777    2.5899 H   0  0  0  0  0  0  0  0  0  0  0  0
   -1.2629   -6.6440    3.9767 H   0  0  0  0  0  0  0  0  0  0  0  0
   -1.9729   -6.4206    2.3918 H   0  0  0  0  0  0  0  0  0  0  0  0
   -0.1735   -4.7694    1.4571 N   0  0  0  0  0  0  0  0  0  0  0  0
    0.6439   -3.6603    1.0409 C   0  0  2  0  0  0  0  0  0  0  0  0
   -0.2788   -2.5625    0.5280 C   0  0  0  0  0  0  0  0  0  0  0  0
   -1.4197   -2.7791    0.1251 O   0  0  0  0  0  0  0  0  0  0  0  0
    1.6395   -4.0779   -0.0301 C   0  0  0  0  0  0  0  0  0  0  0  0
   -0.8741   -5.1235    0.8083 H   0  0  0  0  0  0  0  0  0  0  0  0
    1.1738   -3.3062    1.9318 H   0  0  0  0  0  0  0  0  0  0  0  0
    1.1270   -4.4358   -0.9305 H   0  0  0  0  0  0  0  0  0  0  0  0
    2.2797   -3.2400   -0.3251 H   0  0  0  0  0  0  0  0  0  0  0  0
    2.2827   -4.8880    0.3303 H   0  0  0  0  0  0  0  0  0  0  0  0
    0.3351   -1.3153    0.5316 N   0  0  0  0  0  0  0  0  0  0  0  0
   -0.3268   -0.1184    0.0807 C   0  0  2  0  0  0  0  0  0  0  0  0
   -1.5671    0.1094    0.9393 C   0  0  0  0  0  0  0  0  0  0  0  0
   -2.6534    0.4428    0.4702 O   0  0  0  0  0  0  0  0  0  0  0  0
   -0.6422   -0.1620   -1.4207 C   0  0  0  0  0  0  0  0  0  0  0  0
    0.6034   -0.1650   -2.3101 C   0  0  0  0  0  0  0  0  0  0  0  0
    1.5776    1.3469   -2.0474 S   0  0  0  0  0  0  0  0  0  0  0  0
    0.4277    2.5292   -2.7860 C   0  0  0  0  0  0  0  0  0  0  0  0
    1.2790   -1.2290    0.9021 H   0  0  0  0  0  0  0  0  0  0  0  0
    0.3747    0.7022    0.2743 H   0  0  0  0  0  0  0  0  0  0  0  0
   -1.2642    0.7086   -1.6687 H   0  0  0  0  0  0  0  0  0  0  0  0
   -1.2437   -1.0550   -1.6341 H   0  0  0  0  0  0  0  0  0  0  0  0
    0.3295   -0.2077   -3.3685 H   0  0  0  0  0  0  0  0  0  0  0  0
    1.2440   -1.0236   -2.0882 H   0  0  0  0  0  0  0  0  0  0  0  0
    0.8429    3.5382   -2.7267 H   0  0  0  0  0  0  0  0  0  0  0  0
   -0.5250    2.5038   -2.2512 H   0  0  0  0  0  0  0  0  0  0  0  0
    0.2560    2.2744   -3.8345 H   0  0  0  0  0  0  0  0  0  0  0  0
   -1.3105   -0.0710    2.2909 N   0  0  0  0  0  0  0  0  0  0  0  0
   -2.3241    0.1012    3.3049 C   0  0  2  0  0  0  0  0  0  0  0  0
   -1.6780    0.7806    4.5051 C   0  0  0  0  0  0  0  0  0  0  0  0
   -0.4690    0.7463    4.7249 O   0  0  0  0  0  0  0  0  0  0  0  0
   -2.9419   -1.2306    3.7017 C   0  0  0  0  0  0  0  0  0  0  0  0
   -0.3880   -0.3744    2.5887 H   0  0  0  0  0  0  0  0  0  0  0  0
   -3.0885    0.7603    2.8792 H   0  0  0  0  0  0  0  0  0  0  0  0
   -2.1910   -1.9043    4.1303 H   0  0  0  0  0  0  0  0  0  0  0  0
   -3.7299   -1.0952    4.4498 H   0  0  0  0  0  0  0  0  0  0  0  0
   -3.3799   -1.7315    2.8317 H   0  0  0  0  0  0  0  0  0  0  0  0
   -2.6152    1.3932    5.3252 N   0  0  0  0  0  0  0  0  0  0  0  0
   -2.2530    2.0945    6.5347 C   0  0  0  0  0  0  0  0  0  0  0  0
   -3.5945    1.3880    5.0556 H   0  0  0  0  0  0  0  0  0  0  0  0
   -2.3070    1.4044    7.3896 H   0  0  0  0  0  0  0  0  0  0  0  0
   -1.2278    2.4820    6.4407 H   0  0  0  0  0  0  0  0  0  0  0  0
   -2.9481    2.9318    6.6951 H   0  0  0  0  0  0  0  0  0  0  0  0
  1  3  1  0  0  0  0
  1  7  1  0  0  0  0
  1  2  2  0  0  0  0
 35 36  1  0  0  0  0
 36 44  1  0  0  0  0
 36 37  2  0  0  0  0
  8  9  1  0  0  0  0
  9 17  1  0  0  0  0
  9 10  2  0  0  0  0
 18 19  1  0  0  0  0
 19 34  1  0  0  0  0
 19 20  2  0  0  0  0
 35 38  1  0  0  0  0
  8 11  1  0  0  0  0
 44 45  1  0  0  0  0
 23 24  1  0  0  0  0
 21 22  1  0  0  0  0
 18 21  1  0  0  0  0
 22 23  1  0  0  0  0
 34 35  1  0  0  0  0
  7  8  1  0  0  0  0
 17 18  1  0  0  0  0
  3  4  1  0  0  0  0
  3  5  1  0  0  0  0
  3  6  1  0  0  0  0
 38 41  1  0  0  0  0
 38 42  1  0  0  0  0
 38 43  1  0  0  0  0
 11 14  1  0  0  0  0
 11 15  1  0  0  0  0
 11 16  1  0  0  0  0
 45 47  1  0  0  0  0
 45 48  1  0  0  0  0
 45 49  1  0  0  0  0
 24 31  1  0  0  0  0
 24 32  1  0  0  0  0
 24 33  1  0  0  0  0
 21 27  1  0  0  0  0
 21 28  1  0  0  0  0
 22 29  1  0  0  0  0
 22 30  1  0  0  0  0
 35 40  1  0  0  0  0
  8 13  1  0  0  0  0
 18 26  1  0  0  0  0
 44 46  1  0  0  0  0
  7 12  1  0  0  0  0
 34 39  1  0  0  0  0
 17 25  1  0  0  0  0
M  END
$$$$

  -OEChem-05262214473D

 49 48  0     1  0  0  0  0  0999 V2000
   -0.0561   -5.3799    2.6949 C   0  0  0  0  0  0  0  0  0  0  0  0
    0.7325   -5.0736    3.5815 O   0  0  0  0  0  0  0  0  0  0  0  0
   -1.0067   -6.5099    2.9135 C   0  0  0  0  0  0  0  0  0  0  0  0
   -0.5910   -7.4777    2.5899 H   0  0  0  0  0  0  0  0  0  0  0  0
   -1.2629   -6.6440    3.9767 H   0  0  0  0  0  0  0  0  0  0  0  0
   -1.9729   -6.4206    2.3918 H   0  0  0  0  0  0  0  0  0  0  0  0
   -0.1735   -4.7694    1.4571 N   0  0  0  0  0  0  0  0  0  0  0  0
    0.6439   -3.6603    1.0409 C   0  0  2  0  0  0  0  0  0  0  0  0
   -0.2788   -2.5625    0.5280 C   0  0  0  0  0  0  0  0  0  0  0  0
   -1.4197   -2.7791    0.1251 O   0  0  0  0  0  0  0  0  0  0  0  0
    1.6395   -4.0779   -0.0301 C   0  0  0  0  0  0  0  0  0  0  0  0
   -0.8741   -5.1235    0.8083 H   0  0  0  0  0  0  0  0  0  0  0  0
    1.1738   -3.3062    1.9318 H   0  0  0  0  0  0  0  0  0  0  0  0
    1.1270   -4.4358   -0.9305 H   0  0  0  0  0  0  0  0  0  0  0  0
    2.2797   -3.2400   -0.3251 H   0  0  0  0  0  0  0  0  0  0  0  0
    2.2827   -4.8880    0.3303 H   0  0  0  0  0  0  0  0  0  0  0  0
    0.3351   -1.3153    0.5316 N   0  0  0  0  0  0  0  0  0  0  0  0
   -0.3268   -0.1184    0.0807 C   0  0  2  0  0  0  0  0  0  0  0  0
   -1.5671    0.1094    0.9393 C   0  0  0  0  0  0  0  0  0  0  0  0
   -2.7016    0.1779    0.4709 O   0  0  0  0  0  0  0  0  0  0  0  0
   -0.6422   -0.1620   -1.4207 C   0  0  0  0  0  0  0  0  0  0  0  0
    0.6034   -0.1650   -2.3101 C   0  0  0  0  0  0  0  0  0  0  0  0
    1.5776    1.3469   -2.0474 S   0  0  0  0  0  0  0  0  0  0  0  0
    0.4277    2.5292   -2.7860 C   0  0  0  0  0  0  0  0  0  0  0  0
    1.2790   -1.2290    0.9021 H   0  0  0  0  0  0  0  0  0  0  0  0
    0.3747    0.7022    0.2743 H   0  0  0  0  0  0  0  0  0  0  0  0
   -1.2642    0.7086   -1.6687 H   0  0  0  0  0  0  0  0  0  0  0  0
   -1.2437   -1.0550   -1.6341 H   0  0  0  0  0  0  0  0  0  0  0  0
    0.3295   -0.2077   -3.3685 H   0  0  0  0  0  0  0  0  0  0  0  0
    1.2440   -1.0236   -2.0882 H   0  0  0  0  0  0  0  0  0  0  0  0
    0.8429    3.5382   -2.7267 H   0  0  0  0  0  0  0  0  0  0  0  0
   -0.5250    2.5038   -2.2512 H   0  0  0  0  0  0  0  0  0  0  0  0
    0.2560    2.2744   -3.8345 H   0  0  0  0  0  0  0  0  0  0  0  0
   -1.2552    0.2596    2.2829 N   0  0  0  0  0  0  0  0  0  0  0  0
   -2.2596    0.4989    3.2926 C   0  0  2  0  0  0  0  0  0  0  0  0
   -1.6950    1.5031    4.2888 C   0  0  0  0  0  0  0  0  0  0  0  0
   -0.4898    1.6879    4.4450 O   0  0  0  0  0  0  0  0  0  0  0  0
   -2.6615   -0.7913    3.9900 C   0  0  0  0  0  0  0  0  0  0  0  0
   -0.2911    0.1604    2.5868 H   0  0  0  0  0  0  0  0  0  0  0  0
   -3.1237    0.9371    2.7815 H   0  0  0  0  0  0  0  0  0  0  0  0
   -1.8085   -1.2450    4.5078 H   0  0  0  0  0  0  0  0  0  0  0  0
   -3.4435   -0.6125    4.7354 H   0  0  0  0  0  0  0  0  0  0  0  0
   -3.0396   -1.5232    3.2680 H   0  0  0  0  0  0  0  0  0  0  0  0
   -2.6942    2.1375    5.0135 N   0  0  0  0  0  0  0  0  0  0  0  0
   -2.4134    3.1247    6.0296 C   0  0  0  0  0  0  0  0  0  0  0  0
   -3.6676    1.9364    4.8043 H   0  0  0  0  0  0  0  0  0  0  0  0
   -2.3437    2.6323    7.0107 H   0  0  0  0  0  0  0  0  0  0  0  0
   -1.4602    3.6244    5.8017 H   0  0  0  0  0  0  0  0  0  0  0  0
   -3.2222    3.8699    6.0502 H   0  0  0  0  0  0  0  0  0  0  0  0
  1  3  1  0  0  0  0
  1  7  1  0  0  0  0
  1  2  2  0  0  0  0
 35 36  1  0  0  0  0
 36 44  1  0  0  0  0
 36 37  2  0  0  0  0
  8  9  1  0  0  0  0
  9 17  1  0  0  0  0
  9 10  2  0  0  0  0
 18 19  1  0  0  0  0
 19 34  1  0  0  0  0
 19 20  2  0  0  0  0
 35 38  1  0  0  0  0
  8 11  1  0  0  0  0
 44 45  1  0  0  0  0
 23 24  1  0  0  0  0
 21 22  1  0  0  0  0
 18 21  1  0  0  0  0
 22 23  1  0  0  0  0
 34 35  1  0  0  0  0
  7  8  1  0  0  0  0
 17 18  1  0  0  0  0
  3  4  1  0  0  0  0
  3  5  1  0  0  0  0
  3  6  1  0  0  0  0
 38 41  1  0  0  0  0
 38 42  1  0  0  0  0
 38 43  1  0  0  0  0
 11 14  1  0  0  0  0
 11 15  1  0  0  0  0
 11 16  1  0  0  0  0
 45 47  1  0  0  0  0
 45 48  1  0  0  0  0
 45 49  1  0  0  0  0
 24 31  1  0  0  0  0
 24 32  1  0  0  0  0
 24 33  1  0  0  0  0
 21 27  1  0  0  0  0
 21 28  1  0  0  0  0
 22 29  1  0  0  0  0
 22 30  1  0  0  0  0
 35 40  1  0  0  0  0
  8 13  1  0  0  0  0
 18 26  1  0  0  0  0
 44 46  1  0  0  0  0
  7 12  1  0  0  0  0
 34 39  1  0  0  0  0
 17 25  1  0  0  0  0
M  END
$$$$

  -OEChem-05262214473D

 49 48  0     1  0  0  0  0  0999 V2000
   -0.0561   -5.3799    2.6949 C   0  0  0  0  0  0  0  0  0  0  0  0
    0.7325   -5.0736    3.5815 O   0  0  0  0  0  0  0  0  0  0  0  0
   -1.0067   -6.5099    2.9135 C   0  0  0  0  0  0  0  0  0  0  0  0
   -0.5910   -7.4777    2.5899 H   0  0  0  0  0  0  0  0  0  0  0  0
   -1.2629   -6.6440    3.9767 H   0  0  0  0  0  0  0  0  0  0  0  0
   -1.9729   -6.4206    2.3918 H   0  0  0  0  0  0  0  0  0  0  0  0
   -0.1735   -4.7694    1.4571 N   0  0  0  0  0  0  0  0  0  0  0  0
    0.6439   -3.6603    1.0409 C   0  0  2  0  0  0  0  0  0  0  0  0
   -0.2788   -2.5625    0.5280 C   0  0  0  0  0  0  0  0  0  0  0  0
   -1.4197   -2.7791    0.1251 O   0  0  0  0  0  0  0  0  0  0  0  0
    1.6395   -4.0779   -0.0301 C   0  0  0  0  0  0  0  0  0  0  0  0
   -0.8741   -5.1235    0.8083 H   0  0  0  0  0  0  0  0  0  0  0  0
    1.1738   -3.3062    1.9318 H   0  0  0  0  0  0  0  0  0  0  0  0
    1.1270   -4.4358   -0.9305 H   0  0  0  0  0  0  0  0  0  0  0  0
    2.2797   -3.2400   -0.3251 H   0  0  0  0  0  0  0  0  0  0  0  0
    2.2827   -4.8880    0.3303 H   0  0  0  0  0  0  0  0  0  0  0  0
    0.3351   -1.3153    0.5316 N   0  0  0  0  0  0  0  0  0  0  0  0
   -0.3268   -0.1184    0.0807 C   0  0  2  0  0  0  0  0  0  0  0  0
   -1.5671    0.1094    0.9393 C   0  0  0  0  0  0  0  0  0  0  0  0
   -2.7096   -0.0849    0.5291 O   0  0  0  0  0  0  0  0  0  0  0  0
   -0.6422   -0.1620   -1.4207 C   0  0  0  0  0  0  0  0  0  0  0  0
    0.6034   -0.1650   -2.3101 C   0  0  0  0  0  0  0  0  0  0  0  0
    1.5776    1.3469   -2.0474 S   0  0  0  0  0  0  0  0  0  0  0  0
    0.4277    2.5292   -2.7860 C   0  0  0  0  0  0  0  0  0  0  0  0
    1.2790   -1.2290    0.9021 H   0  0  0  0  0  0  0  0  0  0  0  0
    0.3747    0.7022    0.2743 H   0  0  0  0  0  0  0  0  0  0  0  0
   -1.2642    0.7086   -1.6687 H   0  0  0  0  0  0  0  0  0  0  0  0
   -1.2437   -1.0550   -1.6341 H   0  0  0  0  0  0  0  0  0  0  0  0
    0.3295   -0.2077   -3.3685 H   0  0  0  0  0  0  0  0  0  0  0  0
    1.2440   -1.0236   -2.0882 H   0  0  0  0  0  0  0  0  0  0  0  0
    0.8429    3.5382   -2.7267 H   0  0  0  0  0  0  0  0  0  0  0  0
   -0.5250    2.5038   -2.2512 H   0  0  0  0  0  0  0  0  0  0  0  0
    0.2560    2.2744   -3.8345 H   0  0  0  0  0  0  0  0  0  0  0  0
   -1.2503    0.5853    2.2036 N   0  0  0  0  0  0  0  0  0  0  0  0
   -2.2556    0.8899    3.1946 C   0  0  2  0  0  0  0  0  0  0  0  0
   -1.8250    2.1530    3.9285 C   0  0  0  0  0  0  0  0  0  0  0  0
   -0.6578    2.5355    3.9773 O   0  0  0  0  0  0  0  0  0  0  0  0
   -2.4436   -0.2655    4.1653 C   0  0  0  0  0  0  0  0  0  0  0  0
   -0.2755    0.6906    2.4687 H   0  0  0  0  0  0  0  0  0  0  0  0
   -3.1873    1.0821    2.6513 H   0  0  0  0  0  0  0  0  0  0  0  0
   -1.5206   -0.4729    4.7189 H   0  0  0  0  0  0  0  0  0  0  0  0
   -3.2262   -0.0443    4.8986 H   0  0  0  0  0  0  0  0  0  0  0  0
   -2.7243   -1.1805    3.6325 H   0  0  0  0  0  0  0  0  0  0  0  0
   -2.8911    2.7794    4.5588 N   0  0  0  0  0  0  0  0  0  0  0  0
   -2.7379    3.9902    5.3312 C   0  0  0  0  0  0  0  0  0  0  0  0
   -3.8279    2.4026    4.4491 H   0  0  0  0  0  0  0  0  0  0  0  0
   -2.5726    3.7333    6.3879 H   0  0  0  0  0  0  0  0  0  0  0  0
   -1.8759    4.5595    4.9532 H   0  0  0  0  0  0  0  0  0  0  0  0
   -3.6486    4.6005    5.2405 H   0  0  0  0  0  0  0  0  0  0  0  0
  1  3  1  0  0  0  0
  1  7  1  0  0  0  0
  1  2  2  0  0  0  0
 35 36  1  0  0  0  0
 36 44  1  0  0  0  0
 36 37  2  0  0  0  0
  8  9  1  0  0  0  0
  9 17  1  0  0  0  0
  9 10  2  0  0  0  0
 18 19  1  0  0  0  0
 19 34  1  0  0  0  0
 19 20  2  0  0  0  0
 35 38  1  0  0  0  0
  8 11  1  0  0  0  0
 44 45  1  0  0  0  0
 23 24  1  0  0  0  0
 21 22  1  0  0  0  0
 18 21  1  0  0  0  0
 22 23  1  0  0  0  0
 34 35  1  0  0  0  0
  7  8  1  0  0  0  0
 17 18  1  0  0  0  0
  3  4  1  0  0  0  0
  3  5  1  0  0  0  0
  3  6  1  0  0  0  0
 38 41  1  0  0  0  0
 38 42  1  0  0  0  0
 38 43  1  0  0  0  0
 11 14  1  0  0  0  0
 11 15  1  0  0  0  0
 11 16  1  0  0  0  0
 45 47  1  0  0  0  0
 45 48  1  0  0  0  0
 45 49  1  0  0  0  0
 24 31  1  0  0  0  0
 24 32  1  0  0  0  0
 24 33  1  0  0  0  0
 21 27  1  0  0  0  0
 21 28  1  0  0  0  0
 22 29  1  0  0  0  0
 22 30  1  0  0  0  0
 35 40  1  0  0  0  0
  8 13  1  0  0  0  0
 18 26  1  0  0  0  0
 44 46  1  0  0  0  0
  7 12  1  0  0  0  0
 34 39  1  0  0  0  0
 17 25  1  0  0  0  0
M  END
$$$$

  -OEChem-05262214473D

 49 48  0     1  0  0  0  0  0999 V2000
   -0.0561   -5.3799    2.6949 C   0  0  0  0  0  0  0  0  0  0  0  0
    0.7325   -5.0736    3.5815 O   0  0  0  0  0  0  0  0  0  0  0  0
   -1.0067   -6.5099    2.9135 C   0  0  0  0  0  0  0  0  0  0  0  0
   -0.5910   -7.4777    2.5899 H   0  0  0  0  0  0  0  0  0  0  0  0
   -1.2629   -6.6440    3.9767 H   0  0  0  0  0  0  0  0  0  0  0  0
   -1.9729   -6.4206    2.3918 H   0  0  0  0  0  0  0  0  0  0  0  0
   -0.1735   -4.7694    1.4571 N   0  0  0  0  0  0  0  0  0  0  0  0
    0.6439   -3.6603    1.0409 C   0  0  2  0  0  0  0  0  0  0  0  0
   -0.2788   -2.5625    0.5280 C   0  0  0  0  0  0  0  0  0  0  0  0
   -1.4197   -2.7791    0.1251 O   0  0  0  0  0  0  0  0  0  0  0  0
    1.6395   -4.0779   -0.0301 C   0  0  0  0  0  0  0  0  0  0  0  0
   -0.8741   -5.1235    0.8083 H   0  0  0  0  0  0  0  0  0  0  0  0
    1.1738   -3.3062    1.9318 H   0  0  0  0  0  0  0  0  0  0  0  0
    1.1270   -4.4358   -0.9305 H   0  0  0  0  0  0  0  0  0  0  0  0
    2.2797   -3.2400   -0.3251 H   0  0  0  0  0  0  0  0  0  0  0  0
    2.2827   -4.8880    0.3303 H   0  0  0  0  0  0  0  0  0  0  0  0
    0.3351   -1.3153    0.5316 N   0  0  0  0  0  0  0  0  0  0  0  0
   -0.3268   -0.1184    0.0807 C   0  0  2  0  0  0  0  0  0  0  0  0
   -1.5671    0.1094    0.9393 C   0  0  0  0  0  0  0  0  0  0  0  0
   -2.6767   -0.3276    0.6410 O   0  0  0  0  0  0  0  0  0  0  0  0
   -0.6422   -0.1620   -1.4207 C   0  0  0  0  0  0  0  0  0  0  0  0
    0.6034   -0.1650   -2.3101 C   0  0  0  0  0  0  0  0  0  0  0  0
    1.5776    1.3469   -2.0474 S   0  0  0  0  0  0  0  0  0  0  0  0
    0.4277    2.5292   -2.7860 C   0  0  0  0  0  0  0  0  0  0  0  0
    1.2790   -1.2290    0.9021 H   0  0  0  0  0  0  0  0  0  0  0  0
    0.3747    0.7022    0.2743 H   0  0  0  0  0  0  0  0  0  0  0  0
   -1.2642    0.7086   -1.6687 H   0  0  0  0  0  0  0  0  0  0  0  0
   -1.2437   -1.0550   -1.6341 H   0  0  0  0  0  0  0  0  0  0  0  0
    0.3295   -0.2077   -3.3685 H   0  0  0  0  0  0  0  0  0  0  0  0
    1.2440   -1.0236   -2.0882 H   0  0  0  0  0  0  0  0  0  0  0  0
    0.8429    3.5382   -2.7267 H   0  0  0  0  0  0  0  0  0  0  0  0
   -0.5250    2.5038   -2.2512 H   0  0  0  0  0  0  0  0  0  0  0  0
    0.2560    2.2744   -3.8345 H   0  0  0  0  0  0  0  0  0  0  0  0
   -1.2961    0.8839    2.0582 N   0  0  0  0  0  0  0  0  0  0  0  0
   -2.3126    1.2474    3.0174 C   0  0  2  0  0  0  0  0  0  0  0  0
   -2.0592    2.6859    3.4488 C   0  0  0  0  0  0  0  0  0  0  0  0
   -0.9617    3.2313    3.3537 O   0  0  0  0  0  0  0  0  0  0  0  0
   -2.3029    0.3110    4.2156 C   0  0  0  0  0  0  0  0  0  0  0  0
   -0.3422    1.1802    2.2424 H   0  0  0  0  0  0  0  0  0  0  0  0
   -3.2748    1.1856    2.4974 H   0  0  0  0  0  0  0  0  0  0  0  0
   -1.3467    0.3592    4.7493 H   0  0  0  0  0  0  0  0  0  0  0  0
   -3.0927    0.5705    4.9283 H   0  0  0  0  0  0  0  0  0  0  0  0
   -2.4556   -0.7269    3.9003 H   0  0  0  0  0  0  0  0  0  0  0  0
   -3.1923    3.2751    3.9922 N   0  0  0  0  0  0  0  0  0  0  0  0
   -3.2044    4.6319    4.4869 C   0  0  0  0  0  0  0  0  0  0  0  0
   -4.0644    2.7548    4.0140 H   0  0  0  0  0  0  0  0  0  0  0  0
   -2.9782    4.6323    5.5634 H   0  0  0  0  0  0  0  0  0  0  0  0
   -2.4463    5.2236    3.9529 H   0  0  0  0  0  0  0  0  0  0  0  0
   -4.1981    5.0737    4.3211 H   0  0  0  0  0  0  0  0  0  0  0  0
  1  3  1  0  0  0  0
  1  7  1  0  0  0  0
  1  2  2  0  0  0  0
 35 36  1  0  0  0  0
 36 44  1  0  0  0  0
 36 37  2  0  0  0  0
  8  9  1  0  0  0  0
  9 17  1  0  0  0  0
  9 10  2  0  0  0  0
 18 19  1  0  0  0  0
 19 34  1  0  0  0  0
 19 20  2  0  0  0  0
 35 38  1  0  0  0  0
  8 11  1  0  0  0  0
 44 45  1  0  0  0  0
 23 24  1  0  0  0  0
 21 22  1  0  0  0  0
 18 21  1  0  0  0  0
 22 23  1  0  0  0  0
 34 35  1  0  0  0  0
  7  8  1  0  0  0  0
 17 18  1  0  0  0  0
  3  4  1  0  0  0  0
  3  5  1  0  0  0  0
  3  6  1  0  0  0  0
 38 41  1  0  0  0  0
 38 42  1  0  0  0  0
 38 43  1  0  0  0  0
 11 14  1  0  0  0  0
 11 15  1  0  0  0  0
 11 16  1  0  0  0  0
 45 47  1  0  0  0  0
 45 48  1  0  0  0  0
 45 49  1  0  0  0  0
 24 31  1  0  0  0  0
 24 32  1  0  0  0  0
 24 33  1  0  0  0  0
 21 27  1  0  0  0  0
 21 28  1  0  0  0  0
 22 29  1  0  0  0  0
 22 30  1  0  0  0  0
 35 40  1  0  0  0  0
  8 13  1  0  0  0  0
 18 26  1  0  0  0  0
 44 46  1  0  0  0  0
  7 12  1  0  0  0  0
 34 39  1  0  0  0  0
 17 25  1  0  0  0  0
M  END
$$$$

  -OEChem-05262214473D

 49 48  0     1  0  0  0  0  0999 V2000
   -0.0561   -5.3799    2.6949 C   0  0  0  0  0  0  0  0  0  0  0  0
    0.7325   -5.0736    3.5815 O   0  0  0  0  0  0  0  0  0  0  0  0
   -1.0067   -6.5099    2.9135 C   0  0  0  0  0  0  0  0  0  0  0  0
   -0.5910   -7.4777    2.5899 H   0  0  0  0  0  0  0  0  0  0  0  0
   -1.2629   -6.6440    3.9767 H   0  0  0  0  0  0  0  0  0  0  0  0
   -1.9729   -6.4206    2.3918 H   0  0  0  0  0  0  0  0  0  0  0  0
   -0.1735   -4.7694    1.4571 N   0  0  0  0  0  0  0  0  0  0  0  0
    0.6439   -3.6603    1.0409 C   0  0  2  0  0  0  0  0  0  0  0  0
   -0.2788   -2.5625    0.5280 C   0  0  0  0  0  0  0  0  0  0  0  0
   -1.4197   -2.7791    0.1251 O   0  0  0  0  0  0  0  0  0  0  0  0
    1.6395   -4.0779   -0.0301 C   0  0  0  0  0  0  0  0  0  0  0  0
   -0.8741   -5.1235    0.8083 H   0  0  0  0  0  0  0  0  0  0  0  0
    1.1738   -3.3062    1.9318 H   0  0  0  0  0  0  0  0  0  0  0  0
    1.1270   -4.4358   -0.9305 H   0  0  0  0  0  0  0  0  0  0  0  0
    2.2797   -3.2400   -0.3251 H   0  0  0  0  0  0  0  0  0  0  0  0
    2.2827   -4.8880    0.3303 H   0  0  0  0  0  0  0  0  0  0  0  0
    0.3351   -1.3153    0.5316 N   0  0  0  0  0  0  0  0  0  0  0  0
   -0.3268   -0.1184    0.0807 C   0  0  2  0  0  0  0  0  0  0  0  0
   -1.5671    0.1094    0.9393 C   0  0  0  0  0  0  0  0  0  0  0  0
   -2.6053   -0.5337    0.7988 O   0  0  0  0  0  0  0  0  0  0  0  0
   -0.6422   -0.1620   -1.4207 C   0  0  0  0  0  0  0  0  0  0  0  0
    0.6034   -0.1650   -2.3101 C   0  0  0  0  0  0  0  0  0  0  0  0
    1.5776    1.3469   -2.0474 S   0  0  0  0  0  0  0  0  0  0  0  0
    0.4277    2.5292   -2.7860 C   0  0  0  0  0  0  0  0  0  0  0  0
    1.2790   -1.2290    0.9021 H   0  0  0  0  0  0  0  0  0  0  0  0
    0.3747    0.7022    0.2743 H   0  0  0  0  0  0  0  0  0  0  0  0
   -1.2642    0.7086   -1.6687 H   0  0  0  0  0  0  0  0  0  0  0  0
   -1.2437   -1.0550   -1.6341 H   0  0  0  0  0  0  0  0  0  0  0  0
    0.3295   -0.2077   -3.3685 H   0  0  0  0  0  0  0  0  0  0  0  0
    1.2440   -1.0236   -2.0882 H   0  0  0  0  0  0  0  0  0  0  0  0
    0.8429    3.5382   -2.7267 H   0  0  0  0  0  0  0  0  0  0  0  0
   -0.5250    2.5038   -2.2512 H   0  0  0  0  0  0  0  0  0  0  0  0
    0.2560    2.2744   -3.8345 H   0  0  0  0  0  0  0  0  0  0  0  0
   -1.3895    1.1351    1.8567 N   0  0  0  0  0  0  0  0  0  0  0  0
   -2.4265    1.5473    2.7733 C   0  0  2  0  0  0  0  0  0  0  0  0
   -2.3816    3.0657    2.8823 C   0  0  0  0  0  0  0  0  0  0  0  0
   -1.3807    3.7279    2.6167 O   0  0  0  0  0  0  0  0  0  0  0  0
   -2.2491    0.8989    4.1374 C   0  0  0  0  0  0  0  0  0  0  0  0
   -0.4867    1.5958    1.9234 H   0  0  0  0  0  0  0  0  0  0  0  0
   -3.3803    1.2404    2.3304 H   0  0  0  0  0  0  0  0  0  0  0  0
   -1.2988    1.1947    4.5968 H   0  0  0  0  0  0  0  0  0  0  0  0
   -3.0521    1.1900    4.8225 H   0  0  0  0  0  0  0  0  0  0  0  0
   -2.2518   -0.1932    4.0532 H   0  0  0  0  0  0  0  0  0  0  0  0
   -3.5773    3.5907    3.3523 N   0  0  0  0  0  0  0  0  0  0  0  0
   -3.7812    5.0062    3.5545 C   0  0  0  0  0  0  0  0  0  0  0  0
   -4.3609    2.9690    3.5289 H   0  0  0  0  0  0  0  0  0  0  0  0
   -3.5328    5.2682    4.5936 H   0  0  0  0  0  0  0  0  0  0  0  0
   -3.1328    5.5715    2.8689 H   0  0  0  0  0  0  0  0  0  0  0  0
   -4.8333    5.2572    3.3547 H   0  0  0  0  0  0  0  0  0  0  0  0
  1  3  1  0  0  0  0
  1  7  1  0  0  0  0
  1  2  2  0  0  0  0
 35 36  1  0  0  0  0
 36 44  1  0  0  0  0
 36 37  2  0  0  0  0
  8  9  1  0  0  0  0
  9 17  1  0  0  0  0
  9 10  2  0  0  0  0
 18 19  1  0  0  0  0
 19 34  1  0  0  0  0
 19 20  2  0  0  0  0
 35 38  1  0  0  0  0
  8 11  1  0  0  0  0
 44 45  1  0  0  0  0
 23 24  1  0  0  0  0
 21 22  1  0  0  0  0
 18 21  1  0  0  0  0
 22 23  1  0  0  0  0
 34 35  1  0  0  0  0
  7  8  1  0  0  0  0
 17 18  1  0  0  0  0
  3  4  1  0  0  0  0
  3  5  1  0  0  0  0
  3  6  1  0  0  0  0
 38 41  1  0  0  0  0
 38 42  1  0  0  0  0
 38 43  1  0  0  0  0
 11 14  1  0  0  0  0
 11 15  1  0  0  0  0
 11 16  1  0  0  0  0
 45 47  1  0  0  0  0
 45 48  1  0  0  0  0
 45 49  1  0  0  0  0
 24 31  1  0  0  0  0
 24 32  1  0  0  0  0
 24 33  1  0  0  0  0
 21 27  1  0  0  0  0
 21 28  1  0  0  0  0
 22 29  1  0  0  0  0
 22 30  1  0  0  0  0
 35 40  1  0  0  0  0
  8 13  1  0  0  0  0
 18 26  1  0  0  0  0
 44 46  1  0  0  0  0
  7 12  1  0  0  0  0
 34 39  1  0  0  0  0
 17 25  1  0  0  0  0
M  END
$$$$

  -OEChem-05262214473D

 49 48  0     1  0  0  0  0  0999 V2000
   -0.0561   -5.3799    2.6949 C   0  0  0  0  0  0  0  0  0  0  0  0
    0.7325   -5.0736    3.5815 O   0  0  0  0  0  0  0  0  0  0  0  0
   -1.0067   -6.5099    2.9135 C   0  0  0  0  0  0  0  0  0  0  0  0
   -0.5910   -7.4777    2.5899 H   0  0  0  0  0  0  0  0  0  0  0  0
   -1.2629   -6.6440    3.9767 H   0  0  0  0  0  0  0  0  0  0  0  0
   -1.9729   -6.4206    2.3918 H   0  0  0  0  0  0  0  0  0  0  0  0
   -0.1735   -4.7694    1.4571 N   0  0  0  0  0  0  0  0  0  0  0  0
    0.6439   -3.6603    1.0409 C   0  0  2  0  0  0  0  0  0  0  0  0
   -0.2788   -2.5625    0.5280 C   0  0  0  0  0  0  0  0  0  0  0  0
   -1.4197   -2.7791    0.1251 O   0  0  0  0  0  0  0  0  0  0  0  0
    1.6395   -4.0779   -0.0301 C   0  0  0  0  0  0  0  0  0  0  0  0
   -0.8741   -5.1235    0.8083 H   0  0  0  0  0  0  0  0  0  0  0  0
    1.1738   -3.3062    1.9318 H   0  0  0  0  0  0  0  0  0  0  0  0
    1.1270   -4.4358   -0.9305 H   0  0  0  0  0  0  0  0  0  0  0  0
    2.2797   -3.2400   -0.3251 H   0  0  0  0  0  0  0  0  0  0  0  0
    2.2827   -4.8880    0.3303 H   0  0  0  0  0  0  0  0  0  0  0  0
    0.3351   -1.3153    0.5316 N   0  0  0  0  0  0  0  0  0  0  0  0
   -0.3268   -0.1184    0.0807 C   0  0  2  0  0  0  0  0  0  0  0  0
   -1.5671    0.1094    0.9393 C   0  0  0  0  0  0  0  0  0  0  0  0
   -2.5003   -0.6892    0.9919 O   0  0  0  0  0  0  0  0  0  0  0  0
   -0.6422   -0.1620   -1.4207 C   0  0  0  0  0  0  0  0  0  0  0  0
    0.6034   -0.1650   -2.3101 C   0  0  0  0  0  0  0  0  0  0  0  0
    1.5776    1.3469   -2.0474 S   0  0  0  0  0  0  0  0  0  0  0  0
    0.4277    2.5292   -2.7860 C   0  0  0  0  0  0  0  0  0  0  0  0
    1.2790   -1.2290    0.9021 H   0  0  0  0  0  0  0  0  0  0  0  0
    0.3747    0.7022    0.2743 H   0  0  0  0  0  0  0  0  0  0  0  0
   -1.2642    0.7086   -1.6687 H   0  0  0  0  0  0  0  0  0  0  0  0
   -1.2437   -1.0550   -1.6341 H   0  0  0  0  0  0  0  0  0  0  0  0
    0.3295   -0.2077   -3.3685 H   0  0  0  0  0  0  0  0  0  0  0  0
    1.2440   -1.0236   -2.0882 H   0  0  0  0  0  0  0  0  0  0  0  0
    0.8429    3.5382   -2.7267 H   0  0  0  0  0  0  0  0  0  0  0  0
   -0.5250    2.5038   -2.2512 H   0  0  0  0  0  0  0  0  0  0  0  0
    0.2560    2.2744   -3.8345 H   0  0  0  0  0  0  0  0  0  0  0  0
   -1.5240    1.3217    1.6128 N   0  0  0  0  0  0  0  0  0  0  0  0
   -2.5897    1.7689    2.4788 C   0  0  2  0  0  0  0  0  0  0  0  0
   -2.7703    3.2663    2.2676 C   0  0  0  0  0  0  0  0  0  0  0  0
   -1.8862    3.9915    1.8165 O   0  0  0  0  0  0  0  0  0  0  0  0
   -2.2857    1.4582    3.9361 C   0  0  0  0  0  0  0  0  0  0  0  0
   -0.6992    1.9091    1.5333 H   0  0  0  0  0  0  0  0  0  0  0  0
   -3.4967    1.2428    2.1616 H   0  0  0  0  0  0  0  0  0  0  0  0
   -1.3802    1.9766    4.2718 H   0  0  0  0  0  0  0  0  0  0  0  0
   -3.1073    1.7721    4.5884 H   0  0  0  0  0  0  0  0  0  0  0  0
   -2.1267    0.3841    4.0806 H   0  0  0  0  0  0  0  0  0  0  0  0
   -4.0199    3.7049    2.6825 N   0  0  0  0  0  0  0  0  0  0  0  0
   -4.4288    5.0875    2.5974 C   0  0  0  0  0  0  0  0  0  0  0  0
   -4.6973    3.0307    3.0266 H   0  0  0  0  0  0  0  0  0  0  0  0
   -4.1986    5.5975    3.5444 H   0  0  0  0  0  0  0  0  0  0  0  0
   -3.8884    5.5796    1.7752 H   0  0  0  0  0  0  0  0  0  0  0  0
   -5.5110    5.1386    2.4072 H   0  0  0  0  0  0  0  0  0  0  0  0
  1  3  1  0  0  0  0
  1  7  1  0  0  0  0
  1  2  2  0  0  0  0
 35 36  1  0  0  0  0
 36 44  1  0  0  0  0
 36 37  2  0  0  0  0
  8  9  1  0  0  0  0
  9 17  1  0  0  0  0
  9 10  2  0  0  0  0
 18 19  1  0  0  0  0
 19 34  1  0  0  0  0
 19 20  2  0  0  0  0
 35 38  1  0  0  0  0
  8 11  1  0  0  0  0
 44 45  1  0  0  0  0
 23 24  1  0  0  0  0
 21 22  1  0  0  0  0
 18 21  1  0  0  0  0
 22 23  1  0  0  0  0
 34 35  1  0  0  0  0
  7  8  1  0  0  0  0
 17 18  1  0  0  0  0
  3  4  1  0  0  0  0
  3  5  1  0  0  0  0
  3  6  1  0  0  0  0
 38 41  1  0  0  0  0
 38 42  1  0  0  0  0
 38 43  1  0  0  0  0
 11 14  1  0  0  0  0
 11 15  1  0  0  0  0
 11 16  1  0  0  0  0
 45 47  1  0  0  0  0
 45 48  1  0  0  0  0
 45 49  1  0  0  0  0
 24 31  1  0  0  0  0
 24 32  1  0  0  0  0
 24 33  1  0  0  0  0
 21 27  1  0  0  0  0
 21 28  1  0  0  0  0
 22 29  1  0  0  0  0
 22 30  1  0  0  0  0
 35 40  1  0  0  0  0
  8 13  1  0  0  0  0
 18 26  1  0  0  0  0
 44 46  1  0  0  0  0
  7 12  1  0  0  0  0
 34 39  1  0  0  0  0
 17 25  1  0  0  0  0
M  END
$$$$

  -OEChem-05262214473D

 49 48  0     1  0  0  0  0  0999 V2000
   -0.0561   -5.3799    2.6949 C   0  0  0  0  0  0  0  0  0  0  0  0
    0.7325   -5.0736    3.5815 O   0  0  0  0  0  0  0  0  0  0  0  0
   -1.0067   -6.5099    2.9135 C   0  0  0  0  0  0  0  0  0  0  0  0
   -0.5910   -7.4777    2.5899 H   0  0  0  0  0  0  0  0  0  0  0  0
   -1.2629   -6.6440    3.9767 H   0  0  0  0  0  0  0  0  0  0  0  0
   -1.9729   -6.4206    2.3918 H   0  0  0  0  0  0  0  0  0  0  0  0
   -0.1735   -4.7694    1.4571 N   0  0  0  0  0  0  0  0  0  0  0  0
    0.6439   -3.6603    1.0409 C   0  0  2  0  0  0  0  0  0  0  0  0
   -0.2788   -2.5625    0.5280 C   0  0  0  0  0  0  0  0  0  0  0  0
   -1.4197   -2.7791    0.1251 O   0  0  0  0  0  0  0  0  0  0  0  0
    1.6395   -4.0779   -0.0301 C   0  0  0  0  0  0  0  0  0  0  0  0
   -0.8741   -5.1235    0.8083 H   0  0  0  0  0  0  0  0  0  0  0  0
    1.1738   -3.3062    1.9318 H   0  0  0  0  0  0  0  0  0  0  0  0
    1.1270   -4.4358   -0.9305 H   0  0  0  0  0  0  0  0  0  0  0  0
    2.2797   -3.2400   -0.3251 H   0  0  0  0  0  0  0  0  0  0  0  0
    2.2827   -4.8880    0.3303 H   0  0  0  0  0  0  0  0  0  0  0  0
    0.3351   -1.3153    0.5316 N   0  0  0  0  0  0  0  0  0  0  0  0
   -0.3268   -0.1184    0.0807 C   0  0  2  0  0  0  0  0  0  0  0  0
   -1.5671    0.1094    0.9393 C   0  0  0  0  0  0  0  0  0  0  0  0
   -2.3686   -0.7834    1.2070 O   0  0  0  0  0  0  0  0  0  0  0  0
   -0.6422   -0.1620   -1.4207 C   0  0  0  0  0  0  0  0  0  0  0  0
    0.6034   -0.1650   -2.3101 C   0  0  0  0  0  0  0  0  0  0  0  0
    1.5776    1.3469   -2.0474 S   0  0  0  0  0  0  0  0  0  0  0  0
    0.4277    2.5292   -2.7860 C   0  0  0  0  0  0  0  0  0  0  0  0
    1.2790   -1.2290    0.9021 H   0  0  0  0  0  0  0  0  0  0  0  0
    0.3747    0.7022    0.2743 H   0  0  0  0  0  0  0  0  0  0  0  0
   -1.2642    0.7086   -1.6687 H   0  0  0  0  0  0  0  0  0  0  0  0
   -1.2437   -1.0550   -1.6341 H   0  0  0  0  0  0  0  0  0  0  0  0
    0.3295   -0.2077   -3.3685 H   0  0  0  0  0  0  0  0  0  0  0  0
    1.2440   -1.0236   -2.0882 H   0  0  0  0  0  0  0  0  0  0  0  0
    0.8429    3.5382   -2.7267 H   0  0  0  0  0  0  0  0  0  0  0  0
   -0.5250    2.5038   -2.2512 H   0  0  0  0  0  0  0  0  0  0  0  0
    0.2560    2.2744   -3.8345 H   0  0  0  0  0  0  0  0  0  0  0  0
   -1.6906    1.4311    1.3432 N   0  0  0  0  0  0  0  0  0  0  0  0
   -2.7910    1.8972    2.1540 C   0  0  2  0  0  0  0  0  0  0  0  0
   -3.1986    3.2742    1.6467 C   0  0  0  0  0  0  0  0  0  0  0  0
   -2.4438    4.0041    1.0076 O   0  0  0  0  0  0  0  0  0  0  0  0
   -2.4103    1.9507    3.6253 C   0  0  0  0  0  0  0  0  0  0  0  0
   -0.9651    2.0987    1.0989 H   0  0  0  0  0  0  0  0  0  0  0  0
   -3.6160    1.1926    2.0026 H   0  0  0  0  0  0  0  0  0  0  0  0
   -1.5852    2.6516    3.7966 H   0  0  0  0  0  0  0  0  0  0  0  0
   -3.2544    2.2770    4.2419 H   0  0  0  0  0  0  0  0  0  0  0  0
   -2.0890    0.9658    3.9808 H   0  0  0  0  0  0  0  0  0  0  0  0
   -4.4900    3.6098    2.0287 N   0  0  0  0  0  0  0  0  0  0  0  0
   -5.1032    4.8703    1.6807 C   0  0  0  0  0  0  0  0  0  0  0  0
   -5.0506    2.9356    2.5414 H   0  0  0  0  0  0  0  0  0  0  0  0
   -4.9302    5.5979    2.4874 H   0  0  0  0  0  0  0  0  0  0  0  0
   -4.6617    5.2471    0.7463 H   0  0  0  0  0  0  0  0  0  0  0  0
   -6.1850    4.7260    1.5431 H   0  0  0  0  0  0  0  0  0  0  0  0
  1  3  1  0  0  0  0
  1  7  1  0  0  0  0
  1  2  2  0  0  0  0
 35 36  1  0  0  0  0
 36 44  1  0  0  0  0
 36 37  2  0  0  0  0
  8  9  1  0  0  0  0
  9 17  1  0  0  0  0
  9 10  2  0  0  0  0
 18 19  1  0  0  0  0
 19 34  1  0  0  0  0
 19 20  2  0  0  0  0
 35 38  1  0  0  0  0
  8 11  1  0  0  0  0
 44 45  1  0  0  0  0
 23 24  1  0  0  0  0
 21 22  1  0  0  0  0
 18 21  1  0  0  0  0
 22 23  1  0  0  0  0
 34 35  1  0  0  0  0
  7  8  1  0  0  0  0
 17 18  1  0  0  0  0
  3  4  1  0  0  0  0
  3  5  1  0  0  0  0
  3  6  1  0  0  0  0
 38 41  1  0  0  0  0
 38 42  1  0  0  0  0
 38 43  1  0  0  0  0
 11 14  1  0  0  0  0
 11 15  1  0  0  0  0
 11 16  1  0  0  0  0
 45 47  1  0  0  0  0
 45 48  1  0  0  0  0
 45 49  1  0  0  0  0
 24 31  1  0  0  0  0
 24 32  1  0  0  0  0
 24 33  1  0  0  0  0
 21 27  1  0  0  0  0
 21 28  1  0  0  0  0
 22 29  1  0  0  0  0
 22 30  1  0  0  0  0
 35 40  1  0  0  0  0
  8 13  1  0  0  0  0
 18 26  1  0  0  0  0
 44 46  1  0  0  0  0
  7 12  1  0  0  0  0
 34 39  1  0  0  0  0
 17 25  1  0  0  0  0
M  END
$$$$

  -OEChem-05262214473D

 49 48  0     1  0  0  0  0  0999 V2000
   -0.0561   -5.3799    2.6949 C   0  0  0  0  0  0  0  0  0  0  0  0
    0.7325   -5.0736    3.5815 O   0  0  0  0  0  0  0  0  0  0  0  0
   -1.0067   -6.5099    2.9135 C   0  0  0  0  0  0  0  0  0  0  0  0
   -0.5910   -7.4777    2.5899 H   0  0  0  0  0  0  0  0  0  0  0  0
   -1.2629   -6.6440    3.9767 H   0  0  0  0  0  0  0  0  0  0  0  0
   -1.9729   -6.4206    2.3918 H   0  0  0  0  0  0  0  0  0  0  0  0
   -0.1735   -4.7694    1.4571 N   0  0  0  0  0  0  0  0  0  0  0  0
    0.6439   -3.6603    1.0409 C   0  0  2  0  0  0  0  0  0  0  0  0
   -0.2788   -2.5625    0.5280 C   0  0  0  0  0  0  0  0  0  0  0  0
   -1.4197   -2.7791    0.1251 O   0  0  0  0  0  0  0  0  0  0  0  0
    1.6395   -4.0779   -0.0301 C   0  0  0  0  0  0  0  0  0  0  0  0
   -0.8741   -5.1235    0.8083 H   0  0  0  0  0  0  0  0  0  0  0  0
    1.1738   -3.3062    1.9318 H   0  0  0  0  0  0  0  0  0  0  0  0
    1.1270   -4.4358   -0.9305 H   0  0  0  0  0  0  0  0  0  0  0  0
    2.2797   -3.2400   -0.3251 H   0  0  0  0  0  0  0  0  0  0  0  0
    2.2827   -4.8880    0.3303 H   0  0  0  0  0  0  0  0  0  0  0  0
    0.3351   -1.3153    0.5316 N   0  0  0  0  0  0  0  0  0  0  0  0
   -0.3268   -0.1184    0.0807 C   0  0  2  0  0  0  0  0  0  0  0  0
   -1.5671    0.1094    0.9393 C   0  0  0  0  0  0  0  0  0  0  0  0
   -2.2195   -0.8100    1.4296 O   0  0  0  0  0  0  0  0  0  0  0  0
   -0.6422   -0.1620   -1.4207 C   0  0  0  0  0  0  0  0  0  0  0  0
    0.6034   -0.1650   -2.3101 C   0  0  0  0  0  0  0  0  0  0  0  0
    1.5776    1.3469   -2.0474 S   0  0  0  0  0  0  0  0  0  0  0  0
    0.4277    2.5292   -2.7860 C   0  0  0  0  0  0  0  0  0  0  0  0
    1.2790   -1.2290    0.9021 H   0  0  0  0  0  0  0  0  0  0  0  0
    0.3747    0.7022    0.2743 H   0  0  0  0  0  0  0  0  0  0  0  0
   -1.2642    0.7086   -1.6687 H   0  0  0  0  0  0  0  0  0  0  0  0
   -1.2437   -1.0550   -1.6341 H   0  0  0  0  0  0  0  0  0  0  0  0
    0.3295   -0.2077   -3.3685 H   0  0  0  0  0  0  0  0  0  0  0  0
    1.2440   -1.0236   -2.0882 H   0  0  0  0  0  0  0  0  0  0  0  0
    0.8429    3.5382   -2.7267 H   0  0  0  0  0  0  0  0  0  0  0  0
   -0.5250    2.5038   -2.2512 H   0  0  0  0  0  0  0  0  0  0  0  0
    0.2560    2.2744   -3.8345 H   0  0  0  0  0  0  0  0  0  0  0  0
   -1.8778    1.4557    1.0662 N   0  0  0  0  0  0  0  0  0  0  0  0
   -3.0166    1.9235    1.8210 C   0  0  2  0  0  0  0  0  0  0  0  0
   -3.6375    3.0887    1.0619 C   0  0  0  0  0  0  0  0  0  0  0  0
   -3.0155    3.7649    0.2452 O   0  0  0  0  0  0  0  0  0  0  0  0
   -2.6145    2.3429    3.2264 C   0  0  0  0  0  0  0  0  0  0  0  0
   -1.2663    2.1516    0.6496 H   0  0  0  0  0  0  0  0  0  0  0  0
   -3.7301    1.0934    1.8642 H   0  0  0  0  0  0  0  0  0  0  0  0
   -1.8999    3.1738    3.2034 H   0  0  0  0  0  0  0  0  0  0  0  0
   -3.4834    2.6704    3.8067 H   0  0  0  0  0  0  0  0  0  0  0  0
   -2.1411    1.5121    3.7606 H   0  0  0  0  0  0  0  0  0  0  0  0
   -4.9554    3.3119    1.4354 N   0  0  0  0  0  0  0  0  0  0  0  0
   -5.7584    4.3694    0.8671 C   0  0  0  0  0  0  0  0  0  0  0  0
   -5.3967    2.6901    2.1065 H   0  0  0  0  0  0  0  0  0  0  0  0
   -5.6778    5.2693    1.4946 H   0  0  0  0  0  0  0  0  0  0  0  0
   -5.4000    4.5968   -0.1477 H   0  0  0  0  0  0  0  0  0  0  0  0
   -6.8093    4.0474    0.8213 H   0  0  0  0  0  0  0  0  0  0  0  0
  1  3  1  0  0  0  0
  1  7  1  0  0  0  0
  1  2  2  0  0  0  0
 35 36  1  0  0  0  0
 36 44  1  0  0  0  0
 36 37  2  0  0  0  0
  8  9  1  0  0  0  0
  9 17  1  0  0  0  0
  9 10  2  0  0  0  0
 18 19  1  0  0  0  0
 19 34  1  0  0  0  0
 19 20  2  0  0  0  0
 35 38  1  0  0  0  0
  8 11  1  0  0  0  0
 44 45  1  0  0  0  0
 23 24  1  0  0  0  0
 21 22  1  0  0  0  0
 18 21  1  0  0  0  0
 22 23  1  0  0  0  0
 34 35  1  0  0  0  0
  7  8  1  0  0  0  0
 17 18  1  0  0  0  0
  3  4  1  0  0  0  0
  3  5  1  0  0  0  0
  3  6  1  0  0  0  0
 38 41  1  0  0  0  0
 38 42  1  0  0  0  0
 38 43  1  0  0  0  0
 11 14  1  0  0  0  0
 11 15  1  0  0  0  0
 11 16  1  0  0  0  0
 45 47  1  0  0  0  0
 45 48  1  0  0  0  0
 45 49  1  0  0  0  0
 24 31  1  0  0  0  0
 24 32  1  0  0  0  0
 24 33  1  0  0  0  0
 21 27  1  0  0  0  0
 21 28  1  0  0  0  0
 22 29  1  0  0  0  0
 22 30  1  0  0  0  0
 35 40  1  0  0  0  0
  8 13  1  0  0  0  0
 18 26  1  0  0  0  0
 44 46  1  0  0  0  0
  7 12  1  0  0  0  0
 34 39  1  0  0  0  0
 17 25  1  0  0  0  0
M  END
$$$$

  -OEChem-05262214473D

 49 48  0     1  0  0  0  0  0999 V2000
   -0.0561   -5.3799    2.6949 C   0  0  0  0  0  0  0  0  0  0  0  0
    0.7325   -5.0736    3.5815 O   0  0  0  0  0  0  0  0  0  0  0  0
   -1.0067   -6.5099    2.9135 C   0  0  0  0  0  0  0  0  0  0  0  0
   -0.5910   -7.4777    2.5899 H   0  0  0  0  0  0  0  0  0  0  0  0
   -1.2629   -6.6440    3.9767 H   0  0  0  0  0  0  0  0  0  0  0  0
   -1.9729   -6.4206    2.3918 H   0  0  0  0  0  0  0  0  0  0  0  0
   -0.1735   -4.7694    1.4571 N   0  0  0  0  0  0  0  0  0  0  0  0
    0.6439   -3.6603    1.0409 C   0  0  2  0  0  0  0  0  0  0  0  0
   -0.2788   -2.5625    0.5280 C   0  0  0  0  0  0  0  0  0  0  0  0
   -1.4197   -2.7791    0.1251 O   0  0  0  0  0  0  0  0  0  0  0  0
    1.6395   -4.0779   -0.0301 C   0  0  0  0  0  0  0  0  0  0  0  0
   -0.8741   -5.1235    0.8083 H   0  0  0  0  0  0  0  0  0  0  0  0
    1.1738   -3.3062    1.9318 H   0  0  0  0  0  0  0  0  0  0  0  0
    1.1270   -4.4358   -0.9305 H   0  0  0  0  0  0  0  0  0  0  0  0
    2.2797   -3.2400   -0.3251 H   0  0  0  0  0  0  0  0  0  0  0  0
    2.2827   -4.8880    0.3303 H   0  0  0  0  0  0  0  0  0  0  0  0
    0.3351   -1.3153    0.5316 N   0  0  0  0  0  0  0  0  0  0  0  0
   -0.3268   -0.1184    0.0807 C   0  0  2  0  0  0  0  0  0  0  0  0
   -1.5671    0.1094    0.9393 C   0  0  0  0  0  0  0  0  0  0  0  0
   -2.0629   -0.7671    1.6444 O   0  0  0  0  0  0  0  0  0  0  0  0
   -0.6422   -0.1620   -1.4207 C   0  0  0  0  0  0  0  0  0  0  0  0
    0.6034   -0.1650   -2.3101 C   0  0  0  0  0  0  0  0  0  0  0  0
    1.5776    1.3469   -2.0474 S   0  0  0  0  0  0  0  0  0  0  0  0
    0.4277    2.5292   -2.7860 C   0  0  0  0  0  0  0  0  0  0  0  0
    1.2790   -1.2290    0.9021 H   0  0  0  0  0  0  0  0  0  0  0  0
    0.3747    0.7022    0.2743 H   0  0  0  0  0  0  0  0  0  0  0  0
   -1.2642    0.7086   -1.6687 H   0  0  0  0  0  0  0  0  0  0  0  0
   -1.2437   -1.0550   -1.6341 H   0  0  0  0  0  0  0  0  0  0  0  0
    0.3295   -0.2077   -3.3685 H   0  0  0  0  0  0  0  0  0  0  0  0
    1.2440   -1.0236   -2.0882 H   0  0  0  0  0  0  0  0  0  0  0  0
    0.8429    3.5382   -2.7267 H   0  0  0  0  0  0  0  0  0  0  0  0
   -0.5250    2.5038   -2.2512 H   0  0  0  0  0  0  0  0  0  0  0  0
    0.2560    2.2744   -3.8345 H   0  0  0  0  0  0  0  0  0  0  0  0
   -2.0730    1.3940    0.8006 N   0  0  0  0  0  0  0  0  0  0  0  0
   -3.2513    1.8460    1.5026 C   0  0  2  0  0  0  0  0  0  0  0  0
   -4.0571    2.7226    0.5530 C   0  0  0  0  0  0  0  0  0  0  0  0
   -3.5624    3.2901   -0.4188 O   0  0  0  0  0  0  0  0  0  0  0  0
   -2.8842    2.6081    2.7664 C   0  0  0  0  0  0  0  0  0  0  0  0
   -1.5824    2.0644    0.2162 H   0  0  0  0  0  0  0  0  0  0  0  0
   -3.8311    0.9517    1.7557 H   0  0  0  0  0  0  0  0  0  0  0  0
   -2.3028    3.5075    2.5327 H   0  0  0  0  0  0  0  0  0  0  0  0
   -3.7788    2.9254    3.3123 H   0  0  0  0  0  0  0  0  0  0  0  0
   -2.2795    1.9859    3.4349 H   0  0  0  0  0  0  0  0  0  0  0  0
   -5.3846    2.8315    0.9429 N   0  0  0  0  0  0  0  0  0  0  0  0
   -6.3498    3.6189    0.2120 C   0  0  0  0  0  0  0  0  0  0  0  0
   -5.7122    2.3111    1.7514 H   0  0  0  0  0  0  0  0  0  0  0  0
   -6.3904    4.6341    0.6337 H   0  0  0  0  0  0  0  0  0  0  0  0
   -6.0530    3.6730   -0.8458 H   0  0  0  0  0  0  0  0  0  0  0  0
   -7.3413    3.1492    0.2911 H   0  0  0  0  0  0  0  0  0  0  0  0
  1  3  1  0  0  0  0
  1  7  1  0  0  0  0
  1  2  2  0  0  0  0
 35 36  1  0  0  0  0
 36 44  1  0  0  0  0
 36 37  2  0  0  0  0
  8  9  1  0  0  0  0
  9 17  1  0  0  0  0
  9 10  2  0  0  0  0
 18 19  1  0  0  0  0
 19 34  1  0  0  0  0
 19 20  2  0  0  0  0
 35 38  1  0  0  0  0
  8 11  1  0  0  0  0
 44 45  1  0  0  0  0
 23 24  1  0  0  0  0
 21 22  1  0  0  0  0
 18 21  1  0  0  0  0
 22 23  1  0  0  0  0
 34 35  1  0  0  0  0
  7  8  1  0  0  0  0
 17 18  1  0  0  0  0
  3  4  1  0  0  0  0
  3  5  1  0  0  0  0
  3  6  1  0  0  0  0
 38 41  1  0  0  0  0
 38 42  1  0  0  0  0
 38 43  1  0  0  0  0
 11 14  1  0  0  0  0
 11 15  1  0  0  0  0
 11 16  1  0  0  0  0
 45 47  1  0  0  0  0
 45 48  1  0  0  0  0
 45 49  1  0  0  0  0
 24 31  1  0  0  0  0
 24 32  1  0  0  0  0
 24 33  1  0  0  0  0
 21 27  1  0  0  0  0
 21 28  1  0  0  0  0
 22 29  1  0  0  0  0
 22 30  1  0  0  0  0
 35 40  1  0  0  0  0
  8 13  1  0  0  0  0
 18 26  1  0  0  0  0
 44 46  1  0  0  0  0
  7 12  1  0  0  0  0
 34 39  1  0  0  0  0
 17 25  1  0  0  0  0
M  END
$$$$

  -OEChem-05262214473D

 49 48  0     1  0  0  0  0  0999 V2000
   -0.0561   -5.3799    2.6949 C   0  0  0  0  0  0  0  0  0  0  0  0
    0.7325   -5.0736    3.5815 O   0  0  0  0  0  0  0  0  0  0  0  0
   -1.0067   -6.5099    2.9135 C   0  0  0  0  0  0  0  0  0  0  0  0
   -0.5910   -7.4777    2.5899 H   0  0  0  0  0  0  0  0  0  0  0  0
   -1.2629   -6.6440    3.9767 H   0  0  0  0  0  0  0  0  0  0  0  0
   -1.9729   -6.4206    2.3918 H   0  0  0  0  0  0  0  0  0  0  0  0
   -0.1735   -4.7694    1.4571 N   0  0  0  0  0  0  0  0  0  0  0  0
    0.6439   -3.6603    1.0409 C   0  0  2  0  0  0  0  0  0  0  0  0
   -0.2788   -2.5625    0.5280 C   0  0  0  0  0  0  0  0  0  0  0  0
   -1.4197   -2.7791    0.1251 O   0  0  0  0  0  0  0  0  0  0  0  0
    1.6395   -4.0779   -0.0301 C   0  0  0  0  0  0  0  0  0  0  0  0
   -0.8741   -5.1235    0.8083 H   0  0  0  0  0  0  0  0  0  0  0  0
    1.1738   -3.3062    1.9318 H   0  0  0  0  0  0  0  0  0  0  0  0
    1.1270   -4.4358   -0.9305 H   0  0  0  0  0  0  0  0  0  0  0  0
    2.2797   -3.2400   -0.3251 H   0  0  0  0  0  0  0  0  0  0  0  0
    2.2827   -4.8880    0.3303 H   0  0  0  0  0  0  0  0  0  0  0  0
    0.3351   -1.3153    0.5316 N   0  0  0  0  0  0  0  0  0  0  0  0
   -0.3268   -0.1184    0.0807 C   0  0  2  0  0  0  0  0  0  0  0  0
   -1.3294    0.3182    1.1445 C   0  0  0  0  0  0  0  0  0  0  0  0
   -1.5174   -0.3098    2.1845 O   0  0  0  0  0  0  0  0  0  0  0  0
   -0.9671   -0.2972   -1.3027 C   0  0  0  0  0  0  0  0  0  0  0  0
    0.0492   -0.5152   -2.4262 C   0  0  0  0  0  0  0  0  0  0  0  0
    1.1579    0.9181   -2.5696 S   0  0  0  0  0  0  0  0  0  0  0  0
   -0.0432    2.1147   -3.1949 C   0  0  0  0  0  0  0  0  0  0  0  0
    1.2790   -1.2290    0.9021 H   0  0  0  0  0  0  0  0  0  0  0  0
    0.4542    0.6489    0.0160 H   0  0  0  0  0  0  0  0  0  0  0  0
   -1.5676    0.5954   -1.5236 H   0  0  0  0  0  0  0  0  0  0  0  0
   -1.6601   -1.1477   -1.2689 H   0  0  0  0  0  0  0  0  0  0  0  0
   -0.4531   -0.6482   -3.3890 H   0  0  0  0  0  0  0  0  0  0  0  0
    0.6630   -1.4006   -2.2360 H   0  0  0  0  0  0  0  0  0  0  0  0
    0.4425    3.0806   -3.3537 H   0  0  0  0  0  0  0  0  0  0  0  0
   -0.8544    2.2381   -2.4731 H   0  0  0  0  0  0  0  0  0  0  0  0
   -0.4584    1.7633   -4.1426 H   0  0  0  0  0  0  0  0  0  0  0  0
   -2.0112    1.4709    0.7818 N   0  0  0  0  0  0  0  0  0  0  0  0
   -3.0219    2.0730    1.6194 C   0  0  2  0  0  0  0  0  0  0  0  0
   -4.1444    2.5702    0.7182 C   0  0  0  0  0  0  0  0  0  0  0  0
   -3.9858    2.8209   -0.4748 O   0  0  0  0  0  0  0  0  0  0  0  0
   -2.4472    3.2102    2.4495 C   0  0  0  0  0  0  0  0  0  0  0  0
   -1.7719    1.9416   -0.0859 H   0  0  0  0  0  0  0  0  0  0  0  0
   -3.4022    1.2817    2.2746 H   0  0  0  0  0  0  0  0  0  0  0  0
   -2.0612    4.0125    1.8102 H   0  0  0  0  0  0  0  0  0  0  0  0
   -3.2080    3.6469    3.1049 H   0  0  0  0  0  0  0  0  0  0  0  0
   -1.6204    2.8569    3.0751 H   0  0  0  0  0  0  0  0  0  0  0  0
   -5.3338    2.7422    1.4125 N   0  0  0  0  0  0  0  0  0  0  0  0
   -6.5430    3.2175    0.7818 C   0  0  0  0  0  0  0  0  0  0  0  0
   -5.3791    2.4914    2.3958 H   0  0  0  0  0  0  0  0  0  0  0  0
   -6.6034    4.3114    0.8811 H   0  0  0  0  0  0  0  0  0  0  0  0
   -6.5314    2.9463   -0.2841 H   0  0  0  0  0  0  0  0  0  0  0  0
   -7.4155    2.7566    1.2680 H   0  0  0  0  0  0  0  0  0  0  0  0
  1  3  1  0  0  0  0
  1  7  1  0  0  0  0
  1  2  2  0  0  0  0
 35 36  1  0  0  0  0
 36 44  1  0  0  0  0
 36 37  2  0  0  0  0
  8  9  1  0  0  0  0
  9 17  1  0  0  0  0
  9 10  2  0  0  0  0
 18 19  1  0  0  0  0
 19 34  1  0  0  0  0
 19 20  2  0  0  0  0
 35 38  1  0  0  0  0
  8 11  1  0  0  0  0
 44 45  1  0  0  0  0
 23 24  1  0  0  0  0
 21 22  1  0  0  0  0
 18 21  1  0  0  0  0
 22 23  1  0  0  0  0
 34 35  1  0  0  0  0
  7  8  1  0  0  0  0
 17 18  1  0  0  0  0
  3  4  1  0  0  0  0
  3  5  1  0  0  0  0
  3  6  1  0  0  0  0
 38 41  1  0  0  0  0
 38 42  1  0  0  0  0
 38 43  1  0  0  0  0
 11 14  1  0  0  0  0
 11 15  1  0  0  0  0
 11 16  1  0  0  0  0
 45 47  1  0  0  0  0
 45 48  1  0  0  0  0
 45 49  1  0  0  0  0
 24 31  1  0  0  0  0
 24 32  1  0  0  0  0
 24 33  1  0  0  0  0
 21 27  1  0  0  0  0
 21 28  1  0  0  0  0
 22 29  1  0  0  0  0
 22 30  1  0  0  0  0
 35 40  1  0  0  0  0
  8 13  1  0  0  0  0
 18 26  1  0  0  0  0
 44 46  1  0  0  0  0
  7 12  1  0  0  0  0
 34 39  1  0  0  0  0
 17 25  1  0  0  0  0
M  END
$$$$

  -OEChem-05262214473D

 49 48  0     1  0  0  0  0  0999 V2000
   -0.0561   -5.3799    2.6949 C   0  0  0  0  0  0  0  0  0  0  0  0
    0.7325   -5.0736    3.5815 O   0  0  0  0  0  0  0  0  0  0  0  0
   -1.0067   -6.5099    2.9135 C   0  0  0  0  0  0  0  0  0  0  0  0
   -0.5910   -7.4777    2.5899 H   0  0  0  0  0  0  0  0  0  0  0  0
   -1.2629   -6.6440    3.9767 H   0  0  0  0  0  0  0  0  0  0  0  0
   -1.9729   -6.4206    2.3918 H   0  0  0  0  0  0  0  0  0  0  0  0
   -0.1735   -4.7694    1.4571 N   0  0  0  0  0  0  0  0  0  0  0  0
    0.6439   -3.6603    1.0409 C   0  0  2  0  0  0  0  0  0  0  0  0
   -0.2788   -2.5625    0.5280 C   0  0  0  0  0  0  0  0  0  0  0  0
   -1.4197   -2.7791    0.1251 O   0  0  0  0  0  0  0  0  0  0  0  0
    1.6395   -4.0779   -0.0301 C   0  0  0  0  0  0  0  0  0  0  0  0
   -0.8741   -5.1235    0.8083 H   0  0  0  0  0  0  0  0  0  0  0  0
    1.1738   -3.3062    1.9318 H   0  0  0  0  0  0  0  0  0  0  0  0
    1.1270   -4.4358   -0.9305 H   0  0  0  0  0  0  0  0  0  0  0  0
    2.2797   -3.2400   -0.3251 H   0  0  0  0  0  0  0  0  0  0  0  0
    2.2827   -4.8880    0.3303 H   0  0  0  0  0  0  0  0  0  0  0  0
    0.3351   -1.3153    0.5316 N   0  0  0  0  0  0  0  0  0  0  0  0
   -0.3268   -0.1184    0.0807 C   0  0  2  0  0  0  0  0  0  0  0  0
   -1.3294    0.3182    1.1445 C   0  0  0  0  0  0  0  0  0  0  0  0
   -1.3356   -0.1390    2.2857 O   0  0  0  0  0  0  0  0  0  0  0  0
   -0.9671   -0.2972   -1.3027 C   0  0  0  0  0  0  0  0  0  0  0  0
    0.0492   -0.5152   -2.4262 C   0  0  0  0  0  0  0  0  0  0  0  0
    1.1579    0.9181   -2.5696 S   0  0  0  0  0  0  0  0  0  0  0  0
   -0.0432    2.1147   -3.1949 C   0  0  0  0  0  0  0  0  0  0  0  0
    1.2790   -1.2290    0.9021 H   0  0  0  0  0  0  0  0  0  0  0  0
    0.4542    0.6489    0.0160 H   0  0  0  0  0  0  0  0  0  0  0  0
   -1.5676    0.5954   -1.5236 H   0  0  0  0  0  0  0  0  0  0  0  0
   -1.6601   -1.1477   -1.2689 H   0  0  0  0  0  0  0  0  0  0  0  0
   -0.4531   -0.6482   -3.3890 H   0  0  0  0  0  0  0  0  0  0  0  0
    0.6630   -1.4006   -2.2360 H   0  0  0  0  0  0  0  0  0  0  0  0
    0.4425    3.0806   -3.3537 H   0  0  0  0  0  0  0  0  0  0  0  0
   -0.8544    2.2381   -2.4731 H   0  0  0  0  0  0  0  0  0  0  0  0
   -0.4584    1.7633   -4.1426 H   0  0  0  0  0  0  0  0  0  0  0  0
   -2.2346    1.2520    0.6611 N   0  0  0  0  0  0  0  0  0  0  0  0
   -3.2893    1.8075    1.4763 C   0  0  2  0  0  0  0  0  0  0  0  0
   -4.5357    1.9343    0.6104 C   0  0  0  0  0  0  0  0  0  0  0  0
   -4.4967    1.9938   -0.6168 O   0  0  0  0  0  0  0  0  0  0  0  0
   -2.8897    3.1560    2.0547 C   0  0  0  0  0  0  0  0  0  0  0  0
   -2.1386    1.5961   -0.2897 H   0  0  0  0  0  0  0  0  0  0  0  0
   -3.4760    1.0907    2.2834 H   0  0  0  0  0  0  0  0  0  0  0  0
   -2.6986    3.8873    1.2609 H   0  0  0  0  0  0  0  0  0  0  0  0
   -3.6791    3.5625    2.6955 H   0  0  0  0  0  0  0  0  0  0  0  0
   -1.9763    3.0683    2.6528 H   0  0  0  0  0  0  0  0  0  0  0  0
   -5.6936    2.0168    1.3711 N   0  0  0  0  0  0  0  0  0  0  0  0
   -7.0051    2.1551    0.7823 C   0  0  0  0  0  0  0  0  0  0  0  0
   -5.6337    1.9398    2.3822 H   0  0  0  0  0  0  0  0  0  0  0  0
   -7.2630    3.2218    0.7067 H   0  0  0  0  0  0  0  0  0  0  0  0
   -7.0054    1.7059   -0.2217 H   0  0  0  0  0  0  0  0  0  0  0  0
   -7.7462    1.6428    1.4135 H   0  0  0  0  0  0  0  0  0  0  0  0
  1  3  1  0  0  0  0
  1  7  1  0  0  0  0
  1  2  2  0  0  0  0
 35 36  1  0  0  0  0
 36 44  1  0  0  0  0
 36 37  2  0  0  0  0
  8  9  1  0  0  0  0
  9 17  1  0  0  0  0
  9 10  2  0  0  0  0
 18 19  1  0  0  0  0
 19 34  1  0  0  0  0
 19 20  2  0  0  0  0
 35 38  1  0  0  0  0
  8 11  1  0  0  0  0
 44 45  1  0  0  0  0
 23 24  1  0  0  0  0
 21 22  1  0  0  0  0
 18 21  1  0  0  0  0
 22 23  1  0  0  0  0
 34 35  1  0  0  0  0
  7  8  1  0  0  0  0
 17 18  1  0  0  0  0
  3  4  1  0  0  0  0
  3  5  1  0  0  0  0
  3  6  1  0  0  0  0
 38 41  1  0  0  0  0
 38 42  1  0  0  0  0
 38 43  1  0  0  0  0
 11 14  1  0  0  0  0
 11 15  1  0  0  0  0
 11 16  1  0  0  0  0
 45 47  1  0  0  0  0
 45 48  1  0  0  0  0
 45 49  1  0  0  0  0
 24 31  1  0  0  0  0
 24 32  1  0  0  0  0
 24 33  1  0  0  0  0
 21 27  1  0  0  0  0
 21 28  1  0  0  0  0
 22 29  1  0  0  0  0
 22 30  1  0  0  0  0
 35 40  1  0  0  0  0
  8 13  1  0  0  0  0
 18 26  1  0  0  0  0
 44 46  1  0  0  0  0
  7 12  1  0  0  0  0
 34 39  1  0  0  0  0
 17 25  1  0  0  0  0
M  END
$$$$

  -OEChem-05262214473D

 49 48  0     1  0  0  0  0  0999 V2000
   -0.0561   -5.3799    2.6949 C   0  0  0  0  0  0  0  0  0  0  0  0
    0.7325   -5.0736    3.5815 O   0  0  0  0  0  0  0  0  0  0  0  0
   -1.0067   -6.5099    2.9135 C   0  0  0  0  0  0  0  0  0  0  0  0
   -0.5910   -7.4777    2.5899 H   0  0  0  0  0  0  0  0  0  0  0  0
   -1.2629   -6.6440    3.9767 H   0  0  0  0  0  0  0  0  0  0  0  0
   -1.9729   -6.4206    2.3918 H   0  0  0  0  0  0  0  0  0  0  0  0
   -0.1735   -4.7694    1.4571 N   0  0  0  0  0  0  0  0  0  0  0  0
    0.6439   -3.6603    1.0409 C   0  0  2  0  0  0  0  0  0  0  0  0
   -0.2788   -2.5625    0.5280 C   0  0  0  0  0  0  0  0  0  0  0  0
   -1.4197   -2.7791    0.1251 O   0  0  0  0  0  0  0  0  0  0  0  0
    1.6395   -4.0779   -0.0301 C   0  0  0  0  0  0  0  0  0  0  0  0
   -0.8741   -5.1235    0.8083 H   0  0  0  0  0  0  0  0  0  0  0  0
    1.1738   -3.3062    1.9318 H   0  0  0  0  0  0  0  0  0  0  0  0
    1.1270   -4.4358   -0.9305 H   0  0  0  0  0  0  0  0  0  0  0  0
    2.2797   -3.2400   -0.3251 H   0  0  0  0  0  0  0  0  0  0  0  0
    2.2827   -4.8880    0.3303 H   0  0  0  0  0  0  0  0  0  0  0  0
    0.3351   -1.3153    0.5316 N   0  0  0  0  0  0  0  0  0  0  0  0
   -0.3268   -0.1184    0.0807 C   0  0  2  0  0  0  0  0  0  0  0  0
   -1.3294    0.3182    1.1445 C   0  0  0  0  0  0  0  0  0  0  0  0
   -1.1833    0.0761    2.3409 O   0  0  0  0  0  0  0  0  0  0  0  0
   -0.9671   -0.2972   -1.3027 C   0  0  0  0  0  0  0  0  0  0  0  0
    0.0492   -0.5152   -2.4262 C   0  0  0  0  0  0  0  0  0  0  0  0
    1.1579    0.9181   -2.5696 S   0  0  0  0  0  0  0  0  0  0  0  0
   -0.0432    2.1147   -3.1949 C   0  0  0  0  0  0  0  0  0  0  0  0
    1.2790   -1.2290    0.9021 H   0  0  0  0  0  0  0  0  0  0  0  0
    0.4542    0.6489    0.0160 H   0  0  0  0  0  0  0  0  0  0  0  0
   -1.5676    0.5954   -1.5236 H   0  0  0  0  0  0  0  0  0  0  0  0
   -1.6601   -1.1477   -1.2689 H   0  0  0  0  0  0  0  0  0  0  0  0
   -0.4531   -0.6482   -3.3890 H   0  0  0  0  0  0  0  0  0  0  0  0
    0.6630   -1.4006   -2.2360 H   0  0  0  0  0  0  0  0  0  0  0  0
    0.4425    3.0806   -3.3537 H   0  0  0  0  0  0  0  0  0  0  0  0
   -0.8544    2.2381   -2.4731 H   0  0  0  0  0  0  0  0  0  0  0  0
   -0.4584    1.7633   -4.1426 H   0  0  0  0  0  0  0  0  0  0  0  0
   -2.4199    0.9797    0.5983 N   0  0  0  0  0  0  0  0  0  0  0  0
   -3.5103    1.4784    1.4031 C   0  0  2  0  0  0  0  0  0  0  0  0
   -4.8069    1.2312    0.6434 C   0  0  0  0  0  0  0  0  0  0  0  0
   -4.8515    1.0785   -0.5756 O   0  0  0  0  0  0  0  0  0  0  0  0
   -3.3367    2.9566    1.7153 C   0  0  0  0  0  0  0  0  0  0  0  0
   -2.4456    1.1616   -0.4007 H   0  0  0  0  0  0  0  0  0  0  0  0
   -3.5123    0.8943    2.3298 H   0  0  0  0  0  0  0  0  0  0  0  0
   -3.3323    3.5579    0.7989 H   0  0  0  0  0  0  0  0  0  0  0  0
   -4.1493    3.3263    2.3493 H   0  0  0  0  0  0  0  0  0  0  0  0
   -2.3896    3.1364    2.2354 H   0  0  0  0  0  0  0  0  0  0  0  0
   -5.9133    1.2440    1.4812 N   0  0  0  0  0  0  0  0  0  0  0  0
   -7.2597    1.0457    0.9977 C   0  0  0  0  0  0  0  0  0  0  0  0
   -5.7811    1.3588    2.4817 H   0  0  0  0  0  0  0  0  0  0  0  0
   -7.7163    2.0207    0.7724 H   0  0  0  0  0  0  0  0  0  0  0  0
   -7.2347    0.4328    0.0846 H   0  0  0  0  0  0  0  0  0  0  0  0
   -7.8538    0.5320    1.7679 H   0  0  0  0  0  0  0  0  0  0  0  0
  1  3  1  0  0  0  0
  1  7  1  0  0  0  0
  1  2  2  0  0  0  0
 35 36  1  0  0  0  0
 36 44  1  0  0  0  0
 36 37  2  0  0  0  0
  8  9  1  0  0  0  0
  9 17  1  0  0  0  0
  9 10  2  0  0  0  0
 18 19  1  0  0  0  0
 19 34  1  0  0  0  0
 19 20  2  0  0  0  0
 35 38  1  0  0  0  0
  8 11  1  0  0  0  0
 44 45  1  0  0  0  0
 23 24  1  0  0  0  0
 21 22  1  0  0  0  0
 18 21  1  0  0  0  0
 22 23  1  0  0  0  0
 34 35  1  0  0  0  0
  7  8  1  0  0  0  0
 17 18  1  0  0  0  0
  3  4  1  0  0  0  0
  3  5  1  0  0  0  0
  3  6  1  0  0  0  0
 38 41  1  0  0  0  0
 38 42  1  0  0  0  0
 38 43  1  0  0  0  0
 11 14  1  0  0  0  0
 11 15  1  0  0  0  0
 11 16  1  0  0  0  0
 45 47  1  0  0  0  0
 45 48  1  0  0  0  0
 45 49  1  0  0  0  0
 24 31  1  0  0  0  0
 24 32  1  0  0  0  0
 24 33  1  0  0  0  0
 21 27  1  0  0  0  0
 21 28  1  0  0  0  0
 22 29  1  0  0  0  0
 22 30  1  0  0  0  0
 35 40  1  0  0  0  0
  8 13  1  0  0  0  0
 18 26  1  0  0  0  0
 44 46  1  0  0  0  0
  7 12  1  0  0  0  0
 34 39  1  0  0  0  0
 17 25  1  0  0  0  0
M  END
$$$$

  -OEChem-05262214473D

 49 48  0     1  0  0  0  0  0999 V2000
   -0.0561   -5.3799    2.6949 C   0  0  0  0  0  0  0  0  0  0  0  0
    0.7325   -5.0736    3.5815 O   0  0  0  0  0  0  0  0  0  0  0  0
   -1.0067   -6.5099    2.9135 C   0  0  0  0  0  0  0  0  0  0  0  0
   -0.5910   -7.4777    2.5899 H   0  0  0  0  0  0  0  0  0  0  0  0
   -1.2629   -6.6440    3.9767 H   0  0  0  0  0  0  0  0  0  0  0  0
   -1.9729   -6.4206    2.3918 H   0  0  0  0  0  0  0  0  0  0  0  0
   -0.1735   -4.7694    1.4571 N   0  0  0  0  0  0  0  0  0  0  0  0
    0.6439   -3.6603    1.0409 C   0  0  2  0  0  0  0  0  0  0  0  0
   -0.2788   -2.5625    0.5280 C   0  0  0  0  0  0  0  0  0  0  0  0
   -1.4197   -2.7791    0.1251 O   0  0  0  0  0  0  0  0  0  0  0  0
    1.6395   -4.0779   -0.0301 C   0  0  0  0  0  0  0  0  0  0  0  0
   -0.8741   -5.1235    0.8083 H   0  0  0  0  0  0  0  0  0  0  0  0
    1.1738   -3.3062    1.9318 H   0  0  0  0  0  0  0  0  0  0  0  0
    1.1270   -4.4358   -0.9305 H   0  0  0  0  0  0  0  0  0  0  0  0
    2.2797   -3.2400   -0.3251 H   0  0  0  0  0  0  0  0  0  0  0  0
    2.2827   -4.8880    0.3303 H   0  0  0  0  0  0  0  0  0  0  0  0
    0.3351   -1.3153    0.5316 N   0  0  0  0  0  0  0  0  0  0  0  0
   -0.3268   -0.1184    0.0807 C   0  0  2  0  0  0  0  0  0  0  0  0
   -1.3294    0.3182    1.1445 C   0  0  0  0  0  0  0  0  0  0  0  0
   -1.0710    0.3207    2.3464 O   0  0  0  0  0  0  0  0  0  0  0  0
   -0.9671   -0.2972   -1.3027 C   0  0  0  0  0  0  0  0  0  0  0  0
    0.0492   -0.5152   -2.4262 C   0  0  0  0  0  0  0  0  0  0  0  0
    1.1579    0.9181   -2.5696 S   0  0  0  0  0  0  0  0  0  0  0  0
   -0.0432    2.1147   -3.1949 C   0  0  0  0  0  0  0  0  0  0  0  0
    1.2790   -1.2290    0.9021 H   0  0  0  0  0  0  0  0  0  0  0  0
    0.4542    0.6489    0.0160 H   0  0  0  0  0  0  0  0  0  0  0  0
   -1.5676    0.5954   -1.5236 H   0  0  0  0  0  0  0  0  0  0  0  0
   -1.6601   -1.1477   -1.2689 H   0  0  0  0  0  0  0  0  0  0  0  0
   -0.4531   -0.6482   -3.3890 H   0  0  0  0  0  0  0  0  0  0  0  0
    0.6630   -1.4006   -2.2360 H   0  0  0  0  0  0  0  0  0  0  0  0
    0.4425    3.0806   -3.3537 H   0  0  0  0  0  0  0  0  0  0  0  0
   -0.8544    2.2381   -2.4731 H   0  0  0  0  0  0  0  0  0  0  0  0
   -0.4584    1.7633   -4.1426 H   0  0  0  0  0  0  0  0  0  0  0  0
   -2.5543    0.6726    0.5976 N   0  0  0  0  0  0  0  0  0  0  0  0
   -3.6698    1.1082    1.4047 C   0  0  2  0  0  0  0  0  0  0  0  0
   -4.9395    0.5086    0.8149 C   0  0  0  0  0  0  0  0  0  0  0  0
   -5.0259    0.1374   -0.3537 O   0  0  0  0  0  0  0  0  0  0  0  0
   -3.7575    2.6256    1.4545 C   0  0  0  0  0  0  0  0  0  0  0  0
   -2.6720    0.6676   -0.4113 H   0  0  0  0  0  0  0  0  0  0  0  0
   -3.5084    0.7060    2.4108 H   0  0  0  0  0  0  0  0  0  0  0  0
   -3.9191    3.0468    0.4555 H   0  0  0  0  0  0  0  0  0  0  0  0
   -4.5865    2.9545    2.0899 H   0  0  0  0  0  0  0  0  0  0  0  0
   -2.8320    3.0567    1.8512 H   0  0  0  0  0  0  0  0  0  0  0  0
   -5.9779    0.4767    1.7352 N   0  0  0  0  0  0  0  0  0  0  0  0
   -7.2894   -0.0353    1.4134 C   0  0  0  0  0  0  0  0  0  0  0  0
   -5.8112    0.7879    2.6877 H   0  0  0  0  0  0  0  0  0  0  0  0
   -7.9326    0.7898    1.0737 H   0  0  0  0  0  0  0  0  0  0  0  0
   -7.2038   -0.7862    0.6141 H   0  0  0  0  0  0  0  0  0  0  0  0
   -7.7310   -0.5001    2.3072 H   0  0  0  0  0  0  0  0  0  0  0  0
  1  3  1  0  0  0  0
  1  7  1  0  0  0  0
  1  2  2  0  0  0  0
 35 36  1  0  0  0  0
 36 44  1  0  0  0  0
 36 37  2  0  0  0  0
  8  9  1  0  0  0  0
  9 17  1  0  0  0  0
  9 10  2  0  0  0  0
 18 19  1  0  0  0  0
 19 34  1  0  0  0  0
 19 20  2  0  0  0  0
 35 38  1  0  0  0  0
  8 11  1  0  0  0  0
 44 45  1  0  0  0  0
 23 24  1  0  0  0  0
 21 22  1  0  0  0  0
 18 21  1  0  0  0  0
 22 23  1  0  0  0  0
 34 35  1  0  0  0  0
  7  8  1  0  0  0  0
 17 18  1  0  0  0  0
  3  4  1  0  0  0  0
  3  5  1  0  0  0  0
  3  6  1  0  0  0  0
 38 41  1  0  0  0  0
 38 42  1  0  0  0  0
 38 43  1  0  0  0  0
 11 14  1  0  0  0  0
 11 15  1  0  0  0  0
 11 16  1  0  0  0  0
 45 47  1  0  0  0  0
 45 48  1  0  0  0  0
 45 49  1  0  0  0  0
 24 31  1  0  0  0  0
 24 32  1  0  0  0  0
 24 33  1  0  0  0  0
 21 27  1  0  0  0  0
 21 28  1  0  0  0  0
 22 29  1  0  0  0  0
 22 30  1  0  0  0  0
 35 40  1  0  0  0  0
  8 13  1  0  0  0  0
 18 26  1  0  0  0  0
 44 46  1  0  0  0  0
  7 12  1  0  0  0  0
 34 39  1  0  0  0  0
 17 25  1  0  0  0  0
M  END
$$$$

  -OEChem-05262214473D

 49 48  0     1  0  0  0  0  0999 V2000
   -0.0561   -5.3799    2.6949 C   0  0  0  0  0  0  0  0  0  0  0  0
    0.7325   -5.0736    3.5815 O   0  0  0  0  0  0  0  0  0  0  0  0
   -1.0067   -6.5099    2.9135 C   0  0  0  0  0  0  0  0  0  0  0  0
   -0.5910   -7.4777    2.5899 H   0  0  0  0  0  0  0  0  0  0  0  0
   -1.2629   -6.6440    3.9767 H   0  0  0  0  0  0  0  0  0  0  0  0
   -1.9729   -6.4206    2.3918 H   0  0  0  0  0  0  0  0  0  0  0  0
   -0.1735   -4.7694    1.4571 N   0  0  0  0  0  0  0  0  0  0  0  0
    0.6439   -3.6603    1.0409 C   0  0  2  0  0  0  0  0  0  0  0  0
   -0.2788   -2.5625    0.5280 C   0  0  0  0  0  0  0  0  0  0  0  0
   -1.4197   -2.7791    0.1251 O   0  0  0  0  0  0  0  0  0  0  0  0
    1.6395   -4.0779   -0.0301 C   0  0  0  0  0  0  0  0  0  0  0  0
   -0.8741   -5.1235    0.8083 H   0  0  0  0  0  0  0  0  0  0  0  0
    1.1738   -3.3062    1.9318 H   0  0  0  0  0  0  0  0  0  0  0  0
    1.1270   -4.4358   -0.9305 H   0  0  0  0  0  0  0  0  0  0  0  0
    2.2797   -3.2400   -0.3251 H   0  0  0  0  0  0  0  0  0  0  0  0
    2.2827   -4.8880    0.3303 H   0  0  0  0  0  0  0  0  0  0  0  0
    0.3351   -1.3153    0.5316 N   0  0  0  0  0  0  0  0  0  0  0  0
   -0.3268   -0.1184    0.0807 C   0  0  2  0  0  0  0  0  0  0  0  0
   -1.3294    0.3182    1.1445 C   0  0  0  0  0  0  0  0  0  0  0  0
   -1.0062    0.5782    2.3018 O   0  0  0  0  0  0  0  0  0  0  0  0
   -0.9671   -0.2972   -1.3027 C   0  0  0  0  0  0  0  0  0  0  0  0
    0.0492   -0.5152   -2.4262 C   0  0  0  0  0  0  0  0  0  0  0  0
    1.1579    0.9181   -2.5696 S   0  0  0  0  0  0  0  0  0  0  0  0
   -0.0432    2.1147   -3.1949 C   0  0  0  0  0  0  0  0  0  0  0  0
    1.2790   -1.2290    0.9021 H   0  0  0  0  0  0  0  0  0  0  0  0
    0.4542    0.6489    0.0160 H   0  0  0  0  0  0  0  0  0  0  0  0
   -1.5676    0.5954   -1.5236 H   0  0  0  0  0  0  0  0  0  0  0  0
   -1.6601   -1.1477   -1.2689 H   0  0  0  0  0  0  0  0  0  0  0  0
   -0.4531   -0.6482   -3.3890 H   0  0  0  0  0  0  0  0  0  0  0  0
    0.6630   -1.4006   -2.2360 H   0  0  0  0  0  0  0  0  0  0  0  0
    0.4425    3.0806   -3.3537 H   0  0  0  0  0  0  0  0  0  0  0  0
   -0.8544    2.2381   -2.4731 H   0  0  0  0  0  0  0  0  0  0  0  0
   -0.4584    1.7633   -4.1426 H   0  0  0  0  0  0  0  0  0  0  0  0
   -2.6288    0.3516    0.6591 N   0  0  0  0  0  0  0  0  0  0  0  0
   -3.7569    0.7221    1.4810 C   0  0  2  0  0  0  0  0  0  0  0  0
   -4.9245   -0.1840    1.1134 C   0  0  0  0  0  0  0  0  0  0  0  0
   -5.0082   -0.7654    0.0335 O   0  0  0  0  0  0  0  0  0  0  0  0
   -4.1236    2.1856    1.2901 C   0  0  0  0  0  0  0  0  0  0  0  0
   -2.8022    0.1477   -0.3207 H   0  0  0  0  0  0  0  0  0  0  0  0
   -3.4647    0.5385    2.5207 H   0  0  0  0  0  0  0  0  0  0  0  0
   -4.4192    2.3888    0.2543 H   0  0  0  0  0  0  0  0  0  0  0  0
   -4.9608    2.4723    1.9350 H   0  0  0  0  0  0  0  0  0  0  0  0
   -3.2734    2.8345    1.5264 H   0  0  0  0  0  0  0  0  0  0  0  0
   -5.8830   -0.2329    2.1159 N   0  0  0  0  0  0  0  0  0  0  0  0
   -7.0923   -1.0142    2.0009 C   0  0  0  0  0  0  0  0  0  0  0  0
   -5.7220    0.2660    2.9859 H   0  0  0  0  0  0  0  0  0  0  0  0
   -7.8971   -0.3868    1.5901 H   0  0  0  0  0  0  0  0  0  0  0  0
   -6.9147   -1.8680    1.3305 H   0  0  0  0  0  0  0  0  0  0  0  0
   -7.3861   -1.3831    2.9946 H   0  0  0  0  0  0  0  0  0  0  0  0
  1  3  1  0  0  0  0
  1  7  1  0  0  0  0
  1  2  2  0  0  0  0
 35 36  1  0  0  0  0
 36 44  1  0  0  0  0
 36 37  2  0  0  0  0
  8  9  1  0  0  0  0
  9 17  1  0  0  0  0
  9 10  2  0  0  0  0
 18 19  1  0  0  0  0
 19 34  1  0  0  0  0
 19 20  2  0  0  0  0
 35 38  1  0  0  0  0
  8 11  1  0  0  0  0
 44 45  1  0  0  0  0
 23 24  1  0  0  0  0
 21 22  1  0  0  0  0
 18 21  1  0  0  0  0
 22 23  1  0  0  0  0
 34 35  1  0  0  0  0
  7  8  1  0  0  0  0
 17 18  1  0  0  0  0
  3  4  1  0  0  0  0
  3  5  1  0  0  0  0
  3  6  1  0  0  0  0
 38 41  1  0  0  0  0
 38 42  1  0  0  0  0
 38 43  1  0  0  0  0
 11 14  1  0  0  0  0
 11 15  1  0  0  0  0
 11 16  1  0  0  0  0
 45 47  1  0  0  0  0
 45 48  1  0  0  0  0
 45 49  1  0  0  0  0
 24 31  1  0  0  0  0
 24 32  1  0  0  0  0
 24 33  1  0  0  0  0
 21 27  1  0  0  0  0
 21 28  1  0  0  0  0
 22 29  1  0  0  0  0
 22 30  1  0  0  0  0
 35 40  1  0  0  0  0
  8 13  1  0  0  0  0
 18 26  1  0  0  0  0
 44 46  1  0  0  0  0
  7 12  1  0  0  0  0
 34 39  1  0  0  0  0
 17 25  1  0  0  0  0
M  END
$$$$

  -OEChem-05262214473D

 49 48  0     1  0  0  0  0  0999 V2000
   -0.0561   -5.3799    2.6949 C   0  0  0  0  0  0  0  0  0  0  0  0
    0.7325   -5.0736    3.5815 O   0  0  0  0  0  0  0  0  0  0  0  0
   -1.0067   -6.5099    2.9135 C   0  0  0  0  0  0  0  0  0  0  0  0
   -0.5910   -7.4777    2.5899 H   0  0  0  0  0  0  0  0  0  0  0  0
   -1.2629   -6.6440    3.9767 H   0  0  0  0  0  0  0  0  0  0  0  0
   -1.9729   -6.4206    2.3918 H   0  0  0  0  0  0  0  0  0  0  0  0
   -0.1735   -4.7694    1.4571 N   0  0  0  0  0  0  0  0  0  0  0  0
    0.6439   -3.6603    1.0409 C   0  0  2  0  0  0  0  0  0  0  0  0
   -0.2788   -2.5625    0.5280 C   0  0  0  0  0  0  0  0  0  0  0  0
   -1.4197   -2.7791    0.1251 O   0  0  0  0  0  0  0  0  0  0  0  0
    1.6395   -4.0779   -0.0301 C   0  0  0  0  0  0  0  0  0  0  0  0
   -0.8741   -5.1235    0.8083 H   0  0  0  0  0  0  0  0  0  0  0  0
    1.1738   -3.3062    1.9318 H   0  0  0  0  0  0  0  0  0  0  0  0
    1.1270   -4.4358   -0.9305 H   0  0  0  0  0  0  0  0  0  0  0  0
    2.2797   -3.2400   -0.3251 H   0  0  0  0  0  0  0  0  0  0  0  0
    2.2827   -4.8880    0.3303 H   0  0  0  0  0  0  0  0  0  0  0  0
    0.3351   -1.3153    0.5316 N   0  0  0  0  0  0  0  0  0  0  0  0
   -0.3268   -0.1184    0.0807 C   0  0  2  0  0  0  0  0  0  0  0  0
   -1.3294    0.3182    1.1445 C   0  0  0  0  0  0  0  0  0  0  0  0
   -0.9934    0.8311    2.2100 O   0  0  0  0  0  0  0  0  0  0  0  0
   -0.9671   -0.2972   -1.3027 C   0  0  0  0  0  0  0  0  0  0  0  0
    0.0492   -0.5152   -2.4262 C   0  0  0  0  0  0  0  0  0  0  0  0
    1.1579    0.9181   -2.5696 S   0  0  0  0  0  0  0  0  0  0  0  0
   -0.0432    2.1147   -3.1949 C   0  0  0  0  0  0  0  0  0  0  0  0
    1.2790   -1.2290    0.9021 H   0  0  0  0  0  0  0  0  0  0  0  0
    0.4542    0.6489    0.0160 H   0  0  0  0  0  0  0  0  0  0  0  0
   -1.5676    0.5954   -1.5236 H   0  0  0  0  0  0  0  0  0  0  0  0
   -1.6601   -1.1477   -1.2689 H   0  0  0  0  0  0  0  0  0  0  0  0
   -0.4531   -0.6482   -3.3890 H   0  0  0  0  0  0  0  0  0  0  0  0
    0.6630   -1.4006   -2.2360 H   0  0  0  0  0  0  0  0  0  0  0  0
    0.4425    3.0806   -3.3537 H   0  0  0  0  0  0  0  0  0  0  0  0
   -0.8544    2.2381   -2.4731 H   0  0  0  0  0  0  0  0  0  0  0  0
   -0.4584    1.7633   -4.1426 H   0  0  0  0  0  0  0  0  0  0  0  0
   -2.6383    0.0385    0.7787 N   0  0  0  0  0  0  0  0  0  0  0  0
   -3.7658    0.3465    1.6269 C   0  0  2  0  0  0  0  0  0  0  0  0
   -4.7628   -0.7996    1.5183 C   0  0  0  0  0  0  0  0  0  0  0  0
   -4.7994   -1.5684    0.5599 O   0  0  0  0  0  0  0  0  0  0  0  0
   -4.4100    1.6666    1.2332 C   0  0  0  0  0  0  0  0  0  0  0  0
   -2.8275   -0.3625   -0.1351 H   0  0  0  0  0  0  0  0  0  0  0  0
   -3.3841    0.4034    2.6521 H   0  0  0  0  0  0  0  0  0  0  0  0
   -4.7984    1.6287    0.2089 H   0  0  0  0  0  0  0  0  0  0  0  0
   -5.2469    1.9126    1.8951 H   0  0  0  0  0  0  0  0  0  0  0  0
   -3.6836    2.4849    1.2832 H   0  0  0  0  0  0  0  0  0  0  0  0
   -5.6351   -0.8365    2.5972 N   0  0  0  0  0  0  0  0  0  0  0  0
   -6.6817   -1.8241    2.7203 C   0  0  0  0  0  0  0  0  0  0  0  0
   -5.5196   -0.1712    3.3561 H   0  0  0  0  0  0  0  0  0  0  0  0
   -7.6121   -1.4292    2.2864 H   0  0  0  0  0  0  0  0  0  0  0  0
   -6.3871   -2.7389    2.1851 H   0  0  0  0  0  0  0  0  0  0  0  0
   -6.8428   -2.0569    3.7832 H   0  0  0  0  0  0  0  0  0  0  0  0
  1  3  1  0  0  0  0
  1  7  1  0  0  0  0
  1  2  2  0  0  0  0
 35 36  1  0  0  0  0
 36 44  1  0  0  0  0
 36 37  2  0  0  0  0
  8  9  1  0  0  0  0
  9 17  1  0  0  0  0
  9 10  2  0  0  0  0
 18 19  1  0  0  0  0
 19 34  1  0  0  0  0
 19 20  2  0  0  0  0
 35 38  1  0  0  0  0
  8 11  1  0  0  0  0
 44 45  1  0  0  0  0
 23 24  1  0  0  0  0
 21 22  1  0  0  0  0
 18 21  1  0  0  0  0
 22 23  1  0  0  0  0
 34 35  1  0  0  0  0
  7  8  1  0  0  0  0
 17 18  1  0  0  0  0
  3  4  1  0  0  0  0
  3  5  1  0  0  0  0
  3  6  1  0  0  0  0
 38 41  1  0  0  0  0
 38 42  1  0  0  0  0
 38 43  1  0  0  0  0
 11 14  1  0  0  0  0
 11 15  1  0  0  0  0
 11 16  1  0  0  0  0
 45 47  1  0  0  0  0
 45 48  1  0  0  0  0
 45 49  1  0  0  0  0
 24 31  1  0  0  0  0
 24 32  1  0  0  0  0
 24 33  1  0  0  0  0
 21 27  1  0  0  0  0
 21 28  1  0  0  0  0
 22 29  1  0  0  0  0
 22 30  1  0  0  0  0
 35 40  1  0  0  0  0
  8 13  1  0  0  0  0
 18 26  1  0  0  0  0
 44 46  1  0  0  0  0
  7 12  1  0  0  0  0
 34 39  1  0  0  0  0
 17 25  1  0  0  0  0
M  END
$$$$

  -OEChem-05262214473D

 49 48  0     1  0  0  0  0  0999 V2000
   -0.0561   -5.3799    2.6949 C   0  0  0  0  0  0  0  0  0  0  0  0
    0.7325   -5.0736    3.5815 O   0  0  0  0  0  0  0  0  0  0  0  0
   -1.0067   -6.5099    2.9135 C   0  0  0  0  0  0  0  0  0  0  0  0
   -0.5910   -7.4777    2.5899 H   0  0  0  0  0  0  0  0  0  0  0  0
   -1.2629   -6.6440    3.9767 H   0  0  0  0  0  0  0  0  0  0  0  0
   -1.9729   -6.4206    2.3918 H   0  0  0  0  0  0  0  0  0  0  0  0
   -0.1735   -4.7694    1.4571 N   0  0  0  0  0  0  0  0  0  0  0  0
    0.6439   -3.6603    1.0409 C   0  0  2  0  0  0  0  0  0  0  0  0
   -0.2788   -2.5625    0.5280 C   0  0  0  0  0  0  0  0  0  0  0  0
   -1.4197   -2.7791    0.1251 O   0  0  0  0  0  0  0  0  0  0  0  0
    1.6395   -4.0779   -0.0301 C   0  0  0  0  0  0  0  0  0  0  0  0
   -0.8741   -5.1235    0.8083 H   0  0  0  0  0  0  0  0  0  0  0  0
    1.1738   -3.3062    1.9318 H   0  0  0  0  0  0  0  0  0  0  0  0
    1.1270   -4.4358   -0.9305 H   0  0  0  0  0  0  0  0  0  0  0  0
    2.2797   -3.2400   -0.3251 H   0  0  0  0  0  0  0  0  0  0  0  0
    2.2827   -4.8880    0.3303 H   0  0  0  0  0  0  0  0  0  0  0  0
    0.3351   -1.3153    0.5316 N   0  0  0  0  0  0  0  0  0  0  0  0
   -0.3268   -0.1184    0.0807 C   0  0  2  0  0  0  0  0  0  0  0  0
   -1.3294    0.3182    1.1445 C   0  0  0  0  0  0  0  0  0  0  0  0
   -1.0335    1.0620    2.0775 O   0  0  0  0  0  0  0  0  0  0  0  0
   -0.9671   -0.2972   -1.3027 C   0  0  0  0  0  0  0  0  0  0  0  0
    0.0492   -0.5152   -2.4262 C   0  0  0  0  0  0  0  0  0  0  0  0
    1.1579    0.9181   -2.5696 S   0  0  0  0  0  0  0  0  0  0  0  0
   -0.0432    2.1147   -3.1949 C   0  0  0  0  0  0  0  0  0  0  0  0
    1.2790   -1.2290    0.9021 H   0  0  0  0  0  0  0  0  0  0  0  0
    0.4542    0.6489    0.0160 H   0  0  0  0  0  0  0  0  0  0  0  0
   -1.5676    0.5954   -1.5236 H   0  0  0  0  0  0  0  0  0  0  0  0
   -1.6601   -1.1477   -1.2689 H   0  0  0  0  0  0  0  0  0  0  0  0
   -0.4531   -0.6482   -3.3890 H   0  0  0  0  0  0  0  0  0  0  0  0
    0.6630   -1.4006   -2.2360 H   0  0  0  0  0  0  0  0  0  0  0  0
    0.4425    3.0806   -3.3537 H   0  0  0  0  0  0  0  0  0  0  0  0
   -0.8544    2.2381   -2.4731 H   0  0  0  0  0  0  0  0  0  0  0  0
   -0.4584    1.7633   -4.1426 H   0  0  0  0  0  0  0  0  0  0  0  0
   -2.5820   -0.2453    0.9482 N   0  0  0  0  0  0  0  0  0  0  0  0
   -3.6957    0.0068    1.8323 C   0  0  2  0  0  0  0  0  0  0  0  0
   -4.4656   -1.2962    2.0022 C   0  0  0  0  0  0  0  0  0  0  0  0
   -4.4138   -2.2168    1.1894 O   0  0  0  0  0  0  0  0  0  0  0  0
   -4.5972    1.1038    1.2877 C   0  0  0  0  0  0  0  0  0  0  0  0
   -2.7461   -0.8283    0.1328 H   0  0  0  0  0  0  0  0  0  0  0  0
   -3.2721    0.3098    2.7961 H   0  0  0  0  0  0  0  0  0  0  0  0
   -5.0308    0.8184    0.3224 H   0  0  0  0  0  0  0  0  0  0  0  0
   -5.4251    1.3136    1.9729 H   0  0  0  0  0  0  0  0  0  0  0  0
   -4.0349    2.0319    1.1381 H   0  0  0  0  0  0  0  0  0  0  0  0
   -5.2510   -1.2928    3.1465 N   0  0  0  0  0  0  0  0  0  0  0  0
   -6.0856   -2.4100    3.5225 C   0  0  0  0  0  0  0  0  0  0  0  0
   -5.2177   -0.4941    3.7731 H   0  0  0  0  0  0  0  0  0  0  0  0
   -7.0972   -2.2661    3.1152 H   0  0  0  0  0  0  0  0  0  0  0  0
   -5.6570   -3.3396    3.1197 H   0  0  0  0  0  0  0  0  0  0  0  0
   -6.1380   -2.4756    4.6193 H   0  0  0  0  0  0  0  0  0  0  0  0
  1  3  1  0  0  0  0
  1  7  1  0  0  0  0
  1  2  2  0  0  0  0
 35 36  1  0  0  0  0
 36 44  1  0  0  0  0
 36 37  2  0  0  0  0
  8  9  1  0  0  0  0
  9 17  1  0  0  0  0
  9 10  2  0  0  0  0
 18 19  1  0  0  0  0
 19 34  1  0  0  0  0
 19 20  2  0  0  0  0
 35 38  1  0  0  0  0
  8 11  1  0  0  0  0
 44 45  1  0  0  0  0
 23 24  1  0  0  0  0
 21 22  1  0  0  0  0
 18 21  1  0  0  0  0
 22 23  1  0  0  0  0
 34 35  1  0  0  0  0
  7  8  1  0  0  0  0
 17 18  1  0  0  0  0
  3  4  1  0  0  0  0
  3  5  1  0  0  0  0
  3  6  1  0  0  0  0
 38 41  1  0  0  0  0
 38 42  1  0  0  0  0
 38 43  1  0  0  0  0
 11 14  1  0  0  0  0
 11 15  1  0  0  0  0
 11 16  1  0  0  0  0
 45 47  1  0  0  0  0
 45 48  1  0  0  0  0
 45 49  1  0  0  0  0
 24 31  1  0  0  0  0
 24 32  1  0  0  0  0
 24 33  1  0  0  0  0
 21 27  1  0  0  0  0
 21 28  1  0  0  0  0
 22 29  1  0  0  0  0
 22 30  1  0  0  0  0
 35 40  1  0  0  0  0
  8 13  1  0  0  0  0
 18 26  1  0  0  0  0
 44 46  1  0  0  0  0
  7 12  1  0  0  0  0
 34 39  1  0  0  0  0
 17 25  1  0  0  0  0
M  END
$$$$

  -OEChem-05262214473D

 49 48  0     1  0  0  0  0  0999 V2000
   -0.0561   -5.3799    2.6949 C   0  0  0  0  0  0  0  0  0  0  0  0
    0.7325   -5.0736    3.5815 O   0  0  0  0  0  0  0  0  0  0  0  0
   -1.0067   -6.5099    2.9135 C   0  0  0  0  0  0  0  0  0  0  0  0
   -0.5910   -7.4777    2.5899 H   0  0  0  0  0  0  0  0  0  0  0  0
   -1.2629   -6.6440    3.9767 H   0  0  0  0  0  0  0  0  0  0  0  0
   -1.9729   -6.4206    2.3918 H   0  0  0  0  0  0  0  0  0  0  0  0
   -0.1735   -4.7694    1.4571 N   0  0  0  0  0  0  0  0  0  0  0  0
    0.6439   -3.6603    1.0409 C   0  0  2  0  0  0  0  0  0  0  0  0
   -0.2788   -2.5625    0.5280 C   0  0  0  0  0  0  0  0  0  0  0  0
   -1.4197   -2.7791    0.1251 O   0  0  0  0  0  0  0  0  0  0  0  0
    1.6395   -4.0779   -0.0301 C   0  0  0  0  0  0  0  0  0  0  0  0
   -0.8741   -5.1235    0.8083 H   0  0  0  0  0  0  0  0  0  0  0  0
    1.1738   -3.3062    1.9318 H   0  0  0  0  0  0  0  0  0  0  0  0
    1.1270   -4.4358   -0.9305 H   0  0  0  0  0  0  0  0  0  0  0  0
    2.2797   -3.2400   -0.3251 H   0  0  0  0  0  0  0  0  0  0  0  0
    2.2827   -4.8880    0.3303 H   0  0  0  0  0  0  0  0  0  0  0  0
    0.3351   -1.3153    0.5316 N   0  0  0  0  0  0  0  0  0  0  0  0
   -0.3268   -0.1184    0.0807 C   0  0  2  0  0  0  0  0  0  0  0  0
   -1.3294    0.3182    1.1445 C   0  0  0  0  0  0  0  0  0  0  0  0
   -1.1237    1.2553    1.9132 O   0  0  0  0  0  0  0  0  0  0  0  0
   -0.9671   -0.2972   -1.3027 C   0  0  0  0  0  0  0  0  0  0  0  0
    0.0492   -0.5152   -2.4262 C   0  0  0  0  0  0  0  0  0  0  0  0
    1.1579    0.9181   -2.5696 S   0  0  0  0  0  0  0  0  0  0  0  0
   -0.0432    2.1147   -3.1949 C   0  0  0  0  0  0  0  0  0  0  0  0
    1.2790   -1.2290    0.9021 H   0  0  0  0  0  0  0  0  0  0  0  0
    0.4542    0.6489    0.0160 H   0  0  0  0  0  0  0  0  0  0  0  0
   -1.5676    0.5954   -1.5236 H   0  0  0  0  0  0  0  0  0  0  0  0
   -1.6601   -1.1477   -1.2689 H   0  0  0  0  0  0  0  0  0  0  0  0
   -0.4531   -0.6482   -3.3890 H   0  0  0  0  0  0  0  0  0  0  0  0
    0.6630   -1.4006   -2.2360 H   0  0  0  0  0  0  0  0  0  0  0  0
    0.4425    3.0806   -3.3537 H   0  0  0  0  0  0  0  0  0  0  0  0
   -0.8544    2.2381   -2.4731 H   0  0  0  0  0  0  0  0  0  0  0  0
   -0.4584    1.7633   -4.1426 H   0  0  0  0  0  0  0  0  0  0  0  0
   -2.4639   -0.4804    1.1560 N   0  0  0  0  0  0  0  0  0  0  0  0
   -3.5515   -0.2737    2.0833 C   0  0  2  0  0  0  0  0  0  0  0  0
   -4.0531   -1.6398    2.5321 C   0  0  0  0  0  0  0  0  0  0  0  0
   -3.8777   -2.6665    1.8791 O   0  0  0  0  0  0  0  0  0  0  0  0
   -4.6724    0.5358    1.4500 C   0  0  0  0  0  0  0  0  0  0  0  0
   -2.5635   -1.2180    0.4648 H   0  0  0  0  0  0  0  0  0  0  0  0
   -3.1364    0.2640    2.9428 H   0  0  0  0  0  0  0  0  0  0  0  0
   -5.1007    0.0130    0.5870 H   0  0  0  0  0  0  0  0  0  0  0  0
   -5.4835    0.7161    2.1632 H   0  0  0  0  0  0  0  0  0  0  0  0
   -4.3032    1.5062    1.1010 H   0  0  0  0  0  0  0  0  0  0  0  0
   -4.7570   -1.5709    3.7262 N   0  0  0  0  0  0  0  0  0  0  0  0
   -5.3446   -2.7319    4.3529 C   0  0  0  0  0  0  0  0  0  0  0  0
   -4.8370   -0.6805    4.2084 H   0  0  0  0  0  0  0  0  0  0  0  0
   -6.3874   -2.8407    4.0200 H   0  0  0  0  0  0  0  0  0  0  0  0
   -4.7742   -3.6291    4.0705 H   0  0  0  0  0  0  0  0  0  0  0  0
   -5.3197   -2.6105    5.4459 H   0  0  0  0  0  0  0  0  0  0  0  0
  1  3  1  0  0  0  0
  1  7  1  0  0  0  0
  1  2  2  0  0  0  0
 35 36  1  0  0  0  0
 36 44  1  0  0  0  0
 36 37  2  0  0  0  0
  8  9  1  0  0  0  0
  9 17  1  0  0  0  0
  9 10  2  0  0  0  0
 18 19  1  0  0  0  0
 19 34  1  0  0  0  0
 19 20  2  0  0  0  0
 35 38  1  0  0  0  0
  8 11  1  0  0  0  0
 44 45  1  0  0  0  0
 23 24  1  0  0  0  0
 21 22  1  0  0  0  0
 18 21  1  0  0  0  0
 22 23  1  0  0  0  0
 34 35  1  0  0  0  0
  7  8  1  0  0  0  0
 17 18  1  0  0  0  0
  3  4  1  0  0  0  0
  3  5  1  0  0  0  0
  3  6  1  0  0  0  0
 38 41  1  0  0  0  0
 38 42  1  0  0  0  0
 38 43  1  0  0  0  0
 11 14  1  0  0  0  0
 11 15  1  0  0  0  0
 11 16  1  0  0  0  0
 45 47  1  0  0  0  0
 45 48  1  0  0  0  0
 45 49  1  0  0  0  0
 24 31  1  0  0  0  0
 24 32  1  0  0  0  0
 24 33  1  0  0  0  0
 21 27  1  0  0  0  0
 21 28  1  0  0  0  0
 22 29  1  0  0  0  0
 22 30  1  0  0  0  0
 35 40  1  0  0  0  0
  8 13  1  0  0  0  0
 18 26  1  0  0  0  0
 44 46  1  0  0  0  0
  7 12  1  0  0  0  0
 34 39  1  0  0  0  0
 17 25  1  0  0  0  0
M  END
$$$$

  -OEChem-05262214473D

 49 48  0     1  0  0  0  0  0999 V2000
   -0.0561   -5.3799    2.6949 C   0  0  0  0  0  0  0  0  0  0  0  0
    0.7325   -5.0736    3.5815 O   0  0  0  0  0  0  0  0  0  0  0  0
   -1.0067   -6.5099    2.9135 C   0  0  0  0  0  0  0  0  0  0  0  0
   -0.5910   -7.4777    2.5899 H   0  0  0  0  0  0  0  0  0  0  0  0
   -1.2629   -6.6440    3.9767 H   0  0  0  0  0  0  0  0  0  0  0  0
   -1.9729   -6.4206    2.3918 H   0  0  0  0  0  0  0  0  0  0  0  0
   -0.1735   -4.7694    1.4571 N   0  0  0  0  0  0  0  0  0  0  0  0
    0.6439   -3.6603    1.0409 C   0  0  2  0  0  0  0  0  0  0  0  0
   -0.2788   -2.5625    0.5280 C   0  0  0  0  0  0  0  0  0  0  0  0
   -1.4197   -2.7791    0.1251 O   0  0  0  0  0  0  0  0  0  0  0  0
    1.6395   -4.0779   -0.0301 C   0  0  0  0  0  0  0  0  0  0  0  0
   -0.8741   -5.1235    0.8083 H   0  0  0  0  0  0  0  0  0  0  0  0
    1.1738   -3.3062    1.9318 H   0  0  0  0  0  0  0  0  0  0  0  0
    1.1270   -4.4358   -0.9305 H   0  0  0  0  0  0  0  0  0  0  0  0
    2.2797   -3.2400   -0.3251 H   0  0  0  0  0  0  0  0  0  0  0  0
    2.2827   -4.8880    0.3303 H   0  0  0  0  0  0  0  0  0  0  0  0
    0.3351   -1.3153    0.5316 N   0  0  0  0  0  0  0  0  0  0  0  0
   -0.3268   -0.1184    0.0807 C   0  0  2  0  0  0  0  0  0  0  0  0
   -1.3294    0.3182    1.1445 C   0  0  0  0  0  0  0  0  0  0  0  0
   -1.2578    1.3977    1.7283 O   0  0  0  0  0  0  0  0  0  0  0  0
   -0.9671   -0.2972   -1.3027 C   0  0  0  0  0  0  0  0  0  0  0  0
    0.0492   -0.5152   -2.4262 C   0  0  0  0  0  0  0  0  0  0  0  0
    1.1579    0.9181   -2.5696 S   0  0  0  0  0  0  0  0  0  0  0  0
   -0.0432    2.1147   -3.1949 C   0  0  0  0  0  0  0  0  0  0  0  0
    1.2790   -1.2290    0.9021 H   0  0  0  0  0  0  0  0  0  0  0  0
    0.4542    0.6489    0.0160 H   0  0  0  0  0  0  0  0  0  0  0  0
   -1.5676    0.5954   -1.5236 H   0  0  0  0  0  0  0  0  0  0  0  0
   -1.6601   -1.1477   -1.2689 H   0  0  0  0  0  0  0  0  0  0  0  0
   -0.4531   -0.6482   -3.3890 H   0  0  0  0  0  0  0  0  0  0  0  0
    0.6630   -1.4006   -2.2360 H   0  0  0  0  0  0  0  0  0  0  0  0
    0.4425    3.0806   -3.3537 H   0  0  0  0  0  0  0  0  0  0  0  0
   -0.8544    2.2381   -2.4731 H   0  0  0  0  0  0  0  0  0  0  0  0
   -0.4584    1.7633   -4.1426 H   0  0  0  0  0  0  0  0  0  0  0  0
   -2.2920   -0.6509    1.3879 N   0  0  0  0  0  0  0  0  0  0  0  0
   -3.3430   -0.4759    2.3628 C   0  0  2  0  0  0  0  0  0  0  0  0
   -3.5533   -1.8073    3.0718 C   0  0  0  0  0  0  0  0  0  0  0  0
   -3.2277   -2.8867    2.5822 O   0  0  0  0  0  0  0  0  0  0  0  0
   -4.6305    0.0011    1.7089 C   0  0  0  0  0  0  0  0  0  0  0  0
   -2.2923   -1.5050    0.8382 H   0  0  0  0  0  0  0  0  0  0  0  0
   -2.9861    0.2693    3.0822 H   0  0  0  0  0  0  0  0  0  0  0  0
   -5.0033   -0.7325    0.9848 H   0  0  0  0  0  0  0  0  0  0  0  0
   -5.4179    0.1607    2.4529 H   0  0  0  0  0  0  0  0  0  0  0  0
   -4.4701    0.9437    1.1744 H   0  0  0  0  0  0  0  0  0  0  0  0
   -4.1867   -1.6518    4.2969 N   0  0  0  0  0  0  0  0  0  0  0  0
   -4.5094   -2.7679    5.1549 C   0  0  0  0  0  0  0  0  0  0  0  0
   -4.4033   -0.7179    4.6324 H   0  0  0  0  0  0  0  0  0  0  0  0
   -5.5311   -3.1137    4.9390 H   0  0  0  0  0  0  0  0  0  0  0  0
   -3.7988   -3.5876    4.9728 H   0  0  0  0  0  0  0  0  0  0  0  0
   -4.4437   -2.4526    6.2067 H   0  0  0  0  0  0  0  0  0  0  0  0
  1  3  1  0  0  0  0
  1  7  1  0  0  0  0
  1  2  2  0  0  0  0
 35 36  1  0  0  0  0
 36 44  1  0  0  0  0
 36 37  2  0  0  0  0
  8  9  1  0  0  0  0
  9 17  1  0  0  0  0
  9 10  2  0  0  0  0
 18 19  1  0  0  0  0
 19 34  1  0  0  0  0
 19 20  2  0  0  0  0
 35 38  1  0  0  0  0
  8 11  1  0  0  0  0
 44 45  1  0  0  0  0
 23 24  1  0  0  0  0
 21 22  1  0  0  0  0
 18 21  1  0  0  0  0
 22 23  1  0  0  0  0
 34 35  1  0  0  0  0
  7  8  1  0  0  0  0
 17 18  1  0  0  0  0
  3  4  1  0  0  0  0
  3  5  1  0  0  0  0
  3  6  1  0  0  0  0
 38 41  1  0  0  0  0
 38 42  1  0  0  0  0
 38 43  1  0  0  0  0
 11 14  1  0  0  0  0
 11 15  1  0  0  0  0
 11 16  1  0  0  0  0
 45 47  1  0  0  0  0
 45 48  1  0  0  0  0
 45 49  1  0  0  0  0
 24 31  1  0  0  0  0
 24 32  1  0  0  0  0
 24 33  1  0  0  0  0
 21 27  1  0  0  0  0
 21 28  1  0  0  0  0
 22 29  1  0  0  0  0
 22 30  1  0  0  0  0
 35 40  1  0  0  0  0
  8 13  1  0  0  0  0
 18 26  1  0  0  0  0
 44 46  1  0  0  0  0
  7 12  1  0  0  0  0
 34 39  1  0  0  0  0
 17 25  1  0  0  0  0
M  END
$$$$

  -OEChem-05262214473D

 49 48  0     1  0  0  0  0  0999 V2000
   -0.0561   -5.3799    2.6949 C   0  0  0  0  0  0  0  0  0  0  0  0
    0.7325   -5.0736    3.5815 O   0  0  0  0  0  0  0  0  0  0  0  0
   -1.0067   -6.5099    2.9135 C   0  0  0  0  0  0  0  0  0  0  0  0
   -0.5910   -7.4777    2.5899 H   0  0  0  0  0  0  0  0  0  0  0  0
   -1.2629   -6.6440    3.9767 H   0  0  0  0  0  0  0  0  0  0  0  0
   -1.9729   -6.4206    2.3918 H   0  0  0  0  0  0  0  0  0  0  0  0
   -0.1735   -4.7694    1.4571 N   0  0  0  0  0  0  0  0  0  0  0  0
    0.6439   -3.6603    1.0409 C   0  0  2  0  0  0  0  0  0  0  0  0
   -0.2788   -2.5625    0.5280 C   0  0  0  0  0  0  0  0  0  0  0  0
   -1.4197   -2.7791    0.1251 O   0  0  0  0  0  0  0  0  0  0  0  0
    1.6395   -4.0779   -0.0301 C   0  0  0  0  0  0  0  0  0  0  0  0
   -0.8741   -5.1235    0.8083 H   0  0  0  0  0  0  0  0  0  0  0  0
    1.1738   -3.3062    1.9318 H   0  0  0  0  0  0  0  0  0  0  0  0
    1.1270   -4.4358   -0.9305 H   0  0  0  0  0  0  0  0  0  0  0  0
    2.2797   -3.2400   -0.3251 H   0  0  0  0  0  0  0  0  0  0  0  0
    2.2827   -4.8880    0.3303 H   0  0  0  0  0  0  0  0  0  0  0  0
    0.3351   -1.3153    0.5316 N   0  0  0  0  0  0  0  0  0  0  0  0
   -0.3268   -0.1184    0.0807 C   0  0  2  0  0  0  0  0  0  0  0  0
   -1.3294    0.3182    1.1445 C   0  0  0  0  0  0  0  0  0  0  0  0
   -1.4269    1.4797    1.5354 O   0  0  0  0  0  0  0  0  0  0  0  0
   -0.9671   -0.2972   -1.3027 C   0  0  0  0  0  0  0  0  0  0  0  0
    0.0492   -0.5152   -2.4262 C   0  0  0  0  0  0  0  0  0  0  0  0
    1.1579    0.9181   -2.5696 S   0  0  0  0  0  0  0  0  0  0  0  0
   -0.0432    2.1147   -3.1949 C   0  0  0  0  0  0  0  0  0  0  0  0
    1.2790   -1.2290    0.9021 H   0  0  0  0  0  0  0  0  0  0  0  0
    0.4542    0.6489    0.0160 H   0  0  0  0  0  0  0  0  0  0  0  0
   -1.5676    0.5954   -1.5236 H   0  0  0  0  0  0  0  0  0  0  0  0
   -1.6601   -1.1477   -1.2689 H   0  0  0  0  0  0  0  0  0  0  0  0
   -0.4531   -0.6482   -3.3890 H   0  0  0  0  0  0  0  0  0  0  0  0
    0.6630   -1.4006   -2.2360 H   0  0  0  0  0  0  0  0  0  0  0  0
    0.4425    3.0806   -3.3537 H   0  0  0  0  0  0  0  0  0  0  0  0
   -0.8544    2.2381   -2.4731 H   0  0  0  0  0  0  0  0  0  0  0  0
   -0.4584    1.7633   -4.1426 H   0  0  0  0  0  0  0  0  0  0  0  0
   -2.0781   -0.7451    1.6283 N   0  0  0  0  0  0  0  0  0  0  0  0
   -3.0844   -0.5860    2.6517 C   0  0  2  0  0  0  0  0  0  0  0  0
   -3.0004   -1.7870    3.5846 C   0  0  0  0  0  0  0  0  0  0  0  0
   -2.5079   -2.8626    3.2506 O   0  0  0  0  0  0  0  0  0  0  0  0
   -4.4743   -0.4637    2.0469 C   0  0  0  0  0  0  0  0  0  0  0  0
   -1.9508   -1.6697    1.2276 H   0  0  0  0  0  0  0  0  0  0  0  0
   -2.8317    0.3252    3.2048 H   0  0  0  0  0  0  0  0  0  0  0  0
   -4.7451   -1.3674    1.4887 H   0  0  0  0  0  0  0  0  0  0  0  0
   -5.2328   -0.3146    2.8224 H   0  0  0  0  0  0  0  0  0  0  0  0
   -4.5245    0.3827    1.3535 H   0  0  0  0  0  0  0  0  0  0  0  0
   -3.5790   -1.5299    4.8196 N   0  0  0  0  0  0  0  0  0  0  0  0
   -3.6366   -2.5155    5.8738 C   0  0  0  0  0  0  0  0  0  0  0  0
   -3.9463   -0.6036    5.0162 H   0  0  0  0  0  0  0  0  0  0  0  0
   -4.5866   -3.0665    5.8098 H   0  0  0  0  0  0  0  0  0  0  0  0
   -2.7973   -3.2181    5.7650 H   0  0  0  0  0  0  0  0  0  0  0  0
   -3.5696   -2.0126    6.8498 H   0  0  0  0  0  0  0  0  0  0  0  0
  1  3  1  0  0  0  0
  1  7  1  0  0  0  0
  1  2  2  0  0  0  0
 35 36  1  0  0  0  0
 36 44  1  0  0  0  0
 36 37  2  0  0  0  0
  8  9  1  0  0  0  0
  9 17  1  0  0  0  0
  9 10  2  0  0  0  0
 18 19  1  0  0  0  0
 19 34  1  0  0  0  0
 19 20  2  0  0  0  0
 35 38  1  0  0  0  0
  8 11  1  0  0  0  0
 44 45  1  0  0  0  0
 23 24  1  0  0  0  0
 21 22  1  0  0  0  0
 18 21  1  0  0  0  0
 22 23  1  0  0  0  0
 34 35  1  0  0  0  0
  7  8  1  0  0  0  0
 17 18  1  0  0  0  0
  3  4  1  0  0  0  0
  3  5  1  0  0  0  0
  3  6  1  0  0  0  0
 38 41  1  0  0  0  0
 38 42  1  0  0  0  0
 38 43  1  0  0  0  0
 11 14  1  0  0  0  0
 11 15  1  0  0  0  0
 11 16  1  0  0  0  0
 45 47  1  0  0  0  0
 45 48  1  0  0  0  0
 45 49  1  0  0  0  0
 24 31  1  0  0  0  0
 24 32  1  0  0  0  0
 24 33  1  0  0  0  0
 21 27  1  0  0  0  0
 21 28  1  0  0  0  0
 22 29  1  0  0  0  0
 22 30  1  0  0  0  0
 35 40  1  0  0  0  0
  8 13  1  0  0  0  0
 18 26  1  0  0  0  0
 44 46  1  0  0  0  0
  7 12  1  0  0  0  0
 34 39  1  0  0  0  0
 17 25  1  0  0  0  0
M  END
$$$$

  -OEChem-05262214473D

 49 48  0     1  0  0  0  0  0999 V2000
   -0.0561   -5.3799    2.6949 C   0  0  0  0  0  0  0  0  0  0  0  0
    0.7325   -5.0736    3.5815 O   0  0  0  0  0  0  0  0  0  0  0  0
   -1.0067   -6.5099    2.9135 C   0  0  0  0  0  0  0  0  0  0  0  0
   -0.5910   -7.4777    2.5899 H   0  0  0  0  0  0  0  0  0  0  0  0
   -1.2629   -6.6440    3.9767 H   0  0  0  0  0  0  0  0  0  0  0  0
   -1.9729   -6.4206    2.3918 H   0  0  0  0  0  0  0  0  0  0  0  0
   -0.1735   -4.7694    1.4571 N   0  0  0  0  0  0  0  0  0  0  0  0
    0.6439   -3.6603    1.0409 C   0  0  2  0  0  0  0  0  0  0  0  0
   -0.2788   -2.5625    0.5280 C   0  0  0  0  0  0  0  0  0  0  0  0
   -1.4197   -2.7791    0.1251 O   0  0  0  0  0  0  0  0  0  0  0  0
    1.6395   -4.0779   -0.0301 C   0  0  0  0  0  0  0  0  0  0  0  0
   -0.8741   -5.1235    0.8083 H   0  0  0  0  0  0  0  0  0  0  0  0
    1.1738   -3.3062    1.9318 H   0  0  0  0  0  0  0  0  0  0  0  0
    1.1270   -4.4358   -0.9305 H   0  0  0  0  0  0  0  0  0  0  0  0
    2.2797   -3.2400   -0.3251 H   0  0  0  0  0  0  0  0  0  0  0  0
    2.2827   -4.8880    0.3303 H   0  0  0  0  0  0  0  0  0  0  0  0
    0.3351   -1.3153    0.5316 N   0  0  0  0  0  0  0  0  0  0  0  0
   -0.3268   -0.1184    0.0807 C   0  0  2  0  0  0  0  0  0  0  0  0
   -1.3294    0.3182    1.1445 C   0  0  0  0  0  0  0  0  0  0  0  0
   -1.6192    1.4955    1.3476 O   0  0  0  0  0  0  0  0  0  0  0  0
   -0.9671   -0.2972   -1.3027 C   0  0  0  0  0  0  0  0  0  0  0  0
    0.0492   -0.5152   -2.4262 C   0  0  0  0  0  0  0  0  0  0  0  0
    1.1579    0.9181   -2.5696 S   0  0  0  0  0  0  0  0  0  0  0  0
   -0.0432    2.1147   -3.1949 C   0  0  0  0  0  0  0  0  0  0  0  0
    1.2790   -1.2290    0.9021 H   0  0  0  0  0  0  0  0  0  0  0  0
    0.4542    0.6489    0.0160 H   0  0  0  0  0  0  0  0  0  0  0  0
   -1.5676    0.5954   -1.5236 H   0  0  0  0  0  0  0  0  0  0  0  0
   -1.6601   -1.1477   -1.2689 H   0  0  0  0  0  0  0  0  0  0  0  0
   -0.4531   -0.6482   -3.3890 H   0  0  0  0  0  0  0  0  0  0  0  0
    0.6630   -1.4006   -2.2360 H   0  0  0  0  0  0  0  0  0  0  0  0
    0.4425    3.0806   -3.3537 H   0  0  0  0  0  0  0  0  0  0  0  0
   -0.8544    2.2381   -2.4731 H   0  0  0  0  0  0  0  0  0  0  0  0
   -0.4584    1.7633   -4.1426 H   0  0  0  0  0  0  0  0  0  0  0  0
   -1.8366   -0.7566    1.8606 N   0  0  0  0  0  0  0  0  0  0  0  0
   -2.7933   -0.5966    2.9304 C   0  0  2  0  0  0  0  0  0  0  0  0
   -2.4320   -1.5804    4.0355 C   0  0  0  0  0  0  0  0  0  0  0  0
   -1.7676   -2.5957    3.8388 O   0  0  0  0  0  0  0  0  0  0  0  0
   -4.2145   -0.8271    2.4408 C   0  0  0  0  0  0  0  0  0  0  0  0
   -1.5624   -1.7010    1.6065 H   0  0  0  0  0  0  0  0  0  0  0  0
   -2.6834    0.4279    3.3024 H   0  0  0  0  0  0  0  0  0  0  0  0
   -4.3439   -1.8483    2.0642 H   0  0  0  0  0  0  0  0  0  0  0  0
   -4.9409   -0.6774    3.2464 H   0  0  0  0  0  0  0  0  0  0  0  0
   -4.4625   -0.1385    1.6258 H   0  0  0  0  0  0  0  0  0  0  0  0
   -2.9752   -1.2136    5.2588 N   0  0  0  0  0  0  0  0  0  0  0  0
   -2.7860   -1.9919    6.4606 C   0  0  0  0  0  0  0  0  0  0  0  0
   -3.4971   -0.3454    5.3337 H   0  0  0  0  0  0  0  0  0  0  0  0
   -3.6183   -2.7023    6.5729 H   0  0  0  0  0  0  0  0  0  0  0  0
   -1.8379   -2.5457    6.3932 H   0  0  0  0  0  0  0  0  0  0  0  0
   -2.7572   -1.3204    7.3314 H   0  0  0  0  0  0  0  0  0  0  0  0
  1  3  1  0  0  0  0
  1  7  1  0  0  0  0
  1  2  2  0  0  0  0
 35 36  1  0  0  0  0
 36 44  1  0  0  0  0
 36 37  2  0  0  0  0
  8  9  1  0  0  0  0
  9 17  1  0  0  0  0
  9 10  2  0  0  0  0
 18 19  1  0  0  0  0
 19 34  1  0  0  0  0
 19 20  2  0  0  0  0
 35 38  1  0  0  0  0
  8 11  1  0  0  0  0
 44 45  1  0  0  0  0
 23 24  1  0  0  0  0
 21 22  1  0  0  0  0
 18 21  1  0  0  0  0
 22 23  1  0  0  0  0
 34 35  1  0  0  0  0
  7  8  1  0  0  0  0
 17 18  1  0  0  0  0
  3  4  1  0  0  0  0
  3  5  1  0  0  0  0
  3  6  1  0  0  0  0
 38 41  1  0  0  0  0
 38 42  1  0  0  0  0
 38 43  1  0  0  0  0
 11 14  1  0  0  0  0
 11 15  1  0  0  0  0
 11 16  1  0  0  0  0
 45 47  1  0  0  0  0
 45 48  1  0  0  0  0
 45 49  1  0  0  0  0
 24 31  1  0  0  0  0
 24 32  1  0  0  0  0
 24 33  1  0  0  0  0
 21 27  1  0  0  0  0
 21 28  1  0  0  0  0
 22 29  1  0  0  0  0
 22 30  1  0  0  0  0
 35 40  1  0  0  0  0
  8 13  1  0  0  0  0
 18 26  1  0  0  0  0
 44 46  1  0  0  0  0
  7 12  1  0  0  0  0
 34 39  1  0  0  0  0
 17 25  1  0  0  0  0
M  END
$$$$

  -OEChem-05262214473D

 49 48  0     1  0  0  0  0  0999 V2000
   -0.0561   -5.3799    2.6949 C   0  0  0  0  0  0  0  0  0  0  0  0
    0.7325   -5.0736    3.5815 O   0  0  0  0  0  0  0  0  0  0  0  0
   -1.0067   -6.5099    2.9135 C   0  0  0  0  0  0  0  0  0  0  0  0
   -0.5910   -7.4777    2.5899 H   0  0  0  0  0  0  0  0  0  0  0  0
   -1.2629   -6.6440    3.9767 H   0  0  0  0  0  0  0  0  0  0  0  0
   -1.9729   -6.4206    2.3918 H   0  0  0  0  0  0  0  0  0  0  0  0
   -0.1735   -4.7694    1.4571 N   0  0  0  0  0  0  0  0  0  0  0  0
    0.6439   -3.6603    1.0409 C   0  0  2  0  0  0  0  0  0  0  0  0
   -0.2788   -2.5625    0.5280 C   0  0  0  0  0  0  0  0  0  0  0  0
   -1.4197   -2.7791    0.1251 O   0  0  0  0  0  0  0  0  0  0  0  0
    1.6395   -4.0779   -0.0301 C   0  0  0  0  0  0  0  0  0  0  0  0
   -0.8741   -5.1235    0.8083 H   0  0  0  0  0  0  0  0  0  0  0  0
    1.1738   -3.3062    1.9318 H   0  0  0  0  0  0  0  0  0  0  0  0
    1.1270   -4.4358   -0.9305 H   0  0  0  0  0  0  0  0  0  0  0  0
    2.2797   -3.2400   -0.3251 H   0  0  0  0  0  0  0  0  0  0  0  0
    2.2827   -4.8880    0.3303 H   0  0  0  0  0  0  0  0  0  0  0  0
    0.3351   -1.3153    0.5316 N   0  0  0  0  0  0  0  0  0  0  0  0
   -0.3268   -0.1184    0.0807 C   0  0  2  0  0  0  0  0  0  0  0  0
   -1.3294    0.3182    1.1445 C   0  0  0  0  0  0  0  0  0  0  0  0
   -1.8217    1.4442    1.1778 O   0  0  0  0  0  0  0  0  0  0  0  0
   -0.9671   -0.2972   -1.3027 C   0  0  0  0  0  0  0  0  0  0  0  0
    0.0492   -0.5152   -2.4262 C   0  0  0  0  0  0  0  0  0  0  0  0
    1.1579    0.9181   -2.5696 S   0  0  0  0  0  0  0  0  0  0  0  0
   -0.0432    2.1147   -3.1949 C   0  0  0  0  0  0  0  0  0  0  0  0
    1.2790   -1.2290    0.9021 H   0  0  0  0  0  0  0  0  0  0  0  0
    0.4542    0.6489    0.0160 H   0  0  0  0  0  0  0  0  0  0  0  0
   -1.5676    0.5954   -1.5236 H   0  0  0  0  0  0  0  0  0  0  0  0
   -1.6601   -1.1477   -1.2689 H   0  0  0  0  0  0  0  0  0  0  0  0
   -0.4531   -0.6482   -3.3890 H   0  0  0  0  0  0  0  0  0  0  0  0
    0.6630   -1.4006   -2.2360 H   0  0  0  0  0  0  0  0  0  0  0  0
    0.4425    3.0806   -3.3537 H   0  0  0  0  0  0  0  0  0  0  0  0
   -0.8544    2.2381   -2.4731 H   0  0  0  0  0  0  0  0  0  0  0  0
   -0.4584    1.7633   -4.1426 H   0  0  0  0  0  0  0  0  0  0  0  0
   -1.5841   -0.6846    2.0690 N   0  0  0  0  0  0  0  0  0  0  0  0
   -2.4896   -0.5069    3.1798 C   0  0  2  0  0  0  0  0  0  0  0  0
   -1.8869   -1.2015    4.3937 C   0  0  0  0  0  0  0  0  0  0  0  0
   -1.0570   -2.1042    4.3067 O   0  0  0  0  0  0  0  0  0  0  0  0
   -3.8689   -1.0642    2.8638 C   0  0  0  0  0  0  0  0  0  0  0  0
   -1.1535   -1.5967    1.9490 H   0  0  0  0  0  0  0  0  0  0  0  0
   -2.5516    0.5705    3.3681 H   0  0  0  0  0  0  0  0  0  0  0  0
   -3.8269   -2.1426    2.6723 H   0  0  0  0  0  0  0  0  0  0  0  0
   -4.5621   -0.9031    3.6961 H   0  0  0  0  0  0  0  0  0  0  0  0
   -4.2883   -0.5844    1.9729 H   0  0  0  0  0  0  0  0  0  0  0  0
   -2.4166   -0.7244    5.5845 N   0  0  0  0  0  0  0  0  0  0  0  0
   -2.0153   -1.2328    6.8754 C   0  0  0  0  0  0  0  0  0  0  0  0
   -3.0862    0.0391    5.5631 H   0  0  0  0  0  0  0  0  0  0  0  0
   -2.6922   -2.0460    7.1764 H   0  0  0  0  0  0  0  0  0  0  0  0
   -0.9861   -1.6162    6.8146 H   0  0  0  0  0  0  0  0  0  0  0  0
   -2.0617   -0.4233    7.6187 H   0  0  0  0  0  0  0  0  0  0  0  0
  1  3  1  0  0  0  0
  1  7  1  0  0  0  0
  1  2  2  0  0  0  0
 35 36  1  0  0  0  0
 36 44  1  0  0  0  0
 36 37  2  0  0  0  0
  8  9  1  0  0  0  0
  9 17  1  0  0  0  0
  9 10  2  0  0  0  0
 18 19  1  0  0  0  0
 19 34  1  0  0  0  0
 19 20  2  0  0  0  0
 35 38  1  0  0  0  0
  8 11  1  0  0  0  0
 44 45  1  0  0  0  0
 23 24  1  0  0  0  0
 21 22  1  0  0  0  0
 18 21  1  0  0  0  0
 22 23  1  0  0  0  0
 34 35  1  0  0  0  0
  7  8  1  0  0  0  0
 17 18  1  0  0  0  0
  3  4  1  0  0  0  0
  3  5  1  0  0  0  0
  3  6  1  0  0  0  0
 38 41  1  0  0  0  0
 38 42  1  0  0  0  0
 38 43  1  0  0  0  0
 11 14  1  0  0  0  0
 11 15  1  0  0  0  0
 11 16  1  0  0  0  0
 45 47  1  0  0  0  0
 45 48  1  0  0  0  0
 45 49  1  0  0  0  0
 24 31  1  0  0  0  0
 24 32  1  0  0  0  0
 24 33  1  0  0  0  0
 21 27  1  0  0  0  0
 21 28  1  0  0  0  0
 22 29  1  0  0  0  0
 22 30  1  0  0  0  0
 35 40  1  0  0  0  0
  8 13  1  0  0  0  0
 18 26  1  0  0  0  0
 44 46  1  0  0  0  0
  7 12  1  0  0  0  0
 34 39  1  0  0  0  0
 17 25  1  0  0  0  0
M  END
$$$$

  -OEChem-05262214473D

 49 48  0     1  0  0  0  0  0999 V2000
   -0.0561   -5.3799    2.6949 C   0  0  0  0  0  0  0  0  0  0  0  0
    0.7325   -5.0736    3.5815 O   0  0  0  0  0  0  0  0  0  0  0  0
   -1.0067   -6.5099    2.9135 C   0  0  0  0  0  0  0  0  0  0  0  0
   -0.5910   -7.4777    2.5899 H   0  0  0  0  0  0  0  0  0  0  0  0
   -1.2629   -6.6440    3.9767 H   0  0  0  0  0  0  0  0  0  0  0  0
   -1.9729   -6.4206    2.3918 H   0  0  0  0  0  0  0  0  0  0  0  0
   -0.1735   -4.7694    1.4571 N   0  0  0  0  0  0  0  0  0  0  0  0
    0.6439   -3.6603    1.0409 C   0  0  2  0  0  0  0  0  0  0  0  0
   -0.2788   -2.5625    0.5280 C   0  0  0  0  0  0  0  0  0  0  0  0
   -1.4197   -2.7791    0.1251 O   0  0  0  0  0  0  0  0  0  0  0  0
    1.6395   -4.0779   -0.0301 C   0  0  0  0  0  0  0  0  0  0  0  0
   -0.8741   -5.1235    0.8083 H   0  0  0  0  0  0  0  0  0  0  0  0
    1.1738   -3.3062    1.9318 H   0  0  0  0  0  0  0  0  0  0  0  0
    1.1270   -4.4358   -0.9305 H   0  0  0  0  0  0  0  0  0  0  0  0
    2.2797   -3.2400   -0.3251 H   0  0  0  0  0  0  0  0  0  0  0  0
    2.2827   -4.8880    0.3303 H   0  0  0  0  0  0  0  0  0  0  0  0
    0.3351   -1.3153    0.5316 N   0  0  0  0  0  0  0  0  0  0  0  0
   -0.3268   -0.1184    0.0807 C   0  0  2  0  0  0  0  0  0  0  0  0
   -1.3294    0.3182    1.1445 C   0  0  0  0  0  0  0  0  0  0  0  0
   -2.0207    1.3291    1.0375 O   0  0  0  0  0  0  0  0  0  0  0  0
   -0.9671   -0.2972   -1.3027 C   0  0  0  0  0  0  0  0  0  0  0  0
    0.0492   -0.5152   -2.4262 C   0  0  0  0  0  0  0  0  0  0  0  0
    1.1579    0.9181   -2.5696 S   0  0  0  0  0  0  0  0  0  0  0  0
   -0.0432    2.1147   -3.1949 C   0  0  0  0  0  0  0  0  0  0  0  0
    1.2790   -1.2290    0.9021 H   0  0  0  0  0  0  0  0  0  0  0  0
    0.4542    0.6489    0.0160 H   0  0  0  0  0  0  0  0  0  0  0  0
   -1.5676    0.5954   -1.5236 H   0  0  0  0  0  0  0  0  0  0  0  0
   -1.6601   -1.1477   -1.2689 H   0  0  0  0  0  0  0  0  0  0  0  0
   -0.4531   -0.6482   -3.3890 H   0  0  0  0  0  0  0  0  0  0  0  0
    0.6630   -1.4006   -2.2360 H   0  0  0  0  0  0  0  0  0  0  0  0
    0.4425    3.0806   -3.3537 H   0  0  0  0  0  0  0  0  0  0  0  0
   -0.8544    2.2381   -2.4731 H   0  0  0  0  0  0  0  0  0  0  0  0
   -0.4584    1.7633   -4.1426 H   0  0  0  0  0  0  0  0  0  0  0  0
   -1.3377   -0.5340    2.2394 N   0  0  0  0  0  0  0  0  0  0  0  0
   -2.1940   -0.3230    3.3829 C   0  0  2  0  0  0  0  0  0  0  0  0
   -1.4021   -0.6763    4.6350 C   0  0  0  0  0  0  0  0  0  0  0  0
   -0.4248   -1.4217    4.6225 O   0  0  0  0  0  0  0  0  0  0  0  0
   -3.4609   -1.1588    3.2872 C   0  0  0  0  0  0  0  0  0  0  0  0
   -0.7521   -1.3639    2.2319 H   0  0  0  0  0  0  0  0  0  0  0  0
   -2.4451    0.7432    3.3976 H   0  0  0  0  0  0  0  0  0  0  0  0
   -3.2293   -2.2301    3.2713 H   0  0  0  0  0  0  0  0  0  0  0  0
   -4.1221   -0.9763    4.1407 H   0  0  0  0  0  0  0  0  0  0  0  0
   -4.0140   -0.9247    2.3712 H   0  0  0  0  0  0  0  0  0  0  0  0
   -1.9412   -0.0956    5.7745 N   0  0  0  0  0  0  0  0  0  0  0  0
   -1.3772   -0.2900    7.0899 C   0  0  0  0  0  0  0  0  0  0  0  0
   -2.7418    0.5236    5.6889 H   0  0  0  0  0  0  0  0  0  0  0  0
   -1.8714   -1.1423    7.5791 H   0  0  0  0  0  0  0  0  0  0  0  0
   -0.2998   -0.4930    7.0004 H   0  0  0  0  0  0  0  0  0  0  0  0
   -1.5305    0.6177    7.6922 H   0  0  0  0  0  0  0  0  0  0  0  0
  1  3  1  0  0  0  0
  1  7  1  0  0  0  0
  1  2  2  0  0  0  0
 35 36  1  0  0  0  0
 36 44  1  0  0  0  0
 36 37  2  0  0  0  0
  8  9  1  0  0  0  0
  9 17  1  0  0  0  0
  9 10  2  0  0  0  0
 18 19  1  0  0  0  0
 19 34  1  0  0  0  0
 19 20  2  0  0  0  0
 35 38  1  0  0  0  0
  8 11  1  0  0  0  0
 44 45  1  0  0  0  0
 23 24  1  0  0  0  0
 21 22  1  0  0  0  0
 18 21  1  0  0  0  0
 22 23  1  0  0  0  0
 34 35  1  0  0  0  0
  7  8  1  0  0  0  0
 17 18  1  0  0  0  0
  3  4  1  0  0  0  0
  3  5  1  0  0  0  0
  3  6  1  0  0  0  0
 38 41  1  0  0  0  0
 38 42  1  0  0  0  0
 38 43  1  0  0  0  0
 11 14  1  0  0  0  0
 11 15  1  0  0  0  0
 11 16  1  0  0  0  0
 45 47  1  0  0  0  0
 45 48  1  0  0  0  0
 45 49  1  0  0  0  0
 24 31  1  0  0  0  0
 24 32  1  0  0  0  0
 24 33  1  0  0  0  0
 21 27  1  0  0  0  0
 21 28  1  0  0  0  0
 22 29  1  0  0  0  0
 22 30  1  0  0  0  0
 35 40  1  0  0  0  0
  8 13  1  0  0  0  0
 18 26  1  0  0  0  0
 44 46  1  0  0  0  0
  7 12  1  0  0  0  0
 34 39  1  0  0  0  0
 17 25  1  0  0  0  0
M  END
$$$$

  -OEChem-05262214473D

 49 48  0     1  0  0  0  0  0999 V2000
   -0.0561   -5.3799    2.6949 C   0  0  0  0  0  0  0  0  0  0  0  0
    0.7325   -5.0736    3.5815 O   0  0  0  0  0  0  0  0  0  0  0  0
   -1.0067   -6.5099    2.9135 C   0  0  0  0  0  0  0  0  0  0  0  0
   -0.5910   -7.4777    2.5899 H   0  0  0  0  0  0  0  0  0  0  0  0
   -1.2629   -6.6440    3.9767 H   0  0  0  0  0  0  0  0  0  0  0  0
   -1.9729   -6.4206    2.3918 H   0  0  0  0  0  0  0  0  0  0  0  0
   -0.1735   -4.7694    1.4571 N   0  0  0  0  0  0  0  0  0  0  0  0
    0.6439   -3.6603    1.0409 C   0  0  2  0  0  0  0  0  0  0  0  0
   -0.2788   -2.5625    0.5280 C   0  0  0  0  0  0  0  0  0  0  0  0
   -1.4197   -2.7791    0.1251 O   0  0  0  0  0  0  0  0  0  0  0  0
    1.6395   -4.0779   -0.0301 C   0  0  0  0  0  0  0  0  0  0  0  0
   -0.8741   -5.1235    0.8083 H   0  0  0  0  0  0  0  0  0  0  0  0
    1.1738   -3.3062    1.9318 H   0  0  0  0  0  0  0  0  0  0  0  0
    1.1270   -4.4358   -0.9305 H   0  0  0  0  0  0  0  0  0  0  0  0
    2.2797   -3.2400   -0.3251 H   0  0  0  0  0  0  0  0  0  0  0  0
    2.2827   -4.8880    0.3303 H   0  0  0  0  0  0  0  0  0  0  0  0
    0.3351   -1.3153    0.5316 N   0  0  0  0  0  0  0  0  0  0  0  0
   -0.3268   -0.1184    0.0807 C   0  0  2  0  0  0  0  0  0  0  0  0
   -1.3294    0.3182    1.1445 C   0  0  0  0  0  0  0  0  0  0  0  0
   -2.2025    1.1582    0.9363 O   0  0  0  0  0  0  0  0  0  0  0  0
   -0.9671   -0.2972   -1.3027 C   0  0  0  0  0  0  0  0  0  0  0  0
    0.0492   -0.5152   -2.4262 C   0  0  0  0  0  0  0  0  0  0  0  0
    1.1579    0.9181   -2.5696 S   0  0  0  0  0  0  0  0  0  0  0  0
   -0.0432    2.1147   -3.1949 C   0  0  0  0  0  0  0  0  0  0  0  0
    1.2790   -1.2290    0.9021 H   0  0  0  0  0  0  0  0  0  0  0  0
    0.4542    0.6489    0.0160 H   0  0  0  0  0  0  0  0  0  0  0  0
   -1.5676    0.5954   -1.5236 H   0  0  0  0  0  0  0  0  0  0  0  0
   -1.6601   -1.1477   -1.2689 H   0  0  0  0  0  0  0  0  0  0  0  0
   -0.4531   -0.6482   -3.3890 H   0  0  0  0  0  0  0  0  0  0  0  0
    0.6630   -1.4006   -2.2360 H   0  0  0  0  0  0  0  0  0  0  0  0
    0.4425    3.0806   -3.3537 H   0  0  0  0  0  0  0  0  0  0  0  0
   -0.8544    2.2381   -2.4731 H   0  0  0  0  0  0  0  0  0  0  0  0
   -0.4584    1.7633   -4.1426 H   0  0  0  0  0  0  0  0  0  0  0  0
   -1.1142   -0.3151    2.3602 N   0  0  0  0  0  0  0  0  0  0  0  0
   -1.9266   -0.0575    3.5260 C   0  0  2  0  0  0  0  0  0  0  0  0
   -1.0109   -0.0404    4.7428 C   0  0  0  0  0  0  0  0  0  0  0  0
    0.0862   -0.5946    4.7646 O   0  0  0  0  0  0  0  0  0  0  0  0
   -3.0183   -1.1046    3.6821 C   0  0  0  0  0  0  0  0  0  0  0  0
   -0.3853   -1.0184    2.4357 H   0  0  0  0  0  0  0  0  0  0  0  0
   -2.3712    0.9342    3.3888 H   0  0  0  0  0  0  0  0  0  0  0  0
   -2.5920   -2.1049    3.8206 H   0  0  0  0  0  0  0  0  0  0  0  0
   -3.6510   -0.8919    4.5501 H   0  0  0  0  0  0  0  0  0  0  0  0
   -3.6580   -1.1362    2.7934 H   0  0  0  0  0  0  0  0  0  0  0  0
   -1.5814    0.6298    5.8159 N   0  0  0  0  0  0  0  0  0  0  0  0
   -0.9151    0.7724    7.0894 C   0  0  0  0  0  0  0  0  0  0  0  0
   -2.4872    1.0752    5.7024 H   0  0  0  0  0  0  0  0  0  0  0  0
   -1.2118   -0.0527    7.7535 H   0  0  0  0  0  0  0  0  0  0  0  0
    0.1742    0.7475    6.9380 H   0  0  0  0  0  0  0  0  0  0  0  0
   -1.1998    1.7315    7.5467 H   0  0  0  0  0  0  0  0  0  0  0  0
  1  3  1  0  0  0  0
  1  7  1  0  0  0  0
  1  2  2  0  0  0  0
 35 36  1  0  0  0  0
 36 44  1  0  0  0  0
 36 37  2  0  0  0  0
  8  9  1  0  0  0  0
  9 17  1  0  0  0  0
  9 10  2  0  0  0  0
 18 19  1  0  0  0  0
 19 34  1  0  0  0  0
 19 20  2  0  0  0  0
 35 38  1  0  0  0  0
  8 11  1  0  0  0  0
 44 45  1  0  0  0  0
 23 24  1  0  0  0  0
 21 22  1  0  0  0  0
 18 21  1  0  0  0  0
 22 23  1  0  0  0  0
 34 35  1  0  0  0  0
  7  8  1  0  0  0  0
 17 18  1  0  0  0  0
  3  4  1  0  0  0  0
  3  5  1  0  0  0  0
  3  6  1  0  0  0  0
 38 41  1  0  0  0  0
 38 42  1  0  0  0  0
 38 43  1  0  0  0  0
 11 14  1  0  0  0  0
 11 15  1  0  0  0  0
 11 16  1  0  0  0  0
 45 47  1  0  0  0  0
 45 48  1  0  0  0  0
 45 49  1  0  0  0  0
 24 31  1  0  0  0  0
 24 32  1  0  0  0  0
 24 33  1  0  0  0  0
 21 27  1  0  0  0  0
 21 28  1  0  0  0  0
 22 29  1  0  0  0  0
 22 30  1  0  0  0  0
 35 40  1  0  0  0  0
  8 13  1  0  0  0  0
 18 26  1  0  0  0  0
 44 46  1  0  0  0  0
  7 12  1  0  0  0  0
 34 39  1  0  0  0  0
 17 25  1  0  0  0  0
M  END
$$$$

  -OEChem-05262214473D

 49 48  0     1  0  0  0  0  0999 V2000
   -0.0561   -5.3799    2.6949 C   0  0  0  0  0  0  0  0  0  0  0  0
    0.7325   -5.0736    3.5815 O   0  0  0  0  0  0  0  0  0  0  0  0
   -1.0067   -6.5099    2.9135 C   0  0  0  0  0  0  0  0  0  0  0  0
   -0.5910   -7.4777    2.5899 H   0  0  0  0  0  0  0  0  0  0  0  0
   -1.2629   -6.6440    3.9767 H   0  0  0  0  0  0  0  0  0  0  0  0
   -1.9729   -6.4206    2.3918 H   0  0  0  0  0  0  0  0  0  0  0  0
   -0.1735   -4.7694    1.4571 N   0  0  0  0  0  0  0  0  0  0  0  0
    0.6439   -3.6603    1.0409 C   0  0  2  0  0  0  0  0  0  0  0  0
   -0.2788   -2.5625    0.5280 C   0  0  0  0  0  0  0  0  0  0  0  0
   -1.4197   -2.7791    0.1251 O   0  0  0  0  0  0  0  0  0  0  0  0
    1.6395   -4.0779   -0.0301 C   0  0  0  0  0  0  0  0  0  0  0  0
   -0.8741   -5.1235    0.8083 H   0  0  0  0  0  0  0  0  0  0  0  0
    1.1738   -3.3062    1.9318 H   0  0  0  0  0  0  0  0  0  0  0  0
    1.1270   -4.4358   -0.9305 H   0  0  0  0  0  0  0  0  0  0  0  0
    2.2797   -3.2400   -0.3251 H   0  0  0  0  0  0  0  0  0  0  0  0
    2.2827   -4.8880    0.3303 H   0  0  0  0  0  0  0  0  0  0  0  0
    0.3351   -1.3153    0.5316 N   0  0  0  0  0  0  0  0  0  0  0  0
   -0.3268   -0.1184    0.0807 C   0  0  2  0  0  0  0  0  0  0  0  0
   -1.3294    0.3182    1.1445 C   0  0  0  0  0  0  0  0  0  0  0  0
   -2.3547    0.9432    0.8811 O   0  0  0  0  0  0  0  0  0  0  0  0
   -0.9671   -0.2972   -1.3027 C   0  0  0  0  0  0  0  0  0  0  0  0
    0.0492   -0.5152   -2.4262 C   0  0  0  0  0  0  0  0  0  0  0  0
    1.1579    0.9181   -2.5696 S   0  0  0  0  0  0  0  0  0  0  0  0
   -0.0432    2.1147   -3.1949 C   0  0  0  0  0  0  0  0  0  0  0  0
    1.2790   -1.2290    0.9021 H   0  0  0  0  0  0  0  0  0  0  0  0
    0.4542    0.6489    0.0160 H   0  0  0  0  0  0  0  0  0  0  0  0
   -1.5676    0.5954   -1.5236 H   0  0  0  0  0  0  0  0  0  0  0  0
   -1.6601   -1.1477   -1.2689 H   0  0  0  0  0  0  0  0  0  0  0  0
   -0.4531   -0.6482   -3.3890 H   0  0  0  0  0  0  0  0  0  0  0  0
    0.6630   -1.4006   -2.2360 H   0  0  0  0  0  0  0  0  0  0  0  0
    0.4425    3.0806   -3.3537 H   0  0  0  0  0  0  0  0  0  0  0  0
   -0.8544    2.2381   -2.4731 H   0  0  0  0  0  0  0  0  0  0  0  0
   -0.4584    1.7633   -4.1426 H   0  0  0  0  0  0  0  0  0  0  0  0
   -0.9290   -0.0428    2.4230 N   0  0  0  0  0  0  0  0  0  0  0  0
   -1.7056    0.2715    3.5992 C   0  0  2  0  0  0  0  0  0  0  0  0
   -0.7397    0.6628    4.7098 C   0  0  0  0  0  0  0  0  0  0  0  0
    0.4410    0.3207    4.7233 O   0  0  0  0  0  0  0  0  0  0  0  0
   -2.5714   -0.9052    4.0214 C   0  0  0  0  0  0  0  0  0  0  0  0
   -0.0783   -0.5839    2.5467 H   0  0  0  0  0  0  0  0  0  0  0  0
   -2.3350    1.1306    3.3424 H   0  0  0  0  0  0  0  0  0  0  0  0
   -1.9583   -1.7755    4.2826 H   0  0  0  0  0  0  0  0  0  0  0  0
   -3.1808   -0.6557    4.8963 H   0  0  0  0  0  0  0  0  0  0  0  0
   -3.2447   -1.2043    3.2109 H   0  0  0  0  0  0  0  0  0  0  0  0
   -1.3617    1.4025    5.7059 N   0  0  0  0  0  0  0  0  0  0  0  0
   -0.6605    1.8819    6.8740 C   0  0  0  0  0  0  0  0  0  0  0  0
   -2.3398    1.6562    5.6029 H   0  0  0  0  0  0  0  0  0  0  0  0
   -0.7585    1.1484    7.6878 H   0  0  0  0  0  0  0  0  0  0  0  0
    0.4035    2.0206    6.6316 H   0  0  0  0  0  0  0  0  0  0  0  0
   -1.0922    2.8423    7.1922 H   0  0  0  0  0  0  0  0  0  0  0  0
  1  3  1  0  0  0  0
  1  7  1  0  0  0  0
  1  2  2  0  0  0  0
 35 36  1  0  0  0  0
 36 44  1  0  0  0  0
 36 37  2  0  0  0  0
  8  9  1  0  0  0  0
  9 17  1  0  0  0  0
  9 10  2  0  0  0  0
 18 19  1  0  0  0  0
 19 34  1  0  0  0  0
 19 20  2  0  0  0  0
 35 38  1  0  0  0  0
  8 11  1  0  0  0  0
 44 45  1  0  0  0  0
 23 24  1  0  0  0  0
 21 22  1  0  0  0  0
 18 21  1  0  0  0  0
 22 23  1  0  0  0  0
 34 35  1  0  0  0  0
  7  8  1  0  0  0  0
 17 18  1  0  0  0  0
  3  4  1  0  0  0  0
  3  5  1  0  0  0  0
  3  6  1  0  0  0  0
 38 41  1  0  0  0  0
 38 42  1  0  0  0  0
 38 43  1  0  0  0  0
 11 14  1  0  0  0  0
 11 15  1  0  0  0  0
 11 16  1  0  0  0  0
 45 47  1  0  0  0  0
 45 48  1  0  0  0  0
 45 49  1  0  0  0  0
 24 31  1  0  0  0  0
 24 32  1  0  0  0  0
 24 33  1  0  0  0  0
 21 27  1  0  0  0  0
 21 28  1  0  0  0  0
 22 29  1  0  0  0  0
 22 30  1  0  0  0  0
 35 40  1  0  0  0  0
  8 13  1  0  0  0  0
 18 26  1  0  0  0  0
 44 46  1  0  0  0  0
  7 12  1  0  0  0  0
 34 39  1  0  0  0  0
 17 25  1  0  0  0  0
M  END
$$$$

  -OEChem-05262214473D

 49 48  0     1  0  0  0  0  0999 V2000
   -0.0561   -5.3799    2.6949 C   0  0  0  0  0  0  0  0  0  0  0  0
    0.7325   -5.0736    3.5815 O   0  0  0  0  0  0  0  0  0  0  0  0
   -1.0067   -6.5099    2.9135 C   0  0  0  0  0  0  0  0  0  0  0  0
   -0.5910   -7.4777    2.5899 H   0  0  0  0  0  0  0  0  0  0  0  0
   -1.2629   -6.6440    3.9767 H   0  0  0  0  0  0  0  0  0  0  0  0
   -1.9729   -6.4206    2.3918 H   0  0  0  0  0  0  0  0  0  0  0  0
   -0.1735   -4.7694    1.4571 N   0  0  0  0  0  0  0  0  0  0  0  0
    0.6439   -3.6603    1.0409 C   0  0  2  0  0  0  0  0  0  0  0  0
   -0.2788   -2.5625    0.5280 C   0  0  0  0  0  0  0  0  0  0  0  0
   -1.4197   -2.7791    0.1251 O   0  0  0  0  0  0  0  0  0  0  0  0
    1.6395   -4.0779   -0.0301 C   0  0  0  0  0  0  0  0  0  0  0  0
   -0.8741   -5.1235    0.8083 H   0  0  0  0  0  0  0  0  0  0  0  0
    1.1738   -3.3062    1.9318 H   0  0  0  0  0  0  0  0  0  0  0  0
    1.1270   -4.4358   -0.9305 H   0  0  0  0  0  0  0  0  0  0  0  0
    2.2797   -3.2400   -0.3251 H   0  0  0  0  0  0  0  0  0  0  0  0
    2.2827   -4.8880    0.3303 H   0  0  0  0  0  0  0  0  0  0  0  0
    0.3351   -1.3153    0.5316 N   0  0  0  0  0  0  0  0  0  0  0  0
   -0.3268   -0.1184    0.0807 C   0  0  2  0  0  0  0  0  0  0  0  0
   -1.3294    0.3182    1.1445 C   0  0  0  0  0  0  0  0  0  0  0  0
   -2.4671    0.6985    0.8756 O   0  0  0  0  0  0  0  0  0  0  0  0
   -0.9671   -0.2972   -1.3027 C   0  0  0  0  0  0  0  0  0  0  0  0
    0.0492   -0.5152   -2.4262 C   0  0  0  0  0  0  0  0  0  0  0  0
    1.1579    0.9181   -2.5696 S   0  0  0  0  0  0  0  0  0  0  0  0
   -0.0432    2.1147   -3.1949 C   0  0  0  0  0  0  0  0  0  0  0  0
    1.2790   -1.2290    0.9021 H   0  0  0  0  0  0  0  0  0  0  0  0
    0.4542    0.6489    0.0160 H   0  0  0  0  0  0  0  0  0  0  0  0
   -1.5676    0.5954   -1.5236 H   0  0  0  0  0  0  0  0  0  0  0  0
   -1.6601   -1.1477   -1.2689 H   0  0  0  0  0  0  0  0  0  0  0  0
   -0.4531   -0.6482   -3.3890 H   0  0  0  0  0  0  0  0  0  0  0  0
    0.6630   -1.4006   -2.2360 H   0  0  0  0  0  0  0  0  0  0  0  0
    0.4425    3.0806   -3.3537 H   0  0  0  0  0  0  0  0  0  0  0  0
   -0.8544    2.2381   -2.4731 H   0  0  0  0  0  0  0  0  0  0  0  0
   -0.4584    1.7633   -4.1426 H   0  0  0  0  0  0  0  0  0  0  0  0
   -0.7945    0.2643    2.4237 N   0  0  0  0  0  0  0  0  0  0  0  0
   -1.5461    0.6417    3.5976 C   0  0  2  0  0  0  0  0  0  0  0  0
   -0.6071    1.3853    4.5382 C   0  0  0  0  0  0  0  0  0  0  0  0
    0.6154    1.2619    4.5015 O   0  0  0  0  0  0  0  0  0  0  0  0
   -2.1506   -0.5743    4.2822 C   0  0  0  0  0  0  0  0  0  0  0  0
    0.1480   -0.0899    2.5572 H   0  0  0  0  0  0  0  0  0  0  0  0
   -2.3389    1.3189    3.2614 H   0  0  0  0  0  0  0  0  0  0  0  0
   -1.3714   -1.2644    4.6260 H   0  0  0  0  0  0  0  0  0  0  0  0
   -2.7437   -0.2839    5.1557 H   0  0  0  0  0  0  0  0  0  0  0  0
   -2.8024   -1.1246    3.5951 H   0  0  0  0  0  0  0  0  0  0  0  0
   -1.2970    2.1698    5.4518 N   0  0  0  0  0  0  0  0  0  0  0  0
   -0.6308    2.9629    6.4584 C   0  0  0  0  0  0  0  0  0  0  0  0
   -2.3097    2.2271    5.3970 H   0  0  0  0  0  0  0  0  0  0  0  0
   -0.5422    2.3792    7.3865 H   0  0  0  0  0  0  0  0  0  0  0  0
    0.3725    3.2395    6.1022 H   0  0  0  0  0  0  0  0  0  0  0  0
   -1.2150    3.8744    6.6529 H   0  0  0  0  0  0  0  0  0  0  0  0
  1  3  1  0  0  0  0
  1  7  1  0  0  0  0
  1  2  2  0  0  0  0
 35 36  1  0  0  0  0
 36 44  1  0  0  0  0
 36 37  2  0  0  0  0
  8  9  1  0  0  0  0
  9 17  1  0  0  0  0
  9 10  2  0  0  0  0
 18 19  1  0  0  0  0
 19 34  1  0  0  0  0
 19 20  2  0  0  0  0
 35 38  1  0  0  0  0
  8 11  1  0  0  0  0
 44 45  1  0  0  0  0
 23 24  1  0  0  0  0
 21 22  1  0  0  0  0
 18 21  1  0  0  0  0
 22 23  1  0  0  0  0
 34 35  1  0  0  0  0
  7  8  1  0  0  0  0
 17 18  1  0  0  0  0
  3  4  1  0  0  0  0
  3  5  1  0  0  0  0
  3  6  1  0  0  0  0
 38 41  1  0  0  0  0
 38 42  1  0  0  0  0
 38 43  1  0  0  0  0
 11 14  1  0  0  0  0
 11 15  1  0  0  0  0
 11 16  1  0  0  0  0
 45 47  1  0  0  0  0
 45 48  1  0  0  0  0
 45 49  1  0  0  0  0
 24 31  1  0  0  0  0
 24 32  1  0  0  0  0
 24 33  1  0  0  0  0
 21 27  1  0  0  0  0
 21 28  1  0  0  0  0
 22 29  1  0  0  0  0
 22 30  1  0  0  0  0
 35 40  1  0  0  0  0
  8 13  1  0  0  0  0
 18 26  1  0  0  0  0
 44 46  1  0  0  0  0
  7 12  1  0  0  0  0
 34 39  1  0  0  0  0
 17 25  1  0  0  0  0
M  END
$$$$

  -OEChem-05262214473D

 49 48  0     1  0  0  0  0  0999 V2000
   -0.0561   -5.3799    2.6949 C   0  0  0  0  0  0  0  0  0  0  0  0
    0.7325   -5.0736    3.5815 O   0  0  0  0  0  0  0  0  0  0  0  0
   -1.0067   -6.5099    2.9135 C   0  0  0  0  0  0  0  0  0  0  0  0
   -0.5910   -7.4777    2.5899 H   0  0  0  0  0  0  0  0  0  0  0  0
   -1.2629   -6.6440    3.9767 H   0  0  0  0  0  0  0  0  0  0  0  0
   -1.9729   -6.4206    2.3918 H   0  0  0  0  0  0  0  0  0  0  0  0
   -0.1735   -4.7694    1.4571 N   0  0  0  0  0  0  0  0  0  0  0  0
    0.6439   -3.6603    1.0409 C   0  0  2  0  0  0  0  0  0  0  0  0
   -0.2788   -2.5625    0.5280 C   0  0  0  0  0  0  0  0  0  0  0  0
   -1.4197   -2.7791    0.1251 O   0  0  0  0  0  0  0  0  0  0  0  0
    1.6395   -4.0779   -0.0301 C   0  0  0  0  0  0  0  0  0  0  0  0
   -0.8741   -5.1235    0.8083 H   0  0  0  0  0  0  0  0  0  0  0  0
    1.1738   -3.3062    1.9318 H   0  0  0  0  0  0  0  0  0  0  0  0
    1.1270   -4.4358   -0.9305 H   0  0  0  0  0  0  0  0  0  0  0  0
    2.2797   -3.2400   -0.3251 H   0  0  0  0  0  0  0  0  0  0  0  0
    2.2827   -4.8880    0.3303 H   0  0  0  0  0  0  0  0  0  0  0  0
    0.3351   -1.3153    0.5316 N   0  0  0  0  0  0  0  0  0  0  0  0
   -0.3268   -0.1184    0.0807 C   0  0  2  0  0  0  0  0  0  0  0  0
   -1.3294    0.3182    1.1445 C   0  0  0  0  0  0  0  0  0  0  0  0
   -2.5318    0.4410    0.9202 O   0  0  0  0  0  0  0  0  0  0  0  0
   -0.9671   -0.2972   -1.3027 C   0  0  0  0  0  0  0  0  0  0  0  0
    0.0492   -0.5152   -2.4262 C   0  0  0  0  0  0  0  0  0  0  0  0
    1.1579    0.9181   -2.5696 S   0  0  0  0  0  0  0  0  0  0  0  0
   -0.0432    2.1147   -3.1949 C   0  0  0  0  0  0  0  0  0  0  0  0
    1.2790   -1.2290    0.9021 H   0  0  0  0  0  0  0  0  0  0  0  0
    0.4542    0.6489    0.0160 H   0  0  0  0  0  0  0  0  0  0  0  0
   -1.5676    0.5954   -1.5236 H   0  0  0  0  0  0  0  0  0  0  0  0
   -1.6601   -1.1477   -1.2689 H   0  0  0  0  0  0  0  0  0  0  0  0
   -0.4531   -0.6482   -3.3890 H   0  0  0  0  0  0  0  0  0  0  0  0
    0.6630   -1.4006   -2.2360 H   0  0  0  0  0  0  0  0  0  0  0  0
    0.4425    3.0806   -3.3537 H   0  0  0  0  0  0  0  0  0  0  0  0
   -0.8544    2.2381   -2.4731 H   0  0  0  0  0  0  0  0  0  0  0  0
   -0.4584    1.7633   -4.1426 H   0  0  0  0  0  0  0  0  0  0  0  0
   -0.7201    0.5854    2.3621 N   0  0  0  0  0  0  0  0  0  0  0  0
   -1.4590    1.0278    3.5213 C   0  0  2  0  0  0  0  0  0  0  0  0
   -0.6221    2.0780    4.2398 C   0  0  0  0  0  0  0  0  0  0  0  0
    0.5976    2.1647    4.1142 O   0  0  0  0  0  0  0  0  0  0  0  0
   -1.7845   -0.1343    4.4467 C   0  0  0  0  0  0  0  0  0  0  0  0
    0.2782    0.4300    2.4667 H   0  0  0  0  0  0  0  0  0  0  0  0
   -2.3826    1.4863    3.1515 H   0  0  0  0  0  0  0  0  0  0  0  0
   -0.8713   -0.6064    4.8272 H   0  0  0  0  0  0  0  0  0  0  0  0
   -2.3693    0.1983    5.3106 H   0  0  0  0  0  0  0  0  0  0  0  0
   -2.3610   -0.9023    3.9199 H   0  0  0  0  0  0  0  0  0  0  0  0
   -1.3919    2.8794    5.0712 N   0  0  0  0  0  0  0  0  0  0  0  0
   -0.8279    3.9417    5.8708 C   0  0  0  0  0  0  0  0  0  0  0  0
   -2.3989    2.7489    5.0987 H   0  0  0  0  0  0  0  0  0  0  0  0
   -0.5777    3.5559    6.8701 H   0  0  0  0  0  0  0  0  0  0  0  0
    0.0834    4.3214    5.3857 H   0  0  0  0  0  0  0  0  0  0  0  0
   -1.5599    4.7574    5.9655 H   0  0  0  0  0  0  0  0  0  0  0  0
  1  3  1  0  0  0  0
  1  7  1  0  0  0  0
  1  2  2  0  0  0  0
 35 36  1  0  0  0  0
 36 44  1  0  0  0  0
 36 37  2  0  0  0  0
  8  9  1  0  0  0  0
  9 17  1  0  0  0  0
  9 10  2  0  0  0  0
 18 19  1  0  0  0  0
 19 34  1  0  0  0  0
 19 20  2  0  0  0  0
 35 38  1  0  0  0  0
  8 11  1  0  0  0  0
 44 45  1  0  0  0  0
 23 24  1  0  0  0  0
 21 22  1  0  0  0  0
 18 21  1  0  0  0  0
 22 23  1  0  0  0  0
 34 35  1  0  0  0  0
  7  8  1  0  0  0  0
 17 18  1  0  0  0  0
  3  4  1  0  0  0  0
  3  5  1  0  0  0  0
  3  6  1  0  0  0  0
 38 41  1  0  0  0  0
 38 42  1  0  0  0  0
 38 43  1  0  0  0  0
 11 14  1  0  0  0  0
 11 15  1  0  0  0  0
 11 16  1  0  0  0  0
 45 47  1  0  0  0  0
 45 48  1  0  0  0  0
 45 49  1  0  0  0  0
 24 31  1  0  0  0  0
 24 32  1  0  0  0  0
 24 33  1  0  0  0  0
 21 27  1  0  0  0  0
 21 28  1  0  0  0  0
 22 29  1  0  0  0  0
 22 30  1  0  0  0  0
 35 40  1  0  0  0  0
  8 13  1  0  0  0  0
 18 26  1  0  0  0  0
 44 46  1  0  0  0  0
  7 12  1  0  0  0  0
 34 39  1  0  0  0  0
 17 25  1  0  0  0  0
M  END
$$$$

  -OEChem-05262214473D

 49 48  0     1  0  0  0  0  0999 V2000
   -0.0561   -5.3799    2.6949 C   0  0  0  0  0  0  0  0  0  0  0  0
    0.7325   -5.0736    3.5815 O   0  0  0  0  0  0  0  0  0  0  0  0
   -1.0067   -6.5099    2.9135 C   0  0  0  0  0  0  0  0  0  0  0  0
   -0.5910   -7.4777    2.5899 H   0  0  0  0  0  0  0  0  0  0  0  0
   -1.2629   -6.6440    3.9767 H   0  0  0  0  0  0  0  0  0  0  0  0
   -1.9729   -6.4206    2.3918 H   0  0  0  0  0  0  0  0  0  0  0  0
   -0.1735   -4.7694    1.4571 N   0  0  0  0  0  0  0  0  0  0  0  0
    0.6439   -3.6603    1.0409 C   0  0  2  0  0  0  0  0  0  0  0  0
   -0.2788   -2.5625    0.5280 C   0  0  0  0  0  0  0  0  0  0  0  0
   -1.4197   -2.7791    0.1251 O   0  0  0  0  0  0  0  0  0  0  0  0
    1.6395   -4.0779   -0.0301 C   0  0  0  0  0  0  0  0  0  0  0  0
   -0.8741   -5.1235    0.8083 H   0  0  0  0  0  0  0  0  0  0  0  0
    1.1738   -3.3062    1.9318 H   0  0  0  0  0  0  0  0  0  0  0  0
    1.1270   -4.4358   -0.9305 H   0  0  0  0  0  0  0  0  0  0  0  0
    2.2797   -3.2400   -0.3251 H   0  0  0  0  0  0  0  0  0  0  0  0
    2.2827   -4.8880    0.3303 H   0  0  0  0  0  0  0  0  0  0  0  0
    0.3351   -1.3153    0.5316 N   0  0  0  0  0  0  0  0  0  0  0  0
   -0.3268   -0.1184    0.0807 C   0  0  2  0  0  0  0  0  0  0  0  0
   -1.3294    0.3182    1.1445 C   0  0  0  0  0  0  0  0  0  0  0  0
   -2.5446    0.1882    1.0119 O   0  0  0  0  0  0  0  0  0  0  0  0
   -0.9671   -0.2972   -1.3027 C   0  0  0  0  0  0  0  0  0  0  0  0
    0.0492   -0.5152   -2.4262 C   0  0  0  0  0  0  0  0  0  0  0  0
    1.1579    0.9181   -2.5696 S   0  0  0  0  0  0  0  0  0  0  0  0
   -0.0432    2.1147   -3.1949 C   0  0  0  0  0  0  0  0  0  0  0  0
    1.2790   -1.2290    0.9021 H   0  0  0  0  0  0  0  0  0  0  0  0
    0.4542    0.6489    0.0160 H   0  0  0  0  0  0  0  0  0  0  0  0
   -1.5676    0.5954   -1.5236 H   0  0  0  0  0  0  0  0  0  0  0  0
   -1.6601   -1.1477   -1.2689 H   0  0  0  0  0  0  0  0  0  0  0  0
   -0.4531   -0.6482   -3.3890 H   0  0  0  0  0  0  0  0  0  0  0  0
    0.6630   -1.4006   -2.2360 H   0  0  0  0  0  0  0  0  0  0  0  0
    0.4425    3.0806   -3.3537 H   0  0  0  0  0  0  0  0  0  0  0  0
   -0.8544    2.2381   -2.4731 H   0  0  0  0  0  0  0  0  0  0  0  0
   -0.4584    1.7633   -4.1426 H   0  0  0  0  0  0  0  0  0  0  0  0
   -0.7106    0.8984    2.2425 N   0  0  0  0  0  0  0  0  0  0  0  0
   -1.4502    1.4035    3.3754 C   0  0  2  0  0  0  0  0  0  0  0  0
   -0.7837    2.6935    3.8348 C   0  0  0  0  0  0  0  0  0  0  0  0
    0.3888    2.9676    3.5879 O   0  0  0  0  0  0  0  0  0  0  0  0
   -1.4981    0.3848    4.5036 C   0  0  0  0  0  0  0  0  0  0  0  0
    0.3035    0.9402    2.2811 H   0  0  0  0  0  0  0  0  0  0  0  0
   -2.4632    1.6215    3.0201 H   0  0  0  0  0  0  0  0  0  0  0  0
   -0.4922    0.1537    4.8726 H   0  0  0  0  0  0  0  0  0  0  0  0
   -2.0832    0.7580    5.3505 H   0  0  0  0  0  0  0  0  0  0  0  0
   -1.9507   -0.5528    4.1631 H   0  0  0  0  0  0  0  0  0  0  0  0
   -1.6398    3.4830    4.5898 N   0  0  0  0  0  0  0  0  0  0  0  0
   -1.2385    4.7517    5.1514 C   0  0  0  0  0  0  0  0  0  0  0  0
   -2.6013    3.1862    4.7285 H   0  0  0  0  0  0  0  0  0  0  0  0
   -0.8627    4.5982    6.1738 H   0  0  0  0  0  0  0  0  0  0  0  0
   -0.4441    5.1923    4.5311 H   0  0  0  0  0  0  0  0  0  0  0  0
   -2.1032    5.4312    5.1769 H   0  0  0  0  0  0  0  0  0  0  0  0
  1  3  1  0  0  0  0
  1  7  1  0  0  0  0
  1  2  2  0  0  0  0
 35 36  1  0  0  0  0
 36 44  1  0  0  0  0
 36 37  2  0  0  0  0
  8  9  1  0  0  0  0
  9 17  1  0  0  0  0
  9 10  2  0  0  0  0
 18 19  1  0  0  0  0
 19 34  1  0  0  0  0
 19 20  2  0  0  0  0
 35 38  1  0  0  0  0
  8 11  1  0  0  0  0
 44 45  1  0  0  0  0
 23 24  1  0  0  0  0
 21 22  1  0  0  0  0
 18 21  1  0  0  0  0
 22 23  1  0  0  0  0
 34 35  1  0  0  0  0
  7  8  1  0  0  0  0
 17 18  1  0  0  0  0
  3  4  1  0  0  0  0
  3  5  1  0  0  0  0
  3  6  1  0  0  0  0
 38 41  1  0  0  0  0
 38 42  1  0  0  0  0
 38 43  1  0  0  0  0
 11 14  1  0  0  0  0
 11 15  1  0  0  0  0
 11 16  1  0  0  0  0
 45 47  1  0  0  0  0
 45 48  1  0  0  0  0
 45 49  1  0  0  0  0
 24 31  1  0  0  0  0
 24 32  1  0  0  0  0
 24 33  1  0  0  0  0
 21 27  1  0  0  0  0
 21 28  1  0  0  0  0
 22 29  1  0  0  0  0
 22 30  1  0  0  0  0
 35 40  1  0  0  0  0
  8 13  1  0  0  0  0
 18 26  1  0  0  0  0
 44 46  1  0  0  0  0
  7 12  1  0  0  0  0
 34 39  1  0  0  0  0
 17 25  1  0  0  0  0
M  END
$$$$

  -OEChem-05262214473D

 49 48  0     1  0  0  0  0  0999 V2000
   -0.0561   -5.3799    2.6949 C   0  0  0  0  0  0  0  0  0  0  0  0
    0.7325   -5.0736    3.5815 O   0  0  0  0  0  0  0  0  0  0  0  0
   -1.0067   -6.5099    2.9135 C   0  0  0  0  0  0  0  0  0  0  0  0
   -0.5910   -7.4777    2.5899 H   0  0  0  0  0  0  0  0  0  0  0  0
   -1.2629   -6.6440    3.9767 H   0  0  0  0  0  0  0  0  0  0  0  0
   -1.9729   -6.4206    2.3918 H   0  0  0  0  0  0  0  0  0  0  0  0
   -0.1735   -4.7694    1.4571 N   0  0  0  0  0  0  0  0  0  0  0  0
    0.6439   -3.6603    1.0409 C   0  0  2  0  0  0  0  0  0  0  0  0
   -0.2788   -2.5625    0.5280 C   0  0  0  0  0  0  0  0  0  0  0  0
   -1.4197   -2.7791    0.1251 O   0  0  0  0  0  0  0  0  0  0  0  0
    1.6395   -4.0779   -0.0301 C   0  0  0  0  0  0  0  0  0  0  0  0
   -0.8741   -5.1235    0.8083 H   0  0  0  0  0  0  0  0  0  0  0  0
    1.1738   -3.3062    1.9318 H   0  0  0  0  0  0  0  0  0  0  0  0
    1.1270   -4.4358   -0.9305 H   0  0  0  0  0  0  0  0  0  0  0  0
    2.2797   -3.2400   -0.3251 H   0  0  0  0  0  0  0  0  0  0  0  0
    2.2827   -4.8880    0.3303 H   0  0  0  0  0  0  0  0  0  0  0  0
    0.3351   -1.3153    0.5316 N   0  0  0  0  0  0  0  0  0  0  0  0
   -0.3268   -0.1184    0.0807 C   0  0  2  0  0  0  0  0  0  0  0  0
   -1.3294    0.3182    1.1445 C   0  0  0  0  0  0  0  0  0  0  0  0
   -2.5046   -0.0427    1.1445 O   0  0  0  0  0  0  0  0  0  0  0  0
   -0.9671   -0.2972   -1.3027 C   0  0  0  0  0  0  0  0  0  0  0  0
    0.0492   -0.5152   -2.4262 C   0  0  0  0  0  0  0  0  0  0  0  0
    1.1579    0.9181   -2.5696 S   0  0  0  0  0  0  0  0  0  0  0  0
   -0.0432    2.1147   -3.1949 C   0  0  0  0  0  0  0  0  0  0  0  0
    1.2790   -1.2290    0.9021 H   0  0  0  0  0  0  0  0  0  0  0  0
    0.4542    0.6489    0.0160 H   0  0  0  0  0  0  0  0  0  0  0  0
   -1.5676    0.5954   -1.5236 H   0  0  0  0  0  0  0  0  0  0  0  0
   -1.6601   -1.1477   -1.2689 H   0  0  0  0  0  0  0  0  0  0  0  0
   -0.4531   -0.6482   -3.3890 H   0  0  0  0  0  0  0  0  0  0  0  0
    0.6630   -1.4006   -2.2360 H   0  0  0  0  0  0  0  0  0  0  0  0
    0.4425    3.0806   -3.3537 H   0  0  0  0  0  0  0  0  0  0  0  0
   -0.8544    2.2381   -2.4731 H   0  0  0  0  0  0  0  0  0  0  0  0
   -0.4584    1.7633   -4.1426 H   0  0  0  0  0  0  0  0  0  0  0  0
   -0.7668    1.1822    2.0731 N   0  0  0  0  0  0  0  0  0  0  0  0
   -1.5202    1.7431    3.1700 C   0  0  2  0  0  0  0  0  0  0  0  0
   -1.0810    3.1901    3.3509 C   0  0  0  0  0  0  0  0  0  0  0  0
    0.0033    3.6161    2.9584 O   0  0  0  0  0  0  0  0  0  0  0  0
   -1.3109    0.9475    4.4490 C   0  0  0  0  0  0  0  0  0  0  0  0
    0.2221    1.4060    2.0132 H   0  0  0  0  0  0  0  0  0  0  0  0
   -2.5752    1.7151    2.8761 H   0  0  0  0  0  0  0  0  0  0  0  0
   -0.2597    0.9641    4.7591 H   0  0  0  0  0  0  0  0  0  0  0  0
   -1.9050    1.3570    5.2727 H   0  0  0  0  0  0  0  0  0  0  0  0
   -1.5994   -0.0997    4.3082 H   0  0  0  0  0  0  0  0  0  0  0  0
   -2.0239    3.9394    4.0406 N   0  0  0  0  0  0  0  0  0  0  0  0
   -1.8346    5.3376    4.3492 C   0  0  0  0  0  0  0  0  0  0  0  0
   -2.9032    3.5090    4.3115 H   0  0  0  0  0  0  0  0  0  0  0  0
   -1.3776    5.4352    5.3450 H   0  0  0  0  0  0  0  0  0  0  0  0
   -1.1742    5.7929    3.5966 H   0  0  0  0  0  0  0  0  0  0  0  0
   -2.8080    5.8498    4.3408 H   0  0  0  0  0  0  0  0  0  0  0  0
  1  3  1  0  0  0  0
  1  7  1  0  0  0  0
  1  2  2  0  0  0  0
 35 36  1  0  0  0  0
 36 44  1  0  0  0  0
 36 37  2  0  0  0  0
  8  9  1  0  0  0  0
  9 17  1  0  0  0  0
  9 10  2  0  0  0  0
 18 19  1  0  0  0  0
 19 34  1  0  0  0  0
 19 20  2  0  0  0  0
 35 38  1  0  0  0  0
  8 11  1  0  0  0  0
 44 45  1  0  0  0  0
 23 24  1  0  0  0  0
 21 22  1  0  0  0  0
 18 21  1  0  0  0  0
 22 23  1  0  0  0  0
 34 35  1  0  0  0  0
  7  8  1  0  0  0  0
 17 18  1  0  0  0  0
  3  4  1  0  0  0  0
  3  5  1  0  0  0  0
  3  6  1  0  0  0  0
 38 41  1  0  0  0  0
 38 42  1  0  0  0  0
 38 43  1  0  0  0  0
 11 14  1  0  0  0  0
 11 15  1  0  0  0  0
 11 16  1  0  0  0  0
 45 47  1  0  0  0  0
 45 48  1  0  0  0  0
 45 49  1  0  0  0  0
 24 31  1  0  0  0  0
 24 32  1  0  0  0  0
 24 33  1  0  0  0  0
 21 27  1  0  0  0  0
 21 28  1  0  0  0  0
 22 29  1  0  0  0  0
 22 30  1  0  0  0  0
 35 40  1  0  0  0  0
  8 13  1  0  0  0  0
 18 26  1  0  0  0  0
 44 46  1  0  0  0  0
  7 12  1  0  0  0  0
 34 39  1  0  0  0  0
 17 25  1  0  0  0  0
M  END
$$$$

  -OEChem-05262214473D

 49 48  0     1  0  0  0  0  0999 V2000
   -0.0561   -5.3799    2.6949 C   0  0  0  0  0  0  0  0  0  0  0  0
    0.7325   -5.0736    3.5815 O   0  0  0  0  0  0  0  0  0  0  0  0
   -1.0067   -6.5099    2.9135 C   0  0  0  0  0  0  0  0  0  0  0  0
   -0.5910   -7.4777    2.5899 H   0  0  0  0  0  0  0  0  0  0  0  0
   -1.2629   -6.6440    3.9767 H   0  0  0  0  0  0  0  0  0  0  0  0
   -1.9729   -6.4206    2.3918 H   0  0  0  0  0  0  0  0  0  0  0  0
   -0.1735   -4.7694    1.4571 N   0  0  0  0  0  0  0  0  0  0  0  0
    0.6439   -3.6603    1.0409 C   0  0  2  0  0  0  0  0  0  0  0  0
   -0.2788   -2.5625    0.5280 C   0  0  0  0  0  0  0  0  0  0  0  0
   -1.4197   -2.7791    0.1251 O   0  0  0  0  0  0  0  0  0  0  0  0
    1.6395   -4.0779   -0.0301 C   0  0  0  0  0  0  0  0  0  0  0  0
   -0.8741   -5.1235    0.8083 H   0  0  0  0  0  0  0  0  0  0  0  0
    1.1738   -3.3062    1.9318 H   0  0  0  0  0  0  0  0  0  0  0  0
    1.1270   -4.4358   -0.9305 H   0  0  0  0  0  0  0  0  0  0  0  0
    2.2797   -3.2400   -0.3251 H   0  0  0  0  0  0  0  0  0  0  0  0
    2.2827   -4.8880    0.3303 H   0  0  0  0  0  0  0  0  0  0  0  0
    0.3351   -1.3153    0.5316 N   0  0  0  0  0  0  0  0  0  0  0  0
   -0.3268   -0.1184    0.0807 C   0  0  2  0  0  0  0  0  0  0  0  0
   -1.3294    0.3182    1.1445 C   0  0  0  0  0  0  0  0  0  0  0  0
   -2.4144   -0.2360    1.3088 O   0  0  0  0  0  0  0  0  0  0  0  0
   -0.9671   -0.2972   -1.3027 C   0  0  0  0  0  0  0  0  0  0  0  0
    0.0492   -0.5152   -2.4262 C   0  0  0  0  0  0  0  0  0  0  0  0
    1.1579    0.9181   -2.5696 S   0  0  0  0  0  0  0  0  0  0  0  0
   -0.0432    2.1147   -3.1949 C   0  0  0  0  0  0  0  0  0  0  0  0
    1.2790   -1.2290    0.9021 H   0  0  0  0  0  0  0  0  0  0  0  0
    0.4542    0.6489    0.0160 H   0  0  0  0  0  0  0  0  0  0  0  0
   -1.5676    0.5954   -1.5236 H   0  0  0  0  0  0  0  0  0  0  0  0
   -1.6601   -1.1477   -1.2689 H   0  0  0  0  0  0  0  0  0  0  0  0
   -0.4531   -0.6482   -3.3890 H   0  0  0  0  0  0  0  0  0  0  0  0
    0.6630   -1.4006   -2.2360 H   0  0  0  0  0  0  0  0  0  0  0  0
    0.4425    3.0806   -3.3537 H   0  0  0  0  0  0  0  0  0  0  0  0
   -0.8544    2.2381   -2.4731 H   0  0  0  0  0  0  0  0  0  0  0  0
   -0.4584    1.7633   -4.1426 H   0  0  0  0  0  0  0  0  0  0  0  0
   -0.8849    1.4174    1.8653 N   0  0  0  0  0  0  0  0  0  0  0  0
   -1.6644    2.0236    2.9190 C   0  0  2  0  0  0  0  0  0  0  0  0
   -1.4935    3.5338    2.8211 C   0  0  0  0  0  0  0  0  0  0  0  0
   -0.5328    4.0657    2.2686 O   0  0  0  0  0  0  0  0  0  0  0  0
   -1.2357    1.5156    4.2867 C   0  0  0  0  0  0  0  0  0  0  0  0
    0.0395    1.7957    1.6812 H   0  0  0  0  0  0  0  0  0  0  0  0
   -2.7109    1.7609    2.7294 H   0  0  0  0  0  0  0  0  0  0  0  0
   -0.1898    1.7694    4.4945 H   0  0  0  0  0  0  0  0  0  0  0  0
   -1.8467    1.9545    5.0824 H   0  0  0  0  0  0  0  0  0  0  0  0
   -1.3312    0.4259    4.3453 H   0  0  0  0  0  0  0  0  0  0  0  0
   -2.5179    4.2175    3.4608 N   0  0  0  0  0  0  0  0  0  0  0  0
   -2.5756    5.6595    3.5188 C   0  0  0  0  0  0  0  0  0  0  0  0
   -3.2839    3.6955    3.8762 H   0  0  0  0  0  0  0  0  0  0  0  0
   -2.0874    6.0097    4.4402 H   0  0  0  0  0  0  0  0  0  0  0  0
   -2.0570    6.0824    2.6457 H   0  0  0  0  0  0  0  0  0  0  0  0
   -3.6263    5.9848    3.5142 H   0  0  0  0  0  0  0  0  0  0  0  0
  1  3  1  0  0  0  0
  1  7  1  0  0  0  0
  1  2  2  0  0  0  0
 35 36  1  0  0  0  0
 36 44  1  0  0  0  0
 36 37  2  0  0  0  0
  8  9  1  0  0  0  0
  9 17  1  0  0  0  0
  9 10  2  0  0  0  0
 18 19  1  0  0  0  0
 19 34  1  0  0  0  0
 19 20  2  0  0  0  0
 35 38  1  0  0  0  0
  8 11  1  0  0  0  0
 44 45  1  0  0  0  0
 23 24  1  0  0  0  0
 21 22  1  0  0  0  0
 18 21  1  0  0  0  0
 22 23  1  0  0  0  0
 34 35  1  0  0  0  0
  7  8  1  0  0  0  0
 17 18  1  0  0  0  0
  3  4  1  0  0  0  0
  3  5  1  0  0  0  0
  3  6  1  0  0  0  0
 38 41  1  0  0  0  0
 38 42  1  0  0  0  0
 38 43  1  0  0  0  0
 11 14  1  0  0  0  0
 11 15  1  0  0  0  0
 11 16  1  0  0  0  0
 45 47  1  0  0  0  0
 45 48  1  0  0  0  0
 45 49  1  0  0  0  0
 24 31  1  0  0  0  0
 24 32  1  0  0  0  0
 24 33  1  0  0  0  0
 21 27  1  0  0  0  0
 21 28  1  0  0  0  0
 22 29  1  0  0  0  0
 22 30  1  0  0  0  0
 35 40  1  0  0  0  0
  8 13  1  0  0  0  0
 18 26  1  0  0  0  0
 44 46  1  0  0  0  0
  7 12  1  0  0  0  0
 34 39  1  0  0  0  0
 17 25  1  0  0  0  0
M  END
$$$$

  -OEChem-05262214473D

 49 48  0     1  0  0  0  0  0999 V2000
   -0.0561   -5.3799    2.6949 C   0  0  0  0  0  0  0  0  0  0  0  0
    0.7325   -5.0736    3.5815 O   0  0  0  0  0  0  0  0  0  0  0  0
   -1.0067   -6.5099    2.9135 C   0  0  0  0  0  0  0  0  0  0  0  0
   -0.5910   -7.4777    2.5899 H   0  0  0  0  0  0  0  0  0  0  0  0
   -1.2629   -6.6440    3.9767 H   0  0  0  0  0  0  0  0  0  0  0  0
   -1.9729   -6.4206    2.3918 H   0  0  0  0  0  0  0  0  0  0  0  0
   -0.1735   -4.7694    1.4571 N   0  0  0  0  0  0  0  0  0  0  0  0
    0.6439   -3.6603    1.0409 C   0  0  2  0  0  0  0  0  0  0  0  0
   -0.2788   -2.5625    0.5280 C   0  0  0  0  0  0  0  0  0  0  0  0
   -1.4197   -2.7791    0.1251 O   0  0  0  0  0  0  0  0  0  0  0  0
    1.6395   -4.0779   -0.0301 C   0  0  0  0  0  0  0  0  0  0  0  0
   -0.8741   -5.1235    0.8083 H   0  0  0  0  0  0  0  0  0  0  0  0
    1.1738   -3.3062    1.9318 H   0  0  0  0  0  0  0  0  0  0  0  0
    1.1270   -4.4358   -0.9305 H   0  0  0  0  0  0  0  0  0  0  0  0
    2.2797   -3.2400   -0.3251 H   0  0  0  0  0  0  0  0  0  0  0  0
    2.2827   -4.8880    0.3303 H   0  0  0  0  0  0  0  0  0  0  0  0
    0.3351   -1.3153    0.5316 N   0  0  0  0  0  0  0  0  0  0  0  0
   -0.3268   -0.1184    0.0807 C   0  0  2  0  0  0  0  0  0  0  0  0
   -1.3294    0.3182    1.1445 C   0  0  0  0  0  0  0  0  0  0  0  0
   -2.2802   -0.3784    1.4937 O   0  0  0  0  0  0  0  0  0  0  0  0
   -0.9671   -0.2972   -1.3027 C   0  0  0  0  0  0  0  0  0  0  0  0
    0.0492   -0.5152   -2.4262 C   0  0  0  0  0  0  0  0  0  0  0  0
    1.1579    0.9181   -2.5696 S   0  0  0  0  0  0  0  0  0  0  0  0
   -0.0432    2.1147   -3.1949 C   0  0  0  0  0  0  0  0  0  0  0  0
    1.2790   -1.2290    0.9021 H   0  0  0  0  0  0  0  0  0  0  0  0
    0.4542    0.6489    0.0160 H   0  0  0  0  0  0  0  0  0  0  0  0
   -1.5676    0.5954   -1.5236 H   0  0  0  0  0  0  0  0  0  0  0  0
   -1.6601   -1.1477   -1.2689 H   0  0  0  0  0  0  0  0  0  0  0  0
   -0.4531   -0.6482   -3.3890 H   0  0  0  0  0  0  0  0  0  0  0  0
    0.6630   -1.4006   -2.2360 H   0  0  0  0  0  0  0  0  0  0  0  0
    0.4425    3.0806   -3.3537 H   0  0  0  0  0  0  0  0  0  0  0  0
   -0.8544    2.2381   -2.4731 H   0  0  0  0  0  0  0  0  0  0  0  0
   -0.4584    1.7633   -4.1426 H   0  0  0  0  0  0  0  0  0  0  0  0
   -1.0568    1.5878    1.6333 N   0  0  0  0  0  0  0  0  0  0  0  0
   -1.8729    2.2258    2.6395 C   0  0  2  0  0  0  0  0  0  0  0  0
   -1.9933    3.7012    2.2814 C   0  0  0  0  0  0  0  0  0  0  0  0
   -1.1829    4.2860    1.5656 O   0  0  0  0  0  0  0  0  0  0  0  0
   -1.2776    2.0502    4.0278 C   0  0  0  0  0  0  0  0  0  0  0  0
   -0.2317    2.0827    1.3078 H   0  0  0  0  0  0  0  0  0  0  0  0
   -2.8611    1.7556    2.5900 H   0  0  0  0  0  0  0  0  0  0  0  0
   -0.2873    2.5150    4.0966 H   0  0  0  0  0  0  0  0  0  0  0  0
   -1.9123    2.5099    4.7927 H   0  0  0  0  0  0  0  0  0  0  0  0
   -1.1642    0.9884    4.2718 H   0  0  0  0  0  0  0  0  0  0  0  0
   -3.0882    4.2984    2.8902 N   0  0  0  0  0  0  0  0  0  0  0  0
   -3.4108    5.6955    2.7168 C   0  0  0  0  0  0  0  0  0  0  0  0
   -3.7175    3.7328    3.4522 H   0  0  0  0  0  0  0  0  0  0  0  0
   -2.9437    6.2827    3.5211 H   0  0  0  0  0  0  0  0  0  0  0  0
   -3.0324    6.0410    1.7435 H   0  0  0  0  0  0  0  0  0  0  0  0
   -4.5023    5.8269    2.7534 H   0  0  0  0  0  0  0  0  0  0  0  0
  1  3  1  0  0  0  0
  1  7  1  0  0  0  0
  1  2  2  0  0  0  0
 35 36  1  0  0  0  0
 36 44  1  0  0  0  0
 36 37  2  0  0  0  0
  8  9  1  0  0  0  0
  9 17  1  0  0  0  0
  9 10  2  0  0  0  0
 18 19  1  0  0  0  0
 19 34  1  0  0  0  0
 19 20  2  0  0  0  0
 35 38  1  0  0  0  0
  8 11  1  0  0  0  0
 44 45  1  0  0  0  0
 23 24  1  0  0  0  0
 21 22  1  0  0  0  0
 18 21  1  0  0  0  0
 22 23  1  0  0  0  0
 34 35  1  0  0  0  0
  7  8  1  0  0  0  0
 17 18  1  0  0  0  0
  3  4  1  0  0  0  0
  3  5  1  0  0  0  0
  3  6  1  0  0  0  0
 38 41  1  0  0  0  0
 38 42  1  0  0  0  0
 38 43  1  0  0  0  0
 11 14  1  0  0  0  0
 11 15  1  0  0  0  0
 11 16  1  0  0  0  0
 45 47  1  0  0  0  0
 45 48  1  0  0  0  0
 45 49  1  0  0  0  0
 24 31  1  0  0  0  0
 24 32  1  0  0  0  0
 24 33  1  0  0  0  0
 21 27  1  0  0  0  0
 21 28  1  0  0  0  0
 22 29  1  0  0  0  0
 22 30  1  0  0  0  0
 35 40  1  0  0  0  0
  8 13  1  0  0  0  0
 18 26  1  0  0  0  0
 44 46  1  0  0  0  0
  7 12  1  0  0  0  0
 34 39  1  0  0  0  0
 17 25  1  0  0  0  0
M  END
$$$$

  -OEChem-05262214473D

 49 48  0     1  0  0  0  0  0999 V2000
   -0.0561   -5.3799    2.6949 C   0  0  0  0  0  0  0  0  0  0  0  0
    0.7325   -5.0736    3.5815 O   0  0  0  0  0  0  0  0  0  0  0  0
   -1.0067   -6.5099    2.9135 C   0  0  0  0  0  0  0  0  0  0  0  0
   -0.5910   -7.4777    2.5899 H   0  0  0  0  0  0  0  0  0  0  0  0
   -1.2629   -6.6440    3.9767 H   0  0  0  0  0  0  0  0  0  0  0  0
   -1.9729   -6.4206    2.3918 H   0  0  0  0  0  0  0  0  0  0  0  0
   -0.1735   -4.7694    1.4571 N   0  0  0  0  0  0  0  0  0  0  0  0
    0.6439   -3.6603    1.0409 C   0  0  2  0  0  0  0  0  0  0  0  0
   -0.2788   -2.5625    0.5280 C   0  0  0  0  0  0  0  0  0  0  0  0
   -1.4197   -2.7791    0.1251 O   0  0  0  0  0  0  0  0  0  0  0  0
    1.6395   -4.0779   -0.0301 C   0  0  0  0  0  0  0  0  0  0  0  0
   -0.8741   -5.1235    0.8083 H   0  0  0  0  0  0  0  0  0  0  0  0
    1.1738   -3.3062    1.9318 H   0  0  0  0  0  0  0  0  0  0  0  0
    1.1270   -4.4358   -0.9305 H   0  0  0  0  0  0  0  0  0  0  0  0
    2.2797   -3.2400   -0.3251 H   0  0  0  0  0  0  0  0  0  0  0  0
    2.2827   -4.8880    0.3303 H   0  0  0  0  0  0  0  0  0  0  0  0
    0.3351   -1.3153    0.5316 N   0  0  0  0  0  0  0  0  0  0  0  0
   -0.3268   -0.1184    0.0807 C   0  0  2  0  0  0  0  0  0  0  0  0
   -1.3294    0.3182    1.1445 C   0  0  0  0  0  0  0  0  0  0  0  0
   -2.1112   -0.4604    1.6866 O   0  0  0  0  0  0  0  0  0  0  0  0
   -0.9671   -0.2972   -1.3027 C   0  0  0  0  0  0  0  0  0  0  0  0
    0.0492   -0.5152   -2.4262 C   0  0  0  0  0  0  0  0  0  0  0  0
    1.1579    0.9181   -2.5696 S   0  0  0  0  0  0  0  0  0  0  0  0
   -0.0432    2.1147   -3.1949 C   0  0  0  0  0  0  0  0  0  0  0  0
    1.2790   -1.2290    0.9021 H   0  0  0  0  0  0  0  0  0  0  0  0
    0.4542    0.6489    0.0160 H   0  0  0  0  0  0  0  0  0  0  0  0
   -1.5676    0.5954   -1.5236 H   0  0  0  0  0  0  0  0  0  0  0  0
   -1.6601   -1.1477   -1.2689 H   0  0  0  0  0  0  0  0  0  0  0  0
   -0.4531   -0.6482   -3.3890 H   0  0  0  0  0  0  0  0  0  0  0  0
    0.6630   -1.4006   -2.2360 H   0  0  0  0  0  0  0  0  0  0  0  0
    0.4425    3.0806   -3.3537 H   0  0  0  0  0  0  0  0  0  0  0  0
   -0.8544    2.2381   -2.4731 H   0  0  0  0  0  0  0  0  0  0  0  0
   -0.4584    1.7633   -4.1426 H   0  0  0  0  0  0  0  0  0  0  0  0
   -1.2708    1.6820    1.3930 N   0  0  0  0  0  0  0  0  0  0  0  0
   -2.1315    2.3360    2.3506 C   0  0  2  0  0  0  0  0  0  0  0  0
   -2.5462    3.6809    1.7686 C   0  0  0  0  0  0  0  0  0  0  0  0
   -1.9026    4.2618    0.8972 O   0  0  0  0  0  0  0  0  0  0  0  0
   -1.4338    2.5151    3.6899 C   0  0  0  0  0  0  0  0  0  0  0  0
   -0.5732    2.2474    0.9184 H   0  0  0  0  0  0  0  0  0  0  0  0
   -3.0156    1.6997    2.4674 H   0  0  0  0  0  0  0  0  0  0  0  0
   -0.5454    3.1498    3.5928 H   0  0  0  0  0  0  0  0  0  0  0  0
   -2.0973    2.9852    4.4232 H   0  0  0  0  0  0  0  0  0  0  0  0
   -1.1098    1.5494    4.0928 H   0  0  0  0  0  0  0  0  0  0  0  0
   -3.6960    4.1765    2.3674 N   0  0  0  0  0  0  0  0  0  0  0  0
   -4.2836    5.4431    1.9979 C   0  0  0  0  0  0  0  0  0  0  0  0
   -4.1745    3.6185    3.0684 H   0  0  0  0  0  0  0  0  0  0  0  0
   -3.8882    6.2355    2.6504 H   0  0  0  0  0  0  0  0  0  0  0  0
   -4.0339    5.6715    0.9512 H   0  0  0  0  0  0  0  0  0  0  0  0
   -5.3764    5.3868    2.1103 H   0  0  0  0  0  0  0  0  0  0  0  0
  1  3  1  0  0  0  0
  1  7  1  0  0  0  0
  1  2  2  0  0  0  0
 35 36  1  0  0  0  0
 36 44  1  0  0  0  0
 36 37  2  0  0  0  0
  8  9  1  0  0  0  0
  9 17  1  0  0  0  0
  9 10  2  0  0  0  0
 18 19  1  0  0  0  0
 19 34  1  0  0  0  0
 19 20  2  0  0  0  0
 35 38  1  0  0  0  0
  8 11  1  0  0  0  0
 44 45  1  0  0  0  0
 23 24  1  0  0  0  0
 21 22  1  0  0  0  0
 18 21  1  0  0  0  0
 22 23  1  0  0  0  0
 34 35  1  0  0  0  0
  7  8  1  0  0  0  0
 17 18  1  0  0  0  0
  3  4  1  0  0  0  0
  3  5  1  0  0  0  0
  3  6  1  0  0  0  0
 38 41  1  0  0  0  0
 38 42  1  0  0  0  0
 38 43  1  0  0  0  0
 11 14  1  0  0  0  0
 11 15  1  0  0  0  0
 11 16  1  0  0  0  0
 45 47  1  0  0  0  0
 45 48  1  0  0  0  0
 45 49  1  0  0  0  0
 24 31  1  0  0  0  0
 24 32  1  0  0  0  0
 24 33  1  0  0  0  0
 21 27  1  0  0  0  0
 21 28  1  0  0  0  0
 22 29  1  0  0  0  0
 22 30  1  0  0  0  0
 35 40  1  0  0  0  0
  8 13  1  0  0  0  0
 18 26  1  0  0  0  0
 44 46  1  0  0  0  0
  7 12  1  0  0  0  0
 34 39  1  0  0  0  0
 17 25  1  0  0  0  0
M  END
$$$$

  -OEChem-05262214473D

 49 48  0     1  0  0  0  0  0999 V2000
   -0.0561   -5.3799    2.6949 C   0  0  0  0  0  0  0  0  0  0  0  0
    0.7325   -5.0736    3.5815 O   0  0  0  0  0  0  0  0  0  0  0  0
   -1.0067   -6.5099    2.9135 C   0  0  0  0  0  0  0  0  0  0  0  0
   -0.5910   -7.4777    2.5899 H   0  0  0  0  0  0  0  0  0  0  0  0
   -1.2629   -6.6440    3.9767 H   0  0  0  0  0  0  0  0  0  0  0  0
   -1.9729   -6.4206    2.3918 H   0  0  0  0  0  0  0  0  0  0  0  0
   -0.1735   -4.7694    1.4571 N   0  0  0  0  0  0  0  0  0  0  0  0
    0.6439   -3.6603    1.0409 C   0  0  2  0  0  0  0  0  0  0  0  0
   -0.2788   -2.5625    0.5280 C   0  0  0  0  0  0  0  0  0  0  0  0
   -1.4197   -2.7791    0.1251 O   0  0  0  0  0  0  0  0  0  0  0  0
    1.6395   -4.0779   -0.0301 C   0  0  0  0  0  0  0  0  0  0  0  0
   -0.8741   -5.1235    0.8083 H   0  0  0  0  0  0  0  0  0  0  0  0
    1.1738   -3.3062    1.9318 H   0  0  0  0  0  0  0  0  0  0  0  0
    1.1270   -4.4358   -0.9305 H   0  0  0  0  0  0  0  0  0  0  0  0
    2.2797   -3.2400   -0.3251 H   0  0  0  0  0  0  0  0  0  0  0  0
    2.2827   -4.8880    0.3303 H   0  0  0  0  0  0  0  0  0  0  0  0
    0.3351   -1.3153    0.5316 N   0  0  0  0  0  0  0  0  0  0  0  0
   -0.3268   -0.1184    0.0807 C   0  0  2  0  0  0  0  0  0  0  0  0
   -1.3294    0.3182    1.1445 C   0  0  0  0  0  0  0  0  0  0  0  0
   -1.9189   -0.4762    1.8744 O   0  0  0  0  0  0  0  0  0  0  0  0
   -0.9671   -0.2972   -1.3027 C   0  0  0  0  0  0  0  0  0  0  0  0
    0.0492   -0.5152   -2.4262 C   0  0  0  0  0  0  0  0  0  0  0  0
    1.1579    0.9181   -2.5696 S   0  0  0  0  0  0  0  0  0  0  0  0
   -0.0432    2.1147   -3.1949 C   0  0  0  0  0  0  0  0  0  0  0  0
    1.2790   -1.2290    0.9021 H   0  0  0  0  0  0  0  0  0  0  0  0
    0.4542    0.6489    0.0160 H   0  0  0  0  0  0  0  0  0  0  0  0
   -1.5676    0.5954   -1.5236 H   0  0  0  0  0  0  0  0  0  0  0  0
   -1.6601   -1.1477   -1.2689 H   0  0  0  0  0  0  0  0  0  0  0  0
   -0.4531   -0.6482   -3.3890 H   0  0  0  0  0  0  0  0  0  0  0  0
    0.6630   -1.4006   -2.2360 H   0  0  0  0  0  0  0  0  0  0  0  0
    0.4425    3.0806   -3.3537 H   0  0  0  0  0  0  0  0  0  0  0  0
   -0.8544    2.2381   -2.4731 H   0  0  0  0  0  0  0  0  0  0  0  0
   -0.4584    1.7633   -4.1426 H   0  0  0  0  0  0  0  0  0  0  0  0
   -1.5123    1.6935    1.1607 N   0  0  0  0  0  0  0  0  0  0  0  0
   -2.4226    2.3465    2.0719 C   0  0  2  0  0  0  0  0  0  0  0  0
   -3.1146    3.4743    1.3177 C   0  0  0  0  0  0  0  0  0  0  0  0
   -2.6430    3.9949    0.3090 O   0  0  0  0  0  0  0  0  0  0  0  0
   -1.6935    2.8784    3.2960 C   0  0  0  0  0  0  0  0  0  0  0  0
   -0.9616    2.2787    0.5395 H   0  0  0  0  0  0  0  0  0  0  0  0
   -3.1638    1.5970    2.3698 H   0  0  0  0  0  0  0  0  0  0  0  0
   -0.9467    3.6308    3.0173 H   0  0  0  0  0  0  0  0  0  0  0  0
   -2.3892    3.3480    3.9992 H   0  0  0  0  0  0  0  0  0  0  0  0
   -1.1718    2.0706    3.8204 H   0  0  0  0  0  0  0  0  0  0  0  0
   -4.2997    3.8602    1.9282 N   0  0  0  0  0  0  0  0  0  0  0  0
   -5.1342    4.9195    1.4111 C   0  0  0  0  0  0  0  0  0  0  0  0
   -4.6238    3.3603    2.7510 H   0  0  0  0  0  0  0  0  0  0  0  0
   -4.8565    5.8714    1.8873 H   0  0  0  0  0  0  0  0  0  0  0  0
   -4.9933    4.9991    0.3230 H   0  0  0  0  0  0  0  0  0  0  0  0
   -6.1888    4.6947    1.6287 H   0  0  0  0  0  0  0  0  0  0  0  0
  1  3  1  0  0  0  0
  1  7  1  0  0  0  0
  1  2  2  0  0  0  0
 35 36  1  0  0  0  0
 36 44  1  0  0  0  0
 36 37  2  0  0  0  0
  8  9  1  0  0  0  0
  9 17  1  0  0  0  0
  9 10  2  0  0  0  0
 18 19  1  0  0  0  0
 19 34  1  0  0  0  0
 19 20  2  0  0  0  0
 35 38  1  0  0  0  0
  8 11  1  0  0  0  0
 44 45  1  0  0  0  0
 23 24  1  0  0  0  0
 21 22  1  0  0  0  0
 18 21  1  0  0  0  0
 22 23  1  0  0  0  0
 34 35  1  0  0  0  0
  7  8  1  0  0  0  0
 17 18  1  0  0  0  0
  3  4  1  0  0  0  0
  3  5  1  0  0  0  0
  3  6  1  0  0  0  0
 38 41  1  0  0  0  0
 38 42  1  0  0  0  0
 38 43  1  0  0  0  0
 11 14  1  0  0  0  0
 11 15  1  0  0  0  0
 11 16  1  0  0  0  0
 45 47  1  0  0  0  0
 45 48  1  0  0  0  0
 45 49  1  0  0  0  0
 24 31  1  0  0  0  0
 24 32  1  0  0  0  0
 24 33  1  0  0  0  0
 21 27  1  0  0  0  0
 21 28  1  0  0  0  0
 22 29  1  0  0  0  0
 22 30  1  0  0  0  0
 35 40  1  0  0  0  0
  8 13  1  0  0  0  0
 18 26  1  0  0  0  0
 44 46  1  0  0  0  0
  7 12  1  0  0  0  0
 34 39  1  0  0  0  0
 17 25  1  0  0  0  0
M  END
$$$$

  -OEChem-05262214473D

 49 48  0     1  0  0  0  0  0999 V2000
   -0.0561   -5.3799    2.6949 C   0  0  0  0  0  0  0  0  0  0  0  0
    0.7325   -5.0736    3.5815 O   0  0  0  0  0  0  0  0  0  0  0  0
   -1.0067   -6.5099    2.9135 C   0  0  0  0  0  0  0  0  0  0  0  0
   -0.5910   -7.4777    2.5899 H   0  0  0  0  0  0  0  0  0  0  0  0
   -1.2629   -6.6440    3.9767 H   0  0  0  0  0  0  0  0  0  0  0  0
   -1.9729   -6.4206    2.3918 H   0  0  0  0  0  0  0  0  0  0  0  0
   -0.1735   -4.7694    1.4571 N   0  0  0  0  0  0  0  0  0  0  0  0
    0.6439   -3.6603    1.0409 C   0  0  2  0  0  0  0  0  0  0  0  0
   -0.2788   -2.5625    0.5280 C   0  0  0  0  0  0  0  0  0  0  0  0
   -1.4197   -2.7791    0.1251 O   0  0  0  0  0  0  0  0  0  0  0  0
    1.6395   -4.0779   -0.0301 C   0  0  0  0  0  0  0  0  0  0  0  0
   -0.8741   -5.1235    0.8083 H   0  0  0  0  0  0  0  0  0  0  0  0
    1.1738   -3.3062    1.9318 H   0  0  0  0  0  0  0  0  0  0  0  0
    1.1270   -4.4358   -0.9305 H   0  0  0  0  0  0  0  0  0  0  0  0
    2.2797   -3.2400   -0.3251 H   0  0  0  0  0  0  0  0  0  0  0  0
    2.2827   -4.8880    0.3303 H   0  0  0  0  0  0  0  0  0  0  0  0
    0.3351   -1.3153    0.5316 N   0  0  0  0  0  0  0  0  0  0  0  0
   -0.3268   -0.1184    0.0807 C   0  0  2  0  0  0  0  0  0  0  0  0
   -1.3294    0.3182    1.1445 C   0  0  0  0  0  0  0  0  0  0  0  0
   -1.7163   -0.4249    2.0442 O   0  0  0  0  0  0  0  0  0  0  0  0
   -0.9671   -0.2972   -1.3027 C   0  0  0  0  0  0  0  0  0  0  0  0
    0.0492   -0.5152   -2.4262 C   0  0  0  0  0  0  0  0  0  0  0  0
    1.1579    0.9181   -2.5696 S   0  0  0  0  0  0  0  0  0  0  0  0
   -0.0432    2.1147   -3.1949 C   0  0  0  0  0  0  0  0  0  0  0  0
    1.2790   -1.2290    0.9021 H   0  0  0  0  0  0  0  0  0  0  0  0
    0.4542    0.6489    0.0160 H   0  0  0  0  0  0  0  0  0  0  0  0
   -1.5676    0.5954   -1.5236 H   0  0  0  0  0  0  0  0  0  0  0  0
   -1.6601   -1.1477   -1.2689 H   0  0  0  0  0  0  0  0  0  0  0  0
   -0.4531   -0.6482   -3.3890 H   0  0  0  0  0  0  0  0  0  0  0  0
    0.6630   -1.4006   -2.2360 H   0  0  0  0  0  0  0  0  0  0  0  0
    0.4425    3.0806   -3.3537 H   0  0  0  0  0  0  0  0  0  0  0  0
   -0.8544    2.2381   -2.4731 H   0  0  0  0  0  0  0  0  0  0  0  0
   -0.4584    1.7633   -4.1426 H   0  0  0  0  0  0  0  0  0  0  0  0
   -1.7648    1.6215    0.9522 N   0  0  0  0  0  0  0  0  0  0  0  0
   -2.7263    2.2568    1.8225 C   0  0  2  0  0  0  0  0  0  0  0  0
   -3.6597    3.0955    0.9594 C   0  0  0  0  0  0  0  0  0  0  0  0
   -3.3535    3.5035   -0.1590 O   0  0  0  0  0  0  0  0  0  0  0  0
   -2.0392    3.1155    2.8729 C   0  0  0  0  0  0  0  0  0  0  0  0
   -1.3704    2.1744    0.1970 H   0  0  0  0  0  0  0  0  0  0  0  0
   -3.2957    1.4544    2.3041 H   0  0  0  0  0  0  0  0  0  0  0  0
   -1.4637    3.9250    2.4092 H   0  0  0  0  0  0  0  0  0  0  0  0
   -2.7680    3.5737    3.5495 H   0  0  0  0  0  0  0  0  0  0  0  0
   -1.3460    2.5166    3.4733 H   0  0  0  0  0  0  0  0  0  0  0  0
   -4.8583    3.3710    1.6025 N   0  0  0  0  0  0  0  0  0  0  0  0
   -5.9049    4.1604    0.9963 C   0  0  0  0  0  0  0  0  0  0  0  0
   -5.0346    2.9759    2.5215 H   0  0  0  0  0  0  0  0  0  0  0  0
   -5.7826    5.2151    1.2838 H   0  0  0  0  0  0  0  0  0  0  0  0
   -5.8451    4.0696   -0.0983 H   0  0  0  0  0  0  0  0  0  0  0  0
   -6.8843    3.7975    1.3414 H   0  0  0  0  0  0  0  0  0  0  0  0
  1  3  1  0  0  0  0
  1  7  1  0  0  0  0
  1  2  2  0  0  0  0
 35 36  1  0  0  0  0
 36 44  1  0  0  0  0
 36 37  2  0  0  0  0
  8  9  1  0  0  0  0
  9 17  1  0  0  0  0
  9 10  2  0  0  0  0
 18 19  1  0  0  0  0
 19 34  1  0  0  0  0
 19 20  2  0  0  0  0
 35 38  1  0  0  0  0
  8 11  1  0  0  0  0
 44 45  1  0  0  0  0
 23 24  1  0  0  0  0
 21 22  1  0  0  0  0
 18 21  1  0  0  0  0
 22 23  1  0  0  0  0
 34 35  1  0  0  0  0
  7  8  1  0  0  0  0
 17 18  1  0  0  0  0
  3  4  1  0  0  0  0
  3  5  1  0  0  0  0
  3  6  1  0  0  0  0
 38 41  1  0  0  0  0
 38 42  1  0  0  0  0
 38 43  1  0  0  0  0
 11 14  1  0  0  0  0
 11 15  1  0  0  0  0
 11 16  1  0  0  0  0
 45 47  1  0  0  0  0
 45 48  1  0  0  0  0
 45 49  1  0  0  0  0
 24 31  1  0  0  0  0
 24 32  1  0  0  0  0
 24 33  1  0  0  0  0
 21 27  1  0  0  0  0
 21 28  1  0  0  0  0
 22 29  1  0  0  0  0
 22 30  1  0  0  0  0
 35 40  1  0  0  0  0
  8 13  1  0  0  0  0
 18 26  1  0  0  0  0
 44 46  1  0  0  0  0
  7 12  1  0  0  0  0
 34 39  1  0  0  0  0
 17 25  1  0  0  0  0
M  END
$$$$

  -OEChem-05262214473D

 49 48  0     1  0  0  0  0  0999 V2000
   -0.0561   -5.3799    2.6949 C   0  0  0  0  0  0  0  0  0  0  0  0
    0.7325   -5.0736    3.5815 O   0  0  0  0  0  0  0  0  0  0  0  0
   -1.0067   -6.5099    2.9135 C   0  0  0  0  0  0  0  0  0  0  0  0
   -0.5910   -7.4777    2.5899 H   0  0  0  0  0  0  0  0  0  0  0  0
   -1.2629   -6.6440    3.9767 H   0  0  0  0  0  0  0  0  0  0  0  0
   -1.9729   -6.4206    2.3918 H   0  0  0  0  0  0  0  0  0  0  0  0
   -0.1735   -4.7694    1.4571 N   0  0  0  0  0  0  0  0  0  0  0  0
    0.6439   -3.6603    1.0409 C   0  0  2  0  0  0  0  0  0  0  0  0
   -0.2788   -2.5625    0.5280 C   0  0  0  0  0  0  0  0  0  0  0  0
   -1.4197   -2.7791    0.1251 O   0  0  0  0  0  0  0  0  0  0  0  0
    1.6395   -4.0779   -0.0301 C   0  0  0  0  0  0  0  0  0  0  0  0
   -0.8741   -5.1235    0.8083 H   0  0  0  0  0  0  0  0  0  0  0  0
    1.1738   -3.3062    1.9318 H   0  0  0  0  0  0  0  0  0  0  0  0
    1.1270   -4.4358   -0.9305 H   0  0  0  0  0  0  0  0  0  0  0  0
    2.2797   -3.2400   -0.3251 H   0  0  0  0  0  0  0  0  0  0  0  0
    2.2827   -4.8880    0.3303 H   0  0  0  0  0  0  0  0  0  0  0  0
    0.3351   -1.3153    0.5316 N   0  0  0  0  0  0  0  0  0  0  0  0
   -0.3268   -0.1184    0.0807 C   0  0  2  0  0  0  0  0  0  0  0  0
   -1.0387    0.5250    1.2668 C   0  0  0  0  0  0  0  0  0  0  0  0
   -1.0356    0.0357    2.3945 O   0  0  0  0  0  0  0  0  0  0  0  0
   -1.2664   -0.3874   -1.1027 C   0  0  0  0  0  0  0  0  0  0  0  0
   -0.5395   -0.8224   -2.3775 C   0  0  0  0  0  0  0  0  0  0  0  0
    0.6053    0.4757   -2.9327 S   0  0  0  0  0  0  0  0  0  0  0  0
   -0.6196    1.7039   -3.4393 C   0  0  0  0  0  0  0  0  0  0  0  0
    1.2790   -1.2290    0.9021 H   0  0  0  0  0  0  0  0  0  0  0  0
    0.4712    0.5603   -0.2443 H   0  0  0  0  0  0  0  0  0  0  0  0
   -1.8387    0.5279   -1.3047 H   0  0  0  0  0  0  0  0  0  0  0  0
   -1.9912   -1.1600   -0.8156 H   0  0  0  0  0  0  0  0  0  0  0  0
   -1.2491   -1.0127   -3.1881 H   0  0  0  0  0  0  0  0  0  0  0  0
    0.0395   -1.7352   -2.2090 H   0  0  0  0  0  0  0  0  0  0  0  0
   -0.1162    2.5965   -3.8188 H   0  0  0  0  0  0  0  0  0  0  0  0
   -1.2418    1.9817   -2.5849 H   0  0  0  0  0  0  0  0  0  0  0  0
   -1.2560    1.2909   -4.2257 H   0  0  0  0  0  0  0  0  0  0  0  0
   -1.7036    1.6898    0.9112 N   0  0  0  0  0  0  0  0  0  0  0  0
   -2.4619    2.4727    1.8585 C   0  0  2  0  0  0  0  0  0  0  0  0
   -3.7188    2.9711    1.1574 C   0  0  0  0  0  0  0  0  0  0  0  0
   -3.8098    3.0729   -0.0643 O   0  0  0  0  0  0  0  0  0  0  0  0
   -1.6427    3.6353    2.3969 C   0  0  0  0  0  0  0  0  0  0  0  0
   -1.6296    2.0374   -0.0403 H   0  0  0  0  0  0  0  0  0  0  0  0
   -2.7416    1.7977    2.6746 H   0  0  0  0  0  0  0  0  0  0  0  0
   -1.3532    4.3225    1.5936 H   0  0  0  0  0  0  0  0  0  0  0  0
   -2.2092    4.2111    3.1363 H   0  0  0  0  0  0  0  0  0  0  0  0
   -0.7245    3.2768    2.8746 H   0  0  0  0  0  0  0  0  0  0  0  0
   -4.7116    3.3295    2.0584 N   0  0  0  0  0  0  0  0  0  0  0  0
   -5.9948    3.8441    1.6406 C   0  0  0  0  0  0  0  0  0  0  0  0
   -4.5565    3.1938    3.0530 H   0  0  0  0  0  0  0  0  0  0  0  0
   -5.9574    4.9430    1.6097 H   0  0  0  0  0  0  0  0  0  0  0  0
   -6.2365    3.4573    0.6396 H   0  0  0  0  0  0  0  0  0  0  0  0
   -6.7683    3.5236    2.3541 H   0  0  0  0  0  0  0  0  0  0  0  0
  1  3  1  0  0  0  0
  1  7  1  0  0  0  0
  1  2  2  0  0  0  0
 35 36  1  0  0  0  0
 36 44  1  0  0  0  0
 36 37  2  0  0  0  0
  8  9  1  0  0  0  0
  9 17  1  0  0  0  0
  9 10  2  0  0  0  0
 18 19  1  0  0  0  0
 19 34  1  0  0  0  0
 19 20  2  0  0  0  0
 35 38  1  0  0  0  0
  8 11  1  0  0  0  0
 44 45  1  0  0  0  0
 23 24  1  0  0  0  0
 21 22  1  0  0  0  0
 18 21  1  0  0  0  0
 22 23  1  0  0  0  0
 34 35  1  0  0  0  0
  7  8  1  0  0  0  0
 17 18  1  0  0  0  0
  3  4  1  0  0  0  0
  3  5  1  0  0  0  0
  3  6  1  0  0  0  0
 38 41  1  0  0  0  0
 38 42  1  0  0  0  0
 38 43  1  0  0  0  0
 11 14  1  0  0  0  0
 11 15  1  0  0  0  0
 11 16  1  0  0  0  0
 45 47  1  0  0  0  0
 45 48  1  0  0  0  0
 45 49  1  0  0  0  0
 24 31  1  0  0  0  0
 24 32  1  0  0  0  0
 24 33  1  0  0  0  0
 21 27  1  0  0  0  0
 21 28  1  0  0  0  0
 22 29  1  0  0  0  0
 22 30  1  0  0  0  0
 35 40  1  0  0  0  0
  8 13  1  0  0  0  0
 18 26  1  0  0  0  0
 44 46  1  0  0  0  0
  7 12  1  0  0  0  0
 34 39  1  0  0  0  0
 17 25  1  0  0  0  0
M  END
$$$$

  -OEChem-05262214473D

 49 48  0     1  0  0  0  0  0999 V2000
   -0.0561   -5.3799    2.6949 C   0  0  0  0  0  0  0  0  0  0  0  0
    0.7325   -5.0736    3.5815 O   0  0  0  0  0  0  0  0  0  0  0  0
   -1.0067   -6.5099    2.9135 C   0  0  0  0  0  0  0  0  0  0  0  0
   -0.5910   -7.4777    2.5899 H   0  0  0  0  0  0  0  0  0  0  0  0
   -1.2629   -6.6440    3.9767 H   0  0  0  0  0  0  0  0  0  0  0  0
   -1.9729   -6.4206    2.3918 H   0  0  0  0  0  0  0  0  0  0  0  0
   -0.1735   -4.7694    1.4571 N   0  0  0  0  0  0  0  0  0  0  0  0
    0.6439   -3.6603    1.0409 C   0  0  2  0  0  0  0  0  0  0  0  0
   -0.2788   -2.5625    0.5280 C   0  0  0  0  0  0  0  0  0  0  0  0
   -1.4197   -2.7791    0.1251 O   0  0  0  0  0  0  0  0  0  0  0  0
    1.6395   -4.0779   -0.0301 C   0  0  0  0  0  0  0  0  0  0  0  0
   -0.8741   -5.1235    0.8083 H   0  0  0  0  0  0  0  0  0  0  0  0
    1.1738   -3.3062    1.9318 H   0  0  0  0  0  0  0  0  0  0  0  0
    1.1270   -4.4358   -0.9305 H   0  0  0  0  0  0  0  0  0  0  0  0
    2.2797   -3.2400   -0.3251 H   0  0  0  0  0  0  0  0  0  0  0  0
    2.2827   -4.8880    0.3303 H   0  0  0  0  0  0  0  0  0  0  0  0
    0.3351   -1.3153    0.5316 N   0  0  0  0  0  0  0  0  0  0  0  0
   -0.3268   -0.1184    0.0807 C   0  0  2  0  0  0  0  0  0  0  0  0
   -1.0387    0.5250    1.2668 C   0  0  0  0  0  0  0  0  0  0  0  0
   -0.8248    0.1989    2.4326 O   0  0  0  0  0  0  0  0  0  0  0  0
   -1.2664   -0.3874   -1.1027 C   0  0  0  0  0  0  0  0  0  0  0  0
   -0.5395   -0.8224   -2.3775 C   0  0  0  0  0  0  0  0  0  0  0  0
    0.6053    0.4757   -2.9327 S   0  0  0  0  0  0  0  0  0  0  0  0
   -0.6196    1.7039   -3.4393 C   0  0  0  0  0  0  0  0  0  0  0  0
    1.2790   -1.2290    0.9021 H   0  0  0  0  0  0  0  0  0  0  0  0
    0.4712    0.5603   -0.2443 H   0  0  0  0  0  0  0  0  0  0  0  0
   -1.8387    0.5279   -1.3047 H   0  0  0  0  0  0  0  0  0  0  0  0
   -1.9912   -1.1600   -0.8156 H   0  0  0  0  0  0  0  0  0  0  0  0
   -1.2491   -1.0127   -3.1881 H   0  0  0  0  0  0  0  0  0  0  0  0
    0.0395   -1.7352   -2.2090 H   0  0  0  0  0  0  0  0  0  0  0  0
   -0.1162    2.5965   -3.8188 H   0  0  0  0  0  0  0  0  0  0  0  0
   -1.2418    1.9817   -2.5849 H   0  0  0  0  0  0  0  0  0  0  0  0
   -1.2560    1.2909   -4.2257 H   0  0  0  0  0  0  0  0  0  0  0  0
   -1.9625    1.4809    0.8691 N   0  0  0  0  0  0  0  0  0  0  0  0
   -2.7717    2.2194    1.8100 C   0  0  2  0  0  0  0  0  0  0  0  0
   -4.1665    2.3668    1.2164 C   0  0  0  0  0  0  0  0  0  0  0  0
   -4.3945    2.2869    0.0111 O   0  0  0  0  0  0  0  0  0  0  0  0
   -2.1639    3.5798    2.1142 C   0  0  0  0  0  0  0  0  0  0  0  0
   -2.0549    1.7076   -0.1166 H   0  0  0  0  0  0  0  0  0  0  0  0
   -2.8246    1.6166    2.7231 H   0  0  0  0  0  0  0  0  0  0  0  0
   -2.1027    4.1981    1.2112 H   0  0  0  0  0  0  0  0  0  0  0  0
   -2.7635    4.1268    2.8493 H   0  0  0  0  0  0  0  0  0  0  0  0
   -1.1494    3.4730    2.5132 H   0  0  0  0  0  0  0  0  0  0  0  0
   -5.1202    2.6410    2.1867 N   0  0  0  0  0  0  0  0  0  0  0  0
   -6.5167    2.8364    1.8740 C   0  0  0  0  0  0  0  0  0  0  0  0
   -4.8447    2.6705    3.1639 H   0  0  0  0  0  0  0  0  0  0  0  0
   -6.7117    3.9078    1.7185 H   0  0  0  0  0  0  0  0  0  0  0  0
   -6.7684    2.2814    0.9582 H   0  0  0  0  0  0  0  0  0  0  0  0
   -7.1338    2.4687    2.7070 H   0  0  0  0  0  0  0  0  0  0  0  0
  1  3  1  0  0  0  0
  1  7  1  0  0  0  0
  1  2  2  0  0  0  0
 35 36  1  0  0  0  0
 36 44  1  0  0  0  0
 36 37  2  0  0  0  0
  8  9  1  0  0  0  0
  9 17  1  0  0  0  0
  9 10  2  0  0  0  0
 18 19  1  0  0  0  0
 19 34  1  0  0  0  0
 19 20  2  0  0  0  0
 35 38  1  0  0  0  0
  8 11  1  0  0  0  0
 44 45  1  0  0  0  0
 23 24  1  0  0  0  0
 21 22  1  0  0  0  0
 18 21  1  0  0  0  0
 22 23  1  0  0  0  0
 34 35  1  0  0  0  0
  7  8  1  0  0  0  0
 17 18  1  0  0  0  0
  3  4  1  0  0  0  0
  3  5  1  0  0  0  0
  3  6  1  0  0  0  0
 38 41  1  0  0  0  0
 38 42  1  0  0  0  0
 38 43  1  0  0  0  0
 11 14  1  0  0  0  0
 11 15  1  0  0  0  0
 11 16  1  0  0  0  0
 45 47  1  0  0  0  0
 45 48  1  0  0  0  0
 45 49  1  0  0  0  0
 24 31  1  0  0  0  0
 24 32  1  0  0  0  0
 24 33  1  0  0  0  0
 21 27  1  0  0  0  0
 21 28  1  0  0  0  0
 22 29  1  0  0  0  0
 22 30  1  0  0  0  0
 35 40  1  0  0  0  0
  8 13  1  0  0  0  0
 18 26  1  0  0  0  0
 44 46  1  0  0  0  0
  7 12  1  0  0  0  0
 34 39  1  0  0  0  0
 17 25  1  0  0  0  0
M  END
$$$$

  -OEChem-05262214473D

 49 48  0     1  0  0  0  0  0999 V2000
   -0.0561   -5.3799    2.6949 C   0  0  0  0  0  0  0  0  0  0  0  0
    0.7325   -5.0736    3.5815 O   0  0  0  0  0  0  0  0  0  0  0  0
   -1.0067   -6.5099    2.9135 C   0  0  0  0  0  0  0  0  0  0  0  0
   -0.5910   -7.4777    2.5899 H   0  0  0  0  0  0  0  0  0  0  0  0
   -1.2629   -6.6440    3.9767 H   0  0  0  0  0  0  0  0  0  0  0  0
   -1.9729   -6.4206    2.3918 H   0  0  0  0  0  0  0  0  0  0  0  0
   -0.1735   -4.7694    1.4571 N   0  0  0  0  0  0  0  0  0  0  0  0
    0.6439   -3.6603    1.0409 C   0  0  2  0  0  0  0  0  0  0  0  0
   -0.2788   -2.5625    0.5280 C   0  0  0  0  0  0  0  0  0  0  0  0
   -1.4197   -2.7791    0.1251 O   0  0  0  0  0  0  0  0  0  0  0  0
    1.6395   -4.0779   -0.0301 C   0  0  0  0  0  0  0  0  0  0  0  0
   -0.8741   -5.1235    0.8083 H   0  0  0  0  0  0  0  0  0  0  0  0
    1.1738   -3.3062    1.9318 H   0  0  0  0  0  0  0  0  0  0  0  0
    1.1270   -4.4358   -0.9305 H   0  0  0  0  0  0  0  0  0  0  0  0
    2.2797   -3.2400   -0.3251 H   0  0  0  0  0  0  0  0  0  0  0  0
    2.2827   -4.8880    0.3303 H   0  0  0  0  0  0  0  0  0  0  0  0
    0.3351   -1.3153    0.5316 N   0  0  0  0  0  0  0  0  0  0  0  0
   -0.3268   -0.1184    0.0807 C   0  0  2  0  0  0  0  0  0  0  0  0
   -1.0387    0.5250    1.2668 C   0  0  0  0  0  0  0  0  0  0  0  0
   -0.6498    0.4035    2.4266 O   0  0  0  0  0  0  0  0  0  0  0  0
   -1.2664   -0.3874   -1.1027 C   0  0  0  0  0  0  0  0  0  0  0  0
   -0.5395   -0.8224   -2.3775 C   0  0  0  0  0  0  0  0  0  0  0  0
    0.6053    0.4757   -2.9327 S   0  0  0  0  0  0  0  0  0  0  0  0
   -0.6196    1.7039   -3.4393 C   0  0  0  0  0  0  0  0  0  0  0  0
    1.2790   -1.2290    0.9021 H   0  0  0  0  0  0  0  0  0  0  0  0
    0.4712    0.5603   -0.2443 H   0  0  0  0  0  0  0  0  0  0  0  0
   -1.8387    0.5279   -1.3047 H   0  0  0  0  0  0  0  0  0  0  0  0
   -1.9912   -1.1600   -0.8156 H   0  0  0  0  0  0  0  0  0  0  0  0
   -1.2491   -1.0127   -3.1881 H   0  0  0  0  0  0  0  0  0  0  0  0
    0.0395   -1.7352   -2.2090 H   0  0  0  0  0  0  0  0  0  0  0  0
   -0.1162    2.5965   -3.8188 H   0  0  0  0  0  0  0  0  0  0  0  0
   -1.2418    1.9817   -2.5849 H   0  0  0  0  0  0  0  0  0  0  0  0
   -1.2560    1.2909   -4.2257 H   0  0  0  0  0  0  0  0  0  0  0  0
   -2.1751    1.2220    0.8819 N   0  0  0  0  0  0  0  0  0  0  0  0
   -3.0252    1.9065    1.8275 C   0  0  2  0  0  0  0  0  0  0  0  0
   -4.4709    1.7002    1.3953 C   0  0  0  0  0  0  0  0  0  0  0  0
   -4.7929    1.4191    0.2427 O   0  0  0  0  0  0  0  0  0  0  0  0
   -2.6870    3.3872    1.9047 C   0  0  0  0  0  0  0  0  0  0  0  0
   -2.4076    1.2943   -0.1041 H   0  0  0  0  0  0  0  0  0  0  0  0
   -2.8630    1.4308    2.8008 H   0  0  0  0  0  0  0  0  0  0  0  0
   -2.8435    3.8809    0.9386 H   0  0  0  0  0  0  0  0  0  0  0  0
   -3.3132    3.8993    2.6428 H   0  0  0  0  0  0  0  0  0  0  0  0
   -1.6387    3.5333    2.1867 H   0  0  0  0  0  0  0  0  0  0  0  0
   -5.3624    1.9092    2.4383 N   0  0  0  0  0  0  0  0  0  0  0  0
   -6.7925    1.7863    2.2781 C   0  0  0  0  0  0  0  0  0  0  0  0
   -5.0058    2.1204    3.3656 H   0  0  0  0  0  0  0  0  0  0  0  0
   -7.2201    2.7692    2.0310 H   0  0  0  0  0  0  0  0  0  0  0  0
   -7.0107    1.0770    1.4661 H   0  0  0  0  0  0  0  0  0  0  0  0
   -7.2360    1.4187    3.2152 H   0  0  0  0  0  0  0  0  0  0  0  0
  1  3  1  0  0  0  0
  1  7  1  0  0  0  0
  1  2  2  0  0  0  0
 35 36  1  0  0  0  0
 36 44  1  0  0  0  0
 36 37  2  0  0  0  0
  8  9  1  0  0  0  0
  9 17  1  0  0  0  0
  9 10  2  0  0  0  0
 18 19  1  0  0  0  0
 19 34  1  0  0  0  0
 19 20  2  0  0  0  0
 35 38  1  0  0  0  0
  8 11  1  0  0  0  0
 44 45  1  0  0  0  0
 23 24  1  0  0  0  0
 21 22  1  0  0  0  0
 18 21  1  0  0  0  0
 22 23  1  0  0  0  0
 34 35  1  0  0  0  0
  7  8  1  0  0  0  0
 17 18  1  0  0  0  0
  3  4  1  0  0  0  0
  3  5  1  0  0  0  0
  3  6  1  0  0  0  0
 38 41  1  0  0  0  0
 38 42  1  0  0  0  0
 38 43  1  0  0  0  0
 11 14  1  0  0  0  0
 11 15  1  0  0  0  0
 11 16  1  0  0  0  0
 45 47  1  0  0  0  0
 45 48  1  0  0  0  0
 45 49  1  0  0  0  0
 24 31  1  0  0  0  0
 24 32  1  0  0  0  0
 24 33  1  0  0  0  0
 21 27  1  0  0  0  0
 21 28  1  0  0  0  0
 22 29  1  0  0  0  0
 22 30  1  0  0  0  0
 35 40  1  0  0  0  0
  8 13  1  0  0  0  0
 18 26  1  0  0  0  0
 44 46  1  0  0  0  0
  7 12  1  0  0  0  0
 34 39  1  0  0  0  0
 17 25  1  0  0  0  0
M  END
$$$$

  -OEChem-05262214473D

 49 48  0     1  0  0  0  0  0999 V2000
   -0.0561   -5.3799    2.6949 C   0  0  0  0  0  0  0  0  0  0  0  0
    0.7325   -5.0736    3.5815 O   0  0  0  0  0  0  0  0  0  0  0  0
   -1.0067   -6.5099    2.9135 C   0  0  0  0  0  0  0  0  0  0  0  0
   -0.5910   -7.4777    2.5899 H   0  0  0  0  0  0  0  0  0  0  0  0
   -1.2629   -6.6440    3.9767 H   0  0  0  0  0  0  0  0  0  0  0  0
   -1.9729   -6.4206    2.3918 H   0  0  0  0  0  0  0  0  0  0  0  0
   -0.1735   -4.7694    1.4571 N   0  0  0  0  0  0  0  0  0  0  0  0
    0.6439   -3.6603    1.0409 C   0  0  2  0  0  0  0  0  0  0  0  0
   -0.2788   -2.5625    0.5280 C   0  0  0  0  0  0  0  0  0  0  0  0
   -1.4197   -2.7791    0.1251 O   0  0  0  0  0  0  0  0  0  0  0  0
    1.6395   -4.0779   -0.0301 C   0  0  0  0  0  0  0  0  0  0  0  0
   -0.8741   -5.1235    0.8083 H   0  0  0  0  0  0  0  0  0  0  0  0
    1.1738   -3.3062    1.9318 H   0  0  0  0  0  0  0  0  0  0  0  0
    1.1270   -4.4358   -0.9305 H   0  0  0  0  0  0  0  0  0  0  0  0
    2.2797   -3.2400   -0.3251 H   0  0  0  0  0  0  0  0  0  0  0  0
    2.2827   -4.8880    0.3303 H   0  0  0  0  0  0  0  0  0  0  0  0
    0.3351   -1.3153    0.5316 N   0  0  0  0  0  0  0  0  0  0  0  0
   -0.3268   -0.1184    0.0807 C   0  0  2  0  0  0  0  0  0  0  0  0
   -1.0387    0.5250    1.2668 C   0  0  0  0  0  0  0  0  0  0  0  0
   -0.5226    0.6355    2.3770 O   0  0  0  0  0  0  0  0  0  0  0  0
   -1.2664   -0.3874   -1.1027 C   0  0  0  0  0  0  0  0  0  0  0  0
   -0.5395   -0.8224   -2.3775 C   0  0  0  0  0  0  0  0  0  0  0  0
    0.6053    0.4757   -2.9327 S   0  0  0  0  0  0  0  0  0  0  0  0
   -0.6196    1.7039   -3.4393 C   0  0  0  0  0  0  0  0  0  0  0  0
    1.2790   -1.2290    0.9021 H   0  0  0  0  0  0  0  0  0  0  0  0
    0.4712    0.5603   -0.2443 H   0  0  0  0  0  0  0  0  0  0  0  0
   -1.8387    0.5279   -1.3047 H   0  0  0  0  0  0  0  0  0  0  0  0
   -1.9912   -1.1600   -0.8156 H   0  0  0  0  0  0  0  0  0  0  0  0
   -1.2491   -1.0127   -3.1881 H   0  0  0  0  0  0  0  0  0  0  0  0
    0.0395   -1.7352   -2.2090 H   0  0  0  0  0  0  0  0  0  0  0  0
   -0.1162    2.5965   -3.8188 H   0  0  0  0  0  0  0  0  0  0  0  0
   -1.2418    1.9817   -2.5849 H   0  0  0  0  0  0  0  0  0  0  0  0
   -1.2560    1.2909   -4.2257 H   0  0  0  0  0  0  0  0  0  0  0  0
   -2.3269    0.9306    0.9488 N   0  0  0  0  0  0  0  0  0  0  0  0
   -3.2053    1.5554    1.9099 C   0  0  2  0  0  0  0  0  0  0  0  0
   -4.6114    1.0166    1.6818 C   0  0  0  0  0  0  0  0  0  0  0  0
   -4.9778    0.5287    0.6147 O   0  0  0  0  0  0  0  0  0  0  0  0
   -3.1765    3.0706    1.7827 C   0  0  0  0  0  0  0  0  0  0  0  0
   -2.6637    0.8256   -0.0036 H   0  0  0  0  0  0  0  0  0  0  0  0
   -2.8542    1.2530    2.9026 H   0  0  0  0  0  0  0  0  0  0  0  0
   -3.5249    3.3925    0.7945 H   0  0  0  0  0  0  0  0  0  0  0  0
   -3.8210    3.5439    2.5308 H   0  0  0  0  0  0  0  0  0  0  0  0
   -2.1592    3.4537    1.9175 H   0  0  0  0  0  0  0  0  0  0  0  0
   -5.4215    1.1840    2.7962 N   0  0  0  0  0  0  0  0  0  0  0  0
   -6.8035    0.7653    2.8254 C   0  0  0  0  0  0  0  0  0  0  0  0
   -5.0286    1.5811    3.6445 H   0  0  0  0  0  0  0  0  0  0  0  0
   -7.4480    1.6048    2.5258 H   0  0  0  0  0  0  0  0  0  0  0  0
   -6.9470   -0.0737    2.1286 H   0  0  0  0  0  0  0  0  0  0  0  0
   -7.0681    0.4453    3.8440 H   0  0  0  0  0  0  0  0  0  0  0  0
  1  3  1  0  0  0  0
  1  7  1  0  0  0  0
  1  2  2  0  0  0  0
 35 36  1  0  0  0  0
 36 44  1  0  0  0  0
 36 37  2  0  0  0  0
  8  9  1  0  0  0  0
  9 17  1  0  0  0  0
  9 10  2  0  0  0  0
 18 19  1  0  0  0  0
 19 34  1  0  0  0  0
 19 20  2  0  0  0  0
 35 38  1  0  0  0  0
  8 11  1  0  0  0  0
 44 45  1  0  0  0  0
 23 24  1  0  0  0  0
 21 22  1  0  0  0  0
 18 21  1  0  0  0  0
 22 23  1  0  0  0  0
 34 35  1  0  0  0  0
  7  8  1  0  0  0  0
 17 18  1  0  0  0  0
  3  4  1  0  0  0  0
  3  5  1  0  0  0  0
  3  6  1  0  0  0  0
 38 41  1  0  0  0  0
 38 42  1  0  0  0  0
 38 43  1  0  0  0  0
 11 14  1  0  0  0  0
 11 15  1  0  0  0  0
 11 16  1  0  0  0  0
 45 47  1  0  0  0  0
 45 48  1  0  0  0  0
 45 49  1  0  0  0  0
 24 31  1  0  0  0  0
 24 32  1  0  0  0  0
 24 33  1  0  0  0  0
 21 27  1  0  0  0  0
 21 28  1  0  0  0  0
 22 29  1  0  0  0  0
 22 30  1  0  0  0  0
 35 40  1  0  0  0  0
  8 13  1  0  0  0  0
 18 26  1  0  0  0  0
 44 46  1  0  0  0  0
  7 12  1  0  0  0  0
 34 39  1  0  0  0  0
 17 25  1  0  0  0  0
M  END
$$$$

  -OEChem-05262214473D

 49 48  0     1  0  0  0  0  0999 V2000
   -0.0561   -5.3799    2.6949 C   0  0  0  0  0  0  0  0  0  0  0  0
    0.7325   -5.0736    3.5815 O   0  0  0  0  0  0  0  0  0  0  0  0
   -1.0067   -6.5099    2.9135 C   0  0  0  0  0  0  0  0  0  0  0  0
   -0.5910   -7.4777    2.5899 H   0  0  0  0  0  0  0  0  0  0  0  0
   -1.2629   -6.6440    3.9767 H   0  0  0  0  0  0  0  0  0  0  0  0
   -1.9729   -6.4206    2.3918 H   0  0  0  0  0  0  0  0  0  0  0  0
   -0.1735   -4.7694    1.4571 N   0  0  0  0  0  0  0  0  0  0  0  0
    0.6439   -3.6603    1.0409 C   0  0  2  0  0  0  0  0  0  0  0  0
   -0.2788   -2.5625    0.5280 C   0  0  0  0  0  0  0  0  0  0  0  0
   -1.4197   -2.7791    0.1251 O   0  0  0  0  0  0  0  0  0  0  0  0
    1.6395   -4.0779   -0.0301 C   0  0  0  0  0  0  0  0  0  0  0  0
   -0.8741   -5.1235    0.8083 H   0  0  0  0  0  0  0  0  0  0  0  0
    1.1738   -3.3062    1.9318 H   0  0  0  0  0  0  0  0  0  0  0  0
    1.1270   -4.4358   -0.9305 H   0  0  0  0  0  0  0  0  0  0  0  0
    2.2797   -3.2400   -0.3251 H   0  0  0  0  0  0  0  0  0  0  0  0
    2.2827   -4.8880    0.3303 H   0  0  0  0  0  0  0  0  0  0  0  0
    0.3351   -1.3153    0.5316 N   0  0  0  0  0  0  0  0  0  0  0  0
   -0.3268   -0.1184    0.0807 C   0  0  2  0  0  0  0  0  0  0  0  0
   -1.0387    0.5250    1.2668 C   0  0  0  0  0  0  0  0  0  0  0  0
   -0.4519    0.8793    2.2872 O   0  0  0  0  0  0  0  0  0  0  0  0
   -1.2664   -0.3874   -1.1027 C   0  0  0  0  0  0  0  0  0  0  0  0
   -0.5395   -0.8224   -2.3775 C   0  0  0  0  0  0  0  0  0  0  0  0
    0.6053    0.4757   -2.9327 S   0  0  0  0  0  0  0  0  0  0  0  0
   -0.6196    1.7039   -3.4393 C   0  0  0  0  0  0  0  0  0  0  0  0
    1.2790   -1.2290    0.9021 H   0  0  0  0  0  0  0  0  0  0  0  0
    0.4712    0.5603   -0.2443 H   0  0  0  0  0  0  0  0  0  0  0  0
   -1.8387    0.5279   -1.3047 H   0  0  0  0  0  0  0  0  0  0  0  0
   -1.9912   -1.1600   -0.8156 H   0  0  0  0  0  0  0  0  0  0  0  0
   -1.2491   -1.0127   -3.1881 H   0  0  0  0  0  0  0  0  0  0  0  0
    0.0395   -1.7352   -2.2090 H   0  0  0  0  0  0  0  0  0  0  0  0
   -0.1162    2.5965   -3.8188 H   0  0  0  0  0  0  0  0  0  0  0  0
   -1.2418    1.9817   -2.5849 H   0  0  0  0  0  0  0  0  0  0  0  0
   -1.2560    1.2909   -4.2257 H   0  0  0  0  0  0  0  0  0  0  0  0
   -2.4077    0.6268    1.0652 N   0  0  0  0  0  0  0  0  0  0  0  0
   -3.2995    1.1900    2.0516 C   0  0  2  0  0  0  0  0  0  0  0  0
   -4.5782    0.3627    2.0565 C   0  0  0  0  0  0  0  0  0  0  0  0
   -4.9367   -0.3236    1.1017 O   0  0  0  0  0  0  0  0  0  0  0  0
   -3.5988    2.6515    1.7565 C   0  0  0  0  0  0  0  0  0  0  0  0
   -2.8059    0.3335    0.1780 H   0  0  0  0  0  0  0  0  0  0  0  0
   -2.7988    1.0953    3.0213 H   0  0  0  0  0  0  0  0  0  0  0  0
   -4.1005    2.7663    0.7887 H   0  0  0  0  0  0  0  0  0  0  0  0
   -4.2521    3.0849    2.5209 H   0  0  0  0  0  0  0  0  0  0  0  0
   -2.6753    3.2396    1.7239 H   0  0  0  0  0  0  0  0  0  0  0  0
   -5.2937    0.5149    3.2359 N   0  0  0  0  0  0  0  0  0  0  0  0
   -6.5489   -0.1571    3.4785 C   0  0  0  0  0  0  0  0  0  0  0  0
   -4.9117    1.0892    3.9816 H   0  0  0  0  0  0  0  0  0  0  0  0
   -7.3798    0.4941    3.1693 H   0  0  0  0  0  0  0  0  0  0  0  0
   -6.5816   -1.0925    2.9005 H   0  0  0  0  0  0  0  0  0  0  0  0
   -6.6414   -0.3852    4.5506 H   0  0  0  0  0  0  0  0  0  0  0  0
  1  3  1  0  0  0  0
  1  7  1  0  0  0  0
  1  2  2  0  0  0  0
 35 36  1  0  0  0  0
 36 44  1  0  0  0  0
 36 37  2  0  0  0  0
  8  9  1  0  0  0  0
  9 17  1  0  0  0  0
  9 10  2  0  0  0  0
 18 19  1  0  0  0  0
 19 34  1  0  0  0  0
 19 20  2  0  0  0  0
 35 38  1  0  0  0  0
  8 11  1  0  0  0  0
 44 45  1  0  0  0  0
 23 24  1  0  0  0  0
 21 22  1  0  0  0  0
 18 21  1  0  0  0  0
 22 23  1  0  0  0  0
 34 35  1  0  0  0  0
  7  8  1  0  0  0  0
 17 18  1  0  0  0  0
  3  4  1  0  0  0  0
  3  5  1  0  0  0  0
  3  6  1  0  0  0  0
 38 41  1  0  0  0  0
 38 42  1  0  0  0  0
 38 43  1  0  0  0  0
 11 14  1  0  0  0  0
 11 15  1  0  0  0  0
 11 16  1  0  0  0  0
 45 47  1  0  0  0  0
 45 48  1  0  0  0  0
 45 49  1  0  0  0  0
 24 31  1  0  0  0  0
 24 32  1  0  0  0  0
 24 33  1  0  0  0  0
 21 27  1  0  0  0  0
 21 28  1  0  0  0  0
 22 29  1  0  0  0  0
 22 30  1  0  0  0  0
 35 40  1  0  0  0  0
  8 13  1  0  0  0  0
 18 26  1  0  0  0  0
 44 46  1  0  0  0  0
  7 12  1  0  0  0  0
 34 39  1  0  0  0  0
 17 25  1  0  0  0  0
M  END
$$$$

  -OEChem-05262214473D

 49 48  0     1  0  0  0  0  0999 V2000
   -0.0561   -5.3799    2.6949 C   0  0  0  0  0  0  0  0  0  0  0  0
    0.7325   -5.0736    3.5815 O   0  0  0  0  0  0  0  0  0  0  0  0
   -1.0067   -6.5099    2.9135 C   0  0  0  0  0  0  0  0  0  0  0  0
   -0.5910   -7.4777    2.5899 H   0  0  0  0  0  0  0  0  0  0  0  0
   -1.2629   -6.6440    3.9767 H   0  0  0  0  0  0  0  0  0  0  0  0
   -1.9729   -6.4206    2.3918 H   0  0  0  0  0  0  0  0  0  0  0  0
   -0.1735   -4.7694    1.4571 N   0  0  0  0  0  0  0  0  0  0  0  0
    0.6439   -3.6603    1.0409 C   0  0  2  0  0  0  0  0  0  0  0  0
   -0.2788   -2.5625    0.5280 C   0  0  0  0  0  0  0  0  0  0  0  0
   -1.4197   -2.7791    0.1251 O   0  0  0  0  0  0  0  0  0  0  0  0
    1.6395   -4.0779   -0.0301 C   0  0  0  0  0  0  0  0  0  0  0  0
   -0.8741   -5.1235    0.8083 H   0  0  0  0  0  0  0  0  0  0  0  0
    1.1738   -3.3062    1.9318 H   0  0  0  0  0  0  0  0  0  0  0  0
    1.1270   -4.4358   -0.9305 H   0  0  0  0  0  0  0  0  0  0  0  0
    2.2797   -3.2400   -0.3251 H   0  0  0  0  0  0  0  0  0  0  0  0
    2.2827   -4.8880    0.3303 H   0  0  0  0  0  0  0  0  0  0  0  0
    0.3351   -1.3153    0.5316 N   0  0  0  0  0  0  0  0  0  0  0  0
   -0.3268   -0.1184    0.0807 C   0  0  2  0  0  0  0  0  0  0  0  0
   -1.0387    0.5250    1.2668 C   0  0  0  0  0  0  0  0  0  0  0  0
   -0.4425    1.1182    2.1634 O   0  0  0  0  0  0  0  0  0  0  0  0
   -1.2664   -0.3874   -1.1027 C   0  0  0  0  0  0  0  0  0  0  0  0
   -0.5395   -0.8224   -2.3775 C   0  0  0  0  0  0  0  0  0  0  0  0
    0.6053    0.4757   -2.9327 S   0  0  0  0  0  0  0  0  0  0  0  0
   -0.6196    1.7039   -3.4393 C   0  0  0  0  0  0  0  0  0  0  0  0
    1.2790   -1.2290    0.9021 H   0  0  0  0  0  0  0  0  0  0  0  0
    0.4712    0.5603   -0.2443 H   0  0  0  0  0  0  0  0  0  0  0  0
   -1.8387    0.5279   -1.3047 H   0  0  0  0  0  0  0  0  0  0  0  0
   -1.9912   -1.1600   -0.8156 H   0  0  0  0  0  0  0  0  0  0  0  0
   -1.2491   -1.0127   -3.1881 H   0  0  0  0  0  0  0  0  0  0  0  0
    0.0395   -1.7352   -2.2090 H   0  0  0  0  0  0  0  0  0  0  0  0
   -0.1162    2.5965   -3.8188 H   0  0  0  0  0  0  0  0  0  0  0  0
   -1.2418    1.9817   -2.5849 H   0  0  0  0  0  0  0  0  0  0  0  0
   -1.2560    1.2909   -4.2257 H   0  0  0  0  0  0  0  0  0  0  0  0
   -2.4119    0.3310    1.2231 N   0  0  0  0  0  0  0  0  0  0  0  0
   -3.3015    0.8352    2.2428 C   0  0  2  0  0  0  0  0  0  0  0  0
   -4.3737   -0.2170    2.4937 C   0  0  0  0  0  0  0  0  0  0  0  0
   -4.6724   -1.0798    1.6706 O   0  0  0  0  0  0  0  0  0  0  0  0
   -3.9253    2.1586    1.8279 C   0  0  0  0  0  0  0  0  0  0  0  0
   -2.8243   -0.1485    0.4284 H   0  0  0  0  0  0  0  0  0  0  0  0
   -2.7007    0.9685    3.1490 H   0  0  0  0  0  0  0  0  0  0  0  0
   -4.5312    2.0449    0.9215 H   0  0  0  0  0  0  0  0  0  0  0  0
   -4.5774    2.5537    2.6139 H   0  0  0  0  0  0  0  0  0  0  0  0
   -3.1518    2.9056    1.6190 H   0  0  0  0  0  0  0  0  0  0  0  0
   -4.9876   -0.0527    3.7275 N   0  0  0  0  0  0  0  0  0  0  0  0
   -6.0461   -0.9180    4.1930 C   0  0  0  0  0  0  0  0  0  0  0  0
   -4.6630    0.6782    4.3537 H   0  0  0  0  0  0  0  0  0  0  0  0
   -7.0202   -0.4874    3.9176 H   0  0  0  0  0  0  0  0  0  0  0  0
   -5.9395   -1.9097    3.7293 H   0  0  0  0  0  0  0  0  0  0  0  0
   -5.9849   -1.0161    5.2869 H   0  0  0  0  0  0  0  0  0  0  0  0
  1  3  1  0  0  0  0
  1  7  1  0  0  0  0
  1  2  2  0  0  0  0
 35 36  1  0  0  0  0
 36 44  1  0  0  0  0
 36 37  2  0  0  0  0
  8  9  1  0  0  0  0
  9 17  1  0  0  0  0
  9 10  2  0  0  0  0
 18 19  1  0  0  0  0
 19 34  1  0  0  0  0
 19 20  2  0  0  0  0
 35 38  1  0  0  0  0
  8 11  1  0  0  0  0
 44 45  1  0  0  0  0
 23 24  1  0  0  0  0
 21 22  1  0  0  0  0
 18 21  1  0  0  0  0
 22 23  1  0  0  0  0
 34 35  1  0  0  0  0
  7  8  1  0  0  0  0
 17 18  1  0  0  0  0
  3  4  1  0  0  0  0
  3  5  1  0  0  0  0
  3  6  1  0  0  0  0
 38 41  1  0  0  0  0
 38 42  1  0  0  0  0
 38 43  1  0  0  0  0
 11 14  1  0  0  0  0
 11 15  1  0  0  0  0
 11 16  1  0  0  0  0
 45 47  1  0  0  0  0
 45 48  1  0  0  0  0
 45 49  1  0  0  0  0
 24 31  1  0  0  0  0
 24 32  1  0  0  0  0
 24 33  1  0  0  0  0
 21 27  1  0  0  0  0
 21 28  1  0  0  0  0
 22 29  1  0  0  0  0
 22 30  1  0  0  0  0
 35 40  1  0  0  0  0
  8 13  1  0  0  0  0
 18 26  1  0  0  0  0
 44 46  1  0  0  0  0
  7 12  1  0  0  0  0
 34 39  1  0  0  0  0
 17 25  1  0  0  0  0
M  END
$$$$

  -OEChem-05262214473D

 49 48  0     1  0  0  0  0  0999 V2000
   -0.0561   -5.3799    2.6949 C   0  0  0  0  0  0  0  0  0  0  0  0
    0.7325   -5.0736    3.5815 O   0  0  0  0  0  0  0  0  0  0  0  0
   -1.0067   -6.5099    2.9135 C   0  0  0  0  0  0  0  0  0  0  0  0
   -0.5910   -7.4777    2.5899 H   0  0  0  0  0  0  0  0  0  0  0  0
   -1.2629   -6.6440    3.9767 H   0  0  0  0  0  0  0  0  0  0  0  0
   -1.9729   -6.4206    2.3918 H   0  0  0  0  0  0  0  0  0  0  0  0
   -0.1735   -4.7694    1.4571 N   0  0  0  0  0  0  0  0  0  0  0  0
    0.6439   -3.6603    1.0409 C   0  0  2  0  0  0  0  0  0  0  0  0
   -0.2788   -2.5625    0.5280 C   0  0  0  0  0  0  0  0  0  0  0  0
   -1.4197   -2.7791    0.1251 O   0  0  0  0  0  0  0  0  0  0  0  0
    1.6395   -4.0779   -0.0301 C   0  0  0  0  0  0  0  0  0  0  0  0
   -0.8741   -5.1235    0.8083 H   0  0  0  0  0  0  0  0  0  0  0  0
    1.1738   -3.3062    1.9318 H   0  0  0  0  0  0  0  0  0  0  0  0
    1.1270   -4.4358   -0.9305 H   0  0  0  0  0  0  0  0  0  0  0  0
    2.2797   -3.2400   -0.3251 H   0  0  0  0  0  0  0  0  0  0  0  0
    2.2827   -4.8880    0.3303 H   0  0  0  0  0  0  0  0  0  0  0  0
    0.3351   -1.3153    0.5316 N   0  0  0  0  0  0  0  0  0  0  0  0
   -0.3268   -0.1184    0.0807 C   0  0  2  0  0  0  0  0  0  0  0  0
   -1.0387    0.5250    1.2668 C   0  0  0  0  0  0  0  0  0  0  0  0
   -0.4949    1.3358    2.0138 O   0  0  0  0  0  0  0  0  0  0  0  0
   -1.2664   -0.3874   -1.1027 C   0  0  0  0  0  0  0  0  0  0  0  0
   -0.5395   -0.8224   -2.3775 C   0  0  0  0  0  0  0  0  0  0  0  0
    0.6053    0.4757   -2.9327 S   0  0  0  0  0  0  0  0  0  0  0  0
   -0.6196    1.7039   -3.4393 C   0  0  0  0  0  0  0  0  0  0  0  0
    1.2790   -1.2290    0.9021 H   0  0  0  0  0  0  0  0  0  0  0  0
    0.4712    0.5603   -0.2443 H   0  0  0  0  0  0  0  0  0  0  0  0
   -1.8387    0.5279   -1.3047 H   0  0  0  0  0  0  0  0  0  0  0  0
   -1.9912   -1.1600   -0.8156 H   0  0  0  0  0  0  0  0  0  0  0  0
   -1.2491   -1.0127   -3.1881 H   0  0  0  0  0  0  0  0  0  0  0  0
    0.0395   -1.7352   -2.2090 H   0  0  0  0  0  0  0  0  0  0  0  0
   -0.1162    2.5965   -3.8188 H   0  0  0  0  0  0  0  0  0  0  0  0
   -1.2418    1.9817   -2.5849 H   0  0  0  0  0  0  0  0  0  0  0  0
   -1.2560    1.2909   -4.2257 H   0  0  0  0  0  0  0  0  0  0  0  0
   -2.3392    0.0636    1.4118 N   0  0  0  0  0  0  0  0  0  0  0  0
   -3.2113    0.5152    2.4706 C   0  0  2  0  0  0  0  0  0  0  0  0
   -4.0117   -0.6830    2.9637 C   0  0  0  0  0  0  0  0  0  0  0  0
   -4.2028   -1.6883    2.2826 O   0  0  0  0  0  0  0  0  0  0  0  0
   -4.1337    1.6254    1.9920 C   0  0  0  0  0  0  0  0  0  0  0  0
   -2.7179   -0.5876    0.7305 H   0  0  0  0  0  0  0  0  0  0  0  0
   -2.5664    0.8812    3.2770 H   0  0  0  0  0  0  0  0  0  0  0  0
   -4.7875    1.2775    1.1840 H   0  0  0  0  0  0  0  0  0  0  0  0
   -4.7744    1.9863    2.8034 H   0  0  0  0  0  0  0  0  0  0  0  0
   -3.5564    2.4743    1.6102 H   0  0  0  0  0  0  0  0  0  0  0  0
   -4.5241   -0.4799    4.2375 N   0  0  0  0  0  0  0  0  0  0  0  0
   -5.3294   -1.4654    4.9202 C   0  0  0  0  0  0  0  0  0  0  0  0
   -4.2994    0.3763    4.7357 H   0  0  0  0  0  0  0  0  0  0  0  0
   -6.3937   -1.2728    4.7196 H   0  0  0  0  0  0  0  0  0  0  0  0
   -5.0642   -2.4698    4.5585 H   0  0  0  0  0  0  0  0  0  0  0  0
   -5.1436   -1.4046    6.0027 H   0  0  0  0  0  0  0  0  0  0  0  0
  1  3  1  0  0  0  0
  1  7  1  0  0  0  0
  1  2  2  0  0  0  0
 35 36  1  0  0  0  0
 36 44  1  0  0  0  0
 36 37  2  0  0  0  0
  8  9  1  0  0  0  0
  9 17  1  0  0  0  0
  9 10  2  0  0  0  0
 18 19  1  0  0  0  0
 19 34  1  0  0  0  0
 19 20  2  0  0  0  0
 35 38  1  0  0  0  0
  8 11  1  0  0  0  0
 44 45  1  0  0  0  0
 23 24  1  0  0  0  0
 21 22  1  0  0  0  0
 18 21  1  0  0  0  0
 22 23  1  0  0  0  0
 34 35  1  0  0  0  0
  7  8  1  0  0  0  0
 17 18  1  0  0  0  0
  3  4  1  0  0  0  0
  3  5  1  0  0  0  0
  3  6  1  0  0  0  0
 38 41  1  0  0  0  0
 38 42  1  0  0  0  0
 38 43  1  0  0  0  0
 11 14  1  0  0  0  0
 11 15  1  0  0  0  0
 11 16  1  0  0  0  0
 45 47  1  0  0  0  0
 45 48  1  0  0  0  0
 45 49  1  0  0  0  0
 24 31  1  0  0  0  0
 24 32  1  0  0  0  0
 24 33  1  0  0  0  0
 21 27  1  0  0  0  0
 21 28  1  0  0  0  0
 22 29  1  0  0  0  0
 22 30  1  0  0  0  0
 35 40  1  0  0  0  0
  8 13  1  0  0  0  0
 18 26  1  0  0  0  0
 44 46  1  0  0  0  0
  7 12  1  0  0  0  0
 34 39  1  0  0  0  0
 17 25  1  0  0  0  0
M  END
$$$$

  -OEChem-05262214473D

 49 48  0     1  0  0  0  0  0999 V2000
   -0.0561   -5.3799    2.6949 C   0  0  0  0  0  0  0  0  0  0  0  0
    0.7325   -5.0736    3.5815 O   0  0  0  0  0  0  0  0  0  0  0  0
   -1.0067   -6.5099    2.9135 C   0  0  0  0  0  0  0  0  0  0  0  0
   -0.5910   -7.4777    2.5899 H   0  0  0  0  0  0  0  0  0  0  0  0
   -1.2629   -6.6440    3.9767 H   0  0  0  0  0  0  0  0  0  0  0  0
   -1.9729   -6.4206    2.3918 H   0  0  0  0  0  0  0  0  0  0  0  0
   -0.1735   -4.7694    1.4571 N   0  0  0  0  0  0  0  0  0  0  0  0
    0.6439   -3.6603    1.0409 C   0  0  2  0  0  0  0  0  0  0  0  0
   -0.2788   -2.5625    0.5280 C   0  0  0  0  0  0  0  0  0  0  0  0
   -1.4197   -2.7791    0.1251 O   0  0  0  0  0  0  0  0  0  0  0  0
    1.6395   -4.0779   -0.0301 C   0  0  0  0  0  0  0  0  0  0  0  0
   -0.8741   -5.1235    0.8083 H   0  0  0  0  0  0  0  0  0  0  0  0
    1.1738   -3.3062    1.9318 H   0  0  0  0  0  0  0  0  0  0  0  0
    1.1270   -4.4358   -0.9305 H   0  0  0  0  0  0  0  0  0  0  0  0
    2.2797   -3.2400   -0.3251 H   0  0  0  0  0  0  0  0  0  0  0  0
    2.2827   -4.8880    0.3303 H   0  0  0  0  0  0  0  0  0  0  0  0
    0.3351   -1.3153    0.5316 N   0  0  0  0  0  0  0  0  0  0  0  0
   -0.3268   -0.1184    0.0807 C   0  0  2  0  0  0  0  0  0  0  0  0
   -1.0387    0.5250    1.2668 C   0  0  0  0  0  0  0  0  0  0  0  0
   -0.6057    1.5175    1.8488 O   0  0  0  0  0  0  0  0  0  0  0  0
   -1.2664   -0.3874   -1.1027 C   0  0  0  0  0  0  0  0  0  0  0  0
   -0.5395   -0.8224   -2.3775 C   0  0  0  0  0  0  0  0  0  0  0  0
    0.6053    0.4757   -2.9327 S   0  0  0  0  0  0  0  0  0  0  0  0
   -0.6196    1.7039   -3.4393 C   0  0  0  0  0  0  0  0  0  0  0  0
    1.2790   -1.2290    0.9021 H   0  0  0  0  0  0  0  0  0  0  0  0
    0.4712    0.5603   -0.2443 H   0  0  0  0  0  0  0  0  0  0  0  0
   -1.8387    0.5279   -1.3047 H   0  0  0  0  0  0  0  0  0  0  0  0
   -1.9912   -1.1600   -0.8156 H   0  0  0  0  0  0  0  0  0  0  0  0
   -1.2491   -1.0127   -3.1881 H   0  0  0  0  0  0  0  0  0  0  0  0
    0.0395   -1.7352   -2.2090 H   0  0  0  0  0  0  0  0  0  0  0  0
   -0.1162    2.5965   -3.8188 H   0  0  0  0  0  0  0  0  0  0  0  0
   -1.2418    1.9817   -2.5849 H   0  0  0  0  0  0  0  0  0  0  0  0
   -1.2560    1.2909   -4.2257 H   0  0  0  0  0  0  0  0  0  0  0  0
   -2.1946   -0.1573    1.6185 N   0  0  0  0  0  0  0  0  0  0  0  0
   -3.0348    0.2517    2.7195 C   0  0  2  0  0  0  0  0  0  0  0  0
   -3.5171   -1.0035    3.4345 C   0  0  0  0  0  0  0  0  0  0  0  0
   -3.5599   -2.1077    2.8960 O   0  0  0  0  0  0  0  0  0  0  0  0
   -4.2098    1.0883    2.2377 C   0  0  0  0  0  0  0  0  0  0  0  0
   -2.4937   -0.9538    1.0637 H   0  0  0  0  0  0  0  0  0  0  0  0
   -2.4052    0.8393    3.3965 H   0  0  0  0  0  0  0  0  0  0  0  0
   -4.8521    0.5163    1.5582 H   0  0  0  0  0  0  0  0  0  0  0  0
   -4.8300    1.4215    3.0765 H   0  0  0  0  0  0  0  0  0  0  0  0
   -3.8613    1.9753    1.6978 H   0  0  0  0  0  0  0  0  0  0  0  0
   -3.9347   -0.7377    4.7311 N   0  0  0  0  0  0  0  0  0  0  0  0
   -4.4476   -1.7622    5.6105 C   0  0  0  0  0  0  0  0  0  0  0  0
   -3.8459    0.2039    5.1015 H   0  0  0  0  0  0  0  0  0  0  0  0
   -5.5430   -1.8084    5.5208 H   0  0  0  0  0  0  0  0  0  0  0  0
   -4.0157   -2.7346    5.3315 H   0  0  0  0  0  0  0  0  0  0  0  0
   -4.1746   -1.5241    6.6491 H   0  0  0  0  0  0  0  0  0  0  0  0
  1  3  1  0  0  0  0
  1  7  1  0  0  0  0
  1  2  2  0  0  0  0
 35 36  1  0  0  0  0
 36 44  1  0  0  0  0
 36 37  2  0  0  0  0
  8  9  1  0  0  0  0
  9 17  1  0  0  0  0
  9 10  2  0  0  0  0
 18 19  1  0  0  0  0
 19 34  1  0  0  0  0
 19 20  2  0  0  0  0
 35 38  1  0  0  0  0
  8 11  1  0  0  0  0
 44 45  1  0  0  0  0
 23 24  1  0  0  0  0
 21 22  1  0  0  0  0
 18 21  1  0  0  0  0
 22 23  1  0  0  0  0
 34 35  1  0  0  0  0
  7  8  1  0  0  0  0
 17 18  1  0  0  0  0
  3  4  1  0  0  0  0
  3  5  1  0  0  0  0
  3  6  1  0  0  0  0
 38 41  1  0  0  0  0
 38 42  1  0  0  0  0
 38 43  1  0  0  0  0
 11 14  1  0  0  0  0
 11 15  1  0  0  0  0
 11 16  1  0  0  0  0
 45 47  1  0  0  0  0
 45 48  1  0  0  0  0
 45 49  1  0  0  0  0
 24 31  1  0  0  0  0
 24 32  1  0  0  0  0
 24 33  1  0  0  0  0
 21 27  1  0  0  0  0
 21 28  1  0  0  0  0
 22 29  1  0  0  0  0
 22 30  1  0  0  0  0
 35 40  1  0  0  0  0
  8 13  1  0  0  0  0
 18 26  1  0  0  0  0
 44 46  1  0  0  0  0
  7 12  1  0  0  0  0
 34 39  1  0  0  0  0
 17 25  1  0  0  0  0
M  END
$$$$

  -OEChem-05262214473D

 49 48  0     1  0  0  0  0  0999 V2000
   -0.0561   -5.3799    2.6949 C   0  0  0  0  0  0  0  0  0  0  0  0
    0.7325   -5.0736    3.5815 O   0  0  0  0  0  0  0  0  0  0  0  0
   -1.0067   -6.5099    2.9135 C   0  0  0  0  0  0  0  0  0  0  0  0
   -0.5910   -7.4777    2.5899 H   0  0  0  0  0  0  0  0  0  0  0  0
   -1.2629   -6.6440    3.9767 H   0  0  0  0  0  0  0  0  0  0  0  0
   -1.9729   -6.4206    2.3918 H   0  0  0  0  0  0  0  0  0  0  0  0
   -0.1735   -4.7694    1.4571 N   0  0  0  0  0  0  0  0  0  0  0  0
    0.6439   -3.6603    1.0409 C   0  0  2  0  0  0  0  0  0  0  0  0
   -0.2788   -2.5625    0.5280 C   0  0  0  0  0  0  0  0  0  0  0  0
   -1.4197   -2.7791    0.1251 O   0  0  0  0  0  0  0  0  0  0  0  0
    1.6395   -4.0779   -0.0301 C   0  0  0  0  0  0  0  0  0  0  0  0
   -0.8741   -5.1235    0.8083 H   0  0  0  0  0  0  0  0  0  0  0  0
    1.1738   -3.3062    1.9318 H   0  0  0  0  0  0  0  0  0  0  0  0
    1.1270   -4.4358   -0.9305 H   0  0  0  0  0  0  0  0  0  0  0  0
    2.2797   -3.2400   -0.3251 H   0  0  0  0  0  0  0  0  0  0  0  0
    2.2827   -4.8880    0.3303 H   0  0  0  0  0  0  0  0  0  0  0  0
    0.3351   -1.3153    0.5316 N   0  0  0  0  0  0  0  0  0  0  0  0
   -0.3268   -0.1184    0.0807 C   0  0  2  0  0  0  0  0  0  0  0  0
   -1.0387    0.5250    1.2668 C   0  0  0  0  0  0  0  0  0  0  0  0
   -0.7672    1.6507    1.6795 O   0  0  0  0  0  0  0  0  0  0  0  0
   -1.2664   -0.3874   -1.1027 C   0  0  0  0  0  0  0  0  0  0  0  0
   -0.5395   -0.8224   -2.3775 C   0  0  0  0  0  0  0  0  0  0  0  0
    0.6053    0.4757   -2.9327 S   0  0  0  0  0  0  0  0  0  0  0  0
   -0.6196    1.7039   -3.4393 C   0  0  0  0  0  0  0  0  0  0  0  0
    1.2790   -1.2290    0.9021 H   0  0  0  0  0  0  0  0  0  0  0  0
    0.4712    0.5603   -0.2443 H   0  0  0  0  0  0  0  0  0  0  0  0
   -1.8387    0.5279   -1.3047 H   0  0  0  0  0  0  0  0  0  0  0  0
   -1.9912   -1.1600   -0.8156 H   0  0  0  0  0  0  0  0  0  0  0  0
   -1.2491   -1.0127   -3.1881 H   0  0  0  0  0  0  0  0  0  0  0  0
    0.0395   -1.7352   -2.2090 H   0  0  0  0  0  0  0  0  0  0  0  0
   -0.1162    2.5965   -3.8188 H   0  0  0  0  0  0  0  0  0  0  0  0
   -1.2418    1.9817   -2.5849 H   0  0  0  0  0  0  0  0  0  0  0  0
   -1.2560    1.2909   -4.2257 H   0  0  0  0  0  0  0  0  0  0  0  0
   -1.9878   -0.3166    1.8289 N   0  0  0  0  0  0  0  0  0  0  0  0
   -2.7841    0.0628    2.9724 C   0  0  2  0  0  0  0  0  0  0  0  0
   -2.9234   -1.1567    3.8740 C   0  0  0  0  0  0  0  0  0  0  0  0
   -2.7876   -2.3094    3.4689 O   0  0  0  0  0  0  0  0  0  0  0  0
   -4.1484    0.5838    2.5482 C   0  0  0  0  0  0  0  0  0  0  0  0
   -2.1671   -1.2222    1.4053 H   0  0  0  0  0  0  0  0  0  0  0  0
   -2.2280    0.8457    3.4994 H   0  0  0  0  0  0  0  0  0  0  0  0
   -4.7204   -0.1867    2.0186 H   0  0  0  0  0  0  0  0  0  0  0  0
   -4.7401    0.8977    3.4145 H   0  0  0  0  0  0  0  0  0  0  0  0
   -4.0459    1.4425    1.8760 H   0  0  0  0  0  0  0  0  0  0  0  0
   -3.2597   -0.8085    5.1747 N   0  0  0  0  0  0  0  0  0  0  0  0
   -3.4608   -1.7880    6.2168 C   0  0  0  0  0  0  0  0  0  0  0  0
   -3.3331    0.1729    5.4261 H   0  0  0  0  0  0  0  0  0  0  0  0
   -4.5260   -2.0578    6.2665 H   0  0  0  0  0  0  0  0  0  0  0  0
   -2.8652   -2.6860    5.9957 H   0  0  0  0  0  0  0  0  0  0  0  0
   -3.1440   -1.3664    7.1822 H   0  0  0  0  0  0  0  0  0  0  0  0
  1  3  1  0  0  0  0
  1  7  1  0  0  0  0
  1  2  2  0  0  0  0
 35 36  1  0  0  0  0
 36 44  1  0  0  0  0
 36 37  2  0  0  0  0
  8  9  1  0  0  0  0
  9 17  1  0  0  0  0
  9 10  2  0  0  0  0
 18 19  1  0  0  0  0
 19 34  1  0  0  0  0
 19 20  2  0  0  0  0
 35 38  1  0  0  0  0
  8 11  1  0  0  0  0
 44 45  1  0  0  0  0
 23 24  1  0  0  0  0
 21 22  1  0  0  0  0
 18 21  1  0  0  0  0
 22 23  1  0  0  0  0
 34 35  1  0  0  0  0
  7  8  1  0  0  0  0
 17 18  1  0  0  0  0
  3  4  1  0  0  0  0
  3  5  1  0  0  0  0
  3  6  1  0  0  0  0
 38 41  1  0  0  0  0
 38 42  1  0  0  0  0
 38 43  1  0  0  0  0
 11 14  1  0  0  0  0
 11 15  1  0  0  0  0
 11 16  1  0  0  0  0
 45 47  1  0  0  0  0
 45 48  1  0  0  0  0
 45 49  1  0  0  0  0
 24 31  1  0  0  0  0
 24 32  1  0  0  0  0
 24 33  1  0  0  0  0
 21 27  1  0  0  0  0
 21 28  1  0  0  0  0
 22 29  1  0  0  0  0
 22 30  1  0  0  0  0
 35 40  1  0  0  0  0
  8 13  1  0  0  0  0
 18 26  1  0  0  0  0
 44 46  1  0  0  0  0
  7 12  1  0  0  0  0
 34 39  1  0  0  0  0
 17 25  1  0  0  0  0
M  END
$$$$

  -OEChem-05262214473D

 49 48  0     1  0  0  0  0  0999 V2000
   -0.0561   -5.3799    2.6949 C   0  0  0  0  0  0  0  0  0  0  0  0
    0.7325   -5.0736    3.5815 O   0  0  0  0  0  0  0  0  0  0  0  0
   -1.0067   -6.5099    2.9135 C   0  0  0  0  0  0  0  0  0  0  0  0
   -0.5910   -7.4777    2.5899 H   0  0  0  0  0  0  0  0  0  0  0  0
   -1.2629   -6.6440    3.9767 H   0  0  0  0  0  0  0  0  0  0  0  0
   -1.9729   -6.4206    2.3918 H   0  0  0  0  0  0  0  0  0  0  0  0
   -0.1735   -4.7694    1.4571 N   0  0  0  0  0  0  0  0  0  0  0  0
    0.6439   -3.6603    1.0409 C   0  0  2  0  0  0  0  0  0  0  0  0
   -0.2788   -2.5625    0.5280 C   0  0  0  0  0  0  0  0  0  0  0  0
   -1.4197   -2.7791    0.1251 O   0  0  0  0  0  0  0  0  0  0  0  0
    1.6395   -4.0779   -0.0301 C   0  0  0  0  0  0  0  0  0  0  0  0
   -0.8741   -5.1235    0.8083 H   0  0  0  0  0  0  0  0  0  0  0  0
    1.1738   -3.3062    1.9318 H   0  0  0  0  0  0  0  0  0  0  0  0
    1.1270   -4.4358   -0.9305 H   0  0  0  0  0  0  0  0  0  0  0  0
    2.2797   -3.2400   -0.3251 H   0  0  0  0  0  0  0  0  0  0  0  0
    2.2827   -4.8880    0.3303 H   0  0  0  0  0  0  0  0  0  0  0  0
    0.3351   -1.3153    0.5316 N   0  0  0  0  0  0  0  0  0  0  0  0
   -0.3268   -0.1184    0.0807 C   0  0  2  0  0  0  0  0  0  0  0  0
   -1.0387    0.5250    1.2668 C   0  0  0  0  0  0  0  0  0  0  0  0
   -0.9686    1.7264    1.5176 O   0  0  0  0  0  0  0  0  0  0  0  0
   -1.2664   -0.3874   -1.1027 C   0  0  0  0  0  0  0  0  0  0  0  0
   -0.5395   -0.8224   -2.3775 C   0  0  0  0  0  0  0  0  0  0  0  0
    0.6053    0.4757   -2.9327 S   0  0  0  0  0  0  0  0  0  0  0  0
   -0.6196    1.7039   -3.4393 C   0  0  0  0  0  0  0  0  0  0  0  0
    1.2790   -1.2290    0.9021 H   0  0  0  0  0  0  0  0  0  0  0  0
    0.4712    0.5603   -0.2443 H   0  0  0  0  0  0  0  0  0  0  0  0
   -1.8387    0.5279   -1.3047 H   0  0  0  0  0  0  0  0  0  0  0  0
   -1.9912   -1.1600   -0.8156 H   0  0  0  0  0  0  0  0  0  0  0  0
   -1.2491   -1.0127   -3.1881 H   0  0  0  0  0  0  0  0  0  0  0  0
    0.0395   -1.7352   -2.2090 H   0  0  0  0  0  0  0  0  0  0  0  0
   -0.1162    2.5965   -3.8188 H   0  0  0  0  0  0  0  0  0  0  0  0
   -1.2418    1.9817   -2.5849 H   0  0  0  0  0  0  0  0  0  0  0  0
   -1.2560    1.2909   -4.2257 H   0  0  0  0  0  0  0  0  0  0  0  0
   -1.7332   -0.4034    2.0289 N   0  0  0  0  0  0  0  0  0  0  0  0
   -2.4764   -0.0387    3.2121 C   0  0  2  0  0  0  0  0  0  0  0  0
   -2.2711   -1.1322    4.2522 C   0  0  0  0  0  0  0  0  0  0  0  0
   -1.9385   -2.2796    3.9624 O   0  0  0  0  0  0  0  0  0  0  0  0
   -3.9538    0.1464    2.9024 C   0  0  0  0  0  0  0  0  0  0  0  0
   -1.7603   -1.3744    1.7320 H   0  0  0  0  0  0  0  0  0  0  0  0
   -2.0468    0.9000    3.5787 H   0  0  0  0  0  0  0  0  0  0  0  0
   -4.4015   -0.7837    2.5338 H   0  0  0  0  0  0  0  0  0  0  0  0
   -4.5111    0.4507    3.7945 H   0  0  0  0  0  0  0  0  0  0  0  0
   -4.0976    0.9123    2.1327 H   0  0  0  0  0  0  0  0  0  0  0  0
   -2.5450   -0.6875    5.5380 N   0  0  0  0  0  0  0  0  0  0  0  0
   -2.4362   -1.5412    6.6979 C   0  0  0  0  0  0  0  0  0  0  0  0
   -2.7962    0.2853    5.6874 H   0  0  0  0  0  0  0  0  0  0  0  0
   -3.4121   -2.0041    6.9060 H   0  0  0  0  0  0  0  0  0  0  0  0
   -1.6911   -2.3273    6.5058 H   0  0  0  0  0  0  0  0  0  0  0  0
   -2.1220   -0.9424    7.5656 H   0  0  0  0  0  0  0  0  0  0  0  0
  1  3  1  0  0  0  0
  1  7  1  0  0  0  0
  1  2  2  0  0  0  0
 35 36  1  0  0  0  0
 36 44  1  0  0  0  0
 36 37  2  0  0  0  0
  8  9  1  0  0  0  0
  9 17  1  0  0  0  0
  9 10  2  0  0  0  0
 18 19  1  0  0  0  0
 19 34  1  0  0  0  0
 19 20  2  0  0  0  0
 35 38  1  0  0  0  0
  8 11  1  0  0  0  0
 44 45  1  0  0  0  0
 23 24  1  0  0  0  0
 21 22  1  0  0  0  0
 18 21  1  0  0  0  0
 22 23  1  0  0  0  0
 34 35  1  0  0  0  0
  7  8  1  0  0  0  0
 17 18  1  0  0  0  0
  3  4  1  0  0  0  0
  3  5  1  0  0  0  0
  3  6  1  0  0  0  0
 38 41  1  0  0  0  0
 38 42  1  0  0  0  0
 38 43  1  0  0  0  0
 11 14  1  0  0  0  0
 11 15  1  0  0  0  0
 11 16  1  0  0  0  0
 45 47  1  0  0  0  0
 45 48  1  0  0  0  0
 45 49  1  0  0  0  0
 24 31  1  0  0  0  0
 24 32  1  0  0  0  0
 24 33  1  0  0  0  0
 21 27  1  0  0  0  0
 21 28  1  0  0  0  0
 22 29  1  0  0  0  0
 22 30  1  0  0  0  0
 35 40  1  0  0  0  0
  8 13  1  0  0  0  0
 18 26  1  0  0  0  0
 44 46  1  0  0  0  0
  7 12  1  0  0  0  0
 34 39  1  0  0  0  0
 17 25  1  0  0  0  0
M  END
$$$$

  -OEChem-05262214473D

 49 48  0     1  0  0  0  0  0999 V2000
   -0.0561   -5.3799    2.6949 C   0  0  0  0  0  0  0  0  0  0  0  0
    0.7325   -5.0736    3.5815 O   0  0  0  0  0  0  0  0  0  0  0  0
   -1.0067   -6.5099    2.9135 C   0  0  0  0  0  0  0  0  0  0  0  0
   -0.5910   -7.4777    2.5899 H   0  0  0  0  0  0  0  0  0  0  0  0
   -1.2629   -6.6440    3.9767 H   0  0  0  0  0  0  0  0  0  0  0  0
   -1.9729   -6.4206    2.3918 H   0  0  0  0  0  0  0  0  0  0  0  0
   -0.1735   -4.7694    1.4571 N   0  0  0  0  0  0  0  0  0  0  0  0
    0.6439   -3.6603    1.0409 C   0  0  2  0  0  0  0  0  0  0  0  0
   -0.2788   -2.5625    0.5280 C   0  0  0  0  0  0  0  0  0  0  0  0
   -1.4197   -2.7791    0.1251 O   0  0  0  0  0  0  0  0  0  0  0  0
    1.6395   -4.0779   -0.0301 C   0  0  0  0  0  0  0  0  0  0  0  0
   -0.8741   -5.1235    0.8083 H   0  0  0  0  0  0  0  0  0  0  0  0
    1.1738   -3.3062    1.9318 H   0  0  0  0  0  0  0  0  0  0  0  0
    1.1270   -4.4358   -0.9305 H   0  0  0  0  0  0  0  0  0  0  0  0
    2.2797   -3.2400   -0.3251 H   0  0  0  0  0  0  0  0  0  0  0  0
    2.2827   -4.8880    0.3303 H   0  0  0  0  0  0  0  0  0  0  0  0
    0.3351   -1.3153    0.5316 N   0  0  0  0  0  0  0  0  0  0  0  0
   -0.3268   -0.1184    0.0807 C   0  0  2  0  0  0  0  0  0  0  0  0
   -1.0387    0.5250    1.2668 C   0  0  0  0  0  0  0  0  0  0  0  0
   -1.1960    1.7395    1.3740 O   0  0  0  0  0  0  0  0  0  0  0  0
   -1.2664   -0.3874   -1.1027 C   0  0  0  0  0  0  0  0  0  0  0  0
   -0.5395   -0.8224   -2.3775 C   0  0  0  0  0  0  0  0  0  0  0  0
    0.6053    0.4757   -2.9327 S   0  0  0  0  0  0  0  0  0  0  0  0
   -0.6196    1.7039   -3.4393 C   0  0  0  0  0  0  0  0  0  0  0  0
    1.2790   -1.2290    0.9021 H   0  0  0  0  0  0  0  0  0  0  0  0
    0.4712    0.5603   -0.2443 H   0  0  0  0  0  0  0  0  0  0  0  0
   -1.8387    0.5279   -1.3047 H   0  0  0  0  0  0  0  0  0  0  0  0
   -1.9912   -1.1600   -0.8156 H   0  0  0  0  0  0  0  0  0  0  0  0
   -1.2491   -1.0127   -3.1881 H   0  0  0  0  0  0  0  0  0  0  0  0
    0.0395   -1.7352   -2.2090 H   0  0  0  0  0  0  0  0  0  0  0  0
   -0.1162    2.5965   -3.8188 H   0  0  0  0  0  0  0  0  0  0  0  0
   -1.2418    1.9817   -2.5849 H   0  0  0  0  0  0  0  0  0  0  0  0
   -1.2560    1.2909   -4.2257 H   0  0  0  0  0  0  0  0  0  0  0  0
   -1.4478   -0.4119    2.2048 N   0  0  0  0  0  0  0  0  0  0  0  0
   -2.1326   -0.0459    3.4224 C   0  0  2  0  0  0  0  0  0  0  0  0
   -1.6048   -0.9316    4.5433 C   0  0  0  0  0  0  0  0  0  0  0  0
   -1.0705   -2.0204    4.3428 O   0  0  0  0  0  0  0  0  0  0  0  0
   -3.6390   -0.1942    3.2761 C   0  0  0  0  0  0  0  0  0  0  0  0
   -1.3011   -1.4002    2.0216 H   0  0  0  0  0  0  0  0  0  0  0  0
   -1.8742    0.9984    3.6289 H   0  0  0  0  0  0  0  0  0  0  0  0
   -3.9172   -1.2340    3.0688 H   0  0  0  0  0  0  0  0  0  0  0  0
   -4.1584    0.1109    4.1905 H   0  0  0  0  0  0  0  0  0  0  0  0
   -4.0128    0.4207    2.4502 H   0  0  0  0  0  0  0  0  0  0  0  0
   -1.8393   -0.3829    5.7964 N   0  0  0  0  0  0  0  0  0  0  0  0
   -1.4436   -1.0385    7.0210 C   0  0  0  0  0  0  0  0  0  0  0  0
   -2.2716    0.5335    5.8676 H   0  0  0  0  0  0  0  0  0  0  0  0
   -2.2772   -1.6508    7.3956 H   0  0  0  0  0  0  0  0  0  0  0  0
   -0.5736   -1.6831    6.8271 H   0  0  0  0  0  0  0  0  0  0  0  0
   -1.1784   -0.2809    7.7731 H   0  0  0  0  0  0  0  0  0  0  0  0
  1  3  1  0  0  0  0
  1  7  1  0  0  0  0
  1  2  2  0  0  0  0
 35 36  1  0  0  0  0
 36 44  1  0  0  0  0
 36 37  2  0  0  0  0
  8  9  1  0  0  0  0
  9 17  1  0  0  0  0
  9 10  2  0  0  0  0
 18 19  1  0  0  0  0
 19 34  1  0  0  0  0
 19 20  2  0  0  0  0
 35 38  1  0  0  0  0
  8 11  1  0  0  0  0
 44 45  1  0  0  0  0
 23 24  1  0  0  0  0
 21 22  1  0  0  0  0
 18 21  1  0  0  0  0
 22 23  1  0  0  0  0
 34 35  1  0  0  0  0
  7  8  1  0  0  0  0
 17 18  1  0  0  0  0
  3  4  1  0  0  0  0
  3  5  1  0  0  0  0
  3  6  1  0  0  0  0
 38 41  1  0  0  0  0
 38 42  1  0  0  0  0
 38 43  1  0  0  0  0
 11 14  1  0  0  0  0
 11 15  1  0  0  0  0
 11 16  1  0  0  0  0
 45 47  1  0  0  0  0
 45 48  1  0  0  0  0
 45 49  1  0  0  0  0
 24 31  1  0  0  0  0
 24 32  1  0  0  0  0
 24 33  1  0  0  0  0
 21 27  1  0  0  0  0
 21 28  1  0  0  0  0
 22 29  1  0  0  0  0
 22 30  1  0  0  0  0
 35 40  1  0  0  0  0
  8 13  1  0  0  0  0
 18 26  1  0  0  0  0
 44 46  1  0  0  0  0
  7 12  1  0  0  0  0
 34 39  1  0  0  0  0
 17 25  1  0  0  0  0
M  END
$$$$

  -OEChem-05262214473D

 49 48  0     1  0  0  0  0  0999 V2000
   -0.0561   -5.3799    2.6949 C   0  0  0  0  0  0  0  0  0  0  0  0
    0.7325   -5.0736    3.5815 O   0  0  0  0  0  0  0  0  0  0  0  0
   -1.0067   -6.5099    2.9135 C   0  0  0  0  0  0  0  0  0  0  0  0
   -0.5910   -7.4777    2.5899 H   0  0  0  0  0  0  0  0  0  0  0  0
   -1.2629   -6.6440    3.9767 H   0  0  0  0  0  0  0  0  0  0  0  0
   -1.9729   -6.4206    2.3918 H   0  0  0  0  0  0  0  0  0  0  0  0
   -0.1735   -4.7694    1.4571 N   0  0  0  0  0  0  0  0  0  0  0  0
    0.6439   -3.6603    1.0409 C   0  0  2  0  0  0  0  0  0  0  0  0
   -0.2788   -2.5625    0.5280 C   0  0  0  0  0  0  0  0  0  0  0  0
   -1.4197   -2.7791    0.1251 O   0  0  0  0  0  0  0  0  0  0  0  0
    1.6395   -4.0779   -0.0301 C   0  0  0  0  0  0  0  0  0  0  0  0
   -0.8741   -5.1235    0.8083 H   0  0  0  0  0  0  0  0  0  0  0  0
    1.1738   -3.3062    1.9318 H   0  0  0  0  0  0  0  0  0  0  0  0
    1.1270   -4.4358   -0.9305 H   0  0  0  0  0  0  0  0  0  0  0  0
    2.2797   -3.2400   -0.3251 H   0  0  0  0  0  0  0  0  0  0  0  0
    2.2827   -4.8880    0.3303 H   0  0  0  0  0  0  0  0  0  0  0  0
    0.3351   -1.3153    0.5316 N   0  0  0  0  0  0  0  0  0  0  0  0
   -0.3268   -0.1184    0.0807 C   0  0  2  0  0  0  0  0  0  0  0  0
   -1.0387    0.5250    1.2668 C   0  0  0  0  0  0  0  0  0  0  0  0
   -1.4339    1.6890    1.2586 O   0  0  0  0  0  0  0  0  0  0  0  0
   -1.2664   -0.3874   -1.1027 C   0  0  0  0  0  0  0  0  0  0  0  0
   -0.5395   -0.8224   -2.3775 C   0  0  0  0  0  0  0  0  0  0  0  0
    0.6053    0.4757   -2.9327 S   0  0  0  0  0  0  0  0  0  0  0  0
   -0.6196    1.7039   -3.4393 C   0  0  0  0  0  0  0  0  0  0  0  0
    1.2790   -1.2290    0.9021 H   0  0  0  0  0  0  0  0  0  0  0  0
    0.4712    0.5603   -0.2443 H   0  0  0  0  0  0  0  0  0  0  0  0
   -1.8387    0.5279   -1.3047 H   0  0  0  0  0  0  0  0  0  0  0  0
   -1.9912   -1.1600   -0.8156 H   0  0  0  0  0  0  0  0  0  0  0  0
   -1.2491   -1.0127   -3.1881 H   0  0  0  0  0  0  0  0  0  0  0  0
    0.0395   -1.7352   -2.2090 H   0  0  0  0  0  0  0  0  0  0  0  0
   -0.1162    2.5965   -3.8188 H   0  0  0  0  0  0  0  0  0  0  0  0
   -1.2418    1.9817   -2.5849 H   0  0  0  0  0  0  0  0  0  0  0  0
   -1.2560    1.2909   -4.2257 H   0  0  0  0  0  0  0  0  0  0  0  0
   -1.1513   -0.3415    2.3446 N   0  0  0  0  0  0  0  0  0  0  0  0
   -1.7761    0.0418    3.5888 C   0  0  2  0  0  0  0  0  0  0  0  0
   -0.9697   -0.5686    4.7276 C   0  0  0  0  0  0  0  0  0  0  0  0
   -0.2427   -1.5494    4.5842 O   0  0  0  0  0  0  0  0  0  0  0  0
   -3.2257   -0.4147    3.6438 C   0  0  0  0  0  0  0  0  0  0  0  0
   -0.8208   -1.2977    2.2544 H   0  0  0  0  0  0  0  0  0  0  0  0
   -1.7217    1.1343    3.6467 H   0  0  0  0  0  0  0  0  0  0  0  0
   -3.3003   -1.5068    3.5871 H   0  0  0  0  0  0  0  0  0  0  0  0
   -3.7062   -0.0986    4.5755 H   0  0  0  0  0  0  0  0  0  0  0  0
   -3.7973    0.0013    2.8071 H   0  0  0  0  0  0  0  0  0  0  0  0
   -1.1908    0.0844    5.9321 N   0  0  0  0  0  0  0  0  0  0  0  0
   -0.5508   -0.3142    7.1640 C   0  0  0  0  0  0  0  0  0  0  0  0
   -1.7952    0.9005    5.9545 H   0  0  0  0  0  0  0  0  0  0  0  0
   -1.1986   -1.0221    7.7019 H   0  0  0  0  0  0  0  0  0  0  0  0
    0.4113   -0.7971    6.9377 H   0  0  0  0  0  0  0  0  0  0  0  0
   -0.3774    0.5730    7.7907 H   0  0  0  0  0  0  0  0  0  0  0  0
  1  3  1  0  0  0  0
  1  7  1  0  0  0  0
  1  2  2  0  0  0  0
 35 36  1  0  0  0  0
 36 44  1  0  0  0  0
 36 37  2  0  0  0  0
  8  9  1  0  0  0  0
  9 17  1  0  0  0  0
  9 10  2  0  0  0  0
 18 19  1  0  0  0  0
 19 34  1  0  0  0  0
 19 20  2  0  0  0  0
 35 38  1  0  0  0  0
  8 11  1  0  0  0  0
 44 45  1  0  0  0  0
 23 24  1  0  0  0  0
 21 22  1  0  0  0  0
 18 21  1  0  0  0  0
 22 23  1  0  0  0  0
 34 35  1  0  0  0  0
  7  8  1  0  0  0  0
 17 18  1  0  0  0  0
  3  4  1  0  0  0  0
  3  5  1  0  0  0  0
  3  6  1  0  0  0  0
 38 41  1  0  0  0  0
 38 42  1  0  0  0  0
 38 43  1  0  0  0  0
 11 14  1  0  0  0  0
 11 15  1  0  0  0  0
 11 16  1  0  0  0  0
 45 47  1  0  0  0  0
 45 48  1  0  0  0  0
 45 49  1  0  0  0  0
 24 31  1  0  0  0  0
 24 32  1  0  0  0  0
 24 33  1  0  0  0  0
 21 27  1  0  0  0  0
 21 28  1  0  0  0  0
 22 29  1  0  0  0  0
 22 30  1  0  0  0  0
 35 40  1  0  0  0  0
  8 13  1  0  0  0  0
 18 26  1  0  0  0  0
 44 46  1  0  0  0  0
  7 12  1  0  0  0  0
 34 39  1  0  0  0  0
 17 25  1  0  0  0  0
M  END
$$$$

  -OEChem-05262214473D

 49 48  0     1  0  0  0  0  0999 V2000
   -0.0561   -5.3799    2.6949 C   0  0  0  0  0  0  0  0  0  0  0  0
    0.7325   -5.0736    3.5815 O   0  0  0  0  0  0  0  0  0  0  0  0
   -1.0067   -6.5099    2.9135 C   0  0  0  0  0  0  0  0  0  0  0  0
   -0.5910   -7.4777    2.5899 H   0  0  0  0  0  0  0  0  0  0  0  0
   -1.2629   -6.6440    3.9767 H   0  0  0  0  0  0  0  0  0  0  0  0
   -1.9729   -6.4206    2.3918 H   0  0  0  0  0  0  0  0  0  0  0  0
   -0.1735   -4.7694    1.4571 N   0  0  0  0  0  0  0  0  0  0  0  0
    0.6439   -3.6603    1.0409 C   0  0  2  0  0  0  0  0  0  0  0  0
   -0.2788   -2.5625    0.5280 C   0  0  0  0  0  0  0  0  0  0  0  0
   -1.4197   -2.7791    0.1251 O   0  0  0  0  0  0  0  0  0  0  0  0
    1.6395   -4.0779   -0.0301 C   0  0  0  0  0  0  0  0  0  0  0  0
   -0.8741   -5.1235    0.8083 H   0  0  0  0  0  0  0  0  0  0  0  0
    1.1738   -3.3062    1.9318 H   0  0  0  0  0  0  0  0  0  0  0  0
    1.1270   -4.4358   -0.9305 H   0  0  0  0  0  0  0  0  0  0  0  0
    2.2797   -3.2400   -0.3251 H   0  0  0  0  0  0  0  0  0  0  0  0
    2.2827   -4.8880    0.3303 H   0  0  0  0  0  0  0  0  0  0  0  0
    0.3351   -1.3153    0.5316 N   0  0  0  0  0  0  0  0  0  0  0  0
   -0.3268   -0.1184    0.0807 C   0  0  2  0  0  0  0  0  0  0  0  0
   -1.0387    0.5250    1.2668 C   0  0  0  0  0  0  0  0  0  0  0  0
   -1.6662    1.5785    1.1791 O   0  0  0  0  0  0  0  0  0  0  0  0
   -1.2664   -0.3874   -1.1027 C   0  0  0  0  0  0  0  0  0  0  0  0
   -0.5395   -0.8224   -2.3775 C   0  0  0  0  0  0  0  0  0  0  0  0
    0.6053    0.4757   -2.9327 S   0  0  0  0  0  0  0  0  0  0  0  0
   -0.6196    1.7039   -3.4393 C   0  0  0  0  0  0  0  0  0  0  0  0
    1.2790   -1.2290    0.9021 H   0  0  0  0  0  0  0  0  0  0  0  0
    0.4712    0.5603   -0.2443 H   0  0  0  0  0  0  0  0  0  0  0  0
   -1.8387    0.5279   -1.3047 H   0  0  0  0  0  0  0  0  0  0  0  0
   -1.9912   -1.1600   -0.8156 H   0  0  0  0  0  0  0  0  0  0  0  0
   -1.2491   -1.0127   -3.1881 H   0  0  0  0  0  0  0  0  0  0  0  0
    0.0395   -1.7352   -2.2090 H   0  0  0  0  0  0  0  0  0  0  0  0
   -0.1162    2.5965   -3.8188 H   0  0  0  0  0  0  0  0  0  0  0  0
   -1.2418    1.9817   -2.5849 H   0  0  0  0  0  0  0  0  0  0  0  0
   -1.2560    1.2909   -4.2257 H   0  0  0  0  0  0  0  0  0  0  0  0
   -0.8638   -0.1969    2.4387 N   0  0  0  0  0  0  0  0  0  0  0  0
   -1.4312    0.2183    3.7001 C   0  0  2  0  0  0  0  0  0  0  0  0
   -0.4092   -0.0679    4.7924 C   0  0  0  0  0  0  0  0  0  0  0  0
    0.4885   -0.8987    4.6701 O   0  0  0  0  0  0  0  0  0  0  0  0
   -2.7420   -0.5001    3.9805 C   0  0  0  0  0  0  0  0  0  0  0  0
   -0.3521   -1.0739    2.4143 H   0  0  0  0  0  0  0  0  0  0  0  0
   -1.5998    1.2984    3.6308 H   0  0  0  0  0  0  0  0  0  0  0  0
   -2.5930   -1.5836    4.0533 H   0  0  0  0  0  0  0  0  0  0  0  0
   -3.1852   -0.1634    4.9234 H   0  0  0  0  0  0  0  0  0  0  0  0
   -3.4658   -0.3173    3.1789 H   0  0  0  0  0  0  0  0  0  0  0  0
   -0.6435    0.6828    5.9360 N   0  0  0  0  0  0  0  0  0  0  0  0
    0.1815    0.5823    7.1172 C   0  0  0  0  0  0  0  0  0  0  0  0
   -1.3994    1.3613    5.9421 H   0  0  0  0  0  0  0  0  0  0  0  0
   -0.2498   -0.1607    7.8041 H   0  0  0  0  0  0  0  0  0  0  0  0
    1.1964    0.2703    6.8299 H   0  0  0  0  0  0  0  0  0  0  0  0
    0.2265    1.5611    7.6172 H   0  0  0  0  0  0  0  0  0  0  0  0
  1  3  1  0  0  0  0
  1  7  1  0  0  0  0
  1  2  2  0  0  0  0
 35 36  1  0  0  0  0
 36 44  1  0  0  0  0
 36 37  2  0  0  0  0
  8  9  1  0  0  0  0
  9 17  1  0  0  0  0
  9 10  2  0  0  0  0
 18 19  1  0  0  0  0
 19 34  1  0  0  0  0
 19 20  2  0  0  0  0
 35 38  1  0  0  0  0
  8 11  1  0  0  0  0
 44 45  1  0  0  0  0
 23 24  1  0  0  0  0
 21 22  1  0  0  0  0
 18 21  1  0  0  0  0
 22 23  1  0  0  0  0
 34 35  1  0  0  0  0
  7  8  1  0  0  0  0
 17 18  1  0  0  0  0
  3  4  1  0  0  0  0
  3  5  1  0  0  0  0
  3  6  1  0  0  0  0
 38 41  1  0  0  0  0
 38 42  1  0  0  0  0
 38 43  1  0  0  0  0
 11 14  1  0  0  0  0
 11 15  1  0  0  0  0
 11 16  1  0  0  0  0
 45 47  1  0  0  0  0
 45 48  1  0  0  0  0
 45 49  1  0  0  0  0
 24 31  1  0  0  0  0
 24 32  1  0  0  0  0
 24 33  1  0  0  0  0
 21 27  1  0  0  0  0
 21 28  1  0  0  0  0
 22 29  1  0  0  0  0
 22 30  1  0  0  0  0
 35 40  1  0  0  0  0
  8 13  1  0  0  0  0
 18 26  1  0  0  0  0
 44 46  1  0  0  0  0
  7 12  1  0  0  0  0
 34 39  1  0  0  0  0
 17 25  1  0  0  0  0
M  END
$$$$

  -OEChem-05262214473D

 49 48  0     1  0  0  0  0  0999 V2000
   -0.0561   -5.3799    2.6949 C   0  0  0  0  0  0  0  0  0  0  0  0
    0.7325   -5.0736    3.5815 O   0  0  0  0  0  0  0  0  0  0  0  0
   -1.0067   -6.5099    2.9135 C   0  0  0  0  0  0  0  0  0  0  0  0
   -0.5910   -7.4777    2.5899 H   0  0  0  0  0  0  0  0  0  0  0  0
   -1.2629   -6.6440    3.9767 H   0  0  0  0  0  0  0  0  0  0  0  0
   -1.9729   -6.4206    2.3918 H   0  0  0  0  0  0  0  0  0  0  0  0
   -0.1735   -4.7694    1.4571 N   0  0  0  0  0  0  0  0  0  0  0  0
    0.6439   -3.6603    1.0409 C   0  0  2  0  0  0  0  0  0  0  0  0
   -0.2788   -2.5625    0.5280 C   0  0  0  0  0  0  0  0  0  0  0  0
   -1.4197   -2.7791    0.1251 O   0  0  0  0  0  0  0  0  0  0  0  0
    1.6395   -4.0779   -0.0301 C   0  0  0  0  0  0  0  0  0  0  0  0
   -0.8741   -5.1235    0.8083 H   0  0  0  0  0  0  0  0  0  0  0  0
    1.1738   -3.3062    1.9318 H   0  0  0  0  0  0  0  0  0  0  0  0
    1.1270   -4.4358   -0.9305 H   0  0  0  0  0  0  0  0  0  0  0  0
    2.2797   -3.2400   -0.3251 H   0  0  0  0  0  0  0  0  0  0  0  0
    2.2827   -4.8880    0.3303 H   0  0  0  0  0  0  0  0  0  0  0  0
    0.3351   -1.3153    0.5316 N   0  0  0  0  0  0  0  0  0  0  0  0
   -0.3268   -0.1184    0.0807 C   0  0  2  0  0  0  0  0  0  0  0  0
   -1.0387    0.5250    1.2668 C   0  0  0  0  0  0  0  0  0  0  0  0
   -1.8770    1.4154    1.1411 O   0  0  0  0  0  0  0  0  0  0  0  0
   -1.2664   -0.3874   -1.1027 C   0  0  0  0  0  0  0  0  0  0  0  0
   -0.5395   -0.8224   -2.3775 C   0  0  0  0  0  0  0  0  0  0  0  0
    0.6053    0.4757   -2.9327 S   0  0  0  0  0  0  0  0  0  0  0  0
   -0.6196    1.7039   -3.4393 C   0  0  0  0  0  0  0  0  0  0  0  0
    1.2790   -1.2290    0.9021 H   0  0  0  0  0  0  0  0  0  0  0  0
    0.4712    0.5603   -0.2443 H   0  0  0  0  0  0  0  0  0  0  0  0
   -1.8387    0.5279   -1.3047 H   0  0  0  0  0  0  0  0  0  0  0  0
   -1.9912   -1.1600   -0.8156 H   0  0  0  0  0  0  0  0  0  0  0  0
   -1.2491   -1.0127   -3.1881 H   0  0  0  0  0  0  0  0  0  0  0  0
    0.0395   -1.7352   -2.2090 H   0  0  0  0  0  0  0  0  0  0  0  0
   -0.1162    2.5965   -3.8188 H   0  0  0  0  0  0  0  0  0  0  0  0
   -1.2418    1.9817   -2.5849 H   0  0  0  0  0  0  0  0  0  0  0  0
   -1.2560    1.2909   -4.2257 H   0  0  0  0  0  0  0  0  0  0  0  0
   -0.6050    0.0119    2.4808 N   0  0  0  0  0  0  0  0  0  0  0  0
   -1.1215    0.4716    3.7486 C   0  0  2  0  0  0  0  0  0  0  0  0
    0.0385    0.5364    4.7333 C   0  0  0  0  0  0  0  0  0  0  0  0
    1.0732   -0.1127    4.5947 O   0  0  0  0  0  0  0  0  0  0  0  0
   -2.2208   -0.4446    4.2632 C   0  0  0  0  0  0  0  0  0  0  0  0
    0.0732   -0.7442    2.4907 H   0  0  0  0  0  0  0  0  0  0  0  0
   -1.5169    1.4796    3.5823 H   0  0  0  0  0  0  0  0  0  0  0  0
   -1.8434   -1.4592    4.4357 H   0  0  0  0  0  0  0  0  0  0  0  0
   -2.6309   -0.0791    5.2104 H   0  0  0  0  0  0  0  0  0  0  0  0
   -3.0409   -0.5135    3.5404 H   0  0  0  0  0  0  0  0  0  0  0  0
   -0.2350    1.3713    5.8077 N   0  0  0  0  0  0  0  0  0  0  0  0
    0.7033    1.5900    6.8838 C   0  0  0  0  0  0  0  0  0  0  0  0
   -1.1111    1.8847    5.8312 H   0  0  0  0  0  0  0  0  0  0  0  0
    0.5045    0.8745    7.6953 H   0  0  0  0  0  0  0  0  0  0  0  0
    1.7283    1.4462    6.5112 H   0  0  0  0  0  0  0  0  0  0  0  0
    0.5920    2.6160    7.2643 H   0  0  0  0  0  0  0  0  0  0  0  0
  1  3  1  0  0  0  0
  1  7  1  0  0  0  0
  1  2  2  0  0  0  0
 35 36  1  0  0  0  0
 36 44  1  0  0  0  0
 36 37  2  0  0  0  0
  8  9  1  0  0  0  0
  9 17  1  0  0  0  0
  9 10  2  0  0  0  0
 18 19  1  0  0  0  0
 19 34  1  0  0  0  0
 19 20  2  0  0  0  0
 35 38  1  0  0  0  0
  8 11  1  0  0  0  0
 44 45  1  0  0  0  0
 23 24  1  0  0  0  0
 21 22  1  0  0  0  0
 18 21  1  0  0  0  0
 22 23  1  0  0  0  0
 34 35  1  0  0  0  0
  7  8  1  0  0  0  0
 17 18  1  0  0  0  0
  3  4  1  0  0  0  0
  3  5  1  0  0  0  0
  3  6  1  0  0  0  0
 38 41  1  0  0  0  0
 38 42  1  0  0  0  0
 38 43  1  0  0  0  0
 11 14  1  0  0  0  0
 11 15  1  0  0  0  0
 11 16  1  0  0  0  0
 45 47  1  0  0  0  0
 45 48  1  0  0  0  0
 45 49  1  0  0  0  0
 24 31  1  0  0  0  0
 24 32  1  0  0  0  0
 24 33  1  0  0  0  0
 21 27  1  0  0  0  0
 21 28  1  0  0  0  0
 22 29  1  0  0  0  0
 22 30  1  0  0  0  0
 35 40  1  0  0  0  0
  8 13  1  0  0  0  0
 18 26  1  0  0  0  0
 44 46  1  0  0  0  0
  7 12  1  0  0  0  0
 34 39  1  0  0  0  0
 17 25  1  0  0  0  0
M  END
$$$$

  -OEChem-05262214473D

 49 48  0     1  0  0  0  0  0999 V2000
   -0.0561   -5.3799    2.6949 C   0  0  0  0  0  0  0  0  0  0  0  0
    0.7325   -5.0736    3.5815 O   0  0  0  0  0  0  0  0  0  0  0  0
   -1.0067   -6.5099    2.9135 C   0  0  0  0  0  0  0  0  0  0  0  0
   -0.5910   -7.4777    2.5899 H   0  0  0  0  0  0  0  0  0  0  0  0
   -1.2629   -6.6440    3.9767 H   0  0  0  0  0  0  0  0  0  0  0  0
   -1.9729   -6.4206    2.3918 H   0  0  0  0  0  0  0  0  0  0  0  0
   -0.1735   -4.7694    1.4571 N   0  0  0  0  0  0  0  0  0  0  0  0
    0.6439   -3.6603    1.0409 C   0  0  2  0  0  0  0  0  0  0  0  0
   -0.2788   -2.5625    0.5280 C   0  0  0  0  0  0  0  0  0  0  0  0
   -1.4197   -2.7791    0.1251 O   0  0  0  0  0  0  0  0  0  0  0  0
    1.6395   -4.0779   -0.0301 C   0  0  0  0  0  0  0  0  0  0  0  0
   -0.8741   -5.1235    0.8083 H   0  0  0  0  0  0  0  0  0  0  0  0
    1.1738   -3.3062    1.9318 H   0  0  0  0  0  0  0  0  0  0  0  0
    1.1270   -4.4358   -0.9305 H   0  0  0  0  0  0  0  0  0  0  0  0
    2.2797   -3.2400   -0.3251 H   0  0  0  0  0  0  0  0  0  0  0  0
    2.2827   -4.8880    0.3303 H   0  0  0  0  0  0  0  0  0  0  0  0
    0.3351   -1.3153    0.5316 N   0  0  0  0  0  0  0  0  0  0  0  0
   -0.3268   -0.1184    0.0807 C   0  0  2  0  0  0  0  0  0  0  0  0
   -1.0387    0.5250    1.2668 C   0  0  0  0  0  0  0  0  0  0  0  0
   -2.0519    1.2108    1.1471 O   0  0  0  0  0  0  0  0  0  0  0  0
   -1.2664   -0.3874   -1.1027 C   0  0  0  0  0  0  0  0  0  0  0  0
   -0.5395   -0.8224   -2.3775 C   0  0  0  0  0  0  0  0  0  0  0  0
    0.6053    0.4757   -2.9327 S   0  0  0  0  0  0  0  0  0  0  0  0
   -0.6196    1.7039   -3.4393 C   0  0  0  0  0  0  0  0  0  0  0  0
    1.2790   -1.2290    0.9021 H   0  0  0  0  0  0  0  0  0  0  0  0
    0.4712    0.5603   -0.2443 H   0  0  0  0  0  0  0  0  0  0  0  0
   -1.8387    0.5279   -1.3047 H   0  0  0  0  0  0  0  0  0  0  0  0
   -1.9912   -1.1600   -0.8156 H   0  0  0  0  0  0  0  0  0  0  0  0
   -1.2491   -1.0127   -3.1881 H   0  0  0  0  0  0  0  0  0  0  0  0
    0.0395   -1.7352   -2.2090 H   0  0  0  0  0  0  0  0  0  0  0  0
   -0.1162    2.5965   -3.8188 H   0  0  0  0  0  0  0  0  0  0  0  0
   -1.2418    1.9817   -2.5849 H   0  0  0  0  0  0  0  0  0  0  0  0
   -1.2560    1.2909   -4.2257 H   0  0  0  0  0  0  0  0  0  0  0  0
   -0.3924    0.2709    2.4679 N   0  0  0  0  0  0  0  0  0  0  0  0
   -0.8679    0.7844    3.7311 C   0  0  2  0  0  0  0  0  0  0  0  0
    0.3430    1.2030    4.5545 C   0  0  0  0  0  0  0  0  0  0  0  0
    1.4716    0.7550    4.3631 O   0  0  0  0  0  0  0  0  0  0  0  0
   -1.6976   -0.2520    4.4727 C   0  0  0  0  0  0  0  0  0  0  0  0
    0.4259   -0.3308    2.4782 H   0  0  0  0  0  0  0  0  0  0  0  0
   -1.4785    1.6653    3.5046 H   0  0  0  0  0  0  0  0  0  0  0  0
   -1.1027   -1.1420    4.7082 H   0  0  0  0  0  0  0  0  0  0  0  0
   -2.0812    0.1485    5.4169 H   0  0  0  0  0  0  0  0  0  0  0  0
   -2.5515   -0.5739    3.8668 H   0  0  0  0  0  0  0  0  0  0  0  0
    0.0072    2.1031    5.5561 N   0  0  0  0  0  0  0  0  0  0  0  0
    0.9791    2.6401    6.4797 C   0  0  0  0  0  0  0  0  0  0  0  0
   -0.9501    2.4347    5.6295 H   0  0  0  0  0  0  0  0  0  0  0  0
    1.0129    2.0131    7.3828 H   0  0  0  0  0  0  0  0  0  0  0  0
    1.9706    2.6506    6.0034 H   0  0  0  0  0  0  0  0  0  0  0  0
    0.6943    3.6660    6.7561 H   0  0  0  0  0  0  0  0  0  0  0  0
  1  3  1  0  0  0  0
  1  7  1  0  0  0  0
  1  2  2  0  0  0  0
 35 36  1  0  0  0  0
 36 44  1  0  0  0  0
 36 37  2  0  0  0  0
  8  9  1  0  0  0  0
  9 17  1  0  0  0  0
  9 10  2  0  0  0  0
 18 19  1  0  0  0  0
 19 34  1  0  0  0  0
 19 20  2  0  0  0  0
 35 38  1  0  0  0  0
  8 11  1  0  0  0  0
 44 45  1  0  0  0  0
 23 24  1  0  0  0  0
 21 22  1  0  0  0  0
 18 21  1  0  0  0  0
 22 23  1  0  0  0  0
 34 35  1  0  0  0  0
  7  8  1  0  0  0  0
 17 18  1  0  0  0  0
  3  4  1  0  0  0  0
  3  5  1  0  0  0  0
  3  6  1  0  0  0  0
 38 41  1  0  0  0  0
 38 42  1  0  0  0  0
 38 43  1  0  0  0  0
 11 14  1  0  0  0  0
 11 15  1  0  0  0  0
 11 16  1  0  0  0  0
 45 47  1  0  0  0  0
 45 48  1  0  0  0  0
 45 49  1  0  0  0  0
 24 31  1  0  0  0  0
 24 32  1  0  0  0  0
 24 33  1  0  0  0  0
 21 27  1  0  0  0  0
 21 28  1  0  0  0  0
 22 29  1  0  0  0  0
 22 30  1  0  0  0  0
 35 40  1  0  0  0  0
  8 13  1  0  0  0  0
 18 26  1  0  0  0  0
 44 46  1  0  0  0  0
  7 12  1  0  0  0  0
 34 39  1  0  0  0  0
 17 25  1  0  0  0  0
M  END
$$$$

  -OEChem-05262214473D

 49 48  0     1  0  0  0  0  0999 V2000
   -0.0561   -5.3799    2.6949 C   0  0  0  0  0  0  0  0  0  0  0  0
    0.7325   -5.0736    3.5815 O   0  0  0  0  0  0  0  0  0  0  0  0
   -1.0067   -6.5099    2.9135 C   0  0  0  0  0  0  0  0  0  0  0  0
   -0.5910   -7.4777    2.5899 H   0  0  0  0  0  0  0  0  0  0  0  0
   -1.2629   -6.6440    3.9767 H   0  0  0  0  0  0  0  0  0  0  0  0
   -1.9729   -6.4206    2.3918 H   0  0  0  0  0  0  0  0  0  0  0  0
   -0.1735   -4.7694    1.4571 N   0  0  0  0  0  0  0  0  0  0  0  0
    0.6439   -3.6603    1.0409 C   0  0  2  0  0  0  0  0  0  0  0  0
   -0.2788   -2.5625    0.5280 C   0  0  0  0  0  0  0  0  0  0  0  0
   -1.4197   -2.7791    0.1251 O   0  0  0  0  0  0  0  0  0  0  0  0
    1.6395   -4.0779   -0.0301 C   0  0  0  0  0  0  0  0  0  0  0  0
   -0.8741   -5.1235    0.8083 H   0  0  0  0  0  0  0  0  0  0  0  0
    1.1738   -3.3062    1.9318 H   0  0  0  0  0  0  0  0  0  0  0  0
    1.1270   -4.4358   -0.9305 H   0  0  0  0  0  0  0  0  0  0  0  0
    2.2797   -3.2400   -0.3251 H   0  0  0  0  0  0  0  0  0  0  0  0
    2.2827   -4.8880    0.3303 H   0  0  0  0  0  0  0  0  0  0  0  0
    0.3351   -1.3153    0.5316 N   0  0  0  0  0  0  0  0  0  0  0  0
   -0.3268   -0.1184    0.0807 C   0  0  2  0  0  0  0  0  0  0  0  0
   -1.0387    0.5250    1.2668 C   0  0  0  0  0  0  0  0  0  0  0  0
   -2.1791    0.9787    1.1966 O   0  0  0  0  0  0  0  0  0  0  0  0
   -1.2664   -0.3874   -1.1027 C   0  0  0  0  0  0  0  0  0  0  0  0
   -0.5395   -0.8224   -2.3775 C   0  0  0  0  0  0  0  0  0  0  0  0
    0.6053    0.4757   -2.9327 S   0  0  0  0  0  0  0  0  0  0  0  0
   -0.6196    1.7039   -3.4393 C   0  0  0  0  0  0  0  0  0  0  0  0
    1.2790   -1.2290    0.9021 H   0  0  0  0  0  0  0  0  0  0  0  0
    0.4712    0.5603   -0.2443 H   0  0  0  0  0  0  0  0  0  0  0  0
   -1.8387    0.5279   -1.3047 H   0  0  0  0  0  0  0  0  0  0  0  0
   -1.9912   -1.1600   -0.8156 H   0  0  0  0  0  0  0  0  0  0  0  0
   -1.2491   -1.0127   -3.1881 H   0  0  0  0  0  0  0  0  0  0  0  0
    0.0395   -1.7352   -2.2090 H   0  0  0  0  0  0  0  0  0  0  0  0
   -0.1162    2.5965   -3.8188 H   0  0  0  0  0  0  0  0  0  0  0  0
   -1.2418    1.9817   -2.5849 H   0  0  0  0  0  0  0  0  0  0  0  0
   -1.2560    1.2909   -4.2257 H   0  0  0  0  0  0  0  0  0  0  0  0
   -0.2405    0.5622    2.4010 N   0  0  0  0  0  0  0  0  0  0  0  0
   -0.6879    1.1356    3.6487 C   0  0  2  0  0  0  0  0  0  0  0  0
    0.4834    1.8866    4.2679 C   0  0  0  0  0  0  0  0  0  0  0  0
    1.6566    1.6454    3.9911 O   0  0  0  0  0  0  0  0  0  0  0  0
   -1.2082    0.0646    4.5947 C   0  0  0  0  0  0  0  0  0  0  0  0
    0.6820    0.1378    2.3777 H   0  0  0  0  0  0  0  0  0  0  0  0
   -1.4873    1.8431    3.4029 H   0  0  0  0  0  0  0  0  0  0  0  0
   -0.4213   -0.6537    4.8523 H   0  0  0  0  0  0  0  0  0  0  0  0
   -1.5734    0.5038    5.5289 H   0  0  0  0  0  0  0  0  0  0  0  0
   -2.0311   -0.4943    4.1361 H   0  0  0  0  0  0  0  0  0  0  0  0
    0.0663    2.8283    5.1982 N   0  0  0  0  0  0  0  0  0  0  0  0
    0.9901    3.6612    5.9324 C   0  0  0  0  0  0  0  0  0  0  0  0
   -0.9273    2.9741    5.3506 H   0  0  0  0  0  0  0  0  0  0  0  0
    1.2408    3.1775    6.8880 H   0  0  0  0  0  0  0  0  0  0  0  0
    1.9069    3.8013    5.3409 H   0  0  0  0  0  0  0  0  0  0  0  0
    0.5263    4.6394    6.1272 H   0  0  0  0  0  0  0  0  0  0  0  0
  1  3  1  0  0  0  0
  1  7  1  0  0  0  0
  1  2  2  0  0  0  0
 35 36  1  0  0  0  0
 36 44  1  0  0  0  0
 36 37  2  0  0  0  0
  8  9  1  0  0  0  0
  9 17  1  0  0  0  0
  9 10  2  0  0  0  0
 18 19  1  0  0  0  0
 19 34  1  0  0  0  0
 19 20  2  0  0  0  0
 35 38  1  0  0  0  0
  8 11  1  0  0  0  0
 44 45  1  0  0  0  0
 23 24  1  0  0  0  0
 21 22  1  0  0  0  0
 18 21  1  0  0  0  0
 22 23  1  0  0  0  0
 34 35  1  0  0  0  0
  7  8  1  0  0  0  0
 17 18  1  0  0  0  0
  3  4  1  0  0  0  0
  3  5  1  0  0  0  0
  3  6  1  0  0  0  0
 38 41  1  0  0  0  0
 38 42  1  0  0  0  0
 38 43  1  0  0  0  0
 11 14  1  0  0  0  0
 11 15  1  0  0  0  0
 11 16  1  0  0  0  0
 45 47  1  0  0  0  0
 45 48  1  0  0  0  0
 45 49  1  0  0  0  0
 24 31  1  0  0  0  0
 24 32  1  0  0  0  0
 24 33  1  0  0  0  0
 21 27  1  0  0  0  0
 21 28  1  0  0  0  0
 22 29  1  0  0  0  0
 22 30  1  0  0  0  0
 35 40  1  0  0  0  0
  8 13  1  0  0  0  0
 18 26  1  0  0  0  0
 44 46  1  0  0  0  0
  7 12  1  0  0  0  0
 34 39  1  0  0  0  0
 17 25  1  0  0  0  0
M  END
$$$$

  -OEChem-05262214473D

 49 48  0     1  0  0  0  0  0999 V2000
   -0.0561   -5.3799    2.6949 C   0  0  0  0  0  0  0  0  0  0  0  0
    0.7325   -5.0736    3.5815 O   0  0  0  0  0  0  0  0  0  0  0  0
   -1.0067   -6.5099    2.9135 C   0  0  0  0  0  0  0  0  0  0  0  0
   -0.5910   -7.4777    2.5899 H   0  0  0  0  0  0  0  0  0  0  0  0
   -1.2629   -6.6440    3.9767 H   0  0  0  0  0  0  0  0  0  0  0  0
   -1.9729   -6.4206    2.3918 H   0  0  0  0  0  0  0  0  0  0  0  0
   -0.1735   -4.7694    1.4571 N   0  0  0  0  0  0  0  0  0  0  0  0
    0.6439   -3.6603    1.0409 C   0  0  2  0  0  0  0  0  0  0  0  0
   -0.2788   -2.5625    0.5280 C   0  0  0  0  0  0  0  0  0  0  0  0
   -1.4197   -2.7791    0.1251 O   0  0  0  0  0  0  0  0  0  0  0  0
    1.6395   -4.0779   -0.0301 C   0  0  0  0  0  0  0  0  0  0  0  0
   -0.8741   -5.1235    0.8083 H   0  0  0  0  0  0  0  0  0  0  0  0
    1.1738   -3.3062    1.9318 H   0  0  0  0  0  0  0  0  0  0  0  0
    1.1270   -4.4358   -0.9305 H   0  0  0  0  0  0  0  0  0  0  0  0
    2.2797   -3.2400   -0.3251 H   0  0  0  0  0  0  0  0  0  0  0  0
    2.2827   -4.8880    0.3303 H   0  0  0  0  0  0  0  0  0  0  0  0
    0.3351   -1.3153    0.5316 N   0  0  0  0  0  0  0  0  0  0  0  0
   -0.3268   -0.1184    0.0807 C   0  0  2  0  0  0  0  0  0  0  0  0
   -1.0387    0.5250    1.2668 C   0  0  0  0  0  0  0  0  0  0  0  0
   -2.2498    0.7349    1.2864 O   0  0  0  0  0  0  0  0  0  0  0  0
   -1.2664   -0.3874   -1.1027 C   0  0  0  0  0  0  0  0  0  0  0  0
   -0.5395   -0.8224   -2.3775 C   0  0  0  0  0  0  0  0  0  0  0  0
    0.6053    0.4757   -2.9327 S   0  0  0  0  0  0  0  0  0  0  0  0
   -0.6196    1.7039   -3.4393 C   0  0  0  0  0  0  0  0  0  0  0  0
    1.2790   -1.2290    0.9021 H   0  0  0  0  0  0  0  0  0  0  0  0
    0.4712    0.5603   -0.2443 H   0  0  0  0  0  0  0  0  0  0  0  0
   -1.8387    0.5279   -1.3047 H   0  0  0  0  0  0  0  0  0  0  0  0
   -1.9912   -1.1600   -0.8156 H   0  0  0  0  0  0  0  0  0  0  0  0
   -1.2491   -1.0127   -3.1881 H   0  0  0  0  0  0  0  0  0  0  0  0
    0.0395   -1.7352   -2.2090 H   0  0  0  0  0  0  0  0  0  0  0  0
   -0.1162    2.5965   -3.8188 H   0  0  0  0  0  0  0  0  0  0  0  0
   -1.2418    1.9817   -2.5849 H   0  0  0  0  0  0  0  0  0  0  0  0
   -1.2560    1.2909   -4.2257 H   0  0  0  0  0  0  0  0  0  0  0  0
   -0.1597    0.8661    2.2847 N   0  0  0  0  0  0  0  0  0  0  0  0
   -0.5937    1.5010    3.5070 C   0  0  2  0  0  0  0  0  0  0  0  0
    0.4502    2.5405    3.8933 C   0  0  0  0  0  0  0  0  0  0  0  0
    1.6154    2.4978    3.5041 O   0  0  0  0  0  0  0  0  0  0  0  0
   -0.7858    0.4836    4.6209 C   0  0  0  0  0  0  0  0  0  0  0  0
    0.8242    0.6300    2.1960 H   0  0  0  0  0  0  0  0  0  0  0  0
   -1.5426    2.0008    3.2841 H   0  0  0  0  0  0  0  0  0  0  0  0
    0.1544   -0.0274    4.8582 H   0  0  0  0  0  0  0  0  0  0  0  0
   -1.1422    0.9628    5.5387 H   0  0  0  0  0  0  0  0  0  0  0  0
   -1.5150   -0.2801    4.3297 H   0  0  0  0  0  0  0  0  0  0  0  0
   -0.0615    3.4974    4.7585 N   0  0  0  0  0  0  0  0  0  0  0  0
    0.7355    4.5835    5.2792 C   0  0  0  0  0  0  0  0  0  0  0  0
   -1.0442    3.4660    5.0136 H   0  0  0  0  0  0  0  0  0  0  0  0
    1.1726    4.2883    6.2445 H   0  0  0  0  0  0  0  0  0  0  0  0
    1.5415    4.8201    4.5689 H   0  0  0  0  0  0  0  0  0  0  0  0
    0.0996    5.4699    5.4206 H   0  0  0  0  0  0  0  0  0  0  0  0
  1  3  1  0  0  0  0
  1  7  1  0  0  0  0
  1  2  2  0  0  0  0
 35 36  1  0  0  0  0
 36 44  1  0  0  0  0
 36 37  2  0  0  0  0
  8  9  1  0  0  0  0
  9 17  1  0  0  0  0
  9 10  2  0  0  0  0
 18 19  1  0  0  0  0
 19 34  1  0  0  0  0
 19 20  2  0  0  0  0
 35 38  1  0  0  0  0
  8 11  1  0  0  0  0
 44 45  1  0  0  0  0
 23 24  1  0  0  0  0
 21 22  1  0  0  0  0
 18 21  1  0  0  0  0
 22 23  1  0  0  0  0
 34 35  1  0  0  0  0
  7  8  1  0  0  0  0
 17 18  1  0  0  0  0
  3  4  1  0  0  0  0
  3  5  1  0  0  0  0
  3  6  1  0  0  0  0
 38 41  1  0  0  0  0
 38 42  1  0  0  0  0
 38 43  1  0  0  0  0
 11 14  1  0  0  0  0
 11 15  1  0  0  0  0
 11 16  1  0  0  0  0
 45 47  1  0  0  0  0
 45 48  1  0  0  0  0
 45 49  1  0  0  0  0
 24 31  1  0  0  0  0
 24 32  1  0  0  0  0
 24 33  1  0  0  0  0
 21 27  1  0  0  0  0
 21 28  1  0  0  0  0
 22 29  1  0  0  0  0
 22 30  1  0  0  0  0
 35 40  1  0  0  0  0
  8 13  1  0  0  0  0
 18 26  1  0  0  0  0
 44 46  1  0  0  0  0
  7 12  1  0  0  0  0
 34 39  1  0  0  0  0
 17 25  1  0  0  0  0
M  END
$$$$

  -OEChem-05262214473D

 49 48  0     1  0  0  0  0  0999 V2000
   -0.0561   -5.3799    2.6949 C   0  0  0  0  0  0  0  0  0  0  0  0
    0.7325   -5.0736    3.5815 O   0  0  0  0  0  0  0  0  0  0  0  0
   -1.0067   -6.5099    2.9135 C   0  0  0  0  0  0  0  0  0  0  0  0
   -0.5910   -7.4777    2.5899 H   0  0  0  0  0  0  0  0  0  0  0  0
   -1.2629   -6.6440    3.9767 H   0  0  0  0  0  0  0  0  0  0  0  0
   -1.9729   -6.4206    2.3918 H   0  0  0  0  0  0  0  0  0  0  0  0
   -0.1735   -4.7694    1.4571 N   0  0  0  0  0  0  0  0  0  0  0  0
    0.6439   -3.6603    1.0409 C   0  0  2  0  0  0  0  0  0  0  0  0
   -0.2788   -2.5625    0.5280 C   0  0  0  0  0  0  0  0  0  0  0  0
   -1.4197   -2.7791    0.1251 O   0  0  0  0  0  0  0  0  0  0  0  0
    1.6395   -4.0779   -0.0301 C   0  0  0  0  0  0  0  0  0  0  0  0
   -0.8741   -5.1235    0.8083 H   0  0  0  0  0  0  0  0  0  0  0  0
    1.1738   -3.3062    1.9318 H   0  0  0  0  0  0  0  0  0  0  0  0
    1.1270   -4.4358   -0.9305 H   0  0  0  0  0  0  0  0  0  0  0  0
    2.2797   -3.2400   -0.3251 H   0  0  0  0  0  0  0  0  0  0  0  0
    2.2827   -4.8880    0.3303 H   0  0  0  0  0  0  0  0  0  0  0  0
    0.3351   -1.3153    0.5316 N   0  0  0  0  0  0  0  0  0  0  0  0
   -0.3268   -0.1184    0.0807 C   0  0  2  0  0  0  0  0  0  0  0  0
   -1.0387    0.5250    1.2668 C   0  0  0  0  0  0  0  0  0  0  0  0
   -2.2593    0.4961    1.4103 O   0  0  0  0  0  0  0  0  0  0  0  0
   -1.2664   -0.3874   -1.1027 C   0  0  0  0  0  0  0  0  0  0  0  0
   -0.5395   -0.8224   -2.3775 C   0  0  0  0  0  0  0  0  0  0  0  0
    0.6053    0.4757   -2.9327 S   0  0  0  0  0  0  0  0  0  0  0  0
   -0.6196    1.7039   -3.4393 C   0  0  0  0  0  0  0  0  0  0  0  0
    1.2790   -1.2290    0.9021 H   0  0  0  0  0  0  0  0  0  0  0  0
    0.4712    0.5603   -0.2443 H   0  0  0  0  0  0  0  0  0  0  0  0
   -1.8387    0.5279   -1.3047 H   0  0  0  0  0  0  0  0  0  0  0  0
   -1.9912   -1.1600   -0.8156 H   0  0  0  0  0  0  0  0  0  0  0  0
   -1.2491   -1.0127   -3.1881 H   0  0  0  0  0  0  0  0  0  0  0  0
    0.0395   -1.7352   -2.2090 H   0  0  0  0  0  0  0  0  0  0  0  0
   -0.1162    2.5965   -3.8188 H   0  0  0  0  0  0  0  0  0  0  0  0
   -1.2418    1.9817   -2.5849 H   0  0  0  0  0  0  0  0  0  0  0  0
   -1.2560    1.2909   -4.2257 H   0  0  0  0  0  0  0  0  0  0  0  0
   -0.1555    1.1618    2.1268 N   0  0  0  0  0  0  0  0  0  0  0  0
   -0.5916    1.8558    3.3158 C   0  0  2  0  0  0  0  0  0  0  0  0
    0.2457    3.1202    3.4561 C   0  0  0  0  0  0  0  0  0  0  0  0
    1.3511    3.2539    2.9352 O   0  0  0  0  0  0  0  0  0  0  0  0
   -0.4593    0.9766    4.5495 C   0  0  0  0  0  0  0  0  0  0  0  0
    0.8427    1.1120    1.9456 H   0  0  0  0  0  0  0  0  0  0  0  0
   -1.6408    2.1276    3.1564 H   0  0  0  0  0  0  0  0  0  0  0  0
    0.5851    0.6940    4.7253 H   0  0  0  0  0  0  0  0  0  0  0  0
   -0.8170    1.4941    5.4458 H   0  0  0  0  0  0  0  0  0  0  0  0
   -1.0384    0.0539    4.4345 H   0  0  0  0  0  0  0  0  0  0  0  0
   -0.3676    4.0650    4.2669 N   0  0  0  0  0  0  0  0  0  0  0  0
    0.2328    5.3444    4.5647 C   0  0  0  0  0  0  0  0  0  0  0  0
   -1.2929    3.8770    4.6414 H   0  0  0  0  0  0  0  0  0  0  0  0
    0.8130    5.2697    5.4962 H   0  0  0  0  0  0  0  0  0  0  0  0
    0.8993    5.6373    3.7402 H   0  0  0  0  0  0  0  0  0  0  0  0
   -0.5568    6.1008    4.6843 H   0  0  0  0  0  0  0  0  0  0  0  0
  1  3  1  0  0  0  0
  1  7  1  0  0  0  0
  1  2  2  0  0  0  0
 35 36  1  0  0  0  0
 36 44  1  0  0  0  0
 36 37  2  0  0  0  0
  8  9  1  0  0  0  0
  9 17  1  0  0  0  0
  9 10  2  0  0  0  0
 18 19  1  0  0  0  0
 19 34  1  0  0  0  0
 19 20  2  0  0  0  0
 35 38  1  0  0  0  0
  8 11  1  0  0  0  0
 44 45  1  0  0  0  0
 23 24  1  0  0  0  0
 21 22  1  0  0  0  0
 18 21  1  0  0  0  0
 22 23  1  0  0  0  0
 34 35  1  0  0  0  0
  7  8  1  0  0  0  0
 17 18  1  0  0  0  0
  3  4  1  0  0  0  0
  3  5  1  0  0  0  0
  3  6  1  0  0  0  0
 38 41  1  0  0  0  0
 38 42  1  0  0  0  0
 38 43  1  0  0  0  0
 11 14  1  0  0  0  0
 11 15  1  0  0  0  0
 11 16  1  0  0  0  0
 45 47  1  0  0  0  0
 45 48  1  0  0  0  0
 45 49  1  0  0  0  0
 24 31  1  0  0  0  0
 24 32  1  0  0  0  0
 24 33  1  0  0  0  0
 21 27  1  0  0  0  0
 21 28  1  0  0  0  0
 22 29  1  0  0  0  0
 22 30  1  0  0  0  0
 35 40  1  0  0  0  0
  8 13  1  0  0  0  0
 18 26  1  0  0  0  0
 44 46  1  0  0  0  0
  7 12  1  0  0  0  0
 34 39  1  0  0  0  0
 17 25  1  0  0  0  0
M  END
$$$$

  -OEChem-05262214473D

 49 48  0     1  0  0  0  0  0999 V2000
   -0.0561   -5.3799    2.6949 C   0  0  0  0  0  0  0  0  0  0  0  0
    0.7325   -5.0736    3.5815 O   0  0  0  0  0  0  0  0  0  0  0  0
   -1.0067   -6.5099    2.9135 C   0  0  0  0  0  0  0  0  0  0  0  0
   -0.5910   -7.4777    2.5899 H   0  0  0  0  0  0  0  0  0  0  0  0
   -1.2629   -6.6440    3.9767 H   0  0  0  0  0  0  0  0  0  0  0  0
   -1.9729   -6.4206    2.3918 H   0  0  0  0  0  0  0  0  0  0  0  0
   -0.1735   -4.7694    1.4571 N   0  0  0  0  0  0  0  0  0  0  0  0
    0.6439   -3.6603    1.0409 C   0  0  2  0  0  0  0  0  0  0  0  0
   -0.2788   -2.5625    0.5280 C   0  0  0  0  0  0  0  0  0  0  0  0
   -1.4197   -2.7791    0.1251 O   0  0  0  0  0  0  0  0  0  0  0  0
    1.6395   -4.0779   -0.0301 C   0  0  0  0  0  0  0  0  0  0  0  0
   -0.8741   -5.1235    0.8083 H   0  0  0  0  0  0  0  0  0  0  0  0
    1.1738   -3.3062    1.9318 H   0  0  0  0  0  0  0  0  0  0  0  0
    1.1270   -4.4358   -0.9305 H   0  0  0  0  0  0  0  0  0  0  0  0
    2.2797   -3.2400   -0.3251 H   0  0  0  0  0  0  0  0  0  0  0  0
    2.2827   -4.8880    0.3303 H   0  0  0  0  0  0  0  0  0  0  0  0
    0.3351   -1.3153    0.5316 N   0  0  0  0  0  0  0  0  0  0  0  0
   -0.3268   -0.1184    0.0807 C   0  0  2  0  0  0  0  0  0  0  0  0
   -1.0387    0.5250    1.2668 C   0  0  0  0  0  0  0  0  0  0  0  0
   -2.2069    0.2784    1.5599 O   0  0  0  0  0  0  0  0  0  0  0  0
   -1.2664   -0.3874   -1.1027 C   0  0  0  0  0  0  0  0  0  0  0  0
   -0.5395   -0.8224   -2.3775 C   0  0  0  0  0  0  0  0  0  0  0  0
    0.6053    0.4757   -2.9327 S   0  0  0  0  0  0  0  0  0  0  0  0
   -0.6196    1.7039   -3.4393 C   0  0  0  0  0  0  0  0  0  0  0  0
    1.2790   -1.2290    0.9021 H   0  0  0  0  0  0  0  0  0  0  0  0
    0.4712    0.5603   -0.2443 H   0  0  0  0  0  0  0  0  0  0  0  0
   -1.8387    0.5279   -1.3047 H   0  0  0  0  0  0  0  0  0  0  0  0
   -1.9912   -1.1600   -0.8156 H   0  0  0  0  0  0  0  0  0  0  0  0
   -1.2491   -1.0127   -3.1881 H   0  0  0  0  0  0  0  0  0  0  0  0
    0.0395   -1.7352   -2.2090 H   0  0  0  0  0  0  0  0  0  0  0  0
   -0.1162    2.5965   -3.8188 H   0  0  0  0  0  0  0  0  0  0  0  0
   -1.2418    1.9817   -2.5849 H   0  0  0  0  0  0  0  0  0  0  0  0
   -1.2560    1.2909   -4.2257 H   0  0  0  0  0  0  0  0  0  0  0  0
   -0.2282    1.4292    1.9381 N   0  0  0  0  0  0  0  0  0  0  0  0
   -0.6819    2.1758    3.0880 C   0  0  2  0  0  0  0  0  0  0  0  0
   -0.1162    3.5862    2.9861 C   0  0  0  0  0  0  0  0  0  0  0  0
    0.8815    3.8625    2.3232 O   0  0  0  0  0  0  0  0  0  0  0  0
   -0.2509    1.5097    4.3854 C   0  0  0  0  0  0  0  0  0  0  0  0
    0.7362    1.5511    1.6436 H   0  0  0  0  0  0  0  0  0  0  0  0
   -1.7750    2.2150    3.0284 H   0  0  0  0  0  0  0  0  0  0  0  0
    0.8414    1.4614    4.4629 H   0  0  0  0  0  0  0  0  0  0  0  0
   -0.6199    2.0615    5.2563 H   0  0  0  0  0  0  0  0  0  0  0  0
   -0.6339    0.4852    4.4434 H   0  0  0  0  0  0  0  0  0  0  0  0
   -0.8311    4.4922    3.7569 N   0  0  0  0  0  0  0  0  0  0  0  0
   -0.4840    5.8918    3.8375 C   0  0  0  0  0  0  0  0  0  0  0  0
   -1.6564    4.1789    4.2594 H   0  0  0  0  0  0  0  0  0  0  0  0
    0.1865    6.0551    4.6942 H   0  0  0  0  0  0  0  0  0  0  0  0
    0.0241    6.1974    2.9110 H   0  0  0  0  0  0  0  0  0  0  0  0
   -1.3982    6.4893    3.9686 H   0  0  0  0  0  0  0  0  0  0  0  0
  1  3  1  0  0  0  0
  1  7  1  0  0  0  0
  1  2  2  0  0  0  0
 35 36  1  0  0  0  0
 36 44  1  0  0  0  0
 36 37  2  0  0  0  0
  8  9  1  0  0  0  0
  9 17  1  0  0  0  0
  9 10  2  0  0  0  0
 18 19  1  0  0  0  0
 19 34  1  0  0  0  0
 19 20  2  0  0  0  0
 35 38  1  0  0  0  0
  8 11  1  0  0  0  0
 44 45  1  0  0  0  0
 23 24  1  0  0  0  0
 21 22  1  0  0  0  0
 18 21  1  0  0  0  0
 22 23  1  0  0  0  0
 34 35  1  0  0  0  0
  7  8  1  0  0  0  0
 17 18  1  0  0  0  0
  3  4  1  0  0  0  0
  3  5  1  0  0  0  0
  3  6  1  0  0  0  0
 38 41  1  0  0  0  0
 38 42  1  0  0  0  0
 38 43  1  0  0  0  0
 11 14  1  0  0  0  0
 11 15  1  0  0  0  0
 11 16  1  0  0  0  0
 45 47  1  0  0  0  0
 45 48  1  0  0  0  0
 45 49  1  0  0  0  0
 24 31  1  0  0  0  0
 24 32  1  0  0  0  0
 24 33  1  0  0  0  0
 21 27  1  0  0  0  0
 21 28  1  0  0  0  0
 22 29  1  0  0  0  0
 22 30  1  0  0  0  0
 35 40  1  0  0  0  0
  8 13  1  0  0  0  0
 18 26  1  0  0  0  0
 44 46  1  0  0  0  0
  7 12  1  0  0  0  0
 34 39  1  0  0  0  0
 17 25  1  0  0  0  0
M  END
$$$$

  -OEChem-05262214473D

 49 48  0     1  0  0  0  0  0999 V2000
   -0.0561   -5.3799    2.6949 C   0  0  0  0  0  0  0  0  0  0  0  0
    0.7325   -5.0736    3.5815 O   0  0  0  0  0  0  0  0  0  0  0  0
   -1.0067   -6.5099    2.9135 C   0  0  0  0  0  0  0  0  0  0  0  0
   -0.5910   -7.4777    2.5899 H   0  0  0  0  0  0  0  0  0  0  0  0
   -1.2629   -6.6440    3.9767 H   0  0  0  0  0  0  0  0  0  0  0  0
   -1.9729   -6.4206    2.3918 H   0  0  0  0  0  0  0  0  0  0  0  0
   -0.1735   -4.7694    1.4571 N   0  0  0  0  0  0  0  0  0  0  0  0
    0.6439   -3.6603    1.0409 C   0  0  2  0  0  0  0  0  0  0  0  0
   -0.2788   -2.5625    0.5280 C   0  0  0  0  0  0  0  0  0  0  0  0
   -1.4197   -2.7791    0.1251 O   0  0  0  0  0  0  0  0  0  0  0  0
    1.6395   -4.0779   -0.0301 C   0  0  0  0  0  0  0  0  0  0  0  0
   -0.8741   -5.1235    0.8083 H   0  0  0  0  0  0  0  0  0  0  0  0
    1.1738   -3.3062    1.9318 H   0  0  0  0  0  0  0  0  0  0  0  0
    1.1270   -4.4358   -0.9305 H   0  0  0  0  0  0  0  0  0  0  0  0
    2.2797   -3.2400   -0.3251 H   0  0  0  0  0  0  0  0  0  0  0  0
    2.2827   -4.8880    0.3303 H   0  0  0  0  0  0  0  0  0  0  0  0
    0.3351   -1.3153    0.5316 N   0  0  0  0  0  0  0  0  0  0  0  0
   -0.3268   -0.1184    0.0807 C   0  0  2  0  0  0  0  0  0  0  0  0
   -1.0387    0.5250    1.2668 C   0  0  0  0  0  0  0  0  0  0  0  0
   -2.0961    0.0968    1.7249 O   0  0  0  0  0  0  0  0  0  0  0  0
   -1.2664   -0.3874   -1.1027 C   0  0  0  0  0  0  0  0  0  0  0  0
   -0.5395   -0.8224   -2.3775 C   0  0  0  0  0  0  0  0  0  0  0  0
    0.6053    0.4757   -2.9327 S   0  0  0  0  0  0  0  0  0  0  0  0
   -0.6196    1.7039   -3.4393 C   0  0  0  0  0  0  0  0  0  0  0  0
    1.2790   -1.2290    0.9021 H   0  0  0  0  0  0  0  0  0  0  0  0
    0.4712    0.5603   -0.2443 H   0  0  0  0  0  0  0  0  0  0  0  0
   -1.8387    0.5279   -1.3047 H   0  0  0  0  0  0  0  0  0  0  0  0
   -1.9912   -1.1600   -0.8156 H   0  0  0  0  0  0  0  0  0  0  0  0
   -1.2491   -1.0127   -3.1881 H   0  0  0  0  0  0  0  0  0  0  0  0
    0.0395   -1.7352   -2.2090 H   0  0  0  0  0  0  0  0  0  0  0  0
   -0.1162    2.5965   -3.8188 H   0  0  0  0  0  0  0  0  0  0  0  0
   -1.2418    1.9817   -2.5849 H   0  0  0  0  0  0  0  0  0  0  0  0
   -1.2560    1.2909   -4.2257 H   0  0  0  0  0  0  0  0  0  0  0  0
   -0.3729    1.6501    1.7314 N   0  0  0  0  0  0  0  0  0  0  0  0
   -0.8584    2.4393    2.8391 C   0  0  2  0  0  0  0  0  0  0  0  0
   -0.6109    3.9067    2.5153 C   0  0  0  0  0  0  0  0  0  0  0  0
    0.2386    4.2819    1.7099 O   0  0  0  0  0  0  0  0  0  0  0  0
   -0.1748    2.0469    4.1397 C   0  0  0  0  0  0  0  0  0  0  0  0
    0.5120    1.9173    1.3103 H   0  0  0  0  0  0  0  0  0  0  0  0
   -1.9363    2.2569    2.9089 H   0  0  0  0  0  0  0  0  0  0  0  0
    0.9059    2.2226    4.0887 H   0  0  0  0  0  0  0  0  0  0  0  0
   -0.5644    2.6263    4.9832 H   0  0  0  0  0  0  0  0  0  0  0  0
   -0.3289    0.9842    4.3557 H   0  0  0  0  0  0  0  0  0  0  0  0
   -1.4205    4.7500    3.2633 N   0  0  0  0  0  0  0  0  0  0  0  0
   -1.3658    6.1886    3.1473 C   0  0  0  0  0  0  0  0  0  0  0  0
   -2.1100    4.3512    3.8936 H   0  0  0  0  0  0  0  0  0  0  0  0
   -0.6642    6.5907    3.8930 H   0  0  0  0  0  0  0  0  0  0  0  0
   -1.0245    6.4622    2.1380 H   0  0  0  0  0  0  0  0  0  0  0  0
   -2.3672    6.6088    3.3221 H   0  0  0  0  0  0  0  0  0  0  0  0
  1  3  1  0  0  0  0
  1  7  1  0  0  0  0
  1  2  2  0  0  0  0
 35 36  1  0  0  0  0
 36 44  1  0  0  0  0
 36 37  2  0  0  0  0
  8  9  1  0  0  0  0
  9 17  1  0  0  0  0
  9 10  2  0  0  0  0
 18 19  1  0  0  0  0
 19 34  1  0  0  0  0
 19 20  2  0  0  0  0
 35 38  1  0  0  0  0
  8 11  1  0  0  0  0
 44 45  1  0  0  0  0
 23 24  1  0  0  0  0
 21 22  1  0  0  0  0
 18 21  1  0  0  0  0
 22 23  1  0  0  0  0
 34 35  1  0  0  0  0
  7  8  1  0  0  0  0
 17 18  1  0  0  0  0
  3  4  1  0  0  0  0
  3  5  1  0  0  0  0
  3  6  1  0  0  0  0
 38 41  1  0  0  0  0
 38 42  1  0  0  0  0
 38 43  1  0  0  0  0
 11 14  1  0  0  0  0
 11 15  1  0  0  0  0
 11 16  1  0  0  0  0
 45 47  1  0  0  0  0
 45 48  1  0  0  0  0
 45 49  1  0  0  0  0
 24 31  1  0  0  0  0
 24 32  1  0  0  0  0
 24 33  1  0  0  0  0
 21 27  1  0  0  0  0
 21 28  1  0  0  0  0
 22 29  1  0  0  0  0
 22 30  1  0  0  0  0
 35 40  1  0  0  0  0
  8 13  1  0  0  0  0
 18 26  1  0  0  0  0
 44 46  1  0  0  0  0
  7 12  1  0  0  0  0
 34 39  1  0  0  0  0
 17 25  1  0  0  0  0
M  END
$$$$

  -OEChem-05262214473D

 49 48  0     1  0  0  0  0  0999 V2000
   -0.0561   -5.3799    2.6949 C   0  0  0  0  0  0  0  0  0  0  0  0
    0.7325   -5.0736    3.5815 O   0  0  0  0  0  0  0  0  0  0  0  0
   -1.0067   -6.5099    2.9135 C   0  0  0  0  0  0  0  0  0  0  0  0
   -0.5910   -7.4777    2.5899 H   0  0  0  0  0  0  0  0  0  0  0  0
   -1.2629   -6.6440    3.9767 H   0  0  0  0  0  0  0  0  0  0  0  0
   -1.9729   -6.4206    2.3918 H   0  0  0  0  0  0  0  0  0  0  0  0
   -0.1735   -4.7694    1.4571 N   0  0  0  0  0  0  0  0  0  0  0  0
    0.6439   -3.6603    1.0409 C   0  0  2  0  0  0  0  0  0  0  0  0
   -0.2788   -2.5625    0.5280 C   0  0  0  0  0  0  0  0  0  0  0  0
   -1.4197   -2.7791    0.1251 O   0  0  0  0  0  0  0  0  0  0  0  0
    1.6395   -4.0779   -0.0301 C   0  0  0  0  0  0  0  0  0  0  0  0
   -0.8741   -5.1235    0.8083 H   0  0  0  0  0  0  0  0  0  0  0  0
    1.1738   -3.3062    1.9318 H   0  0  0  0  0  0  0  0  0  0  0  0
    1.1270   -4.4358   -0.9305 H   0  0  0  0  0  0  0  0  0  0  0  0
    2.2797   -3.2400   -0.3251 H   0  0  0  0  0  0  0  0  0  0  0  0
    2.2827   -4.8880    0.3303 H   0  0  0  0  0  0  0  0  0  0  0  0
    0.3351   -1.3153    0.5316 N   0  0  0  0  0  0  0  0  0  0  0  0
   -0.3268   -0.1184    0.0807 C   0  0  2  0  0  0  0  0  0  0  0  0
   -1.0387    0.5250    1.2668 C   0  0  0  0  0  0  0  0  0  0  0  0
   -1.9345   -0.0364    1.8941 O   0  0  0  0  0  0  0  0  0  0  0  0
   -1.2664   -0.3874   -1.1027 C   0  0  0  0  0  0  0  0  0  0  0  0
   -0.5395   -0.8224   -2.3775 C   0  0  0  0  0  0  0  0  0  0  0  0
    0.6053    0.4757   -2.9327 S   0  0  0  0  0  0  0  0  0  0  0  0
   -0.6196    1.7039   -3.4393 C   0  0  0  0  0  0  0  0  0  0  0  0
    1.2790   -1.2290    0.9021 H   0  0  0  0  0  0  0  0  0  0  0  0
    0.4712    0.5603   -0.2443 H   0  0  0  0  0  0  0  0  0  0  0  0
   -1.8387    0.5279   -1.3047 H   0  0  0  0  0  0  0  0  0  0  0  0
   -1.9912   -1.1600   -0.8156 H   0  0  0  0  0  0  0  0  0  0  0  0
   -1.2491   -1.0127   -3.1881 H   0  0  0  0  0  0  0  0  0  0  0  0
    0.0395   -1.7352   -2.2090 H   0  0  0  0  0  0  0  0  0  0  0  0
   -0.1162    2.5965   -3.8188 H   0  0  0  0  0  0  0  0  0  0  0  0
   -1.2418    1.9817   -2.5849 H   0  0  0  0  0  0  0  0  0  0  0  0
   -1.2560    1.2909   -4.2257 H   0  0  0  0  0  0  0  0  0  0  0  0
   -0.5796    1.8094    1.5209 N   0  0  0  0  0  0  0  0  0  0  0  0
   -1.1090    2.6282    2.5862 C   0  0  2  0  0  0  0  0  0  0  0  0
   -1.2046    4.0599    2.0758 C   0  0  0  0  0  0  0  0  0  0  0  0
   -0.5337    4.4835    1.1369 O   0  0  0  0  0  0  0  0  0  0  0  0
   -0.2362    2.5514    3.8292 C   0  0  0  0  0  0  0  0  0  0  0  0
    0.1854    2.1856    0.9687 H   0  0  0  0  0  0  0  0  0  0  0  0
   -2.1135    2.2504    2.8061 H   0  0  0  0  0  0  0  0  0  0  0  0
    0.7743    2.9256    3.6283 H   0  0  0  0  0  0  0  0  0  0  0  0
   -0.6542    3.1500    4.6452 H   0  0  0  0  0  0  0  0  0  0  0  0
   -0.1443    1.5169    4.1775 H   0  0  0  0  0  0  0  0  0  0  0  0
   -2.0955    4.8208    2.8197 N   0  0  0  0  0  0  0  0  0  0  0  0
   -2.3526    6.2144    2.5409 C   0  0  0  0  0  0  0  0  0  0  0  0
   -2.6227    4.3823    3.5690 H   0  0  0  0  0  0  0  0  0  0  0  0
   -1.6812    6.8401    3.1473 H   0  0  0  0  0  0  0  0  0  0  0  0
   -2.1750    6.4136    1.4738 H   0  0  0  0  0  0  0  0  0  0  0  0
   -3.3978    6.4511    2.7891 H   0  0  0  0  0  0  0  0  0  0  0  0
  1  3  1  0  0  0  0
  1  7  1  0  0  0  0
  1  2  2  0  0  0  0
 35 36  1  0  0  0  0
 36 44  1  0  0  0  0
 36 37  2  0  0  0  0
  8  9  1  0  0  0  0
  9 17  1  0  0  0  0
  9 10  2  0  0  0  0
 18 19  1  0  0  0  0
 19 34  1  0  0  0  0
 19 20  2  0  0  0  0
 35 38  1  0  0  0  0
  8 11  1  0  0  0  0
 44 45  1  0  0  0  0
 23 24  1  0  0  0  0
 21 22  1  0  0  0  0
 18 21  1  0  0  0  0
 22 23  1  0  0  0  0
 34 35  1  0  0  0  0
  7  8  1  0  0  0  0
 17 18  1  0  0  0  0
  3  4  1  0  0  0  0
  3  5  1  0  0  0  0
  3  6  1  0  0  0  0
 38 41  1  0  0  0  0
 38 42  1  0  0  0  0
 38 43  1  0  0  0  0
 11 14  1  0  0  0  0
 11 15  1  0  0  0  0
 11 16  1  0  0  0  0
 45 47  1  0  0  0  0
 45 48  1  0  0  0  0
 45 49  1  0  0  0  0
 24 31  1  0  0  0  0
 24 32  1  0  0  0  0
 24 33  1  0  0  0  0
 21 27  1  0  0  0  0
 21 28  1  0  0  0  0
 22 29  1  0  0  0  0
 22 30  1  0  0  0  0
 35 40  1  0  0  0  0
  8 13  1  0  0  0  0
 18 26  1  0  0  0  0
 44 46  1  0  0  0  0
  7 12  1  0  0  0  0
 34 39  1  0  0  0  0
 17 25  1  0  0  0  0
M  END
$$$$

  -OEChem-05262214473D

 49 48  0     1  0  0  0  0  0999 V2000
   -0.0561   -5.3799    2.6949 C   0  0  0  0  0  0  0  0  0  0  0  0
    0.7325   -5.0736    3.5815 O   0  0  0  0  0  0  0  0  0  0  0  0
   -1.0067   -6.5099    2.9135 C   0  0  0  0  0  0  0  0  0  0  0  0
   -0.5910   -7.4777    2.5899 H   0  0  0  0  0  0  0  0  0  0  0  0
   -1.2629   -6.6440    3.9767 H   0  0  0  0  0  0  0  0  0  0  0  0
   -1.9729   -6.4206    2.3918 H   0  0  0  0  0  0  0  0  0  0  0  0
   -0.1735   -4.7694    1.4571 N   0  0  0  0  0  0  0  0  0  0  0  0
    0.6439   -3.6603    1.0409 C   0  0  2  0  0  0  0  0  0  0  0  0
   -0.2788   -2.5625    0.5280 C   0  0  0  0  0  0  0  0  0  0  0  0
   -1.4197   -2.7791    0.1251 O   0  0  0  0  0  0  0  0  0  0  0  0
    1.6395   -4.0779   -0.0301 C   0  0  0  0  0  0  0  0  0  0  0  0
   -0.8741   -5.1235    0.8083 H   0  0  0  0  0  0  0  0  0  0  0  0
    1.1738   -3.3062    1.9318 H   0  0  0  0  0  0  0  0  0  0  0  0
    1.1270   -4.4358   -0.9305 H   0  0  0  0  0  0  0  0  0  0  0  0
    2.2797   -3.2400   -0.3251 H   0  0  0  0  0  0  0  0  0  0  0  0
    2.2827   -4.8880    0.3303 H   0  0  0  0  0  0  0  0  0  0  0  0
    0.3351   -1.3153    0.5316 N   0  0  0  0  0  0  0  0  0  0  0  0
   -0.3268   -0.1184    0.0807 C   0  0  2  0  0  0  0  0  0  0  0  0
   -1.0387    0.5250    1.2668 C   0  0  0  0  0  0  0  0  0  0  0  0
   -1.7332   -0.1122    2.0561 O   0  0  0  0  0  0  0  0  0  0  0  0
   -1.2664   -0.3874   -1.1027 C   0  0  0  0  0  0  0  0  0  0  0  0
   -0.5395   -0.8224   -2.3775 C   0  0  0  0  0  0  0  0  0  0  0  0
    0.6053    0.4757   -2.9327 S   0  0  0  0  0  0  0  0  0  0  0  0
   -0.6196    1.7039   -3.4393 C   0  0  0  0  0  0  0  0  0  0  0  0
    1.2790   -1.2290    0.9021 H   0  0  0  0  0  0  0  0  0  0  0  0
    0.4712    0.5603   -0.2443 H   0  0  0  0  0  0  0  0  0  0  0  0
   -1.8387    0.5279   -1.3047 H   0  0  0  0  0  0  0  0  0  0  0  0
   -1.9912   -1.1600   -0.8156 H   0  0  0  0  0  0  0  0  0  0  0  0
   -1.2491   -1.0127   -3.1881 H   0  0  0  0  0  0  0  0  0  0  0  0
    0.0395   -1.7352   -2.2090 H   0  0  0  0  0  0  0  0  0  0  0  0
   -0.1162    2.5965   -3.8188 H   0  0  0  0  0  0  0  0  0  0  0  0
   -1.2418    1.9817   -2.5849 H   0  0  0  0  0  0  0  0  0  0  0  0
   -1.2560    1.2909   -4.2257 H   0  0  0  0  0  0  0  0  0  0  0  0
   -0.8343    1.8963    1.3209 N   0  0  0  0  0  0  0  0  0  0  0  0
   -1.4167    2.7297    2.3464 C   0  0  2  0  0  0  0  0  0  0  0  0
   -1.8568    4.0354    1.6976 C   0  0  0  0  0  0  0  0  0  0  0  0
   -1.3828    4.4537    0.6434 O   0  0  0  0  0  0  0  0  0  0  0  0
   -0.4309    2.9888    3.4750 C   0  0  0  0  0  0  0  0  0  0  0  0
   -0.2214    2.3379    0.6420 H   0  0  0  0  0  0  0  0  0  0  0  0
   -2.2946    2.1962    2.7268 H   0  0  0  0  0  0  0  0  0  0  0  0
    0.4554    3.5226    3.1130 H   0  0  0  0  0  0  0  0  0  0  0  0
   -0.8833    3.5970    4.2652 H   0  0  0  0  0  0  0  0  0  0  0  0
   -0.0927    2.0472    3.9209 H   0  0  0  0  0  0  0  0  0  0  0  0
   -2.8102    4.6998    2.4564 N   0  0  0  0  0  0  0  0  0  0  0  0
   -3.3772    5.9676    2.0598 C   0  0  0  0  0  0  0  0  0  0  0  0
   -3.1597    4.2699    3.3077 H   0  0  0  0  0  0  0  0  0  0  0  0
   -2.7951    6.7864    2.5078 H   0  0  0  0  0  0  0  0  0  0  0  0
   -3.3490    6.0549    0.9636 H   0  0  0  0  0  0  0  0  0  0  0  0
   -4.4197    6.0271    2.4057 H   0  0  0  0  0  0  0  0  0  0  0  0
  1  3  1  0  0  0  0
  1  7  1  0  0  0  0
  1  2  2  0  0  0  0
 35 36  1  0  0  0  0
 36 44  1  0  0  0  0
 36 37  2  0  0  0  0
  8  9  1  0  0  0  0
  9 17  1  0  0  0  0
  9 10  2  0  0  0  0
 18 19  1  0  0  0  0
 19 34  1  0  0  0  0
 19 20  2  0  0  0  0
 35 38  1  0  0  0  0
  8 11  1  0  0  0  0
 44 45  1  0  0  0  0
 23 24  1  0  0  0  0
 21 22  1  0  0  0  0
 18 21  1  0  0  0  0
 22 23  1  0  0  0  0
 34 35  1  0  0  0  0
  7  8  1  0  0  0  0
 17 18  1  0  0  0  0
  3  4  1  0  0  0  0
  3  5  1  0  0  0  0
  3  6  1  0  0  0  0
 38 41  1  0  0  0  0
 38 42  1  0  0  0  0
 38 43  1  0  0  0  0
 11 14  1  0  0  0  0
 11 15  1  0  0  0  0
 11 16  1  0  0  0  0
 45 47  1  0  0  0  0
 45 48  1  0  0  0  0
 45 49  1  0  0  0  0
 24 31  1  0  0  0  0
 24 32  1  0  0  0  0
 24 33  1  0  0  0  0
 21 27  1  0  0  0  0
 21 28  1  0  0  0  0
 22 29  1  0  0  0  0
 22 30  1  0  0  0  0
 35 40  1  0  0  0  0
  8 13  1  0  0  0  0
 18 26  1  0  0  0  0
 44 46  1  0  0  0  0
  7 12  1  0  0  0  0
 34 39  1  0  0  0  0
 17 25  1  0  0  0  0
M  END
$$$$

  -OEChem-05262214473D

 49 48  0     1  0  0  0  0  0999 V2000
   -0.0561   -5.3799    2.6949 C   0  0  0  0  0  0  0  0  0  0  0  0
    0.7325   -5.0736    3.5815 O   0  0  0  0  0  0  0  0  0  0  0  0
   -1.0067   -6.5099    2.9135 C   0  0  0  0  0  0  0  0  0  0  0  0
   -0.5910   -7.4777    2.5899 H   0  0  0  0  0  0  0  0  0  0  0  0
   -1.2629   -6.6440    3.9767 H   0  0  0  0  0  0  0  0  0  0  0  0
   -1.9729   -6.4206    2.3918 H   0  0  0  0  0  0  0  0  0  0  0  0
   -0.1735   -4.7694    1.4571 N   0  0  0  0  0  0  0  0  0  0  0  0
    0.6439   -3.6603    1.0409 C   0  0  2  0  0  0  0  0  0  0  0  0
   -0.2788   -2.5625    0.5280 C   0  0  0  0  0  0  0  0  0  0  0  0
   -1.4197   -2.7791    0.1251 O   0  0  0  0  0  0  0  0  0  0  0  0
    1.6395   -4.0779   -0.0301 C   0  0  0  0  0  0  0  0  0  0  0  0
   -0.8741   -5.1235    0.8083 H   0  0  0  0  0  0  0  0  0  0  0  0
    1.1738   -3.3062    1.9318 H   0  0  0  0  0  0  0  0  0  0  0  0
    1.1270   -4.4358   -0.9305 H   0  0  0  0  0  0  0  0  0  0  0  0
    2.2797   -3.2400   -0.3251 H   0  0  0  0  0  0  0  0  0  0  0  0
    2.2827   -4.8880    0.3303 H   0  0  0  0  0  0  0  0  0  0  0  0
    0.3351   -1.3153    0.5316 N   0  0  0  0  0  0  0  0  0  0  0  0
   -0.3268   -0.1184    0.0807 C   0  0  2  0  0  0  0  0  0  0  0  0
   -1.0387    0.5250    1.2668 C   0  0  0  0  0  0  0  0  0  0  0  0
   -1.5058   -0.1253    2.1996 O   0  0  0  0  0  0  0  0  0  0  0  0
   -1.2664   -0.3874   -1.1027 C   0  0  0  0  0  0  0  0  0  0  0  0
   -0.5395   -0.8224   -2.3775 C   0  0  0  0  0  0  0  0  0  0  0  0
    0.6053    0.4757   -2.9327 S   0  0  0  0  0  0  0  0  0  0  0  0
   -0.6196    1.7039   -3.4393 C   0  0  0  0  0  0  0  0  0  0  0  0
    1.2790   -1.2290    0.9021 H   0  0  0  0  0  0  0  0  0  0  0  0
    0.4712    0.5603   -0.2443 H   0  0  0  0  0  0  0  0  0  0  0  0
   -1.8387    0.5279   -1.3047 H   0  0  0  0  0  0  0  0  0  0  0  0
   -1.9912   -1.1600   -0.8156 H   0  0  0  0  0  0  0  0  0  0  0  0
   -1.2491   -1.0127   -3.1881 H   0  0  0  0  0  0  0  0  0  0  0  0
    0.0395   -1.7352   -2.2090 H   0  0  0  0  0  0  0  0  0  0  0  0
   -0.1162    2.5965   -3.8188 H   0  0  0  0  0  0  0  0  0  0  0  0
   -1.2418    1.9817   -2.5849 H   0  0  0  0  0  0  0  0  0  0  0  0
   -1.2560    1.2909   -4.2257 H   0  0  0  0  0  0  0  0  0  0  0  0
   -1.1196    1.9048    1.1451 N   0  0  0  0  0  0  0  0  0  0  0  0
   -1.7606    2.7369    2.1362 C   0  0  2  0  0  0  0  0  0  0  0  0
   -2.5232    3.8348    1.4065 C   0  0  0  0  0  0  0  0  0  0  0  0
   -2.2508    4.1945    0.2630 O   0  0  0  0  0  0  0  0  0  0  0  0
   -0.7456    3.3294    3.1014 C   0  0  0  0  0  0  0  0  0  0  0  0
   -0.6805    2.3637    0.3524 H   0  0  0  0  0  0  0  0  0  0  0  0
   -2.4673    2.0977    2.6766 H   0  0  0  0  0  0  0  0  0  0  0  0
   -0.0290    3.9729    2.5781 H   0  0  0  0  0  0  0  0  0  0  0  0
   -1.2359    3.9369    3.8692 H   0  0  0  0  0  0  0  0  0  0  0  0
   -0.1775    2.5388    3.6033 H   0  0  0  0  0  0  0  0  0  0  0  0
   -3.5159    4.3953    2.1980 N   0  0  0  0  0  0  0  0  0  0  0  0
   -4.3697    5.4649    1.7368 C   0  0  0  0  0  0  0  0  0  0  0  0
   -3.6842    4.0217    3.1275 H   0  0  0  0  0  0  0  0  0  0  0  0
   -3.9300    6.4331    2.0183 H   0  0  0  0  0  0  0  0  0  0  0  0
   -4.4665    5.4106    0.6424 H   0  0  0  0  0  0  0  0  0  0  0  0
   -5.3634    5.3656    2.1981 H   0  0  0  0  0  0  0  0  0  0  0  0
  1  3  1  0  0  0  0
  1  7  1  0  0  0  0
  1  2  2  0  0  0  0
 35 36  1  0  0  0  0
 36 44  1  0  0  0  0
 36 37  2  0  0  0  0
  8  9  1  0  0  0  0
  9 17  1  0  0  0  0
  9 10  2  0  0  0  0
 18 19  1  0  0  0  0
 19 34  1  0  0  0  0
 19 20  2  0  0  0  0
 35 38  1  0  0  0  0
  8 11  1  0  0  0  0
 44 45  1  0  0  0  0
 23 24  1  0  0  0  0
 21 22  1  0  0  0  0
 18 21  1  0  0  0  0
 22 23  1  0  0  0  0
 34 35  1  0  0  0  0
  7  8  1  0  0  0  0
 17 18  1  0  0  0  0
  3  4  1  0  0  0  0
  3  5  1  0  0  0  0
  3  6  1  0  0  0  0
 38 41  1  0  0  0  0
 38 42  1  0  0  0  0
 38 43  1  0  0  0  0
 11 14  1  0  0  0  0
 11 15  1  0  0  0  0
 11 16  1  0  0  0  0
 45 47  1  0  0  0  0
 45 48  1  0  0  0  0
 45 49  1  0  0  0  0
 24 31  1  0  0  0  0
 24 32  1  0  0  0  0
 24 33  1  0  0  0  0
 21 27  1  0  0  0  0
 21 28  1  0  0  0  0
 22 29  1  0  0  0  0
 22 30  1  0  0  0  0
 35 40  1  0  0  0  0
  8 13  1  0  0  0  0
 18 26  1  0  0  0  0
 44 46  1  0  0  0  0
  7 12  1  0  0  0  0
 34 39  1  0  0  0  0
 17 25  1  0  0  0  0
M  END
$$$$

  -OEChem-05262214473D

 49 48  0     1  0  0  0  0  0999 V2000
   -0.0561   -5.3799    2.6949 C   0  0  0  0  0  0  0  0  0  0  0  0
    0.7325   -5.0736    3.5815 O   0  0  0  0  0  0  0  0  0  0  0  0
   -1.0067   -6.5099    2.9135 C   0  0  0  0  0  0  0  0  0  0  0  0
   -0.5910   -7.4777    2.5899 H   0  0  0  0  0  0  0  0  0  0  0  0
   -1.2629   -6.6440    3.9767 H   0  0  0  0  0  0  0  0  0  0  0  0
   -1.9729   -6.4206    2.3918 H   0  0  0  0  0  0  0  0  0  0  0  0
   -0.1735   -4.7694    1.4571 N   0  0  0  0  0  0  0  0  0  0  0  0
    0.6439   -3.6603    1.0409 C   0  0  2  0  0  0  0  0  0  0  0  0
   -0.2788   -2.5625    0.5280 C   0  0  0  0  0  0  0  0  0  0  0  0
   -1.4197   -2.7791    0.1251 O   0  0  0  0  0  0  0  0  0  0  0  0
    1.6395   -4.0779   -0.0301 C   0  0  0  0  0  0  0  0  0  0  0  0
   -0.8741   -5.1235    0.8083 H   0  0  0  0  0  0  0  0  0  0  0  0
    1.1738   -3.3062    1.9318 H   0  0  0  0  0  0  0  0  0  0  0  0
    1.1270   -4.4358   -0.9305 H   0  0  0  0  0  0  0  0  0  0  0  0
    2.2797   -3.2400   -0.3251 H   0  0  0  0  0  0  0  0  0  0  0  0
    2.2827   -4.8880    0.3303 H   0  0  0  0  0  0  0  0  0  0  0  0
    0.3351   -1.3153    0.5316 N   0  0  0  0  0  0  0  0  0  0  0  0
   -0.3268   -0.1184    0.0807 C   0  0  2  0  0  0  0  0  0  0  0  0
   -1.0387    0.5250    1.2668 C   0  0  0  0  0  0  0  0  0  0  0  0
   -1.2678   -0.0748    2.3151 O   0  0  0  0  0  0  0  0  0  0  0  0
   -1.2664   -0.3874   -1.1027 C   0  0  0  0  0  0  0  0  0  0  0  0
   -0.5395   -0.8224   -2.3775 C   0  0  0  0  0  0  0  0  0  0  0  0
    0.6053    0.4757   -2.9327 S   0  0  0  0  0  0  0  0  0  0  0  0
   -0.6196    1.7039   -3.4393 C   0  0  0  0  0  0  0  0  0  0  0  0
    1.2790   -1.2290    0.9021 H   0  0  0  0  0  0  0  0  0  0  0  0
    0.4712    0.5603   -0.2443 H   0  0  0  0  0  0  0  0  0  0  0  0
   -1.8387    0.5279   -1.3047 H   0  0  0  0  0  0  0  0  0  0  0  0
   -1.9912   -1.1600   -0.8156 H   0  0  0  0  0  0  0  0  0  0  0  0
   -1.2491   -1.0127   -3.1881 H   0  0  0  0  0  0  0  0  0  0  0  0
    0.0395   -1.7352   -2.2090 H   0  0  0  0  0  0  0  0  0  0  0  0
   -0.1162    2.5965   -3.8188 H   0  0  0  0  0  0  0  0  0  0  0  0
   -1.2418    1.9817   -2.5849 H   0  0  0  0  0  0  0  0  0  0  0  0
   -1.2560    1.2909   -4.2257 H   0  0  0  0  0  0  0  0  0  0  0  0
   -1.4161    1.8343    1.0053 N   0  0  0  0  0  0  0  0  0  0  0  0
   -2.1171    2.6492    1.9697 C   0  0  2  0  0  0  0  0  0  0  0  0
   -3.1583    3.4718    1.2222 C   0  0  0  0  0  0  0  0  0  0  0  0
   -3.0786    3.7235    0.0216 O   0  0  0  0  0  0  0  0  0  0  0  0
   -1.1589    3.5499    2.7336 C   0  0  0  0  0  0  0  0  0  0  0  0
   -1.1609    2.2612    0.1197 H   0  0  0  0  0  0  0  0  0  0  0  0
   -2.6198    1.9618    2.6588 H   0  0  0  0  0  0  0  0  0  0  0  0
   -0.6459    4.2457    2.0598 H   0  0  0  0  0  0  0  0  0  0  0  0
   -1.6882    4.1463    3.4841 H   0  0  0  0  0  0  0  0  0  0  0  0
   -0.3930    2.9582    3.2465 H   0  0  0  0  0  0  0  0  0  0  0  0
   -4.1644    3.9279    2.0623 N   0  0  0  0  0  0  0  0  0  0  0  0
   -5.2626    4.7406    1.5938 C   0  0  0  0  0  0  0  0  0  0  0  0
   -4.1607    3.6547    3.0406 H   0  0  0  0  0  0  0  0  0  0  0  0
   -5.0086    5.8044    1.7119 H   0  0  0  0  0  0  0  0  0  0  0  0
   -5.4514    4.5246    0.5318 H   0  0  0  0  0  0  0  0  0  0  0  0
   -6.1644    4.5117    2.1805 H   0  0  0  0  0  0  0  0  0  0  0  0
  1  3  1  0  0  0  0
  1  7  1  0  0  0  0
  1  2  2  0  0  0  0
 35 36  1  0  0  0  0
 36 44  1  0  0  0  0
 36 37  2  0  0  0  0
  8  9  1  0  0  0  0
  9 17  1  0  0  0  0
  9 10  2  0  0  0  0
 18 19  1  0  0  0  0
 19 34  1  0  0  0  0
 19 20  2  0  0  0  0
 35 38  1  0  0  0  0
  8 11  1  0  0  0  0
 44 45  1  0  0  0  0
 23 24  1  0  0  0  0
 21 22  1  0  0  0  0
 18 21  1  0  0  0  0
 22 23  1  0  0  0  0
 34 35  1  0  0  0  0
  7  8  1  0  0  0  0
 17 18  1  0  0  0  0
  3  4  1  0  0  0  0
  3  5  1  0  0  0  0
  3  6  1  0  0  0  0
 38 41  1  0  0  0  0
 38 42  1  0  0  0  0
 38 43  1  0  0  0  0
 11 14  1  0  0  0  0
 11 15  1  0  0  0  0
 11 16  1  0  0  0  0
 45 47  1  0  0  0  0
 45 48  1  0  0  0  0
 45 49  1  0  0  0  0
 24 31  1  0  0  0  0
 24 32  1  0  0  0  0
 24 33  1  0  0  0  0
 21 27  1  0  0  0  0
 21 28  1  0  0  0  0
 22 29  1  0  0  0  0
 22 30  1  0  0  0  0
 35 40  1  0  0  0  0
  8 13  1  0  0  0  0
 18 26  1  0  0  0  0
 44 46  1  0  0  0  0
  7 12  1  0  0  0  0
 34 39  1  0  0  0  0
 17 25  1  0  0  0  0
M  END
$$$$

  -OEChem-05262214473D

 49 48  0     1  0  0  0  0  0999 V2000
   -0.0561   -5.3799    2.6949 C   0  0  0  0  0  0  0  0  0  0  0  0
    0.7325   -5.0736    3.5815 O   0  0  0  0  0  0  0  0  0  0  0  0
   -1.0067   -6.5099    2.9135 C   0  0  0  0  0  0  0  0  0  0  0  0
   -0.5910   -7.4777    2.5899 H   0  0  0  0  0  0  0  0  0  0  0  0
   -1.2629   -6.6440    3.9767 H   0  0  0  0  0  0  0  0  0  0  0  0
   -1.9729   -6.4206    2.3918 H   0  0  0  0  0  0  0  0  0  0  0  0
   -0.1735   -4.7694    1.4571 N   0  0  0  0  0  0  0  0  0  0  0  0
    0.6439   -3.6603    1.0409 C   0  0  2  0  0  0  0  0  0  0  0  0
   -0.2788   -2.5625    0.5280 C   0  0  0  0  0  0  0  0  0  0  0  0
   -1.4197   -2.7791    0.1251 O   0  0  0  0  0  0  0  0  0  0  0  0
    1.6395   -4.0779   -0.0301 C   0  0  0  0  0  0  0  0  0  0  0  0
   -0.8741   -5.1235    0.8083 H   0  0  0  0  0  0  0  0  0  0  0  0
    1.1738   -3.3062    1.9318 H   0  0  0  0  0  0  0  0  0  0  0  0
    1.1270   -4.4358   -0.9305 H   0  0  0  0  0  0  0  0  0  0  0  0
    2.2797   -3.2400   -0.3251 H   0  0  0  0  0  0  0  0  0  0  0  0
    2.2827   -4.8880    0.3303 H   0  0  0  0  0  0  0  0  0  0  0  0
    0.3351   -1.3153    0.5316 N   0  0  0  0  0  0  0  0  0  0  0  0
   -0.3268   -0.1184    0.0807 C   0  0  2  0  0  0  0  0  0  0  0  0
   -0.7149    0.7158    1.2977 C   0  0  0  0  0  0  0  0  0  0  0  0
   -0.4970    0.3555    2.4527 O   0  0  0  0  0  0  0  0  0  0  0  0
   -1.5198   -0.4265   -0.8345 C   0  0  0  0  0  0  0  0  0  0  0  0
   -1.1225   -1.0656   -2.1672 C   0  0  0  0  0  0  0  0  0  0  0  0
   -0.0423    0.0501   -3.1120 S   0  0  0  0  0  0  0  0  0  0  0  0
   -1.2623    1.3247   -3.5025 C   0  0  0  0  0  0  0  0  0  0  0  0
    1.2790   -1.2290    0.9021 H   0  0  0  0  0  0  0  0  0  0  0  0
    0.4244    0.4423   -0.4888 H   0  0  0  0  0  0  0  0  0  0  0  0
   -2.0589    0.5108   -1.0270 H   0  0  0  0  0  0  0  0  0  0  0  0
   -2.2145   -1.0912   -0.3051 H   0  0  0  0  0  0  0  0  0  0  0  0
   -2.0043   -1.2765   -2.7794 H   0  0  0  0  0  0  0  0  0  0  0  0
   -0.5841   -2.0047   -2.0089 H   0  0  0  0  0  0  0  0  0  0  0  0
   -0.7952    2.1187   -4.0902 H   0  0  0  0  0  0  0  0  0  0  0  0
   -1.6608    1.7522   -2.5791 H   0  0  0  0  0  0  0  0  0  0  0  0
   -2.0827    0.8893   -4.0781 H   0  0  0  0  0  0  0  0  0  0  0  0
   -1.3609    1.8916    0.9439 N   0  0  0  0  0  0  0  0  0  0  0  0
   -1.8372    2.8419    1.9214 C   0  0  2  0  0  0  0  0  0  0  0  0
   -3.1806    3.3760    1.4424 C   0  0  0  0  0  0  0  0  0  0  0  0
   -3.5310    3.3508    0.2644 O   0  0  0  0  0  0  0  0  0  0  0  0
   -0.8425    3.9745    2.1225 C   0  0  0  0  0  0  0  0  0  0  0  0
   -1.4746    2.1239   -0.0383 H   0  0  0  0  0  0  0  0  0  0  0  0
   -1.9757    2.2902    2.8576 H   0  0  0  0  0  0  0  0  0  0  0  0
   -0.6908    4.5388    1.1952 H   0  0  0  0  0  0  0  0  0  0  0  0
   -1.1919    4.6789    2.8846 H   0  0  0  0  0  0  0  0  0  0  0  0
    0.1318    3.5860    2.4384 H   0  0  0  0  0  0  0  0  0  0  0  0
   -3.9242    3.9233    2.4786 N   0  0  0  0  0  0  0  0  0  0  0  0
   -5.2299    4.5071    2.2775 C   0  0  0  0  0  0  0  0  0  0  0  0
   -3.5636    3.8839    3.4274 H   0  0  0  0  0  0  0  0  0  0  0  0
   -5.1255    5.5875    2.0993 H   0  0  0  0  0  0  0  0  0  0  0  0
   -5.7116    4.0369    1.4076 H   0  0  0  0  0  0  0  0  0  0  0  0
   -5.8473    4.3413    3.1727 H   0  0  0  0  0  0  0  0  0  0  0  0
  1  3  1  0  0  0  0
  1  7  1  0  0  0  0
  1  2  2  0  0  0  0
 35 36  1  0  0  0  0
 36 44  1  0  0  0  0
 36 37  2  0  0  0  0
  8  9  1  0  0  0  0
  9 17  1  0  0  0  0
  9 10  2  0  0  0  0
 18 19  1  0  0  0  0
 19 34  1  0  0  0  0
 19 20  2  0  0  0  0
 35 38  1  0  0  0  0
  8 11  1  0  0  0  0
 44 45  1  0  0  0  0
 23 24  1  0  0  0  0
 21 22  1  0  0  0  0
 18 21  1  0  0  0  0
 22 23  1  0  0  0  0
 34 35  1  0  0  0  0
  7  8  1  0  0  0  0
 17 18  1  0  0  0  0
  3  4  1  0  0  0  0
  3  5  1  0  0  0  0
  3  6  1  0  0  0  0
 38 41  1  0  0  0  0
 38 42  1  0  0  0  0
 38 43  1  0  0  0  0
 11 14  1  0  0  0  0
 11 15  1  0  0  0  0
 11 16  1  0  0  0  0
 45 47  1  0  0  0  0
 45 48  1  0  0  0  0
 45 49  1  0  0  0  0
 24 31  1  0  0  0  0
 24 32  1  0  0  0  0
 24 33  1  0  0  0  0
 21 27  1  0  0  0  0
 21 28  1  0  0  0  0
 22 29  1  0  0  0  0
 22 30  1  0  0  0  0
 35 40  1  0  0  0  0
  8 13  1  0  0  0  0
 18 26  1  0  0  0  0
 44 46  1  0  0  0  0
  7 12  1  0  0  0  0
 34 39  1  0  0  0  0
 17 25  1  0  0  0  0
M  END
$$$$

  -OEChem-05262214473D

 49 48  0     1  0  0  0  0  0999 V2000
   -0.0561   -5.3799    2.6949 C   0  0  0  0  0  0  0  0  0  0  0  0
    0.7325   -5.0736    3.5815 O   0  0  0  0  0  0  0  0  0  0  0  0
   -1.0067   -6.5099    2.9135 C   0  0  0  0  0  0  0  0  0  0  0  0
   -0.5910   -7.4777    2.5899 H   0  0  0  0  0  0  0  0  0  0  0  0
   -1.2629   -6.6440    3.9767 H   0  0  0  0  0  0  0  0  0  0  0  0
   -1.9729   -6.4206    2.3918 H   0  0  0  0  0  0  0  0  0  0  0  0
   -0.1735   -4.7694    1.4571 N   0  0  0  0  0  0  0  0  0  0  0  0
    0.6439   -3.6603    1.0409 C   0  0  2  0  0  0  0  0  0  0  0  0
   -0.2788   -2.5625    0.5280 C   0  0  0  0  0  0  0  0  0  0  0  0
   -1.4197   -2.7791    0.1251 O   0  0  0  0  0  0  0  0  0  0  0  0
    1.6395   -4.0779   -0.0301 C   0  0  0  0  0  0  0  0  0  0  0  0
   -0.8741   -5.1235    0.8083 H   0  0  0  0  0  0  0  0  0  0  0  0
    1.1738   -3.3062    1.9318 H   0  0  0  0  0  0  0  0  0  0  0  0
    1.1270   -4.4358   -0.9305 H   0  0  0  0  0  0  0  0  0  0  0  0
    2.2797   -3.2400   -0.3251 H   0  0  0  0  0  0  0  0  0  0  0  0
    2.2827   -4.8880    0.3303 H   0  0  0  0  0  0  0  0  0  0  0  0
    0.3351   -1.3153    0.5316 N   0  0  0  0  0  0  0  0  0  0  0  0
   -0.3268   -0.1184    0.0807 C   0  0  2  0  0  0  0  0  0  0  0  0
   -0.7149    0.7158    1.2977 C   0  0  0  0  0  0  0  0  0  0  0  0
   -0.2724    0.5013    2.4244 O   0  0  0  0  0  0  0  0  0  0  0  0
   -1.5198   -0.4265   -0.8345 C   0  0  0  0  0  0  0  0  0  0  0  0
   -1.1225   -1.0656   -2.1672 C   0  0  0  0  0  0  0  0  0  0  0  0
   -0.0423    0.0501   -3.1120 S   0  0  0  0  0  0  0  0  0  0  0  0
   -1.2623    1.3247   -3.5025 C   0  0  0  0  0  0  0  0  0  0  0  0
    1.2790   -1.2290    0.9021 H   0  0  0  0  0  0  0  0  0  0  0  0
    0.4244    0.4423   -0.4888 H   0  0  0  0  0  0  0  0  0  0  0  0
   -2.0589    0.5108   -1.0270 H   0  0  0  0  0  0  0  0  0  0  0  0
   -2.2145   -1.0912   -0.3051 H   0  0  0  0  0  0  0  0  0  0  0  0
   -2.0043   -1.2765   -2.7794 H   0  0  0  0  0  0  0  0  0  0  0  0
   -0.5841   -2.0047   -2.0089 H   0  0  0  0  0  0  0  0  0  0  0  0
   -0.7952    2.1187   -4.0902 H   0  0  0  0  0  0  0  0  0  0  0  0
   -1.6608    1.7522   -2.5791 H   0  0  0  0  0  0  0  0  0  0  0  0
   -2.0827    0.8893   -4.0781 H   0  0  0  0  0  0  0  0  0  0  0  0
   -1.6363    1.7046    0.9843 N   0  0  0  0  0  0  0  0  0  0  0  0
   -2.1666    2.6151    1.9719 C   0  0  2  0  0  0  0  0  0  0  0  0
   -3.6444    2.8267    1.6710 C   0  0  0  0  0  0  0  0  0  0  0  0
   -4.1369    2.6364    0.5609 O   0  0  0  0  0  0  0  0  0  0  0  0
   -1.4156    3.9375    1.9651 C   0  0  0  0  0  0  0  0  0  0  0  0
   -1.9277    1.8292    0.0193 H   0  0  0  0  0  0  0  0  0  0  0  0
   -2.0581    2.1241    2.9452 H   0  0  0  0  0  0  0  0  0  0  0  0
   -1.5128    4.4441    0.9980 H   0  0  0  0  0  0  0  0  0  0  0  0
   -1.8002    4.6160    2.7337 H   0  0  0  0  0  0  0  0  0  0  0  0
   -0.3479    3.7803    2.1522 H   0  0  0  0  0  0  0  0  0  0  0  0
   -4.3404    3.2945    2.7768 N   0  0  0  0  0  0  0  0  0  0  0  0
   -5.7548    3.5848    2.7423 C   0  0  0  0  0  0  0  0  0  0  0  0
   -3.8553    3.4054    3.6623 H   0  0  0  0  0  0  0  0  0  0  0  0
   -5.9060    4.6461    2.4956 H   0  0  0  0  0  0  0  0  0  0  0  0
   -6.2390    2.9585    1.9786 H   0  0  0  0  0  0  0  0  0  0  0  0
   -6.1971    3.3706    3.7264 H   0  0  0  0  0  0  0  0  0  0  0  0
  1  3  1  0  0  0  0
  1  7  1  0  0  0  0
  1  2  2  0  0  0  0
 35 36  1  0  0  0  0
 36 44  1  0  0  0  0
 36 37  2  0  0  0  0
  8  9  1  0  0  0  0
  9 17  1  0  0  0  0
  9 10  2  0  0  0  0
 18 19  1  0  0  0  0
 19 34  1  0  0  0  0
 19 20  2  0  0  0  0
 35 38  1  0  0  0  0
  8 11  1  0  0  0  0
 44 45  1  0  0  0  0
 23 24  1  0  0  0  0
 21 22  1  0  0  0  0
 18 21  1  0  0  0  0
 22 23  1  0  0  0  0
 34 35  1  0  0  0  0
  7  8  1  0  0  0  0
 17 18  1  0  0  0  0
  3  4  1  0  0  0  0
  3  5  1  0  0  0  0
  3  6  1  0  0  0  0
 38 41  1  0  0  0  0
 38 42  1  0  0  0  0
 38 43  1  0  0  0  0
 11 14  1  0  0  0  0
 11 15  1  0  0  0  0
 11 16  1  0  0  0  0
 45 47  1  0  0  0  0
 45 48  1  0  0  0  0
 45 49  1  0  0  0  0
 24 31  1  0  0  0  0
 24 32  1  0  0  0  0
 24 33  1  0  0  0  0
 21 27  1  0  0  0  0
 21 28  1  0  0  0  0
 22 29  1  0  0  0  0
 22 30  1  0  0  0  0
 35 40  1  0  0  0  0
  8 13  1  0  0  0  0
 18 26  1  0  0  0  0
 44 46  1  0  0  0  0
  7 12  1  0  0  0  0
 34 39  1  0  0  0  0
 17 25  1  0  0  0  0
M  END
$$$$

  -OEChem-05262214473D

 49 48  0     1  0  0  0  0  0999 V2000
   -0.0561   -5.3799    2.6949 C   0  0  0  0  0  0  0  0  0  0  0  0
    0.7325   -5.0736    3.5815 O   0  0  0  0  0  0  0  0  0  0  0  0
   -1.0067   -6.5099    2.9135 C   0  0  0  0  0  0  0  0  0  0  0  0
   -0.5910   -7.4777    2.5899 H   0  0  0  0  0  0  0  0  0  0  0  0
   -1.2629   -6.6440    3.9767 H   0  0  0  0  0  0  0  0  0  0  0  0
   -1.9729   -6.4206    2.3918 H   0  0  0  0  0  0  0  0  0  0  0  0
   -0.1735   -4.7694    1.4571 N   0  0  0  0  0  0  0  0  0  0  0  0
    0.6439   -3.6603    1.0409 C   0  0  2  0  0  0  0  0  0  0  0  0
   -0.2788   -2.5625    0.5280 C   0  0  0  0  0  0  0  0  0  0  0  0
   -1.4197   -2.7791    0.1251 O   0  0  0  0  0  0  0  0  0  0  0  0
    1.6395   -4.0779   -0.0301 C   0  0  0  0  0  0  0  0  0  0  0  0
   -0.8741   -5.1235    0.8083 H   0  0  0  0  0  0  0  0  0  0  0  0
    1.1738   -3.3062    1.9318 H   0  0  0  0  0  0  0  0  0  0  0  0
    1.1270   -4.4358   -0.9305 H   0  0  0  0  0  0  0  0  0  0  0  0
    2.2797   -3.2400   -0.3251 H   0  0  0  0  0  0  0  0  0  0  0  0
    2.2827   -4.8880    0.3303 H   0  0  0  0  0  0  0  0  0  0  0  0
    0.3351   -1.3153    0.5316 N   0  0  0  0  0  0  0  0  0  0  0  0
   -0.3268   -0.1184    0.0807 C   0  0  2  0  0  0  0  0  0  0  0  0
   -0.7149    0.7158    1.2977 C   0  0  0  0  0  0  0  0  0  0  0  0
   -0.0895    0.6866    2.3557 O   0  0  0  0  0  0  0  0  0  0  0  0
   -1.5198   -0.4265   -0.8345 C   0  0  0  0  0  0  0  0  0  0  0  0
   -1.1225   -1.0656   -2.1672 C   0  0  0  0  0  0  0  0  0  0  0  0
   -0.0423    0.0501   -3.1120 S   0  0  0  0  0  0  0  0  0  0  0  0
   -1.2623    1.3247   -3.5025 C   0  0  0  0  0  0  0  0  0  0  0  0
    1.2790   -1.2290    0.9021 H   0  0  0  0  0  0  0  0  0  0  0  0
    0.4244    0.4423   -0.4888 H   0  0  0  0  0  0  0  0  0  0  0  0
   -2.0589    0.5108   -1.0270 H   0  0  0  0  0  0  0  0  0  0  0  0
   -2.2145   -1.0912   -0.3051 H   0  0  0  0  0  0  0  0  0  0  0  0
   -2.0043   -1.2765   -2.7794 H   0  0  0  0  0  0  0  0  0  0  0  0
   -0.5841   -2.0047   -2.0089 H   0  0  0  0  0  0  0  0  0  0  0  0
   -0.7952    2.1187   -4.0902 H   0  0  0  0  0  0  0  0  0  0  0  0
   -1.6608    1.7522   -2.5791 H   0  0  0  0  0  0  0  0  0  0  0  0
   -2.0827    0.8893   -4.0781 H   0  0  0  0  0  0  0  0  0  0  0  0
   -1.8580    1.4699    1.0745 N   0  0  0  0  0  0  0  0  0  0  0  0
   -2.4307    2.3313    2.0822 C   0  0  2  0  0  0  0  0  0  0  0  0
   -3.9467    2.2155    1.9936 C   0  0  0  0  0  0  0  0  0  0  0  0
   -4.5327    1.8407    0.9800 O   0  0  0  0  0  0  0  0  0  0  0  0
   -1.9839    3.7730    1.8967 C   0  0  0  0  0  0  0  0  0  0  0  0
   -2.2962    1.4548    0.1583 H   0  0  0  0  0  0  0  0  0  0  0  0
   -2.0910    1.9524    3.0523 H   0  0  0  0  0  0  0  0  0  0  0  0
   -2.3151    4.1699    0.9301 H   0  0  0  0  0  0  0  0  0  0  0  0
   -2.3960    4.4198    2.6782 H   0  0  0  0  0  0  0  0  0  0  0  0
   -0.8918    3.8501    1.9310 H   0  0  0  0  0  0  0  0  0  0  0  0
   -4.5705    2.6209    3.1652 N   0  0  0  0  0  0  0  0  0  0  0  0
   -6.0057    2.6162    3.3262 C   0  0  0  0  0  0  0  0  0  0  0  0
   -4.0050    2.8985    3.9620 H   0  0  0  0  0  0  0  0  0  0  0  0
   -6.4094    3.6017    3.0509 H   0  0  0  0  0  0  0  0  0  0  0  0
   -6.4450    1.8455    2.6757 H   0  0  0  0  0  0  0  0  0  0  0  0
   -6.2562    2.3973    4.3747 H   0  0  0  0  0  0  0  0  0  0  0  0
  1  3  1  0  0  0  0
  1  7  1  0  0  0  0
  1  2  2  0  0  0  0
 35 36  1  0  0  0  0
 36 44  1  0  0  0  0
 36 37  2  0  0  0  0
  8  9  1  0  0  0  0
  9 17  1  0  0  0  0
  9 10  2  0  0  0  0
 18 19  1  0  0  0  0
 19 34  1  0  0  0  0
 19 20  2  0  0  0  0
 35 38  1  0  0  0  0
  8 11  1  0  0  0  0
 44 45  1  0  0  0  0
 23 24  1  0  0  0  0
 21 22  1  0  0  0  0
 18 21  1  0  0  0  0
 22 23  1  0  0  0  0
 34 35  1  0  0  0  0
  7  8  1  0  0  0  0
 17 18  1  0  0  0  0
  3  4  1  0  0  0  0
  3  5  1  0  0  0  0
  3  6  1  0  0  0  0
 38 41  1  0  0  0  0
 38 42  1  0  0  0  0
 38 43  1  0  0  0  0
 11 14  1  0  0  0  0
 11 15  1  0  0  0  0
 11 16  1  0  0  0  0
 45 47  1  0  0  0  0
 45 48  1  0  0  0  0
 45 49  1  0  0  0  0
 24 31  1  0  0  0  0
 24 32  1  0  0  0  0
 24 33  1  0  0  0  0
 21 27  1  0  0  0  0
 21 28  1  0  0  0  0
 22 29  1  0  0  0  0
 22 30  1  0  0  0  0
 35 40  1  0  0  0  0
  8 13  1  0  0  0  0
 18 26  1  0  0  0  0
 44 46  1  0  0  0  0
  7 12  1  0  0  0  0
 34 39  1  0  0  0  0
 17 25  1  0  0  0  0
M  END
$$$$

  -OEChem-05262214473D

 49 48  0     1  0  0  0  0  0999 V2000
   -0.0561   -5.3799    2.6949 C   0  0  0  0  0  0  0  0  0  0  0  0
    0.7325   -5.0736    3.5815 O   0  0  0  0  0  0  0  0  0  0  0  0
   -1.0067   -6.5099    2.9135 C   0  0  0  0  0  0  0  0  0  0  0  0
   -0.5910   -7.4777    2.5899 H   0  0  0  0  0  0  0  0  0  0  0  0
   -1.2629   -6.6440    3.9767 H   0  0  0  0  0  0  0  0  0  0  0  0
   -1.9729   -6.4206    2.3918 H   0  0  0  0  0  0  0  0  0  0  0  0
   -0.1735   -4.7694    1.4571 N   0  0  0  0  0  0  0  0  0  0  0  0
    0.6439   -3.6603    1.0409 C   0  0  2  0  0  0  0  0  0  0  0  0
   -0.2788   -2.5625    0.5280 C   0  0  0  0  0  0  0  0  0  0  0  0
   -1.4197   -2.7791    0.1251 O   0  0  0  0  0  0  0  0  0  0  0  0
    1.6395   -4.0779   -0.0301 C   0  0  0  0  0  0  0  0  0  0  0  0
   -0.8741   -5.1235    0.8083 H   0  0  0  0  0  0  0  0  0  0  0  0
    1.1738   -3.3062    1.9318 H   0  0  0  0  0  0  0  0  0  0  0  0
    1.1270   -4.4358   -0.9305 H   0  0  0  0  0  0  0  0  0  0  0  0
    2.2797   -3.2400   -0.3251 H   0  0  0  0  0  0  0  0  0  0  0  0
    2.2827   -4.8880    0.3303 H   0  0  0  0  0  0  0  0  0  0  0  0
    0.3351   -1.3153    0.5316 N   0  0  0  0  0  0  0  0  0  0  0  0
   -0.3268   -0.1184    0.0807 C   0  0  2  0  0  0  0  0  0  0  0  0
   -0.7149    0.7158    1.2977 C   0  0  0  0  0  0  0  0  0  0  0  0
    0.0391    0.8988    2.2513 O   0  0  0  0  0  0  0  0  0  0  0  0
   -1.5198   -0.4265   -0.8345 C   0  0  0  0  0  0  0  0  0  0  0  0
   -1.1225   -1.0656   -2.1672 C   0  0  0  0  0  0  0  0  0  0  0  0
   -0.0423    0.0501   -3.1120 S   0  0  0  0  0  0  0  0  0  0  0  0
   -1.2623    1.3247   -3.5025 C   0  0  0  0  0  0  0  0  0  0  0  0
    1.2790   -1.2290    0.9021 H   0  0  0  0  0  0  0  0  0  0  0  0
    0.4244    0.4423   -0.4888 H   0  0  0  0  0  0  0  0  0  0  0  0
   -2.0589    0.5108   -1.0270 H   0  0  0  0  0  0  0  0  0  0  0  0
   -2.2145   -1.0912   -0.3051 H   0  0  0  0  0  0  0  0  0  0  0  0
   -2.0043   -1.2765   -2.7794 H   0  0  0  0  0  0  0  0  0  0  0  0
   -0.5841   -2.0047   -2.0089 H   0  0  0  0  0  0  0  0  0  0  0  0
   -0.7952    2.1187   -4.0902 H   0  0  0  0  0  0  0  0  0  0  0  0
   -1.6608    1.7522   -2.5791 H   0  0  0  0  0  0  0  0  0  0  0  0
   -2.0827    0.8893   -4.0781 H   0  0  0  0  0  0  0  0  0  0  0  0
   -2.0109    1.2032    1.2085 N   0  0  0  0  0  0  0  0  0  0  0  0
   -2.6116    2.0099    2.2448 C   0  0  2  0  0  0  0  0  0  0  0  0
   -4.0668    1.5839    2.3882 C   0  0  0  0  0  0  0  0  0  0  0  0
   -4.6914    1.0181    1.4933 O   0  0  0  0  0  0  0  0  0  0  0  0
   -2.5086    3.4923    1.9217 C   0  0  0  0  0  0  0  0  0  0  0  0
   -2.5553    1.0262    0.3695 H   0  0  0  0  0  0  0  0  0  0  0  0
   -2.0722    1.7869    3.1718 H   0  0  0  0  0  0  0  0  0  0  0  0
   -3.0431    3.7349    0.9961 H   0  0  0  0  0  0  0  0  0  0  0  0
   -2.9390    4.1036    2.7218 H   0  0  0  0  0  0  0  0  0  0  0  0
   -1.4629    3.7906    1.7896 H   0  0  0  0  0  0  0  0  0  0  0  0
   -4.5986    1.9484    3.6172 N   0  0  0  0  0  0  0  0  0  0  0  0
   -5.9655    1.6672    3.9895 C   0  0  0  0  0  0  0  0  0  0  0  0
   -4.0026    2.3977    4.3061 H   0  0  0  0  0  0  0  0  0  0  0  0
   -6.6015    2.5255    3.7273 H   0  0  0  0  0  0  0  0  0  0  0  0
   -6.3155    0.7738    3.4515 H   0  0  0  0  0  0  0  0  0  0  0  0
   -6.0206    1.4876    5.0733 H   0  0  0  0  0  0  0  0  0  0  0  0
  1  3  1  0  0  0  0
  1  7  1  0  0  0  0
  1  2  2  0  0  0  0
 35 36  1  0  0  0  0
 36 44  1  0  0  0  0
 36 37  2  0  0  0  0
  8  9  1  0  0  0  0
  9 17  1  0  0  0  0
  9 10  2  0  0  0  0
 18 19  1  0  0  0  0
 19 34  1  0  0  0  0
 19 20  2  0  0  0  0
 35 38  1  0  0  0  0
  8 11  1  0  0  0  0
 44 45  1  0  0  0  0
 23 24  1  0  0  0  0
 21 22  1  0  0  0  0
 18 21  1  0  0  0  0
 22 23  1  0  0  0  0
 34 35  1  0  0  0  0
  7  8  1  0  0  0  0
 17 18  1  0  0  0  0
  3  4  1  0  0  0  0
  3  5  1  0  0  0  0
  3  6  1  0  0  0  0
 38 41  1  0  0  0  0
 38 42  1  0  0  0  0
 38 43  1  0  0  0  0
 11 14  1  0  0  0  0
 11 15  1  0  0  0  0
 11 16  1  0  0  0  0
 45 47  1  0  0  0  0
 45 48  1  0  0  0  0
 45 49  1  0  0  0  0
 24 31  1  0  0  0  0
 24 32  1  0  0  0  0
 24 33  1  0  0  0  0
 21 27  1  0  0  0  0
 21 28  1  0  0  0  0
 22 29  1  0  0  0  0
 22 30  1  0  0  0  0
 35 40  1  0  0  0  0
  8 13  1  0  0  0  0
 18 26  1  0  0  0  0
 44 46  1  0  0  0  0
  7 12  1  0  0  0  0
 34 39  1  0  0  0  0
 17 25  1  0  0  0  0
M  END
$$$$

  -OEChem-05262214473D

 49 48  0     1  0  0  0  0  0999 V2000
   -0.0561   -5.3799    2.6949 C   0  0  0  0  0  0  0  0  0  0  0  0
    0.7325   -5.0736    3.5815 O   0  0  0  0  0  0  0  0  0  0  0  0
   -1.0067   -6.5099    2.9135 C   0  0  0  0  0  0  0  0  0  0  0  0
   -0.5910   -7.4777    2.5899 H   0  0  0  0  0  0  0  0  0  0  0  0
   -1.2629   -6.6440    3.9767 H   0  0  0  0  0  0  0  0  0  0  0  0
   -1.9729   -6.4206    2.3918 H   0  0  0  0  0  0  0  0  0  0  0  0
   -0.1735   -4.7694    1.4571 N   0  0  0  0  0  0  0  0  0  0  0  0
    0.6439   -3.6603    1.0409 C   0  0  2  0  0  0  0  0  0  0  0  0
   -0.2788   -2.5625    0.5280 C   0  0  0  0  0  0  0  0  0  0  0  0
   -1.4197   -2.7791    0.1251 O   0  0  0  0  0  0  0  0  0  0  0  0
    1.6395   -4.0779   -0.0301 C   0  0  0  0  0  0  0  0  0  0  0  0
   -0.8741   -5.1235    0.8083 H   0  0  0  0  0  0  0  0  0  0  0  0
    1.1738   -3.3062    1.9318 H   0  0  0  0  0  0  0  0  0  0  0  0
    1.1270   -4.4358   -0.9305 H   0  0  0  0  0  0  0  0  0  0  0  0
    2.2797   -3.2400   -0.3251 H   0  0  0  0  0  0  0  0  0  0  0  0
    2.2827   -4.8880    0.3303 H   0  0  0  0  0  0  0  0  0  0  0  0
    0.3351   -1.3153    0.5316 N   0  0  0  0  0  0  0  0  0  0  0  0
   -0.3268   -0.1184    0.0807 C   0  0  2  0  0  0  0  0  0  0  0  0
   -0.7149    0.7158    1.2977 C   0  0  0  0  0  0  0  0  0  0  0  0
    0.1047    1.1235    2.1182 O   0  0  0  0  0  0  0  0  0  0  0  0
   -1.5198   -0.4265   -0.8345 C   0  0  0  0  0  0  0  0  0  0  0  0
   -1.1225   -1.0656   -2.1672 C   0  0  0  0  0  0  0  0  0  0  0  0
   -0.0423    0.0501   -3.1120 S   0  0  0  0  0  0  0  0  0  0  0  0
   -1.2623    1.3247   -3.5025 C   0  0  0  0  0  0  0  0  0  0  0  0
    1.2790   -1.2290    0.9021 H   0  0  0  0  0  0  0  0  0  0  0  0
    0.4244    0.4423   -0.4888 H   0  0  0  0  0  0  0  0  0  0  0  0
   -2.0589    0.5108   -1.0270 H   0  0  0  0  0  0  0  0  0  0  0  0
   -2.2145   -1.0912   -0.3051 H   0  0  0  0  0  0  0  0  0  0  0  0
   -2.0043   -1.2765   -2.7794 H   0  0  0  0  0  0  0  0  0  0  0  0
   -0.5841   -2.0047   -2.0089 H   0  0  0  0  0  0  0  0  0  0  0  0
   -0.7952    2.1187   -4.0902 H   0  0  0  0  0  0  0  0  0  0  0  0
   -1.6608    1.7522   -2.5791 H   0  0  0  0  0  0  0  0  0  0  0  0
   -2.0827    0.8893   -4.0781 H   0  0  0  0  0  0  0  0  0  0  0  0
   -2.0845    0.9230    1.3771 N   0  0  0  0  0  0  0  0  0  0  0  0
   -2.6970    1.6728    2.4486 C   0  0  2  0  0  0  0  0  0  0  0  0
   -3.9965    0.9750    2.8279 C   0  0  0  0  0  0  0  0  0  0  0  0
   -4.6022    0.2245    2.0656 O   0  0  0  0  0  0  0  0  0  0  0  0
   -2.9538    3.1145    2.0387 C   0  0  0  0  0  0  0  0  0  0  0  0
   -2.6871    0.5726    0.6383 H   0  0  0  0  0  0  0  0  0  0  0  0
   -2.0029    1.6387    3.2954 H   0  0  0  0  0  0  0  0  0  0  0  0
   -3.6472    3.1687    1.1915 H   0  0  0  0  0  0  0  0  0  0  0  0
   -3.3919    3.6890    2.8616 H   0  0  0  0  0  0  0  0  0  0  0  0
   -2.0223    3.6060    1.7378 H   0  0  0  0  0  0  0  0  0  0  0  0
   -4.4230    1.3227    4.1020 N   0  0  0  0  0  0  0  0  0  0  0  0
   -5.6368    0.8025    4.6869 C   0  0  0  0  0  0  0  0  0  0  0  0
   -3.8481    1.9370    4.6711 H   0  0  0  0  0  0  0  0  0  0  0  0
   -6.4691    1.4909    4.4787 H   0  0  0  0  0  0  0  0  0  0  0  0
   -5.8594   -0.1836    4.2532 H   0  0  0  0  0  0  0  0  0  0  0  0
   -5.5064    0.7036    5.7747 H   0  0  0  0  0  0  0  0  0  0  0  0
  1  3  1  0  0  0  0
  1  7  1  0  0  0  0
  1  2  2  0  0  0  0
 35 36  1  0  0  0  0
 36 44  1  0  0  0  0
 36 37  2  0  0  0  0
  8  9  1  0  0  0  0
  9 17  1  0  0  0  0
  9 10  2  0  0  0  0
 18 19  1  0  0  0  0
 19 34  1  0  0  0  0
 19 20  2  0  0  0  0
 35 38  1  0  0  0  0
  8 11  1  0  0  0  0
 44 45  1  0  0  0  0
 23 24  1  0  0  0  0
 21 22  1  0  0  0  0
 18 21  1  0  0  0  0
 22 23  1  0  0  0  0
 34 35  1  0  0  0  0
  7  8  1  0  0  0  0
 17 18  1  0  0  0  0
  3  4  1  0  0  0  0
  3  5  1  0  0  0  0
  3  6  1  0  0  0  0
 38 41  1  0  0  0  0
 38 42  1  0  0  0  0
 38 43  1  0  0  0  0
 11 14  1  0  0  0  0
 11 15  1  0  0  0  0
 11 16  1  0  0  0  0
 45 47  1  0  0  0  0
 45 48  1  0  0  0  0
 45 49  1  0  0  0  0
 24 31  1  0  0  0  0
 24 32  1  0  0  0  0
 24 33  1  0  0  0  0
 21 27  1  0  0  0  0
 21 28  1  0  0  0  0
 22 29  1  0  0  0  0
 22 30  1  0  0  0  0
 35 40  1  0  0  0  0
  8 13  1  0  0  0  0
 18 26  1  0  0  0  0
 44 46  1  0  0  0  0
  7 12  1  0  0  0  0
 34 39  1  0  0  0  0
 17 25  1  0  0  0  0
M  END
$$$$

  -OEChem-05262214473D

 49 48  0     1  0  0  0  0  0999 V2000
   -0.0561   -5.3799    2.6949 C   0  0  0  0  0  0  0  0  0  0  0  0
    0.7325   -5.0736    3.5815 O   0  0  0  0  0  0  0  0  0  0  0  0
   -1.0067   -6.5099    2.9135 C   0  0  0  0  0  0  0  0  0  0  0  0
   -0.5910   -7.4777    2.5899 H   0  0  0  0  0  0  0  0  0  0  0  0
   -1.2629   -6.6440    3.9767 H   0  0  0  0  0  0  0  0  0  0  0  0
   -1.9729   -6.4206    2.3918 H   0  0  0  0  0  0  0  0  0  0  0  0
   -0.1735   -4.7694    1.4571 N   0  0  0  0  0  0  0  0  0  0  0  0
    0.6439   -3.6603    1.0409 C   0  0  2  0  0  0  0  0  0  0  0  0
   -0.2788   -2.5625    0.5280 C   0  0  0  0  0  0  0  0  0  0  0  0
   -1.4197   -2.7791    0.1251 O   0  0  0  0  0  0  0  0  0  0  0  0
    1.6395   -4.0779   -0.0301 C   0  0  0  0  0  0  0  0  0  0  0  0
   -0.8741   -5.1235    0.8083 H   0  0  0  0  0  0  0  0  0  0  0  0
    1.1738   -3.3062    1.9318 H   0  0  0  0  0  0  0  0  0  0  0  0
    1.1270   -4.4358   -0.9305 H   0  0  0  0  0  0  0  0  0  0  0  0
    2.2797   -3.2400   -0.3251 H   0  0  0  0  0  0  0  0  0  0  0  0
    2.2827   -4.8880    0.3303 H   0  0  0  0  0  0  0  0  0  0  0  0
    0.3351   -1.3153    0.5316 N   0  0  0  0  0  0  0  0  0  0  0  0
   -0.3268   -0.1184    0.0807 C   0  0  2  0  0  0  0  0  0  0  0  0
   -0.7149    0.7158    1.2977 C   0  0  0  0  0  0  0  0  0  0  0  0
    0.1029    1.3453    1.9656 O   0  0  0  0  0  0  0  0  0  0  0  0
   -1.5198   -0.4265   -0.8345 C   0  0  0  0  0  0  0  0  0  0  0  0
   -1.1225   -1.0656   -2.1672 C   0  0  0  0  0  0  0  0  0  0  0  0
   -0.0423    0.0501   -3.1120 S   0  0  0  0  0  0  0  0  0  0  0  0
   -1.2623    1.3247   -3.5025 C   0  0  0  0  0  0  0  0  0  0  0  0
    1.2790   -1.2290    0.9021 H   0  0  0  0  0  0  0  0  0  0  0  0
    0.4244    0.4423   -0.4888 H   0  0  0  0  0  0  0  0  0  0  0  0
   -2.0589    0.5108   -1.0270 H   0  0  0  0  0  0  0  0  0  0  0  0
   -2.2145   -1.0912   -0.3051 H   0  0  0  0  0  0  0  0  0  0  0  0
   -2.0043   -1.2765   -2.7794 H   0  0  0  0  0  0  0  0  0  0  0  0
   -0.5841   -2.0047   -2.0089 H   0  0  0  0  0  0  0  0  0  0  0  0
   -0.7952    2.1187   -4.0902 H   0  0  0  0  0  0  0  0  0  0  0  0
   -1.6608    1.7522   -2.5791 H   0  0  0  0  0  0  0  0  0  0  0  0
   -2.0827    0.8893   -4.0781 H   0  0  0  0  0  0  0  0  0  0  0  0
   -2.0740    0.6481    1.5688 N   0  0  0  0  0  0  0  0  0  0  0  0
   -2.6811    1.3429    2.6798 C   0  0  2  0  0  0  0  0  0  0  0  0
   -3.7407    0.4303    3.2828 C   0  0  0  0  0  0  0  0  0  0  0  0
   -4.2712   -0.4860    2.6581 O   0  0  0  0  0  0  0  0  0  0  0  0
   -3.2894    2.6654    2.2396 C   0  0  0  0  0  0  0  0  0  0  0  0
   -2.6828    0.1249    0.9465 H   0  0  0  0  0  0  0  0  0  0  0  0
   -1.8879    1.5181    3.4148 H   0  0  0  0  0  0  0  0  0  0  0  0
   -4.0861    2.5101    1.5030 H   0  0  0  0  0  0  0  0  0  0  0  0
   -3.7241    3.2041    3.0880 H   0  0  0  0  0  0  0  0  0  0  0  0
   -2.5318    3.3087    1.7791 H   0  0  0  0  0  0  0  0  0  0  0  0
   -4.0555    0.7864    4.5867 N   0  0  0  0  0  0  0  0  0  0  0  0
   -5.0421    0.0811    5.3711 C   0  0  0  0  0  0  0  0  0  0  0  0
   -3.5522    1.5480    5.0321 H   0  0  0  0  0  0  0  0  0  0  0  0
   -6.0213    0.5683    5.2538 H   0  0  0  0  0  0  0  0  0  0  0  0
   -5.1077   -0.9614    5.0260 H   0  0  0  0  0  0  0  0  0  0  0  0
   -4.7485    0.0986    6.4310 H   0  0  0  0  0  0  0  0  0  0  0  0
  1  3  1  0  0  0  0
  1  7  1  0  0  0  0
  1  2  2  0  0  0  0
 35 36  1  0  0  0  0
 36 44  1  0  0  0  0
 36 37  2  0  0  0  0
  8  9  1  0  0  0  0
  9 17  1  0  0  0  0
  9 10  2  0  0  0  0
 18 19  1  0  0  0  0
 19 34  1  0  0  0  0
 19 20  2  0  0  0  0
 35 38  1  0  0  0  0
  8 11  1  0  0  0  0
 44 45  1  0  0  0  0
 23 24  1  0  0  0  0
 21 22  1  0  0  0  0
 18 21  1  0  0  0  0
 22 23  1  0  0  0  0
 34 35  1  0  0  0  0
  7  8  1  0  0  0  0
 17 18  1  0  0  0  0
  3  4  1  0  0  0  0
  3  5  1  0  0  0  0
  3  6  1  0  0  0  0
 38 41  1  0  0  0  0
 38 42  1  0  0  0  0
 38 43  1  0  0  0  0
 11 14  1  0  0  0  0
 11 15  1  0  0  0  0
 11 16  1  0  0  0  0
 45 47  1  0  0  0  0
 45 48  1  0  0  0  0
 45 49  1  0  0  0  0
 24 31  1  0  0  0  0
 24 32  1  0  0  0  0
 24 33  1  0  0  0  0
 21 27  1  0  0  0  0
 21 28  1  0  0  0  0
 22 29  1  0  0  0  0
 22 30  1  0  0  0  0
 35 40  1  0  0  0  0
  8 13  1  0  0  0  0
 18 26  1  0  0  0  0
 44 46  1  0  0  0  0
  7 12  1  0  0  0  0
 34 39  1  0  0  0  0
 17 25  1  0  0  0  0
M  END
$$$$

  -OEChem-05262214473D

 49 48  0     1  0  0  0  0  0999 V2000
   -0.0561   -5.3799    2.6949 C   0  0  0  0  0  0  0  0  0  0  0  0
    0.7325   -5.0736    3.5815 O   0  0  0  0  0  0  0  0  0  0  0  0
   -1.0067   -6.5099    2.9135 C   0  0  0  0  0  0  0  0  0  0  0  0
   -0.5910   -7.4777    2.5899 H   0  0  0  0  0  0  0  0  0  0  0  0
   -1.2629   -6.6440    3.9767 H   0  0  0  0  0  0  0  0  0  0  0  0
   -1.9729   -6.4206    2.3918 H   0  0  0  0  0  0  0  0  0  0  0  0
   -0.1735   -4.7694    1.4571 N   0  0  0  0  0  0  0  0  0  0  0  0
    0.6439   -3.6603    1.0409 C   0  0  2  0  0  0  0  0  0  0  0  0
   -0.2788   -2.5625    0.5280 C   0  0  0  0  0  0  0  0  0  0  0  0
   -1.4197   -2.7791    0.1251 O   0  0  0  0  0  0  0  0  0  0  0  0
    1.6395   -4.0779   -0.0301 C   0  0  0  0  0  0  0  0  0  0  0  0
   -0.8741   -5.1235    0.8083 H   0  0  0  0  0  0  0  0  0  0  0  0
    1.1738   -3.3062    1.9318 H   0  0  0  0  0  0  0  0  0  0  0  0
    1.1270   -4.4358   -0.9305 H   0  0  0  0  0  0  0  0  0  0  0  0
    2.2797   -3.2400   -0.3251 H   0  0  0  0  0  0  0  0  0  0  0  0
    2.2827   -4.8880    0.3303 H   0  0  0  0  0  0  0  0  0  0  0  0
    0.3351   -1.3153    0.5316 N   0  0  0  0  0  0  0  0  0  0  0  0
   -0.3268   -0.1184    0.0807 C   0  0  2  0  0  0  0  0  0  0  0  0
   -0.7149    0.7158    1.2977 C   0  0  0  0  0  0  0  0  0  0  0  0
    0.0338    1.5491    1.8038 O   0  0  0  0  0  0  0  0  0  0  0  0
   -1.5198   -0.4265   -0.8345 C   0  0  0  0  0  0  0  0  0  0  0  0
   -1.1225   -1.0656   -2.1672 C   0  0  0  0  0  0  0  0  0  0  0  0
   -0.0423    0.0501   -3.1120 S   0  0  0  0  0  0  0  0  0  0  0  0
   -1.2623    1.3247   -3.5025 C   0  0  0  0  0  0  0  0  0  0  0  0
    1.2790   -1.2290    0.9021 H   0  0  0  0  0  0  0  0  0  0  0  0
    0.4244    0.4423   -0.4888 H   0  0  0  0  0  0  0  0  0  0  0  0
   -2.0589    0.5108   -1.0270 H   0  0  0  0  0  0  0  0  0  0  0  0
   -2.2145   -1.0912   -0.3051 H   0  0  0  0  0  0  0  0  0  0  0  0
   -2.0043   -1.2765   -2.7794 H   0  0  0  0  0  0  0  0  0  0  0  0
   -0.5841   -2.0047   -2.0089 H   0  0  0  0  0  0  0  0  0  0  0  0
   -0.7952    2.1187   -4.0902 H   0  0  0  0  0  0  0  0  0  0  0  0
   -1.6608    1.7522   -2.5791 H   0  0  0  0  0  0  0  0  0  0  0  0
   -2.0827    0.8893   -4.0781 H   0  0  0  0  0  0  0  0  0  0  0  0
   -1.9799    0.3975    1.7706 N   0  0  0  0  0  0  0  0  0  0  0  0
   -2.5648    1.0428    2.9225 C   0  0  2  0  0  0  0  0  0  0  0  0
   -3.3168   -0.0131    3.7219 C   0  0  0  0  0  0  0  0  0  0  0  0
   -3.7209   -1.0649    3.2304 O   0  0  0  0  0  0  0  0  0  0  0  0
   -3.4923    2.1755    2.5106 C   0  0  0  0  0  0  0  0  0  0  0  0
   -2.5426   -0.2863    1.2731 H   0  0  0  0  0  0  0  0  0  0  0  0
   -1.7350    1.4331    3.5218 H   0  0  0  0  0  0  0  0  0  0  0  0
   -4.3300    1.8037    1.9093 H   0  0  0  0  0  0  0  0  0  0  0  0
   -3.9128    2.6821    3.3856 H   0  0  0  0  0  0  0  0  0  0  0  0
   -2.9568    2.9191    1.9106 H   0  0  0  0  0  0  0  0  0  0  0  0
   -3.5213    0.3763    5.0382 N   0  0  0  0  0  0  0  0  0  0  0  0
   -4.2219   -0.4480    5.9952 C   0  0  0  0  0  0  0  0  0  0  0  0
   -3.1349    1.2572    5.3645 H   0  0  0  0  0  0  0  0  0  0  0  0
   -5.2885   -0.1793    5.9999 H   0  0  0  0  0  0  0  0  0  0  0  0
   -4.1117   -1.5066    5.7173 H   0  0  0  0  0  0  0  0  0  0  0  0
   -3.7987   -0.2861    6.9976 H   0  0  0  0  0  0  0  0  0  0  0  0
  1  3  1  0  0  0  0
  1  7  1  0  0  0  0
  1  2  2  0  0  0  0
 35 36  1  0  0  0  0
 36 44  1  0  0  0  0
 36 37  2  0  0  0  0
  8  9  1  0  0  0  0
  9 17  1  0  0  0  0
  9 10  2  0  0  0  0
 18 19  1  0  0  0  0
 19 34  1  0  0  0  0
 19 20  2  0  0  0  0
 35 38  1  0  0  0  0
  8 11  1  0  0  0  0
 44 45  1  0  0  0  0
 23 24  1  0  0  0  0
 21 22  1  0  0  0  0
 18 21  1  0  0  0  0
 22 23  1  0  0  0  0
 34 35  1  0  0  0  0
  7  8  1  0  0  0  0
 17 18  1  0  0  0  0
  3  4  1  0  0  0  0
  3  5  1  0  0  0  0
  3  6  1  0  0  0  0
 38 41  1  0  0  0  0
 38 42  1  0  0  0  0
 38 43  1  0  0  0  0
 11 14  1  0  0  0  0
 11 15  1  0  0  0  0
 11 16  1  0  0  0  0
 45 47  1  0  0  0  0
 45 48  1  0  0  0  0
 45 49  1  0  0  0  0
 24 31  1  0  0  0  0
 24 32  1  0  0  0  0
 24 33  1  0  0  0  0
 21 27  1  0  0  0  0
 21 28  1  0  0  0  0
 22 29  1  0  0  0  0
 22 30  1  0  0  0  0
 35 40  1  0  0  0  0
  8 13  1  0  0  0  0
 18 26  1  0  0  0  0
 44 46  1  0  0  0  0
  7 12  1  0  0  0  0
 34 39  1  0  0  0  0
 17 25  1  0  0  0  0
M  END
$$$$

  -OEChem-05262214473D

 49 48  0     1  0  0  0  0  0999 V2000
   -0.0561   -5.3799    2.6949 C   0  0  0  0  0  0  0  0  0  0  0  0
    0.7325   -5.0736    3.5815 O   0  0  0  0  0  0  0  0  0  0  0  0
   -1.0067   -6.5099    2.9135 C   0  0  0  0  0  0  0  0  0  0  0  0
   -0.5910   -7.4777    2.5899 H   0  0  0  0  0  0  0  0  0  0  0  0
   -1.2629   -6.6440    3.9767 H   0  0  0  0  0  0  0  0  0  0  0  0
   -1.9729   -6.4206    2.3918 H   0  0  0  0  0  0  0  0  0  0  0  0
   -0.1735   -4.7694    1.4571 N   0  0  0  0  0  0  0  0  0  0  0  0
    0.6439   -3.6603    1.0409 C   0  0  2  0  0  0  0  0  0  0  0  0
   -0.2788   -2.5625    0.5280 C   0  0  0  0  0  0  0  0  0  0  0  0
   -1.4197   -2.7791    0.1251 O   0  0  0  0  0  0  0  0  0  0  0  0
    1.6395   -4.0779   -0.0301 C   0  0  0  0  0  0  0  0  0  0  0  0
   -0.8741   -5.1235    0.8083 H   0  0  0  0  0  0  0  0  0  0  0  0
    1.1738   -3.3062    1.9318 H   0  0  0  0  0  0  0  0  0  0  0  0
    1.1270   -4.4358   -0.9305 H   0  0  0  0  0  0  0  0  0  0  0  0
    2.2797   -3.2400   -0.3251 H   0  0  0  0  0  0  0  0  0  0  0  0
    2.2827   -4.8880    0.3303 H   0  0  0  0  0  0  0  0  0  0  0  0
    0.3351   -1.3153    0.5316 N   0  0  0  0  0  0  0  0  0  0  0  0
   -0.3268   -0.1184    0.0807 C   0  0  2  0  0  0  0  0  0  0  0  0
   -0.7149    0.7158    1.2977 C   0  0  0  0  0  0  0  0  0  0  0  0
   -0.0980    1.7211    1.6440 O   0  0  0  0  0  0  0  0  0  0  0  0
   -1.5198   -0.4265   -0.8345 C   0  0  0  0  0  0  0  0  0  0  0  0
   -1.1225   -1.0656   -2.1672 C   0  0  0  0  0  0  0  0  0  0  0  0
   -0.0423    0.0501   -3.1120 S   0  0  0  0  0  0  0  0  0  0  0  0
   -1.2623    1.3247   -3.5025 C   0  0  0  0  0  0  0  0  0  0  0  0
    1.2790   -1.2290    0.9021 H   0  0  0  0  0  0  0  0  0  0  0  0
    0.4244    0.4423   -0.4888 H   0  0  0  0  0  0  0  0  0  0  0  0
   -2.0589    0.5108   -1.0270 H   0  0  0  0  0  0  0  0  0  0  0  0
   -2.2145   -1.0912   -0.3051 H   0  0  0  0  0  0  0  0  0  0  0  0
   -2.0043   -1.2765   -2.7794 H   0  0  0  0  0  0  0  0  0  0  0  0
   -0.5841   -2.0047   -2.0089 H   0  0  0  0  0  0  0  0  0  0  0  0
   -0.7952    2.1187   -4.0902 H   0  0  0  0  0  0  0  0  0  0  0  0
   -1.6608    1.7522   -2.5791 H   0  0  0  0  0  0  0  0  0  0  0  0
   -2.0827    0.8893   -4.0781 H   0  0  0  0  0  0  0  0  0  0  0  0
   -1.8087    0.1881    1.9688 N   0  0  0  0  0  0  0  0  0  0  0  0
   -2.3563    0.7930    3.1603 C   0  0  2  0  0  0  0  0  0  0  0  0
   -2.7537   -0.3250    4.1152 C   0  0  0  0  0  0  0  0  0  0  0  0
   -2.9889   -1.4728    3.7434 O   0  0  0  0  0  0  0  0  0  0  0  0
   -3.5489    1.6782    2.8334 C   0  0  0  0  0  0  0  0  0  0  0  0
   -2.2760   -0.6330    1.5957 H   0  0  0  0  0  0  0  0  0  0  0  0
   -1.5547    1.3897    3.6091 H   0  0  0  0  0  0  0  0  0  0  0  0
   -4.3623    1.0978    2.3829 H   0  0  0  0  0  0  0  0  0  0  0  0
   -3.9451    2.1585    3.7341 H   0  0  0  0  0  0  0  0  0  0  0  0
   -3.2682    2.4637    2.1234 H   0  0  0  0  0  0  0  0  0  0  0  0
   -2.8567    0.1201    5.4257 N   0  0  0  0  0  0  0  0  0  0  0  0
   -3.2320   -0.7485    6.5168 C   0  0  0  0  0  0  0  0  0  0  0  0
   -2.6247    1.0842    5.6457 H   0  0  0  0  0  0  0  0  0  0  0  0
   -4.3208   -0.7011    6.6661 H   0  0  0  0  0  0  0  0  0  0  0  0
   -2.9392   -1.7821    6.2800 H   0  0  0  0  0  0  0  0  0  0  0  0
   -2.7216   -0.4243    7.4357 H   0  0  0  0  0  0  0  0  0  0  0  0
  1  3  1  0  0  0  0
  1  7  1  0  0  0  0
  1  2  2  0  0  0  0
 35 36  1  0  0  0  0
 36 44  1  0  0  0  0
 36 37  2  0  0  0  0
  8  9  1  0  0  0  0
  9 17  1  0  0  0  0
  9 10  2  0  0  0  0
 18 19  1  0  0  0  0
 19 34  1  0  0  0  0
 19 20  2  0  0  0  0
 35 38  1  0  0  0  0
  8 11  1  0  0  0  0
 44 45  1  0  0  0  0
 23 24  1  0  0  0  0
 21 22  1  0  0  0  0
 18 21  1  0  0  0  0
 22 23  1  0  0  0  0
 34 35  1  0  0  0  0
  7  8  1  0  0  0  0
 17 18  1  0  0  0  0
  3  4  1  0  0  0  0
  3  5  1  0  0  0  0
  3  6  1  0  0  0  0
 38 41  1  0  0  0  0
 38 42  1  0  0  0  0
 38 43  1  0  0  0  0
 11 14  1  0  0  0  0
 11 15  1  0  0  0  0
 11 16  1  0  0  0  0
 45 47  1  0  0  0  0
 45 48  1  0  0  0  0
 45 49  1  0  0  0  0
 24 31  1  0  0  0  0
 24 32  1  0  0  0  0
 24 33  1  0  0  0  0
 21 27  1  0  0  0  0
 21 28  1  0  0  0  0
 22 29  1  0  0  0  0
 22 30  1  0  0  0  0
 35 40  1  0  0  0  0
  8 13  1  0  0  0  0
 18 26  1  0  0  0  0
 44 46  1  0  0  0  0
  7 12  1  0  0  0  0
 34 39  1  0  0  0  0
 17 25  1  0  0  0  0
M  END
$$$$

  -OEChem-05262214473D

 49 48  0     1  0  0  0  0  0999 V2000
   -0.0561   -5.3799    2.6949 C   0  0  0  0  0  0  0  0  0  0  0  0
    0.7325   -5.0736    3.5815 O   0  0  0  0  0  0  0  0  0  0  0  0
   -1.0067   -6.5099    2.9135 C   0  0  0  0  0  0  0  0  0  0  0  0
   -0.5910   -7.4777    2.5899 H   0  0  0  0  0  0  0  0  0  0  0  0
   -1.2629   -6.6440    3.9767 H   0  0  0  0  0  0  0  0  0  0  0  0
   -1.9729   -6.4206    2.3918 H   0  0  0  0  0  0  0  0  0  0  0  0
   -0.1735   -4.7694    1.4571 N   0  0  0  0  0  0  0  0  0  0  0  0
    0.6439   -3.6603    1.0409 C   0  0  2  0  0  0  0  0  0  0  0  0
   -0.2788   -2.5625    0.5280 C   0  0  0  0  0  0  0  0  0  0  0  0
   -1.4197   -2.7791    0.1251 O   0  0  0  0  0  0  0  0  0  0  0  0
    1.6395   -4.0779   -0.0301 C   0  0  0  0  0  0  0  0  0  0  0  0
   -0.8741   -5.1235    0.8083 H   0  0  0  0  0  0  0  0  0  0  0  0
    1.1738   -3.3062    1.9318 H   0  0  0  0  0  0  0  0  0  0  0  0
    1.1270   -4.4358   -0.9305 H   0  0  0  0  0  0  0  0  0  0  0  0
    2.2797   -3.2400   -0.3251 H   0  0  0  0  0  0  0  0  0  0  0  0
    2.2827   -4.8880    0.3303 H   0  0  0  0  0  0  0  0  0  0  0  0
    0.3351   -1.3153    0.5316 N   0  0  0  0  0  0  0  0  0  0  0  0
   -0.3268   -0.1184    0.0807 C   0  0  2  0  0  0  0  0  0  0  0  0
   -0.7149    0.7158    1.2977 C   0  0  0  0  0  0  0  0  0  0  0  0
   -0.2833    1.8495    1.4969 O   0  0  0  0  0  0  0  0  0  0  0  0
   -1.5198   -0.4265   -0.8345 C   0  0  0  0  0  0  0  0  0  0  0  0
   -1.1225   -1.0656   -2.1672 C   0  0  0  0  0  0  0  0  0  0  0  0
   -0.0423    0.0501   -3.1120 S   0  0  0  0  0  0  0  0  0  0  0  0
   -1.2623    1.3247   -3.5025 C   0  0  0  0  0  0  0  0  0  0  0  0
    1.2790   -1.2290    0.9021 H   0  0  0  0  0  0  0  0  0  0  0  0
    0.4244    0.4423   -0.4888 H   0  0  0  0  0  0  0  0  0  0  0  0
   -2.0589    0.5108   -1.0270 H   0  0  0  0  0  0  0  0  0  0  0  0
   -2.2145   -1.0912   -0.3051 H   0  0  0  0  0  0  0  0  0  0  0  0
   -2.0043   -1.2765   -2.7794 H   0  0  0  0  0  0  0  0  0  0  0  0
   -0.5841   -2.0047   -2.0089 H   0  0  0  0  0  0  0  0  0  0  0  0
   -0.7952    2.1187   -4.0902 H   0  0  0  0  0  0  0  0  0  0  0  0
   -1.6608    1.7522   -2.5791 H   0  0  0  0  0  0  0  0  0  0  0  0
   -2.0827    0.8893   -4.0781 H   0  0  0  0  0  0  0  0  0  0  0  0
   -1.5721    0.0342    2.1497 N   0  0  0  0  0  0  0  0  0  0  0  0
   -2.0696    0.6103    3.3769 C   0  0  2  0  0  0  0  0  0  0  0  0
   -2.0897   -0.4840    4.4359 C   0  0  0  0  0  0  0  0  0  0  0  0
   -2.1251   -1.6819    4.1621 O   0  0  0  0  0  0  0  0  0  0  0  0
   -3.4551    1.2075    3.1860 C   0  0  0  0  0  0  0  0  0  0  0  0
   -1.9013   -0.8916    1.8925 H   0  0  0  0  0  0  0  0  0  0  0  0
   -1.3592    1.3907    3.6707 H   0  0  0  0  0  0  0  0  0  0  0  0
   -4.1806    0.4405    2.8913 H   0  0  0  0  0  0  0  0  0  0  0  0
   -3.8190    1.6690    4.1098 H   0  0  0  0  0  0  0  0  0  0  0  0
   -3.4449    1.9735    2.4031 H   0  0  0  0  0  0  0  0  0  0  0  0
   -2.1071    0.0354    5.7228 N   0  0  0  0  0  0  0  0  0  0  0  0
   -2.1401   -0.8002    6.9004 C   0  0  0  0  0  0  0  0  0  0  0  0
   -2.0565    1.0410    5.8565 H   0  0  0  0  0  0  0  0  0  0  0  0
   -3.1841   -0.9615    7.2070 H   0  0  0  0  0  0  0  0  0  0  0  0
   -1.6702   -1.7690    6.6757 H   0  0  0  0  0  0  0  0  0  0  0  0
   -1.5907   -0.3065    7.7156 H   0  0  0  0  0  0  0  0  0  0  0  0
  1  3  1  0  0  0  0
  1  7  1  0  0  0  0
  1  2  2  0  0  0  0
 35 36  1  0  0  0  0
 36 44  1  0  0  0  0
 36 37  2  0  0  0  0
  8  9  1  0  0  0  0
  9 17  1  0  0  0  0
  9 10  2  0  0  0  0
 18 19  1  0  0  0  0
 19 34  1  0  0  0  0
 19 20  2  0  0  0  0
 35 38  1  0  0  0  0
  8 11  1  0  0  0  0
 44 45  1  0  0  0  0
 23 24  1  0  0  0  0
 21 22  1  0  0  0  0
 18 21  1  0  0  0  0
 22 23  1  0  0  0  0
 34 35  1  0  0  0  0
  7  8  1  0  0  0  0
 17 18  1  0  0  0  0
  3  4  1  0  0  0  0
  3  5  1  0  0  0  0
  3  6  1  0  0  0  0
 38 41  1  0  0  0  0
 38 42  1  0  0  0  0
 38 43  1  0  0  0  0
 11 14  1  0  0  0  0
 11 15  1  0  0  0  0
 11 16  1  0  0  0  0
 45 47  1  0  0  0  0
 45 48  1  0  0  0  0
 45 49  1  0  0  0  0
 24 31  1  0  0  0  0
 24 32  1  0  0  0  0
 24 33  1  0  0  0  0
 21 27  1  0  0  0  0
 21 28  1  0  0  0  0
 22 29  1  0  0  0  0
 22 30  1  0  0  0  0
 35 40  1  0  0  0  0
  8 13  1  0  0  0  0
 18 26  1  0  0  0  0
 44 46  1  0  0  0  0
  7 12  1  0  0  0  0
 34 39  1  0  0  0  0
 17 25  1  0  0  0  0
M  END
$$$$

  -OEChem-05262214473D

 49 48  0     1  0  0  0  0  0999 V2000
   -0.0561   -5.3799    2.6949 C   0  0  0  0  0  0  0  0  0  0  0  0
    0.7325   -5.0736    3.5815 O   0  0  0  0  0  0  0  0  0  0  0  0
   -1.0067   -6.5099    2.9135 C   0  0  0  0  0  0  0  0  0  0  0  0
   -0.5910   -7.4777    2.5899 H   0  0  0  0  0  0  0  0  0  0  0  0
   -1.2629   -6.6440    3.9767 H   0  0  0  0  0  0  0  0  0  0  0  0
   -1.9729   -6.4206    2.3918 H   0  0  0  0  0  0  0  0  0  0  0  0
   -0.1735   -4.7694    1.4571 N   0  0  0  0  0  0  0  0  0  0  0  0
    0.6439   -3.6603    1.0409 C   0  0  2  0  0  0  0  0  0  0  0  0
   -0.2788   -2.5625    0.5280 C   0  0  0  0  0  0  0  0  0  0  0  0
   -1.4197   -2.7791    0.1251 O   0  0  0  0  0  0  0  0  0  0  0  0
    1.6395   -4.0779   -0.0301 C   0  0  0  0  0  0  0  0  0  0  0  0
   -0.8741   -5.1235    0.8083 H   0  0  0  0  0  0  0  0  0  0  0  0
    1.1738   -3.3062    1.9318 H   0  0  0  0  0  0  0  0  0  0  0  0
    1.1270   -4.4358   -0.9305 H   0  0  0  0  0  0  0  0  0  0  0  0
    2.2797   -3.2400   -0.3251 H   0  0  0  0  0  0  0  0  0  0  0  0
    2.2827   -4.8880    0.3303 H   0  0  0  0  0  0  0  0  0  0  0  0
    0.3351   -1.3153    0.5316 N   0  0  0  0  0  0  0  0  0  0  0  0
   -0.3268   -0.1184    0.0807 C   0  0  2  0  0  0  0  0  0  0  0  0
   -0.7149    0.7158    1.2977 C   0  0  0  0  0  0  0  0  0  0  0  0
   -0.5097    1.9255    1.3725 O   0  0  0  0  0  0  0  0  0  0  0  0
   -1.5198   -0.4265   -0.8345 C   0  0  0  0  0  0  0  0  0  0  0  0
   -1.1225   -1.0656   -2.1672 C   0  0  0  0  0  0  0  0  0  0  0  0
   -0.0423    0.0501   -3.1120 S   0  0  0  0  0  0  0  0  0  0  0  0
   -1.2623    1.3247   -3.5025 C   0  0  0  0  0  0  0  0  0  0  0  0
    1.2790   -1.2290    0.9021 H   0  0  0  0  0  0  0  0  0  0  0  0
    0.4244    0.4423   -0.4888 H   0  0  0  0  0  0  0  0  0  0  0  0
   -2.0589    0.5108   -1.0270 H   0  0  0  0  0  0  0  0  0  0  0  0
   -2.2145   -1.0912   -0.3051 H   0  0  0  0  0  0  0  0  0  0  0  0
   -2.0043   -1.2765   -2.7794 H   0  0  0  0  0  0  0  0  0  0  0  0
   -0.5841   -2.0047   -2.0089 H   0  0  0  0  0  0  0  0  0  0  0  0
   -0.7952    2.1187   -4.0902 H   0  0  0  0  0  0  0  0  0  0  0  0
   -1.6608    1.7522   -2.5791 H   0  0  0  0  0  0  0  0  0  0  0  0
   -2.0827    0.8893   -4.0781 H   0  0  0  0  0  0  0  0  0  0  0  0
   -1.2861   -0.0537    2.3011 N   0  0  0  0  0  0  0  0  0  0  0  0
   -1.7243    0.5073    3.5576 C   0  0  2  0  0  0  0  0  0  0  0  0
   -1.3701   -0.4794    4.6622 C   0  0  0  0  0  0  0  0  0  0  0  0
   -1.1882   -1.6779    4.4582 O   0  0  0  0  0  0  0  0  0  0  0  0
   -3.2175    0.7953    3.5442 C   0  0  0  0  0  0  0  0  0  0  0  0
   -1.4439   -1.0446    2.1432 H   0  0  0  0  0  0  0  0  0  0  0  0
   -1.1618    1.4361    3.7025 H   0  0  0  0  0  0  0  0  0  0  0  0
   -3.7976   -0.1235    3.4000 H   0  0  0  0  0  0  0  0  0  0  0  0
   -3.5429    1.2470    4.4871 H   0  0  0  0  0  0  0  0  0  0  0  0
   -3.4747    1.4819    2.7305 H   0  0  0  0  0  0  0  0  0  0  0  0
   -1.3234    0.1279    5.9093 N   0  0  0  0  0  0  0  0  0  0  0  0
   -1.0204   -0.5993    7.1198 C   0  0  0  0  0  0  0  0  0  0  0  0
   -1.4688    1.1305    5.9826 H   0  0  0  0  0  0  0  0  0  0  0  0
   -1.9558   -0.9426    7.5858 H   0  0  0  0  0  0  0  0  0  0  0  0
   -0.3911   -1.4684    6.8775 H   0  0  0  0  0  0  0  0  0  0  0  0
   -0.4831    0.0591    7.8182 H   0  0  0  0  0  0  0  0  0  0  0  0
  1  3  1  0  0  0  0
  1  7  1  0  0  0  0
  1  2  2  0  0  0  0
 35 36  1  0  0  0  0
 36 44  1  0  0  0  0
 36 37  2  0  0  0  0
  8  9  1  0  0  0  0
  9 17  1  0  0  0  0
  9 10  2  0  0  0  0
 18 19  1  0  0  0  0
 19 34  1  0  0  0  0
 19 20  2  0  0  0  0
 35 38  1  0  0  0  0
  8 11  1  0  0  0  0
 44 45  1  0  0  0  0
 23 24  1  0  0  0  0
 21 22  1  0  0  0  0
 18 21  1  0  0  0  0
 22 23  1  0  0  0  0
 34 35  1  0  0  0  0
  7  8  1  0  0  0  0
 17 18  1  0  0  0  0
  3  4  1  0  0  0  0
  3  5  1  0  0  0  0
  3  6  1  0  0  0  0
 38 41  1  0  0  0  0
 38 42  1  0  0  0  0
 38 43  1  0  0  0  0
 11 14  1  0  0  0  0
 11 15  1  0  0  0  0
 11 16  1  0  0  0  0
 45 47  1  0  0  0  0
 45 48  1  0  0  0  0
 45 49  1  0  0  0  0
 24 31  1  0  0  0  0
 24 32  1  0  0  0  0
 24 33  1  0  0  0  0
 21 27  1  0  0  0  0
 21 28  1  0  0  0  0
 22 29  1  0  0  0  0
 22 30  1  0  0  0  0
 35 40  1  0  0  0  0
  8 13  1  0  0  0  0
 18 26  1  0  0  0  0
 44 46  1  0  0  0  0
  7 12  1  0  0  0  0
 34 39  1  0  0  0  0
 17 25  1  0  0  0  0
M  END
$$$$

  -OEChem-05262214473D

 49 48  0     1  0  0  0  0  0999 V2000
   -0.0561   -5.3799    2.6949 C   0  0  0  0  0  0  0  0  0  0  0  0
    0.7325   -5.0736    3.5815 O   0  0  0  0  0  0  0  0  0  0  0  0
   -1.0067   -6.5099    2.9135 C   0  0  0  0  0  0  0  0  0  0  0  0
   -0.5910   -7.4777    2.5899 H   0  0  0  0  0  0  0  0  0  0  0  0
   -1.2629   -6.6440    3.9767 H   0  0  0  0  0  0  0  0  0  0  0  0
   -1.9729   -6.4206    2.3918 H   0  0  0  0  0  0  0  0  0  0  0  0
   -0.1735   -4.7694    1.4571 N   0  0  0  0  0  0  0  0  0  0  0  0
    0.6439   -3.6603    1.0409 C   0  0  2  0  0  0  0  0  0  0  0  0
   -0.2788   -2.5625    0.5280 C   0  0  0  0  0  0  0  0  0  0  0  0
   -1.4197   -2.7791    0.1251 O   0  0  0  0  0  0  0  0  0  0  0  0
    1.6395   -4.0779   -0.0301 C   0  0  0  0  0  0  0  0  0  0  0  0
   -0.8741   -5.1235    0.8083 H   0  0  0  0  0  0  0  0  0  0  0  0
    1.1738   -3.3062    1.9318 H   0  0  0  0  0  0  0  0  0  0  0  0
    1.1270   -4.4358   -0.9305 H   0  0  0  0  0  0  0  0  0  0  0  0
    2.2797   -3.2400   -0.3251 H   0  0  0  0  0  0  0  0  0  0  0  0
    2.2827   -4.8880    0.3303 H   0  0  0  0  0  0  0  0  0  0  0  0
    0.3351   -1.3153    0.5316 N   0  0  0  0  0  0  0  0  0  0  0  0
   -0.3268   -0.1184    0.0807 C   0  0  2  0  0  0  0  0  0  0  0  0
   -0.7149    0.7158    1.2977 C   0  0  0  0  0  0  0  0  0  0  0  0
   -0.7617    1.9440    1.2795 O   0  0  0  0  0  0  0  0  0  0  0  0
   -1.5198   -0.4265   -0.8345 C   0  0  0  0  0  0  0  0  0  0  0  0
   -1.1225   -1.0656   -2.1672 C   0  0  0  0  0  0  0  0  0  0  0  0
   -0.0423    0.0501   -3.1120 S   0  0  0  0  0  0  0  0  0  0  0  0
   -1.2623    1.3247   -3.5025 C   0  0  0  0  0  0  0  0  0  0  0  0
    1.2790   -1.2290    0.9021 H   0  0  0  0  0  0  0  0  0  0  0  0
    0.4244    0.4423   -0.4888 H   0  0  0  0  0  0  0  0  0  0  0  0
   -2.0589    0.5108   -1.0270 H   0  0  0  0  0  0  0  0  0  0  0  0
   -2.2145   -1.0912   -0.3051 H   0  0  0  0  0  0  0  0  0  0  0  0
   -2.0043   -1.2765   -2.7794 H   0  0  0  0  0  0  0  0  0  0  0  0
   -0.5841   -2.0047   -2.0089 H   0  0  0  0  0  0  0  0  0  0  0  0
   -0.7952    2.1187   -4.0902 H   0  0  0  0  0  0  0  0  0  0  0  0
   -1.6608    1.7522   -2.5791 H   0  0  0  0  0  0  0  0  0  0  0  0
   -2.0827    0.8893   -4.0781 H   0  0  0  0  0  0  0  0  0  0  0  0
   -0.9704   -0.0696    2.4127 N   0  0  0  0  0  0  0  0  0  0  0  0
   -1.3439    0.4911    3.6900 C   0  0  2  0  0  0  0  0  0  0  0  0
   -0.6439   -0.3115    4.7787 C   0  0  0  0  0  0  0  0  0  0  0  0
   -0.2422   -1.4612    4.6113 O   0  0  0  0  0  0  0  0  0  0  0  0
   -2.8522    0.4699    3.8838 C   0  0  0  0  0  0  0  0  0  0  0  0
   -0.9351   -1.0814    2.3306 H   0  0  0  0  0  0  0  0  0  0  0  0
   -0.9760    1.5228    3.7023 H   0  0  0  0  0  0  0  0  0  0  0  0
   -3.2391   -0.5556    3.8743 H   0  0  0  0  0  0  0  0  0  0  0  0
   -3.1357    0.9212    4.8403 H   0  0  0  0  0  0  0  0  0  0  0  0
   -3.3557    1.0225    3.0833 H   0  0  0  0  0  0  0  0  0  0  0  0
   -0.5591    0.3913    5.9724 N   0  0  0  0  0  0  0  0  0  0  0  0
    0.0507   -0.1597    7.1600 C   0  0  0  0  0  0  0  0  0  0  0  0
   -0.9018    1.3466    6.0153 H   0  0  0  0  0  0  0  0  0  0  0  0
   -0.7196   -0.6459    7.7766 H   0  0  0  0  0  0  0  0  0  0  0  0
    0.8109   -0.9006    6.8716 H   0  0  0  0  0  0  0  0  0  0  0  0
    0.5258    0.6478    7.7365 H   0  0  0  0  0  0  0  0  0  0  0  0
  1  3  1  0  0  0  0
  1  7  1  0  0  0  0
  1  2  2  0  0  0  0
 35 36  1  0  0  0  0
 36 44  1  0  0  0  0
 36 37  2  0  0  0  0
  8  9  1  0  0  0  0
  9 17  1  0  0  0  0
  9 10  2  0  0  0  0
 18 19  1  0  0  0  0
 19 34  1  0  0  0  0
 19 20  2  0  0  0  0
 35 38  1  0  0  0  0
  8 11  1  0  0  0  0
 44 45  1  0  0  0  0
 23 24  1  0  0  0  0
 21 22  1  0  0  0  0
 18 21  1  0  0  0  0
 22 23  1  0  0  0  0
 34 35  1  0  0  0  0
  7  8  1  0  0  0  0
 17 18  1  0  0  0  0
  3  4  1  0  0  0  0
  3  5  1  0  0  0  0
  3  6  1  0  0  0  0
 38 41  1  0  0  0  0
 38 42  1  0  0  0  0
 38 43  1  0  0  0  0
 11 14  1  0  0  0  0
 11 15  1  0  0  0  0
 11 16  1  0  0  0  0
 45 47  1  0  0  0  0
 45 48  1  0  0  0  0
 45 49  1  0  0  0  0
 24 31  1  0  0  0  0
 24 32  1  0  0  0  0
 24 33  1  0  0  0  0
 21 27  1  0  0  0  0
 21 28  1  0  0  0  0
 22 29  1  0  0  0  0
 22 30  1  0  0  0  0
 35 40  1  0  0  0  0
  8 13  1  0  0  0  0
 18 26  1  0  0  0  0
 44 46  1  0  0  0  0
  7 12  1  0  0  0  0
 34 39  1  0  0  0  0
 17 25  1  0  0  0  0
M  END
$$$$

  -OEChem-05262214473D

 49 48  0     1  0  0  0  0  0999 V2000
   -0.0561   -5.3799    2.6949 C   0  0  0  0  0  0  0  0  0  0  0  0
    0.7325   -5.0736    3.5815 O   0  0  0  0  0  0  0  0  0  0  0  0
   -1.0067   -6.5099    2.9135 C   0  0  0  0  0  0  0  0  0  0  0  0
   -0.5910   -7.4777    2.5899 H   0  0  0  0  0  0  0  0  0  0  0  0
   -1.2629   -6.6440    3.9767 H   0  0  0  0  0  0  0  0  0  0  0  0
   -1.9729   -6.4206    2.3918 H   0  0  0  0  0  0  0  0  0  0  0  0
   -0.1735   -4.7694    1.4571 N   0  0  0  0  0  0  0  0  0  0  0  0
    0.6439   -3.6603    1.0409 C   0  0  2  0  0  0  0  0  0  0  0  0
   -0.2788   -2.5625    0.5280 C   0  0  0  0  0  0  0  0  0  0  0  0
   -1.4197   -2.7791    0.1251 O   0  0  0  0  0  0  0  0  0  0  0  0
    1.6395   -4.0779   -0.0301 C   0  0  0  0  0  0  0  0  0  0  0  0
   -0.8741   -5.1235    0.8083 H   0  0  0  0  0  0  0  0  0  0  0  0
    1.1738   -3.3062    1.9318 H   0  0  0  0  0  0  0  0  0  0  0  0
    1.1270   -4.4358   -0.9305 H   0  0  0  0  0  0  0  0  0  0  0  0
    2.2797   -3.2400   -0.3251 H   0  0  0  0  0  0  0  0  0  0  0  0
    2.2827   -4.8880    0.3303 H   0  0  0  0  0  0  0  0  0  0  0  0
    0.3351   -1.3153    0.5316 N   0  0  0  0  0  0  0  0  0  0  0  0
   -0.3268   -0.1184    0.0807 C   0  0  2  0  0  0  0  0  0  0  0  0
   -0.7149    0.7158    1.2977 C   0  0  0  0  0  0  0  0  0  0  0  0
   -1.0221    1.9038    1.2241 O   0  0  0  0  0  0  0  0  0  0  0  0
   -1.5198   -0.4265   -0.8345 C   0  0  0  0  0  0  0  0  0  0  0  0
   -1.1225   -1.0656   -2.1672 C   0  0  0  0  0  0  0  0  0  0  0  0
   -0.0423    0.0501   -3.1120 S   0  0  0  0  0  0  0  0  0  0  0  0
   -1.2623    1.3247   -3.5025 C   0  0  0  0  0  0  0  0  0  0  0  0
    1.2790   -1.2290    0.9021 H   0  0  0  0  0  0  0  0  0  0  0  0
    0.4244    0.4423   -0.4888 H   0  0  0  0  0  0  0  0  0  0  0  0
   -2.0589    0.5108   -1.0270 H   0  0  0  0  0  0  0  0  0  0  0  0
   -2.2145   -1.0912   -0.3051 H   0  0  0  0  0  0  0  0  0  0  0  0
   -2.0043   -1.2765   -2.7794 H   0  0  0  0  0  0  0  0  0  0  0  0
   -0.5841   -2.0047   -2.0089 H   0  0  0  0  0  0  0  0  0  0  0  0
   -0.7952    2.1187   -4.0902 H   0  0  0  0  0  0  0  0  0  0  0  0
   -1.6608    1.7522   -2.5791 H   0  0  0  0  0  0  0  0  0  0  0  0
   -2.0827    0.8893   -4.0781 H   0  0  0  0  0  0  0  0  0  0  0  0
   -0.6463   -0.0124    2.4768 N   0  0  0  0  0  0  0  0  0  0  0  0
   -0.9544    0.5626    3.7652 C   0  0  2  0  0  0  0  0  0  0  0  0
    0.0393    0.0082    4.7774 C   0  0  0  0  0  0  0  0  0  0  0  0
    0.6485   -1.0464    4.6110 O   0  0  0  0  0  0  0  0  0  0  0  0
   -2.3840    0.2533    4.1815 C   0  0  0  0  0  0  0  0  0  0  0  0
   -0.4095   -0.9995    2.4421 H   0  0  0  0  0  0  0  0  0  0  0  0
   -0.8145    1.6449    3.6702 H   0  0  0  0  0  0  0  0  0  0  0  0
   -2.5434   -0.8265    4.2818 H   0  0  0  0  0  0  0  0  0  0  0  0
   -2.6251    0.7139    5.1452 H   0  0  0  0  0  0  0  0  0  0  0  0
   -3.0960    0.6266    3.4375 H   0  0  0  0  0  0  0  0  0  0  0  0
    0.1336    0.8078    5.9079 N   0  0  0  0  0  0  0  0  0  0  0  0
    1.0003    0.4887    7.0184 C   0  0  0  0  0  0  0  0  0  0  0  0
   -0.3942    1.6745    5.9524 H   0  0  0  0  0  0  0  0  0  0  0  0
    0.4401   -0.0915    7.7664 H   0  0  0  0  0  0  0  0  0  0  0  0
    1.8539   -0.1044    6.6585 H   0  0  0  0  0  0  0  0  0  0  0  0
    1.3673    1.4193    7.4760 H   0  0  0  0  0  0  0  0  0  0  0  0
  1  3  1  0  0  0  0
  1  7  1  0  0  0  0
  1  2  2  0  0  0  0
 35 36  1  0  0  0  0
 36 44  1  0  0  0  0
 36 37  2  0  0  0  0
  8  9  1  0  0  0  0
  9 17  1  0  0  0  0
  9 10  2  0  0  0  0
 18 19  1  0  0  0  0
 19 34  1  0  0  0  0
 19 20  2  0  0  0  0
 35 38  1  0  0  0  0
  8 11  1  0  0  0  0
 44 45  1  0  0  0  0
 23 24  1  0  0  0  0
 21 22  1  0  0  0  0
 18 21  1  0  0  0  0
 22 23  1  0  0  0  0
 34 35  1  0  0  0  0
  7  8  1  0  0  0  0
 17 18  1  0  0  0  0
  3  4  1  0  0  0  0
  3  5  1  0  0  0  0
  3  6  1  0  0  0  0
 38 41  1  0  0  0  0
 38 42  1  0  0  0  0
 38 43  1  0  0  0  0
 11 14  1  0  0  0  0
 11 15  1  0  0  0  0
 11 16  1  0  0  0  0
 45 47  1  0  0  0  0
 45 48  1  0  0  0  0
 45 49  1  0  0  0  0
 24 31  1  0  0  0  0
 24 32  1  0  0  0  0
 24 33  1  0  0  0  0
 21 27  1  0  0  0  0
 21 28  1  0  0  0  0
 22 29  1  0  0  0  0
 22 30  1  0  0  0  0
 35 40  1  0  0  0  0
  8 13  1  0  0  0  0
 18 26  1  0  0  0  0
 44 46  1  0  0  0  0
  7 12  1  0  0  0  0
 34 39  1  0  0  0  0
 17 25  1  0  0  0  0
M  END
$$$$

  -OEChem-05262214473D

 49 48  0     1  0  0  0  0  0999 V2000
   -0.0561   -5.3799    2.6949 C   0  0  0  0  0  0  0  0  0  0  0  0
    0.7325   -5.0736    3.5815 O   0  0  0  0  0  0  0  0  0  0  0  0
   -1.0067   -6.5099    2.9135 C   0  0  0  0  0  0  0  0  0  0  0  0
   -0.5910   -7.4777    2.5899 H   0  0  0  0  0  0  0  0  0  0  0  0
   -1.2629   -6.6440    3.9767 H   0  0  0  0  0  0  0  0  0  0  0  0
   -1.9729   -6.4206    2.3918 H   0  0  0  0  0  0  0  0  0  0  0  0
   -0.1735   -4.7694    1.4571 N   0  0  0  0  0  0  0  0  0  0  0  0
    0.6439   -3.6603    1.0409 C   0  0  2  0  0  0  0  0  0  0  0  0
   -0.2788   -2.5625    0.5280 C   0  0  0  0  0  0  0  0  0  0  0  0
   -1.4197   -2.7791    0.1251 O   0  0  0  0  0  0  0  0  0  0  0  0
    1.6395   -4.0779   -0.0301 C   0  0  0  0  0  0  0  0  0  0  0  0
   -0.8741   -5.1235    0.8083 H   0  0  0  0  0  0  0  0  0  0  0  0
    1.1738   -3.3062    1.9318 H   0  0  0  0  0  0  0  0  0  0  0  0
    1.1270   -4.4358   -0.9305 H   0  0  0  0  0  0  0  0  0  0  0  0
    2.2797   -3.2400   -0.3251 H   0  0  0  0  0  0  0  0  0  0  0  0
    2.2827   -4.8880    0.3303 H   0  0  0  0  0  0  0  0  0  0  0  0
    0.3351   -1.3153    0.5316 N   0  0  0  0  0  0  0  0  0  0  0  0
   -0.3268   -0.1184    0.0807 C   0  0  2  0  0  0  0  0  0  0  0  0
   -0.7149    0.7158    1.2977 C   0  0  0  0  0  0  0  0  0  0  0  0
   -1.2731    1.8075    1.2100 O   0  0  0  0  0  0  0  0  0  0  0  0
   -1.5198   -0.4265   -0.8345 C   0  0  0  0  0  0  0  0  0  0  0  0
   -1.1225   -1.0656   -2.1672 C   0  0  0  0  0  0  0  0  0  0  0  0
   -0.0423    0.0501   -3.1120 S   0  0  0  0  0  0  0  0  0  0  0  0
   -1.2623    1.3247   -3.5025 C   0  0  0  0  0  0  0  0  0  0  0  0
    1.2790   -1.2290    0.9021 H   0  0  0  0  0  0  0  0  0  0  0  0
    0.4244    0.4423   -0.4888 H   0  0  0  0  0  0  0  0  0  0  0  0
   -2.0589    0.5108   -1.0270 H   0  0  0  0  0  0  0  0  0  0  0  0
   -2.2145   -1.0912   -0.3051 H   0  0  0  0  0  0  0  0  0  0  0  0
   -2.0043   -1.2765   -2.7794 H   0  0  0  0  0  0  0  0  0  0  0  0
   -0.5841   -2.0047   -2.0089 H   0  0  0  0  0  0  0  0  0  0  0  0
   -0.7952    2.1187   -4.0902 H   0  0  0  0  0  0  0  0  0  0  0  0
   -1.6608    1.7522   -2.5791 H   0  0  0  0  0  0  0  0  0  0  0  0
   -2.0827    0.8893   -4.0781 H   0  0  0  0  0  0  0  0  0  0  0  0
   -0.3360    0.1140    2.4891 N   0  0  0  0  0  0  0  0  0  0  0  0
   -0.5823    0.7170    3.7780 C   0  0  2  0  0  0  0  0  0  0  0  0
    0.6331    0.4581    4.6584 C   0  0  0  0  0  0  0  0  0  0  0  0
    1.4232   -0.4619    4.4574 O   0  0  0  0  0  0  0  0  0  0  0  0
   -1.8450    0.1603    4.4171 C   0  0  0  0  0  0  0  0  0  0  0  0
    0.0971   -0.8046    2.4701 H   0  0  0  0  0  0  0  0  0  0  0  0
   -0.6882    1.7941    3.6082 H   0  0  0  0  0  0  0  0  0  0  0  0
   -1.7577   -0.9177    4.5948 H   0  0  0  0  0  0  0  0  0  0  0  0
   -2.0460    0.6391    5.3812 H   0  0  0  0  0  0  0  0  0  0  0  0
   -2.7133    0.3210    3.7689 H   0  0  0  0  0  0  0  0  0  0  0  0
    0.7077    1.3488    5.7202 N   0  0  0  0  0  0  0  0  0  0  0  0
    1.7635    1.3018    6.7045 C   0  0  0  0  0  0  0  0  0  0  0  0
    0.0196    2.0919    5.7982 H   0  0  0  0  0  0  0  0  0  0  0  0
    1.4445    0.6828    7.5560 H   0  0  0  0  0  0  0  0  0  0  0  0
    2.6668    0.8660    6.2526 H   0  0  0  0  0  0  0  0  0  0  0  0
    1.9839    2.3211    7.0545 H   0  0  0  0  0  0  0  0  0  0  0  0
  1  3  1  0  0  0  0
  1  7  1  0  0  0  0
  1  2  2  0  0  0  0
 35 36  1  0  0  0  0
 36 44  1  0  0  0  0
 36 37  2  0  0  0  0
  8  9  1  0  0  0  0
  9 17  1  0  0  0  0
  9 10  2  0  0  0  0
 18 19  1  0  0  0  0
 19 34  1  0  0  0  0
 19 20  2  0  0  0  0
 35 38  1  0  0  0  0
  8 11  1  0  0  0  0
 44 45  1  0  0  0  0
 23 24  1  0  0  0  0
 21 22  1  0  0  0  0
 18 21  1  0  0  0  0
 22 23  1  0  0  0  0
 34 35  1  0  0  0  0
  7  8  1  0  0  0  0
 17 18  1  0  0  0  0
  3  4  1  0  0  0  0
  3  5  1  0  0  0  0
  3  6  1  0  0  0  0
 38 41  1  0  0  0  0
 38 42  1  0  0  0  0
 38 43  1  0  0  0  0
 11 14  1  0  0  0  0
 11 15  1  0  0  0  0
 11 16  1  0  0  0  0
 45 47  1  0  0  0  0
 45 48  1  0  0  0  0
 45 49  1  0  0  0  0
 24 31  1  0  0  0  0
 24 32  1  0  0  0  0
 24 33  1  0  0  0  0
 21 27  1  0  0  0  0
 21 28  1  0  0  0  0
 22 29  1  0  0  0  0
 22 30  1  0  0  0  0
 35 40  1  0  0  0  0
  8 13  1  0  0  0  0
 18 26  1  0  0  0  0
 44 46  1  0  0  0  0
  7 12  1  0  0  0  0
 34 39  1  0  0  0  0
 17 25  1  0  0  0  0
M  END
$$$$

  -OEChem-05262214473D

 49 48  0     1  0  0  0  0  0999 V2000
   -0.0561   -5.3799    2.6949 C   0  0  0  0  0  0  0  0  0  0  0  0
    0.7325   -5.0736    3.5815 O   0  0  0  0  0  0  0  0  0  0  0  0
   -1.0067   -6.5099    2.9135 C   0  0  0  0  0  0  0  0  0  0  0  0
   -0.5910   -7.4777    2.5899 H   0  0  0  0  0  0  0  0  0  0  0  0
   -1.2629   -6.6440    3.9767 H   0  0  0  0  0  0  0  0  0  0  0  0
   -1.9729   -6.4206    2.3918 H   0  0  0  0  0  0  0  0  0  0  0  0
   -0.1735   -4.7694    1.4571 N   0  0  0  0  0  0  0  0  0  0  0  0
    0.6439   -3.6603    1.0409 C   0  0  2  0  0  0  0  0  0  0  0  0
   -0.2788   -2.5625    0.5280 C   0  0  0  0  0  0  0  0  0  0  0  0
   -1.4197   -2.7791    0.1251 O   0  0  0  0  0  0  0  0  0  0  0  0
    1.6395   -4.0779   -0.0301 C   0  0  0  0  0  0  0  0  0  0  0  0
   -0.8741   -5.1235    0.8083 H   0  0  0  0  0  0  0  0  0  0  0  0
    1.1738   -3.3062    1.9318 H   0  0  0  0  0  0  0  0  0  0  0  0
    1.1270   -4.4358   -0.9305 H   0  0  0  0  0  0  0  0  0  0  0  0
    2.2797   -3.2400   -0.3251 H   0  0  0  0  0  0  0  0  0  0  0  0
    2.2827   -4.8880    0.3303 H   0  0  0  0  0  0  0  0  0  0  0  0
    0.3351   -1.3153    0.5316 N   0  0  0  0  0  0  0  0  0  0  0  0
   -0.3268   -0.1184    0.0807 C   0  0  2  0  0  0  0  0  0  0  0  0
   -0.7149    0.7158    1.2977 C   0  0  0  0  0  0  0  0  0  0  0  0
   -1.4977    1.6617    1.2383 O   0  0  0  0  0  0  0  0  0  0  0  0
   -1.5198   -0.4265   -0.8345 C   0  0  0  0  0  0  0  0  0  0  0  0
   -1.1225   -1.0656   -2.1672 C   0  0  0  0  0  0  0  0  0  0  0  0
   -0.0423    0.0501   -3.1120 S   0  0  0  0  0  0  0  0  0  0  0  0
   -1.2623    1.3247   -3.5025 C   0  0  0  0  0  0  0  0  0  0  0  0
    1.2790   -1.2290    0.9021 H   0  0  0  0  0  0  0  0  0  0  0  0
    0.4244    0.4423   -0.4888 H   0  0  0  0  0  0  0  0  0  0  0  0
   -2.0589    0.5108   -1.0270 H   0  0  0  0  0  0  0  0  0  0  0  0
   -2.2145   -1.0912   -0.3051 H   0  0  0  0  0  0  0  0  0  0  0  0
   -2.0043   -1.2765   -2.7794 H   0  0  0  0  0  0  0  0  0  0  0  0
   -0.5841   -2.0047   -2.0089 H   0  0  0  0  0  0  0  0  0  0  0  0
   -0.7952    2.1187   -4.0902 H   0  0  0  0  0  0  0  0  0  0  0  0
   -1.6608    1.7522   -2.5791 H   0  0  0  0  0  0  0  0  0  0  0  0
   -2.0827    0.8893   -4.0781 H   0  0  0  0  0  0  0  0  0  0  0  0
   -0.0606    0.3010    2.4488 N   0  0  0  0  0  0  0  0  0  0  0  0
   -0.2530    0.9439    3.7275 C   0  0  2  0  0  0  0  0  0  0  0  0
    1.0969    1.0074    4.4299 C   0  0  0  0  0  0  0  0  0  0  0  0
    2.0291    0.2525    4.1609 O   0  0  0  0  0  0  0  0  0  0  0  0
   -1.2719    0.1974    4.5745 C   0  0  0  0  0  0  0  0  0  0  0  0
    0.5501   -0.5099    2.4125 H   0  0  0  0  0  0  0  0  0  0  0  0
   -0.6058    1.9601    3.5206 H   0  0  0  0  0  0  0  0  0  0  0  0
   -0.9357   -0.8230    4.7920 H   0  0  0  0  0  0  0  0  0  0  0  0
   -1.4378    0.7019    5.5320 H   0  0  0  0  0  0  0  0  0  0  0  0
   -2.2336    0.1268    4.0551 H   0  0  0  0  0  0  0  0  0  0  0  0
    1.1239    1.9775    5.4220 N   0  0  0  0  0  0  0  0  0  0  0  0
    2.2885    2.2241    6.2398 C   0  0  0  0  0  0  0  0  0  0  0  0
    0.3113    2.5704    5.5633 H   0  0  0  0  0  0  0  0  0  0  0  0
    2.2250    1.6242    7.1596 H   0  0  0  0  0  0  0  0  0  0  0  0
    3.1942    1.9444    5.6816 H   0  0  0  0  0  0  0  0  0  0  0  0
    2.3337    3.2917    6.5008 H   0  0  0  0  0  0  0  0  0  0  0  0
  1  3  1  0  0  0  0
  1  7  1  0  0  0  0
  1  2  2  0  0  0  0
 35 36  1  0  0  0  0
 36 44  1  0  0  0  0
 36 37  2  0  0  0  0
  8  9  1  0  0  0  0
  9 17  1  0  0  0  0
  9 10  2  0  0  0  0
 18 19  1  0  0  0  0
 19 34  1  0  0  0  0
 19 20  2  0  0  0  0
 35 38  1  0  0  0  0
  8 11  1  0  0  0  0
 44 45  1  0  0  0  0
 23 24  1  0  0  0  0
 21 22  1  0  0  0  0
 18 21  1  0  0  0  0
 22 23  1  0  0  0  0
 34 35  1  0  0  0  0
  7  8  1  0  0  0  0
 17 18  1  0  0  0  0
  3  4  1  0  0  0  0
  3  5  1  0  0  0  0
  3  6  1  0  0  0  0
 38 41  1  0  0  0  0
 38 42  1  0  0  0  0
 38 43  1  0  0  0  0
 11 14  1  0  0  0  0
 11 15  1  0  0  0  0
 11 16  1  0  0  0  0
 45 47  1  0  0  0  0
 45 48  1  0  0  0  0
 45 49  1  0  0  0  0
 24 31  1  0  0  0  0
 24 32  1  0  0  0  0
 24 33  1  0  0  0  0
 21 27  1  0  0  0  0
 21 28  1  0  0  0  0
 22 29  1  0  0  0  0
 22 30  1  0  0  0  0
 35 40  1  0  0  0  0
  8 13  1  0  0  0  0
 18 26  1  0  0  0  0
 44 46  1  0  0  0  0
  7 12  1  0  0  0  0
 34 39  1  0  0  0  0
 17 25  1  0  0  0  0
M  END
$$$$

  -OEChem-05262214473D

 49 48  0     1  0  0  0  0  0999 V2000
   -0.0561   -5.3799    2.6949 C   0  0  0  0  0  0  0  0  0  0  0  0
    0.7325   -5.0736    3.5815 O   0  0  0  0  0  0  0  0  0  0  0  0
   -1.0067   -6.5099    2.9135 C   0  0  0  0  0  0  0  0  0  0  0  0
   -0.5910   -7.4777    2.5899 H   0  0  0  0  0  0  0  0  0  0  0  0
   -1.2629   -6.6440    3.9767 H   0  0  0  0  0  0  0  0  0  0  0  0
   -1.9729   -6.4206    2.3918 H   0  0  0  0  0  0  0  0  0  0  0  0
   -0.1735   -4.7694    1.4571 N   0  0  0  0  0  0  0  0  0  0  0  0
    0.6439   -3.6603    1.0409 C   0  0  2  0  0  0  0  0  0  0  0  0
   -0.2788   -2.5625    0.5280 C   0  0  0  0  0  0  0  0  0  0  0  0
   -1.4197   -2.7791    0.1251 O   0  0  0  0  0  0  0  0  0  0  0  0
    1.6395   -4.0779   -0.0301 C   0  0  0  0  0  0  0  0  0  0  0  0
   -0.8741   -5.1235    0.8083 H   0  0  0  0  0  0  0  0  0  0  0  0
    1.1738   -3.3062    1.9318 H   0  0  0  0  0  0  0  0  0  0  0  0
    1.1270   -4.4358   -0.9305 H   0  0  0  0  0  0  0  0  0  0  0  0
    2.2797   -3.2400   -0.3251 H   0  0  0  0  0  0  0  0  0  0  0  0
    2.2827   -4.8880    0.3303 H   0  0  0  0  0  0  0  0  0  0  0  0
    0.3351   -1.3153    0.5316 N   0  0  0  0  0  0  0  0  0  0  0  0
   -0.3268   -0.1184    0.0807 C   0  0  2  0  0  0  0  0  0  0  0  0
   -0.7149    0.7158    1.2977 C   0  0  0  0  0  0  0  0  0  0  0  0
   -1.6806    1.4764    1.3070 O   0  0  0  0  0  0  0  0  0  0  0  0
   -1.5198   -0.4265   -0.8345 C   0  0  0  0  0  0  0  0  0  0  0  0
   -1.1225   -1.0656   -2.1672 C   0  0  0  0  0  0  0  0  0  0  0  0
   -0.0423    0.0501   -3.1120 S   0  0  0  0  0  0  0  0  0  0  0  0
   -1.2623    1.3247   -3.5025 C   0  0  0  0  0  0  0  0  0  0  0  0
    1.2790   -1.2290    0.9021 H   0  0  0  0  0  0  0  0  0  0  0  0
    0.4244    0.4423   -0.4888 H   0  0  0  0  0  0  0  0  0  0  0  0
   -2.0589    0.5108   -1.0270 H   0  0  0  0  0  0  0  0  0  0  0  0
   -2.2145   -1.0912   -0.3051 H   0  0  0  0  0  0  0  0  0  0  0  0
   -2.0043   -1.2765   -2.7794 H   0  0  0  0  0  0  0  0  0  0  0  0
   -0.5841   -2.0047   -2.0089 H   0  0  0  0  0  0  0  0  0  0  0  0
   -0.7952    2.1187   -4.0902 H   0  0  0  0  0  0  0  0  0  0  0  0
   -1.6608    1.7522   -2.5791 H   0  0  0  0  0  0  0  0  0  0  0  0
   -2.0827    0.8893   -4.0781 H   0  0  0  0  0  0  0  0  0  0  0  0
    0.1611    0.5357    2.3586 N   0  0  0  0  0  0  0  0  0  0  0  0
    0.0111    1.2277    3.6172 C   0  0  2  0  0  0  0  0  0  0  0  0
    1.3991    1.6186    4.1073 C   0  0  0  0  0  0  0  0  0  0  0  0
    2.4248    1.0482    3.7418 O   0  0  0  0  0  0  0  0  0  0  0  0
   -0.7036    0.3618    4.6430 C   0  0  0  0  0  0  0  0  0  0  0  0
    0.9186   -0.1354    2.2734 H   0  0  0  0  0  0  0  0  0  0  0  0
   -0.5729    2.1318    3.4135 H   0  0  0  0  0  0  0  0  0  0  0  0
   -0.1333   -0.5488    4.8600 H   0  0  0  0  0  0  0  0  0  0  0  0
   -0.8419    0.8981    5.5876 H   0  0  0  0  0  0  0  0  0  0  0  0
   -1.6897    0.0570    4.2763 H   0  0  0  0  0  0  0  0  0  0  0  0
    1.3539    2.6511    5.0336 N   0  0  0  0  0  0  0  0  0  0  0  0
    2.5394    3.1927    5.6559 C   0  0  0  0  0  0  0  0  0  0  0  0
    0.4611    3.0773    5.2636 H   0  0  0  0  0  0  0  0  0  0  0  0
    2.7284    2.6686    6.6043 H   0  0  0  0  0  0  0  0  0  0  0  0
    3.4002    3.0574    4.9845 H   0  0  0  0  0  0  0  0  0  0  0  0
    2.3928    4.2650    5.8525 H   0  0  0  0  0  0  0  0  0  0  0  0
  1  3  1  0  0  0  0
  1  7  1  0  0  0  0
  1  2  2  0  0  0  0
 35 36  1  0  0  0  0
 36 44  1  0  0  0  0
 36 37  2  0  0  0  0
  8  9  1  0  0  0  0
  9 17  1  0  0  0  0
  9 10  2  0  0  0  0
 18 19  1  0  0  0  0
 19 34  1  0  0  0  0
 19 20  2  0  0  0  0
 35 38  1  0  0  0  0
  8 11  1  0  0  0  0
 44 45  1  0  0  0  0
 23 24  1  0  0  0  0
 21 22  1  0  0  0  0
 18 21  1  0  0  0  0
 22 23  1  0  0  0  0
 34 35  1  0  0  0  0
  7  8  1  0  0  0  0
 17 18  1  0  0  0  0
  3  4  1  0  0  0  0
  3  5  1  0  0  0  0
  3  6  1  0  0  0  0
 38 41  1  0  0  0  0
 38 42  1  0  0  0  0
 38 43  1  0  0  0  0
 11 14  1  0  0  0  0
 11 15  1  0  0  0  0
 11 16  1  0  0  0  0
 45 47  1  0  0  0  0
 45 48  1  0  0  0  0
 45 49  1  0  0  0  0
 24 31  1  0  0  0  0
 24 32  1  0  0  0  0
 24 33  1  0  0  0  0
 21 27  1  0  0  0  0
 21 28  1  0  0  0  0
 22 29  1  0  0  0  0
 22 30  1  0  0  0  0
 35 40  1  0  0  0  0
  8 13  1  0  0  0  0
 18 26  1  0  0  0  0
 44 46  1  0  0  0  0
  7 12  1  0  0  0  0
 34 39  1  0  0  0  0
 17 25  1  0  0  0  0
M  END
$$$$

  -OEChem-05262214473D

 49 48  0     1  0  0  0  0  0999 V2000
   -0.0561   -5.3799    2.6949 C   0  0  0  0  0  0  0  0  0  0  0  0
    0.7325   -5.0736    3.5815 O   0  0  0  0  0  0  0  0  0  0  0  0
   -1.0067   -6.5099    2.9135 C   0  0  0  0  0  0  0  0  0  0  0  0
   -0.5910   -7.4777    2.5899 H   0  0  0  0  0  0  0  0  0  0  0  0
   -1.2629   -6.6440    3.9767 H   0  0  0  0  0  0  0  0  0  0  0  0
   -1.9729   -6.4206    2.3918 H   0  0  0  0  0  0  0  0  0  0  0  0
   -0.1735   -4.7694    1.4571 N   0  0  0  0  0  0  0  0  0  0  0  0
    0.6439   -3.6603    1.0409 C   0  0  2  0  0  0  0  0  0  0  0  0
   -0.2788   -2.5625    0.5280 C   0  0  0  0  0  0  0  0  0  0  0  0
   -1.4197   -2.7791    0.1251 O   0  0  0  0  0  0  0  0  0  0  0  0
    1.6395   -4.0779   -0.0301 C   0  0  0  0  0  0  0  0  0  0  0  0
   -0.8741   -5.1235    0.8083 H   0  0  0  0  0  0  0  0  0  0  0  0
    1.1738   -3.3062    1.9318 H   0  0  0  0  0  0  0  0  0  0  0  0
    1.1270   -4.4358   -0.9305 H   0  0  0  0  0  0  0  0  0  0  0  0
    2.2797   -3.2400   -0.3251 H   0  0  0  0  0  0  0  0  0  0  0  0
    2.2827   -4.8880    0.3303 H   0  0  0  0  0  0  0  0  0  0  0  0
    0.3351   -1.3153    0.5316 N   0  0  0  0  0  0  0  0  0  0  0  0
   -0.3268   -0.1184    0.0807 C   0  0  2  0  0  0  0  0  0  0  0  0
   -0.7149    0.7158    1.2977 C   0  0  0  0  0  0  0  0  0  0  0  0
   -1.8092    1.2642    1.4115 O   0  0  0  0  0  0  0  0  0  0  0  0
   -1.5198   -0.4265   -0.8345 C   0  0  0  0  0  0  0  0  0  0  0  0
   -1.1225   -1.0656   -2.1672 C   0  0  0  0  0  0  0  0  0  0  0  0
   -0.0423    0.0501   -3.1120 S   0  0  0  0  0  0  0  0  0  0  0  0
   -1.2623    1.3247   -3.5025 C   0  0  0  0  0  0  0  0  0  0  0  0
    1.2790   -1.2290    0.9021 H   0  0  0  0  0  0  0  0  0  0  0  0
    0.4244    0.4423   -0.4888 H   0  0  0  0  0  0  0  0  0  0  0  0
   -2.0589    0.5108   -1.0270 H   0  0  0  0  0  0  0  0  0  0  0  0
   -2.2145   -1.0912   -0.3051 H   0  0  0  0  0  0  0  0  0  0  0  0
   -2.0043   -1.2765   -2.7794 H   0  0  0  0  0  0  0  0  0  0  0  0
   -0.5841   -2.0047   -2.0089 H   0  0  0  0  0  0  0  0  0  0  0  0
   -0.7952    2.1187   -4.0902 H   0  0  0  0  0  0  0  0  0  0  0  0
   -1.6608    1.7522   -2.5791 H   0  0  0  0  0  0  0  0  0  0  0  0
   -2.0827    0.8893   -4.0781 H   0  0  0  0  0  0  0  0  0  0  0  0
    0.3140    0.8024    2.2246 N   0  0  0  0  0  0  0  0  0  0  0  0
    0.1921    1.5491    3.4546 C   0  0  2  0  0  0  0  0  0  0  0  0
    1.5192    2.2502    3.7127 C   0  0  0  0  0  0  0  0  0  0  0  0
    2.5835    1.8708    3.2286 O   0  0  0  0  0  0  0  0  0  0  0  0
   -0.1789    0.6425    4.6179 C   0  0  0  0  0  0  0  0  0  0  0  0
    1.1777    0.2932    2.0623 H   0  0  0  0  0  0  0  0  0  0  0  0
   -0.5918    2.2973    3.2940 H   0  0  0  0  0  0  0  0  0  0  0  0
    0.5947   -0.1138    4.7940 H   0  0  0  0  0  0  0  0  0  0  0  0
   -0.2989    1.2143    5.5440 H   0  0  0  0  0  0  0  0  0  0  0  0
   -1.1186    0.1164    4.4177 H   0  0  0  0  0  0  0  0  0  0  0  0
    1.3821    3.3237    4.5816 N   0  0  0  0  0  0  0  0  0  0  0  0
    2.4992    4.1417    4.9926 C   0  0  0  0  0  0  0  0  0  0  0  0
    0.4586    3.5782    4.9195 H   0  0  0  0  0  0  0  0  0  0  0  0
    2.9205    3.7448    5.9279 H   0  0  0  0  0  0  0  0  0  0  0  0
    3.2707    4.1291    4.2086 H   0  0  0  0  0  0  0  0  0  0  0  0
    2.1572    5.1747    5.1539 H   0  0  0  0  0  0  0  0  0  0  0  0
  1  3  1  0  0  0  0
  1  7  1  0  0  0  0
  1  2  2  0  0  0  0
 35 36  1  0  0  0  0
 36 44  1  0  0  0  0
 36 37  2  0  0  0  0
  8  9  1  0  0  0  0
  9 17  1  0  0  0  0
  9 10  2  0  0  0  0
 18 19  1  0  0  0  0
 19 34  1  0  0  0  0
 19 20  2  0  0  0  0
 35 38  1  0  0  0  0
  8 11  1  0  0  0  0
 44 45  1  0  0  0  0
 23 24  1  0  0  0  0
 21 22  1  0  0  0  0
 18 21  1  0  0  0  0
 22 23  1  0  0  0  0
 34 35  1  0  0  0  0
  7  8  1  0  0  0  0
 17 18  1  0  0  0  0
  3  4  1  0  0  0  0
  3  5  1  0  0  0  0
  3  6  1  0  0  0  0
 38 41  1  0  0  0  0
 38 42  1  0  0  0  0
 38 43  1  0  0  0  0
 11 14  1  0  0  0  0
 11 15  1  0  0  0  0
 11 16  1  0  0  0  0
 45 47  1  0  0  0  0
 45 48  1  0  0  0  0
 45 49  1  0  0  0  0
 24 31  1  0  0  0  0
 24 32  1  0  0  0  0
 24 33  1  0  0  0  0
 21 27  1  0  0  0  0
 21 28  1  0  0  0  0
 22 29  1  0  0  0  0
 22 30  1  0  0  0  0
 35 40  1  0  0  0  0
  8 13  1  0  0  0  0
 18 26  1  0  0  0  0
 44 46  1  0  0  0  0
  7 12  1  0  0  0  0
 34 39  1  0  0  0  0
 17 25  1  0  0  0  0
M  END
$$$$

  -OEChem-05262214473D

 49 48  0     1  0  0  0  0  0999 V2000
   -0.0561   -5.3799    2.6949 C   0  0  0  0  0  0  0  0  0  0  0  0
    0.7325   -5.0736    3.5815 O   0  0  0  0  0  0  0  0  0  0  0  0
   -1.0067   -6.5099    2.9135 C   0  0  0  0  0  0  0  0  0  0  0  0
   -0.5910   -7.4777    2.5899 H   0  0  0  0  0  0  0  0  0  0  0  0
   -1.2629   -6.6440    3.9767 H   0  0  0  0  0  0  0  0  0  0  0  0
   -1.9729   -6.4206    2.3918 H   0  0  0  0  0  0  0  0  0  0  0  0
   -0.1735   -4.7694    1.4571 N   0  0  0  0  0  0  0  0  0  0  0  0
    0.6439   -3.6603    1.0409 C   0  0  2  0  0  0  0  0  0  0  0  0
   -0.2788   -2.5625    0.5280 C   0  0  0  0  0  0  0  0  0  0  0  0
   -1.4197   -2.7791    0.1251 O   0  0  0  0  0  0  0  0  0  0  0  0
    1.6395   -4.0779   -0.0301 C   0  0  0  0  0  0  0  0  0  0  0  0
   -0.8741   -5.1235    0.8083 H   0  0  0  0  0  0  0  0  0  0  0  0
    1.1738   -3.3062    1.9318 H   0  0  0  0  0  0  0  0  0  0  0  0
    1.1270   -4.4358   -0.9305 H   0  0  0  0  0  0  0  0  0  0  0  0
    2.2797   -3.2400   -0.3251 H   0  0  0  0  0  0  0  0  0  0  0  0
    2.2827   -4.8880    0.3303 H   0  0  0  0  0  0  0  0  0  0  0  0
    0.3351   -1.3153    0.5316 N   0  0  0  0  0  0  0  0  0  0  0  0
   -0.3268   -0.1184    0.0807 C   0  0  2  0  0  0  0  0  0  0  0  0
   -0.7149    0.7158    1.2977 C   0  0  0  0  0  0  0  0  0  0  0  0
   -1.8749    1.0395    1.5445 O   0  0  0  0  0  0  0  0  0  0  0  0
   -1.5198   -0.4265   -0.8345 C   0  0  0  0  0  0  0  0  0  0  0  0
   -1.1225   -1.0656   -2.1672 C   0  0  0  0  0  0  0  0  0  0  0  0
   -0.0423    0.0501   -3.1120 S   0  0  0  0  0  0  0  0  0  0  0  0
   -1.2623    1.3247   -3.5025 C   0  0  0  0  0  0  0  0  0  0  0  0
    1.2790   -1.2290    0.9021 H   0  0  0  0  0  0  0  0  0  0  0  0
    0.4244    0.4423   -0.4888 H   0  0  0  0  0  0  0  0  0  0  0  0
   -2.0589    0.5108   -1.0270 H   0  0  0  0  0  0  0  0  0  0  0  0
   -2.2145   -1.0912   -0.3051 H   0  0  0  0  0  0  0  0  0  0  0  0
   -2.0043   -1.2765   -2.7794 H   0  0  0  0  0  0  0  0  0  0  0  0
   -0.5841   -2.0047   -2.0089 H   0  0  0  0  0  0  0  0  0  0  0  0
   -0.7952    2.1187   -4.0902 H   0  0  0  0  0  0  0  0  0  0  0  0
   -1.6608    1.7522   -2.5791 H   0  0  0  0  0  0  0  0  0  0  0  0
   -2.0827    0.8893   -4.0781 H   0  0  0  0  0  0  0  0  0  0  0  0
    0.3876    1.0826    2.0560 N   0  0  0  0  0  0  0  0  0  0  0  0
    0.2775    1.8862    3.2508 C   0  0  2  0  0  0  0  0  0  0  0  0
    1.4490    2.8591    3.2729 C   0  0  0  0  0  0  0  0  0  0  0  0
    2.4943    2.6644    2.6562 O   0  0  0  0  0  0  0  0  0  0  0  0
    0.2663    1.0203    4.5009 C   0  0  0  0  0  0  0  0  0  0  0  0
    1.3095    0.7467    1.7934 H   0  0  0  0  0  0  0  0  0  0  0  0
   -0.6610    2.4455    3.1704 H   0  0  0  0  0  0  0  0  0  0  0  0
    1.1987    0.4523    4.5985 H   0  0  0  0  0  0  0  0  0  0  0  0
    0.1540    1.6290    5.4042 H   0  0  0  0  0  0  0  0  0  0  0  0
   -0.5592    0.3011    4.4695 H   0  0  0  0  0  0  0  0  0  0  0  0
    1.2064    3.9494    4.0967 N   0  0  0  0  0  0  0  0  0  0  0  0
    2.1705    5.0064    4.2951 C   0  0  0  0  0  0  0  0  0  0  0  0
    0.3041    4.0388    4.5546 H   0  0  0  0  0  0  0  0  0  0  0  0
    2.7881    4.7794    5.1766 H   0  0  0  0  0  0  0  0  0  0  0  0
    2.8146    5.0864    3.4070 H   0  0  0  0  0  0  0  0  0  0  0  0
    1.6430    5.9588    4.4525 H   0  0  0  0  0  0  0  0  0  0  0  0
  1  3  1  0  0  0  0
  1  7  1  0  0  0  0
  1  2  2  0  0  0  0
 35 36  1  0  0  0  0
 36 44  1  0  0  0  0
 36 37  2  0  0  0  0
  8  9  1  0  0  0  0
  9 17  1  0  0  0  0
  9 10  2  0  0  0  0
 18 19  1  0  0  0  0
 19 34  1  0  0  0  0
 19 20  2  0  0  0  0
 35 38  1  0  0  0  0
  8 11  1  0  0  0  0
 44 45  1  0  0  0  0
 23 24  1  0  0  0  0
 21 22  1  0  0  0  0
 18 21  1  0  0  0  0
 22 23  1  0  0  0  0
 34 35  1  0  0  0  0
  7  8  1  0  0  0  0
 17 18  1  0  0  0  0
  3  4  1  0  0  0  0
  3  5  1  0  0  0  0
  3  6  1  0  0  0  0
 38 41  1  0  0  0  0
 38 42  1  0  0  0  0
 38 43  1  0  0  0  0
 11 14  1  0  0  0  0
 11 15  1  0  0  0  0
 11 16  1  0  0  0  0
 45 47  1  0  0  0  0
 45 48  1  0  0  0  0
 45 49  1  0  0  0  0
 24 31  1  0  0  0  0
 24 32  1  0  0  0  0
 24 33  1  0  0  0  0
 21 27  1  0  0  0  0
 21 28  1  0  0  0  0
 22 29  1  0  0  0  0
 22 30  1  0  0  0  0
 35 40  1  0  0  0  0
  8 13  1  0  0  0  0
 18 26  1  0  0  0  0
 44 46  1  0  0  0  0
  7 12  1  0  0  0  0
 34 39  1  0  0  0  0
 17 25  1  0  0  0  0
M  END
$$$$

  -OEChem-05262214473D

 49 48  0     1  0  0  0  0  0999 V2000
   -0.0561   -5.3799    2.6949 C   0  0  0  0  0  0  0  0  0  0  0  0
    0.7325   -5.0736    3.5815 O   0  0  0  0  0  0  0  0  0  0  0  0
   -1.0067   -6.5099    2.9135 C   0  0  0  0  0  0  0  0  0  0  0  0
   -0.5910   -7.4777    2.5899 H   0  0  0  0  0  0  0  0  0  0  0  0
   -1.2629   -6.6440    3.9767 H   0  0  0  0  0  0  0  0  0  0  0  0
   -1.9729   -6.4206    2.3918 H   0  0  0  0  0  0  0  0  0  0  0  0
   -0.1735   -4.7694    1.4571 N   0  0  0  0  0  0  0  0  0  0  0  0
    0.6439   -3.6603    1.0409 C   0  0  2  0  0  0  0  0  0  0  0  0
   -0.2788   -2.5625    0.5280 C   0  0  0  0  0  0  0  0  0  0  0  0
   -1.4197   -2.7791    0.1251 O   0  0  0  0  0  0  0  0  0  0  0  0
    1.6395   -4.0779   -0.0301 C   0  0  0  0  0  0  0  0  0  0  0  0
   -0.8741   -5.1235    0.8083 H   0  0  0  0  0  0  0  0  0  0  0  0
    1.1738   -3.3062    1.9318 H   0  0  0  0  0  0  0  0  0  0  0  0
    1.1270   -4.4358   -0.9305 H   0  0  0  0  0  0  0  0  0  0  0  0
    2.2797   -3.2400   -0.3251 H   0  0  0  0  0  0  0  0  0  0  0  0
    2.2827   -4.8880    0.3303 H   0  0  0  0  0  0  0  0  0  0  0  0
    0.3351   -1.3153    0.5316 N   0  0  0  0  0  0  0  0  0  0  0  0
   -0.3268   -0.1184    0.0807 C   0  0  2  0  0  0  0  0  0  0  0  0
   -0.7149    0.7158    1.2977 C   0  0  0  0  0  0  0  0  0  0  0  0
   -1.8731    0.8177    1.6971 O   0  0  0  0  0  0  0  0  0  0  0  0
   -1.5198   -0.4265   -0.8345 C   0  0  0  0  0  0  0  0  0  0  0  0
   -1.1225   -1.0656   -2.1672 C   0  0  0  0  0  0  0  0  0  0  0  0
   -0.0423    0.0501   -3.1120 S   0  0  0  0  0  0  0  0  0  0  0  0
   -1.2623    1.3247   -3.5025 C   0  0  0  0  0  0  0  0  0  0  0  0
    1.2790   -1.2290    0.9021 H   0  0  0  0  0  0  0  0  0  0  0  0
    0.4244    0.4423   -0.4888 H   0  0  0  0  0  0  0  0  0  0  0  0
   -2.0589    0.5108   -1.0270 H   0  0  0  0  0  0  0  0  0  0  0  0
   -2.2145   -1.0912   -0.3051 H   0  0  0  0  0  0  0  0  0  0  0  0
   -2.0043   -1.2765   -2.7794 H   0  0  0  0  0  0  0  0  0  0  0  0
   -0.5841   -2.0047   -2.0089 H   0  0  0  0  0  0  0  0  0  0  0  0
   -0.7952    2.1187   -4.0902 H   0  0  0  0  0  0  0  0  0  0  0  0
   -1.6608    1.7522   -2.5791 H   0  0  0  0  0  0  0  0  0  0  0  0
   -2.0827    0.8893   -4.0781 H   0  0  0  0  0  0  0  0  0  0  0  0
    0.3771    1.3575    1.8642 N   0  0  0  0  0  0  0  0  0  0  0  0
    0.2615    2.2160    3.0196 C   0  0  2  0  0  0  0  0  0  0  0  0
    1.1932    3.4038    2.8180 C   0  0  0  0  0  0  0  0  0  0  0  0
    2.1633    3.3749    2.0637 O   0  0  0  0  0  0  0  0  0  0  0  0
    0.6019    1.4695    4.3001 C   0  0  0  0  0  0  0  0  0  0  0  0
    1.3052    1.1944    1.4852 H   0  0  0  0  0  0  0  0  0  0  0  0
   -0.7760    2.5662    3.0510 H   0  0  0  0  0  0  0  0  0  0  0  0
    1.6376    1.1110    4.2870 H   0  0  0  0  0  0  0  0  0  0  0  0
    0.4862    2.1138    5.1778 H   0  0  0  0  0  0  0  0  0  0  0  0
   -0.0497    0.5984    4.4282 H   0  0  0  0  0  0  0  0  0  0  0  0
    0.8390    4.4856    3.6121 N   0  0  0  0  0  0  0  0  0  0  0  0
    1.5757    5.7278    3.6110 C   0  0  0  0  0  0  0  0  0  0  0  0
    0.0082    4.4278    4.1936 H   0  0  0  0  0  0  0  0  0  0  0  0
    2.3403    5.7020    4.4015 H   0  0  0  0  0  0  0  0  0  0  0  0
    2.0629    5.8642    2.6342 H   0  0  0  0  0  0  0  0  0  0  0  0
    0.8851    6.5637    3.7962 H   0  0  0  0  0  0  0  0  0  0  0  0
  1  3  1  0  0  0  0
  1  7  1  0  0  0  0
  1  2  2  0  0  0  0
 35 36  1  0  0  0  0
 36 44  1  0  0  0  0
 36 37  2  0  0  0  0
  8  9  1  0  0  0  0
  9 17  1  0  0  0  0
  9 10  2  0  0  0  0
 18 19  1  0  0  0  0
 19 34  1  0  0  0  0
 19 20  2  0  0  0  0
 35 38  1  0  0  0  0
  8 11  1  0  0  0  0
 44 45  1  0  0  0  0
 23 24  1  0  0  0  0
 21 22  1  0  0  0  0
 18 21  1  0  0  0  0
 22 23  1  0  0  0  0
 34 35  1  0  0  0  0
  7  8  1  0  0  0  0
 17 18  1  0  0  0  0
  3  4  1  0  0  0  0
  3  5  1  0  0  0  0
  3  6  1  0  0  0  0
 38 41  1  0  0  0  0
 38 42  1  0  0  0  0
 38 43  1  0  0  0  0
 11 14  1  0  0  0  0
 11 15  1  0  0  0  0
 11 16  1  0  0  0  0
 45 47  1  0  0  0  0
 45 48  1  0  0  0  0
 45 49  1  0  0  0  0
 24 31  1  0  0  0  0
 24 32  1  0  0  0  0
 24 33  1  0  0  0  0
 21 27  1  0  0  0  0
 21 28  1  0  0  0  0
 22 29  1  0  0  0  0
 22 30  1  0  0  0  0
 35 40  1  0  0  0  0
  8 13  1  0  0  0  0
 18 26  1  0  0  0  0
 44 46  1  0  0  0  0
  7 12  1  0  0  0  0
 34 39  1  0  0  0  0
 17 25  1  0  0  0  0
M  END
$$$$

  -OEChem-05262214473D

 49 48  0     1  0  0  0  0  0999 V2000
   -0.0561   -5.3799    2.6949 C   0  0  0  0  0  0  0  0  0  0  0  0
    0.7325   -5.0736    3.5815 O   0  0  0  0  0  0  0  0  0  0  0  0
   -1.0067   -6.5099    2.9135 C   0  0  0  0  0  0  0  0  0  0  0  0
   -0.5910   -7.4777    2.5899 H   0  0  0  0  0  0  0  0  0  0  0  0
   -1.2629   -6.6440    3.9767 H   0  0  0  0  0  0  0  0  0  0  0  0
   -1.9729   -6.4206    2.3918 H   0  0  0  0  0  0  0  0  0  0  0  0
   -0.1735   -4.7694    1.4571 N   0  0  0  0  0  0  0  0  0  0  0  0
    0.6439   -3.6603    1.0409 C   0  0  2  0  0  0  0  0  0  0  0  0
   -0.2788   -2.5625    0.5280 C   0  0  0  0  0  0  0  0  0  0  0  0
   -1.4197   -2.7791    0.1251 O   0  0  0  0  0  0  0  0  0  0  0  0
    1.6395   -4.0779   -0.0301 C   0  0  0  0  0  0  0  0  0  0  0  0
   -0.8741   -5.1235    0.8083 H   0  0  0  0  0  0  0  0  0  0  0  0
    1.1738   -3.3062    1.9318 H   0  0  0  0  0  0  0  0  0  0  0  0
    1.1270   -4.4358   -0.9305 H   0  0  0  0  0  0  0  0  0  0  0  0
    2.2797   -3.2400   -0.3251 H   0  0  0  0  0  0  0  0  0  0  0  0
    2.2827   -4.8880    0.3303 H   0  0  0  0  0  0  0  0  0  0  0  0
    0.3351   -1.3153    0.5316 N   0  0  0  0  0  0  0  0  0  0  0  0
   -0.3268   -0.1184    0.0807 C   0  0  2  0  0  0  0  0  0  0  0  0
   -0.7149    0.7158    1.2977 C   0  0  0  0  0  0  0  0  0  0  0  0
   -1.8039    0.6139    1.8589 O   0  0  0  0  0  0  0  0  0  0  0  0
   -1.5198   -0.4265   -0.8345 C   0  0  0  0  0  0  0  0  0  0  0  0
   -1.1225   -1.0656   -2.1672 C   0  0  0  0  0  0  0  0  0  0  0  0
   -0.0423    0.0501   -3.1120 S   0  0  0  0  0  0  0  0  0  0  0  0
   -1.2623    1.3247   -3.5025 C   0  0  0  0  0  0  0  0  0  0  0  0
    1.2790   -1.2290    0.9021 H   0  0  0  0  0  0  0  0  0  0  0  0
    0.4244    0.4423   -0.4888 H   0  0  0  0  0  0  0  0  0  0  0  0
   -2.0589    0.5108   -1.0270 H   0  0  0  0  0  0  0  0  0  0  0  0
   -2.2145   -1.0912   -0.3051 H   0  0  0  0  0  0  0  0  0  0  0  0
   -2.0043   -1.2765   -2.7794 H   0  0  0  0  0  0  0  0  0  0  0  0
   -0.5841   -2.0047   -2.0089 H   0  0  0  0  0  0  0  0  0  0  0  0
   -0.7952    2.1187   -4.0902 H   0  0  0  0  0  0  0  0  0  0  0  0
   -1.6608    1.7522   -2.5791 H   0  0  0  0  0  0  0  0  0  0  0  0
   -2.0827    0.8893   -4.0781 H   0  0  0  0  0  0  0  0  0  0  0  0
    0.2830    1.6081    1.6624 N   0  0  0  0  0  0  0  0  0  0  0  0
    0.1453    2.5161    2.7769 C   0  0  2  0  0  0  0  0  0  0  0  0
    0.7693    3.8472    2.3789 C   0  0  0  0  0  0  0  0  0  0  0  0
    1.6131    3.9538    1.4914 O   0  0  0  0  0  0  0  0  0  0  0  0
    0.8048    1.9594    4.0290 C   0  0  0  0  0  0  0  0  0  0  0  0
    1.1650    1.6056    1.1587 H   0  0  0  0  0  0  0  0  0  0  0  0
   -0.9289    2.6511    2.9440 H   0  0  0  0  0  0  0  0  0  0  0  0
    1.8815    1.8174    3.8807 H   0  0  0  0  0  0  0  0  0  0  0  0
    0.6749    2.6358    4.8802 H   0  0  0  0  0  0  0  0  0  0  0  0
    0.3753    0.9880    4.2967 H   0  0  0  0  0  0  0  0  0  0  0  0
    0.3048    4.8958    3.1606 N   0  0  0  0  0  0  0  0  0  0  0  0
    0.7555    6.2569    2.9869 C   0  0  0  0  0  0  0  0  0  0  0  0
   -0.4091    4.7187    3.8611 H   0  0  0  0  0  0  0  0  0  0  0  0
    1.6075    6.4497    3.6554 H   0  0  0  0  0  0  0  0  0  0  0  0
    1.0669    6.4095    1.9429 H   0  0  0  0  0  0  0  0  0  0  0  0
   -0.0647    6.9484    3.2297 H   0  0  0  0  0  0  0  0  0  0  0  0
  1  3  1  0  0  0  0
  1  7  1  0  0  0  0
  1  2  2  0  0  0  0
 35 36  1  0  0  0  0
 36 44  1  0  0  0  0
 36 37  2  0  0  0  0
  8  9  1  0  0  0  0
  9 17  1  0  0  0  0
  9 10  2  0  0  0  0
 18 19  1  0  0  0  0
 19 34  1  0  0  0  0
 19 20  2  0  0  0  0
 35 38  1  0  0  0  0
  8 11  1  0  0  0  0
 44 45  1  0  0  0  0
 23 24  1  0  0  0  0
 21 22  1  0  0  0  0
 18 21  1  0  0  0  0
 22 23  1  0  0  0  0
 34 35  1  0  0  0  0
  7  8  1  0  0  0  0
 17 18  1  0  0  0  0
  3  4  1  0  0  0  0
  3  5  1  0  0  0  0
  3  6  1  0  0  0  0
 38 41  1  0  0  0  0
 38 42  1  0  0  0  0
 38 43  1  0  0  0  0
 11 14  1  0  0  0  0
 11 15  1  0  0  0  0
 11 16  1  0  0  0  0
 45 47  1  0  0  0  0
 45 48  1  0  0  0  0
 45 49  1  0  0  0  0
 24 31  1  0  0  0  0
 24 32  1  0  0  0  0
 24 33  1  0  0  0  0
 21 27  1  0  0  0  0
 21 28  1  0  0  0  0
 22 29  1  0  0  0  0
 22 30  1  0  0  0  0
 35 40  1  0  0  0  0
  8 13  1  0  0  0  0
 18 26  1  0  0  0  0
 44 46  1  0  0  0  0
  7 12  1  0  0  0  0
 34 39  1  0  0  0  0
 17 25  1  0  0  0  0
M  END
$$$$

  -OEChem-05262214473D

 49 48  0     1  0  0  0  0  0999 V2000
   -0.0561   -5.3799    2.6949 C   0  0  0  0  0  0  0  0  0  0  0  0
    0.7325   -5.0736    3.5815 O   0  0  0  0  0  0  0  0  0  0  0  0
   -1.0067   -6.5099    2.9135 C   0  0  0  0  0  0  0  0  0  0  0  0
   -0.5910   -7.4777    2.5899 H   0  0  0  0  0  0  0  0  0  0  0  0
   -1.2629   -6.6440    3.9767 H   0  0  0  0  0  0  0  0  0  0  0  0
   -1.9729   -6.4206    2.3918 H   0  0  0  0  0  0  0  0  0  0  0  0
   -0.1735   -4.7694    1.4571 N   0  0  0  0  0  0  0  0  0  0  0  0
    0.6439   -3.6603    1.0409 C   0  0  2  0  0  0  0  0  0  0  0  0
   -0.2788   -2.5625    0.5280 C   0  0  0  0  0  0  0  0  0  0  0  0
   -1.4197   -2.7791    0.1251 O   0  0  0  0  0  0  0  0  0  0  0  0
    1.6395   -4.0779   -0.0301 C   0  0  0  0  0  0  0  0  0  0  0  0
   -0.8741   -5.1235    0.8083 H   0  0  0  0  0  0  0  0  0  0  0  0
    1.1738   -3.3062    1.9318 H   0  0  0  0  0  0  0  0  0  0  0  0
    1.1270   -4.4358   -0.9305 H   0  0  0  0  0  0  0  0  0  0  0  0
    2.2797   -3.2400   -0.3251 H   0  0  0  0  0  0  0  0  0  0  0  0
    2.2827   -4.8880    0.3303 H   0  0  0  0  0  0  0  0  0  0  0  0
    0.3351   -1.3153    0.5316 N   0  0  0  0  0  0  0  0  0  0  0  0
   -0.3268   -0.1184    0.0807 C   0  0  2  0  0  0  0  0  0  0  0  0
   -0.7149    0.7158    1.2977 C   0  0  0  0  0  0  0  0  0  0  0  0
   -1.6722    0.4419    2.0188 O   0  0  0  0  0  0  0  0  0  0  0  0
   -1.5198   -0.4265   -0.8345 C   0  0  0  0  0  0  0  0  0  0  0  0
   -1.1225   -1.0656   -2.1672 C   0  0  0  0  0  0  0  0  0  0  0  0
   -0.0423    0.0501   -3.1120 S   0  0  0  0  0  0  0  0  0  0  0  0
   -1.2623    1.3247   -3.5025 C   0  0  0  0  0  0  0  0  0  0  0  0
    1.2790   -1.2290    0.9021 H   0  0  0  0  0  0  0  0  0  0  0  0
    0.4244    0.4423   -0.4888 H   0  0  0  0  0  0  0  0  0  0  0  0
   -2.0589    0.5108   -1.0270 H   0  0  0  0  0  0  0  0  0  0  0  0
   -2.2145   -1.0912   -0.3051 H   0  0  0  0  0  0  0  0  0  0  0  0
   -2.0043   -1.2765   -2.7794 H   0  0  0  0  0  0  0  0  0  0  0  0
   -0.5841   -2.0047   -2.0089 H   0  0  0  0  0  0  0  0  0  0  0  0
   -0.7952    2.1187   -4.0902 H   0  0  0  0  0  0  0  0  0  0  0  0
   -1.6608    1.7522   -2.5791 H   0  0  0  0  0  0  0  0  0  0  0  0
   -2.0827    0.8893   -4.0781 H   0  0  0  0  0  0  0  0  0  0  0  0
    0.1118    1.8175    1.4643 N   0  0  0  0  0  0  0  0  0  0  0  0
   -0.0633    2.7660    2.5391 C   0  0  2  0  0  0  0  0  0  0  0  0
    0.2061    4.1590    1.9856 C   0  0  0  0  0  0  0  0  0  0  0  0
    0.8811    4.3617    0.9785 O   0  0  0  0  0  0  0  0  0  0  0  0
    0.8614    2.4566    3.7062 C   0  0  0  0  0  0  0  0  0  0  0  0
    0.8984    1.9523    0.8360 H   0  0  0  0  0  0  0  0  0  0  0  0
   -1.1093    2.6946    2.8567 H   0  0  0  0  0  0  0  0  0  0  0  0
    1.9138    2.5233    3.4071 H   0  0  0  0  0  0  0  0  0  0  0  0
    0.7072    3.1594    4.5316 H   0  0  0  0  0  0  0  0  0  0  0  0
    0.6867    1.4434    4.0839 H   0  0  0  0  0  0  0  0  0  0  0  0
   -0.3598    5.1519    2.7731 N   0  0  0  0  0  0  0  0  0  0  0  0
   -0.2343    6.5574    2.4652 C   0  0  0  0  0  0  0  0  0  0  0  0
   -0.9192    4.8916    3.5799 H   0  0  0  0  0  0  0  0  0  0  0  0
    0.6398    6.9714    2.9892 H   0  0  0  0  0  0  0  0  0  0  0  0
   -0.1056    6.6849    1.3802 H   0  0  0  0  0  0  0  0  0  0  0  0
   -1.1417    7.0866    2.7915 H   0  0  0  0  0  0  0  0  0  0  0  0
  1  3  1  0  0  0  0
  1  7  1  0  0  0  0
  1  2  2  0  0  0  0
 35 36  1  0  0  0  0
 36 44  1  0  0  0  0
 36 37  2  0  0  0  0
  8  9  1  0  0  0  0
  9 17  1  0  0  0  0
  9 10  2  0  0  0  0
 18 19  1  0  0  0  0
 19 34  1  0  0  0  0
 19 20  2  0  0  0  0
 35 38  1  0  0  0  0
  8 11  1  0  0  0  0
 44 45  1  0  0  0  0
 23 24  1  0  0  0  0
 21 22  1  0  0  0  0
 18 21  1  0  0  0  0
 22 23  1  0  0  0  0
 34 35  1  0  0  0  0
  7  8  1  0  0  0  0
 17 18  1  0  0  0  0
  3  4  1  0  0  0  0
  3  5  1  0  0  0  0
  3  6  1  0  0  0  0
 38 41  1  0  0  0  0
 38 42  1  0  0  0  0
 38 43  1  0  0  0  0
 11 14  1  0  0  0  0
 11 15  1  0  0  0  0
 11 16  1  0  0  0  0
 45 47  1  0  0  0  0
 45 48  1  0  0  0  0
 45 49  1  0  0  0  0
 24 31  1  0  0  0  0
 24 32  1  0  0  0  0
 24 33  1  0  0  0  0
 21 27  1  0  0  0  0
 21 28  1  0  0  0  0
 22 29  1  0  0  0  0
 22 30  1  0  0  0  0
 35 40  1  0  0  0  0
  8 13  1  0  0  0  0
 18 26  1  0  0  0  0
 44 46  1  0  0  0  0
  7 12  1  0  0  0  0
 34 39  1  0  0  0  0
 17 25  1  0  0  0  0
M  END
$$$$

  -OEChem-05262214473D

 49 48  0     1  0  0  0  0  0999 V2000
   -0.0561   -5.3799    2.6949 C   0  0  0  0  0  0  0  0  0  0  0  0
    0.7325   -5.0736    3.5815 O   0  0  0  0  0  0  0  0  0  0  0  0
   -1.0067   -6.5099    2.9135 C   0  0  0  0  0  0  0  0  0  0  0  0
   -0.5910   -7.4777    2.5899 H   0  0  0  0  0  0  0  0  0  0  0  0
   -1.2629   -6.6440    3.9767 H   0  0  0  0  0  0  0  0  0  0  0  0
   -1.9729   -6.4206    2.3918 H   0  0  0  0  0  0  0  0  0  0  0  0
   -0.1735   -4.7694    1.4571 N   0  0  0  0  0  0  0  0  0  0  0  0
    0.6439   -3.6603    1.0409 C   0  0  2  0  0  0  0  0  0  0  0  0
   -0.2788   -2.5625    0.5280 C   0  0  0  0  0  0  0  0  0  0  0  0
   -1.4197   -2.7791    0.1251 O   0  0  0  0  0  0  0  0  0  0  0  0
    1.6395   -4.0779   -0.0301 C   0  0  0  0  0  0  0  0  0  0  0  0
   -0.8741   -5.1235    0.8083 H   0  0  0  0  0  0  0  0  0  0  0  0
    1.1738   -3.3062    1.9318 H   0  0  0  0  0  0  0  0  0  0  0  0
    1.1270   -4.4358   -0.9305 H   0  0  0  0  0  0  0  0  0  0  0  0
    2.2797   -3.2400   -0.3251 H   0  0  0  0  0  0  0  0  0  0  0  0
    2.2827   -4.8880    0.3303 H   0  0  0  0  0  0  0  0  0  0  0  0
    0.3351   -1.3153    0.5316 N   0  0  0  0  0  0  0  0  0  0  0  0
   -0.3268   -0.1184    0.0807 C   0  0  2  0  0  0  0  0  0  0  0  0
   -0.7149    0.7158    1.2977 C   0  0  0  0  0  0  0  0  0  0  0  0
   -1.4868    0.3135    2.1659 O   0  0  0  0  0  0  0  0  0  0  0  0
   -1.5198   -0.4265   -0.8345 C   0  0  0  0  0  0  0  0  0  0  0  0
   -1.1225   -1.0656   -2.1672 C   0  0  0  0  0  0  0  0  0  0  0  0
   -0.0423    0.0501   -3.1120 S   0  0  0  0  0  0  0  0  0  0  0  0
   -1.2623    1.3247   -3.5025 C   0  0  0  0  0  0  0  0  0  0  0  0
    1.2790   -1.2290    0.9021 H   0  0  0  0  0  0  0  0  0  0  0  0
    0.4244    0.4423   -0.4888 H   0  0  0  0  0  0  0  0  0  0  0  0
   -2.0589    0.5108   -1.0270 H   0  0  0  0  0  0  0  0  0  0  0  0
   -2.2145   -1.0912   -0.3051 H   0  0  0  0  0  0  0  0  0  0  0  0
   -2.0043   -1.2765   -2.7794 H   0  0  0  0  0  0  0  0  0  0  0  0
   -0.5841   -2.0047   -2.0089 H   0  0  0  0  0  0  0  0  0  0  0  0
   -0.7952    2.1187   -4.0902 H   0  0  0  0  0  0  0  0  0  0  0  0
   -1.6608    1.7522   -2.5791 H   0  0  0  0  0  0  0  0  0  0  0  0
   -2.0827    0.8893   -4.0781 H   0  0  0  0  0  0  0  0  0  0  0  0
   -0.1248    1.9714    1.2834 N   0  0  0  0  0  0  0  0  0  0  0  0
   -0.3500    2.9487    2.3225 C   0  0  2  0  0  0  0  0  0  0  0  0
   -0.4579    4.3181    1.6649 C   0  0  0  0  0  0  0  0  0  0  0  0
    0.0172    4.5708    0.5597 O   0  0  0  0  0  0  0  0  0  0  0  0
    0.7676    2.9274    3.3536 C   0  0  0  0  0  0  0  0  0  0  0  0
    0.5237    2.2110    0.5393 H   0  0  0  0  0  0  0  0  0  0  0  0
   -1.3048    2.6935    2.7951 H   0  0  0  0  0  0  0  0  0  0  0  0
    1.7322    3.1806    2.8987 H   0  0  0  0  0  0  0  0  0  0  0  0
    0.5811    3.6489    4.1559 H   0  0  0  0  0  0  0  0  0  0  0  0
    0.8633    1.9336    3.8042 H   0  0  0  0  0  0  0  0  0  0  0  0
   -1.1095    5.2366    2.4760 N   0  0  0  0  0  0  0  0  0  0  0  0
   -1.3262    6.6091    2.0816 C   0  0  0  0  0  0  0  0  0  0  0  0
   -1.4875    4.9348    3.3691 H   0  0  0  0  0  0  0  0  0  0  0  0
   -0.4969    7.2318    2.4482 H   0  0  0  0  0  0  0  0  0  0  0  0
   -1.3746    6.6719    0.9845 H   0  0  0  0  0  0  0  0  0  0  0  0
   -2.2726    6.9689    2.5116 H   0  0  0  0  0  0  0  0  0  0  0  0
  1  3  1  0  0  0  0
  1  7  1  0  0  0  0
  1  2  2  0  0  0  0
 35 36  1  0  0  0  0
 36 44  1  0  0  0  0
 36 37  2  0  0  0  0
  8  9  1  0  0  0  0
  9 17  1  0  0  0  0
  9 10  2  0  0  0  0
 18 19  1  0  0  0  0
 19 34  1  0  0  0  0
 19 20  2  0  0  0  0
 35 38  1  0  0  0  0
  8 11  1  0  0  0  0
 44 45  1  0  0  0  0
 23 24  1  0  0  0  0
 21 22  1  0  0  0  0
 18 21  1  0  0  0  0
 22 23  1  0  0  0  0
 34 35  1  0  0  0  0
  7  8  1  0  0  0  0
 17 18  1  0  0  0  0
  3  4  1  0  0  0  0
  3  5  1  0  0  0  0
  3  6  1  0  0  0  0
 38 41  1  0  0  0  0
 38 42  1  0  0  0  0
 38 43  1  0  0  0  0
 11 14  1  0  0  0  0
 11 15  1  0  0  0  0
 11 16  1  0  0  0  0
 45 47  1  0  0  0  0
 45 48  1  0  0  0  0
 45 49  1  0  0  0  0
 24 31  1  0  0  0  0
 24 32  1  0  0  0  0
 24 33  1  0  0  0  0
 21 27  1  0  0  0  0
 21 28  1  0  0  0  0
 22 29  1  0  0  0  0
 22 30  1  0  0  0  0
 35 40  1  0  0  0  0
  8 13  1  0  0  0  0
 18 26  1  0  0  0  0
 44 46  1  0  0  0  0
  7 12  1  0  0  0  0
 34 39  1  0  0  0  0
 17 25  1  0  0  0  0
M  END
$$$$

  -OEChem-05262214473D

 49 48  0     1  0  0  0  0  0999 V2000
   -0.0561   -5.3799    2.6949 C   0  0  0  0  0  0  0  0  0  0  0  0
    0.7325   -5.0736    3.5815 O   0  0  0  0  0  0  0  0  0  0  0  0
   -1.0067   -6.5099    2.9135 C   0  0  0  0  0  0  0  0  0  0  0  0
   -0.5910   -7.4777    2.5899 H   0  0  0  0  0  0  0  0  0  0  0  0
   -1.2629   -6.6440    3.9767 H   0  0  0  0  0  0  0  0  0  0  0  0
   -1.9729   -6.4206    2.3918 H   0  0  0  0  0  0  0  0  0  0  0  0
   -0.1735   -4.7694    1.4571 N   0  0  0  0  0  0  0  0  0  0  0  0
    0.6439   -3.6603    1.0409 C   0  0  2  0  0  0  0  0  0  0  0  0
   -0.2788   -2.5625    0.5280 C   0  0  0  0  0  0  0  0  0  0  0  0
   -1.4197   -2.7791    0.1251 O   0  0  0  0  0  0  0  0  0  0  0  0
    1.6395   -4.0779   -0.0301 C   0  0  0  0  0  0  0  0  0  0  0  0
   -0.8741   -5.1235    0.8083 H   0  0  0  0  0  0  0  0  0  0  0  0
    1.1738   -3.3062    1.9318 H   0  0  0  0  0  0  0  0  0  0  0  0
    1.1270   -4.4358   -0.9305 H   0  0  0  0  0  0  0  0  0  0  0  0
    2.2797   -3.2400   -0.3251 H   0  0  0  0  0  0  0  0  0  0  0  0
    2.2827   -4.8880    0.3303 H   0  0  0  0  0  0  0  0  0  0  0  0
    0.3351   -1.3153    0.5316 N   0  0  0  0  0  0  0  0  0  0  0  0
   -0.3268   -0.1184    0.0807 C   0  0  2  0  0  0  0  0  0  0  0  0
   -0.7149    0.7158    1.2977 C   0  0  0  0  0  0  0  0  0  0  0  0
   -1.2604    0.2375    2.2902 O   0  0  0  0  0  0  0  0  0  0  0  0
   -1.5198   -0.4265   -0.8345 C   0  0  0  0  0  0  0  0  0  0  0  0
   -1.1225   -1.0656   -2.1672 C   0  0  0  0  0  0  0  0  0  0  0  0
   -0.0423    0.0501   -3.1120 S   0  0  0  0  0  0  0  0  0  0  0  0
   -1.2623    1.3247   -3.5025 C   0  0  0  0  0  0  0  0  0  0  0  0
    1.2790   -1.2290    0.9021 H   0  0  0  0  0  0  0  0  0  0  0  0
    0.4244    0.4423   -0.4888 H   0  0  0  0  0  0  0  0  0  0  0  0
   -2.0589    0.5108   -1.0270 H   0  0  0  0  0  0  0  0  0  0  0  0
   -2.2145   -1.0912   -0.3051 H   0  0  0  0  0  0  0  0  0  0  0  0
   -2.0043   -1.2765   -2.7794 H   0  0  0  0  0  0  0  0  0  0  0  0
   -0.5841   -2.0047   -2.0089 H   0  0  0  0  0  0  0  0  0  0  0  0
   -0.7952    2.1187   -4.0902 H   0  0  0  0  0  0  0  0  0  0  0  0
   -1.6608    1.7522   -2.5791 H   0  0  0  0  0  0  0  0  0  0  0  0
   -2.0827    0.8893   -4.0781 H   0  0  0  0  0  0  0  0  0  0  0  0
   -0.4108    2.0593    1.1320 N   0  0  0  0  0  0  0  0  0  0  0  0
   -0.6953    3.0516    2.1418 C   0  0  2  0  0  0  0  0  0  0  0  0
   -1.1775    4.3135    1.4386 C   0  0  0  0  0  0  0  0  0  0  0  0
   -0.9196    4.5668    0.2637 O   0  0  0  0  0  0  0  0  0  0  0  0
    0.5300    3.3395    2.9954 C   0  0  0  0  0  0  0  0  0  0  0  0
    0.0663    2.3639    0.2886 H   0  0  0  0  0  0  0  0  0  0  0  0
   -1.5022    2.6481    2.7633 H   0  0  0  0  0  0  0  0  0  0  0  0
    1.3491    3.7445    2.3900 H   0  0  0  0  0  0  0  0  0  0  0  0
    0.3050    4.0709    3.7786 H   0  0  0  0  0  0  0  0  0  0  0  0
    0.8932    2.4251    3.4768 H   0  0  0  0  0  0  0  0  0  0  0  0
   -1.8932    5.1441    2.2895 N   0  0  0  0  0  0  0  0  0  0  0  0
   -2.4459    6.4082    1.8622 C   0  0  0  0  0  0  0  0  0  0  0  0
   -2.0752    4.8453    3.2431 H   0  0  0  0  0  0  0  0  0  0  0  0
   -1.7252    7.2129    2.0695 H   0  0  0  0  0  0  0  0  0  0  0  0
   -2.6537    6.3713    0.7827 H   0  0  0  0  0  0  0  0  0  0  0  0
   -3.3803    6.6032    2.4090 H   0  0  0  0  0  0  0  0  0  0  0  0
  1  3  1  0  0  0  0
  1  7  1  0  0  0  0
  1  2  2  0  0  0  0
 35 36  1  0  0  0  0
 36 44  1  0  0  0  0
 36 37  2  0  0  0  0
  8  9  1  0  0  0  0
  9 17  1  0  0  0  0
  9 10  2  0  0  0  0
 18 19  1  0  0  0  0
 19 34  1  0  0  0  0
 19 20  2  0  0  0  0
 35 38  1  0  0  0  0
  8 11  1  0  0  0  0
 44 45  1  0  0  0  0
 23 24  1  0  0  0  0
 21 22  1  0  0  0  0
 18 21  1  0  0  0  0
 22 23  1  0  0  0  0
 34 35  1  0  0  0  0
  7  8  1  0  0  0  0
 17 18  1  0  0  0  0
  3  4  1  0  0  0  0
  3  5  1  0  0  0  0
  3  6  1  0  0  0  0
 38 41  1  0  0  0  0
 38 42  1  0  0  0  0
 38 43  1  0  0  0  0
 11 14  1  0  0  0  0
 11 15  1  0  0  0  0
 11 16  1  0  0  0  0
 45 47  1  0  0  0  0
 45 48  1  0  0  0  0
 45 49  1  0  0  0  0
 24 31  1  0  0  0  0
 24 32  1  0  0  0  0
 24 33  1  0  0  0  0
 21 27  1  0  0  0  0
 21 28  1  0  0  0  0
 22 29  1  0  0  0  0
 22 30  1  0  0  0  0
 35 40  1  0  0  0  0
  8 13  1  0  0  0  0
 18 26  1  0  0  0  0
 44 46  1  0  0  0  0
  7 12  1  0  0  0  0
 34 39  1  0  0  0  0
 17 25  1  0  0  0  0
M  END
$$$$

  -OEChem-05262214473D

 49 48  0     1  0  0  0  0  0999 V2000
   -0.0561   -5.3799    2.6949 C   0  0  0  0  0  0  0  0  0  0  0  0
    0.7325   -5.0736    3.5815 O   0  0  0  0  0  0  0  0  0  0  0  0
   -1.0067   -6.5099    2.9135 C   0  0  0  0  0  0  0  0  0  0  0  0
   -0.5910   -7.4777    2.5899 H   0  0  0  0  0  0  0  0  0  0  0  0
   -1.2629   -6.6440    3.9767 H   0  0  0  0  0  0  0  0  0  0  0  0
   -1.9729   -6.4206    2.3918 H   0  0  0  0  0  0  0  0  0  0  0  0
   -0.1735   -4.7694    1.4571 N   0  0  0  0  0  0  0  0  0  0  0  0
    0.6439   -3.6603    1.0409 C   0  0  2  0  0  0  0  0  0  0  0  0
   -0.2788   -2.5625    0.5280 C   0  0  0  0  0  0  0  0  0  0  0  0
   -1.4197   -2.7791    0.1251 O   0  0  0  0  0  0  0  0  0  0  0  0
    1.6395   -4.0779   -0.0301 C   0  0  0  0  0  0  0  0  0  0  0  0
   -0.8741   -5.1235    0.8083 H   0  0  0  0  0  0  0  0  0  0  0  0
    1.1738   -3.3062    1.9318 H   0  0  0  0  0  0  0  0  0  0  0  0
    1.1270   -4.4358   -0.9305 H   0  0  0  0  0  0  0  0  0  0  0  0
    2.2797   -3.2400   -0.3251 H   0  0  0  0  0  0  0  0  0  0  0  0
    2.2827   -4.8880    0.3303 H   0  0  0  0  0  0  0  0  0  0  0  0
    0.3351   -1.3153    0.5316 N   0  0  0  0  0  0  0  0  0  0  0  0
   -0.3268   -0.1184    0.0807 C   0  0  2  0  0  0  0  0  0  0  0  0
   -0.7149    0.7158    1.2977 C   0  0  0  0  0  0  0  0  0  0  0  0
   -1.0084    0.2190    2.3832 O   0  0  0  0  0  0  0  0  0  0  0  0
   -1.5198   -0.4265   -0.8345 C   0  0  0  0  0  0  0  0  0  0  0  0
   -1.1225   -1.0656   -2.1672 C   0  0  0  0  0  0  0  0  0  0  0  0
   -0.0423    0.0501   -3.1120 S   0  0  0  0  0  0  0  0  0  0  0  0
   -1.2623    1.3247   -3.5025 C   0  0  0  0  0  0  0  0  0  0  0  0
    1.2790   -1.2290    0.9021 H   0  0  0  0  0  0  0  0  0  0  0  0
    0.4244    0.4423   -0.4888 H   0  0  0  0  0  0  0  0  0  0  0  0
   -2.0589    0.5108   -1.0270 H   0  0  0  0  0  0  0  0  0  0  0  0
   -2.2145   -1.0912   -0.3051 H   0  0  0  0  0  0  0  0  0  0  0  0
   -2.0043   -1.2765   -2.7794 H   0  0  0  0  0  0  0  0  0  0  0  0
   -0.5841   -2.0047   -2.0089 H   0  0  0  0  0  0  0  0  0  0  0  0
   -0.7952    2.1187   -4.0902 H   0  0  0  0  0  0  0  0  0  0  0  0
   -1.6608    1.7522   -2.5791 H   0  0  0  0  0  0  0  0  0  0  0  0
   -2.0827    0.8893   -4.0781 H   0  0  0  0  0  0  0  0  0  0  0  0
   -0.7265    2.0752    1.0204 N   0  0  0  0  0  0  0  0  0  0  0  0
   -1.0756    3.0679    2.0094 C   0  0  2  0  0  0  0  0  0  0  0  0
   -1.9036    4.1456    1.3221 C   0  0  0  0  0  0  0  0  0  0  0  0
   -1.8657    4.3501    0.1105 O   0  0  0  0  0  0  0  0  0  0  0  0
    0.1647    3.6650    2.6558 C   0  0  0  0  0  0  0  0  0  0  0  0
   -0.4425    2.4007    0.1011 H   0  0  0  0  0  0  0  0  0  0  0  0
   -1.6879    2.5614    2.7634 H   0  0  0  0  0  0  0  0  0  0  0  0
    0.7907    4.1767    1.9157 H   0  0  0  0  0  0  0  0  0  0  0  0
   -0.1022    4.3967    3.4255 H   0  0  0  0  0  0  0  0  0  0  0  0
    0.7742    2.8845    3.1240 H   0  0  0  0  0  0  0  0  0  0  0  0
   -2.6574    4.8807    2.2263 N   0  0  0  0  0  0  0  0  0  0  0  0
   -3.5170    5.9686    1.8220 C   0  0  0  0  0  0  0  0  0  0  0  0
   -2.6421    4.6293    3.2104 H   0  0  0  0  0  0  0  0  0  0  0  0
   -2.9613    6.9162    1.8787 H   0  0  0  0  0  0  0  0  0  0  0  0
   -3.8557    5.8035    0.7885 H   0  0  0  0  0  0  0  0  0  0  0  0
   -4.3892    6.0146    2.4907 H   0  0  0  0  0  0  0  0  0  0  0  0
  1  3  1  0  0  0  0
  1  7  1  0  0  0  0
  1  2  2  0  0  0  0
 35 36  1  0  0  0  0
 36 44  1  0  0  0  0
 36 37  2  0  0  0  0
  8  9  1  0  0  0  0
  9 17  1  0  0  0  0
  9 10  2  0  0  0  0
 18 19  1  0  0  0  0
 19 34  1  0  0  0  0
 19 20  2  0  0  0  0
 35 38  1  0  0  0  0
  8 11  1  0  0  0  0
 44 45  1  0  0  0  0
 23 24  1  0  0  0  0
 21 22  1  0  0  0  0
 18 21  1  0  0  0  0
 22 23  1  0  0  0  0
 34 35  1  0  0  0  0
  7  8  1  0  0  0  0
 17 18  1  0  0  0  0
  3  4  1  0  0  0  0
  3  5  1  0  0  0  0
  3  6  1  0  0  0  0
 38 41  1  0  0  0  0
 38 42  1  0  0  0  0
 38 43  1  0  0  0  0
 11 14  1  0  0  0  0
 11 15  1  0  0  0  0
 11 16  1  0  0  0  0
 45 47  1  0  0  0  0
 45 48  1  0  0  0  0
 45 49  1  0  0  0  0
 24 31  1  0  0  0  0
 24 32  1  0  0  0  0
 24 33  1  0  0  0  0
 21 27  1  0  0  0  0
 21 28  1  0  0  0  0
 22 29  1  0  0  0  0
 22 30  1  0  0  0  0
 35 40  1  0  0  0  0
  8 13  1  0  0  0  0
 18 26  1  0  0  0  0
 44 46  1  0  0  0  0
  7 12  1  0  0  0  0
 34 39  1  0  0  0  0
 17 25  1  0  0  0  0
M  END
$$$$

  -OEChem-05262214473D

 49 48  0     1  0  0  0  0  0999 V2000
   -0.0561   -5.3799    2.6949 C   0  0  0  0  0  0  0  0  0  0  0  0
    0.7325   -5.0736    3.5815 O   0  0  0  0  0  0  0  0  0  0  0  0
   -1.0067   -6.5099    2.9135 C   0  0  0  0  0  0  0  0  0  0  0  0
   -0.5910   -7.4777    2.5899 H   0  0  0  0  0  0  0  0  0  0  0  0
   -1.2629   -6.6440    3.9767 H   0  0  0  0  0  0  0  0  0  0  0  0
   -1.9729   -6.4206    2.3918 H   0  0  0  0  0  0  0  0  0  0  0  0
   -0.1735   -4.7694    1.4571 N   0  0  0  0  0  0  0  0  0  0  0  0
    0.6439   -3.6603    1.0409 C   0  0  2  0  0  0  0  0  0  0  0  0
   -0.2788   -2.5625    0.5280 C   0  0  0  0  0  0  0  0  0  0  0  0
   -1.4197   -2.7791    0.1251 O   0  0  0  0  0  0  0  0  0  0  0  0
    1.6395   -4.0779   -0.0301 C   0  0  0  0  0  0  0  0  0  0  0  0
   -0.8741   -5.1235    0.8083 H   0  0  0  0  0  0  0  0  0  0  0  0
    1.1738   -3.3062    1.9318 H   0  0  0  0  0  0  0  0  0  0  0  0
    1.1270   -4.4358   -0.9305 H   0  0  0  0  0  0  0  0  0  0  0  0
    2.2797   -3.2400   -0.3251 H   0  0  0  0  0  0  0  0  0  0  0  0
    2.2827   -4.8880    0.3303 H   0  0  0  0  0  0  0  0  0  0  0  0
    0.3351   -1.3153    0.5316 N   0  0  0  0  0  0  0  0  0  0  0  0
   -0.3268   -0.1184    0.0807 C   0  0  2  0  0  0  0  0  0  0  0  0
   -0.7149    0.7158    1.2977 C   0  0  0  0  0  0  0  0  0  0  0  0
   -0.7480    0.2592    2.4387 O   0  0  0  0  0  0  0  0  0  0  0  0
   -1.5198   -0.4265   -0.8345 C   0  0  0  0  0  0  0  0  0  0  0  0
   -1.1225   -1.0656   -2.1672 C   0  0  0  0  0  0  0  0  0  0  0  0
   -0.0423    0.0501   -3.1120 S   0  0  0  0  0  0  0  0  0  0  0  0
   -1.2623    1.3247   -3.5025 C   0  0  0  0  0  0  0  0  0  0  0  0
    1.2790   -1.2290    0.9021 H   0  0  0  0  0  0  0  0  0  0  0  0
    0.4244    0.4423   -0.4888 H   0  0  0  0  0  0  0  0  0  0  0  0
   -2.0589    0.5108   -1.0270 H   0  0  0  0  0  0  0  0  0  0  0  0
   -2.2145   -1.0912   -0.3051 H   0  0  0  0  0  0  0  0  0  0  0  0
   -2.0043   -1.2765   -2.7794 H   0  0  0  0  0  0  0  0  0  0  0  0
   -0.5841   -2.0047   -2.0089 H   0  0  0  0  0  0  0  0  0  0  0  0
   -0.7952    2.1187   -4.0902 H   0  0  0  0  0  0  0  0  0  0  0  0
   -1.6608    1.7522   -2.5791 H   0  0  0  0  0  0  0  0  0  0  0  0
   -2.0827    0.8893   -4.0781 H   0  0  0  0  0  0  0  0  0  0  0  0
   -1.0506    2.0180    0.9563 N   0  0  0  0  0  0  0  0  0  0  0  0
   -1.4651    2.9964    1.9342 C   0  0  2  0  0  0  0  0  0  0  0  0
   -2.5869    3.8259    1.3234 C   0  0  0  0  0  0  0  0  0  0  0  0
   -2.7564    3.9353    0.1108 O   0  0  0  0  0  0  0  0  0  0  0  0
   -0.3034    3.8815    2.3581 C   0  0  0  0  0  0  0  0  0  0  0  0
   -0.9681    2.3188   -0.0104 H   0  0  0  0  0  0  0  0  0  0  0  0
   -1.8495    2.4393    2.7956 H   0  0  0  0  0  0  0  0  0  0  0  0
    0.0949    4.4476    1.5082 H   0  0  0  0  0  0  0  0  0  0  0  0
   -0.6128    4.6041    3.1206 H   0  0  0  0  0  0  0  0  0  0  0  0
    0.5145    3.2805    2.7698 H   0  0  0  0  0  0  0  0  0  0  0  0
   -3.3502    4.4643    2.2908 N   0  0  0  0  0  0  0  0  0  0  0  0
   -4.4666    5.3202    1.9637 C   0  0  0  0  0  0  0  0  0  0  0  0
   -3.1498    4.3013    3.2732 H   0  0  0  0  0  0  0  0  0  0  0  0
   -4.1211    6.3618    1.8888 H   0  0  0  0  0  0  0  0  0  0  0  0
   -4.8987    5.0073    1.0017 H   0  0  0  0  0  0  0  0  0  0  0  0
   -5.2307    5.2431    2.7512 H   0  0  0  0  0  0  0  0  0  0  0  0
  1  3  1  0  0  0  0
  1  7  1  0  0  0  0
  1  2  2  0  0  0  0
 35 36  1  0  0  0  0
 36 44  1  0  0  0  0
 36 37  2  0  0  0  0
  8  9  1  0  0  0  0
  9 17  1  0  0  0  0
  9 10  2  0  0  0  0
 18 19  1  0  0  0  0
 19 34  1  0  0  0  0
 19 20  2  0  0  0  0
 35 38  1  0  0  0  0
  8 11  1  0  0  0  0
 44 45  1  0  0  0  0
 23 24  1  0  0  0  0
 21 22  1  0  0  0  0
 18 21  1  0  0  0  0
 22 23  1  0  0  0  0
 34 35  1  0  0  0  0
  7  8  1  0  0  0  0
 17 18  1  0  0  0  0
  3  4  1  0  0  0  0
  3  5  1  0  0  0  0
  3  6  1  0  0  0  0
 38 41  1  0  0  0  0
 38 42  1  0  0  0  0
 38 43  1  0  0  0  0
 11 14  1  0  0  0  0
 11 15  1  0  0  0  0
 11 16  1  0  0  0  0
 45 47  1  0  0  0  0
 45 48  1  0  0  0  0
 45 49  1  0  0  0  0
 24 31  1  0  0  0  0
 24 32  1  0  0  0  0
 24 33  1  0  0  0  0
 21 27  1  0  0  0  0
 21 28  1  0  0  0  0
 22 29  1  0  0  0  0
 22 30  1  0  0  0  0
 35 40  1  0  0  0  0
  8 13  1  0  0  0  0
 18 26  1  0  0  0  0
 44 46  1  0  0  0  0
  7 12  1  0  0  0  0
 34 39  1  0  0  0  0
 17 25  1  0  0  0  0
M  END
$$$$

  -OEChem-05262214473D

 49 48  0     1  0  0  0  0  0999 V2000
   -0.0561   -5.3799    2.6949 C   0  0  0  0  0  0  0  0  0  0  0  0
    0.7325   -5.0736    3.5815 O   0  0  0  0  0  0  0  0  0  0  0  0
   -1.0067   -6.5099    2.9135 C   0  0  0  0  0  0  0  0  0  0  0  0
   -0.5910   -7.4777    2.5899 H   0  0  0  0  0  0  0  0  0  0  0  0
   -1.2629   -6.6440    3.9767 H   0  0  0  0  0  0  0  0  0  0  0  0
   -1.9729   -6.4206    2.3918 H   0  0  0  0  0  0  0  0  0  0  0  0
   -0.1735   -4.7694    1.4571 N   0  0  0  0  0  0  0  0  0  0  0  0
    0.6439   -3.6603    1.0409 C   0  0  2  0  0  0  0  0  0  0  0  0
   -0.2788   -2.5625    0.5280 C   0  0  0  0  0  0  0  0  0  0  0  0
   -1.4197   -2.7791    0.1251 O   0  0  0  0  0  0  0  0  0  0  0  0
    1.6395   -4.0779   -0.0301 C   0  0  0  0  0  0  0  0  0  0  0  0
   -0.8741   -5.1235    0.8083 H   0  0  0  0  0  0  0  0  0  0  0  0
    1.1738   -3.3062    1.9318 H   0  0  0  0  0  0  0  0  0  0  0  0
    1.1270   -4.4358   -0.9305 H   0  0  0  0  0  0  0  0  0  0  0  0
    2.2797   -3.2400   -0.3251 H   0  0  0  0  0  0  0  0  0  0  0  0
    2.2827   -4.8880    0.3303 H   0  0  0  0  0  0  0  0  0  0  0  0
    0.3351   -1.3153    0.5316 N   0  0  0  0  0  0  0  0  0  0  0  0
   -0.3268   -0.1184    0.0807 C   0  0  2  0  0  0  0  0  0  0  0  0
   -0.3800    0.8774    1.2353 C   0  0  0  0  0  0  0  0  0  0  0  0
    0.0617    0.6277    2.3550 O   0  0  0  0  0  0  0  0  0  0  0  0
   -1.7101   -0.4119   -0.5162 C   0  0  0  0  0  0  0  0  0  0  0  0
   -1.6601   -1.2283   -1.8098 C   0  0  0  0  0  0  0  0  0  0  0  0
   -0.7409   -0.3300   -3.0952 S   0  0  0  0  0  0  0  0  0  0  0  0
   -1.9273    1.0030   -3.3802 C   0  0  0  0  0  0  0  0  0  0  0  0
    1.2790   -1.2290    0.9021 H   0  0  0  0  0  0  0  0  0  0  0  0
    0.3170    0.3030   -0.7009 H   0  0  0  0  0  0  0  0  0  0  0  0
   -2.2133    0.5451   -0.7092 H   0  0  0  0  0  0  0  0  0  0  0  0
   -2.3148   -0.9459    0.2279 H   0  0  0  0  0  0  0  0  0  0  0  0
   -2.6673   -1.4214   -2.1909 H   0  0  0  0  0  0  0  0  0  0  0  0
   -1.1652   -2.1907   -1.6495 H   0  0  0  0  0  0  0  0  0  0  0  0
   -1.5481    1.6800   -4.1495 H   0  0  0  0  0  0  0  0  0  0  0  0
   -2.0830    1.5651   -2.4560 H   0  0  0  0  0  0  0  0  0  0  0  0
   -2.8819    0.5859   -3.7100 H   0  0  0  0  0  0  0  0  0  0  0  0
   -1.0065    2.0627    0.8779 N   0  0  0  0  0  0  0  0  0  0  0  0
   -1.1903    3.1554    1.8040 C   0  0  2  0  0  0  0  0  0  0  0  0
   -2.5667    3.7575    1.5537 C   0  0  0  0  0  0  0  0  0  0  0  0
   -3.1686    3.6358    0.4888 O   0  0  0  0  0  0  0  0  0  0  0  0
   -0.1010    4.2046    1.6450 C   0  0  0  0  0  0  0  0  0  0  0  0
   -1.3175    2.1951   -0.0800 H   0  0  0  0  0  0  0  0  0  0  0  0
   -1.1567    2.7256    2.8110 H   0  0  0  0  0  0  0  0  0  0  0  0
   -0.1191    4.6466    0.6421 H   0  0  0  0  0  0  0  0  0  0  0  0
   -0.2255    5.0184    2.3671 H   0  0  0  0  0  0  0  0  0  0  0  0
    0.8901    3.7634    1.7960 H   0  0  0  0  0  0  0  0  0  0  0  0
   -3.0251    4.4830    2.6445 N   0  0  0  0  0  0  0  0  0  0  0  0
   -4.3002    5.1613    2.6494 C   0  0  0  0  0  0  0  0  0  0  0  0
   -2.4682    4.5146    3.4933 H   0  0  0  0  0  0  0  0  0  0  0  0
   -4.1644    6.2009    2.3166 H   0  0  0  0  0  0  0  0  0  0  0  0
   -4.9924    4.6456    1.9676 H   0  0  0  0  0  0  0  0  0  0  0  0
   -4.7154    5.1538    3.6680 H   0  0  0  0  0  0  0  0  0  0  0  0
  1  3  1  0  0  0  0
  1  7  1  0  0  0  0
  1  2  2  0  0  0  0
 35 36  1  0  0  0  0
 36 44  1  0  0  0  0
 36 37  2  0  0  0  0
  8  9  1  0  0  0  0
  9 17  1  0  0  0  0
  9 10  2  0  0  0  0
 18 19  1  0  0  0  0
 19 34  1  0  0  0  0
 19 20  2  0  0  0  0
 35 38  1  0  0  0  0
  8 11  1  0  0  0  0
 44 45  1  0  0  0  0
 23 24  1  0  0  0  0
 21 22  1  0  0  0  0
 18 21  1  0  0  0  0
 22 23  1  0  0  0  0
 34 35  1  0  0  0  0
  7  8  1  0  0  0  0
 17 18  1  0  0  0  0
  3  4  1  0  0  0  0
  3  5  1  0  0  0  0
  3  6  1  0  0  0  0
 38 41  1  0  0  0  0
 38 42  1  0  0  0  0
 38 43  1  0  0  0  0
 11 14  1  0  0  0  0
 11 15  1  0  0  0  0
 11 16  1  0  0  0  0
 45 47  1  0  0  0  0
 45 48  1  0  0  0  0
 45 49  1  0  0  0  0
 24 31  1  0  0  0  0
 24 32  1  0  0  0  0
 24 33  1  0  0  0  0
 21 27  1  0  0  0  0
 21 28  1  0  0  0  0
 22 29  1  0  0  0  0
 22 30  1  0  0  0  0
 35 40  1  0  0  0  0
  8 13  1  0  0  0  0
 18 26  1  0  0  0  0
 44 46  1  0  0  0  0
  7 12  1  0  0  0  0
 34 39  1  0  0  0  0
 17 25  1  0  0  0  0
M  END
$$$$

  -OEChem-05262214473D

 49 48  0     1  0  0  0  0  0999 V2000
   -0.0561   -5.3799    2.6949 C   0  0  0  0  0  0  0  0  0  0  0  0
    0.7325   -5.0736    3.5815 O   0  0  0  0  0  0  0  0  0  0  0  0
   -1.0067   -6.5099    2.9135 C   0  0  0  0  0  0  0  0  0  0  0  0
   -0.5910   -7.4777    2.5899 H   0  0  0  0  0  0  0  0  0  0  0  0
   -1.2629   -6.6440    3.9767 H   0  0  0  0  0  0  0  0  0  0  0  0
   -1.9729   -6.4206    2.3918 H   0  0  0  0  0  0  0  0  0  0  0  0
   -0.1735   -4.7694    1.4571 N   0  0  0  0  0  0  0  0  0  0  0  0
    0.6439   -3.6603    1.0409 C   0  0  2  0  0  0  0  0  0  0  0  0
   -0.2788   -2.5625    0.5280 C   0  0  0  0  0  0  0  0  0  0  0  0
   -1.4197   -2.7791    0.1251 O   0  0  0  0  0  0  0  0  0  0  0  0
    1.6395   -4.0779   -0.0301 C   0  0  0  0  0  0  0  0  0  0  0  0
   -0.8741   -5.1235    0.8083 H   0  0  0  0  0  0  0  0  0  0  0  0
    1.1738   -3.3062    1.9318 H   0  0  0  0  0  0  0  0  0  0  0  0
    1.1270   -4.4358   -0.9305 H   0  0  0  0  0  0  0  0  0  0  0  0
    2.2797   -3.2400   -0.3251 H   0  0  0  0  0  0  0  0  0  0  0  0
    2.2827   -4.8880    0.3303 H   0  0  0  0  0  0  0  0  0  0  0  0
    0.3351   -1.3153    0.5316 N   0  0  0  0  0  0  0  0  0  0  0  0
   -0.3268   -0.1184    0.0807 C   0  0  2  0  0  0  0  0  0  0  0  0
   -0.3800    0.8774    1.2353 C   0  0  0  0  0  0  0  0  0  0  0  0
    0.2839    0.7477    2.2617 O   0  0  0  0  0  0  0  0  0  0  0  0
   -1.7101   -0.4119   -0.5162 C   0  0  0  0  0  0  0  0  0  0  0  0
   -1.6601   -1.2283   -1.8098 C   0  0  0  0  0  0  0  0  0  0  0  0
   -0.7409   -0.3300   -3.0952 S   0  0  0  0  0  0  0  0  0  0  0  0
   -1.9273    1.0030   -3.3802 C   0  0  0  0  0  0  0  0  0  0  0  0
    1.2790   -1.2290    0.9021 H   0  0  0  0  0  0  0  0  0  0  0  0
    0.3170    0.3030   -0.7009 H   0  0  0  0  0  0  0  0  0  0  0  0
   -2.2133    0.5451   -0.7092 H   0  0  0  0  0  0  0  0  0  0  0  0
   -2.3148   -0.9459    0.2279 H   0  0  0  0  0  0  0  0  0  0  0  0
   -2.6673   -1.4214   -2.1909 H   0  0  0  0  0  0  0  0  0  0  0  0
   -1.1652   -2.1907   -1.6495 H   0  0  0  0  0  0  0  0  0  0  0  0
   -1.5481    1.6800   -4.1495 H   0  0  0  0  0  0  0  0  0  0  0  0
   -2.0830    1.5651   -2.4560 H   0  0  0  0  0  0  0  0  0  0  0  0
   -2.8819    0.5859   -3.7100 H   0  0  0  0  0  0  0  0  0  0  0  0
   -1.2783    1.9081    0.9987 N   0  0  0  0  0  0  0  0  0  0  0  0
   -1.5151    2.9675    1.9511 C   0  0  2  0  0  0  0  0  0  0  0  0
   -3.0051    3.2828    1.9430 C   0  0  0  0  0  0  0  0  0  0  0  0
   -3.7415    3.0185    0.9949 O   0  0  0  0  0  0  0  0  0  0  0  0
   -0.6960    4.2046    1.6177 C   0  0  0  0  0  0  0  0  0  0  0  0
   -1.7657    1.9524    0.1087 H   0  0  0  0  0  0  0  0  0  0  0  0
   -1.2289    2.5786    2.9344 H   0  0  0  0  0  0  0  0  0  0  0  0
   -0.9688    4.6085    0.6359 H   0  0  0  0  0  0  0  0  0  0  0  0
   -0.8549    4.9968    2.3567 H   0  0  0  0  0  0  0  0  0  0  0  0
    0.3736    3.9693    1.5946 H   0  0  0  0  0  0  0  0  0  0  0  0
   -3.4073    3.9328    3.1014 N   0  0  0  0  0  0  0  0  0  0  0  0
   -4.7715    4.3493    3.3281 C   0  0  0  0  0  0  0  0  0  0  0  0
   -2.7329    4.0944    3.8435 H   0  0  0  0  0  0  0  0  0  0  0  0
   -4.9007    5.3864    2.9852 H   0  0  0  0  0  0  0  0  0  0  0  0
   -5.4533    3.6910    2.7697 H   0  0  0  0  0  0  0  0  0  0  0  0
   -5.0000    4.2873    4.4023 H   0  0  0  0  0  0  0  0  0  0  0  0
  1  3  1  0  0  0  0
  1  7  1  0  0  0  0
  1  2  2  0  0  0  0
 35 36  1  0  0  0  0
 36 44  1  0  0  0  0
 36 37  2  0  0  0  0
  8  9  1  0  0  0  0
  9 17  1  0  0  0  0
  9 10  2  0  0  0  0
 18 19  1  0  0  0  0
 19 34  1  0  0  0  0
 19 20  2  0  0  0  0
 35 38  1  0  0  0  0
  8 11  1  0  0  0  0
 44 45  1  0  0  0  0
 23 24  1  0  0  0  0
 21 22  1  0  0  0  0
 18 21  1  0  0  0  0
 22 23  1  0  0  0  0
 34 35  1  0  0  0  0
  7  8  1  0  0  0  0
 17 18  1  0  0  0  0
  3  4  1  0  0  0  0
  3  5  1  0  0  0  0
  3  6  1  0  0  0  0
 38 41  1  0  0  0  0
 38 42  1  0  0  0  0
 38 43  1  0  0  0  0
 11 14  1  0  0  0  0
 11 15  1  0  0  0  0
 11 16  1  0  0  0  0
 45 47  1  0  0  0  0
 45 48  1  0  0  0  0
 45 49  1  0  0  0  0
 24 31  1  0  0  0  0
 24 32  1  0  0  0  0
 24 33  1  0  0  0  0
 21 27  1  0  0  0  0
 21 28  1  0  0  0  0
 22 29  1  0  0  0  0
 22 30  1  0  0  0  0
 35 40  1  0  0  0  0
  8 13  1  0  0  0  0
 18 26  1  0  0  0  0
 44 46  1  0  0  0  0
  7 12  1  0  0  0  0
 34 39  1  0  0  0  0
 17 25  1  0  0  0  0
M  END
$$$$

  -OEChem-05262214473D

 49 48  0     1  0  0  0  0  0999 V2000
   -0.0561   -5.3799    2.6949 C   0  0  0  0  0  0  0  0  0  0  0  0
    0.7325   -5.0736    3.5815 O   0  0  0  0  0  0  0  0  0  0  0  0
   -1.0067   -6.5099    2.9135 C   0  0  0  0  0  0  0  0  0  0  0  0
   -0.5910   -7.4777    2.5899 H   0  0  0  0  0  0  0  0  0  0  0  0
   -1.2629   -6.6440    3.9767 H   0  0  0  0  0  0  0  0  0  0  0  0
   -1.9729   -6.4206    2.3918 H   0  0  0  0  0  0  0  0  0  0  0  0
   -0.1735   -4.7694    1.4571 N   0  0  0  0  0  0  0  0  0  0  0  0
    0.6439   -3.6603    1.0409 C   0  0  2  0  0  0  0  0  0  0  0  0
   -0.2788   -2.5625    0.5280 C   0  0  0  0  0  0  0  0  0  0  0  0
   -1.4197   -2.7791    0.1251 O   0  0  0  0  0  0  0  0  0  0  0  0
    1.6395   -4.0779   -0.0301 C   0  0  0  0  0  0  0  0  0  0  0  0
   -0.8741   -5.1235    0.8083 H   0  0  0  0  0  0  0  0  0  0  0  0
    1.1738   -3.3062    1.9318 H   0  0  0  0  0  0  0  0  0  0  0  0
    1.1270   -4.4358   -0.9305 H   0  0  0  0  0  0  0  0  0  0  0  0
    2.2797   -3.2400   -0.3251 H   0  0  0  0  0  0  0  0  0  0  0  0
    2.2827   -4.8880    0.3303 H   0  0  0  0  0  0  0  0  0  0  0  0
    0.3351   -1.3153    0.5316 N   0  0  0  0  0  0  0  0  0  0  0  0
   -0.3268   -0.1184    0.0807 C   0  0  2  0  0  0  0  0  0  0  0  0
   -0.3800    0.8774    1.2353 C   0  0  0  0  0  0  0  0  0  0  0  0
    0.4594    0.9063    2.1330 O   0  0  0  0  0  0  0  0  0  0  0  0
   -1.7101   -0.4119   -0.5162 C   0  0  0  0  0  0  0  0  0  0  0  0
   -1.6601   -1.2283   -1.8098 C   0  0  0  0  0  0  0  0  0  0  0  0
   -0.7409   -0.3300   -3.0952 S   0  0  0  0  0  0  0  0  0  0  0  0
   -1.9273    1.0030   -3.3802 C   0  0  0  0  0  0  0  0  0  0  0  0
    1.2790   -1.2290    0.9021 H   0  0  0  0  0  0  0  0  0  0  0  0
    0.3170    0.3030   -0.7009 H   0  0  0  0  0  0  0  0  0  0  0  0
   -2.2133    0.5451   -0.7092 H   0  0  0  0  0  0  0  0  0  0  0  0
   -2.3148   -0.9459    0.2279 H   0  0  0  0  0  0  0  0  0  0  0  0
   -2.6673   -1.4214   -2.1909 H   0  0  0  0  0  0  0  0  0  0  0  0
   -1.1652   -2.1907   -1.6495 H   0  0  0  0  0  0  0  0  0  0  0  0
   -1.5481    1.6800   -4.1495 H   0  0  0  0  0  0  0  0  0  0  0  0
   -2.0830    1.5651   -2.4560 H   0  0  0  0  0  0  0  0  0  0  0  0
   -2.8819    0.5859   -3.7100 H   0  0  0  0  0  0  0  0  0  0  0  0
   -1.4902    1.7065    1.1628 N   0  0  0  0  0  0  0  0  0  0  0  0
   -1.7672    2.7236    2.1498 C   0  0  2  0  0  0  0  0  0  0  0  0
   -3.2698    2.7419    2.3973 C   0  0  0  0  0  0  0  0  0  0  0  0
   -4.0885    2.3146    1.5860 O   0  0  0  0  0  0  0  0  0  0  0  0
   -1.2752    4.0878    1.6917 C   0  0  0  0  0  0  0  0  0  0  0  0
   -2.1193    1.6319    0.3689 H   0  0  0  0  0  0  0  0  0  0  0  0
   -1.2490    2.4237    3.0671 H   0  0  0  0  0  0  0  0  0  0  0  0
   -1.7832    4.4052    0.7738 H   0  0  0  0  0  0  0  0  0  0  0  0
   -1.4603    4.8526    2.4532 H   0  0  0  0  0  0  0  0  0  0  0  0
   -0.1997    4.0651    1.4856 H   0  0  0  0  0  0  0  0  0  0  0  0
   -3.5915    3.3307    3.6122 N   0  0  0  0  0  0  0  0  0  0  0  0
   -4.9531    3.4787    4.0706 C   0  0  0  0  0  0  0  0  0  0  0  0
   -2.8471    3.6399    4.2303 H   0  0  0  0  0  0  0  0  0  0  0  0
   -5.3395    4.4615    3.7627 H   0  0  0  0  0  0  0  0  0  0  0  0
   -5.5761    2.6858    3.6310 H   0  0  0  0  0  0  0  0  0  0  0  0
   -4.9811    3.4011    5.1675 H   0  0  0  0  0  0  0  0  0  0  0  0
  1  3  1  0  0  0  0
  1  7  1  0  0  0  0
  1  2  2  0  0  0  0
 35 36  1  0  0  0  0
 36 44  1  0  0  0  0
 36 37  2  0  0  0  0
  8  9  1  0  0  0  0
  9 17  1  0  0  0  0
  9 10  2  0  0  0  0
 18 19  1  0  0  0  0
 19 34  1  0  0  0  0
 19 20  2  0  0  0  0
 35 38  1  0  0  0  0
  8 11  1  0  0  0  0
 44 45  1  0  0  0  0
 23 24  1  0  0  0  0
 21 22  1  0  0  0  0
 18 21  1  0  0  0  0
 22 23  1  0  0  0  0
 34 35  1  0  0  0  0
  7  8  1  0  0  0  0
 17 18  1  0  0  0  0
  3  4  1  0  0  0  0
  3  5  1  0  0  0  0
  3  6  1  0  0  0  0
 38 41  1  0  0  0  0
 38 42  1  0  0  0  0
 38 43  1  0  0  0  0
 11 14  1  0  0  0  0
 11 15  1  0  0  0  0
 11 16  1  0  0  0  0
 45 47  1  0  0  0  0
 45 48  1  0  0  0  0
 45 49  1  0  0  0  0
 24 31  1  0  0  0  0
 24 32  1  0  0  0  0
 24 33  1  0  0  0  0
 21 27  1  0  0  0  0
 21 28  1  0  0  0  0
 22 29  1  0  0  0  0
 22 30  1  0  0  0  0
 35 40  1  0  0  0  0
  8 13  1  0  0  0  0
 18 26  1  0  0  0  0
 44 46  1  0  0  0  0
  7 12  1  0  0  0  0
 34 39  1  0  0  0  0
 17 25  1  0  0  0  0
M  END
$$$$

  -OEChem-05262214473D

 49 48  0     1  0  0  0  0  0999 V2000
   -0.0561   -5.3799    2.6949 C   0  0  0  0  0  0  0  0  0  0  0  0
    0.7325   -5.0736    3.5815 O   0  0  0  0  0  0  0  0  0  0  0  0
   -1.0067   -6.5099    2.9135 C   0  0  0  0  0  0  0  0  0  0  0  0
   -0.5910   -7.4777    2.5899 H   0  0  0  0  0  0  0  0  0  0  0  0
   -1.2629   -6.6440    3.9767 H   0  0  0  0  0  0  0  0  0  0  0  0
   -1.9729   -6.4206    2.3918 H   0  0  0  0  0  0  0  0  0  0  0  0
   -0.1735   -4.7694    1.4571 N   0  0  0  0  0  0  0  0  0  0  0  0
    0.6439   -3.6603    1.0409 C   0  0  2  0  0  0  0  0  0  0  0  0
   -0.2788   -2.5625    0.5280 C   0  0  0  0  0  0  0  0  0  0  0  0
   -1.4197   -2.7791    0.1251 O   0  0  0  0  0  0  0  0  0  0  0  0
    1.6395   -4.0779   -0.0301 C   0  0  0  0  0  0  0  0  0  0  0  0
   -0.8741   -5.1235    0.8083 H   0  0  0  0  0  0  0  0  0  0  0  0
    1.1738   -3.3062    1.9318 H   0  0  0  0  0  0  0  0  0  0  0  0
    1.1270   -4.4358   -0.9305 H   0  0  0  0  0  0  0  0  0  0  0  0
    2.2797   -3.2400   -0.3251 H   0  0  0  0  0  0  0  0  0  0  0  0
    2.2827   -4.8880    0.3303 H   0  0  0  0  0  0  0  0  0  0  0  0
    0.3351   -1.3153    0.5316 N   0  0  0  0  0  0  0  0  0  0  0  0
   -0.3268   -0.1184    0.0807 C   0  0  2  0  0  0  0  0  0  0  0  0
   -0.3800    0.8774    1.2353 C   0  0  0  0  0  0  0  0  0  0  0  0
    0.5760    1.0927    1.9776 O   0  0  0  0  0  0  0  0  0  0  0  0
   -1.7101   -0.4119   -0.5162 C   0  0  0  0  0  0  0  0  0  0  0  0
   -1.6601   -1.2283   -1.8098 C   0  0  0  0  0  0  0  0  0  0  0  0
   -0.7409   -0.3300   -3.0952 S   0  0  0  0  0  0  0  0  0  0  0  0
   -1.9273    1.0030   -3.3802 C   0  0  0  0  0  0  0  0  0  0  0  0
    1.2790   -1.2290    0.9021 H   0  0  0  0  0  0  0  0  0  0  0  0
    0.3170    0.3030   -0.7009 H   0  0  0  0  0  0  0  0  0  0  0  0
   -2.2133    0.5451   -0.7092 H   0  0  0  0  0  0  0  0  0  0  0  0
   -2.3148   -0.9459    0.2279 H   0  0  0  0  0  0  0  0  0  0  0  0
   -2.6673   -1.4214   -2.1909 H   0  0  0  0  0  0  0  0  0  0  0  0
   -1.1652   -2.1907   -1.6495 H   0  0  0  0  0  0  0  0  0  0  0  0
   -1.5481    1.6800   -4.1495 H   0  0  0  0  0  0  0  0  0  0  0  0
   -2.0830    1.5651   -2.4560 H   0  0  0  0  0  0  0  0  0  0  0  0
   -2.8819    0.5859   -3.7100 H   0  0  0  0  0  0  0  0  0  0  0  0
   -1.6276    1.4718    1.3589 N   0  0  0  0  0  0  0  0  0  0  0  0
   -1.9294    2.4405    2.3865 C   0  0  2  0  0  0  0  0  0  0  0  0
   -3.3428    2.1717    2.8858 C   0  0  0  0  0  0  0  0  0  0  0  0
   -4.1860    1.5721    2.2220 O   0  0  0  0  0  0  0  0  0  0  0  0
   -1.7993    3.8621    1.8622 C   0  0  0  0  0  0  0  0  0  0  0  0
   -2.3540    1.2555    0.6828 H   0  0  0  0  0  0  0  0  0  0  0  0
   -1.2156    2.2712    3.2001 H   0  0  0  0  0  0  0  0  0  0  0  0
   -2.5067    4.0505    1.0464 H   0  0  0  0  0  0  0  0  0  0  0  0
   -2.0006    4.5955    2.6500 H   0  0  0  0  0  0  0  0  0  0  0  0
   -0.7906    4.0444    1.4762 H   0  0  0  0  0  0  0  0  0  0  0  0
   -3.5652    2.7176    4.1422 N   0  0  0  0  0  0  0  0  0  0  0  0
   -4.8325    2.6089    4.8264 C   0  0  0  0  0  0  0  0  0  0  0  0
   -2.8031    3.1820    4.6273 H   0  0  0  0  0  0  0  0  0  0  0  0
   -5.4507    3.4892    4.5962 H   0  0  0  0  0  0  0  0  0  0  0  0
   -5.3523    1.6987    4.4928 H   0  0  0  0  0  0  0  0  0  0  0  0
   -4.6599    2.5558    5.9114 H   0  0  0  0  0  0  0  0  0  0  0  0
  1  3  1  0  0  0  0
  1  7  1  0  0  0  0
  1  2  2  0  0  0  0
 35 36  1  0  0  0  0
 36 44  1  0  0  0  0
 36 37  2  0  0  0  0
  8  9  1  0  0  0  0
  9 17  1  0  0  0  0
  9 10  2  0  0  0  0
 18 19  1  0  0  0  0
 19 34  1  0  0  0  0
 19 20  2  0  0  0  0
 35 38  1  0  0  0  0
  8 11  1  0  0  0  0
 44 45  1  0  0  0  0
 23 24  1  0  0  0  0
 21 22  1  0  0  0  0
 18 21  1  0  0  0  0
 22 23  1  0  0  0  0
 34 35  1  0  0  0  0
  7  8  1  0  0  0  0
 17 18  1  0  0  0  0
  3  4  1  0  0  0  0
  3  5  1  0  0  0  0
  3  6  1  0  0  0  0
 38 41  1  0  0  0  0
 38 42  1  0  0  0  0
 38 43  1  0  0  0  0
 11 14  1  0  0  0  0
 11 15  1  0  0  0  0
 11 16  1  0  0  0  0
 45 47  1  0  0  0  0
 45 48  1  0  0  0  0
 45 49  1  0  0  0  0
 24 31  1  0  0  0  0
 24 32  1  0  0  0  0
 24 33  1  0  0  0  0
 21 27  1  0  0  0  0
 21 28  1  0  0  0  0
 22 29  1  0  0  0  0
 22 30  1  0  0  0  0
 35 40  1  0  0  0  0
  8 13  1  0  0  0  0
 18 26  1  0  0  0  0
 44 46  1  0  0  0  0
  7 12  1  0  0  0  0
 34 39  1  0  0  0  0
 17 25  1  0  0  0  0
M  END
$$$$

  -OEChem-05262214473D

 49 48  0     1  0  0  0  0  0999 V2000
   -0.0561   -5.3799    2.6949 C   0  0  0  0  0  0  0  0  0  0  0  0
    0.7325   -5.0736    3.5815 O   0  0  0  0  0  0  0  0  0  0  0  0
   -1.0067   -6.5099    2.9135 C   0  0  0  0  0  0  0  0  0  0  0  0
   -0.5910   -7.4777    2.5899 H   0  0  0  0  0  0  0  0  0  0  0  0
   -1.2629   -6.6440    3.9767 H   0  0  0  0  0  0  0  0  0  0  0  0
   -1.9729   -6.4206    2.3918 H   0  0  0  0  0  0  0  0  0  0  0  0
   -0.1735   -4.7694    1.4571 N   0  0  0  0  0  0  0  0  0  0  0  0
    0.6439   -3.6603    1.0409 C   0  0  2  0  0  0  0  0  0  0  0  0
   -0.2788   -2.5625    0.5280 C   0  0  0  0  0  0  0  0  0  0  0  0
   -1.4197   -2.7791    0.1251 O   0  0  0  0  0  0  0  0  0  0  0  0
    1.6395   -4.0779   -0.0301 C   0  0  0  0  0  0  0  0  0  0  0  0
   -0.8741   -5.1235    0.8083 H   0  0  0  0  0  0  0  0  0  0  0  0
    1.1738   -3.3062    1.9318 H   0  0  0  0  0  0  0  0  0  0  0  0
    1.1270   -4.4358   -0.9305 H   0  0  0  0  0  0  0  0  0  0  0  0
    2.2797   -3.2400   -0.3251 H   0  0  0  0  0  0  0  0  0  0  0  0
    2.2827   -4.8880    0.3303 H   0  0  0  0  0  0  0  0  0  0  0  0
    0.3351   -1.3153    0.5316 N   0  0  0  0  0  0  0  0  0  0  0  0
   -0.3268   -0.1184    0.0807 C   0  0  2  0  0  0  0  0  0  0  0  0
   -0.3800    0.8774    1.2353 C   0  0  0  0  0  0  0  0  0  0  0  0
    0.6259    1.2941    1.8061 O   0  0  0  0  0  0  0  0  0  0  0  0
   -1.7101   -0.4119   -0.5162 C   0  0  0  0  0  0  0  0  0  0  0  0
   -1.6601   -1.2283   -1.8098 C   0  0  0  0  0  0  0  0  0  0  0  0
   -0.7409   -0.3300   -3.0952 S   0  0  0  0  0  0  0  0  0  0  0  0
   -1.9273    1.0030   -3.3802 C   0  0  0  0  0  0  0  0  0  0  0  0
    1.2790   -1.2290    0.9021 H   0  0  0  0  0  0  0  0  0  0  0  0
    0.3170    0.3030   -0.7009 H   0  0  0  0  0  0  0  0  0  0  0  0
   -2.2133    0.5451   -0.7092 H   0  0  0  0  0  0  0  0  0  0  0  0
   -2.3148   -0.9459    0.2279 H   0  0  0  0  0  0  0  0  0  0  0  0
   -2.6673   -1.4214   -2.1909 H   0  0  0  0  0  0  0  0  0  0  0  0
   -1.1652   -2.1907   -1.6495 H   0  0  0  0  0  0  0  0  0  0  0  0
   -1.5481    1.6800   -4.1495 H   0  0  0  0  0  0  0  0  0  0  0  0
   -2.0830    1.5651   -2.4560 H   0  0  0  0  0  0  0  0  0  0  0  0
   -2.8819    0.5859   -3.7100 H   0  0  0  0  0  0  0  0  0  0  0  0
   -1.6813    1.2200    1.5736 N   0  0  0  0  0  0  0  0  0  0  0  0
   -1.9906    2.1375    2.6451 C   0  0  2  0  0  0  0  0  0  0  0  0
   -3.2191    1.6110    3.3751 C   0  0  0  0  0  0  0  0  0  0  0  0
   -4.0273    0.8414    2.8595 O   0  0  0  0  0  0  0  0  0  0  0  0
   -2.2326    3.5431    2.1175 C   0  0  0  0  0  0  0  0  0  0  0  0
   -2.4540    0.8487    1.0290 H   0  0  0  0  0  0  0  0  0  0  0  0
   -1.1311    2.1318    3.3243 H   0  0  0  0  0  0  0  0  0  0  0  0
   -3.0900    3.5686    1.4351 H   0  0  0  0  0  0  0  0  0  0  0  0
   -2.4388    4.2432    2.9337 H   0  0  0  0  0  0  0  0  0  0  0  0
   -1.3589    3.9086    1.5672 H   0  0  0  0  0  0  0  0  0  0  0  0
   -3.3302    2.1354    4.6553 N   0  0  0  0  0  0  0  0  0  0  0  0
   -4.4180    1.7992    5.5438 C   0  0  0  0  0  0  0  0  0  0  0  0
   -2.6038    2.7519    5.0074 H   0  0  0  0  0  0  0  0  0  0  0  0
   -5.2270    2.5357    5.4289 H   0  0  0  0  0  0  0  0  0  0  0  0
   -4.7971    0.7968    5.2962 H   0  0  0  0  0  0  0  0  0  0  0  0
   -4.0585    1.8089    6.5834 H   0  0  0  0  0  0  0  0  0  0  0  0
  1  3  1  0  0  0  0
  1  7  1  0  0  0  0
  1  2  2  0  0  0  0
 35 36  1  0  0  0  0
 36 44  1  0  0  0  0
 36 37  2  0  0  0  0
  8  9  1  0  0  0  0
  9 17  1  0  0  0  0
  9 10  2  0  0  0  0
 18 19  1  0  0  0  0
 19 34  1  0  0  0  0
 19 20  2  0  0  0  0
 35 38  1  0  0  0  0
  8 11  1  0  0  0  0
 44 45  1  0  0  0  0
 23 24  1  0  0  0  0
 21 22  1  0  0  0  0
 18 21  1  0  0  0  0
 22 23  1  0  0  0  0
 34 35  1  0  0  0  0
  7  8  1  0  0  0  0
 17 18  1  0  0  0  0
  3  4  1  0  0  0  0
  3  5  1  0  0  0  0
  3  6  1  0  0  0  0
 38 41  1  0  0  0  0
 38 42  1  0  0  0  0
 38 43  1  0  0  0  0
 11 14  1  0  0  0  0
 11 15  1  0  0  0  0
 11 16  1  0  0  0  0
 45 47  1  0  0  0  0
 45 48  1  0  0  0  0
 45 49  1  0  0  0  0
 24 31  1  0  0  0  0
 24 32  1  0  0  0  0
 24 33  1  0  0  0  0
 21 27  1  0  0  0  0
 21 28  1  0  0  0  0
 22 29  1  0  0  0  0
 22 30  1  0  0  0  0
 35 40  1  0  0  0  0
  8 13  1  0  0  0  0
 18 26  1  0  0  0  0
 44 46  1  0  0  0  0
  7 12  1  0  0  0  0
 34 39  1  0  0  0  0
 17 25  1  0  0  0  0
M  END
$$$$

  -OEChem-05262214473D

 49 48  0     1  0  0  0  0  0999 V2000
   -0.0561   -5.3799    2.6949 C   0  0  0  0  0  0  0  0  0  0  0  0
    0.7325   -5.0736    3.5815 O   0  0  0  0  0  0  0  0  0  0  0  0
   -1.0067   -6.5099    2.9135 C   0  0  0  0  0  0  0  0  0  0  0  0
   -0.5910   -7.4777    2.5899 H   0  0  0  0  0  0  0  0  0  0  0  0
   -1.2629   -6.6440    3.9767 H   0  0  0  0  0  0  0  0  0  0  0  0
   -1.9729   -6.4206    2.3918 H   0  0  0  0  0  0  0  0  0  0  0  0
   -0.1735   -4.7694    1.4571 N   0  0  0  0  0  0  0  0  0  0  0  0
    0.6439   -3.6603    1.0409 C   0  0  2  0  0  0  0  0  0  0  0  0
   -0.2788   -2.5625    0.5280 C   0  0  0  0  0  0  0  0  0  0  0  0
   -1.4197   -2.7791    0.1251 O   0  0  0  0  0  0  0  0  0  0  0  0
    1.6395   -4.0779   -0.0301 C   0  0  0  0  0  0  0  0  0  0  0  0
   -0.8741   -5.1235    0.8083 H   0  0  0  0  0  0  0  0  0  0  0  0
    1.1738   -3.3062    1.9318 H   0  0  0  0  0  0  0  0  0  0  0  0
    1.1270   -4.4358   -0.9305 H   0  0  0  0  0  0  0  0  0  0  0  0
    2.2797   -3.2400   -0.3251 H   0  0  0  0  0  0  0  0  0  0  0  0
    2.2827   -4.8880    0.3303 H   0  0  0  0  0  0  0  0  0  0  0  0
    0.3351   -1.3153    0.5316 N   0  0  0  0  0  0  0  0  0  0  0  0
   -0.3268   -0.1184    0.0807 C   0  0  2  0  0  0  0  0  0  0  0  0
   -0.3800    0.8774    1.2353 C   0  0  0  0  0  0  0  0  0  0  0  0
    0.6056    1.4970    1.6302 O   0  0  0  0  0  0  0  0  0  0  0  0
   -1.7101   -0.4119   -0.5162 C   0  0  0  0  0  0  0  0  0  0  0  0
   -1.6601   -1.2283   -1.8098 C   0  0  0  0  0  0  0  0  0  0  0  0
   -0.7409   -0.3300   -3.0952 S   0  0  0  0  0  0  0  0  0  0  0  0
   -1.9273    1.0030   -3.3802 C   0  0  0  0  0  0  0  0  0  0  0  0
    1.2790   -1.2290    0.9021 H   0  0  0  0  0  0  0  0  0  0  0  0
    0.3170    0.3030   -0.7009 H   0  0  0  0  0  0  0  0  0  0  0  0
   -2.2133    0.5451   -0.7092 H   0  0  0  0  0  0  0  0  0  0  0  0
   -2.3148   -0.9459    0.2279 H   0  0  0  0  0  0  0  0  0  0  0  0
   -2.6673   -1.4214   -2.1909 H   0  0  0  0  0  0  0  0  0  0  0  0
   -1.1652   -2.1907   -1.6495 H   0  0  0  0  0  0  0  0  0  0  0  0
   -1.5481    1.6800   -4.1495 H   0  0  0  0  0  0  0  0  0  0  0  0
   -2.0830    1.5651   -2.4560 H   0  0  0  0  0  0  0  0  0  0  0  0
   -2.8819    0.5859   -3.7100 H   0  0  0  0  0  0  0  0  0  0  0  0
   -1.6475    0.9682    1.7924 N   0  0  0  0  0  0  0  0  0  0  0  0
   -1.9466    1.8351    2.9080 C   0  0  2  0  0  0  0  0  0  0  0  0
   -2.9072    1.0981    3.8319 C   0  0  0  0  0  0  0  0  0  0  0  0
   -3.6231    0.1726    3.4550 O   0  0  0  0  0  0  0  0  0  0  0  0
   -2.5455    3.1523    2.4401 C   0  0  0  0  0  0  0  0  0  0  0  0
   -2.4124    0.4393    1.3841 H   0  0  0  0  0  0  0  0  0  0  0  0
   -1.0011    2.0147    3.4313 H   0  0  0  0  0  0  0  0  0  0  0  0
   -3.4934    2.9925    1.9135 H   0  0  0  0  0  0  0  0  0  0  0  0
   -2.7452    3.8196    3.2850 H   0  0  0  0  0  0  0  0  0  0  0  0
   -1.8659    3.6669    1.7523 H   0  0  0  0  0  0  0  0  0  0  0  0
   -2.9024    1.6236    5.1164 N   0  0  0  0  0  0  0  0  0  0  0  0
   -3.7379    1.1048    6.1741 C   0  0  0  0  0  0  0  0  0  0  0  0
   -2.2628    2.3789    5.3449 H   0  0  0  0  0  0  0  0  0  0  0  0
   -4.6834    1.6661    6.2040 H   0  0  0  0  0  0  0  0  0  0  0  0
   -3.9485    0.0416    5.9867 H   0  0  0  0  0  0  0  0  0  0  0  0
   -3.2178    1.2112    7.1376 H   0  0  0  0  0  0  0  0  0  0  0  0
  1  3  1  0  0  0  0
  1  7  1  0  0  0  0
  1  2  2  0  0  0  0
 35 36  1  0  0  0  0
 36 44  1  0  0  0  0
 36 37  2  0  0  0  0
  8  9  1  0  0  0  0
  9 17  1  0  0  0  0
  9 10  2  0  0  0  0
 18 19  1  0  0  0  0
 19 34  1  0  0  0  0
 19 20  2  0  0  0  0
 35 38  1  0  0  0  0
  8 11  1  0  0  0  0
 44 45  1  0  0  0  0
 23 24  1  0  0  0  0
 21 22  1  0  0  0  0
 18 21  1  0  0  0  0
 22 23  1  0  0  0  0
 34 35  1  0  0  0  0
  7  8  1  0  0  0  0
 17 18  1  0  0  0  0
  3  4  1  0  0  0  0
  3  5  1  0  0  0  0
  3  6  1  0  0  0  0
 38 41  1  0  0  0  0
 38 42  1  0  0  0  0
 38 43  1  0  0  0  0
 11 14  1  0  0  0  0
 11 15  1  0  0  0  0
 11 16  1  0  0  0  0
 45 47  1  0  0  0  0
 45 48  1  0  0  0  0
 45 49  1  0  0  0  0
 24 31  1  0  0  0  0
 24 32  1  0  0  0  0
 24 33  1  0  0  0  0
 21 27  1  0  0  0  0
 21 28  1  0  0  0  0
 22 29  1  0  0  0  0
 22 30  1  0  0  0  0
 35 40  1  0  0  0  0
  8 13  1  0  0  0  0
 18 26  1  0  0  0  0
 44 46  1  0  0  0  0
  7 12  1  0  0  0  0
 34 39  1  0  0  0  0
 17 25  1  0  0  0  0
M  END
$$$$

  -OEChem-05262214473D

 49 48  0     1  0  0  0  0  0999 V2000
   -0.0561   -5.3799    2.6949 C   0  0  0  0  0  0  0  0  0  0  0  0
    0.7325   -5.0736    3.5815 O   0  0  0  0  0  0  0  0  0  0  0  0
   -1.0067   -6.5099    2.9135 C   0  0  0  0  0  0  0  0  0  0  0  0
   -0.5910   -7.4777    2.5899 H   0  0  0  0  0  0  0  0  0  0  0  0
   -1.2629   -6.6440    3.9767 H   0  0  0  0  0  0  0  0  0  0  0  0
   -1.9729   -6.4206    2.3918 H   0  0  0  0  0  0  0  0  0  0  0  0
   -0.1735   -4.7694    1.4571 N   0  0  0  0  0  0  0  0  0  0  0  0
    0.6439   -3.6603    1.0409 C   0  0  2  0  0  0  0  0  0  0  0  0
   -0.2788   -2.5625    0.5280 C   0  0  0  0  0  0  0  0  0  0  0  0
   -1.4197   -2.7791    0.1251 O   0  0  0  0  0  0  0  0  0  0  0  0
    1.6395   -4.0779   -0.0301 C   0  0  0  0  0  0  0  0  0  0  0  0
   -0.8741   -5.1235    0.8083 H   0  0  0  0  0  0  0  0  0  0  0  0
    1.1738   -3.3062    1.9318 H   0  0  0  0  0  0  0  0  0  0  0  0
    1.1270   -4.4358   -0.9305 H   0  0  0  0  0  0  0  0  0  0  0  0
    2.2797   -3.2400   -0.3251 H   0  0  0  0  0  0  0  0  0  0  0  0
    2.2827   -4.8880    0.3303 H   0  0  0  0  0  0  0  0  0  0  0  0
    0.3351   -1.3153    0.5316 N   0  0  0  0  0  0  0  0  0  0  0  0
   -0.3268   -0.1184    0.0807 C   0  0  2  0  0  0  0  0  0  0  0  0
   -0.3800    0.8774    1.2353 C   0  0  0  0  0  0  0  0  0  0  0  0
    0.5166    1.6874    1.4619 O   0  0  0  0  0  0  0  0  0  0  0  0
   -1.7101   -0.4119   -0.5162 C   0  0  0  0  0  0  0  0  0  0  0  0
   -1.6601   -1.2283   -1.8098 C   0  0  0  0  0  0  0  0  0  0  0  0
   -0.7409   -0.3300   -3.0952 S   0  0  0  0  0  0  0  0  0  0  0  0
   -1.9273    1.0030   -3.3802 C   0  0  0  0  0  0  0  0  0  0  0  0
    1.2790   -1.2290    0.9021 H   0  0  0  0  0  0  0  0  0  0  0  0
    0.3170    0.3030   -0.7009 H   0  0  0  0  0  0  0  0  0  0  0  0
   -2.2133    0.5451   -0.7092 H   0  0  0  0  0  0  0  0  0  0  0  0
   -2.3148   -0.9459    0.2279 H   0  0  0  0  0  0  0  0  0  0  0  0
   -2.6673   -1.4214   -2.1909 H   0  0  0  0  0  0  0  0  0  0  0  0
   -1.1652   -2.1907   -1.6495 H   0  0  0  0  0  0  0  0  0  0  0  0
   -1.5481    1.6800   -4.1495 H   0  0  0  0  0  0  0  0  0  0  0  0
   -2.0830    1.5651   -2.4560 H   0  0  0  0  0  0  0  0  0  0  0  0
   -2.8819    0.5859   -3.7100 H   0  0  0  0  0  0  0  0  0  0  0  0
   -1.5286    0.7335    2.0002 N   0  0  0  0  0  0  0  0  0  0  0  0
   -1.8005    1.5539    3.1572 C   0  0  2  0  0  0  0  0  0  0  0  0
   -2.4282    0.6678    4.2250 C   0  0  0  0  0  0  0  0  0  0  0  0
   -3.0011   -0.3890    3.9680 O   0  0  0  0  0  0  0  0  0  0  0  0
   -2.7167    2.7165    2.8081 C   0  0  0  0  0  0  0  0  0  0  0  0
   -2.2321    0.0552    1.7237 H   0  0  0  0  0  0  0  0  0  0  0  0
   -0.8346    1.9280    3.5137 H   0  0  0  0  0  0  0  0  0  0  0  0
   -3.6894    2.3612    2.4489 H   0  0  0  0  0  0  0  0  0  0  0  0
   -2.8988    3.3537    3.6798 H   0  0  0  0  0  0  0  0  0  0  0  0
   -2.2769    3.3359    2.0189 H   0  0  0  0  0  0  0  0  0  0  0  0
   -2.3111    1.2173    5.4941 N   0  0  0  0  0  0  0  0  0  0  0  0
   -2.8383    0.5729    6.6743 C   0  0  0  0  0  0  0  0  0  0  0  0
   -1.8034    2.0884    5.6165 H   0  0  0  0  0  0  0  0  0  0  0  0
   -3.8571    0.9396    6.8687 H   0  0  0  0  0  0  0  0  0  0  0  0
   -2.8643   -0.5155    6.5171 H   0  0  0  0  0  0  0  0  0  0  0  0
   -2.1950    0.8037    7.5362 H   0  0  0  0  0  0  0  0  0  0  0  0
  1  3  1  0  0  0  0
  1  7  1  0  0  0  0
  1  2  2  0  0  0  0
 35 36  1  0  0  0  0
 36 44  1  0  0  0  0
 36 37  2  0  0  0  0
  8  9  1  0  0  0  0
  9 17  1  0  0  0  0
  9 10  2  0  0  0  0
 18 19  1  0  0  0  0
 19 34  1  0  0  0  0
 19 20  2  0  0  0  0
 35 38  1  0  0  0  0
  8 11  1  0  0  0  0
 44 45  1  0  0  0  0
 23 24  1  0  0  0  0
 21 22  1  0  0  0  0
 18 21  1  0  0  0  0
 22 23  1  0  0  0  0
 34 35  1  0  0  0  0
  7  8  1  0  0  0  0
 17 18  1  0  0  0  0
  3  4  1  0  0  0  0
  3  5  1  0  0  0  0
  3  6  1  0  0  0  0
 38 41  1  0  0  0  0
 38 42  1  0  0  0  0
 38 43  1  0  0  0  0
 11 14  1  0  0  0  0
 11 15  1  0  0  0  0
 11 16  1  0  0  0  0
 45 47  1  0  0  0  0
 45 48  1  0  0  0  0
 45 49  1  0  0  0  0
 24 31  1  0  0  0  0
 24 32  1  0  0  0  0
 24 33  1  0  0  0  0
 21 27  1  0  0  0  0
 21 28  1  0  0  0  0
 22 29  1  0  0  0  0
 22 30  1  0  0  0  0
 35 40  1  0  0  0  0
  8 13  1  0  0  0  0
 18 26  1  0  0  0  0
 44 46  1  0  0  0  0
  7 12  1  0  0  0  0
 34 39  1  0  0  0  0
 17 25  1  0  0  0  0
M  END
$$$$

  -OEChem-05262214473D

 49 48  0     1  0  0  0  0  0999 V2000
   -0.0561   -5.3799    2.6949 C   0  0  0  0  0  0  0  0  0  0  0  0
    0.7325   -5.0736    3.5815 O   0  0  0  0  0  0  0  0  0  0  0  0
   -1.0067   -6.5099    2.9135 C   0  0  0  0  0  0  0  0  0  0  0  0
   -0.5910   -7.4777    2.5899 H   0  0  0  0  0  0  0  0  0  0  0  0
   -1.2629   -6.6440    3.9767 H   0  0  0  0  0  0  0  0  0  0  0  0
   -1.9729   -6.4206    2.3918 H   0  0  0  0  0  0  0  0  0  0  0  0
   -0.1735   -4.7694    1.4571 N   0  0  0  0  0  0  0  0  0  0  0  0
    0.6439   -3.6603    1.0409 C   0  0  2  0  0  0  0  0  0  0  0  0
   -0.2788   -2.5625    0.5280 C   0  0  0  0  0  0  0  0  0  0  0  0
   -1.4197   -2.7791    0.1251 O   0  0  0  0  0  0  0  0  0  0  0  0
    1.6395   -4.0779   -0.0301 C   0  0  0  0  0  0  0  0  0  0  0  0
   -0.8741   -5.1235    0.8083 H   0  0  0  0  0  0  0  0  0  0  0  0
    1.1738   -3.3062    1.9318 H   0  0  0  0  0  0  0  0  0  0  0  0
    1.1270   -4.4358   -0.9305 H   0  0  0  0  0  0  0  0  0  0  0  0
    2.2797   -3.2400   -0.3251 H   0  0  0  0  0  0  0  0  0  0  0  0
    2.2827   -4.8880    0.3303 H   0  0  0  0  0  0  0  0  0  0  0  0
    0.3351   -1.3153    0.5316 N   0  0  0  0  0  0  0  0  0  0  0  0
   -0.3268   -0.1184    0.0807 C   0  0  2  0  0  0  0  0  0  0  0  0
   -0.3800    0.8774    1.2353 C   0  0  0  0  0  0  0  0  0  0  0  0
    0.3649    1.8523    1.3127 O   0  0  0  0  0  0  0  0  0  0  0  0
   -1.7101   -0.4119   -0.5162 C   0  0  0  0  0  0  0  0  0  0  0  0
   -1.6601   -1.2283   -1.8098 C   0  0  0  0  0  0  0  0  0  0  0  0
   -0.7409   -0.3300   -3.0952 S   0  0  0  0  0  0  0  0  0  0  0  0
   -1.9273    1.0030   -3.3802 C   0  0  0  0  0  0  0  0  0  0  0  0
    1.2790   -1.2290    0.9021 H   0  0  0  0  0  0  0  0  0  0  0  0
    0.3170    0.3030   -0.7009 H   0  0  0  0  0  0  0  0  0  0  0  0
   -2.2133    0.5451   -0.7092 H   0  0  0  0  0  0  0  0  0  0  0  0
   -2.3148   -0.9459    0.2279 H   0  0  0  0  0  0  0  0  0  0  0  0
   -2.6673   -1.4214   -2.1909 H   0  0  0  0  0  0  0  0  0  0  0  0
   -1.1652   -2.1907   -1.6495 H   0  0  0  0  0  0  0  0  0  0  0  0
   -1.5481    1.6800   -4.1495 H   0  0  0  0  0  0  0  0  0  0  0  0
   -2.0830    1.5651   -2.4560 H   0  0  0  0  0  0  0  0  0  0  0  0
   -2.8819    0.5859   -3.7100 H   0  0  0  0  0  0  0  0  0  0  0  0
   -1.3326    0.5320    2.1831 N   0  0  0  0  0  0  0  0  0  0  0  0
   -1.5622    1.3132    3.3757 C   0  0  2  0  0  0  0  0  0  0  0  0
   -1.8149    0.3496    4.5277 C   0  0  0  0  0  0  0  0  0  0  0  0
   -2.2037   -0.8049    4.3635 O   0  0  0  0  0  0  0  0  0  0  0  0
   -2.7345    2.2653    3.1965 C   0  0  0  0  0  0  0  0  0  0  0  0
   -1.9253   -0.2775    2.0247 H   0  0  0  0  0  0  0  0  0  0  0  0
   -0.6429    1.8777    3.5659 H   0  0  0  0  0  0  0  0  0  0  0  0
   -3.6646    1.7179    3.0049 H   0  0  0  0  0  0  0  0  0  0  0  0
   -2.8893    2.8770    4.0914 H   0  0  0  0  0  0  0  0  0  0  0  0
   -2.5641    2.9380    2.3489 H   0  0  0  0  0  0  0  0  0  0  0  0
   -1.5966    0.9440    5.7627 N   0  0  0  0  0  0  0  0  0  0  0  0
   -1.7808    0.2399    7.0103 C   0  0  0  0  0  0  0  0  0  0  0  0
   -1.2569    1.9003    5.8040 H   0  0  0  0  0  0  0  0  0  0  0  0
   -2.8043    0.4056    7.3778 H   0  0  0  0  0  0  0  0  0  0  0  0
   -1.6183   -0.8364    6.8512 H   0  0  0  0  0  0  0  0  0  0  0  0
   -1.0599    0.6139    7.7522 H   0  0  0  0  0  0  0  0  0  0  0  0
  1  3  1  0  0  0  0
  1  7  1  0  0  0  0
  1  2  2  0  0  0  0
 35 36  1  0  0  0  0
 36 44  1  0  0  0  0
 36 37  2  0  0  0  0
  8  9  1  0  0  0  0
  9 17  1  0  0  0  0
  9 10  2  0  0  0  0
 18 19  1  0  0  0  0
 19 34  1  0  0  0  0
 19 20  2  0  0  0  0
 35 38  1  0  0  0  0
  8 11  1  0  0  0  0
 44 45  1  0  0  0  0
 23 24  1  0  0  0  0
 21 22  1  0  0  0  0
 18 21  1  0  0  0  0
 22 23  1  0  0  0  0
 34 35  1  0  0  0  0
  7  8  1  0  0  0  0
 17 18  1  0  0  0  0
  3  4  1  0  0  0  0
  3  5  1  0  0  0  0
  3  6  1  0  0  0  0
 38 41  1  0  0  0  0
 38 42  1  0  0  0  0
 38 43  1  0  0  0  0
 11 14  1  0  0  0  0
 11 15  1  0  0  0  0
 11 16  1  0  0  0  0
 45 47  1  0  0  0  0
 45 48  1  0  0  0  0
 45 49  1  0  0  0  0
 24 31  1  0  0  0  0
 24 32  1  0  0  0  0
 24 33  1  0  0  0  0
 21 27  1  0  0  0  0
 21 28  1  0  0  0  0
 22 29  1  0  0  0  0
 22 30  1  0  0  0  0
 35 40  1  0  0  0  0
  8 13  1  0  0  0  0
 18 26  1  0  0  0  0
 44 46  1  0  0  0  0
  7 12  1  0  0  0  0
 34 39  1  0  0  0  0
 17 25  1  0  0  0  0
M  END
$$$$

  -OEChem-05262214473D

 49 48  0     1  0  0  0  0  0999 V2000
   -0.0561   -5.3799    2.6949 C   0  0  0  0  0  0  0  0  0  0  0  0
    0.7325   -5.0736    3.5815 O   0  0  0  0  0  0  0  0  0  0  0  0
   -1.0067   -6.5099    2.9135 C   0  0  0  0  0  0  0  0  0  0  0  0
   -0.5910   -7.4777    2.5899 H   0  0  0  0  0  0  0  0  0  0  0  0
   -1.2629   -6.6440    3.9767 H   0  0  0  0  0  0  0  0  0  0  0  0
   -1.9729   -6.4206    2.3918 H   0  0  0  0  0  0  0  0  0  0  0  0
   -0.1735   -4.7694    1.4571 N   0  0  0  0  0  0  0  0  0  0  0  0
    0.6439   -3.6603    1.0409 C   0  0  2  0  0  0  0  0  0  0  0  0
   -0.2788   -2.5625    0.5280 C   0  0  0  0  0  0  0  0  0  0  0  0
   -1.4197   -2.7791    0.1251 O   0  0  0  0  0  0  0  0  0  0  0  0
    1.6395   -4.0779   -0.0301 C   0  0  0  0  0  0  0  0  0  0  0  0
   -0.8741   -5.1235    0.8083 H   0  0  0  0  0  0  0  0  0  0  0  0
    1.1738   -3.3062    1.9318 H   0  0  0  0  0  0  0  0  0  0  0  0
    1.1270   -4.4358   -0.9305 H   0  0  0  0  0  0  0  0  0  0  0  0
    2.2797   -3.2400   -0.3251 H   0  0  0  0  0  0  0  0  0  0  0  0
    2.2827   -4.8880    0.3303 H   0  0  0  0  0  0  0  0  0  0  0  0
    0.3351   -1.3153    0.5316 N   0  0  0  0  0  0  0  0  0  0  0  0
   -0.3268   -0.1184    0.0807 C   0  0  2  0  0  0  0  0  0  0  0  0
   -0.3800    0.8774    1.2353 C   0  0  0  0  0  0  0  0  0  0  0  0
    0.1609    1.9806    1.1926 O   0  0  0  0  0  0  0  0  0  0  0  0
   -1.7101   -0.4119   -0.5162 C   0  0  0  0  0  0  0  0  0  0  0  0
   -1.6601   -1.2283   -1.8098 C   0  0  0  0  0  0  0  0  0  0  0  0
   -0.7409   -0.3300   -3.0952 S   0  0  0  0  0  0  0  0  0  0  0  0
   -1.9273    1.0030   -3.3802 C   0  0  0  0  0  0  0  0  0  0  0  0
    1.2790   -1.2290    0.9021 H   0  0  0  0  0  0  0  0  0  0  0  0
    0.3170    0.3030   -0.7009 H   0  0  0  0  0  0  0  0  0  0  0  0
   -2.2133    0.5451   -0.7092 H   0  0  0  0  0  0  0  0  0  0  0  0
   -2.3148   -0.9459    0.2279 H   0  0  0  0  0  0  0  0  0  0  0  0
   -2.6673   -1.4214   -2.1909 H   0  0  0  0  0  0  0  0  0  0  0  0
   -1.1652   -2.1907   -1.6495 H   0  0  0  0  0  0  0  0  0  0  0  0
   -1.5481    1.6800   -4.1495 H   0  0  0  0  0  0  0  0  0  0  0  0
   -2.0830    1.5651   -2.4560 H   0  0  0  0  0  0  0  0  0  0  0  0
   -2.8819    0.5859   -3.7100 H   0  0  0  0  0  0  0  0  0  0  0  0
   -1.0730    0.3774    2.3284 N   0  0  0  0  0  0  0  0  0  0  0  0
   -1.2480    1.1294    3.5488 C   0  0  2  0  0  0  0  0  0  0  0  0
   -1.1090    0.1651    4.7194 C   0  0  0  0  0  0  0  0  0  0  0  0
   -1.2851   -1.0469    4.6145 O   0  0  0  0  0  0  0  0  0  0  0  0
   -2.5977    1.8295    3.5786 C   0  0  0  0  0  0  0  0  0  0  0  0
   -1.5129   -0.5360    2.2666 H   0  0  0  0  0  0  0  0  0  0  0  0
   -0.4390    1.8671    3.5845 H   0  0  0  0  0  0  0  0  0  0  0  0
   -3.4207    1.1064    3.5436 H   0  0  0  0  0  0  0  0  0  0  0  0
   -2.7171    2.4222    4.4916 H   0  0  0  0  0  0  0  0  0  0  0  0
   -2.7079    2.5003    2.7197 H   0  0  0  0  0  0  0  0  0  0  0  0
   -0.8074    0.8223    5.9040 N   0  0  0  0  0  0  0  0  0  0  0  0
   -0.6373    0.1283    7.1591 C   0  0  0  0  0  0  0  0  0  0  0  0
   -0.6604    1.8274    5.8944 H   0  0  0  0  0  0  0  0  0  0  0  0
   -1.5968    0.1007    7.6964 H   0  0  0  0  0  0  0  0  0  0  0  0
   -0.2954   -0.8992    6.9664 H   0  0  0  0  0  0  0  0  0  0  0  0
    0.1102    0.6549    7.7707 H   0  0  0  0  0  0  0  0  0  0  0  0
  1  3  1  0  0  0  0
  1  7  1  0  0  0  0
  1  2  2  0  0  0  0
 35 36  1  0  0  0  0
 36 44  1  0  0  0  0
 36 37  2  0  0  0  0
  8  9  1  0  0  0  0
  9 17  1  0  0  0  0
  9 10  2  0  0  0  0
 18 19  1  0  0  0  0
 19 34  1  0  0  0  0
 19 20  2  0  0  0  0
 35 38  1  0  0  0  0
  8 11  1  0  0  0  0
 44 45  1  0  0  0  0
 23 24  1  0  0  0  0
 21 22  1  0  0  0  0
 18 21  1  0  0  0  0
 22 23  1  0  0  0  0
 34 35  1  0  0  0  0
  7  8  1  0  0  0  0
 17 18  1  0  0  0  0
  3  4  1  0  0  0  0
  3  5  1  0  0  0  0
  3  6  1  0  0  0  0
 38 41  1  0  0  0  0
 38 42  1  0  0  0  0
 38 43  1  0  0  0  0
 11 14  1  0  0  0  0
 11 15  1  0  0  0  0
 11 16  1  0  0  0  0
 45 47  1  0  0  0  0
 45 48  1  0  0  0  0
 45 49  1  0  0  0  0
 24 31  1  0  0  0  0
 24 32  1  0  0  0  0
 24 33  1  0  0  0  0
 21 27  1  0  0  0  0
 21 28  1  0  0  0  0
 22 29  1  0  0  0  0
 22 30  1  0  0  0  0
 35 40  1  0  0  0  0
  8 13  1  0  0  0  0
 18 26  1  0  0  0  0
 44 46  1  0  0  0  0
  7 12  1  0  0  0  0
 34 39  1  0  0  0  0
 17 25  1  0  0  0  0
M  END
$$$$

  -OEChem-05262214473D

 49 48  0     1  0  0  0  0  0999 V2000
   -0.0561   -5.3799    2.6949 C   0  0  0  0  0  0  0  0  0  0  0  0
    0.7325   -5.0736    3.5815 O   0  0  0  0  0  0  0  0  0  0  0  0
   -1.0067   -6.5099    2.9135 C   0  0  0  0  0  0  0  0  0  0  0  0
   -0.5910   -7.4777    2.5899 H   0  0  0  0  0  0  0  0  0  0  0  0
   -1.2629   -6.6440    3.9767 H   0  0  0  0  0  0  0  0  0  0  0  0
   -1.9729   -6.4206    2.3918 H   0  0  0  0  0  0  0  0  0  0  0  0
   -0.1735   -4.7694    1.4571 N   0  0  0  0  0  0  0  0  0  0  0  0
    0.6439   -3.6603    1.0409 C   0  0  2  0  0  0  0  0  0  0  0  0
   -0.2788   -2.5625    0.5280 C   0  0  0  0  0  0  0  0  0  0  0  0
   -1.4197   -2.7791    0.1251 O   0  0  0  0  0  0  0  0  0  0  0  0
    1.6395   -4.0779   -0.0301 C   0  0  0  0  0  0  0  0  0  0  0  0
   -0.8741   -5.1235    0.8083 H   0  0  0  0  0  0  0  0  0  0  0  0
    1.1738   -3.3062    1.9318 H   0  0  0  0  0  0  0  0  0  0  0  0
    1.1270   -4.4358   -0.9305 H   0  0  0  0  0  0  0  0  0  0  0  0
    2.2797   -3.2400   -0.3251 H   0  0  0  0  0  0  0  0  0  0  0  0
    2.2827   -4.8880    0.3303 H   0  0  0  0  0  0  0  0  0  0  0  0
    0.3351   -1.3153    0.5316 N   0  0  0  0  0  0  0  0  0  0  0  0
   -0.3268   -0.1184    0.0807 C   0  0  2  0  0  0  0  0  0  0  0  0
   -0.3800    0.8774    1.2353 C   0  0  0  0  0  0  0  0  0  0  0  0
   -0.0816    2.0634    1.1100 O   0  0  0  0  0  0  0  0  0  0  0  0
   -1.7101   -0.4119   -0.5162 C   0  0  0  0  0  0  0  0  0  0  0  0
   -1.6601   -1.2283   -1.8098 C   0  0  0  0  0  0  0  0  0  0  0  0
   -0.7409   -0.3300   -3.0952 S   0  0  0  0  0  0  0  0  0  0  0  0
   -1.9273    1.0030   -3.3802 C   0  0  0  0  0  0  0  0  0  0  0  0
    1.2790   -1.2290    0.9021 H   0  0  0  0  0  0  0  0  0  0  0  0
    0.3170    0.3030   -0.7009 H   0  0  0  0  0  0  0  0  0  0  0  0
   -2.2133    0.5451   -0.7092 H   0  0  0  0  0  0  0  0  0  0  0  0
   -2.3148   -0.9459    0.2279 H   0  0  0  0  0  0  0  0  0  0  0  0
   -2.6673   -1.4214   -2.1909 H   0  0  0  0  0  0  0  0  0  0  0  0
   -1.1652   -2.1907   -1.6495 H   0  0  0  0  0  0  0  0  0  0  0  0
   -1.5481    1.6800   -4.1495 H   0  0  0  0  0  0  0  0  0  0  0  0
   -2.0830    1.5651   -2.4560 H   0  0  0  0  0  0  0  0  0  0  0  0
   -2.8819    0.5859   -3.7100 H   0  0  0  0  0  0  0  0  0  0  0  0
   -0.7674    0.2803    2.4262 N   0  0  0  0  0  0  0  0  0  0  0  0
   -0.8792    1.0149    3.6645 C   0  0  2  0  0  0  0  0  0  0  0  0
   -0.3586    0.1269    4.7869 C   0  0  0  0  0  0  0  0  0  0  0  0
   -0.3080   -1.0985    4.7040 O   0  0  0  0  0  0  0  0  0  0  0  0
   -2.3156    1.4388    3.9286 C   0  0  0  0  0  0  0  0  0  0  0  0
   -1.0231   -0.7027    2.4330 H   0  0  0  0  0  0  0  0  0  0  0  0
   -0.2368    1.8970    3.5680 H   0  0  0  0  0  0  0  0  0  0  0  0
   -2.9744    0.5684    4.0282 H   0  0  0  0  0  0  0  0  0  0  0  0
   -2.3941    2.0202    4.8532 H   0  0  0  0  0  0  0  0  0  0  0  0
   -2.6983    2.0528    3.1062 H   0  0  0  0  0  0  0  0  0  0  0  0
    0.0025    0.8607    5.9082 N   0  0  0  0  0  0  0  0  0  0  0  0
    0.5142    0.2459    7.1107 C   0  0  0  0  0  0  0  0  0  0  0  0
   -0.0547    1.8745    5.8816 H   0  0  0  0  0  0  0  0  0  0  0  0
   -0.3169    0.0455    7.8029 H   0  0  0  0  0  0  0  0  0  0  0  0
    1.0142   -0.6998    6.8547 H   0  0  0  0  0  0  0  0  0  0  0  0
    1.2355    0.9238    7.5906 H   0  0  0  0  0  0  0  0  0  0  0  0
  1  3  1  0  0  0  0
  1  7  1  0  0  0  0
  1  2  2  0  0  0  0
 35 36  1  0  0  0  0
 36 44  1  0  0  0  0
 36 37  2  0  0  0  0
  8  9  1  0  0  0  0
  9 17  1  0  0  0  0
  9 10  2  0  0  0  0
 18 19  1  0  0  0  0
 19 34  1  0  0  0  0
 19 20  2  0  0  0  0
 35 38  1  0  0  0  0
  8 11  1  0  0  0  0
 44 45  1  0  0  0  0
 23 24  1  0  0  0  0
 21 22  1  0  0  0  0
 18 21  1  0  0  0  0
 22 23  1  0  0  0  0
 34 35  1  0  0  0  0
  7  8  1  0  0  0  0
 17 18  1  0  0  0  0
  3  4  1  0  0  0  0
  3  5  1  0  0  0  0
  3  6  1  0  0  0  0
 38 41  1  0  0  0  0
 38 42  1  0  0  0  0
 38 43  1  0  0  0  0
 11 14  1  0  0  0  0
 11 15  1  0  0  0  0
 11 16  1  0  0  0  0
 45 47  1  0  0  0  0
 45 48  1  0  0  0  0
 45 49  1  0  0  0  0
 24 31  1  0  0  0  0
 24 32  1  0  0  0  0
 24 33  1  0  0  0  0
 21 27  1  0  0  0  0
 21 28  1  0  0  0  0
 22 29  1  0  0  0  0
 22 30  1  0  0  0  0
 35 40  1  0  0  0  0
  8 13  1  0  0  0  0
 18 26  1  0  0  0  0
 44 46  1  0  0  0  0
  7 12  1  0  0  0  0
 34 39  1  0  0  0  0
 17 25  1  0  0  0  0
M  END
$$$$

  -OEChem-05262214473D

 49 48  0     1  0  0  0  0  0999 V2000
   -0.0561   -5.3799    2.6949 C   0  0  0  0  0  0  0  0  0  0  0  0
    0.7325   -5.0736    3.5815 O   0  0  0  0  0  0  0  0  0  0  0  0
   -1.0067   -6.5099    2.9135 C   0  0  0  0  0  0  0  0  0  0  0  0
   -0.5910   -7.4777    2.5899 H   0  0  0  0  0  0  0  0  0  0  0  0
   -1.2629   -6.6440    3.9767 H   0  0  0  0  0  0  0  0  0  0  0  0
   -1.9729   -6.4206    2.3918 H   0  0  0  0  0  0  0  0  0  0  0  0
   -0.1735   -4.7694    1.4571 N   0  0  0  0  0  0  0  0  0  0  0  0
    0.6439   -3.6603    1.0409 C   0  0  2  0  0  0  0  0  0  0  0  0
   -0.2788   -2.5625    0.5280 C   0  0  0  0  0  0  0  0  0  0  0  0
   -1.4197   -2.7791    0.1251 O   0  0  0  0  0  0  0  0  0  0  0  0
    1.6395   -4.0779   -0.0301 C   0  0  0  0  0  0  0  0  0  0  0  0
   -0.8741   -5.1235    0.8083 H   0  0  0  0  0  0  0  0  0  0  0  0
    1.1738   -3.3062    1.9318 H   0  0  0  0  0  0  0  0  0  0  0  0
    1.1270   -4.4358   -0.9305 H   0  0  0  0  0  0  0  0  0  0  0  0
    2.2797   -3.2400   -0.3251 H   0  0  0  0  0  0  0  0  0  0  0  0
    2.2827   -4.8880    0.3303 H   0  0  0  0  0  0  0  0  0  0  0  0
    0.3351   -1.3153    0.5316 N   0  0  0  0  0  0  0  0  0  0  0  0
   -0.3268   -0.1184    0.0807 C   0  0  2  0  0  0  0  0  0  0  0  0
   -0.3800    0.8774    1.2353 C   0  0  0  0  0  0  0  0  0  0  0  0
   -0.3460    2.0952    1.0704 O   0  0  0  0  0  0  0  0  0  0  0  0
   -1.7101   -0.4119   -0.5162 C   0  0  0  0  0  0  0  0  0  0  0  0
   -1.6601   -1.2283   -1.8098 C   0  0  0  0  0  0  0  0  0  0  0  0
   -0.7409   -0.3300   -3.0952 S   0  0  0  0  0  0  0  0  0  0  0  0
   -1.9273    1.0030   -3.3802 C   0  0  0  0  0  0  0  0  0  0  0  0
    1.2790   -1.2290    0.9021 H   0  0  0  0  0  0  0  0  0  0  0  0
    0.3170    0.3030   -0.7009 H   0  0  0  0  0  0  0  0  0  0  0  0
   -2.2133    0.5451   -0.7092 H   0  0  0  0  0  0  0  0  0  0  0  0
   -2.3148   -0.9459    0.2279 H   0  0  0  0  0  0  0  0  0  0  0  0
   -2.6673   -1.4214   -2.1909 H   0  0  0  0  0  0  0  0  0  0  0  0
   -1.1652   -2.1907   -1.6495 H   0  0  0  0  0  0  0  0  0  0  0  0
   -1.5481    1.6800   -4.1495 H   0  0  0  0  0  0  0  0  0  0  0  0
   -2.0830    1.5651   -2.4560 H   0  0  0  0  0  0  0  0  0  0  0  0
   -2.8819    0.5859   -3.7100 H   0  0  0  0  0  0  0  0  0  0  0  0
   -0.4367    0.2472    2.4700 N   0  0  0  0  0  0  0  0  0  0  0  0
   -0.4811    0.9776    3.7150 C   0  0  2  0  0  0  0  0  0  0  0  0
    0.3851    0.2375    4.7257 C   0  0  0  0  0  0  0  0  0  0  0  0
    0.6610   -0.9562    4.6259 O   0  0  0  0  0  0  0  0  0  0  0  0
   -1.9076    1.1198    4.2225 C   0  0  0  0  0  0  0  0  0  0  0  0
   -0.4893   -0.7663    2.5124 H   0  0  0  0  0  0  0  0  0  0  0  0
   -0.0501    1.9653    3.5177 H   0  0  0  0  0  0  0  0  0  0  0  0
   -2.3560    0.1405    4.4257 H   0  0  0  0  0  0  0  0  0  0  0  0
   -1.9423    1.6984    5.1515 H   0  0  0  0  0  0  0  0  0  0  0  0
   -2.5361    1.6259    3.4819 H   0  0  0  0  0  0  0  0  0  0  0  0
    0.7780    1.0565    5.7750 N   0  0  0  0  0  0  0  0  0  0  0  0
    1.5953    0.5846    6.8684 C   0  0  0  0  0  0  0  0  0  0  0  0
    0.5189    2.0386    5.7665 H   0  0  0  0  0  0  0  0  0  0  0  0
    0.9482    0.2439    7.6901 H   0  0  0  0  0  0  0  0  0  0  0  0
    2.2212   -0.2517    6.5238 H   0  0  0  0  0  0  0  0  0  0  0  0
    2.2394    1.4024    7.2240 H   0  0  0  0  0  0  0  0  0  0  0  0
  1  3  1  0  0  0  0
  1  7  1  0  0  0  0
  1  2  2  0  0  0  0
 35 36  1  0  0  0  0
 36 44  1  0  0  0  0
 36 37  2  0  0  0  0
  8  9  1  0  0  0  0
  9 17  1  0  0  0  0
  9 10  2  0  0  0  0
 18 19  1  0  0  0  0
 19 34  1  0  0  0  0
 19 20  2  0  0  0  0
 35 38  1  0  0  0  0
  8 11  1  0  0  0  0
 44 45  1  0  0  0  0
 23 24  1  0  0  0  0
 21 22  1  0  0  0  0
 18 21  1  0  0  0  0
 22 23  1  0  0  0  0
 34 35  1  0  0  0  0
  7  8  1  0  0  0  0
 17 18  1  0  0  0  0
  3  4  1  0  0  0  0
  3  5  1  0  0  0  0
  3  6  1  0  0  0  0
 38 41  1  0  0  0  0
 38 42  1  0  0  0  0
 38 43  1  0  0  0  0
 11 14  1  0  0  0  0
 11 15  1  0  0  0  0
 11 16  1  0  0  0  0
 45 47  1  0  0  0  0
 45 48  1  0  0  0  0
 45 49  1  0  0  0  0
 24 31  1  0  0  0  0
 24 32  1  0  0  0  0
 24 33  1  0  0  0  0
 21 27  1  0  0  0  0
 21 28  1  0  0  0  0
 22 29  1  0  0  0  0
 22 30  1  0  0  0  0
 35 40  1  0  0  0  0
  8 13  1  0  0  0  0
 18 26  1  0  0  0  0
 44 46  1  0  0  0  0
  7 12  1  0  0  0  0
 34 39  1  0  0  0  0
 17 25  1  0  0  0  0
M  END
$$$$

  -OEChem-05262214473D

 49 48  0     1  0  0  0  0  0999 V2000
   -0.0561   -5.3799    2.6949 C   0  0  0  0  0  0  0  0  0  0  0  0
    0.7325   -5.0736    3.5815 O   0  0  0  0  0  0  0  0  0  0  0  0
   -1.0067   -6.5099    2.9135 C   0  0  0  0  0  0  0  0  0  0  0  0
   -0.5910   -7.4777    2.5899 H   0  0  0  0  0  0  0  0  0  0  0  0
   -1.2629   -6.6440    3.9767 H   0  0  0  0  0  0  0  0  0  0  0  0
   -1.9729   -6.4206    2.3918 H   0  0  0  0  0  0  0  0  0  0  0  0
   -0.1735   -4.7694    1.4571 N   0  0  0  0  0  0  0  0  0  0  0  0
    0.6439   -3.6603    1.0409 C   0  0  2  0  0  0  0  0  0  0  0  0
   -0.2788   -2.5625    0.5280 C   0  0  0  0  0  0  0  0  0  0  0  0
   -1.4197   -2.7791    0.1251 O   0  0  0  0  0  0  0  0  0  0  0  0
    1.6395   -4.0779   -0.0301 C   0  0  0  0  0  0  0  0  0  0  0  0
   -0.8741   -5.1235    0.8083 H   0  0  0  0  0  0  0  0  0  0  0  0
    1.1738   -3.3062    1.9318 H   0  0  0  0  0  0  0  0  0  0  0  0
    1.1270   -4.4358   -0.9305 H   0  0  0  0  0  0  0  0  0  0  0  0
    2.2797   -3.2400   -0.3251 H   0  0  0  0  0  0  0  0  0  0  0  0
    2.2827   -4.8880    0.3303 H   0  0  0  0  0  0  0  0  0  0  0  0
    0.3351   -1.3153    0.5316 N   0  0  0  0  0  0  0  0  0  0  0  0
   -0.3268   -0.1184    0.0807 C   0  0  2  0  0  0  0  0  0  0  0  0
   -0.3800    0.8774    1.2353 C   0  0  0  0  0  0  0  0  0  0  0  0
   -0.6144    2.0737    1.0766 O   0  0  0  0  0  0  0  0  0  0  0  0
   -1.7101   -0.4119   -0.5162 C   0  0  0  0  0  0  0  0  0  0  0  0
   -1.6601   -1.2283   -1.8098 C   0  0  0  0  0  0  0  0  0  0  0  0
   -0.7409   -0.3300   -3.0952 S   0  0  0  0  0  0  0  0  0  0  0  0
   -1.9273    1.0030   -3.3802 C   0  0  0  0  0  0  0  0  0  0  0  0
    1.2790   -1.2290    0.9021 H   0  0  0  0  0  0  0  0  0  0  0  0
    0.3170    0.3030   -0.7009 H   0  0  0  0  0  0  0  0  0  0  0  0
   -2.2133    0.5451   -0.7092 H   0  0  0  0  0  0  0  0  0  0  0  0
   -2.3148   -0.9459    0.2279 H   0  0  0  0  0  0  0  0  0  0  0  0
   -2.6673   -1.4214   -2.1909 H   0  0  0  0  0  0  0  0  0  0  0  0
   -1.1652   -2.1907   -1.6495 H   0  0  0  0  0  0  0  0  0  0  0  0
   -1.5481    1.6800   -4.1495 H   0  0  0  0  0  0  0  0  0  0  0  0
   -2.0830    1.5651   -2.4560 H   0  0  0  0  0  0  0  0  0  0  0  0
   -2.8819    0.5859   -3.7100 H   0  0  0  0  0  0  0  0  0  0  0  0
   -0.1033    0.2803    2.4568 N   0  0  0  0  0  0  0  0  0  0  0  0
   -0.0806    1.0201    3.6968 C   0  0  2  0  0  0  0  0  0  0  0  0
    1.0714    0.4896    4.5399 C   0  0  0  0  0  0  0  0  0  0  0  0
    1.5559   -0.6296    4.3854 O   0  0  0  0  0  0  0  0  0  0  0  0
   -1.4013    0.8943    4.4404 C   0  0  0  0  0  0  0  0  0  0  0  0
    0.0523   -0.7225    2.4996 H   0  0  0  0  0  0  0  0  0  0  0  0
    0.1083    2.0674    3.4369 H   0  0  0  0  0  0  0  0  0  0  0  0
   -1.6077   -0.1481    4.7091 H   0  0  0  0  0  0  0  0  0  0  0  0
   -1.3925    1.4788    5.3663 H   0  0  0  0  0  0  0  0  0  0  0  0
   -2.2324    1.2487    3.8212 H   0  0  0  0  0  0  0  0  0  0  0  0
    1.4663    1.3962    5.5137 N   0  0  0  0  0  0  0  0  0  0  0  0
    2.5322    1.1213    6.4486 C   0  0  0  0  0  0  0  0  0  0  0  0
    1.0214    2.3084    5.5569 H   0  0  0  0  0  0  0  0  0  0  0  0
    2.1123    0.6822    7.3656 H   0  0  0  0  0  0  0  0  0  0  0  0
    3.2434    0.4145    5.9961 H   0  0  0  0  0  0  0  0  0  0  0  0
    3.0534    2.0579    6.6961 H   0  0  0  0  0  0  0  0  0  0  0  0
  1  3  1  0  0  0  0
  1  7  1  0  0  0  0
  1  2  2  0  0  0  0
 35 36  1  0  0  0  0
 36 44  1  0  0  0  0
 36 37  2  0  0  0  0
  8  9  1  0  0  0  0
  9 17  1  0  0  0  0
  9 10  2  0  0  0  0
 18 19  1  0  0  0  0
 19 34  1  0  0  0  0
 19 20  2  0  0  0  0
 35 38  1  0  0  0  0
  8 11  1  0  0  0  0
 44 45  1  0  0  0  0
 23 24  1  0  0  0  0
 21 22  1  0  0  0  0
 18 21  1  0  0  0  0
 22 23  1  0  0  0  0
 34 35  1  0  0  0  0
  7  8  1  0  0  0  0
 17 18  1  0  0  0  0
  3  4  1  0  0  0  0
  3  5  1  0  0  0  0
  3  6  1  0  0  0  0
 38 41  1  0  0  0  0
 38 42  1  0  0  0  0
 38 43  1  0  0  0  0
 11 14  1  0  0  0  0
 11 15  1  0  0  0  0
 11 16  1  0  0  0  0
 45 47  1  0  0  0  0
 45 48  1  0  0  0  0
 45 49  1  0  0  0  0
 24 31  1  0  0  0  0
 24 32  1  0  0  0  0
 24 33  1  0  0  0  0
 21 27  1  0  0  0  0
 21 28  1  0  0  0  0
 22 29  1  0  0  0  0
 22 30  1  0  0  0  0
 35 40  1  0  0  0  0
  8 13  1  0  0  0  0
 18 26  1  0  0  0  0
 44 46  1  0  0  0  0
  7 12  1  0  0  0  0
 34 39  1  0  0  0  0
 17 25  1  0  0  0  0
M  END
$$$$

  -OEChem-05262214473D

 49 48  0     1  0  0  0  0  0999 V2000
   -0.0561   -5.3799    2.6949 C   0  0  0  0  0  0  0  0  0  0  0  0
    0.7325   -5.0736    3.5815 O   0  0  0  0  0  0  0  0  0  0  0  0
   -1.0067   -6.5099    2.9135 C   0  0  0  0  0  0  0  0  0  0  0  0
   -0.5910   -7.4777    2.5899 H   0  0  0  0  0  0  0  0  0  0  0  0
   -1.2629   -6.6440    3.9767 H   0  0  0  0  0  0  0  0  0  0  0  0
   -1.9729   -6.4206    2.3918 H   0  0  0  0  0  0  0  0  0  0  0  0
   -0.1735   -4.7694    1.4571 N   0  0  0  0  0  0  0  0  0  0  0  0
    0.6439   -3.6603    1.0409 C   0  0  2  0  0  0  0  0  0  0  0  0
   -0.2788   -2.5625    0.5280 C   0  0  0  0  0  0  0  0  0  0  0  0
   -1.4197   -2.7791    0.1251 O   0  0  0  0  0  0  0  0  0  0  0  0
    1.6395   -4.0779   -0.0301 C   0  0  0  0  0  0  0  0  0  0  0  0
   -0.8741   -5.1235    0.8083 H   0  0  0  0  0  0  0  0  0  0  0  0
    1.1738   -3.3062    1.9318 H   0  0  0  0  0  0  0  0  0  0  0  0
    1.1270   -4.4358   -0.9305 H   0  0  0  0  0  0  0  0  0  0  0  0
    2.2797   -3.2400   -0.3251 H   0  0  0  0  0  0  0  0  0  0  0  0
    2.2827   -4.8880    0.3303 H   0  0  0  0  0  0  0  0  0  0  0  0
    0.3351   -1.3153    0.5316 N   0  0  0  0  0  0  0  0  0  0  0  0
   -0.3268   -0.1184    0.0807 C   0  0  2  0  0  0  0  0  0  0  0  0
   -0.3800    0.8774    1.2353 C   0  0  0  0  0  0  0  0  0  0  0  0
   -0.8683    2.0005    1.1280 O   0  0  0  0  0  0  0  0  0  0  0  0
   -1.7101   -0.4119   -0.5162 C   0  0  0  0  0  0  0  0  0  0  0  0
   -1.6601   -1.2283   -1.8098 C   0  0  0  0  0  0  0  0  0  0  0  0
   -0.7409   -0.3300   -3.0952 S   0  0  0  0  0  0  0  0  0  0  0  0
   -1.9273    1.0030   -3.3802 C   0  0  0  0  0  0  0  0  0  0  0  0
    1.2790   -1.2290    0.9021 H   0  0  0  0  0  0  0  0  0  0  0  0
    0.3170    0.3030   -0.7009 H   0  0  0  0  0  0  0  0  0  0  0  0
   -2.2133    0.5451   -0.7092 H   0  0  0  0  0  0  0  0  0  0  0  0
   -2.3148   -0.9459    0.2279 H   0  0  0  0  0  0  0  0  0  0  0  0
   -2.6673   -1.4214   -2.1909 H   0  0  0  0  0  0  0  0  0  0  0  0
   -1.1652   -2.1907   -1.6495 H   0  0  0  0  0  0  0  0  0  0  0  0
   -1.5481    1.6800   -4.1495 H   0  0  0  0  0  0  0  0  0  0  0  0
   -2.0830    1.5651   -2.4560 H   0  0  0  0  0  0  0  0  0  0  0  0
   -2.8819    0.5859   -3.7100 H   0  0  0  0  0  0  0  0  0  0  0  0
    0.2099    0.3776    2.3873 N   0  0  0  0  0  0  0  0  0  0  0  0
    0.2948    1.1393    3.6113 C   0  0  2  0  0  0  0  0  0  0  0  0
    1.6536    0.8657    4.2423 C   0  0  0  0  0  0  0  0  0  0  0  0
    2.3157   -0.1410    3.9989 O   0  0  0  0  0  0  0  0  0  0  0  0
   -0.8312    0.7776    4.5673 C   0  0  0  0  0  0  0  0  0  0  0  0
    0.5647   -0.5741    2.3952 H   0  0  0  0  0  0  0  0  0  0  0  0
    0.2276    2.1963    3.3313 H   0  0  0  0  0  0  0  0  0  0  0  0
   -0.7805   -0.2778    4.8591 H   0  0  0  0  0  0  0  0  0  0  0  0
   -0.7821    1.3763    5.4828 H   0  0  0  0  0  0  0  0  0  0  0  0
   -1.8078    0.9469    4.1011 H   0  0  0  0  0  0  0  0  0  0  0  0
    2.0204    1.8569    5.1419 N   0  0  0  0  0  0  0  0  0  0  0  0
    3.2612    1.8195    5.8800 C   0  0  0  0  0  0  0  0  0  0  0  0
    1.4186    2.6655    5.2672 H   0  0  0  0  0  0  0  0  0  0  0  0
    3.0960    1.3308    6.8515 H   0  0  0  0  0  0  0  0  0  0  0  0
    4.0112    1.2536    5.3078 H   0  0  0  0  0  0  0  0  0  0  0  0
    3.6220    2.8458    6.0426 H   0  0  0  0  0  0  0  0  0  0  0  0
  1  3  1  0  0  0  0
  1  7  1  0  0  0  0
  1  2  2  0  0  0  0
 35 36  1  0  0  0  0
 36 44  1  0  0  0  0
 36 37  2  0  0  0  0
  8  9  1  0  0  0  0
  9 17  1  0  0  0  0
  9 10  2  0  0  0  0
 18 19  1  0  0  0  0
 19 34  1  0  0  0  0
 19 20  2  0  0  0  0
 35 38  1  0  0  0  0
  8 11  1  0  0  0  0
 44 45  1  0  0  0  0
 23 24  1  0  0  0  0
 21 22  1  0  0  0  0
 18 21  1  0  0  0  0
 22 23  1  0  0  0  0
 34 35  1  0  0  0  0
  7  8  1  0  0  0  0
 17 18  1  0  0  0  0
  3  4  1  0  0  0  0
  3  5  1  0  0  0  0
  3  6  1  0  0  0  0
 38 41  1  0  0  0  0
 38 42  1  0  0  0  0
 38 43  1  0  0  0  0
 11 14  1  0  0  0  0
 11 15  1  0  0  0  0
 11 16  1  0  0  0  0
 45 47  1  0  0  0  0
 45 48  1  0  0  0  0
 45 49  1  0  0  0  0
 24 31  1  0  0  0  0
 24 32  1  0  0  0  0
 24 33  1  0  0  0  0
 21 27  1  0  0  0  0
 21 28  1  0  0  0  0
 22 29  1  0  0  0  0
 22 30  1  0  0  0  0
 35 40  1  0  0  0  0
  8 13  1  0  0  0  0
 18 26  1  0  0  0  0
 44 46  1  0  0  0  0
  7 12  1  0  0  0  0
 34 39  1  0  0  0  0
 17 25  1  0  0  0  0
M  END
$$$$

  -OEChem-05262214473D

 49 48  0     1  0  0  0  0  0999 V2000
   -0.0561   -5.3799    2.6949 C   0  0  0  0  0  0  0  0  0  0  0  0
    0.7325   -5.0736    3.5815 O   0  0  0  0  0  0  0  0  0  0  0  0
   -1.0067   -6.5099    2.9135 C   0  0  0  0  0  0  0  0  0  0  0  0
   -0.5910   -7.4777    2.5899 H   0  0  0  0  0  0  0  0  0  0  0  0
   -1.2629   -6.6440    3.9767 H   0  0  0  0  0  0  0  0  0  0  0  0
   -1.9729   -6.4206    2.3918 H   0  0  0  0  0  0  0  0  0  0  0  0
   -0.1735   -4.7694    1.4571 N   0  0  0  0  0  0  0  0  0  0  0  0
    0.6439   -3.6603    1.0409 C   0  0  2  0  0  0  0  0  0  0  0  0
   -0.2788   -2.5625    0.5280 C   0  0  0  0  0  0  0  0  0  0  0  0
   -1.4197   -2.7791    0.1251 O   0  0  0  0  0  0  0  0  0  0  0  0
    1.6395   -4.0779   -0.0301 C   0  0  0  0  0  0  0  0  0  0  0  0
   -0.8741   -5.1235    0.8083 H   0  0  0  0  0  0  0  0  0  0  0  0
    1.1738   -3.3062    1.9318 H   0  0  0  0  0  0  0  0  0  0  0  0
    1.1270   -4.4358   -0.9305 H   0  0  0  0  0  0  0  0  0  0  0  0
    2.2797   -3.2400   -0.3251 H   0  0  0  0  0  0  0  0  0  0  0  0
    2.2827   -4.8880    0.3303 H   0  0  0  0  0  0  0  0  0  0  0  0
    0.3351   -1.3153    0.5316 N   0  0  0  0  0  0  0  0  0  0  0  0
   -0.3268   -0.1184    0.0807 C   0  0  2  0  0  0  0  0  0  0  0  0
   -0.3800    0.8774    1.2353 C   0  0  0  0  0  0  0  0  0  0  0  0
   -1.0905    1.8805    1.2213 O   0  0  0  0  0  0  0  0  0  0  0  0
   -1.7101   -0.4119   -0.5162 C   0  0  0  0  0  0  0  0  0  0  0  0
   -1.6601   -1.2283   -1.8098 C   0  0  0  0  0  0  0  0  0  0  0  0
   -0.7409   -0.3300   -3.0952 S   0  0  0  0  0  0  0  0  0  0  0  0
   -1.9273    1.0030   -3.3802 C   0  0  0  0  0  0  0  0  0  0  0  0
    1.2790   -1.2290    0.9021 H   0  0  0  0  0  0  0  0  0  0  0  0
    0.3170    0.3030   -0.7009 H   0  0  0  0  0  0  0  0  0  0  0  0
   -2.2133    0.5451   -0.7092 H   0  0  0  0  0  0  0  0  0  0  0  0
   -2.3148   -0.9459    0.2279 H   0  0  0  0  0  0  0  0  0  0  0  0
   -2.6673   -1.4214   -2.1909 H   0  0  0  0  0  0  0  0  0  0  0  0
   -1.1652   -2.1907   -1.6495 H   0  0  0  0  0  0  0  0  0  0  0  0
   -1.5481    1.6800   -4.1495 H   0  0  0  0  0  0  0  0  0  0  0  0
   -2.0830    1.5651   -2.4560 H   0  0  0  0  0  0  0  0  0  0  0  0
   -2.8819    0.5859   -3.7100 H   0  0  0  0  0  0  0  0  0  0  0  0
    0.4818    0.5322    2.2665 N   0  0  0  0  0  0  0  0  0  0  0  0
    0.6196    1.3273    3.4641 C   0  0  2  0  0  0  0  0  0  0  0  0
    2.0920    1.3404    3.8530 C   0  0  0  0  0  0  0  0  0  0  0  0
    2.8887    0.4763    3.4929 O   0  0  0  0  0  0  0  0  0  0  0  0
   -0.2363    0.7776    4.5946 C   0  0  0  0  0  0  0  0  0  0  0  0
    1.0129   -0.3315    2.2066 H   0  0  0  0  0  0  0  0  0  0  0  0
    0.2998    2.3432    3.2079 H   0  0  0  0  0  0  0  0  0  0  0  0
    0.0693   -0.2396    4.8653 H   0  0  0  0  0  0  0  0  0  0  0  0
   -0.1528    1.3979    5.4932 H   0  0  0  0  0  0  0  0  0  0  0  0
   -1.2913    0.7410    4.3024 H   0  0  0  0  0  0  0  0  0  0  0  0
    2.4025    2.4070    4.6850 N   0  0  0  0  0  0  0  0  0  0  0  0
    3.7326    2.6315    5.2013 C   0  0  0  0  0  0  0  0  0  0  0  0
    1.6833    3.0857    4.9170 H   0  0  0  0  0  0  0  0  0  0  0  0
    3.8323    2.1452    6.1829 H   0  0  0  0  0  0  0  0  0  0  0  0
    4.4721    2.2082    4.5057 H   0  0  0  0  0  0  0  0  0  0  0  0
    3.9066    3.7124    5.3083 H   0  0  0  0  0  0  0  0  0  0  0  0
  1  3  1  0  0  0  0
  1  7  1  0  0  0  0
  1  2  2  0  0  0  0
 35 36  1  0  0  0  0
 36 44  1  0  0  0  0
 36 37  2  0  0  0  0
  8  9  1  0  0  0  0
  9 17  1  0  0  0  0
  9 10  2  0  0  0  0
 18 19  1  0  0  0  0
 19 34  1  0  0  0  0
 19 20  2  0  0  0  0
 35 38  1  0  0  0  0
  8 11  1  0  0  0  0
 44 45  1  0  0  0  0
 23 24  1  0  0  0  0
 21 22  1  0  0  0  0
 18 21  1  0  0  0  0
 22 23  1  0  0  0  0
 34 35  1  0  0  0  0
  7  8  1  0  0  0  0
 17 18  1  0  0  0  0
  3  4  1  0  0  0  0
  3  5  1  0  0  0  0
  3  6  1  0  0  0  0
 38 41  1  0  0  0  0
 38 42  1  0  0  0  0
 38 43  1  0  0  0  0
 11 14  1  0  0  0  0
 11 15  1  0  0  0  0
 11 16  1  0  0  0  0
 45 47  1  0  0  0  0
 45 48  1  0  0  0  0
 45 49  1  0  0  0  0
 24 31  1  0  0  0  0
 24 32  1  0  0  0  0
 24 33  1  0  0  0  0
 21 27  1  0  0  0  0
 21 28  1  0  0  0  0
 22 29  1  0  0  0  0
 22 30  1  0  0  0  0
 35 40  1  0  0  0  0
  8 13  1  0  0  0  0
 18 26  1  0  0  0  0
 44 46  1  0  0  0  0
  7 12  1  0  0  0  0
 34 39  1  0  0  0  0
 17 25  1  0  0  0  0
M  END
$$$$

  -OEChem-05262214473D

 49 48  0     1  0  0  0  0  0999 V2000
   -0.0561   -5.3799    2.6949 C   0  0  0  0  0  0  0  0  0  0  0  0
    0.7325   -5.0736    3.5815 O   0  0  0  0  0  0  0  0  0  0  0  0
   -1.0067   -6.5099    2.9135 C   0  0  0  0  0  0  0  0  0  0  0  0
   -0.5910   -7.4777    2.5899 H   0  0  0  0  0  0  0  0  0  0  0  0
   -1.2629   -6.6440    3.9767 H   0  0  0  0  0  0  0  0  0  0  0  0
   -1.9729   -6.4206    2.3918 H   0  0  0  0  0  0  0  0  0  0  0  0
   -0.1735   -4.7694    1.4571 N   0  0  0  0  0  0  0  0  0  0  0  0
    0.6439   -3.6603    1.0409 C   0  0  2  0  0  0  0  0  0  0  0  0
   -0.2788   -2.5625    0.5280 C   0  0  0  0  0  0  0  0  0  0  0  0
   -1.4197   -2.7791    0.1251 O   0  0  0  0  0  0  0  0  0  0  0  0
    1.6395   -4.0779   -0.0301 C   0  0  0  0  0  0  0  0  0  0  0  0
   -0.8741   -5.1235    0.8083 H   0  0  0  0  0  0  0  0  0  0  0  0
    1.1738   -3.3062    1.9318 H   0  0  0  0  0  0  0  0  0  0  0  0
    1.1270   -4.4358   -0.9305 H   0  0  0  0  0  0  0  0  0  0  0  0
    2.2797   -3.2400   -0.3251 H   0  0  0  0  0  0  0  0  0  0  0  0
    2.2827   -4.8880    0.3303 H   0  0  0  0  0  0  0  0  0  0  0  0
    0.3351   -1.3153    0.5316 N   0  0  0  0  0  0  0  0  0  0  0  0
   -0.3268   -0.1184    0.0807 C   0  0  2  0  0  0  0  0  0  0  0  0
   -0.3800    0.8774    1.2353 C   0  0  0  0  0  0  0  0  0  0  0  0
   -1.2659    1.7219    1.3500 O   0  0  0  0  0  0  0  0  0  0  0  0
   -1.7101   -0.4119   -0.5162 C   0  0  0  0  0  0  0  0  0  0  0  0
   -1.6601   -1.2283   -1.8098 C   0  0  0  0  0  0  0  0  0  0  0  0
   -0.7409   -0.3300   -3.0952 S   0  0  0  0  0  0  0  0  0  0  0  0
   -1.9273    1.0030   -3.3802 C   0  0  0  0  0  0  0  0  0  0  0  0
    1.2790   -1.2290    0.9021 H   0  0  0  0  0  0  0  0  0  0  0  0
    0.3170    0.3030   -0.7009 H   0  0  0  0  0  0  0  0  0  0  0  0
   -2.2133    0.5451   -0.7092 H   0  0  0  0  0  0  0  0  0  0  0  0
   -2.3148   -0.9459    0.2279 H   0  0  0  0  0  0  0  0  0  0  0  0
   -2.6673   -1.4214   -2.1909 H   0  0  0  0  0  0  0  0  0  0  0  0
   -1.1652   -2.1907   -1.6495 H   0  0  0  0  0  0  0  0  0  0  0  0
   -1.5481    1.6800   -4.1495 H   0  0  0  0  0  0  0  0  0  0  0  0
   -2.0830    1.5651   -2.4560 H   0  0  0  0  0  0  0  0  0  0  0  0
   -2.8819    0.5859   -3.7100 H   0  0  0  0  0  0  0  0  0  0  0  0
    0.6936    0.7338    2.1024 N   0  0  0  0  0  0  0  0  0  0  0  0
    0.8716    1.5711    3.2654 C   0  0  2  0  0  0  0  0  0  0  0  0
    2.3567    1.8813    3.3987 C   0  0  0  0  0  0  0  0  0  0  0  0
    3.2357    1.1802    2.9018 O   0  0  0  0  0  0  0  0  0  0  0  0
    0.3429    0.8945    4.5206 C   0  0  0  0  0  0  0  0  0  0  0  0
    1.3664   -0.0110    1.9464 H   0  0  0  0  0  0  0  0  0  0  0  0
    0.3199    2.4981    3.0751 H   0  0  0  0  0  0  0  0  0  0  0  0
    0.8837   -0.0363    4.7274 H   0  0  0  0  0  0  0  0  0  0  0  0
    0.4527    1.5421    5.3966 H   0  0  0  0  0  0  0  0  0  0  0  0
   -0.7181    0.6452    4.4115 H   0  0  0  0  0  0  0  0  0  0  0  0
    2.5868    3.0091    4.1741 N   0  0  0  0  0  0  0  0  0  0  0  0
    3.9141    3.5021    4.4588 C   0  0  0  0  0  0  0  0  0  0  0  0
    1.7975    3.5402    4.5302 H   0  0  0  0  0  0  0  0  0  0  0  0
    4.2711    3.0701    5.4053 H   0  0  0  0  0  0  0  0  0  0  0  0
    4.5949    3.2133    3.6444 H   0  0  0  0  0  0  0  0  0  0  0  0
    3.8877    4.5985    4.5431 H   0  0  0  0  0  0  0  0  0  0  0  0
  1  3  1  0  0  0  0
  1  7  1  0  0  0  0
  1  2  2  0  0  0  0
 35 36  1  0  0  0  0
 36 44  1  0  0  0  0
 36 37  2  0  0  0  0
  8  9  1  0  0  0  0
  9 17  1  0  0  0  0
  9 10  2  0  0  0  0
 18 19  1  0  0  0  0
 19 34  1  0  0  0  0
 19 20  2  0  0  0  0
 35 38  1  0  0  0  0
  8 11  1  0  0  0  0
 44 45  1  0  0  0  0
 23 24  1  0  0  0  0
 21 22  1  0  0  0  0
 18 21  1  0  0  0  0
 22 23  1  0  0  0  0
 34 35  1  0  0  0  0
  7  8  1  0  0  0  0
 17 18  1  0  0  0  0
  3  4  1  0  0  0  0
  3  5  1  0  0  0  0
  3  6  1  0  0  0  0
 38 41  1  0  0  0  0
 38 42  1  0  0  0  0
 38 43  1  0  0  0  0
 11 14  1  0  0  0  0
 11 15  1  0  0  0  0
 11 16  1  0  0  0  0
 45 47  1  0  0  0  0
 45 48  1  0  0  0  0
 45 49  1  0  0  0  0
 24 31  1  0  0  0  0
 24 32  1  0  0  0  0
 24 33  1  0  0  0  0
 21 27  1  0  0  0  0
 21 28  1  0  0  0  0
 22 29  1  0  0  0  0
 22 30  1  0  0  0  0
 35 40  1  0  0  0  0
  8 13  1  0  0  0  0
 18 26  1  0  0  0  0
 44 46  1  0  0  0  0
  7 12  1  0  0  0  0
 34 39  1  0  0  0  0
 17 25  1  0  0  0  0
M  END
$$$$

  -OEChem-05262214473D

 49 48  0     1  0  0  0  0  0999 V2000
   -0.0561   -5.3799    2.6949 C   0  0  0  0  0  0  0  0  0  0  0  0
    0.7325   -5.0736    3.5815 O   0  0  0  0  0  0  0  0  0  0  0  0
   -1.0067   -6.5099    2.9135 C   0  0  0  0  0  0  0  0  0  0  0  0
   -0.5910   -7.4777    2.5899 H   0  0  0  0  0  0  0  0  0  0  0  0
   -1.2629   -6.6440    3.9767 H   0  0  0  0  0  0  0  0  0  0  0  0
   -1.9729   -6.4206    2.3918 H   0  0  0  0  0  0  0  0  0  0  0  0
   -0.1735   -4.7694    1.4571 N   0  0  0  0  0  0  0  0  0  0  0  0
    0.6439   -3.6603    1.0409 C   0  0  2  0  0  0  0  0  0  0  0  0
   -0.2788   -2.5625    0.5280 C   0  0  0  0  0  0  0  0  0  0  0  0
   -1.4197   -2.7791    0.1251 O   0  0  0  0  0  0  0  0  0  0  0  0
    1.6395   -4.0779   -0.0301 C   0  0  0  0  0  0  0  0  0  0  0  0
   -0.8741   -5.1235    0.8083 H   0  0  0  0  0  0  0  0  0  0  0  0
    1.1738   -3.3062    1.9318 H   0  0  0  0  0  0  0  0  0  0  0  0
    1.1270   -4.4358   -0.9305 H   0  0  0  0  0  0  0  0  0  0  0  0
    2.2797   -3.2400   -0.3251 H   0  0  0  0  0  0  0  0  0  0  0  0
    2.2827   -4.8880    0.3303 H   0  0  0  0  0  0  0  0  0  0  0  0
    0.3351   -1.3153    0.5316 N   0  0  0  0  0  0  0  0  0  0  0  0
   -0.3268   -0.1184    0.0807 C   0  0  2  0  0  0  0  0  0  0  0  0
   -0.3800    0.8774    1.2353 C   0  0  0  0  0  0  0  0  0  0  0  0
   -1.3826    1.5355    1.5054 O   0  0  0  0  0  0  0  0  0  0  0  0
   -1.7101   -0.4119   -0.5162 C   0  0  0  0  0  0  0  0  0  0  0  0
   -1.6601   -1.2283   -1.8098 C   0  0  0  0  0  0  0  0  0  0  0  0
   -0.7409   -0.3300   -3.0952 S   0  0  0  0  0  0  0  0  0  0  0  0
   -1.9273    1.0030   -3.3802 C   0  0  0  0  0  0  0  0  0  0  0  0
    1.2790   -1.2290    0.9021 H   0  0  0  0  0  0  0  0  0  0  0  0
    0.3170    0.3030   -0.7009 H   0  0  0  0  0  0  0  0  0  0  0  0
   -2.2133    0.5451   -0.7092 H   0  0  0  0  0  0  0  0  0  0  0  0
   -2.3148   -0.9459    0.2279 H   0  0  0  0  0  0  0  0  0  0  0  0
   -2.6673   -1.4214   -2.1909 H   0  0  0  0  0  0  0  0  0  0  0  0
   -1.1652   -2.1907   -1.6495 H   0  0  0  0  0  0  0  0  0  0  0  0
   -1.5481    1.6800   -4.1495 H   0  0  0  0  0  0  0  0  0  0  0  0
   -2.0830    1.5651   -2.4560 H   0  0  0  0  0  0  0  0  0  0  0  0
   -2.8819    0.5859   -3.7100 H   0  0  0  0  0  0  0  0  0  0  0  0
    0.8310    0.9684    1.9063 N   0  0  0  0  0  0  0  0  0  0  0  0
    1.0338    1.8542    3.0287 C   0  0  2  0  0  0  0  0  0  0  0  0
    2.4297    2.4515    2.9102 C   0  0  0  0  0  0  0  0  0  0  0  0
    3.3331    1.9227    2.2658 O   0  0  0  0  0  0  0  0  0  0  0  0
    0.8671    1.1201    4.3501 C   0  0  0  0  0  0  0  0  0  0  0  0
    1.6012    0.3655    1.6325 H   0  0  0  0  0  0  0  0  0  0  0  0
    0.2866    2.6506    2.9421 H   0  0  0  0  0  0  0  0  0  0  0  0
    1.6072    0.3184    4.4548 H   0  0  0  0  0  0  0  0  0  0  0  0
    0.9929    1.7991    5.1998 H   0  0  0  0  0  0  0  0  0  0  0  0
   -0.1272    0.6659    4.4208 H   0  0  0  0  0  0  0  0  0  0  0  0
    2.5605    3.6222    3.6441 N   0  0  0  0  0  0  0  0  0  0  0  0
    3.7936    4.3718    3.7030 C   0  0  0  0  0  0  0  0  0  0  0  0
    1.7535    3.9981    4.1332 H   0  0  0  0  0  0  0  0  0  0  0  0
    4.3824    4.0424    4.5718 H   0  0  0  0  0  0  0  0  0  0  0  0
    4.3710    4.2005    2.7826 H   0  0  0  0  0  0  0  0  0  0  0  0
    3.5666    5.4439    3.7992 H   0  0  0  0  0  0  0  0  0  0  0  0
  1  3  1  0  0  0  0
  1  7  1  0  0  0  0
  1  2  2  0  0  0  0
 35 36  1  0  0  0  0
 36 44  1  0  0  0  0
 36 37  2  0  0  0  0
  8  9  1  0  0  0  0
  9 17  1  0  0  0  0
  9 10  2  0  0  0  0
 18 19  1  0  0  0  0
 19 34  1  0  0  0  0
 19 20  2  0  0  0  0
 35 38  1  0  0  0  0
  8 11  1  0  0  0  0
 44 45  1  0  0  0  0
 23 24  1  0  0  0  0
 21 22  1  0  0  0  0
 18 21  1  0  0  0  0
 22 23  1  0  0  0  0
 34 35  1  0  0  0  0
  7  8  1  0  0  0  0
 17 18  1  0  0  0  0
  3  4  1  0  0  0  0
  3  5  1  0  0  0  0
  3  6  1  0  0  0  0
 38 41  1  0  0  0  0
 38 42  1  0  0  0  0
 38 43  1  0  0  0  0
 11 14  1  0  0  0  0
 11 15  1  0  0  0  0
 11 16  1  0  0  0  0
 45 47  1  0  0  0  0
 45 48  1  0  0  0  0
 45 49  1  0  0  0  0
 24 31  1  0  0  0  0
 24 32  1  0  0  0  0
 24 33  1  0  0  0  0
 21 27  1  0  0  0  0
 21 28  1  0  0  0  0
 22 29  1  0  0  0  0
 22 30  1  0  0  0  0
 35 40  1  0  0  0  0
  8 13  1  0  0  0  0
 18 26  1  0  0  0  0
 44 46  1  0  0  0  0
  7 12  1  0  0  0  0
 34 39  1  0  0  0  0
 17 25  1  0  0  0  0
M  END
$$$$

  -OEChem-05262214473D

 49 48  0     1  0  0  0  0  0999 V2000
   -0.0561   -5.3799    2.6949 C   0  0  0  0  0  0  0  0  0  0  0  0
    0.7325   -5.0736    3.5815 O   0  0  0  0  0  0  0  0  0  0  0  0
   -1.0067   -6.5099    2.9135 C   0  0  0  0  0  0  0  0  0  0  0  0
   -0.5910   -7.4777    2.5899 H   0  0  0  0  0  0  0  0  0  0  0  0
   -1.2629   -6.6440    3.9767 H   0  0  0  0  0  0  0  0  0  0  0  0
   -1.9729   -6.4206    2.3918 H   0  0  0  0  0  0  0  0  0  0  0  0
   -0.1735   -4.7694    1.4571 N   0  0  0  0  0  0  0  0  0  0  0  0
    0.6439   -3.6603    1.0409 C   0  0  2  0  0  0  0  0  0  0  0  0
   -0.2788   -2.5625    0.5280 C   0  0  0  0  0  0  0  0  0  0  0  0
   -1.4197   -2.7791    0.1251 O   0  0  0  0  0  0  0  0  0  0  0  0
    1.6395   -4.0779   -0.0301 C   0  0  0  0  0  0  0  0  0  0  0  0
   -0.8741   -5.1235    0.8083 H   0  0  0  0  0  0  0  0  0  0  0  0
    1.1738   -3.3062    1.9318 H   0  0  0  0  0  0  0  0  0  0  0  0
    1.1270   -4.4358   -0.9305 H   0  0  0  0  0  0  0  0  0  0  0  0
    2.2797   -3.2400   -0.3251 H   0  0  0  0  0  0  0  0  0  0  0  0
    2.2827   -4.8880    0.3303 H   0  0  0  0  0  0  0  0  0  0  0  0
    0.3351   -1.3153    0.5316 N   0  0  0  0  0  0  0  0  0  0  0  0
   -0.3268   -0.1184    0.0807 C   0  0  2  0  0  0  0  0  0  0  0  0
   -0.3800    0.8774    1.2353 C   0  0  0  0  0  0  0  0  0  0  0  0
   -1.4325    1.3340    1.6769 O   0  0  0  0  0  0  0  0  0  0  0  0
   -1.7101   -0.4119   -0.5162 C   0  0  0  0  0  0  0  0  0  0  0  0
   -1.6601   -1.2283   -1.8098 C   0  0  0  0  0  0  0  0  0  0  0  0
   -0.7409   -0.3300   -3.0952 S   0  0  0  0  0  0  0  0  0  0  0  0
   -1.9273    1.0030   -3.3802 C   0  0  0  0  0  0  0  0  0  0  0  0
    1.2790   -1.2290    0.9021 H   0  0  0  0  0  0  0  0  0  0  0  0
    0.3170    0.3030   -0.7009 H   0  0  0  0  0  0  0  0  0  0  0  0
   -2.2133    0.5451   -0.7092 H   0  0  0  0  0  0  0  0  0  0  0  0
   -2.3148   -0.9459    0.2279 H   0  0  0  0  0  0  0  0  0  0  0  0
   -2.6673   -1.4214   -2.1909 H   0  0  0  0  0  0  0  0  0  0  0  0
   -1.1652   -2.1907   -1.6495 H   0  0  0  0  0  0  0  0  0  0  0  0
   -1.5481    1.6800   -4.1495 H   0  0  0  0  0  0  0  0  0  0  0  0
   -2.0830    1.5651   -2.4560 H   0  0  0  0  0  0  0  0  0  0  0  0
   -2.8819    0.5859   -3.7100 H   0  0  0  0  0  0  0  0  0  0  0  0
    0.8847    1.2203    1.6916 N   0  0  0  0  0  0  0  0  0  0  0  0
    1.0950    2.1573    2.7701 C   0  0  2  0  0  0  0  0  0  0  0  0
    2.3060    3.0122    2.4209 C   0  0  0  0  0  0  0  0  0  0  0  0
    3.1744    2.6534    1.6283 O   0  0  0  0  0  0  0  0  0  0  0  0
    1.3003    1.4392    4.0948 C   0  0  0  0  0  0  0  0  0  0  0  0
    1.7012    0.7723    1.2862 H   0  0  0  0  0  0  0  0  0  0  0  0
    0.2021    2.7901    2.8179 H   0  0  0  0  0  0  0  0  0  0  0  0
    2.1905    0.8002    4.0661 H   0  0  0  0  0  0  0  0  0  0  0  0
    1.4312    2.1515    4.9161 H   0  0  0  0  0  0  0  0  0  0  0  0
    0.4411    0.8017    4.3299 H   0  0  0  0  0  0  0  0  0  0  0  0
    2.3254    4.2045    3.1311 N   0  0  0  0  0  0  0  0  0  0  0  0
    3.3791    5.1815    2.9856 C   0  0  0  0  0  0  0  0  0  0  0  0
    1.5542    4.4282    3.7530 H   0  0  0  0  0  0  0  0  0  0  0  0
    4.1586    4.9959    3.7391 H   0  0  0  0  0  0  0  0  0  0  0  0
    3.8159    5.1024    1.9791 H   0  0  0  0  0  0  0  0  0  0  0  0
    2.9652    6.1908    3.1273 H   0  0  0  0  0  0  0  0  0  0  0  0
  1  3  1  0  0  0  0
  1  7  1  0  0  0  0
  1  2  2  0  0  0  0
 35 36  1  0  0  0  0
 36 44  1  0  0  0  0
 36 37  2  0  0  0  0
  8  9  1  0  0  0  0
  9 17  1  0  0  0  0
  9 10  2  0  0  0  0
 18 19  1  0  0  0  0
 19 34  1  0  0  0  0
 19 20  2  0  0  0  0
 35 38  1  0  0  0  0
  8 11  1  0  0  0  0
 44 45  1  0  0  0  0
 23 24  1  0  0  0  0
 21 22  1  0  0  0  0
 18 21  1  0  0  0  0
 22 23  1  0  0  0  0
 34 35  1  0  0  0  0
  7  8  1  0  0  0  0
 17 18  1  0  0  0  0
  3  4  1  0  0  0  0
  3  5  1  0  0  0  0
  3  6  1  0  0  0  0
 38 41  1  0  0  0  0
 38 42  1  0  0  0  0
 38 43  1  0  0  0  0
 11 14  1  0  0  0  0
 11 15  1  0  0  0  0
 11 16  1  0  0  0  0
 45 47  1  0  0  0  0
 45 48  1  0  0  0  0
 45 49  1  0  0  0  0
 24 31  1  0  0  0  0
 24 32  1  0  0  0  0
 24 33  1  0  0  0  0
 21 27  1  0  0  0  0
 21 28  1  0  0  0  0
 22 29  1  0  0  0  0
 22 30  1  0  0  0  0
 35 40  1  0  0  0  0
  8 13  1  0  0  0  0
 18 26  1  0  0  0  0
 44 46  1  0  0  0  0
  7 12  1  0  0  0  0
 34 39  1  0  0  0  0
 17 25  1  0  0  0  0
M  END
$$$$

  -OEChem-05262214473D

 49 48  0     1  0  0  0  0  0999 V2000
   -0.0561   -5.3799    2.6949 C   0  0  0  0  0  0  0  0  0  0  0  0
    0.7325   -5.0736    3.5815 O   0  0  0  0  0  0  0  0  0  0  0  0
   -1.0067   -6.5099    2.9135 C   0  0  0  0  0  0  0  0  0  0  0  0
   -0.5910   -7.4777    2.5899 H   0  0  0  0  0  0  0  0  0  0  0  0
   -1.2629   -6.6440    3.9767 H   0  0  0  0  0  0  0  0  0  0  0  0
   -1.9729   -6.4206    2.3918 H   0  0  0  0  0  0  0  0  0  0  0  0
   -0.1735   -4.7694    1.4571 N   0  0  0  0  0  0  0  0  0  0  0  0
    0.6439   -3.6603    1.0409 C   0  0  2  0  0  0  0  0  0  0  0  0
   -0.2788   -2.5625    0.5280 C   0  0  0  0  0  0  0  0  0  0  0  0
   -1.4197   -2.7791    0.1251 O   0  0  0  0  0  0  0  0  0  0  0  0
    1.6395   -4.0779   -0.0301 C   0  0  0  0  0  0  0  0  0  0  0  0
   -0.8741   -5.1235    0.8083 H   0  0  0  0  0  0  0  0  0  0  0  0
    1.1738   -3.3062    1.9318 H   0  0  0  0  0  0  0  0  0  0  0  0
    1.1270   -4.4358   -0.9305 H   0  0  0  0  0  0  0  0  0  0  0  0
    2.2797   -3.2400   -0.3251 H   0  0  0  0  0  0  0  0  0  0  0  0
    2.2827   -4.8880    0.3303 H   0  0  0  0  0  0  0  0  0  0  0  0
    0.3351   -1.3153    0.5316 N   0  0  0  0  0  0  0  0  0  0  0  0
   -0.3268   -0.1184    0.0807 C   0  0  2  0  0  0  0  0  0  0  0  0
   -0.3800    0.8774    1.2353 C   0  0  0  0  0  0  0  0  0  0  0  0
   -1.4122    1.1312    1.8528 O   0  0  0  0  0  0  0  0  0  0  0  0
   -1.7101   -0.4119   -0.5162 C   0  0  0  0  0  0  0  0  0  0  0  0
   -1.6601   -1.2283   -1.8098 C   0  0  0  0  0  0  0  0  0  0  0  0
   -0.7409   -0.3300   -3.0952 S   0  0  0  0  0  0  0  0  0  0  0  0
   -1.9273    1.0030   -3.3802 C   0  0  0  0  0  0  0  0  0  0  0  0
    1.2790   -1.2290    0.9021 H   0  0  0  0  0  0  0  0  0  0  0  0
    0.3170    0.3030   -0.7009 H   0  0  0  0  0  0  0  0  0  0  0  0
   -2.2133    0.5451   -0.7092 H   0  0  0  0  0  0  0  0  0  0  0  0
   -2.3148   -0.9459    0.2279 H   0  0  0  0  0  0  0  0  0  0  0  0
   -2.6673   -1.4214   -2.1909 H   0  0  0  0  0  0  0  0  0  0  0  0
   -1.1652   -2.1907   -1.6495 H   0  0  0  0  0  0  0  0  0  0  0  0
   -1.5481    1.6800   -4.1495 H   0  0  0  0  0  0  0  0  0  0  0  0
   -2.0830    1.5651   -2.4560 H   0  0  0  0  0  0  0  0  0  0  0  0
   -2.8819    0.5859   -3.7100 H   0  0  0  0  0  0  0  0  0  0  0  0
    0.8509    1.4721    1.4728 N   0  0  0  0  0  0  0  0  0  0  0  0
    1.0510    2.4597    2.5072 C   0  0  2  0  0  0  0  0  0  0  0  0
    1.9941    3.5251    1.9641 C   0  0  0  0  0  0  0  0  0  0  0  0
    2.7702    3.3222    1.0328 O   0  0  0  0  0  0  0  0  0  0  0  0
    1.6132    1.8299    3.7722 C   0  0  0  0  0  0  0  0  0  0  0  0
    1.6596    1.1817    0.9312 H   0  0  0  0  0  0  0  0  0  0  0  0
    0.0721    2.9071    2.7110 H   0  0  0  0  0  0  0  0  0  0  0  0
    2.5939    1.3764    3.5877 H   0  0  0  0  0  0  0  0  0  0  0  0
    1.7375    2.5750    4.5649 H   0  0  0  0  0  0  0  0  0  0  0  0
    0.9481    1.0434    4.1447 H   0  0  0  0  0  0  0  0  0  0  0  0
    1.8977    4.7162    2.6700 N   0  0  0  0  0  0  0  0  0  0  0  0
    2.6989    5.8760    2.3553 C   0  0  0  0  0  0  0  0  0  0  0  0
    1.2132    4.8012    3.4156 H   0  0  0  0  0  0  0  0  0  0  0  0
    3.6150    5.8655    2.9640 H   0  0  0  0  0  0  0  0  0  0  0  0
    2.9673    5.8576    1.2887 H   0  0  0  0  0  0  0  0  0  0  0  0
    2.1244    6.7884    2.5731 H   0  0  0  0  0  0  0  0  0  0  0  0
  1  3  1  0  0  0  0
  1  7  1  0  0  0  0
  1  2  2  0  0  0  0
 35 36  1  0  0  0  0
 36 44  1  0  0  0  0
 36 37  2  0  0  0  0
  8  9  1  0  0  0  0
  9 17  1  0  0  0  0
  9 10  2  0  0  0  0
 18 19  1  0  0  0  0
 19 34  1  0  0  0  0
 19 20  2  0  0  0  0
 35 38  1  0  0  0  0
  8 11  1  0  0  0  0
 44 45  1  0  0  0  0
 23 24  1  0  0  0  0
 21 22  1  0  0  0  0
 18 21  1  0  0  0  0
 22 23  1  0  0  0  0
 34 35  1  0  0  0  0
  7  8  1  0  0  0  0
 17 18  1  0  0  0  0
  3  4  1  0  0  0  0
  3  5  1  0  0  0  0
  3  6  1  0  0  0  0
 38 41  1  0  0  0  0
 38 42  1  0  0  0  0
 38 43  1  0  0  0  0
 11 14  1  0  0  0  0
 11 15  1  0  0  0  0
 11 16  1  0  0  0  0
 45 47  1  0  0  0  0
 45 48  1  0  0  0  0
 45 49  1  0  0  0  0
 24 31  1  0  0  0  0
 24 32  1  0  0  0  0
 24 33  1  0  0  0  0
 21 27  1  0  0  0  0
 21 28  1  0  0  0  0
 22 29  1  0  0  0  0
 22 30  1  0  0  0  0
 35 40  1  0  0  0  0
  8 13  1  0  0  0  0
 18 26  1  0  0  0  0
 44 46  1  0  0  0  0
  7 12  1  0  0  0  0
 34 39  1  0  0  0  0
 17 25  1  0  0  0  0
M  END
$$$$

  -OEChem-05262214473D

 49 48  0     1  0  0  0  0  0999 V2000
   -0.0561   -5.3799    2.6949 C   0  0  0  0  0  0  0  0  0  0  0  0
    0.7325   -5.0736    3.5815 O   0  0  0  0  0  0  0  0  0  0  0  0
   -1.0067   -6.5099    2.9135 C   0  0  0  0  0  0  0  0  0  0  0  0
   -0.5910   -7.4777    2.5899 H   0  0  0  0  0  0  0  0  0  0  0  0
   -1.2629   -6.6440    3.9767 H   0  0  0  0  0  0  0  0  0  0  0  0
   -1.9729   -6.4206    2.3918 H   0  0  0  0  0  0  0  0  0  0  0  0
   -0.1735   -4.7694    1.4571 N   0  0  0  0  0  0  0  0  0  0  0  0
    0.6439   -3.6603    1.0409 C   0  0  2  0  0  0  0  0  0  0  0  0
   -0.2788   -2.5625    0.5280 C   0  0  0  0  0  0  0  0  0  0  0  0
   -1.4197   -2.7791    0.1251 O   0  0  0  0  0  0  0  0  0  0  0  0
    1.6395   -4.0779   -0.0301 C   0  0  0  0  0  0  0  0  0  0  0  0
   -0.8741   -5.1235    0.8083 H   0  0  0  0  0  0  0  0  0  0  0  0
    1.1738   -3.3062    1.9318 H   0  0  0  0  0  0  0  0  0  0  0  0
    1.1270   -4.4358   -0.9305 H   0  0  0  0  0  0  0  0  0  0  0  0
    2.2797   -3.2400   -0.3251 H   0  0  0  0  0  0  0  0  0  0  0  0
    2.2827   -4.8880    0.3303 H   0  0  0  0  0  0  0  0  0  0  0  0
    0.3351   -1.3153    0.5316 N   0  0  0  0  0  0  0  0  0  0  0  0
   -0.3268   -0.1184    0.0807 C   0  0  2  0  0  0  0  0  0  0  0  0
   -0.3800    0.8774    1.2353 C   0  0  0  0  0  0  0  0  0  0  0  0
   -1.3232    0.9408    2.0211 O   0  0  0  0  0  0  0  0  0  0  0  0
   -1.7101   -0.4119   -0.5162 C   0  0  0  0  0  0  0  0  0  0  0  0
   -1.6601   -1.2283   -1.8098 C   0  0  0  0  0  0  0  0  0  0  0  0
   -0.7409   -0.3300   -3.0952 S   0  0  0  0  0  0  0  0  0  0  0  0
   -1.9273    1.0030   -3.3802 C   0  0  0  0  0  0  0  0  0  0  0  0
    1.2790   -1.2290    0.9021 H   0  0  0  0  0  0  0  0  0  0  0  0
    0.3170    0.3030   -0.7009 H   0  0  0  0  0  0  0  0  0  0  0  0
   -2.2133    0.5451   -0.7092 H   0  0  0  0  0  0  0  0  0  0  0  0
   -2.3148   -0.9459    0.2279 H   0  0  0  0  0  0  0  0  0  0  0  0
   -2.6673   -1.4214   -2.1909 H   0  0  0  0  0  0  0  0  0  0  0  0
   -1.1652   -2.1907   -1.6495 H   0  0  0  0  0  0  0  0  0  0  0  0
   -1.5481    1.6800   -4.1495 H   0  0  0  0  0  0  0  0  0  0  0  0
   -2.0830    1.5651   -2.4560 H   0  0  0  0  0  0  0  0  0  0  0  0
   -2.8819    0.5859   -3.7100 H   0  0  0  0  0  0  0  0  0  0  0  0
    0.7320    1.7067    1.2649 N   0  0  0  0  0  0  0  0  0  0  0  0
    0.9049    2.7408    2.2580 C   0  0  2  0  0  0  0  0  0  0  0  0
    1.5151    3.9554    1.5710 C   0  0  0  0  0  0  0  0  0  0  0  0
    2.1483    3.8838    0.5198 O   0  0  0  0  0  0  0  0  0  0  0  0
    1.7844    2.2657    3.4042 C   0  0  0  0  0  0  0  0  0  0  0  0
    1.4793    1.5658    0.5916 H   0  0  0  0  0  0  0  0  0  0  0  0
   -0.0944    2.9938    2.6286 H   0  0  0  0  0  0  0  0  0  0  0  0
    2.7899    2.0076    3.0522 H   0  0  0  0  0  0  0  0  0  0  0  0
    1.8912    3.0410    4.1700 H   0  0  0  0  0  0  0  0  0  0  0  0
    1.3592    1.3745    3.8781 H   0  0  0  0  0  0  0  0  0  0  0  0
    1.3064    5.1226    2.2922 N   0  0  0  0  0  0  0  0  0  0  0  0
    1.7994    6.4079    1.8551 C   0  0  0  0  0  0  0  0  0  0  0  0
    0.7538    5.0916    3.1440 H   0  0  0  0  0  0  0  0  0  0  0  0
    2.7887    6.5921    2.2993 H   0  0  0  0  0  0  0  0  0  0  0  0
    1.8830    6.4146    0.7583 H   0  0  0  0  0  0  0  0  0  0  0  0
    1.1016    7.1960    2.1745 H   0  0  0  0  0  0  0  0  0  0  0  0
  1  3  1  0  0  0  0
  1  7  1  0  0  0  0
  1  2  2  0  0  0  0
 35 36  1  0  0  0  0
 36 44  1  0  0  0  0
 36 37  2  0  0  0  0
  8  9  1  0  0  0  0
  9 17  1  0  0  0  0
  9 10  2  0  0  0  0
 18 19  1  0  0  0  0
 19 34  1  0  0  0  0
 19 20  2  0  0  0  0
 35 38  1  0  0  0  0
  8 11  1  0  0  0  0
 44 45  1  0  0  0  0
 23 24  1  0  0  0  0
 21 22  1  0  0  0  0
 18 21  1  0  0  0  0
 22 23  1  0  0  0  0
 34 35  1  0  0  0  0
  7  8  1  0  0  0  0
 17 18  1  0  0  0  0
  3  4  1  0  0  0  0
  3  5  1  0  0  0  0
  3  6  1  0  0  0  0
 38 41  1  0  0  0  0
 38 42  1  0  0  0  0
 38 43  1  0  0  0  0
 11 14  1  0  0  0  0
 11 15  1  0  0  0  0
 11 16  1  0  0  0  0
 45 47  1  0  0  0  0
 45 48  1  0  0  0  0
 45 49  1  0  0  0  0
 24 31  1  0  0  0  0
 24 32  1  0  0  0  0
 24 33  1  0  0  0  0
 21 27  1  0  0  0  0
 21 28  1  0  0  0  0
 22 29  1  0  0  0  0
 22 30  1  0  0  0  0
 35 40  1  0  0  0  0
  8 13  1  0  0  0  0
 18 26  1  0  0  0  0
 44 46  1  0  0  0  0
  7 12  1  0  0  0  0
 34 39  1  0  0  0  0
 17 25  1  0  0  0  0
M  END
$$$$

  -OEChem-05262214473D

 49 48  0     1  0  0  0  0  0999 V2000
   -0.0561   -5.3799    2.6949 C   0  0  0  0  0  0  0  0  0  0  0  0
    0.7325   -5.0736    3.5815 O   0  0  0  0  0  0  0  0  0  0  0  0
   -1.0067   -6.5099    2.9135 C   0  0  0  0  0  0  0  0  0  0  0  0
   -0.5910   -7.4777    2.5899 H   0  0  0  0  0  0  0  0  0  0  0  0
   -1.2629   -6.6440    3.9767 H   0  0  0  0  0  0  0  0  0  0  0  0
   -1.9729   -6.4206    2.3918 H   0  0  0  0  0  0  0  0  0  0  0  0
   -0.1735   -4.7694    1.4571 N   0  0  0  0  0  0  0  0  0  0  0  0
    0.6439   -3.6603    1.0409 C   0  0  2  0  0  0  0  0  0  0  0  0
   -0.2788   -2.5625    0.5280 C   0  0  0  0  0  0  0  0  0  0  0  0
   -1.4197   -2.7791    0.1251 O   0  0  0  0  0  0  0  0  0  0  0  0
    1.6395   -4.0779   -0.0301 C   0  0  0  0  0  0  0  0  0  0  0  0
   -0.8741   -5.1235    0.8083 H   0  0  0  0  0  0  0  0  0  0  0  0
    1.1738   -3.3062    1.9318 H   0  0  0  0  0  0  0  0  0  0  0  0
    1.1270   -4.4358   -0.9305 H   0  0  0  0  0  0  0  0  0  0  0  0
    2.2797   -3.2400   -0.3251 H   0  0  0  0  0  0  0  0  0  0  0  0
    2.2827   -4.8880    0.3303 H   0  0  0  0  0  0  0  0  0  0  0  0
    0.3351   -1.3153    0.5316 N   0  0  0  0  0  0  0  0  0  0  0  0
   -0.3268   -0.1184    0.0807 C   0  0  2  0  0  0  0  0  0  0  0  0
   -0.3800    0.8774    1.2353 C   0  0  0  0  0  0  0  0  0  0  0  0
   -1.1715    0.7759    2.1704 O   0  0  0  0  0  0  0  0  0  0  0  0
   -1.7101   -0.4119   -0.5162 C   0  0  0  0  0  0  0  0  0  0  0  0
   -1.6601   -1.2283   -1.8098 C   0  0  0  0  0  0  0  0  0  0  0  0
   -0.7409   -0.3300   -3.0952 S   0  0  0  0  0  0  0  0  0  0  0  0
   -1.9273    1.0030   -3.3802 C   0  0  0  0  0  0  0  0  0  0  0  0
    1.2790   -1.2290    0.9021 H   0  0  0  0  0  0  0  0  0  0  0  0
    0.3170    0.3030   -0.7009 H   0  0  0  0  0  0  0  0  0  0  0  0
   -2.2133    0.5451   -0.7092 H   0  0  0  0  0  0  0  0  0  0  0  0
   -2.3148   -0.9459    0.2279 H   0  0  0  0  0  0  0  0  0  0  0  0
   -2.6673   -1.4214   -2.1909 H   0  0  0  0  0  0  0  0  0  0  0  0
   -1.1652   -2.1907   -1.6495 H   0  0  0  0  0  0  0  0  0  0  0  0
   -1.5481    1.6800   -4.1495 H   0  0  0  0  0  0  0  0  0  0  0  0
   -2.0830    1.5651   -2.4560 H   0  0  0  0  0  0  0  0  0  0  0  0
   -2.8819    0.5859   -3.7100 H   0  0  0  0  0  0  0  0  0  0  0  0
    0.5361    1.9082    1.0821 N   0  0  0  0  0  0  0  0  0  0  0  0
    0.6667    2.9815    2.0395 C   0  0  2  0  0  0  0  0  0  0  0  0
    0.9018    4.2736    1.2683 C   0  0  0  0  0  0  0  0  0  0  0  0
    1.3508    4.2997    0.1243 O   0  0  0  0  0  0  0  0  0  0  0  0
    1.8022    2.7169    3.0158 C   0  0  0  0  0  0  0  0  0  0  0  0
    1.1725    1.8984    0.2906 H   0  0  0  0  0  0  0  0  0  0  0  0
   -0.2862    3.0441    2.5763 H   0  0  0  0  0  0  0  0  0  0  0  0
    2.7651    2.6509    2.4963 H   0  0  0  0  0  0  0  0  0  0  0  0
    1.8816    3.5177    3.7585 H   0  0  0  0  0  0  0  0  0  0  0  0
    1.6464    1.7724    3.5481 H   0  0  0  0  0  0  0  0  0  0  0  0
    0.5918    5.3959    2.0236 N   0  0  0  0  0  0  0  0  0  0  0  0
    0.7418    6.7409    1.5191 C   0  0  0  0  0  0  0  0  0  0  0  0
    0.2072    5.2798    2.9565 H   0  0  0  0  0  0  0  0  0  0  0  0
    1.7359    7.1260    1.7903 H   0  0  0  0  0  0  0  0  0  0  0  0
    0.6370    6.7355    0.4242 H   0  0  0  0  0  0  0  0  0  0  0  0
   -0.0335    7.3858    1.9585 H   0  0  0  0  0  0  0  0  0  0  0  0
  1  3  1  0  0  0  0
  1  7  1  0  0  0  0
  1  2  2  0  0  0  0
 35 36  1  0  0  0  0
 36 44  1  0  0  0  0
 36 37  2  0  0  0  0
  8  9  1  0  0  0  0
  9 17  1  0  0  0  0
  9 10  2  0  0  0  0
 18 19  1  0  0  0  0
 19 34  1  0  0  0  0
 19 20  2  0  0  0  0
 35 38  1  0  0  0  0
  8 11  1  0  0  0  0
 44 45  1  0  0  0  0
 23 24  1  0  0  0  0
 21 22  1  0  0  0  0
 18 21  1  0  0  0  0
 22 23  1  0  0  0  0
 34 35  1  0  0  0  0
  7  8  1  0  0  0  0
 17 18  1  0  0  0  0
  3  4  1  0  0  0  0
  3  5  1  0  0  0  0
  3  6  1  0  0  0  0
 38 41  1  0  0  0  0
 38 42  1  0  0  0  0
 38 43  1  0  0  0  0
 11 14  1  0  0  0  0
 11 15  1  0  0  0  0
 11 16  1  0  0  0  0
 45 47  1  0  0  0  0
 45 48  1  0  0  0  0
 45 49  1  0  0  0  0
 24 31  1  0  0  0  0
 24 32  1  0  0  0  0
 24 33  1  0  0  0  0
 21 27  1  0  0  0  0
 21 28  1  0  0  0  0
 22 29  1  0  0  0  0
 22 30  1  0  0  0  0
 35 40  1  0  0  0  0
  8 13  1  0  0  0  0
 18 26  1  0  0  0  0
 44 46  1  0  0  0  0
  7 12  1  0  0  0  0
 34 39  1  0  0  0  0
 17 25  1  0  0  0  0
M  END
$$$$

  -OEChem-05262214473D

 49 48  0     1  0  0  0  0  0999 V2000
   -0.0561   -5.3799    2.6949 C   0  0  0  0  0  0  0  0  0  0  0  0
    0.7325   -5.0736    3.5815 O   0  0  0  0  0  0  0  0  0  0  0  0
   -1.0067   -6.5099    2.9135 C   0  0  0  0  0  0  0  0  0  0  0  0
   -0.5910   -7.4777    2.5899 H   0  0  0  0  0  0  0  0  0  0  0  0
   -1.2629   -6.6440    3.9767 H   0  0  0  0  0  0  0  0  0  0  0  0
   -1.9729   -6.4206    2.3918 H   0  0  0  0  0  0  0  0  0  0  0  0
   -0.1735   -4.7694    1.4571 N   0  0  0  0  0  0  0  0  0  0  0  0
    0.6439   -3.6603    1.0409 C   0  0  2  0  0  0  0  0  0  0  0  0
   -0.2788   -2.5625    0.5280 C   0  0  0  0  0  0  0  0  0  0  0  0
   -1.4197   -2.7791    0.1251 O   0  0  0  0  0  0  0  0  0  0  0  0
    1.6395   -4.0779   -0.0301 C   0  0  0  0  0  0  0  0  0  0  0  0
   -0.8741   -5.1235    0.8083 H   0  0  0  0  0  0  0  0  0  0  0  0
    1.1738   -3.3062    1.9318 H   0  0  0  0  0  0  0  0  0  0  0  0
    1.1270   -4.4358   -0.9305 H   0  0  0  0  0  0  0  0  0  0  0  0
    2.2797   -3.2400   -0.3251 H   0  0  0  0  0  0  0  0  0  0  0  0
    2.2827   -4.8880    0.3303 H   0  0  0  0  0  0  0  0  0  0  0  0
    0.3351   -1.3153    0.5316 N   0  0  0  0  0  0  0  0  0  0  0  0
   -0.3268   -0.1184    0.0807 C   0  0  2  0  0  0  0  0  0  0  0  0
   -0.3800    0.8774    1.2353 C   0  0  0  0  0  0  0  0  0  0  0  0
   -0.9675    0.6476    2.2904 O   0  0  0  0  0  0  0  0  0  0  0  0
   -1.7101   -0.4119   -0.5162 C   0  0  0  0  0  0  0  0  0  0  0  0
   -1.6601   -1.2283   -1.8098 C   0  0  0  0  0  0  0  0  0  0  0  0
   -0.7409   -0.3300   -3.0952 S   0  0  0  0  0  0  0  0  0  0  0  0
   -1.9273    1.0030   -3.3802 C   0  0  0  0  0  0  0  0  0  0  0  0
    1.2790   -1.2290    0.9021 H   0  0  0  0  0  0  0  0  0  0  0  0
    0.3170    0.3030   -0.7009 H   0  0  0  0  0  0  0  0  0  0  0  0
   -2.2133    0.5451   -0.7092 H   0  0  0  0  0  0  0  0  0  0  0  0
   -2.3148   -0.9459    0.2279 H   0  0  0  0  0  0  0  0  0  0  0  0
   -2.6673   -1.4214   -2.1909 H   0  0  0  0  0  0  0  0  0  0  0  0
   -1.1652   -2.1907   -1.6495 H   0  0  0  0  0  0  0  0  0  0  0  0
   -1.5481    1.6800   -4.1495 H   0  0  0  0  0  0  0  0  0  0  0  0
   -2.0830    1.5651   -2.4560 H   0  0  0  0  0  0  0  0  0  0  0  0
   -2.8819    0.5859   -3.7100 H   0  0  0  0  0  0  0  0  0  0  0  0
    0.2765    2.0628    0.9368 N   0  0  0  0  0  0  0  0  0  0  0  0
    0.3524    3.1653    1.8664 C   0  0  2  0  0  0  0  0  0  0  0  0
    0.1959    4.4581    1.0767 C   0  0  0  0  0  0  0  0  0  0  0  0
    0.4322    4.5417   -0.1268 O   0  0  0  0  0  0  0  0  0  0  0  0
    1.6654    3.1527    2.6337 C   0  0  0  0  0  0  0  0  0  0  0  0
    0.7601    2.1569    0.0486 H   0  0  0  0  0  0  0  0  0  0  0  0
   -0.4901    3.0547    2.5578 H   0  0  0  0  0  0  0  0  0  0  0  0
    2.5212    3.2624    1.9576 H   0  0  0  0  0  0  0  0  0  0  0  0
    1.7094    3.9725    3.3583 H   0  0  0  0  0  0  0  0  0  0  0  0
    1.7901    2.2100    3.1773 H   0  0  0  0  0  0  0  0  0  0  0  0
   -0.1973    5.5175    1.8824 N   0  0  0  0  0  0  0  0  0  0  0  0
   -0.4017    6.8524    1.3703 C   0  0  0  0  0  0  0  0  0  0  0  0
   -0.3892    5.3527    2.8661 H   0  0  0  0  0  0  0  0  0  0  0  0
    0.5284    7.4310    1.4717 H   0  0  0  0  0  0  0  0  0  0  0  0
   -0.6858    6.7984    0.3090 H   0  0  0  0  0  0  0  0  0  0  0  0
   -1.2035    7.3448    1.9400 H   0  0  0  0  0  0  0  0  0  0  0  0
  1  3  1  0  0  0  0
  1  7  1  0  0  0  0
  1  2  2  0  0  0  0
 35 36  1  0  0  0  0
 36 44  1  0  0  0  0
 36 37  2  0  0  0  0
  8  9  1  0  0  0  0
  9 17  1  0  0  0  0
  9 10  2  0  0  0  0
 18 19  1  0  0  0  0
 19 34  1  0  0  0  0
 19 20  2  0  0  0  0
 35 38  1  0  0  0  0
  8 11  1  0  0  0  0
 44 45  1  0  0  0  0
 23 24  1  0  0  0  0
 21 22  1  0  0  0  0
 18 21  1  0  0  0  0
 22 23  1  0  0  0  0
 34 35  1  0  0  0  0
  7  8  1  0  0  0  0
 17 18  1  0  0  0  0
  3  4  1  0  0  0  0
  3  5  1  0  0  0  0
  3  6  1  0  0  0  0
 38 41  1  0  0  0  0
 38 42  1  0  0  0  0
 38 43  1  0  0  0  0
 11 14  1  0  0  0  0
 11 15  1  0  0  0  0
 11 16  1  0  0  0  0
 45 47  1  0  0  0  0
 45 48  1  0  0  0  0
 45 49  1  0  0  0  0
 24 31  1  0  0  0  0
 24 32  1  0  0  0  0
 24 33  1  0  0  0  0
 21 27  1  0  0  0  0
 21 28  1  0  0  0  0
 22 29  1  0  0  0  0
 22 30  1  0  0  0  0
 35 40  1  0  0  0  0
  8 13  1  0  0  0  0
 18 26  1  0  0  0  0
 44 46  1  0  0  0  0
  7 12  1  0  0  0  0
 34 39  1  0  0  0  0
 17 25  1  0  0  0  0
M  END
$$$$

  -OEChem-05262214473D

 49 48  0     1  0  0  0  0  0999 V2000
   -0.0561   -5.3799    2.6949 C   0  0  0  0  0  0  0  0  0  0  0  0
    0.7325   -5.0736    3.5815 O   0  0  0  0  0  0  0  0  0  0  0  0
   -1.0067   -6.5099    2.9135 C   0  0  0  0  0  0  0  0  0  0  0  0
   -0.5910   -7.4777    2.5899 H   0  0  0  0  0  0  0  0  0  0  0  0
   -1.2629   -6.6440    3.9767 H   0  0  0  0  0  0  0  0  0  0  0  0
   -1.9729   -6.4206    2.3918 H   0  0  0  0  0  0  0  0  0  0  0  0
   -0.1735   -4.7694    1.4571 N   0  0  0  0  0  0  0  0  0  0  0  0
    0.6439   -3.6603    1.0409 C   0  0  2  0  0  0  0  0  0  0  0  0
   -0.2788   -2.5625    0.5280 C   0  0  0  0  0  0  0  0  0  0  0  0
   -1.4197   -2.7791    0.1251 O   0  0  0  0  0  0  0  0  0  0  0  0
    1.6395   -4.0779   -0.0301 C   0  0  0  0  0  0  0  0  0  0  0  0
   -0.8741   -5.1235    0.8083 H   0  0  0  0  0  0  0  0  0  0  0  0
    1.1738   -3.3062    1.9318 H   0  0  0  0  0  0  0  0  0  0  0  0
    1.1270   -4.4358   -0.9305 H   0  0  0  0  0  0  0  0  0  0  0  0
    2.2797   -3.2400   -0.3251 H   0  0  0  0  0  0  0  0  0  0  0  0
    2.2827   -4.8880    0.3303 H   0  0  0  0  0  0  0  0  0  0  0  0
    0.3351   -1.3153    0.5316 N   0  0  0  0  0  0  0  0  0  0  0  0
   -0.3268   -0.1184    0.0807 C   0  0  2  0  0  0  0  0  0  0  0  0
   -0.3800    0.8774    1.2353 C   0  0  0  0  0  0  0  0  0  0  0  0
   -0.7250    0.5648    2.3730 O   0  0  0  0  0  0  0  0  0  0  0  0
   -1.7101   -0.4119   -0.5162 C   0  0  0  0  0  0  0  0  0  0  0  0
   -1.6601   -1.2283   -1.8098 C   0  0  0  0  0  0  0  0  0  0  0  0
   -0.7409   -0.3300   -3.0952 S   0  0  0  0  0  0  0  0  0  0  0  0
   -1.9273    1.0030   -3.3802 C   0  0  0  0  0  0  0  0  0  0  0  0
    1.2790   -1.2290    0.9021 H   0  0  0  0  0  0  0  0  0  0  0  0
    0.3170    0.3030   -0.7009 H   0  0  0  0  0  0  0  0  0  0  0  0
   -2.2133    0.5451   -0.7092 H   0  0  0  0  0  0  0  0  0  0  0  0
   -2.3148   -0.9459    0.2279 H   0  0  0  0  0  0  0  0  0  0  0  0
   -2.6673   -1.4214   -2.1909 H   0  0  0  0  0  0  0  0  0  0  0  0
   -1.1652   -2.1907   -1.6495 H   0  0  0  0  0  0  0  0  0  0  0  0
   -1.5481    1.6800   -4.1495 H   0  0  0  0  0  0  0  0  0  0  0  0
   -2.0830    1.5651   -2.4560 H   0  0  0  0  0  0  0  0  0  0  0  0
   -2.8819    0.5859   -3.7100 H   0  0  0  0  0  0  0  0  0  0  0  0
   -0.0291    2.1600    0.8389 N   0  0  0  0  0  0  0  0  0  0  0  0
   -0.0163    3.2798    1.7507 C   0  0  2  0  0  0  0  0  0  0  0  0
   -0.5545    4.4963    1.0091 C   0  0  0  0  0  0  0  0  0  0  0  0
   -0.5448    4.5933   -0.2162 O   0  0  0  0  0  0  0  0  0  0  0  0
    1.3834    3.5434    2.2837 C   0  0  0  0  0  0  0  0  0  0  0  0
    0.2703    2.3236   -0.1177 H   0  0  0  0  0  0  0  0  0  0  0  0
   -0.6923    3.0248    2.5742 H   0  0  0  0  0  0  0  0  0  0  0  0
    2.0748    3.8005    1.4730 H   0  0  0  0  0  0  0  0  0  0  0  0
    1.3865    4.3745    2.9967 H   0  0  0  0  0  0  0  0  0  0  0  0
    1.7806    2.6575    2.7909 H   0  0  0  0  0  0  0  0  0  0  0  0
   -1.0072    5.4791    1.8782 N   0  0  0  0  0  0  0  0  0  0  0  0
   -1.5532    6.7349    1.4187 C   0  0  0  0  0  0  0  0  0  0  0  0
   -0.9949    5.3056    2.8789 H   0  0  0  0  0  0  0  0  0  0  0  0
   -0.7515    7.4861    1.3652 H   0  0  0  0  0  0  0  0  0  0  0  0
   -1.9954    6.5990    0.4207 H   0  0  0  0  0  0  0  0  0  0  0  0
   -2.3289    7.0759    2.1201 H   0  0  0  0  0  0  0  0  0  0  0  0
  1  3  1  0  0  0  0
  1  7  1  0  0  0  0
  1  2  2  0  0  0  0
 35 36  1  0  0  0  0
 36 44  1  0  0  0  0
 36 37  2  0  0  0  0
  8  9  1  0  0  0  0
  9 17  1  0  0  0  0
  9 10  2  0  0  0  0
 18 19  1  0  0  0  0
 19 34  1  0  0  0  0
 19 20  2  0  0  0  0
 35 38  1  0  0  0  0
  8 11  1  0  0  0  0
 44 45  1  0  0  0  0
 23 24  1  0  0  0  0
 21 22  1  0  0  0  0
 18 21  1  0  0  0  0
 22 23  1  0  0  0  0
 34 35  1  0  0  0  0
  7  8  1  0  0  0  0
 17 18  1  0  0  0  0
  3  4  1  0  0  0  0
  3  5  1  0  0  0  0
  3  6  1  0  0  0  0
 38 41  1  0  0  0  0
 38 42  1  0  0  0  0
 38 43  1  0  0  0  0
 11 14  1  0  0  0  0
 11 15  1  0  0  0  0
 11 16  1  0  0  0  0
 45 47  1  0  0  0  0
 45 48  1  0  0  0  0
 45 49  1  0  0  0  0
 24 31  1  0  0  0  0
 24 32  1  0  0  0  0
 24 33  1  0  0  0  0
 21 27  1  0  0  0  0
 21 28  1  0  0  0  0
 22 29  1  0  0  0  0
 22 30  1  0  0  0  0
 35 40  1  0  0  0  0
  8 13  1  0  0  0  0
 18 26  1  0  0  0  0
 44 46  1  0  0  0  0
  7 12  1  0  0  0  0
 34 39  1  0  0  0  0
 17 25  1  0  0  0  0
M  END
$$$$

  -OEChem-05262214473D

 49 48  0     1  0  0  0  0  0999 V2000
   -0.0561   -5.3799    2.6949 C   0  0  0  0  0  0  0  0  0  0  0  0
    0.7325   -5.0736    3.5815 O   0  0  0  0  0  0  0  0  0  0  0  0
   -1.0067   -6.5099    2.9135 C   0  0  0  0  0  0  0  0  0  0  0  0
   -0.5910   -7.4777    2.5899 H   0  0  0  0  0  0  0  0  0  0  0  0
   -1.2629   -6.6440    3.9767 H   0  0  0  0  0  0  0  0  0  0  0  0
   -1.9729   -6.4206    2.3918 H   0  0  0  0  0  0  0  0  0  0  0  0
   -0.1735   -4.7694    1.4571 N   0  0  0  0  0  0  0  0  0  0  0  0
    0.6439   -3.6603    1.0409 C   0  0  2  0  0  0  0  0  0  0  0  0
   -0.2788   -2.5625    0.5280 C   0  0  0  0  0  0  0  0  0  0  0  0
   -1.4197   -2.7791    0.1251 O   0  0  0  0  0  0  0  0  0  0  0  0
    1.6395   -4.0779   -0.0301 C   0  0  0  0  0  0  0  0  0  0  0  0
   -0.8741   -5.1235    0.8083 H   0  0  0  0  0  0  0  0  0  0  0  0
    1.1738   -3.3062    1.9318 H   0  0  0  0  0  0  0  0  0  0  0  0
    1.1270   -4.4358   -0.9305 H   0  0  0  0  0  0  0  0  0  0  0  0
    2.2797   -3.2400   -0.3251 H   0  0  0  0  0  0  0  0  0  0  0  0
    2.2827   -4.8880    0.3303 H   0  0  0  0  0  0  0  0  0  0  0  0
    0.3351   -1.3153    0.5316 N   0  0  0  0  0  0  0  0  0  0  0  0
   -0.3268   -0.1184    0.0807 C   0  0  2  0  0  0  0  0  0  0  0  0
   -0.3800    0.8774    1.2353 C   0  0  0  0  0  0  0  0  0  0  0  0
   -0.4606    0.5330    2.4126 O   0  0  0  0  0  0  0  0  0  0  0  0
   -1.7101   -0.4119   -0.5162 C   0  0  0  0  0  0  0  0  0  0  0  0
   -1.6601   -1.2283   -1.8098 C   0  0  0  0  0  0  0  0  0  0  0  0
   -0.7409   -0.3300   -3.0952 S   0  0  0  0  0  0  0  0  0  0  0  0
   -1.9273    1.0030   -3.3802 C   0  0  0  0  0  0  0  0  0  0  0  0
    1.2790   -1.2290    0.9021 H   0  0  0  0  0  0  0  0  0  0  0  0
    0.3170    0.3030   -0.7009 H   0  0  0  0  0  0  0  0  0  0  0  0
   -2.2133    0.5451   -0.7092 H   0  0  0  0  0  0  0  0  0  0  0  0
   -2.3148   -0.9459    0.2279 H   0  0  0  0  0  0  0  0  0  0  0  0
   -2.6673   -1.4214   -2.1909 H   0  0  0  0  0  0  0  0  0  0  0  0
   -1.1652   -2.1907   -1.6495 H   0  0  0  0  0  0  0  0  0  0  0  0
   -1.5481    1.6800   -4.1495 H   0  0  0  0  0  0  0  0  0  0  0  0
   -2.0830    1.5651   -2.4560 H   0  0  0  0  0  0  0  0  0  0  0  0
   -2.8819    0.5859   -3.7100 H   0  0  0  0  0  0  0  0  0  0  0  0
   -0.3599    2.1931    0.7951 N   0  0  0  0  0  0  0  0  0  0  0  0
   -0.4145    3.3171    1.7002 C   0  0  2  0  0  0  0  0  0  0  0  0
   -1.2982    4.3856    1.0703 C   0  0  0  0  0  0  0  0  0  0  0  0
   -1.5139    4.4510   -0.1381 O   0  0  0  0  0  0  0  0  0  0  0  0
    0.9753    3.8624    1.9898 C   0  0  0  0  0  0  0  0  0  0  0  0
   -0.2636    2.3872   -0.1972 H   0  0  0  0  0  0  0  0  0  0  0  0
   -0.8789    2.9565    2.6246 H   0  0  0  0  0  0  0  0  0  0  0  0
    1.4564    4.2284    1.0754 H   0  0  0  0  0  0  0  0  0  0  0  0
    0.9347    4.6962    2.6983 H   0  0  0  0  0  0  0  0  0  0  0  0
    1.6184    3.0844    2.4152 H   0  0  0  0  0  0  0  0  0  0  0  0
   -1.7828    5.2834    2.0113 N   0  0  0  0  0  0  0  0  0  0  0  0
   -2.6343    6.3962    1.6610 C   0  0  0  0  0  0  0  0  0  0  0  0
   -1.5685    5.1415    2.9940 H   0  0  0  0  0  0  0  0  0  0  0  0
   -2.0166    7.2878    1.4780 H   0  0  0  0  0  0  0  0  0  0  0  0
   -3.2024    6.1509    0.7516 H   0  0  0  0  0  0  0  0  0  0  0  0
   -3.3327    6.5973    2.4867 H   0  0  0  0  0  0  0  0  0  0  0  0
  1  3  1  0  0  0  0
  1  7  1  0  0  0  0
  1  2  2  0  0  0  0
 35 36  1  0  0  0  0
 36 44  1  0  0  0  0
 36 37  2  0  0  0  0
  8  9  1  0  0  0  0
  9 17  1  0  0  0  0
  9 10  2  0  0  0  0
 18 19  1  0  0  0  0
 19 34  1  0  0  0  0
 19 20  2  0  0  0  0
 35 38  1  0  0  0  0
  8 11  1  0  0  0  0
 44 45  1  0  0  0  0
 23 24  1  0  0  0  0
 21 22  1  0  0  0  0
 18 21  1  0  0  0  0
 22 23  1  0  0  0  0
 34 35  1  0  0  0  0
  7  8  1  0  0  0  0
 17 18  1  0  0  0  0
  3  4  1  0  0  0  0
  3  5  1  0  0  0  0
  3  6  1  0  0  0  0
 38 41  1  0  0  0  0
 38 42  1  0  0  0  0
 38 43  1  0  0  0  0
 11 14  1  0  0  0  0
 11 15  1  0  0  0  0
 11 16  1  0  0  0  0
 45 47  1  0  0  0  0
 45 48  1  0  0  0  0
 45 49  1  0  0  0  0
 24 31  1  0  0  0  0
 24 32  1  0  0  0  0
 24 33  1  0  0  0  0
 21 27  1  0  0  0  0
 21 28  1  0  0  0  0
 22 29  1  0  0  0  0
 22 30  1  0  0  0  0
 35 40  1  0  0  0  0
  8 13  1  0  0  0  0
 18 26  1  0  0  0  0
 44 46  1  0  0  0  0
  7 12  1  0  0  0  0
 34 39  1  0  0  0  0
 17 25  1  0  0  0  0
M  END
$$$$

  -OEChem-05262214473D

 49 48  0     1  0  0  0  0  0999 V2000
   -0.0561   -5.3799    2.6949 C   0  0  0  0  0  0  0  0  0  0  0  0
    0.7325   -5.0736    3.5815 O   0  0  0  0  0  0  0  0  0  0  0  0
   -1.0067   -6.5099    2.9135 C   0  0  0  0  0  0  0  0  0  0  0  0
   -0.5910   -7.4777    2.5899 H   0  0  0  0  0  0  0  0  0  0  0  0
   -1.2629   -6.6440    3.9767 H   0  0  0  0  0  0  0  0  0  0  0  0
   -1.9729   -6.4206    2.3918 H   0  0  0  0  0  0  0  0  0  0  0  0
   -0.1735   -4.7694    1.4571 N   0  0  0  0  0  0  0  0  0  0  0  0
    0.6439   -3.6603    1.0409 C   0  0  2  0  0  0  0  0  0  0  0  0
   -0.2788   -2.5625    0.5280 C   0  0  0  0  0  0  0  0  0  0  0  0
   -1.4197   -2.7791    0.1251 O   0  0  0  0  0  0  0  0  0  0  0  0
    1.6395   -4.0779   -0.0301 C   0  0  0  0  0  0  0  0  0  0  0  0
   -0.8741   -5.1235    0.8083 H   0  0  0  0  0  0  0  0  0  0  0  0
    1.1738   -3.3062    1.9318 H   0  0  0  0  0  0  0  0  0  0  0  0
    1.1270   -4.4358   -0.9305 H   0  0  0  0  0  0  0  0  0  0  0  0
    2.2797   -3.2400   -0.3251 H   0  0  0  0  0  0  0  0  0  0  0  0
    2.2827   -4.8880    0.3303 H   0  0  0  0  0  0  0  0  0  0  0  0
    0.3351   -1.3153    0.5316 N   0  0  0  0  0  0  0  0  0  0  0  0
   -0.3268   -0.1184    0.0807 C   0  0  2  0  0  0  0  0  0  0  0  0
   -0.3800    0.8774    1.2353 C   0  0  0  0  0  0  0  0  0  0  0  0
   -0.1922    0.5544    2.4065 O   0  0  0  0  0  0  0  0  0  0  0  0
   -1.7101   -0.4119   -0.5162 C   0  0  0  0  0  0  0  0  0  0  0  0
   -1.6601   -1.2283   -1.8098 C   0  0  0  0  0  0  0  0  0  0  0  0
   -0.7409   -0.3300   -3.0952 S   0  0  0  0  0  0  0  0  0  0  0  0
   -1.9273    1.0030   -3.3802 C   0  0  0  0  0  0  0  0  0  0  0  0
    1.2790   -1.2290    0.9021 H   0  0  0  0  0  0  0  0  0  0  0  0
    0.3170    0.3030   -0.7009 H   0  0  0  0  0  0  0  0  0  0  0  0
   -2.2133    0.5451   -0.7092 H   0  0  0  0  0  0  0  0  0  0  0  0
   -2.3148   -0.9459    0.2279 H   0  0  0  0  0  0  0  0  0  0  0  0
   -2.6673   -1.4214   -2.1909 H   0  0  0  0  0  0  0  0  0  0  0  0
   -1.1652   -2.1907   -1.6495 H   0  0  0  0  0  0  0  0  0  0  0  0
   -1.5481    1.6800   -4.1495 H   0  0  0  0  0  0  0  0  0  0  0  0
   -2.0830    1.5651   -2.4560 H   0  0  0  0  0  0  0  0  0  0  0  0
   -2.8819    0.5859   -3.7100 H   0  0  0  0  0  0  0  0  0  0  0  0
   -0.6932    2.1599    0.8084 N   0  0  0  0  0  0  0  0  0  0  0  0
   -0.8149    3.2747    1.7184 C   0  0  2  0  0  0  0  0  0  0  0  0
   -1.9845    4.1336    1.2561 C   0  0  0  0  0  0  0  0  0  0  0  0
   -2.4088    4.1244    0.1024 O   0  0  0  0  0  0  0  0  0  0  0  0
    0.4690    4.0879    1.7719 C   0  0  0  0  0  0  0  0  0  0  0  0
   -0.8051    2.3434   -0.1843 H   0  0  0  0  0  0  0  0  0  0  0  0
   -1.0373    2.8545    2.7053 H   0  0  0  0  0  0  0  0  0  0  0  0
    0.7081    4.5170    0.7920 H   0  0  0  0  0  0  0  0  0  0  0  0
    0.3848    4.9159    2.4836 H   0  0  0  0  0  0  0  0  0  0  0  0
    1.3147    3.4616    2.0758 H   0  0  0  0  0  0  0  0  0  0  0  0
   -2.4710    4.9436    2.2727 N   0  0  0  0  0  0  0  0  0  0  0  0
   -3.5712    5.8595    2.0808 C   0  0  0  0  0  0  0  0  0  0  0  0
   -2.0710    4.8717    3.2036 H   0  0  0  0  0  0  0  0  0  0  0  0
   -3.1807    6.8494    1.8025 H   0  0  0  0  0  0  0  0  0  0  0  0
   -4.2246    5.4846    1.2792 H   0  0  0  0  0  0  0  0  0  0  0  0
   -4.1467    5.9417    3.0146 H   0  0  0  0  0  0  0  0  0  0  0  0
  1  3  1  0  0  0  0
  1  7  1  0  0  0  0
  1  2  2  0  0  0  0
 35 36  1  0  0  0  0
 36 44  1  0  0  0  0
 36 37  2  0  0  0  0
  8  9  1  0  0  0  0
  9 17  1  0  0  0  0
  9 10  2  0  0  0  0
 18 19  1  0  0  0  0
 19 34  1  0  0  0  0
 19 20  2  0  0  0  0
 35 38  1  0  0  0  0
  8 11  1  0  0  0  0
 44 45  1  0  0  0  0
 23 24  1  0  0  0  0
 21 22  1  0  0  0  0
 18 21  1  0  0  0  0
 22 23  1  0  0  0  0
 34 35  1  0  0  0  0
  7  8  1  0  0  0  0
 17 18  1  0  0  0  0
  3  4  1  0  0  0  0
  3  5  1  0  0  0  0
  3  6  1  0  0  0  0
 38 41  1  0  0  0  0
 38 42  1  0  0  0  0
 38 43  1  0  0  0  0
 11 14  1  0  0  0  0
 11 15  1  0  0  0  0
 11 16  1  0  0  0  0
 45 47  1  0  0  0  0
 45 48  1  0  0  0  0
 45 49  1  0  0  0  0
 24 31  1  0  0  0  0
 24 32  1  0  0  0  0
 24 33  1  0  0  0  0
 21 27  1  0  0  0  0
 21 28  1  0  0  0  0
 22 29  1  0  0  0  0
 22 30  1  0  0  0  0
 35 40  1  0  0  0  0
  8 13  1  0  0  0  0
 18 26  1  0  0  0  0
 44 46  1  0  0  0  0
  7 12  1  0  0  0  0
 34 39  1  0  0  0  0
 17 25  1  0  0  0  0
M  END
$$$$

  -OEChem-05262214473D

 49 48  0     1  0  0  0  0  0999 V2000
   -0.0561   -5.3799    2.6949 C   0  0  0  0  0  0  0  0  0  0  0  0
    0.7325   -5.0736    3.5815 O   0  0  0  0  0  0  0  0  0  0  0  0
   -1.0067   -6.5099    2.9135 C   0  0  0  0  0  0  0  0  0  0  0  0
   -0.5910   -7.4777    2.5899 H   0  0  0  0  0  0  0  0  0  0  0  0
   -1.2629   -6.6440    3.9767 H   0  0  0  0  0  0  0  0  0  0  0  0
   -1.9729   -6.4206    2.3918 H   0  0  0  0  0  0  0  0  0  0  0  0
   -0.1735   -4.7694    1.4571 N   0  0  0  0  0  0  0  0  0  0  0  0
    0.6439   -3.6603    1.0409 C   0  0  2  0  0  0  0  0  0  0  0  0
   -0.2788   -2.5625    0.5280 C   0  0  0  0  0  0  0  0  0  0  0  0
   -1.4197   -2.7791    0.1251 O   0  0  0  0  0  0  0  0  0  0  0  0
    1.6395   -4.0779   -0.0301 C   0  0  0  0  0  0  0  0  0  0  0  0
   -0.8741   -5.1235    0.8083 H   0  0  0  0  0  0  0  0  0  0  0  0
    1.1738   -3.3062    1.9318 H   0  0  0  0  0  0  0  0  0  0  0  0
    1.1270   -4.4358   -0.9305 H   0  0  0  0  0  0  0  0  0  0  0  0
    2.2797   -3.2400   -0.3251 H   0  0  0  0  0  0  0  0  0  0  0  0
    2.2827   -4.8880    0.3303 H   0  0  0  0  0  0  0  0  0  0  0  0
    0.3351   -1.3153    0.5316 N   0  0  0  0  0  0  0  0  0  0  0  0
   -0.3268   -0.1184    0.0807 C   0  0  2  0  0  0  0  0  0  0  0  0
   -0.0568    0.9991    1.0837 C   0  0  0  0  0  0  0  0  0  0  0  0
    0.6023    0.8336    2.1081 O   0  0  0  0  0  0  0  0  0  0  0  0
   -1.8242   -0.3444   -0.1696 C   0  0  0  0  0  0  0  0  0  0  0  0
   -2.1157   -1.2994   -1.3296 C   0  0  0  0  0  0  0  0  0  0  0  0
   -1.4429   -0.6385   -2.8835 S   0  0  0  0  0  0  0  0  0  0  0  0
   -2.5695    0.7606   -3.0807 C   0  0  0  0  0  0  0  0  0  0  0  0
    1.2790   -1.2290    0.9021 H   0  0  0  0  0  0  0  0  0  0  0  0
    0.1564    0.1520   -0.8660 H   0  0  0  0  0  0  0  0  0  0  0  0
   -2.2913    0.6285   -0.3732 H   0  0  0  0  0  0  0  0  0  0  0  0
   -2.2852   -0.7341    0.7471 H   0  0  0  0  0  0  0  0  0  0  0  0
   -3.1928   -1.4377   -1.4625 H   0  0  0  0  0  0  0  0  0  0  0  0
   -1.6642   -2.2805   -1.1552 H   0  0  0  0  0  0  0  0  0  0  0  0
   -2.3237    1.3102   -3.9927 H   0  0  0  0  0  0  0  0  0  0  0  0
   -2.4794    1.4332   -2.2241 H   0  0  0  0  0  0  0  0  0  0  0  0
   -3.5994    0.4015   -3.1464 H   0  0  0  0  0  0  0  0  0  0  0  0
   -0.6645    2.1914    0.7174 N   0  0  0  0  0  0  0  0  0  0  0  0
   -0.5654    3.3918    1.5140 C   0  0  2  0  0  0  0  0  0  0  0  0
   -1.9189    4.0894    1.4839 C   0  0  0  0  0  0  0  0  0  0  0  0
   -2.7471    3.9084    0.5938 O   0  0  0  0  0  0  0  0  0  0  0  0
    0.5310    4.3101    0.9969 C   0  0  0  0  0  0  0  0  0  0  0  0
   -1.1689    2.2462   -0.1625 H   0  0  0  0  0  0  0  0  0  0  0  0
   -0.3403    3.0742    2.5380 H   0  0  0  0  0  0  0  0  0  0  0  0
    0.3229    4.6387   -0.0279 H   0  0  0  0  0  0  0  0  0  0  0  0
    0.6241    5.2064    1.6189 H   0  0  0  0  0  0  0  0  0  0  0  0
    1.4987    3.7969    0.9913 H   0  0  0  0  0  0  0  0  0  0  0  0
   -2.0756    4.9705    2.5447 N   0  0  0  0  0  0  0  0  0  0  0  0
   -3.2692    5.7621    2.7308 C   0  0  0  0  0  0  0  0  0  0  0  0
   -1.3447    5.0428    3.2463 H   0  0  0  0  0  0  0  0  0  0  0  0
   -3.1396    6.7413    2.2468 H   0  0  0  0  0  0  0  0  0  0  0  0
   -4.1279    5.2418    2.2813 H   0  0  0  0  0  0  0  0  0  0  0  0
   -3.4497    5.9059    3.8063 H   0  0  0  0  0  0  0  0  0  0  0  0
  1  3  1  0  0  0  0
  1  7  1  0  0  0  0
  1  2  2  0  0  0  0
 35 36  1  0  0  0  0
 36 44  1  0  0  0  0
 36 37  2  0  0  0  0
  8  9  1  0  0  0  0
  9 17  1  0  0  0  0
  9 10  2  0  0  0  0
 18 19  1  0  0  0  0
 19 34  1  0  0  0  0
 19 20  2  0  0  0  0
 35 38  1  0  0  0  0
  8 11  1  0  0  0  0
 44 45  1  0  0  0  0
 23 24  1  0  0  0  0
 21 22  1  0  0  0  0
 18 21  1  0  0  0  0
 22 23  1  0  0  0  0
 34 35  1  0  0  0  0
  7  8  1  0  0  0  0
 17 18  1  0  0  0  0
  3  4  1  0  0  0  0
  3  5  1  0  0  0  0
  3  6  1  0  0  0  0
 38 41  1  0  0  0  0
 38 42  1  0  0  0  0
 38 43  1  0  0  0  0
 11 14  1  0  0  0  0
 11 15  1  0  0  0  0
 11 16  1  0  0  0  0
 45 47  1  0  0  0  0
 45 48  1  0  0  0  0
 45 49  1  0  0  0  0
 24 31  1  0  0  0  0
 24 32  1  0  0  0  0
 24 33  1  0  0  0  0
 21 27  1  0  0  0  0
 21 28  1  0  0  0  0
 22 29  1  0  0  0  0
 22 30  1  0  0  0  0
 35 40  1  0  0  0  0
  8 13  1  0  0  0  0
 18 26  1  0  0  0  0
 44 46  1  0  0  0  0
  7 12  1  0  0  0  0
 34 39  1  0  0  0  0
 17 25  1  0  0  0  0
M  END
$$$$

  -OEChem-05262214473D

 49 48  0     1  0  0  0  0  0999 V2000
   -0.0561   -5.3799    2.6949 C   0  0  0  0  0  0  0  0  0  0  0  0
    0.7325   -5.0736    3.5815 O   0  0  0  0  0  0  0  0  0  0  0  0
   -1.0067   -6.5099    2.9135 C   0  0  0  0  0  0  0  0  0  0  0  0
   -0.5910   -7.4777    2.5899 H   0  0  0  0  0  0  0  0  0  0  0  0
   -1.2629   -6.6440    3.9767 H   0  0  0  0  0  0  0  0  0  0  0  0
   -1.9729   -6.4206    2.3918 H   0  0  0  0  0  0  0  0  0  0  0  0
   -0.1735   -4.7694    1.4571 N   0  0  0  0  0  0  0  0  0  0  0  0
    0.6439   -3.6603    1.0409 C   0  0  2  0  0  0  0  0  0  0  0  0
   -0.2788   -2.5625    0.5280 C   0  0  0  0  0  0  0  0  0  0  0  0
   -1.4197   -2.7791    0.1251 O   0  0  0  0  0  0  0  0  0  0  0  0
    1.6395   -4.0779   -0.0301 C   0  0  0  0  0  0  0  0  0  0  0  0
   -0.8741   -5.1235    0.8083 H   0  0  0  0  0  0  0  0  0  0  0  0
    1.1738   -3.3062    1.9318 H   0  0  0  0  0  0  0  0  0  0  0  0
    1.1270   -4.4358   -0.9305 H   0  0  0  0  0  0  0  0  0  0  0  0
    2.2797   -3.2400   -0.3251 H   0  0  0  0  0  0  0  0  0  0  0  0
    2.2827   -4.8880    0.3303 H   0  0  0  0  0  0  0  0  0  0  0  0
    0.3351   -1.3153    0.5316 N   0  0  0  0  0  0  0  0  0  0  0  0
   -0.3268   -0.1184    0.0807 C   0  0  2  0  0  0  0  0  0  0  0  0
   -0.0568    0.9991    1.0837 C   0  0  0  0  0  0  0  0  0  0  0  0
    0.8063    0.9212    1.9556 O   0  0  0  0  0  0  0  0  0  0  0  0
   -1.8242   -0.3444   -0.1696 C   0  0  0  0  0  0  0  0  0  0  0  0
   -2.1157   -1.2994   -1.3296 C   0  0  0  0  0  0  0  0  0  0  0  0
   -1.4429   -0.6385   -2.8835 S   0  0  0  0  0  0  0  0  0  0  0  0
   -2.5695    0.7606   -3.0807 C   0  0  0  0  0  0  0  0  0  0  0  0
    1.2790   -1.2290    0.9021 H   0  0  0  0  0  0  0  0  0  0  0  0
    0.1564    0.1520   -0.8660 H   0  0  0  0  0  0  0  0  0  0  0  0
   -2.2913    0.6285   -0.3732 H   0  0  0  0  0  0  0  0  0  0  0  0
   -2.2852   -0.7341    0.7471 H   0  0  0  0  0  0  0  0  0  0  0  0
   -3.1928   -1.4377   -1.4625 H   0  0  0  0  0  0  0  0  0  0  0  0
   -1.6642   -2.2805   -1.1552 H   0  0  0  0  0  0  0  0  0  0  0  0
   -2.3237    1.3102   -3.9927 H   0  0  0  0  0  0  0  0  0  0  0  0
   -2.4794    1.4332   -2.2241 H   0  0  0  0  0  0  0  0  0  0  0  0
   -3.5994    0.4015   -3.1464 H   0  0  0  0  0  0  0  0  0  0  0  0
   -0.9130    2.0772    0.9115 N   0  0  0  0  0  0  0  0  0  0  0  0
   -0.8619    3.2526    1.7490 C   0  0  2  0  0  0  0  0  0  0  0  0
   -2.2921    3.7038    2.0140 C   0  0  0  0  0  0  0  0  0  0  0  0
   -3.2353    3.4072    1.2836 O   0  0  0  0  0  0  0  0  0  0  0  0
   -0.0539    4.3630    1.0954 C   0  0  0  0  0  0  0  0  0  0  0  0
   -1.5801    2.0690    0.1456 H   0  0  0  0  0  0  0  0  0  0  0  0
   -0.3934    2.9492    2.6916 H   0  0  0  0  0  0  0  0  0  0  0  0
   -0.5080    4.6802    0.1495 H   0  0  0  0  0  0  0  0  0  0  0  0
    0.0079    5.2431    1.7439 H   0  0  0  0  0  0  0  0  0  0  0  0
    0.9658    4.0270    0.8784 H   0  0  0  0  0  0  0  0  0  0  0  0
   -2.3844    4.5124    3.1382 N   0  0  0  0  0  0  0  0  0  0  0  0
   -3.6338    5.0777    3.5915 C   0  0  0  0  0  0  0  0  0  0  0  0
   -1.5539    4.6906    3.6951 H   0  0  0  0  0  0  0  0  0  0  0  0
   -3.7644    6.0783    3.1537 H   0  0  0  0  0  0  0  0  0  0  0  0
   -4.4649    4.4290    3.2777 H   0  0  0  0  0  0  0  0  0  0  0  0
   -3.6240    5.1561    4.6887 H   0  0  0  0  0  0  0  0  0  0  0  0
  1  3  1  0  0  0  0
  1  7  1  0  0  0  0
  1  2  2  0  0  0  0
 35 36  1  0  0  0  0
 36 44  1  0  0  0  0
 36 37  2  0  0  0  0
  8  9  1  0  0  0  0
  9 17  1  0  0  0  0
  9 10  2  0  0  0  0
 18 19  1  0  0  0  0
 19 34  1  0  0  0  0
 19 20  2  0  0  0  0
 35 38  1  0  0  0  0
  8 11  1  0  0  0  0
 44 45  1  0  0  0  0
 23 24  1  0  0  0  0
 21 22  1  0  0  0  0
 18 21  1  0  0  0  0
 22 23  1  0  0  0  0
 34 35  1  0  0  0  0
  7  8  1  0  0  0  0
 17 18  1  0  0  0  0
  3  4  1  0  0  0  0
  3  5  1  0  0  0  0
  3  6  1  0  0  0  0
 38 41  1  0  0  0  0
 38 42  1  0  0  0  0
 38 43  1  0  0  0  0
 11 14  1  0  0  0  0
 11 15  1  0  0  0  0
 11 16  1  0  0  0  0
 45 47  1  0  0  0  0
 45 48  1  0  0  0  0
 45 49  1  0  0  0  0
 24 31  1  0  0  0  0
 24 32  1  0  0  0  0
 24 33  1  0  0  0  0
 21 27  1  0  0  0  0
 21 28  1  0  0  0  0
 22 29  1  0  0  0  0
 22 30  1  0  0  0  0
 35 40  1  0  0  0  0
  8 13  1  0  0  0  0
 18 26  1  0  0  0  0
 44 46  1  0  0  0  0
  7 12  1  0  0  0  0
 34 39  1  0  0  0  0
 17 25  1  0  0  0  0
M  END
$$$$

  -OEChem-05262214473D

 49 48  0     1  0  0  0  0  0999 V2000
   -0.0561   -5.3799    2.6949 C   0  0  0  0  0  0  0  0  0  0  0  0
    0.7325   -5.0736    3.5815 O   0  0  0  0  0  0  0  0  0  0  0  0
   -1.0067   -6.5099    2.9135 C   0  0  0  0  0  0  0  0  0  0  0  0
   -0.5910   -7.4777    2.5899 H   0  0  0  0  0  0  0  0  0  0  0  0
   -1.2629   -6.6440    3.9767 H   0  0  0  0  0  0  0  0  0  0  0  0
   -1.9729   -6.4206    2.3918 H   0  0  0  0  0  0  0  0  0  0  0  0
   -0.1735   -4.7694    1.4571 N   0  0  0  0  0  0  0  0  0  0  0  0
    0.6439   -3.6603    1.0409 C   0  0  2  0  0  0  0  0  0  0  0  0
   -0.2788   -2.5625    0.5280 C   0  0  0  0  0  0  0  0  0  0  0  0
   -1.4197   -2.7791    0.1251 O   0  0  0  0  0  0  0  0  0  0  0  0
    1.6395   -4.0779   -0.0301 C   0  0  0  0  0  0  0  0  0  0  0  0
   -0.8741   -5.1235    0.8083 H   0  0  0  0  0  0  0  0  0  0  0  0
    1.1738   -3.3062    1.9318 H   0  0  0  0  0  0  0  0  0  0  0  0
    1.1270   -4.4358   -0.9305 H   0  0  0  0  0  0  0  0  0  0  0  0
    2.2797   -3.2400   -0.3251 H   0  0  0  0  0  0  0  0  0  0  0  0
    2.2827   -4.8880    0.3303 H   0  0  0  0  0  0  0  0  0  0  0  0
    0.3351   -1.3153    0.5316 N   0  0  0  0  0  0  0  0  0  0  0  0
   -0.3268   -0.1184    0.0807 C   0  0  2  0  0  0  0  0  0  0  0  0
   -0.0568    0.9991    1.0837 C   0  0  0  0  0  0  0  0  0  0  0  0
    0.9594    1.0475    1.7737 O   0  0  0  0  0  0  0  0  0  0  0  0
   -1.8242   -0.3444   -0.1696 C   0  0  0  0  0  0  0  0  0  0  0  0
   -2.1157   -1.2994   -1.3296 C   0  0  0  0  0  0  0  0  0  0  0  0
   -1.4429   -0.6385   -2.8835 S   0  0  0  0  0  0  0  0  0  0  0  0
   -2.5695    0.7606   -3.0807 C   0  0  0  0  0  0  0  0  0  0  0  0
    1.2790   -1.2290    0.9021 H   0  0  0  0  0  0  0  0  0  0  0  0
    0.1564    0.1520   -0.8660 H   0  0  0  0  0  0  0  0  0  0  0  0
   -2.2913    0.6285   -0.3732 H   0  0  0  0  0  0  0  0  0  0  0  0
   -2.2852   -0.7341    0.7471 H   0  0  0  0  0  0  0  0  0  0  0  0
   -3.1928   -1.4377   -1.4625 H   0  0  0  0  0  0  0  0  0  0  0  0
   -1.6642   -2.2805   -1.1552 H   0  0  0  0  0  0  0  0  0  0  0  0
   -2.3237    1.3102   -3.9927 H   0  0  0  0  0  0  0  0  0  0  0  0
   -2.4794    1.4332   -2.2241 H   0  0  0  0  0  0  0  0  0  0  0  0
   -3.5994    0.4015   -3.1464 H   0  0  0  0  0  0  0  0  0  0  0  0
   -1.0967    1.9158    1.1408 N   0  0  0  0  0  0  0  0  0  0  0  0
   -1.0800    3.0569    2.0257 C   0  0  2  0  0  0  0  0  0  0  0  0
   -2.4865    3.2435    2.5792 C   0  0  0  0  0  0  0  0  0  0  0  0
   -3.4908    2.8084    2.0195 O   0  0  0  0  0  0  0  0  0  0  0  0
   -0.6092    4.3100    1.3039 C   0  0  0  0  0  0  0  0  0  0  0  0
   -1.8887    1.8138    0.5130 H   0  0  0  0  0  0  0  0  0  0  0  0
   -0.3943    2.8124    2.8442 H   0  0  0  0  0  0  0  0  0  0  0  0
   -1.2839    4.5707    0.4804 H   0  0  0  0  0  0  0  0  0  0  0  0
   -0.5698    5.1680    1.9832 H   0  0  0  0  0  0  0  0  0  0  0  0
    0.3905    4.1637    0.8809 H   0  0  0  0  0  0  0  0  0  0  0  0
   -2.4922    3.9902    3.7491 N   0  0  0  0  0  0  0  0  0  0  0  0
   -3.7063    4.3151    4.4607 C   0  0  0  0  0  0  0  0  0  0  0  0
   -1.6108    4.2942    4.1521 H   0  0  0  0  0  0  0  0  0  0  0  0
   -4.0832    5.2900    4.1178 H   0  0  0  0  0  0  0  0  0  0  0  0
   -4.4632    3.5408    4.2669 H   0  0  0  0  0  0  0  0  0  0  0  0
   -3.4975    4.3618    5.5396 H   0  0  0  0  0  0  0  0  0  0  0  0
  1  3  1  0  0  0  0
  1  7  1  0  0  0  0
  1  2  2  0  0  0  0
 35 36  1  0  0  0  0
 36 44  1  0  0  0  0
 36 37  2  0  0  0  0
  8  9  1  0  0  0  0
  9 17  1  0  0  0  0
  9 10  2  0  0  0  0
 18 19  1  0  0  0  0
 19 34  1  0  0  0  0
 19 20  2  0  0  0  0
 35 38  1  0  0  0  0
  8 11  1  0  0  0  0
 44 45  1  0  0  0  0
 23 24  1  0  0  0  0
 21 22  1  0  0  0  0
 18 21  1  0  0  0  0
 22 23  1  0  0  0  0
 34 35  1  0  0  0  0
  7  8  1  0  0  0  0
 17 18  1  0  0  0  0
  3  4  1  0  0  0  0
  3  5  1  0  0  0  0
  3  6  1  0  0  0  0
 38 41  1  0  0  0  0
 38 42  1  0  0  0  0
 38 43  1  0  0  0  0
 11 14  1  0  0  0  0
 11 15  1  0  0  0  0
 11 16  1  0  0  0  0
 45 47  1  0  0  0  0
 45 48  1  0  0  0  0
 45 49  1  0  0  0  0
 24 31  1  0  0  0  0
 24 32  1  0  0  0  0
 24 33  1  0  0  0  0
 21 27  1  0  0  0  0
 21 28  1  0  0  0  0
 22 29  1  0  0  0  0
 22 30  1  0  0  0  0
 35 40  1  0  0  0  0
  8 13  1  0  0  0  0
 18 26  1  0  0  0  0
 44 46  1  0  0  0  0
  7 12  1  0  0  0  0
 34 39  1  0  0  0  0
 17 25  1  0  0  0  0
M  END
$$$$

  -OEChem-05262214473D

 49 48  0     1  0  0  0  0  0999 V2000
   -0.0561   -5.3799    2.6949 C   0  0  0  0  0  0  0  0  0  0  0  0
    0.7325   -5.0736    3.5815 O   0  0  0  0  0  0  0  0  0  0  0  0
   -1.0067   -6.5099    2.9135 C   0  0  0  0  0  0  0  0  0  0  0  0
   -0.5910   -7.4777    2.5899 H   0  0  0  0  0  0  0  0  0  0  0  0
   -1.2629   -6.6440    3.9767 H   0  0  0  0  0  0  0  0  0  0  0  0
   -1.9729   -6.4206    2.3918 H   0  0  0  0  0  0  0  0  0  0  0  0
   -0.1735   -4.7694    1.4571 N   0  0  0  0  0  0  0  0  0  0  0  0
    0.6439   -3.6603    1.0409 C   0  0  2  0  0  0  0  0  0  0  0  0
   -0.2788   -2.5625    0.5280 C   0  0  0  0  0  0  0  0  0  0  0  0
   -1.4197   -2.7791    0.1251 O   0  0  0  0  0  0  0  0  0  0  0  0
    1.6395   -4.0779   -0.0301 C   0  0  0  0  0  0  0  0  0  0  0  0
   -0.8741   -5.1235    0.8083 H   0  0  0  0  0  0  0  0  0  0  0  0
    1.1738   -3.3062    1.9318 H   0  0  0  0  0  0  0  0  0  0  0  0
    1.1270   -4.4358   -0.9305 H   0  0  0  0  0  0  0  0  0  0  0  0
    2.2797   -3.2400   -0.3251 H   0  0  0  0  0  0  0  0  0  0  0  0
    2.2827   -4.8880    0.3303 H   0  0  0  0  0  0  0  0  0  0  0  0
    0.3351   -1.3153    0.5316 N   0  0  0  0  0  0  0  0  0  0  0  0
   -0.3268   -0.1184    0.0807 C   0  0  2  0  0  0  0  0  0  0  0  0
   -0.0568    0.9991    1.0837 C   0  0  0  0  0  0  0  0  0  0  0  0
    1.0514    1.2038    1.5747 O   0  0  0  0  0  0  0  0  0  0  0  0
   -1.8242   -0.3444   -0.1696 C   0  0  0  0  0  0  0  0  0  0  0  0
   -2.1157   -1.2994   -1.3296 C   0  0  0  0  0  0  0  0  0  0  0  0
   -1.4429   -0.6385   -2.8835 S   0  0  0  0  0  0  0  0  0  0  0  0
   -2.5695    0.7606   -3.0807 C   0  0  0  0  0  0  0  0  0  0  0  0
    1.2790   -1.2290    0.9021 H   0  0  0  0  0  0  0  0  0  0  0  0
    0.1564    0.1520   -0.8660 H   0  0  0  0  0  0  0  0  0  0  0  0
   -2.2913    0.6285   -0.3732 H   0  0  0  0  0  0  0  0  0  0  0  0
   -2.2852   -0.7341    0.7471 H   0  0  0  0  0  0  0  0  0  0  0  0
   -3.1928   -1.4377   -1.4625 H   0  0  0  0  0  0  0  0  0  0  0  0
   -1.6642   -2.2805   -1.1552 H   0  0  0  0  0  0  0  0  0  0  0  0
   -2.3237    1.3102   -3.9927 H   0  0  0  0  0  0  0  0  0  0  0  0
   -2.4794    1.4332   -2.2241 H   0  0  0  0  0  0  0  0  0  0  0  0
   -3.5994    0.4015   -3.1464 H   0  0  0  0  0  0  0  0  0  0  0  0
   -1.2033    1.7181    1.3898 N   0  0  0  0  0  0  0  0  0  0  0  0
   -1.2050    2.8181    2.3254 C   0  0  2  0  0  0  0  0  0  0  0  0
   -2.4889    2.7400    3.1408 C   0  0  0  0  0  0  0  0  0  0  0  0
   -3.4962    2.1529    2.7513 O   0  0  0  0  0  0  0  0  0  0  0  0
   -1.0971    4.1548    1.6082 C   0  0  0  0  0  0  0  0  0  0  0  0
   -2.0737    1.4979    0.9148 H   0  0  0  0  0  0  0  0  0  0  0  0
   -0.3429    2.6731    2.9856 H   0  0  0  0  0  0  0  0  0  0  0  0
   -1.9521    4.3178    0.9420 H   0  0  0  0  0  0  0  0  0  0  0  0
   -1.0698    4.9861    2.3203 H   0  0  0  0  0  0  0  0  0  0  0  0
   -0.1880    4.1978    0.9987 H   0  0  0  0  0  0  0  0  0  0  0  0
   -2.3917    3.4394    4.3356 N   0  0  0  0  0  0  0  0  0  0  0  0
   -3.4819    3.5264    5.2790 C   0  0  0  0  0  0  0  0  0  0  0  0
   -1.5118    3.8806    4.5862 H   0  0  0  0  0  0  0  0  0  0  0  0
   -4.0742    4.4302    5.0734 H   0  0  0  0  0  0  0  0  0  0  0  0
   -4.1229    2.6379    5.1813 H   0  0  0  0  0  0  0  0  0  0  0  0
   -3.0788    3.5770    6.3013 H   0  0  0  0  0  0  0  0  0  0  0  0
  1  3  1  0  0  0  0
  1  7  1  0  0  0  0
  1  2  2  0  0  0  0
 35 36  1  0  0  0  0
 36 44  1  0  0  0  0
 36 37  2  0  0  0  0
  8  9  1  0  0  0  0
  9 17  1  0  0  0  0
  9 10  2  0  0  0  0
 18 19  1  0  0  0  0
 19 34  1  0  0  0  0
 19 20  2  0  0  0  0
 35 38  1  0  0  0  0
  8 11  1  0  0  0  0
 44 45  1  0  0  0  0
 23 24  1  0  0  0  0
 21 22  1  0  0  0  0
 18 21  1  0  0  0  0
 22 23  1  0  0  0  0
 34 35  1  0  0  0  0
  7  8  1  0  0  0  0
 17 18  1  0  0  0  0
  3  4  1  0  0  0  0
  3  5  1  0  0  0  0
  3  6  1  0  0  0  0
 38 41  1  0  0  0  0
 38 42  1  0  0  0  0
 38 43  1  0  0  0  0
 11 14  1  0  0  0  0
 11 15  1  0  0  0  0
 11 16  1  0  0  0  0
 45 47  1  0  0  0  0
 45 48  1  0  0  0  0
 45 49  1  0  0  0  0
 24 31  1  0  0  0  0
 24 32  1  0  0  0  0
 24 33  1  0  0  0  0
 21 27  1  0  0  0  0
 21 28  1  0  0  0  0
 22 29  1  0  0  0  0
 22 30  1  0  0  0  0
 35 40  1  0  0  0  0
  8 13  1  0  0  0  0
 18 26  1  0  0  0  0
 44 46  1  0  0  0  0
  7 12  1  0  0  0  0
 34 39  1  0  0  0  0
 17 25  1  0  0  0  0
M  END
$$$$

  -OEChem-05262214473D

 49 48  0     1  0  0  0  0  0999 V2000
   -0.0561   -5.3799    2.6949 C   0  0  0  0  0  0  0  0  0  0  0  0
    0.7325   -5.0736    3.5815 O   0  0  0  0  0  0  0  0  0  0  0  0
   -1.0067   -6.5099    2.9135 C   0  0  0  0  0  0  0  0  0  0  0  0
   -0.5910   -7.4777    2.5899 H   0  0  0  0  0  0  0  0  0  0  0  0
   -1.2629   -6.6440    3.9767 H   0  0  0  0  0  0  0  0  0  0  0  0
   -1.9729   -6.4206    2.3918 H   0  0  0  0  0  0  0  0  0  0  0  0
   -0.1735   -4.7694    1.4571 N   0  0  0  0  0  0  0  0  0  0  0  0
    0.6439   -3.6603    1.0409 C   0  0  2  0  0  0  0  0  0  0  0  0
   -0.2788   -2.5625    0.5280 C   0  0  0  0  0  0  0  0  0  0  0  0
   -1.4197   -2.7791    0.1251 O   0  0  0  0  0  0  0  0  0  0  0  0
    1.6395   -4.0779   -0.0301 C   0  0  0  0  0  0  0  0  0  0  0  0
   -0.8741   -5.1235    0.8083 H   0  0  0  0  0  0  0  0  0  0  0  0
    1.1738   -3.3062    1.9318 H   0  0  0  0  0  0  0  0  0  0  0  0
    1.1270   -4.4358   -0.9305 H   0  0  0  0  0  0  0  0  0  0  0  0
    2.2797   -3.2400   -0.3251 H   0  0  0  0  0  0  0  0  0  0  0  0
    2.2827   -4.8880    0.3303 H   0  0  0  0  0  0  0  0  0  0  0  0
    0.3351   -1.3153    0.5316 N   0  0  0  0  0  0  0  0  0  0  0  0
   -0.3268   -0.1184    0.0807 C   0  0  2  0  0  0  0  0  0  0  0  0
   -0.0568    0.9991    1.0837 C   0  0  0  0  0  0  0  0  0  0  0  0
    1.0759    1.3796    1.3723 O   0  0  0  0  0  0  0  0  0  0  0  0
   -1.8242   -0.3444   -0.1696 C   0  0  0  0  0  0  0  0  0  0  0  0
   -2.1157   -1.2994   -1.3296 C   0  0  0  0  0  0  0  0  0  0  0  0
   -1.4429   -0.6385   -2.8835 S   0  0  0  0  0  0  0  0  0  0  0  0
   -2.5695    0.7606   -3.0807 C   0  0  0  0  0  0  0  0  0  0  0  0
    1.2790   -1.2290    0.9021 H   0  0  0  0  0  0  0  0  0  0  0  0
    0.1564    0.1520   -0.8660 H   0  0  0  0  0  0  0  0  0  0  0  0
   -2.2913    0.6285   -0.3732 H   0  0  0  0  0  0  0  0  0  0  0  0
   -2.2852   -0.7341    0.7471 H   0  0  0  0  0  0  0  0  0  0  0  0
   -3.1928   -1.4377   -1.4625 H   0  0  0  0  0  0  0  0  0  0  0  0
   -1.6642   -2.2805   -1.1552 H   0  0  0  0  0  0  0  0  0  0  0  0
   -2.3237    1.3102   -3.9927 H   0  0  0  0  0  0  0  0  0  0  0  0
   -2.4794    1.4332   -2.2241 H   0  0  0  0  0  0  0  0  0  0  0  0
   -3.5994    0.4015   -3.1464 H   0  0  0  0  0  0  0  0  0  0  0  0
   -1.2254    1.4976    1.6414 N   0  0  0  0  0  0  0  0  0  0  0  0
   -1.2282    2.5525    2.6277 C   0  0  2  0  0  0  0  0  0  0  0  0
   -2.2990    2.2274    3.6608 C   0  0  0  0  0  0  0  0  0  0  0  0
   -3.2512    1.4852    3.4292 O   0  0  0  0  0  0  0  0  0  0  0  0
   -1.4843    3.9079    1.9875 C   0  0  0  0  0  0  0  0  0  0  0  0
   -2.1225    1.1429    1.3234 H   0  0  0  0  0  0  0  0  0  0  0  0
   -0.2428    2.5408    3.1061 H   0  0  0  0  0  0  0  0  0  0  0  0
   -2.4670    3.9387    1.5030 H   0  0  0  0  0  0  0  0  0  0  0  0
   -1.4578    4.7100    2.7325 H   0  0  0  0  0  0  0  0  0  0  0  0
   -0.7303    4.1269    1.2237 H   0  0  0  0  0  0  0  0  0  0  0  0
   -2.0897    2.8977    4.8579 N   0  0  0  0  0  0  0  0  0  0  0  0
   -2.9757    2.7652    5.9908 C   0  0  0  0  0  0  0  0  0  0  0  0
   -1.2635    3.4782    4.9678 H   0  0  0  0  0  0  0  0  0  0  0  0
   -3.7381    3.5574    5.9553 H   0  0  0  0  0  0  0  0  0  0  0  0
   -3.4673    1.7817    5.9586 H   0  0  0  0  0  0  0  0  0  0  0  0
   -2.3965    2.8554    6.9216 H   0  0  0  0  0  0  0  0  0  0  0  0
  1  3  1  0  0  0  0
  1  7  1  0  0  0  0
  1  2  2  0  0  0  0
 35 36  1  0  0  0  0
 36 44  1  0  0  0  0
 36 37  2  0  0  0  0
  8  9  1  0  0  0  0
  9 17  1  0  0  0  0
  9 10  2  0  0  0  0
 18 19  1  0  0  0  0
 19 34  1  0  0  0  0
 19 20  2  0  0  0  0
 35 38  1  0  0  0  0
  8 11  1  0  0  0  0
 44 45  1  0  0  0  0
 23 24  1  0  0  0  0
 21 22  1  0  0  0  0
 18 21  1  0  0  0  0
 22 23  1  0  0  0  0
 34 35  1  0  0  0  0
  7  8  1  0  0  0  0
 17 18  1  0  0  0  0
  3  4  1  0  0  0  0
  3  5  1  0  0  0  0
  3  6  1  0  0  0  0
 38 41  1  0  0  0  0
 38 42  1  0  0  0  0
 38 43  1  0  0  0  0
 11 14  1  0  0  0  0
 11 15  1  0  0  0  0
 11 16  1  0  0  0  0
 45 47  1  0  0  0  0
 45 48  1  0  0  0  0
 45 49  1  0  0  0  0
 24 31  1  0  0  0  0
 24 32  1  0  0  0  0
 24 33  1  0  0  0  0
 21 27  1  0  0  0  0
 21 28  1  0  0  0  0
 22 29  1  0  0  0  0
 22 30  1  0  0  0  0
 35 40  1  0  0  0  0
  8 13  1  0  0  0  0
 18 26  1  0  0  0  0
 44 46  1  0  0  0  0
  7 12  1  0  0  0  0
 34 39  1  0  0  0  0
 17 25  1  0  0  0  0
M  END
$$$$

  -OEChem-05262214473D

 49 48  0     1  0  0  0  0  0999 V2000
   -0.0561   -5.3799    2.6949 C   0  0  0  0  0  0  0  0  0  0  0  0
    0.7325   -5.0736    3.5815 O   0  0  0  0  0  0  0  0  0  0  0  0
   -1.0067   -6.5099    2.9135 C   0  0  0  0  0  0  0  0  0  0  0  0
   -0.5910   -7.4777    2.5899 H   0  0  0  0  0  0  0  0  0  0  0  0
   -1.2629   -6.6440    3.9767 H   0  0  0  0  0  0  0  0  0  0  0  0
   -1.9729   -6.4206    2.3918 H   0  0  0  0  0  0  0  0  0  0  0  0
   -0.1735   -4.7694    1.4571 N   0  0  0  0  0  0  0  0  0  0  0  0
    0.6439   -3.6603    1.0409 C   0  0  2  0  0  0  0  0  0  0  0  0
   -0.2788   -2.5625    0.5280 C   0  0  0  0  0  0  0  0  0  0  0  0
   -1.4197   -2.7791    0.1251 O   0  0  0  0  0  0  0  0  0  0  0  0
    1.6395   -4.0779   -0.0301 C   0  0  0  0  0  0  0  0  0  0  0  0
   -0.8741   -5.1235    0.8083 H   0  0  0  0  0  0  0  0  0  0  0  0
    1.1738   -3.3062    1.9318 H   0  0  0  0  0  0  0  0  0  0  0  0
    1.1270   -4.4358   -0.9305 H   0  0  0  0  0  0  0  0  0  0  0  0
    2.2797   -3.2400   -0.3251 H   0  0  0  0  0  0  0  0  0  0  0  0
    2.2827   -4.8880    0.3303 H   0  0  0  0  0  0  0  0  0  0  0  0
    0.3351   -1.3153    0.5316 N   0  0  0  0  0  0  0  0  0  0  0  0
   -0.3268   -0.1184    0.0807 C   0  0  2  0  0  0  0  0  0  0  0  0
   -0.0568    0.9991    1.0837 C   0  0  0  0  0  0  0  0  0  0  0  0
    1.0313    1.5629    1.1801 O   0  0  0  0  0  0  0  0  0  0  0  0
   -1.8242   -0.3444   -0.1696 C   0  0  0  0  0  0  0  0  0  0  0  0
   -2.1157   -1.2994   -1.3296 C   0  0  0  0  0  0  0  0  0  0  0  0
   -1.4429   -0.6385   -2.8835 S   0  0  0  0  0  0  0  0  0  0  0  0
   -2.5695    0.7606   -3.0807 C   0  0  0  0  0  0  0  0  0  0  0  0
    1.2790   -1.2290    0.9021 H   0  0  0  0  0  0  0  0  0  0  0  0
    0.1564    0.1520   -0.8660 H   0  0  0  0  0  0  0  0  0  0  0  0
   -2.2913    0.6285   -0.3732 H   0  0  0  0  0  0  0  0  0  0  0  0
   -2.2852   -0.7341    0.7471 H   0  0  0  0  0  0  0  0  0  0  0  0
   -3.1928   -1.4377   -1.4625 H   0  0  0  0  0  0  0  0  0  0  0  0
   -1.6642   -2.2805   -1.1552 H   0  0  0  0  0  0  0  0  0  0  0  0
   -2.3237    1.3102   -3.9927 H   0  0  0  0  0  0  0  0  0  0  0  0
   -2.4794    1.4332   -2.2241 H   0  0  0  0  0  0  0  0  0  0  0  0
   -3.5994    0.4015   -3.1464 H   0  0  0  0  0  0  0  0  0  0  0  0
   -1.1615    1.2694    1.8785 N   0  0  0  0  0  0  0  0  0  0  0  0
   -1.1482    2.2781    2.9119 C   0  0  2  0  0  0  0  0  0  0  0  0
   -1.9298    1.7409    4.1035 C   0  0  0  0  0  0  0  0  0  0  0  0
   -2.7724    0.8510    4.0070 O   0  0  0  0  0  0  0  0  0  0  0  0
   -1.7443    3.5862    2.4159 C   0  0  0  0  0  0  0  0  0  0  0  0
   -2.0317    0.7730    1.7111 H   0  0  0  0  0  0  0  0  0  0  0  0
   -0.1008    2.4245    3.1974 H   0  0  0  0  0  0  0  0  0  0  0  0
   -2.7935    3.4592    2.1251 H   0  0  0  0  0  0  0  0  0  0  0  0
   -1.7074    4.3583    3.1915 H   0  0  0  0  0  0  0  0  0  0  0  0
   -1.1993    3.9558    1.5406 H   0  0  0  0  0  0  0  0  0  0  0  0
   -1.6069    2.4019    5.2803 N   0  0  0  0  0  0  0  0  0  0  0  0
   -2.2224    2.0835    6.5475 C   0  0  0  0  0  0  0  0  0  0  0  0
   -0.8828    3.1142    5.2708 H   0  0  0  0  0  0  0  0  0  0  0  0
   -3.0978    2.7311    6.7035 H   0  0  0  0  0  0  0  0  0  0  0  0
   -2.5409    1.0307    6.5460 H   0  0  0  0  0  0  0  0  0  0  0  0
   -1.4971    2.2460    7.3584 H   0  0  0  0  0  0  0  0  0  0  0  0
  1  3  1  0  0  0  0
  1  7  1  0  0  0  0
  1  2  2  0  0  0  0
 35 36  1  0  0  0  0
 36 44  1  0  0  0  0
 36 37  2  0  0  0  0
  8  9  1  0  0  0  0
  9 17  1  0  0  0  0
  9 10  2  0  0  0  0
 18 19  1  0  0  0  0
 19 34  1  0  0  0  0
 19 20  2  0  0  0  0
 35 38  1  0  0  0  0
  8 11  1  0  0  0  0
 44 45  1  0  0  0  0
 23 24  1  0  0  0  0
 21 22  1  0  0  0  0
 18 21  1  0  0  0  0
 22 23  1  0  0  0  0
 34 35  1  0  0  0  0
  7  8  1  0  0  0  0
 17 18  1  0  0  0  0
  3  4  1  0  0  0  0
  3  5  1  0  0  0  0
  3  6  1  0  0  0  0
 38 41  1  0  0  0  0
 38 42  1  0  0  0  0
 38 43  1  0  0  0  0
 11 14  1  0  0  0  0
 11 15  1  0  0  0  0
 11 16  1  0  0  0  0
 45 47  1  0  0  0  0
 45 48  1  0  0  0  0
 45 49  1  0  0  0  0
 24 31  1  0  0  0  0
 24 32  1  0  0  0  0
 24 33  1  0  0  0  0
 21 27  1  0  0  0  0
 21 28  1  0  0  0  0
 22 29  1  0  0  0  0
 22 30  1  0  0  0  0
 35 40  1  0  0  0  0
  8 13  1  0  0  0  0
 18 26  1  0  0  0  0
 44 46  1  0  0  0  0
  7 12  1  0  0  0  0
 34 39  1  0  0  0  0
 17 25  1  0  0  0  0
M  END
$$$$

  -OEChem-05262214473D

 49 48  0     1  0  0  0  0  0999 V2000
   -0.0561   -5.3799    2.6949 C   0  0  0  0  0  0  0  0  0  0  0  0
    0.7325   -5.0736    3.5815 O   0  0  0  0  0  0  0  0  0  0  0  0
   -1.0067   -6.5099    2.9135 C   0  0  0  0  0  0  0  0  0  0  0  0
   -0.5910   -7.4777    2.5899 H   0  0  0  0  0  0  0  0  0  0  0  0
   -1.2629   -6.6440    3.9767 H   0  0  0  0  0  0  0  0  0  0  0  0
   -1.9729   -6.4206    2.3918 H   0  0  0  0  0  0  0  0  0  0  0  0
   -0.1735   -4.7694    1.4571 N   0  0  0  0  0  0  0  0  0  0  0  0
    0.6439   -3.6603    1.0409 C   0  0  2  0  0  0  0  0  0  0  0  0
   -0.2788   -2.5625    0.5280 C   0  0  0  0  0  0  0  0  0  0  0  0
   -1.4197   -2.7791    0.1251 O   0  0  0  0  0  0  0  0  0  0  0  0
    1.6395   -4.0779   -0.0301 C   0  0  0  0  0  0  0  0  0  0  0  0
   -0.8741   -5.1235    0.8083 H   0  0  0  0  0  0  0  0  0  0  0  0
    1.1738   -3.3062    1.9318 H   0  0  0  0  0  0  0  0  0  0  0  0
    1.1270   -4.4358   -0.9305 H   0  0  0  0  0  0  0  0  0  0  0  0
    2.2797   -3.2400   -0.3251 H   0  0  0  0  0  0  0  0  0  0  0  0
    2.2827   -4.8880    0.3303 H   0  0  0  0  0  0  0  0  0  0  0  0
    0.3351   -1.3153    0.5316 N   0  0  0  0  0  0  0  0  0  0  0  0
   -0.3268   -0.1184    0.0807 C   0  0  2  0  0  0  0  0  0  0  0  0
   -0.0568    0.9991    1.0837 C   0  0  0  0  0  0  0  0  0  0  0  0
    0.9206    1.7411    1.0114 O   0  0  0  0  0  0  0  0  0  0  0  0
   -1.8242   -0.3444   -0.1696 C   0  0  0  0  0  0  0  0  0  0  0  0
   -2.1157   -1.2994   -1.3296 C   0  0  0  0  0  0  0  0  0  0  0  0
   -1.4429   -0.6385   -2.8835 S   0  0  0  0  0  0  0  0  0  0  0  0
   -2.5695    0.7606   -3.0807 C   0  0  0  0  0  0  0  0  0  0  0  0
    1.2790   -1.2290    0.9021 H   0  0  0  0  0  0  0  0  0  0  0  0
    0.1564    0.1520   -0.8660 H   0  0  0  0  0  0  0  0  0  0  0  0
   -2.2913    0.6285   -0.3732 H   0  0  0  0  0  0  0  0  0  0  0  0
   -2.2852   -0.7341    0.7471 H   0  0  0  0  0  0  0  0  0  0  0  0
   -3.1928   -1.4377   -1.4625 H   0  0  0  0  0  0  0  0  0  0  0  0
   -1.6642   -2.2805   -1.1552 H   0  0  0  0  0  0  0  0  0  0  0  0
   -2.3237    1.3102   -3.9927 H   0  0  0  0  0  0  0  0  0  0  0  0
   -2.4794    1.4332   -2.2241 H   0  0  0  0  0  0  0  0  0  0  0  0
   -3.5994    0.4015   -3.1464 H   0  0  0  0  0  0  0  0  0  0  0  0
   -1.0160    1.0489    2.0850 N   0  0  0  0  0  0  0  0  0  0  0  0
   -0.9703    2.0136    3.1586 C   0  0  2  0  0  0  0  0  0  0  0  0
   -1.4065    1.3134    4.4389 C   0  0  0  0  0  0  0  0  0  0  0  0
   -2.0924    0.2933    4.4453 O   0  0  0  0  0  0  0  0  0  0  0  0
   -1.8596    3.2116    2.8643 C   0  0  0  0  0  0  0  0  0  0  0  0
   -1.8076    0.4134    2.0515 H   0  0  0  0  0  0  0  0  0  0  0  0
    0.0735    2.3322    3.2533 H   0  0  0  0  0  0  0  0  0  0  0  0
   -2.9094    2.9120    2.7660 H   0  0  0  0  0  0  0  0  0  0  0  0
   -1.8018    3.9552    3.6660 H   0  0  0  0  0  0  0  0  0  0  0  0
   -1.5632    3.6962    1.9277 H   0  0  0  0  0  0  0  0  0  0  0  0
   -0.9760    1.9858    5.5741 N   0  0  0  0  0  0  0  0  0  0  0  0
   -1.2732    1.5277    6.9112 C   0  0  0  0  0  0  0  0  0  0  0  0
   -0.3957    2.8135    5.4747 H   0  0  0  0  0  0  0  0  0  0  0  0
   -2.1968    2.0077    7.2670 H   0  0  0  0  0  0  0  0  0  0  0  0
   -1.4070    0.4359    6.9034 H   0  0  0  0  0  0  0  0  0  0  0  0
   -0.4418    1.7904    7.5819 H   0  0  0  0  0  0  0  0  0  0  0  0
  1  3  1  0  0  0  0
  1  7  1  0  0  0  0
  1  2  2  0  0  0  0
 35 36  1  0  0  0  0
 36 44  1  0  0  0  0
 36 37  2  0  0  0  0
  8  9  1  0  0  0  0
  9 17  1  0  0  0  0
  9 10  2  0  0  0  0
 18 19  1  0  0  0  0
 19 34  1  0  0  0  0
 19 20  2  0  0  0  0
 35 38  1  0  0  0  0
  8 11  1  0  0  0  0
 44 45  1  0  0  0  0
 23 24  1  0  0  0  0
 21 22  1  0  0  0  0
 18 21  1  0  0  0  0
 22 23  1  0  0  0  0
 34 35  1  0  0  0  0
  7  8  1  0  0  0  0
 17 18  1  0  0  0  0
  3  4  1  0  0  0  0
  3  5  1  0  0  0  0
  3  6  1  0  0  0  0
 38 41  1  0  0  0  0
 38 42  1  0  0  0  0
 38 43  1  0  0  0  0
 11 14  1  0  0  0  0
 11 15  1  0  0  0  0
 11 16  1  0  0  0  0
 45 47  1  0  0  0  0
 45 48  1  0  0  0  0
 45 49  1  0  0  0  0
 24 31  1  0  0  0  0
 24 32  1  0  0  0  0
 24 33  1  0  0  0  0
 21 27  1  0  0  0  0
 21 28  1  0  0  0  0
 22 29  1  0  0  0  0
 22 30  1  0  0  0  0
 35 40  1  0  0  0  0
  8 13  1  0  0  0  0
 18 26  1  0  0  0  0
 44 46  1  0  0  0  0
  7 12  1  0  0  0  0
 34 39  1  0  0  0  0
 17 25  1  0  0  0  0
M  END
$$$$

  -OEChem-05262214473D

 49 48  0     1  0  0  0  0  0999 V2000
   -0.0561   -5.3799    2.6949 C   0  0  0  0  0  0  0  0  0  0  0  0
    0.7325   -5.0736    3.5815 O   0  0  0  0  0  0  0  0  0  0  0  0
   -1.0067   -6.5099    2.9135 C   0  0  0  0  0  0  0  0  0  0  0  0
   -0.5910   -7.4777    2.5899 H   0  0  0  0  0  0  0  0  0  0  0  0
   -1.2629   -6.6440    3.9767 H   0  0  0  0  0  0  0  0  0  0  0  0
   -1.9729   -6.4206    2.3918 H   0  0  0  0  0  0  0  0  0  0  0  0
   -0.1735   -4.7694    1.4571 N   0  0  0  0  0  0  0  0  0  0  0  0
    0.6439   -3.6603    1.0409 C   0  0  2  0  0  0  0  0  0  0  0  0
   -0.2788   -2.5625    0.5280 C   0  0  0  0  0  0  0  0  0  0  0  0
   -1.4197   -2.7791    0.1251 O   0  0  0  0  0  0  0  0  0  0  0  0
    1.6395   -4.0779   -0.0301 C   0  0  0  0  0  0  0  0  0  0  0  0
   -0.8741   -5.1235    0.8083 H   0  0  0  0  0  0  0  0  0  0  0  0
    1.1738   -3.3062    1.9318 H   0  0  0  0  0  0  0  0  0  0  0  0
    1.1270   -4.4358   -0.9305 H   0  0  0  0  0  0  0  0  0  0  0  0
    2.2797   -3.2400   -0.3251 H   0  0  0  0  0  0  0  0  0  0  0  0
    2.2827   -4.8880    0.3303 H   0  0  0  0  0  0  0  0  0  0  0  0
    0.3351   -1.3153    0.5316 N   0  0  0  0  0  0  0  0  0  0  0  0
   -0.3268   -0.1184    0.0807 C   0  0  2  0  0  0  0  0  0  0  0  0
   -0.0568    0.9991    1.0837 C   0  0  0  0  0  0  0  0  0  0  0  0
    0.7514    1.9021    0.8775 O   0  0  0  0  0  0  0  0  0  0  0  0
   -1.8242   -0.3444   -0.1696 C   0  0  0  0  0  0  0  0  0  0  0  0
   -2.1157   -1.2994   -1.3296 C   0  0  0  0  0  0  0  0  0  0  0  0
   -1.4429   -0.6385   -2.8835 S   0  0  0  0  0  0  0  0  0  0  0  0
   -2.5695    0.7606   -3.0807 C   0  0  0  0  0  0  0  0  0  0  0  0
    1.2790   -1.2290    0.9021 H   0  0  0  0  0  0  0  0  0  0  0  0
    0.1564    0.1520   -0.8660 H   0  0  0  0  0  0  0  0  0  0  0  0
   -2.2913    0.6285   -0.3732 H   0  0  0  0  0  0  0  0  0  0  0  0
   -2.2852   -0.7341    0.7471 H   0  0  0  0  0  0  0  0  0  0  0  0
   -3.1928   -1.4377   -1.4625 H   0  0  0  0  0  0  0  0  0  0  0  0
   -1.6642   -2.2805   -1.1552 H   0  0  0  0  0  0  0  0  0  0  0  0
   -2.3237    1.3102   -3.9927 H   0  0  0  0  0  0  0  0  0  0  0  0
   -2.4794    1.4332   -2.2241 H   0  0  0  0  0  0  0  0  0  0  0  0
   -3.5994    0.4015   -3.1464 H   0  0  0  0  0  0  0  0  0  0  0  0
   -0.7988    0.8512    2.2467 N   0  0  0  0  0  0  0  0  0  0  0  0
   -0.7067    1.7771    3.3512 C   0  0  2  0  0  0  0  0  0  0  0  0
   -0.7647    0.9742    4.6440 C   0  0  0  0  0  0  0  0  0  0  0  0
   -1.2577   -0.1497    4.7141 O   0  0  0  0  0  0  0  0  0  0  0  0
   -1.8222    2.8096    3.3021 C   0  0  0  0  0  0  0  0  0  0  0  0
   -1.4655    0.0885    2.3213 H   0  0  0  0  0  0  0  0  0  0  0  0
    0.2682    2.2701    3.2701 H   0  0  0  0  0  0  0  0  0  0  0  0
   -2.8067    2.3344    3.3819 H   0  0  0  0  0  0  0  0  0  0  0  0
   -1.7343    3.5280    4.1239 H   0  0  0  0  0  0  0  0  0  0  0  0
   -1.7971    3.3659    2.3588 H   0  0  0  0  0  0  0  0  0  0  0  0
   -0.2401    1.6777    5.7192 N   0  0  0  0  0  0  0  0  0  0  0  0
   -0.1928    1.1357    7.0571 C   0  0  0  0  0  0  0  0  0  0  0  0
    0.1646    2.5966    5.5655 H   0  0  0  0  0  0  0  0  0  0  0  0
   -1.0966    1.4364    7.6073 H   0  0  0  0  0  0  0  0  0  0  0  0
   -0.1428    0.0380    7.0064 H   0  0  0  0  0  0  0  0  0  0  0  0
    0.6974    1.5197    7.5769 H   0  0  0  0  0  0  0  0  0  0  0  0
  1  3  1  0  0  0  0
  1  7  1  0  0  0  0
  1  2  2  0  0  0  0
 35 36  1  0  0  0  0
 36 44  1  0  0  0  0
 36 37  2  0  0  0  0
  8  9  1  0  0  0  0
  9 17  1  0  0  0  0
  9 10  2  0  0  0  0
 18 19  1  0  0  0  0
 19 34  1  0  0  0  0
 19 20  2  0  0  0  0
 35 38  1  0  0  0  0
  8 11  1  0  0  0  0
 44 45  1  0  0  0  0
 23 24  1  0  0  0  0
 21 22  1  0  0  0  0
 18 21  1  0  0  0  0
 22 23  1  0  0  0  0
 34 35  1  0  0  0  0
  7  8  1  0  0  0  0
 17 18  1  0  0  0  0
  3  4  1  0  0  0  0
  3  5  1  0  0  0  0
  3  6  1  0  0  0  0
 38 41  1  0  0  0  0
 38 42  1  0  0  0  0
 38 43  1  0  0  0  0
 11 14  1  0  0  0  0
 11 15  1  0  0  0  0
 11 16  1  0  0  0  0
 45 47  1  0  0  0  0
 45 48  1  0  0  0  0
 45 49  1  0  0  0  0
 24 31  1  0  0  0  0
 24 32  1  0  0  0  0
 24 33  1  0  0  0  0
 21 27  1  0  0  0  0
 21 28  1  0  0  0  0
 22 29  1  0  0  0  0
 22 30  1  0  0  0  0
 35 40  1  0  0  0  0
  8 13  1  0  0  0  0
 18 26  1  0  0  0  0
 44 46  1  0  0  0  0
  7 12  1  0  0  0  0
 34 39  1  0  0  0  0
 17 25  1  0  0  0  0
M  END
$$$$

  -OEChem-05262214473D

 49 48  0     1  0  0  0  0  0999 V2000
   -0.0561   -5.3799    2.6949 C   0  0  0  0  0  0  0  0  0  0  0  0
    0.7325   -5.0736    3.5815 O   0  0  0  0  0  0  0  0  0  0  0  0
   -1.0067   -6.5099    2.9135 C   0  0  0  0  0  0  0  0  0  0  0  0
   -0.5910   -7.4777    2.5899 H   0  0  0  0  0  0  0  0  0  0  0  0
   -1.2629   -6.6440    3.9767 H   0  0  0  0  0  0  0  0  0  0  0  0
   -1.9729   -6.4206    2.3918 H   0  0  0  0  0  0  0  0  0  0  0  0
   -0.1735   -4.7694    1.4571 N   0  0  0  0  0  0  0  0  0  0  0  0
    0.6439   -3.6603    1.0409 C   0  0  2  0  0  0  0  0  0  0  0  0
   -0.2788   -2.5625    0.5280 C   0  0  0  0  0  0  0  0  0  0  0  0
   -1.4197   -2.7791    0.1251 O   0  0  0  0  0  0  0  0  0  0  0  0
    1.6395   -4.0779   -0.0301 C   0  0  0  0  0  0  0  0  0  0  0  0
   -0.8741   -5.1235    0.8083 H   0  0  0  0  0  0  0  0  0  0  0  0
    1.1738   -3.3062    1.9318 H   0  0  0  0  0  0  0  0  0  0  0  0
    1.1270   -4.4358   -0.9305 H   0  0  0  0  0  0  0  0  0  0  0  0
    2.2797   -3.2400   -0.3251 H   0  0  0  0  0  0  0  0  0  0  0  0
    2.2827   -4.8880    0.3303 H   0  0  0  0  0  0  0  0  0  0  0  0
    0.3351   -1.3153    0.5316 N   0  0  0  0  0  0  0  0  0  0  0  0
   -0.3268   -0.1184    0.0807 C   0  0  2  0  0  0  0  0  0  0  0  0
   -0.0568    0.9991    1.0837 C   0  0  0  0  0  0  0  0  0  0  0  0
    0.5351    2.0350    0.7877 O   0  0  0  0  0  0  0  0  0  0  0  0
   -1.8242   -0.3444   -0.1696 C   0  0  0  0  0  0  0  0  0  0  0  0
   -2.1157   -1.2994   -1.3296 C   0  0  0  0  0  0  0  0  0  0  0  0
   -1.4429   -0.6385   -2.8835 S   0  0  0  0  0  0  0  0  0  0  0  0
   -2.5695    0.7606   -3.0807 C   0  0  0  0  0  0  0  0  0  0  0  0
    1.2790   -1.2290    0.9021 H   0  0  0  0  0  0  0  0  0  0  0  0
    0.1564    0.1520   -0.8660 H   0  0  0  0  0  0  0  0  0  0  0  0
   -2.2913    0.6285   -0.3732 H   0  0  0  0  0  0  0  0  0  0  0  0
   -2.2852   -0.7341    0.7471 H   0  0  0  0  0  0  0  0  0  0  0  0
   -3.1928   -1.4377   -1.4625 H   0  0  0  0  0  0  0  0  0  0  0  0
   -1.6642   -2.2805   -1.1552 H   0  0  0  0  0  0  0  0  0  0  0  0
   -2.3237    1.3102   -3.9927 H   0  0  0  0  0  0  0  0  0  0  0  0
   -2.4794    1.4332   -2.2241 H   0  0  0  0  0  0  0  0  0  0  0  0
   -3.5994    0.4015   -3.1464 H   0  0  0  0  0  0  0  0  0  0  0  0
   -0.5247    0.6898    2.3528 N   0  0  0  0  0  0  0  0  0  0  0  0
   -0.3754    1.5847    3.4763 C   0  0  2  0  0  0  0  0  0  0  0  0
   -0.0481    0.7464    4.7050 C   0  0  0  0  0  0  0  0  0  0  0  0
   -0.3250   -0.4479    4.7953 O   0  0  0  0  0  0  0  0  0  0  0  0
   -1.6346    2.4077    3.6995 C   0  0  0  0  0  0  0  0  0  0  0  0
   -1.0285   -0.1794    2.5022 H   0  0  0  0  0  0  0  0  0  0  0  0
    0.4699    2.2425    3.2466 H   0  0  0  0  0  0  0  0  0  0  0  0
   -2.4924    1.7657    3.9309 H   0  0  0  0  0  0  0  0  0  0  0  0
   -1.5097    3.1058    4.5337 H   0  0  0  0  0  0  0  0  0  0  0  0
   -1.8852    2.9872    2.8044 H   0  0  0  0  0  0  0  0  0  0  0  0
    0.5506    1.4987    5.7058 N   0  0  0  0  0  0  0  0  0  0  0  0
    0.9451    0.9342    6.9753 C   0  0  0  0  0  0  0  0  0  0  0  0
    0.7599    2.4783    5.5371 H   0  0  0  0  0  0  0  0  0  0  0  0
    0.1278    1.0562    7.7013 H   0  0  0  0  0  0  0  0  0  0  0  0
    1.1656   -0.1359    6.8479 H   0  0  0  0  0  0  0  0  0  0  0  0
    1.8429    1.4522    7.3436 H   0  0  0  0  0  0  0  0  0  0  0  0
  1  3  1  0  0  0  0
  1  7  1  0  0  0  0
  1  2  2  0  0  0  0
 35 36  1  0  0  0  0
 36 44  1  0  0  0  0
 36 37  2  0  0  0  0
  8  9  1  0  0  0  0
  9 17  1  0  0  0  0
  9 10  2  0  0  0  0
 18 19  1  0  0  0  0
 19 34  1  0  0  0  0
 19 20  2  0  0  0  0
 35 38  1  0  0  0  0
  8 11  1  0  0  0  0
 44 45  1  0  0  0  0
 23 24  1  0  0  0  0
 21 22  1  0  0  0  0
 18 21  1  0  0  0  0
 22 23  1  0  0  0  0
 34 35  1  0  0  0  0
  7  8  1  0  0  0  0
 17 18  1  0  0  0  0
  3  4  1  0  0  0  0
  3  5  1  0  0  0  0
  3  6  1  0  0  0  0
 38 41  1  0  0  0  0
 38 42  1  0  0  0  0
 38 43  1  0  0  0  0
 11 14  1  0  0  0  0
 11 15  1  0  0  0  0
 11 16  1  0  0  0  0
 45 47  1  0  0  0  0
 45 48  1  0  0  0  0
 45 49  1  0  0  0  0
 24 31  1  0  0  0  0
 24 32  1  0  0  0  0
 24 33  1  0  0  0  0
 21 27  1  0  0  0  0
 21 28  1  0  0  0  0
 22 29  1  0  0  0  0
 22 30  1  0  0  0  0
 35 40  1  0  0  0  0
  8 13  1  0  0  0  0
 18 26  1  0  0  0  0
 44 46  1  0  0  0  0
  7 12  1  0  0  0  0
 34 39  1  0  0  0  0
 17 25  1  0  0  0  0
M  END
$$$$

  -OEChem-05262214473D

 49 48  0     1  0  0  0  0  0999 V2000
   -0.0561   -5.3799    2.6949 C   0  0  0  0  0  0  0  0  0  0  0  0
    0.7325   -5.0736    3.5815 O   0  0  0  0  0  0  0  0  0  0  0  0
   -1.0067   -6.5099    2.9135 C   0  0  0  0  0  0  0  0  0  0  0  0
   -0.5910   -7.4777    2.5899 H   0  0  0  0  0  0  0  0  0  0  0  0
   -1.2629   -6.6440    3.9767 H   0  0  0  0  0  0  0  0  0  0  0  0
   -1.9729   -6.4206    2.3918 H   0  0  0  0  0  0  0  0  0  0  0  0
   -0.1735   -4.7694    1.4571 N   0  0  0  0  0  0  0  0  0  0  0  0
    0.6439   -3.6603    1.0409 C   0  0  2  0  0  0  0  0  0  0  0  0
   -0.2788   -2.5625    0.5280 C   0  0  0  0  0  0  0  0  0  0  0  0
   -1.4197   -2.7791    0.1251 O   0  0  0  0  0  0  0  0  0  0  0  0
    1.6395   -4.0779   -0.0301 C   0  0  0  0  0  0  0  0  0  0  0  0
   -0.8741   -5.1235    0.8083 H   0  0  0  0  0  0  0  0  0  0  0  0
    1.1738   -3.3062    1.9318 H   0  0  0  0  0  0  0  0  0  0  0  0
    1.1270   -4.4358   -0.9305 H   0  0  0  0  0  0  0  0  0  0  0  0
    2.2797   -3.2400   -0.3251 H   0  0  0  0  0  0  0  0  0  0  0  0
    2.2827   -4.8880    0.3303 H   0  0  0  0  0  0  0  0  0  0  0  0
    0.3351   -1.3153    0.5316 N   0  0  0  0  0  0  0  0  0  0  0  0
   -0.3268   -0.1184    0.0807 C   0  0  2  0  0  0  0  0  0  0  0  0
   -0.0568    0.9991    1.0837 C   0  0  0  0  0  0  0  0  0  0  0  0
    0.2866    2.1307    0.7480 O   0  0  0  0  0  0  0  0  0  0  0  0
   -1.8242   -0.3444   -0.1696 C   0  0  0  0  0  0  0  0  0  0  0  0
   -2.1157   -1.2994   -1.3296 C   0  0  0  0  0  0  0  0  0  0  0  0
   -1.4429   -0.6385   -2.8835 S   0  0  0  0  0  0  0  0  0  0  0  0
   -2.5695    0.7606   -3.0807 C   0  0  0  0  0  0  0  0  0  0  0  0
    1.2790   -1.2290    0.9021 H   0  0  0  0  0  0  0  0  0  0  0  0
    0.1564    0.1520   -0.8660 H   0  0  0  0  0  0  0  0  0  0  0  0
   -2.2913    0.6285   -0.3732 H   0  0  0  0  0  0  0  0  0  0  0  0
   -2.2852   -0.7341    0.7471 H   0  0  0  0  0  0  0  0  0  0  0  0
   -3.1928   -1.4377   -1.4625 H   0  0  0  0  0  0  0  0  0  0  0  0
   -1.6642   -2.2805   -1.1552 H   0  0  0  0  0  0  0  0  0  0  0  0
   -2.3237    1.3102   -3.9927 H   0  0  0  0  0  0  0  0  0  0  0  0
   -2.4794    1.4332   -2.2241 H   0  0  0  0  0  0  0  0  0  0  0  0
   -3.5994    0.4015   -3.1464 H   0  0  0  0  0  0  0  0  0  0  0  0
   -0.2124    0.5757    2.3958 N   0  0  0  0  0  0  0  0  0  0  0  0
    0.0011    1.4495    3.5256 C   0  0  2  0  0  0  0  0  0  0  0  0
    0.6943    0.6454    4.6176 C   0  0  0  0  0  0  0  0  0  0  0  0
    0.6420   -0.5810    4.6833 O   0  0  0  0  0  0  0  0  0  0  0  0
   -1.3097    2.0331    4.0293 C   0  0  0  0  0  0  0  0  0  0  0  0
   -0.5266   -0.3721    2.5818 H   0  0  0  0  0  0  0  0  0  0  0  0
    0.6651    2.2512    3.1843 H   0  0  0  0  0  0  0  0  0  0  0  0
   -1.9880    1.2447    4.3756 H   0  0  0  0  0  0  0  0  0  0  0  0
   -1.1432    2.7175    4.8677 H   0  0  0  0  0  0  0  0  0  0  0  0
   -1.8213    2.5860    3.2341 H   0  0  0  0  0  0  0  0  0  0  0  0
    1.3423    1.4610    5.5347 N   0  0  0  0  0  0  0  0  0  0  0  0
    2.0630    0.9370    6.6713 C   0  0  0  0  0  0  0  0  0  0  0  0
    1.3497    2.4666    5.3914 H   0  0  0  0  0  0  0  0  0  0  0  0
    1.3929    0.8930    7.5425 H   0  0  0  0  0  0  0  0  0  0  0  0
    2.4289   -0.0740    6.4389 H   0  0  0  0  0  0  0  0  0  0  0  0
    2.9166    1.5927    6.8981 H   0  0  0  0  0  0  0  0  0  0  0  0
  1  3  1  0  0  0  0
  1  7  1  0  0  0  0
  1  2  2  0  0  0  0
 35 36  1  0  0  0  0
 36 44  1  0  0  0  0
 36 37  2  0  0  0  0
  8  9  1  0  0  0  0
  9 17  1  0  0  0  0
  9 10  2  0  0  0  0
 18 19  1  0  0  0  0
 19 34  1  0  0  0  0
 19 20  2  0  0  0  0
 35 38  1  0  0  0  0
  8 11  1  0  0  0  0
 44 45  1  0  0  0  0
 23 24  1  0  0  0  0
 21 22  1  0  0  0  0
 18 21  1  0  0  0  0
 22 23  1  0  0  0  0
 34 35  1  0  0  0  0
  7  8  1  0  0  0  0
 17 18  1  0  0  0  0
  3  4  1  0  0  0  0
  3  5  1  0  0  0  0
  3  6  1  0  0  0  0
 38 41  1  0  0  0  0
 38 42  1  0  0  0  0
 38 43  1  0  0  0  0
 11 14  1  0  0  0  0
 11 15  1  0  0  0  0
 11 16  1  0  0  0  0
 45 47  1  0  0  0  0
 45 48  1  0  0  0  0
 45 49  1  0  0  0  0
 24 31  1  0  0  0  0
 24 32  1  0  0  0  0
 24 33  1  0  0  0  0
 21 27  1  0  0  0  0
 21 28  1  0  0  0  0
 22 29  1  0  0  0  0
 22 30  1  0  0  0  0
 35 40  1  0  0  0  0
  8 13  1  0  0  0  0
 18 26  1  0  0  0  0
 44 46  1  0  0  0  0
  7 12  1  0  0  0  0
 34 39  1  0  0  0  0
 17 25  1  0  0  0  0
M  END
$$$$

  -OEChem-05262214473D

 49 48  0     1  0  0  0  0  0999 V2000
   -0.0561   -5.3799    2.6949 C   0  0  0  0  0  0  0  0  0  0  0  0
    0.7325   -5.0736    3.5815 O   0  0  0  0  0  0  0  0  0  0  0  0
   -1.0067   -6.5099    2.9135 C   0  0  0  0  0  0  0  0  0  0  0  0
   -0.5910   -7.4777    2.5899 H   0  0  0  0  0  0  0  0  0  0  0  0
   -1.2629   -6.6440    3.9767 H   0  0  0  0  0  0  0  0  0  0  0  0
   -1.9729   -6.4206    2.3918 H   0  0  0  0  0  0  0  0  0  0  0  0
   -0.1735   -4.7694    1.4571 N   0  0  0  0  0  0  0  0  0  0  0  0
    0.6439   -3.6603    1.0409 C   0  0  2  0  0  0  0  0  0  0  0  0
   -0.2788   -2.5625    0.5280 C   0  0  0  0  0  0  0  0  0  0  0  0
   -1.4197   -2.7791    0.1251 O   0  0  0  0  0  0  0  0  0  0  0  0
    1.6395   -4.0779   -0.0301 C   0  0  0  0  0  0  0  0  0  0  0  0
   -0.8741   -5.1235    0.8083 H   0  0  0  0  0  0  0  0  0  0  0  0
    1.1738   -3.3062    1.9318 H   0  0  0  0  0  0  0  0  0  0  0  0
    1.1270   -4.4358   -0.9305 H   0  0  0  0  0  0  0  0  0  0  0  0
    2.2797   -3.2400   -0.3251 H   0  0  0  0  0  0  0  0  0  0  0  0
    2.2827   -4.8880    0.3303 H   0  0  0  0  0  0  0  0  0  0  0  0
    0.3351   -1.3153    0.5316 N   0  0  0  0  0  0  0  0  0  0  0  0
   -0.3268   -0.1184    0.0807 C   0  0  2  0  0  0  0  0  0  0  0  0
   -0.0568    0.9991    1.0837 C   0  0  0  0  0  0  0  0  0  0  0  0
    0.0228    2.1826    0.7611 O   0  0  0  0  0  0  0  0  0  0  0  0
   -1.8242   -0.3444   -0.1696 C   0  0  0  0  0  0  0  0  0  0  0  0
   -2.1157   -1.2994   -1.3296 C   0  0  0  0  0  0  0  0  0  0  0  0
   -1.4429   -0.6385   -2.8835 S   0  0  0  0  0  0  0  0  0  0  0  0
   -2.5695    0.7606   -3.0807 C   0  0  0  0  0  0  0  0  0  0  0  0
    1.2790   -1.2290    0.9021 H   0  0  0  0  0  0  0  0  0  0  0  0
    0.1564    0.1520   -0.8660 H   0  0  0  0  0  0  0  0  0  0  0  0
   -2.2913    0.6285   -0.3732 H   0  0  0  0  0  0  0  0  0  0  0  0
   -2.2852   -0.7341    0.7471 H   0  0  0  0  0  0  0  0  0  0  0  0
   -3.1928   -1.4377   -1.4625 H   0  0  0  0  0  0  0  0  0  0  0  0
   -1.6642   -2.2805   -1.1552 H   0  0  0  0  0  0  0  0  0  0  0  0
   -2.3237    1.3102   -3.9927 H   0  0  0  0  0  0  0  0  0  0  0  0
   -2.4794    1.4332   -2.2241 H   0  0  0  0  0  0  0  0  0  0  0  0
   -3.5994    0.4015   -3.1464 H   0  0  0  0  0  0  0  0  0  0  0  0
    0.1168    0.5167    2.3730 N   0  0  0  0  0  0  0  0  0  0  0  0
    0.3972    1.3807    3.4956 C   0  0  2  0  0  0  0  0  0  0  0  0
    1.4121    0.6782    4.3878 C   0  0  0  0  0  0  0  0  0  0  0  0
    1.5775   -0.5398    4.3856 O   0  0  0  0  0  0  0  0  0  0  0  0
   -0.8696    1.7114    4.2692 C   0  0  0  0  0  0  0  0  0  0  0  0
    0.0061   -0.4765    2.5547 H   0  0  0  0  0  0  0  0  0  0  0  0
    0.8403    2.2957    3.0876 H   0  0  0  0  0  0  0  0  0  0  0  0
   -1.3279    0.8070    4.6856 H   0  0  0  0  0  0  0  0  0  0  0  0
   -0.6597    2.3895    5.1030 H   0  0  0  0  0  0  0  0  0  0  0  0
   -1.6099    2.1897    3.6188 H   0  0  0  0  0  0  0  0  0  0  0  0
    2.0810    1.5671    5.2176 N   0  0  0  0  0  0  0  0  0  0  0  0
    3.0848    1.1437    6.1659 C   0  0  0  0  0  0  0  0  0  0  0  0
    1.8938    2.5623    5.1382 H   0  0  0  0  0  0  0  0  0  0  0  0
    2.6127    0.9579    7.1419 H   0  0  0  0  0  0  0  0  0  0  0  0
    3.5612    0.2194    5.8072 H   0  0  0  0  0  0  0  0  0  0  0  0
    3.8454    1.9314    6.2707 H   0  0  0  0  0  0  0  0  0  0  0  0
  1  3  1  0  0  0  0
  1  7  1  0  0  0  0
  1  2  2  0  0  0  0
 35 36  1  0  0  0  0
 36 44  1  0  0  0  0
 36 37  2  0  0  0  0
  8  9  1  0  0  0  0
  9 17  1  0  0  0  0
  9 10  2  0  0  0  0
 18 19  1  0  0  0  0
 19 34  1  0  0  0  0
 19 20  2  0  0  0  0
 35 38  1  0  0  0  0
  8 11  1  0  0  0  0
 44 45  1  0  0  0  0
 23 24  1  0  0  0  0
 21 22  1  0  0  0  0
 18 21  1  0  0  0  0
 22 23  1  0  0  0  0
 34 35  1  0  0  0  0
  7  8  1  0  0  0  0
 17 18  1  0  0  0  0
  3  4  1  0  0  0  0
  3  5  1  0  0  0  0
  3  6  1  0  0  0  0
 38 41  1  0  0  0  0
 38 42  1  0  0  0  0
 38 43  1  0  0  0  0
 11 14  1  0  0  0  0
 11 15  1  0  0  0  0
 11 16  1  0  0  0  0
 45 47  1  0  0  0  0
 45 48  1  0  0  0  0
 45 49  1  0  0  0  0
 24 31  1  0  0  0  0
 24 32  1  0  0  0  0
 24 33  1  0  0  0  0
 21 27  1  0  0  0  0
 21 28  1  0  0  0  0
 22 29  1  0  0  0  0
 22 30  1  0  0  0  0
 35 40  1  0  0  0  0
  8 13  1  0  0  0  0
 18 26  1  0  0  0  0
 44 46  1  0  0  0  0
  7 12  1  0  0  0  0
 34 39  1  0  0  0  0
 17 25  1  0  0  0  0
M  END
$$$$

  -OEChem-05262214473D

 49 48  0     1  0  0  0  0  0999 V2000
   -0.0561   -5.3799    2.6949 C   0  0  0  0  0  0  0  0  0  0  0  0
    0.7325   -5.0736    3.5815 O   0  0  0  0  0  0  0  0  0  0  0  0
   -1.0067   -6.5099    2.9135 C   0  0  0  0  0  0  0  0  0  0  0  0
   -0.5910   -7.4777    2.5899 H   0  0  0  0  0  0  0  0  0  0  0  0
   -1.2629   -6.6440    3.9767 H   0  0  0  0  0  0  0  0  0  0  0  0
   -1.9729   -6.4206    2.3918 H   0  0  0  0  0  0  0  0  0  0  0  0
   -0.1735   -4.7694    1.4571 N   0  0  0  0  0  0  0  0  0  0  0  0
    0.6439   -3.6603    1.0409 C   0  0  2  0  0  0  0  0  0  0  0  0
   -0.2788   -2.5625    0.5280 C   0  0  0  0  0  0  0  0  0  0  0  0
   -1.4197   -2.7791    0.1251 O   0  0  0  0  0  0  0  0  0  0  0  0
    1.6395   -4.0779   -0.0301 C   0  0  0  0  0  0  0  0  0  0  0  0
   -0.8741   -5.1235    0.8083 H   0  0  0  0  0  0  0  0  0  0  0  0
    1.1738   -3.3062    1.9318 H   0  0  0  0  0  0  0  0  0  0  0  0
    1.1270   -4.4358   -0.9305 H   0  0  0  0  0  0  0  0  0  0  0  0
    2.2797   -3.2400   -0.3251 H   0  0  0  0  0  0  0  0  0  0  0  0
    2.2827   -4.8880    0.3303 H   0  0  0  0  0  0  0  0  0  0  0  0
    0.3351   -1.3153    0.5316 N   0  0  0  0  0  0  0  0  0  0  0  0
   -0.3268   -0.1184    0.0807 C   0  0  2  0  0  0  0  0  0  0  0  0
   -0.0568    0.9991    1.0837 C   0  0  0  0  0  0  0  0  0  0  0  0
   -0.2385    2.1873    0.8262 O   0  0  0  0  0  0  0  0  0  0  0  0
   -1.8242   -0.3444   -0.1696 C   0  0  0  0  0  0  0  0  0  0  0  0
   -2.1157   -1.2994   -1.3296 C   0  0  0  0  0  0  0  0  0  0  0  0
   -1.4429   -0.6385   -2.8835 S   0  0  0  0  0  0  0  0  0  0  0  0
   -2.5695    0.7606   -3.0807 C   0  0  0  0  0  0  0  0  0  0  0  0
    1.2790   -1.2290    0.9021 H   0  0  0  0  0  0  0  0  0  0  0  0
    0.1564    0.1520   -0.8660 H   0  0  0  0  0  0  0  0  0  0  0  0
   -2.2913    0.6285   -0.3732 H   0  0  0  0  0  0  0  0  0  0  0  0
   -2.2852   -0.7341    0.7471 H   0  0  0  0  0  0  0  0  0  0  0  0
   -3.1928   -1.4377   -1.4625 H   0  0  0  0  0  0  0  0  0  0  0  0
   -1.6642   -2.2805   -1.1552 H   0  0  0  0  0  0  0  0  0  0  0  0
   -2.3237    1.3102   -3.9927 H   0  0  0  0  0  0  0  0  0  0  0  0
   -2.4794    1.4332   -2.2241 H   0  0  0  0  0  0  0  0  0  0  0  0
   -3.5994    0.4015   -3.1464 H   0  0  0  0  0  0  0  0  0  0  0  0
    0.4405    0.5167    2.2858 N   0  0  0  0  0  0  0  0  0  0  0  0
    0.7857    1.3830    3.3884 C   0  0  2  0  0  0  0  0  0  0  0  0
    2.0562    0.8426    4.0313 C   0  0  0  0  0  0  0  0  0  0  0  0
    2.4176   -0.3273    3.9227 O   0  0  0  0  0  0  0  0  0  0  0  0
   -0.3444    1.4646    4.4028 C   0  0  0  0  0  0  0  0  0  0  0  0
    0.5332   -0.4854    2.4227 H   0  0  0  0  0  0  0  0  0  0  0  0
    0.9836    2.3729    2.9629 H   0  0  0  0  0  0  0  0  0  0  0  0
   -0.5570    0.4822    4.8399 H   0  0  0  0  0  0  0  0  0  0  0  0
   -0.0924    2.1441    5.2237 H   0  0  0  0  0  0  0  0  0  0  0  0
   -1.2653    1.8253    3.9321 H   0  0  0  0  0  0  0  0  0  0  0  0
    2.7164    1.8098    4.7762 N   0  0  0  0  0  0  0  0  0  0  0  0
    3.9407    1.5405    5.4934 C   0  0  0  0  0  0  0  0  0  0  0  0
    2.3550    2.7589    4.7950 H   0  0  0  0  0  0  0  0  0  0  0  0
    3.7039    1.2465    6.5266 H   0  0  0  0  0  0  0  0  0  0  0  0
    4.4852    0.7244    4.9957 H   0  0  0  0  0  0  0  0  0  0  0  0
    4.5660    2.4454    5.5040 H   0  0  0  0  0  0  0  0  0  0  0  0
  1  3  1  0  0  0  0
  1  7  1  0  0  0  0
  1  2  2  0  0  0  0
 35 36  1  0  0  0  0
 36 44  1  0  0  0  0
 36 37  2  0  0  0  0
  8  9  1  0  0  0  0
  9 17  1  0  0  0  0
  9 10  2  0  0  0  0
 18 19  1  0  0  0  0
 19 34  1  0  0  0  0
 19 20  2  0  0  0  0
 35 38  1  0  0  0  0
  8 11  1  0  0  0  0
 44 45  1  0  0  0  0
 23 24  1  0  0  0  0
 21 22  1  0  0  0  0
 18 21  1  0  0  0  0
 22 23  1  0  0  0  0
 34 35  1  0  0  0  0
  7  8  1  0  0  0  0
 17 18  1  0  0  0  0
  3  4  1  0  0  0  0
  3  5  1  0  0  0  0
  3  6  1  0  0  0  0
 38 41  1  0  0  0  0
 38 42  1  0  0  0  0
 38 43  1  0  0  0  0
 11 14  1  0  0  0  0
 11 15  1  0  0  0  0
 11 16  1  0  0  0  0
 45 47  1  0  0  0  0
 45 48  1  0  0  0  0
 45 49  1  0  0  0  0
 24 31  1  0  0  0  0
 24 32  1  0  0  0  0
 24 33  1  0  0  0  0
 21 27  1  0  0  0  0
 21 28  1  0  0  0  0
 22 29  1  0  0  0  0
 22 30  1  0  0  0  0
 35 40  1  0  0  0  0
  8 13  1  0  0  0  0
 18 26  1  0  0  0  0
 44 46  1  0  0  0  0
  7 12  1  0  0  0  0
 34 39  1  0  0  0  0
 17 25  1  0  0  0  0
M  END
$$$$

  -OEChem-05262214473D

 49 48  0     1  0  0  0  0  0999 V2000
   -0.0561   -5.3799    2.6949 C   0  0  0  0  0  0  0  0  0  0  0  0
    0.7325   -5.0736    3.5815 O   0  0  0  0  0  0  0  0  0  0  0  0
   -1.0067   -6.5099    2.9135 C   0  0  0  0  0  0  0  0  0  0  0  0
   -0.5910   -7.4777    2.5899 H   0  0  0  0  0  0  0  0  0  0  0  0
   -1.2629   -6.6440    3.9767 H   0  0  0  0  0  0  0  0  0  0  0  0
   -1.9729   -6.4206    2.3918 H   0  0  0  0  0  0  0  0  0  0  0  0
   -0.1735   -4.7694    1.4571 N   0  0  0  0  0  0  0  0  0  0  0  0
    0.6439   -3.6603    1.0409 C   0  0  2  0  0  0  0  0  0  0  0  0
   -0.2788   -2.5625    0.5280 C   0  0  0  0  0  0  0  0  0  0  0  0
   -1.4197   -2.7791    0.1251 O   0  0  0  0  0  0  0  0  0  0  0  0
    1.6395   -4.0779   -0.0301 C   0  0  0  0  0  0  0  0  0  0  0  0
   -0.8741   -5.1235    0.8083 H   0  0  0  0  0  0  0  0  0  0  0  0
    1.1738   -3.3062    1.9318 H   0  0  0  0  0  0  0  0  0  0  0  0
    1.1270   -4.4358   -0.9305 H   0  0  0  0  0  0  0  0  0  0  0  0
    2.2797   -3.2400   -0.3251 H   0  0  0  0  0  0  0  0  0  0  0  0
    2.2827   -4.8880    0.3303 H   0  0  0  0  0  0  0  0  0  0  0  0
    0.3351   -1.3153    0.5316 N   0  0  0  0  0  0  0  0  0  0  0  0
   -0.3268   -0.1184    0.0807 C   0  0  2  0  0  0  0  0  0  0  0  0
   -0.0568    0.9991    1.0837 C   0  0  0  0  0  0  0  0  0  0  0  0
   -0.4792    2.1444    0.9388 O   0  0  0  0  0  0  0  0  0  0  0  0
   -1.8242   -0.3444   -0.1696 C   0  0  0  0  0  0  0  0  0  0  0  0
   -2.1157   -1.2994   -1.3296 C   0  0  0  0  0  0  0  0  0  0  0  0
   -1.4429   -0.6385   -2.8835 S   0  0  0  0  0  0  0  0  0  0  0  0
   -2.5695    0.7606   -3.0807 C   0  0  0  0  0  0  0  0  0  0  0  0
    1.2790   -1.2290    0.9021 H   0  0  0  0  0  0  0  0  0  0  0  0
    0.1564    0.1520   -0.8660 H   0  0  0  0  0  0  0  0  0  0  0  0
   -2.2913    0.6285   -0.3732 H   0  0  0  0  0  0  0  0  0  0  0  0
   -2.2852   -0.7341    0.7471 H   0  0  0  0  0  0  0  0  0  0  0  0
   -3.1928   -1.4377   -1.4625 H   0  0  0  0  0  0  0  0  0  0  0  0
   -1.6642   -2.2805   -1.1552 H   0  0  0  0  0  0  0  0  0  0  0  0
   -2.3237    1.3102   -3.9927 H   0  0  0  0  0  0  0  0  0  0  0  0
   -2.4794    1.4332   -2.2241 H   0  0  0  0  0  0  0  0  0  0  0  0
   -3.5994    0.4015   -3.1464 H   0  0  0  0  0  0  0  0  0  0  0  0
    0.7367    0.5758    2.1402 N   0  0  0  0  0  0  0  0  0  0  0  0
    1.1403    1.4563    3.2113 C   0  0  2  0  0  0  0  0  0  0  0  0
    2.5829    1.1273    3.5723 C   0  0  0  0  0  0  0  0  0  0  0  0
    3.1052    0.0421    3.3259 O   0  0  0  0  0  0  0  0  0  0  0  0
    0.2303    1.3095    4.4209 C   0  0  0  0  0  0  0  0  0  0  0  0
    1.0189   -0.3984    2.1950 H   0  0  0  0  0  0  0  0  0  0  0  0
    1.0853    2.4776    2.8189 H   0  0  0  0  0  0  0  0  0  0  0  0
    0.2722    0.2926    4.8279 H   0  0  0  0  0  0  0  0  0  0  0  0
    0.5203    1.9981    5.2214 H   0  0  0  0  0  0  0  0  0  0  0  0
   -0.8111    1.5176    4.1527 H   0  0  0  0  0  0  0  0  0  0  0  0
    3.2051    2.1726    4.2404 N   0  0  0  0  0  0  0  0  0  0  0  0
    4.5725    2.1001    4.6998 C   0  0  0  0  0  0  0  0  0  0  0  0
    2.7020    3.0430    4.3850 H   0  0  0  0  0  0  0  0  0  0  0  0
    4.5922    1.7390    5.7387 H   0  0  0  0  0  0  0  0  0  0  0  0
    5.1379    1.4067    4.0599 H   0  0  0  0  0  0  0  0  0  0  0  0
    5.0292    3.0996    4.6504 H   0  0  0  0  0  0  0  0  0  0  0  0
  1  3  1  0  0  0  0
  1  7  1  0  0  0  0
  1  2  2  0  0  0  0
 35 36  1  0  0  0  0
 36 44  1  0  0  0  0
 36 37  2  0  0  0  0
  8  9  1  0  0  0  0
  9 17  1  0  0  0  0
  9 10  2  0  0  0  0
 18 19  1  0  0  0  0
 19 34  1  0  0  0  0
 19 20  2  0  0  0  0
 35 38  1  0  0  0  0
  8 11  1  0  0  0  0
 44 45  1  0  0  0  0
 23 24  1  0  0  0  0
 21 22  1  0  0  0  0
 18 21  1  0  0  0  0
 22 23  1  0  0  0  0
 34 35  1  0  0  0  0
  7  8  1  0  0  0  0
 17 18  1  0  0  0  0
  3  4  1  0  0  0  0
  3  5  1  0  0  0  0
  3  6  1  0  0  0  0
 38 41  1  0  0  0  0
 38 42  1  0  0  0  0
 38 43  1  0  0  0  0
 11 14  1  0  0  0  0
 11 15  1  0  0  0  0
 11 16  1  0  0  0  0
 45 47  1  0  0  0  0
 45 48  1  0  0  0  0
 45 49  1  0  0  0  0
 24 31  1  0  0  0  0
 24 32  1  0  0  0  0
 24 33  1  0  0  0  0
 21 27  1  0  0  0  0
 21 28  1  0  0  0  0
 22 29  1  0  0  0  0
 22 30  1  0  0  0  0
 35 40  1  0  0  0  0
  8 13  1  0  0  0  0
 18 26  1  0  0  0  0
 44 46  1  0  0  0  0
  7 12  1  0  0  0  0
 34 39  1  0  0  0  0
 17 25  1  0  0  0  0
M  END
$$$$

  -OEChem-05262214473D

 49 48  0     1  0  0  0  0  0999 V2000
   -0.0561   -5.3799    2.6949 C   0  0  0  0  0  0  0  0  0  0  0  0
    0.7325   -5.0736    3.5815 O   0  0  0  0  0  0  0  0  0  0  0  0
   -1.0067   -6.5099    2.9135 C   0  0  0  0  0  0  0  0  0  0  0  0
   -0.5910   -7.4777    2.5899 H   0  0  0  0  0  0  0  0  0  0  0  0
   -1.2629   -6.6440    3.9767 H   0  0  0  0  0  0  0  0  0  0  0  0
   -1.9729   -6.4206    2.3918 H   0  0  0  0  0  0  0  0  0  0  0  0
   -0.1735   -4.7694    1.4571 N   0  0  0  0  0  0  0  0  0  0  0  0
    0.6439   -3.6603    1.0409 C   0  0  2  0  0  0  0  0  0  0  0  0
   -0.2788   -2.5625    0.5280 C   0  0  0  0  0  0  0  0  0  0  0  0
   -1.4197   -2.7791    0.1251 O   0  0  0  0  0  0  0  0  0  0  0  0
    1.6395   -4.0779   -0.0301 C   0  0  0  0  0  0  0  0  0  0  0  0
   -0.8741   -5.1235    0.8083 H   0  0  0  0  0  0  0  0  0  0  0  0
    1.1738   -3.3062    1.9318 H   0  0  0  0  0  0  0  0  0  0  0  0
    1.1270   -4.4358   -0.9305 H   0  0  0  0  0  0  0  0  0  0  0  0
    2.2797   -3.2400   -0.3251 H   0  0  0  0  0  0  0  0  0  0  0  0
    2.2827   -4.8880    0.3303 H   0  0  0  0  0  0  0  0  0  0  0  0
    0.3351   -1.3153    0.5316 N   0  0  0  0  0  0  0  0  0  0  0  0
   -0.3268   -0.1184    0.0807 C   0  0  2  0  0  0  0  0  0  0  0  0
   -0.0568    0.9991    1.0837 C   0  0  0  0  0  0  0  0  0  0  0  0
   -0.6831    2.0568    1.0913 O   0  0  0  0  0  0  0  0  0  0  0  0
   -1.8242   -0.3444   -0.1696 C   0  0  0  0  0  0  0  0  0  0  0  0
   -2.1157   -1.2994   -1.3296 C   0  0  0  0  0  0  0  0  0  0  0  0
   -1.4429   -0.6385   -2.8835 S   0  0  0  0  0  0  0  0  0  0  0  0
   -2.5695    0.7606   -3.0807 C   0  0  0  0  0  0  0  0  0  0  0  0
    1.2790   -1.2290    0.9021 H   0  0  0  0  0  0  0  0  0  0  0  0
    0.1564    0.1520   -0.8660 H   0  0  0  0  0  0  0  0  0  0  0  0
   -2.2913    0.6285   -0.3732 H   0  0  0  0  0  0  0  0  0  0  0  0
   -2.2852   -0.7341    0.7471 H   0  0  0  0  0  0  0  0  0  0  0  0
   -3.1928   -1.4377   -1.4625 H   0  0  0  0  0  0  0  0  0  0  0  0
   -1.6642   -2.2805   -1.1552 H   0  0  0  0  0  0  0  0  0  0  0  0
   -2.3237    1.3102   -3.9927 H   0  0  0  0  0  0  0  0  0  0  0  0
   -2.4794    1.4332   -2.2241 H   0  0  0  0  0  0  0  0  0  0  0  0
   -3.5994    0.4015   -3.1464 H   0  0  0  0  0  0  0  0  0  0  0  0
    0.9852    0.6900    1.9462 N   0  0  0  0  0  0  0  0  0  0  0  0
    1.4368    1.5955    2.9764 C   0  0  2  0  0  0  0  0  0  0  0  0
    2.9562    1.5129    3.0422 C   0  0  0  0  0  0  0  0  0  0  0  0
    3.5934    0.5433    2.6361 O   0  0  0  0  0  0  0  0  0  0  0  0
    0.8153    1.2566    4.3224 C   0  0  0  0  0  0  0  0  0  0  0  0
    1.4301   -0.2212    1.8869 H   0  0  0  0  0  0  0  0  0  0  0  0
    1.1384    2.6026    2.6654 H   0  0  0  0  0  0  0  0  0  0  0  0
    1.1030    0.2512    4.6505 H   0  0  0  0  0  0  0  0  0  0  0  0
    1.1365    1.9614    5.0964 H   0  0  0  0  0  0  0  0  0  0  0  0
   -0.2781    1.2875    4.2655 H   0  0  0  0  0  0  0  0  0  0  0  0
    3.5139    2.6306    3.6469 N   0  0  0  0  0  0  0  0  0  0  0  0
    4.9371    2.7846    3.8391 C   0  0  0  0  0  0  0  0  0  0  0  0
    2.9111    3.3953    3.9362 H   0  0  0  0  0  0  0  0  0  0  0  0
    5.2170    2.4021    4.8317 H   0  0  0  0  0  0  0  0  0  0  0  0
    5.4749    2.2195    3.0635 H   0  0  0  0  0  0  0  0  0  0  0  0
    5.2035    3.8494    3.7681 H   0  0  0  0  0  0  0  0  0  0  0  0
  1  3  1  0  0  0  0
  1  7  1  0  0  0  0
  1  2  2  0  0  0  0
 35 36  1  0  0  0  0
 36 44  1  0  0  0  0
 36 37  2  0  0  0  0
  8  9  1  0  0  0  0
  9 17  1  0  0  0  0
  9 10  2  0  0  0  0
 18 19  1  0  0  0  0
 19 34  1  0  0  0  0
 19 20  2  0  0  0  0
 35 38  1  0  0  0  0
  8 11  1  0  0  0  0
 44 45  1  0  0  0  0
 23 24  1  0  0  0  0
 21 22  1  0  0  0  0
 18 21  1  0  0  0  0
 22 23  1  0  0  0  0
 34 35  1  0  0  0  0
  7  8  1  0  0  0  0
 17 18  1  0  0  0  0
  3  4  1  0  0  0  0
  3  5  1  0  0  0  0
  3  6  1  0  0  0  0
 38 41  1  0  0  0  0
 38 42  1  0  0  0  0
 38 43  1  0  0  0  0
 11 14  1  0  0  0  0
 11 15  1  0  0  0  0
 11 16  1  0  0  0  0
 45 47  1  0  0  0  0
 45 48  1  0  0  0  0
 45 49  1  0  0  0  0
 24 31  1  0  0  0  0
 24 32  1  0  0  0  0
 24 33  1  0  0  0  0
 21 27  1  0  0  0  0
 21 28  1  0  0  0  0
 22 29  1  0  0  0  0
 22 30  1  0  0  0  0
 35 40  1  0  0  0  0
  8 13  1  0  0  0  0
 18 26  1  0  0  0  0
 44 46  1  0  0  0  0
  7 12  1  0  0  0  0
 34 39  1  0  0  0  0
 17 25  1  0  0  0  0
M  END
$$$$

  -OEChem-05262214473D

 49 48  0     1  0  0  0  0  0999 V2000
   -0.0561   -5.3799    2.6949 C   0  0  0  0  0  0  0  0  0  0  0  0
    0.7325   -5.0736    3.5815 O   0  0  0  0  0  0  0  0  0  0  0  0
   -1.0067   -6.5099    2.9135 C   0  0  0  0  0  0  0  0  0  0  0  0
   -0.5910   -7.4777    2.5899 H   0  0  0  0  0  0  0  0  0  0  0  0
   -1.2629   -6.6440    3.9767 H   0  0  0  0  0  0  0  0  0  0  0  0
   -1.9729   -6.4206    2.3918 H   0  0  0  0  0  0  0  0  0  0  0  0
   -0.1735   -4.7694    1.4571 N   0  0  0  0  0  0  0  0  0  0  0  0
    0.6439   -3.6603    1.0409 C   0  0  2  0  0  0  0  0  0  0  0  0
   -0.2788   -2.5625    0.5280 C   0  0  0  0  0  0  0  0  0  0  0  0
   -1.4197   -2.7791    0.1251 O   0  0  0  0  0  0  0  0  0  0  0  0
    1.6395   -4.0779   -0.0301 C   0  0  0  0  0  0  0  0  0  0  0  0
   -0.8741   -5.1235    0.8083 H   0  0  0  0  0  0  0  0  0  0  0  0
    1.1738   -3.3062    1.9318 H   0  0  0  0  0  0  0  0  0  0  0  0
    1.1270   -4.4358   -0.9305 H   0  0  0  0  0  0  0  0  0  0  0  0
    2.2797   -3.2400   -0.3251 H   0  0  0  0  0  0  0  0  0  0  0  0
    2.2827   -4.8880    0.3303 H   0  0  0  0  0  0  0  0  0  0  0  0
    0.3351   -1.3153    0.5316 N   0  0  0  0  0  0  0  0  0  0  0  0
   -0.3268   -0.1184    0.0807 C   0  0  2  0  0  0  0  0  0  0  0  0
   -0.0568    0.9991    1.0837 C   0  0  0  0  0  0  0  0  0  0  0  0
   -0.8363    1.9306    1.2732 O   0  0  0  0  0  0  0  0  0  0  0  0
   -1.8242   -0.3444   -0.1696 C   0  0  0  0  0  0  0  0  0  0  0  0
   -2.1157   -1.2994   -1.3296 C   0  0  0  0  0  0  0  0  0  0  0  0
   -1.4429   -0.6385   -2.8835 S   0  0  0  0  0  0  0  0  0  0  0  0
   -2.5695    0.7606   -3.0807 C   0  0  0  0  0  0  0  0  0  0  0  0
    1.2790   -1.2290    0.9021 H   0  0  0  0  0  0  0  0  0  0  0  0
    0.1564    0.1520   -0.8660 H   0  0  0  0  0  0  0  0  0  0  0  0
   -2.2913    0.6285   -0.3732 H   0  0  0  0  0  0  0  0  0  0  0  0
   -2.2852   -0.7341    0.7471 H   0  0  0  0  0  0  0  0  0  0  0  0
   -3.1928   -1.4377   -1.4625 H   0  0  0  0  0  0  0  0  0  0  0  0
   -1.6642   -2.2805   -1.1552 H   0  0  0  0  0  0  0  0  0  0  0  0
   -2.3237    1.3102   -3.9927 H   0  0  0  0  0  0  0  0  0  0  0  0
   -2.4794    1.4332   -2.2241 H   0  0  0  0  0  0  0  0  0  0  0  0
   -3.5994    0.4015   -3.1464 H   0  0  0  0  0  0  0  0  0  0  0  0
    1.1689    0.8514    1.7168 N   0  0  0  0  0  0  0  0  0  0  0  0
    1.6550    1.7912    2.6997 C   0  0  2  0  0  0  0  0  0  0  0  0
    3.1506    1.9732    2.4770 C   0  0  0  0  0  0  0  0  0  0  0  0
    3.8489    1.1421    1.9002 O   0  0  0  0  0  0  0  0  0  0  0  0
    1.3706    1.3096    4.1138 C   0  0  0  0  0  0  0  0  0  0  0  0
    1.7387    0.0341    1.5194 H   0  0  0  0  0  0  0  0  0  0  0  0
    1.1393    2.7394    2.5127 H   0  0  0  0  0  0  0  0  0  0  0  0
    1.8790    0.3606    4.3196 H   0  0  0  0  0  0  0  0  0  0  0  0
    1.7142    2.0366    4.8572 H   0  0  0  0  0  0  0  0  0  0  0  0
    0.2972    1.1507    4.2630 H   0  0  0  0  0  0  0  0  0  0  0  0
    3.6217    3.1529    3.0361 N   0  0  0  0  0  0  0  0  0  0  0  0
    5.0096    3.5471    2.9700 C   0  0  0  0  0  0  0  0  0  0  0  0
    2.9681    3.7917    3.4792 H   0  0  0  0  0  0  0  0  0  0  0  0
    5.5358    3.1904    3.8676 H   0  0  0  0  0  0  0  0  0  0  0  0
    5.4732    3.1077    2.0744 H   0  0  0  0  0  0  0  0  0  0  0  0
    5.0770    4.6438    2.9171 H   0  0  0  0  0  0  0  0  0  0  0  0
  1  3  1  0  0  0  0
  1  7  1  0  0  0  0
  1  2  2  0  0  0  0
 35 36  1  0  0  0  0
 36 44  1  0  0  0  0
 36 37  2  0  0  0  0
  8  9  1  0  0  0  0
  9 17  1  0  0  0  0
  9 10  2  0  0  0  0
 18 19  1  0  0  0  0
 19 34  1  0  0  0  0
 19 20  2  0  0  0  0
 35 38  1  0  0  0  0
  8 11  1  0  0  0  0
 44 45  1  0  0  0  0
 23 24  1  0  0  0  0
 21 22  1  0  0  0  0
 18 21  1  0  0  0  0
 22 23  1  0  0  0  0
 34 35  1  0  0  0  0
  7  8  1  0  0  0  0
 17 18  1  0  0  0  0
  3  4  1  0  0  0  0
  3  5  1  0  0  0  0
  3  6  1  0  0  0  0
 38 41  1  0  0  0  0
 38 42  1  0  0  0  0
 38 43  1  0  0  0  0
 11 14  1  0  0  0  0
 11 15  1  0  0  0  0
 11 16  1  0  0  0  0
 45 47  1  0  0  0  0
 45 48  1  0  0  0  0
 45 49  1  0  0  0  0
 24 31  1  0  0  0  0
 24 32  1  0  0  0  0
 24 33  1  0  0  0  0
 21 27  1  0  0  0  0
 21 28  1  0  0  0  0
 22 29  1  0  0  0  0
 22 30  1  0  0  0  0
 35 40  1  0  0  0  0
  8 13  1  0  0  0  0
 18 26  1  0  0  0  0
 44 46  1  0  0  0  0
  7 12  1  0  0  0  0
 34 39  1  0  0  0  0
 17 25  1  0  0  0  0
M  END
$$$$

  -OEChem-05262214473D

 49 48  0     1  0  0  0  0  0999 V2000
   -0.0561   -5.3799    2.6949 C   0  0  0  0  0  0  0  0  0  0  0  0
    0.7325   -5.0736    3.5815 O   0  0  0  0  0  0  0  0  0  0  0  0
   -1.0067   -6.5099    2.9135 C   0  0  0  0  0  0  0  0  0  0  0  0
   -0.5910   -7.4777    2.5899 H   0  0  0  0  0  0  0  0  0  0  0  0
   -1.2629   -6.6440    3.9767 H   0  0  0  0  0  0  0  0  0  0  0  0
   -1.9729   -6.4206    2.3918 H   0  0  0  0  0  0  0  0  0  0  0  0
   -0.1735   -4.7694    1.4571 N   0  0  0  0  0  0  0  0  0  0  0  0
    0.6439   -3.6603    1.0409 C   0  0  2  0  0  0  0  0  0  0  0  0
   -0.2788   -2.5625    0.5280 C   0  0  0  0  0  0  0  0  0  0  0  0
   -1.4197   -2.7791    0.1251 O   0  0  0  0  0  0  0  0  0  0  0  0
    1.6395   -4.0779   -0.0301 C   0  0  0  0  0  0  0  0  0  0  0  0
   -0.8741   -5.1235    0.8083 H   0  0  0  0  0  0  0  0  0  0  0  0
    1.1738   -3.3062    1.9318 H   0  0  0  0  0  0  0  0  0  0  0  0
    1.1270   -4.4358   -0.9305 H   0  0  0  0  0  0  0  0  0  0  0  0
    2.2797   -3.2400   -0.3251 H   0  0  0  0  0  0  0  0  0  0  0  0
    2.2827   -4.8880    0.3303 H   0  0  0  0  0  0  0  0  0  0  0  0
    0.3351   -1.3153    0.5316 N   0  0  0  0  0  0  0  0  0  0  0  0
   -0.3268   -0.1184    0.0807 C   0  0  2  0  0  0  0  0  0  0  0  0
   -0.0568    0.9991    1.0837 C   0  0  0  0  0  0  0  0  0  0  0  0
   -0.9283    1.7742    1.4722 O   0  0  0  0  0  0  0  0  0  0  0  0
   -1.8242   -0.3444   -0.1696 C   0  0  0  0  0  0  0  0  0  0  0  0
   -2.1157   -1.2994   -1.3296 C   0  0  0  0  0  0  0  0  0  0  0  0
   -1.4429   -0.6385   -2.8835 S   0  0  0  0  0  0  0  0  0  0  0  0
   -2.5695    0.7606   -3.0807 C   0  0  0  0  0  0  0  0  0  0  0  0
    1.2790   -1.2290    0.9021 H   0  0  0  0  0  0  0  0  0  0  0  0
    0.1564    0.1520   -0.8660 H   0  0  0  0  0  0  0  0  0  0  0  0
   -2.2913    0.6285   -0.3732 H   0  0  0  0  0  0  0  0  0  0  0  0
   -2.2852   -0.7341    0.7471 H   0  0  0  0  0  0  0  0  0  0  0  0
   -3.1928   -1.4377   -1.4625 H   0  0  0  0  0  0  0  0  0  0  0  0
   -1.6642   -2.2805   -1.1552 H   0  0  0  0  0  0  0  0  0  0  0  0
   -2.3237    1.3102   -3.9927 H   0  0  0  0  0  0  0  0  0  0  0  0
   -2.4794    1.4332   -2.2241 H   0  0  0  0  0  0  0  0  0  0  0  0
   -3.5994    0.4015   -3.1464 H   0  0  0  0  0  0  0  0  0  0  0  0
    1.2755    1.0491    1.4679 N   0  0  0  0  0  0  0  0  0  0  0  0
    1.7800    2.0300    2.3999 C   0  0  2  0  0  0  0  0  0  0  0  0
    3.1529    2.4767    1.9153 C   0  0  0  0  0  0  0  0  0  0  0  0
    3.8543    1.7976    1.1684 O   0  0  0  0  0  0  0  0  0  0  0  0
    1.8585    1.4648    3.8096 C   0  0  0  0  0  0  0  0  0  0  0  0
    1.9237    0.3499    1.1177 H   0  0  0  0  0  0  0  0  0  0  0  0
    1.0879    2.8787    2.3713 H   0  0  0  0  0  0  0  0  0  0  0  0
    2.5472    0.6135    3.8580 H   0  0  0  0  0  0  0  0  0  0  0  0
    2.2141    2.2184    4.5200 H   0  0  0  0  0  0  0  0  0  0  0  0
    0.8757    1.1167    4.1452 H   0  0  0  0  0  0  0  0  0  0  0  0
    3.5212    3.7036    2.4495 N   0  0  0  0  0  0  0  0  0  0  0  0
    4.7851    4.3358    2.1516 C   0  0  0  0  0  0  0  0  0  0  0  0
    2.8691    4.2052    3.0452 H   0  0  0  0  0  0  0  0  0  0  0  0
    5.5268    4.0502    2.9120 H   0  0  0  0  0  0  0  0  0  0  0  0
    5.1329    4.0107    1.1600 H   0  0  0  0  0  0  0  0  0  0  0  0
    4.6583    5.4285    2.1555 H   0  0  0  0  0  0  0  0  0  0  0  0
  1  3  1  0  0  0  0
  1  7  1  0  0  0  0
  1  2  2  0  0  0  0
 35 36  1  0  0  0  0
 36 44  1  0  0  0  0
 36 37  2  0  0  0  0
  8  9  1  0  0  0  0
  9 17  1  0  0  0  0
  9 10  2  0  0  0  0
 18 19  1  0  0  0  0
 19 34  1  0  0  0  0
 19 20  2  0  0  0  0
 35 38  1  0  0  0  0
  8 11  1  0  0  0  0
 44 45  1  0  0  0  0
 23 24  1  0  0  0  0
 21 22  1  0  0  0  0
 18 21  1  0  0  0  0
 22 23  1  0  0  0  0
 34 35  1  0  0  0  0
  7  8  1  0  0  0  0
 17 18  1  0  0  0  0
  3  4  1  0  0  0  0
  3  5  1  0  0  0  0
  3  6  1  0  0  0  0
 38 41  1  0  0  0  0
 38 42  1  0  0  0  0
 38 43  1  0  0  0  0
 11 14  1  0  0  0  0
 11 15  1  0  0  0  0
 11 16  1  0  0  0  0
 45 47  1  0  0  0  0
 45 48  1  0  0  0  0
 45 49  1  0  0  0  0
 24 31  1  0  0  0  0
 24 32  1  0  0  0  0
 24 33  1  0  0  0  0
 21 27  1  0  0  0  0
 21 28  1  0  0  0  0
 22 29  1  0  0  0  0
 22 30  1  0  0  0  0
 35 40  1  0  0  0  0
  8 13  1  0  0  0  0
 18 26  1  0  0  0  0
 44 46  1  0  0  0  0
  7 12  1  0  0  0  0
 34 39  1  0  0  0  0
 17 25  1  0  0  0  0
M  END
$$$$

  -OEChem-05262214473D

 49 48  0     1  0  0  0  0  0999 V2000
   -0.0561   -5.3799    2.6949 C   0  0  0  0  0  0  0  0  0  0  0  0
    0.7325   -5.0736    3.5815 O   0  0  0  0  0  0  0  0  0  0  0  0
   -1.0067   -6.5099    2.9135 C   0  0  0  0  0  0  0  0  0  0  0  0
   -0.5910   -7.4777    2.5899 H   0  0  0  0  0  0  0  0  0  0  0  0
   -1.2629   -6.6440    3.9767 H   0  0  0  0  0  0  0  0  0  0  0  0
   -1.9729   -6.4206    2.3918 H   0  0  0  0  0  0  0  0  0  0  0  0
   -0.1735   -4.7694    1.4571 N   0  0  0  0  0  0  0  0  0  0  0  0
    0.6439   -3.6603    1.0409 C   0  0  2  0  0  0  0  0  0  0  0  0
   -0.2788   -2.5625    0.5280 C   0  0  0  0  0  0  0  0  0  0  0  0
   -1.4197   -2.7791    0.1251 O   0  0  0  0  0  0  0  0  0  0  0  0
    1.6395   -4.0779   -0.0301 C   0  0  0  0  0  0  0  0  0  0  0  0
   -0.8741   -5.1235    0.8083 H   0  0  0  0  0  0  0  0  0  0  0  0
    1.1738   -3.3062    1.9318 H   0  0  0  0  0  0  0  0  0  0  0  0
    1.1270   -4.4358   -0.9305 H   0  0  0  0  0  0  0  0  0  0  0  0
    2.2797   -3.2400   -0.3251 H   0  0  0  0  0  0  0  0  0  0  0  0
    2.2827   -4.8880    0.3303 H   0  0  0  0  0  0  0  0  0  0  0  0
    0.3351   -1.3153    0.5316 N   0  0  0  0  0  0  0  0  0  0  0  0
   -0.3268   -0.1184    0.0807 C   0  0  2  0  0  0  0  0  0  0  0  0
   -0.0568    0.9991    1.0837 C   0  0  0  0  0  0  0  0  0  0  0  0
   -0.9528    1.5984    1.6746 O   0  0  0  0  0  0  0  0  0  0  0  0
   -1.8242   -0.3444   -0.1696 C   0  0  0  0  0  0  0  0  0  0  0  0
   -2.1157   -1.2994   -1.3296 C   0  0  0  0  0  0  0  0  0  0  0  0
   -1.4429   -0.6385   -2.8835 S   0  0  0  0  0  0  0  0  0  0  0  0
   -2.5695    0.7606   -3.0807 C   0  0  0  0  0  0  0  0  0  0  0  0
    1.2790   -1.2290    0.9021 H   0  0  0  0  0  0  0  0  0  0  0  0
    0.1564    0.1520   -0.8660 H   0  0  0  0  0  0  0  0  0  0  0  0
   -2.2913    0.6285   -0.3732 H   0  0  0  0  0  0  0  0  0  0  0  0
   -2.2852   -0.7341    0.7471 H   0  0  0  0  0  0  0  0  0  0  0  0
   -3.1928   -1.4377   -1.4625 H   0  0  0  0  0  0  0  0  0  0  0  0
   -1.6642   -2.2805   -1.1552 H   0  0  0  0  0  0  0  0  0  0  0  0
   -2.3237    1.3102   -3.9927 H   0  0  0  0  0  0  0  0  0  0  0  0
   -2.4794    1.4332   -2.2241 H   0  0  0  0  0  0  0  0  0  0  0  0
   -3.5994    0.4015   -3.1464 H   0  0  0  0  0  0  0  0  0  0  0  0
    1.2976    1.2696    1.2163 N   0  0  0  0  0  0  0  0  0  0  0  0
    1.8032    2.2957    2.0977 C   0  0  2  0  0  0  0  0  0  0  0  0
    2.9630    2.9893    1.3954 C   0  0  0  0  0  0  0  0  0  0  0  0
    3.6093    2.4653    0.4905 O   0  0  0  0  0  0  0  0  0  0  0  0
    2.2457    1.7117    3.4303 C   0  0  0  0  0  0  0  0  0  0  0  0
    1.9725    0.7049    0.7090 H   0  0  0  0  0  0  0  0  0  0  0  0
    0.9878    3.0110    2.2508 H   0  0  0  0  0  0  0  0  0  0  0  0
    3.0621    0.9926    3.2970 H   0  0  0  0  0  0  0  0  0  0  0  0
    2.6021    2.4946    4.1079 H   0  0  0  0  0  0  0  0  0  0  0  0
    1.4179    1.1876    3.9202 H   0  0  0  0  0  0  0  0  0  0  0  0
    3.2192    4.2453    1.9272 N   0  0  0  0  0  0  0  0  0  0  0  0
    4.2790    5.0970    1.4398 C   0  0  0  0  0  0  0  0  0  0  0  0
    2.6208    4.6077    2.6636 H   0  0  0  0  0  0  0  0  0  0  0  0
    5.1907    4.9230    2.0301 H   0  0  0  0  0  0  0  0  0  0  0  0
    4.4773    4.8668    0.3826 H   0  0  0  0  0  0  0  0  0  0  0  0
    3.9760    6.1501    1.5352 H   0  0  0  0  0  0  0  0  0  0  0  0
  1  3  1  0  0  0  0
  1  7  1  0  0  0  0
  1  2  2  0  0  0  0
 35 36  1  0  0  0  0
 36 44  1  0  0  0  0
 36 37  2  0  0  0  0
  8  9  1  0  0  0  0
  9 17  1  0  0  0  0
  9 10  2  0  0  0  0
 18 19  1  0  0  0  0
 19 34  1  0  0  0  0
 19 20  2  0  0  0  0
 35 38  1  0  0  0  0
  8 11  1  0  0  0  0
 44 45  1  0  0  0  0
 23 24  1  0  0  0  0
 21 22  1  0  0  0  0
 18 21  1  0  0  0  0
 22 23  1  0  0  0  0
 34 35  1  0  0  0  0
  7  8  1  0  0  0  0
 17 18  1  0  0  0  0
  3  4  1  0  0  0  0
  3  5  1  0  0  0  0
  3  6  1  0  0  0  0
 38 41  1  0  0  0  0
 38 42  1  0  0  0  0
 38 43  1  0  0  0  0
 11 14  1  0  0  0  0
 11 15  1  0  0  0  0
 11 16  1  0  0  0  0
 45 47  1  0  0  0  0
 45 48  1  0  0  0  0
 45 49  1  0  0  0  0
 24 31  1  0  0  0  0
 24 32  1  0  0  0  0
 24 33  1  0  0  0  0
 21 27  1  0  0  0  0
 21 28  1  0  0  0  0
 22 29  1  0  0  0  0
 22 30  1  0  0  0  0
 35 40  1  0  0  0  0
  8 13  1  0  0  0  0
 18 26  1  0  0  0  0
 44 46  1  0  0  0  0
  7 12  1  0  0  0  0
 34 39  1  0  0  0  0
 17 25  1  0  0  0  0
M  END
$$$$

  -OEChem-05262214473D

 49 48  0     1  0  0  0  0  0999 V2000
   -0.0561   -5.3799    2.6949 C   0  0  0  0  0  0  0  0  0  0  0  0
    0.7325   -5.0736    3.5815 O   0  0  0  0  0  0  0  0  0  0  0  0
   -1.0067   -6.5099    2.9135 C   0  0  0  0  0  0  0  0  0  0  0  0
   -0.5910   -7.4777    2.5899 H   0  0  0  0  0  0  0  0  0  0  0  0
   -1.2629   -6.6440    3.9767 H   0  0  0  0  0  0  0  0  0  0  0  0
   -1.9729   -6.4206    2.3918 H   0  0  0  0  0  0  0  0  0  0  0  0
   -0.1735   -4.7694    1.4571 N   0  0  0  0  0  0  0  0  0  0  0  0
    0.6439   -3.6603    1.0409 C   0  0  2  0  0  0  0  0  0  0  0  0
   -0.2788   -2.5625    0.5280 C   0  0  0  0  0  0  0  0  0  0  0  0
   -1.4197   -2.7791    0.1251 O   0  0  0  0  0  0  0  0  0  0  0  0
    1.6395   -4.0779   -0.0301 C   0  0  0  0  0  0  0  0  0  0  0  0
   -0.8741   -5.1235    0.8083 H   0  0  0  0  0  0  0  0  0  0  0  0
    1.1738   -3.3062    1.9318 H   0  0  0  0  0  0  0  0  0  0  0  0
    1.1270   -4.4358   -0.9305 H   0  0  0  0  0  0  0  0  0  0  0  0
    2.2797   -3.2400   -0.3251 H   0  0  0  0  0  0  0  0  0  0  0  0
    2.2827   -4.8880    0.3303 H   0  0  0  0  0  0  0  0  0  0  0  0
    0.3351   -1.3153    0.5316 N   0  0  0  0  0  0  0  0  0  0  0  0
   -0.3268   -0.1184    0.0807 C   0  0  2  0  0  0  0  0  0  0  0  0
   -0.0568    0.9991    1.0837 C   0  0  0  0  0  0  0  0  0  0  0  0
   -0.9082    1.4152    1.8668 O   0  0  0  0  0  0  0  0  0  0  0  0
   -1.8242   -0.3444   -0.1696 C   0  0  0  0  0  0  0  0  0  0  0  0
   -2.1157   -1.2994   -1.3296 C   0  0  0  0  0  0  0  0  0  0  0  0
   -1.4429   -0.6385   -2.8835 S   0  0  0  0  0  0  0  0  0  0  0  0
   -2.5695    0.7606   -3.0807 C   0  0  0  0  0  0  0  0  0  0  0  0
    1.2790   -1.2290    0.9021 H   0  0  0  0  0  0  0  0  0  0  0  0
    0.1564    0.1520   -0.8660 H   0  0  0  0  0  0  0  0  0  0  0  0
   -2.2913    0.6285   -0.3732 H   0  0  0  0  0  0  0  0  0  0  0  0
   -2.2852   -0.7341    0.7471 H   0  0  0  0  0  0  0  0  0  0  0  0
   -3.1928   -1.4377   -1.4625 H   0  0  0  0  0  0  0  0  0  0  0  0
   -1.6642   -2.2805   -1.1552 H   0  0  0  0  0  0  0  0  0  0  0  0
   -2.3237    1.3102   -3.9927 H   0  0  0  0  0  0  0  0  0  0  0  0
   -2.4794    1.4332   -2.2241 H   0  0  0  0  0  0  0  0  0  0  0  0
   -3.5994    0.4015   -3.1464 H   0  0  0  0  0  0  0  0  0  0  0  0
    1.2337    1.4978    0.9792 N   0  0  0  0  0  0  0  0  0  0  0  0
    1.7232    2.5701    1.8135 C   0  0  2  0  0  0  0  0  0  0  0  0
    2.5939    3.4758    0.9527 C   0  0  0  0  0  0  0  0  0  0  0  0
    3.1305    3.0995   -0.0873 O   0  0  0  0  0  0  0  0  0  0  0  0
    2.5057    2.0334    3.0019 C   0  0  0  0  0  0  0  0  0  0  0  0
    1.8817    1.0748    0.3213 H   0  0  0  0  0  0  0  0  0  0  0  0
    0.8458    3.1273    2.1595 H   0  0  0  0  0  0  0  0  0  0  0  0
    3.3886    1.4721    2.6749 H   0  0  0  0  0  0  0  0  0  0  0  0
    2.8518    2.8462    3.6489 H   0  0  0  0  0  0  0  0  0  0  0  0
    1.8870    1.3587    3.6033 H   0  0  0  0  0  0  0  0  0  0  0  0
    2.7363    4.7412    1.5048 N   0  0  0  0  0  0  0  0  0  0  0  0
    3.5256    5.7787    0.8831 C   0  0  0  0  0  0  0  0  0  0  0  0
    2.2401    4.9717    2.3606 H   0  0  0  0  0  0  0  0  0  0  0  0
    4.5504    5.7492    1.2819 H   0  0  0  0  0  0  0  0  0  0  0  0
    3.5509    5.6178   -0.2048 H   0  0  0  0  0  0  0  0  0  0  0  0
    3.0766    6.7595    1.0984 H   0  0  0  0  0  0  0  0  0  0  0  0
  1  3  1  0  0  0  0
  1  7  1  0  0  0  0
  1  2  2  0  0  0  0
 35 36  1  0  0  0  0
 36 44  1  0  0  0  0
 36 37  2  0  0  0  0
  8  9  1  0  0  0  0
  9 17  1  0  0  0  0
  9 10  2  0  0  0  0
 18 19  1  0  0  0  0
 19 34  1  0  0  0  0
 19 20  2  0  0  0  0
 35 38  1  0  0  0  0
  8 11  1  0  0  0  0
 44 45  1  0  0  0  0
 23 24  1  0  0  0  0
 21 22  1  0  0  0  0
 18 21  1  0  0  0  0
 22 23  1  0  0  0  0
 34 35  1  0  0  0  0
  7  8  1  0  0  0  0
 17 18  1  0  0  0  0
  3  4  1  0  0  0  0
  3  5  1  0  0  0  0
  3  6  1  0  0  0  0
 38 41  1  0  0  0  0
 38 42  1  0  0  0  0
 38 43  1  0  0  0  0
 11 14  1  0  0  0  0
 11 15  1  0  0  0  0
 11 16  1  0  0  0  0
 45 47  1  0  0  0  0
 45 48  1  0  0  0  0
 45 49  1  0  0  0  0
 24 31  1  0  0  0  0
 24 32  1  0  0  0  0
 24 33  1  0  0  0  0
 21 27  1  0  0  0  0
 21 28  1  0  0  0  0
 22 29  1  0  0  0  0
 22 30  1  0  0  0  0
 35 40  1  0  0  0  0
  8 13  1  0  0  0  0
 18 26  1  0  0  0  0
 44 46  1  0  0  0  0
  7 12  1  0  0  0  0
 34 39  1  0  0  0  0
 17 25  1  0  0  0  0
M  END
$$$$

  -OEChem-05262214473D

 49 48  0     1  0  0  0  0  0999 V2000
   -0.0561   -5.3799    2.6949 C   0  0  0  0  0  0  0  0  0  0  0  0
    0.7325   -5.0736    3.5815 O   0  0  0  0  0  0  0  0  0  0  0  0
   -1.0067   -6.5099    2.9135 C   0  0  0  0  0  0  0  0  0  0  0  0
   -0.5910   -7.4777    2.5899 H   0  0  0  0  0  0  0  0  0  0  0  0
   -1.2629   -6.6440    3.9767 H   0  0  0  0  0  0  0  0  0  0  0  0
   -1.9729   -6.4206    2.3918 H   0  0  0  0  0  0  0  0  0  0  0  0
   -0.1735   -4.7694    1.4571 N   0  0  0  0  0  0  0  0  0  0  0  0
    0.6439   -3.6603    1.0409 C   0  0  2  0  0  0  0  0  0  0  0  0
   -0.2788   -2.5625    0.5280 C   0  0  0  0  0  0  0  0  0  0  0  0
   -1.4197   -2.7791    0.1251 O   0  0  0  0  0  0  0  0  0  0  0  0
    1.6395   -4.0779   -0.0301 C   0  0  0  0  0  0  0  0  0  0  0  0
   -0.8741   -5.1235    0.8083 H   0  0  0  0  0  0  0  0  0  0  0  0
    1.1738   -3.3062    1.9318 H   0  0  0  0  0  0  0  0  0  0  0  0
    1.1270   -4.4358   -0.9305 H   0  0  0  0  0  0  0  0  0  0  0  0
    2.2797   -3.2400   -0.3251 H   0  0  0  0  0  0  0  0  0  0  0  0
    2.2827   -4.8880    0.3303 H   0  0  0  0  0  0  0  0  0  0  0  0
    0.3351   -1.3153    0.5316 N   0  0  0  0  0  0  0  0  0  0  0  0
   -0.3268   -0.1184    0.0807 C   0  0  2  0  0  0  0  0  0  0  0  0
   -0.0568    0.9991    1.0837 C   0  0  0  0  0  0  0  0  0  0  0  0
   -0.7975    1.2370    2.0355 O   0  0  0  0  0  0  0  0  0  0  0  0
   -1.8242   -0.3444   -0.1696 C   0  0  0  0  0  0  0  0  0  0  0  0
   -2.1157   -1.2994   -1.3296 C   0  0  0  0  0  0  0  0  0  0  0  0
   -1.4429   -0.6385   -2.8835 S   0  0  0  0  0  0  0  0  0  0  0  0
   -2.5695    0.7606   -3.0807 C   0  0  0  0  0  0  0  0  0  0  0  0
    1.2790   -1.2290    0.9021 H   0  0  0  0  0  0  0  0  0  0  0  0
    0.1564    0.1520   -0.8660 H   0  0  0  0  0  0  0  0  0  0  0  0
   -2.2913    0.6285   -0.3732 H   0  0  0  0  0  0  0  0  0  0  0  0
   -2.2852   -0.7341    0.7471 H   0  0  0  0  0  0  0  0  0  0  0  0
   -3.1928   -1.4377   -1.4625 H   0  0  0  0  0  0  0  0  0  0  0  0
   -1.6642   -2.2805   -1.1552 H   0  0  0  0  0  0  0  0  0  0  0  0
   -2.3237    1.3102   -3.9927 H   0  0  0  0  0  0  0  0  0  0  0  0
   -2.4794    1.4332   -2.2241 H   0  0  0  0  0  0  0  0  0  0  0  0
   -3.5994    0.4015   -3.1464 H   0  0  0  0  0  0  0  0  0  0  0  0
    1.0882    1.7183    0.7727 N   0  0  0  0  0  0  0  0  0  0  0  0
    1.5453    2.8346    1.5667 C   0  0  2  0  0  0  0  0  0  0  0  0
    2.0705    3.9033    0.6173 C   0  0  0  0  0  0  0  0  0  0  0  0
    2.4505    3.6572   -0.5256 O   0  0  0  0  0  0  0  0  0  0  0  0
    2.6210    2.4080    2.5535 C   0  0  0  0  0  0  0  0  0  0  0  0
    1.6577    1.4344   -0.0190 H   0  0  0  0  0  0  0  0  0  0  0  0
    0.6715    3.2196    2.1036 H   0  0  0  0  0  0  0  0  0  0  0  0
    3.5044    2.0193    2.0340 H   0  0  0  0  0  0  0  0  0  0  0  0
    2.9461    3.2494    3.1743 H   0  0  0  0  0  0  0  0  0  0  0  0
    2.2509    1.6182    3.2162 H   0  0  0  0  0  0  0  0  0  0  0  0
    2.1055    5.1573    1.2110 N   0  0  0  0  0  0  0  0  0  0  0  0
    2.5764    6.3345    0.5194 C   0  0  0  0  0  0  0  0  0  0  0  0
    1.7530    5.2724    2.1567 H   0  0  0  0  0  0  0  0  0  0  0  0
    3.6494    6.4727    0.7185 H   0  0  0  0  0  0  0  0  0  0  0  0
    2.4170    6.2126   -0.5621 H   0  0  0  0  0  0  0  0  0  0  0  0
    2.0213    7.2151    0.8749 H   0  0  0  0  0  0  0  0  0  0  0  0
  1  3  1  0  0  0  0
  1  7  1  0  0  0  0
  1  2  2  0  0  0  0
 35 36  1  0  0  0  0
 36 44  1  0  0  0  0
 36 37  2  0  0  0  0
  8  9  1  0  0  0  0
  9 17  1  0  0  0  0
  9 10  2  0  0  0  0
 18 19  1  0  0  0  0
 19 34  1  0  0  0  0
 19 20  2  0  0  0  0
 35 38  1  0  0  0  0
  8 11  1  0  0  0  0
 44 45  1  0  0  0  0
 23 24  1  0  0  0  0
 21 22  1  0  0  0  0
 18 21  1  0  0  0  0
 22 23  1  0  0  0  0
 34 35  1  0  0  0  0
  7  8  1  0  0  0  0
 17 18  1  0  0  0  0
  3  4  1  0  0  0  0
  3  5  1  0  0  0  0
  3  6  1  0  0  0  0
 38 41  1  0  0  0  0
 38 42  1  0  0  0  0
 38 43  1  0  0  0  0
 11 14  1  0  0  0  0
 11 15  1  0  0  0  0
 11 16  1  0  0  0  0
 45 47  1  0  0  0  0
 45 48  1  0  0  0  0
 45 49  1  0  0  0  0
 24 31  1  0  0  0  0
 24 32  1  0  0  0  0
 24 33  1  0  0  0  0
 21 27  1  0  0  0  0
 21 28  1  0  0  0  0
 22 29  1  0  0  0  0
 22 30  1  0  0  0  0
 35 40  1  0  0  0  0
  8 13  1  0  0  0  0
 18 26  1  0  0  0  0
 44 46  1  0  0  0  0
  7 12  1  0  0  0  0
 34 39  1  0  0  0  0
 17 25  1  0  0  0  0
M  END
$$$$

  -OEChem-05262214473D

 49 48  0     1  0  0  0  0  0999 V2000
   -0.0561   -5.3799    2.6949 C   0  0  0  0  0  0  0  0  0  0  0  0
    0.7325   -5.0736    3.5815 O   0  0  0  0  0  0  0  0  0  0  0  0
   -1.0067   -6.5099    2.9135 C   0  0  0  0  0  0  0  0  0  0  0  0
   -0.5910   -7.4777    2.5899 H   0  0  0  0  0  0  0  0  0  0  0  0
   -1.2629   -6.6440    3.9767 H   0  0  0  0  0  0  0  0  0  0  0  0
   -1.9729   -6.4206    2.3918 H   0  0  0  0  0  0  0  0  0  0  0  0
   -0.1735   -4.7694    1.4571 N   0  0  0  0  0  0  0  0  0  0  0  0
    0.6439   -3.6603    1.0409 C   0  0  2  0  0  0  0  0  0  0  0  0
   -0.2788   -2.5625    0.5280 C   0  0  0  0  0  0  0  0  0  0  0  0
   -1.4197   -2.7791    0.1251 O   0  0  0  0  0  0  0  0  0  0  0  0
    1.6395   -4.0779   -0.0301 C   0  0  0  0  0  0  0  0  0  0  0  0
   -0.8741   -5.1235    0.8083 H   0  0  0  0  0  0  0  0  0  0  0  0
    1.1738   -3.3062    1.9318 H   0  0  0  0  0  0  0  0  0  0  0  0
    1.1270   -4.4358   -0.9305 H   0  0  0  0  0  0  0  0  0  0  0  0
    2.2797   -3.2400   -0.3251 H   0  0  0  0  0  0  0  0  0  0  0  0
    2.2827   -4.8880    0.3303 H   0  0  0  0  0  0  0  0  0  0  0  0
    0.3351   -1.3153    0.5316 N   0  0  0  0  0  0  0  0  0  0  0  0
   -0.3268   -0.1184    0.0807 C   0  0  2  0  0  0  0  0  0  0  0  0
   -0.0568    0.9991    1.0837 C   0  0  0  0  0  0  0  0  0  0  0  0
   -0.6283    1.0759    2.1694 O   0  0  0  0  0  0  0  0  0  0  0  0
   -1.8242   -0.3444   -0.1696 C   0  0  0  0  0  0  0  0  0  0  0  0
   -2.1157   -1.2994   -1.3296 C   0  0  0  0  0  0  0  0  0  0  0  0
   -1.4429   -0.6385   -2.8835 S   0  0  0  0  0  0  0  0  0  0  0  0
   -2.5695    0.7606   -3.0807 C   0  0  0  0  0  0  0  0  0  0  0  0
    1.2790   -1.2290    0.9021 H   0  0  0  0  0  0  0  0  0  0  0  0
    0.1564    0.1520   -0.8660 H   0  0  0  0  0  0  0  0  0  0  0  0
   -2.2913    0.6285   -0.3732 H   0  0  0  0  0  0  0  0  0  0  0  0
   -2.2852   -0.7341    0.7471 H   0  0  0  0  0  0  0  0  0  0  0  0
   -3.1928   -1.4377   -1.4625 H   0  0  0  0  0  0  0  0  0  0  0  0
   -1.6642   -2.2805   -1.1552 H   0  0  0  0  0  0  0  0  0  0  0  0
   -2.3237    1.3102   -3.9927 H   0  0  0  0  0  0  0  0  0  0  0  0
   -2.4794    1.4332   -2.2241 H   0  0  0  0  0  0  0  0  0  0  0  0
   -3.5994    0.4015   -3.1464 H   0  0  0  0  0  0  0  0  0  0  0  0
    0.8710    1.9160    0.6109 N   0  0  0  0  0  0  0  0  0  0  0  0
    1.2817    3.0710    1.3742 C   0  0  2  0  0  0  0  0  0  0  0  0
    1.4287    4.2425    0.4121 C   0  0  0  0  0  0  0  0  0  0  0  0
    1.6158    4.1002   -0.7944 O   0  0  0  0  0  0  0  0  0  0  0  0
    2.5835    2.8100    2.1157 C   0  0  0  0  0  0  0  0  0  0  0  0
    1.3155    1.7593   -0.2888 H   0  0  0  0  0  0  0  0  0  0  0  0
    0.4768    3.2817    2.0868 H   0  0  0  0  0  0  0  0  0  0  0  0
    3.4017    2.5969    1.4181 H   0  0  0  0  0  0  0  0  0  0  0  0
    2.8786    3.6766    2.7165 H   0  0  0  0  0  0  0  0  0  0  0  0
    2.4848    1.9486    2.7851 H   0  0  0  0  0  0  0  0  0  0  0  0
    1.3696    5.4653    1.0659 N   0  0  0  0  0  0  0  0  0  0  0  0
    1.4961    6.7265    0.3735 C   0  0  0  0  0  0  0  0  0  0  0  0
    1.1927    5.4893    2.0659 H   0  0  0  0  0  0  0  0  0  0  0  0
    2.5492    7.0439    0.3781 H   0  0  0  0  0  0  0  0  0  0  0  0
    1.1528    6.6105   -0.6651 H   0  0  0  0  0  0  0  0  0  0  0  0
    0.8821    7.4858    0.8799 H   0  0  0  0  0  0  0  0  0  0  0  0
  1  3  1  0  0  0  0
  1  7  1  0  0  0  0
  1  2  2  0  0  0  0
 35 36  1  0  0  0  0
 36 44  1  0  0  0  0
 36 37  2  0  0  0  0
  8  9  1  0  0  0  0
  9 17  1  0  0  0  0
  9 10  2  0  0  0  0
 18 19  1  0  0  0  0
 19 34  1  0  0  0  0
 19 20  2  0  0  0  0
 35 38  1  0  0  0  0
  8 11  1  0  0  0  0
 44 45  1  0  0  0  0
 23 24  1  0  0  0  0
 21 22  1  0  0  0  0
 18 21  1  0  0  0  0
 22 23  1  0  0  0  0
 34 35  1  0  0  0  0
  7  8  1  0  0  0  0
 17 18  1  0  0  0  0
  3  4  1  0  0  0  0
  3  5  1  0  0  0  0
  3  6  1  0  0  0  0
 38 41  1  0  0  0  0
 38 42  1  0  0  0  0
 38 43  1  0  0  0  0
 11 14  1  0  0  0  0
 11 15  1  0  0  0  0
 11 16  1  0  0  0  0
 45 47  1  0  0  0  0
 45 48  1  0  0  0  0
 45 49  1  0  0  0  0
 24 31  1  0  0  0  0
 24 32  1  0  0  0  0
 24 33  1  0  0  0  0
 21 27  1  0  0  0  0
 21 28  1  0  0  0  0
 22 29  1  0  0  0  0
 22 30  1  0  0  0  0
 35 40  1  0  0  0  0
  8 13  1  0  0  0  0
 18 26  1  0  0  0  0
 44 46  1  0  0  0  0
  7 12  1  0  0  0  0
 34 39  1  0  0  0  0
 17 25  1  0  0  0  0
M  END
$$$$

  -OEChem-05262214473D

 49 48  0     1  0  0  0  0  0999 V2000
   -0.0561   -5.3799    2.6949 C   0  0  0  0  0  0  0  0  0  0  0  0
    0.7325   -5.0736    3.5815 O   0  0  0  0  0  0  0  0  0  0  0  0
   -1.0067   -6.5099    2.9135 C   0  0  0  0  0  0  0  0  0  0  0  0
   -0.5910   -7.4777    2.5899 H   0  0  0  0  0  0  0  0  0  0  0  0
   -1.2629   -6.6440    3.9767 H   0  0  0  0  0  0  0  0  0  0  0  0
   -1.9729   -6.4206    2.3918 H   0  0  0  0  0  0  0  0  0  0  0  0
   -0.1735   -4.7694    1.4571 N   0  0  0  0  0  0  0  0  0  0  0  0
    0.6439   -3.6603    1.0409 C   0  0  2  0  0  0  0  0  0  0  0  0
   -0.2788   -2.5625    0.5280 C   0  0  0  0  0  0  0  0  0  0  0  0
   -1.4197   -2.7791    0.1251 O   0  0  0  0  0  0  0  0  0  0  0  0
    1.6395   -4.0779   -0.0301 C   0  0  0  0  0  0  0  0  0  0  0  0
   -0.8741   -5.1235    0.8083 H   0  0  0  0  0  0  0  0  0  0  0  0
    1.1738   -3.3062    1.9318 H   0  0  0  0  0  0  0  0  0  0  0  0
    1.1270   -4.4358   -0.9305 H   0  0  0  0  0  0  0  0  0  0  0  0
    2.2797   -3.2400   -0.3251 H   0  0  0  0  0  0  0  0  0  0  0  0
    2.2827   -4.8880    0.3303 H   0  0  0  0  0  0  0  0  0  0  0  0
    0.3351   -1.3153    0.5316 N   0  0  0  0  0  0  0  0  0  0  0  0
   -0.3268   -0.1184    0.0807 C   0  0  2  0  0  0  0  0  0  0  0  0
   -0.0568    0.9991    1.0837 C   0  0  0  0  0  0  0  0  0  0  0  0
   -0.4120    0.9431    2.2592 O   0  0  0  0  0  0  0  0  0  0  0  0
   -1.8242   -0.3444   -0.1696 C   0  0  0  0  0  0  0  0  0  0  0  0
   -2.1157   -1.2994   -1.3296 C   0  0  0  0  0  0  0  0  0  0  0  0
   -1.4429   -0.6385   -2.8835 S   0  0  0  0  0  0  0  0  0  0  0  0
   -2.5695    0.7606   -3.0807 C   0  0  0  0  0  0  0  0  0  0  0  0
    1.2790   -1.2290    0.9021 H   0  0  0  0  0  0  0  0  0  0  0  0
    0.1564    0.1520   -0.8660 H   0  0  0  0  0  0  0  0  0  0  0  0
   -2.2913    0.6285   -0.3732 H   0  0  0  0  0  0  0  0  0  0  0  0
   -2.2852   -0.7341    0.7471 H   0  0  0  0  0  0  0  0  0  0  0  0
   -3.1928   -1.4377   -1.4625 H   0  0  0  0  0  0  0  0  0  0  0  0
   -1.6642   -2.2805   -1.1552 H   0  0  0  0  0  0  0  0  0  0  0  0
   -2.3237    1.3102   -3.9927 H   0  0  0  0  0  0  0  0  0  0  0  0
   -2.4794    1.4332   -2.2241 H   0  0  0  0  0  0  0  0  0  0  0  0
   -3.5994    0.4015   -3.1464 H   0  0  0  0  0  0  0  0  0  0  0  0
    0.5969    2.0774    0.5049 N   0  0  0  0  0  0  0  0  0  0  0  0
    0.9504    3.2634    1.2490 C   0  0  2  0  0  0  0  0  0  0  0  0
    0.7122    4.4703    0.3512 C   0  0  0  0  0  0  0  0  0  0  0  0
    0.6831    4.3984   -0.8756 O   0  0  0  0  0  0  0  0  0  0  0  0
    2.3960    3.2119    1.7183 C   0  0  0  0  0  0  0  0  0  0  0  0
    0.8786    2.0272   -0.4697 H   0  0  0  0  0  0  0  0  0  0  0  0
    0.2751    3.3093    2.1104 H   0  0  0  0  0  0  0  0  0  0  0  0
    3.0875    3.1656    0.8691 H   0  0  0  0  0  0  0  0  0  0  0  0
    2.6540    4.0987    2.3066 H   0  0  0  0  0  0  0  0  0  0  0  0
    2.5728    2.3273    2.3395 H   0  0  0  0  0  0  0  0  0  0  0  0
    0.5789    5.6443    1.0794 N   0  0  0  0  0  0  0  0  0  0  0  0
    0.3581    6.9280    0.4553 C   0  0  0  0  0  0  0  0  0  0  0  0
    0.5974    5.6076    2.0943 H   0  0  0  0  0  0  0  0  0  0  0  0
    1.3248    7.4241    0.2842 H   0  0  0  0  0  0  0  0  0  0  0  0
   -0.1556    6.7844   -0.5067 H   0  0  0  0  0  0  0  0  0  0  0  0
   -0.2634    7.5533    1.1131 H   0  0  0  0  0  0  0  0  0  0  0  0
  1  3  1  0  0  0  0
  1  7  1  0  0  0  0
  1  2  2  0  0  0  0
 35 36  1  0  0  0  0
 36 44  1  0  0  0  0
 36 37  2  0  0  0  0
  8  9  1  0  0  0  0
  9 17  1  0  0  0  0
  9 10  2  0  0  0  0
 18 19  1  0  0  0  0
 19 34  1  0  0  0  0
 19 20  2  0  0  0  0
 35 38  1  0  0  0  0
  8 11  1  0  0  0  0
 44 45  1  0  0  0  0
 23 24  1  0  0  0  0
 21 22  1  0  0  0  0
 18 21  1  0  0  0  0
 22 23  1  0  0  0  0
 34 35  1  0  0  0  0
  7  8  1  0  0  0  0
 17 18  1  0  0  0  0
  3  4  1  0  0  0  0
  3  5  1  0  0  0  0
  3  6  1  0  0  0  0
 38 41  1  0  0  0  0
 38 42  1  0  0  0  0
 38 43  1  0  0  0  0
 11 14  1  0  0  0  0
 11 15  1  0  0  0  0
 11 16  1  0  0  0  0
 45 47  1  0  0  0  0
 45 48  1  0  0  0  0
 45 49  1  0  0  0  0
 24 31  1  0  0  0  0
 24 32  1  0  0  0  0
 24 33  1  0  0  0  0
 21 27  1  0  0  0  0
 21 28  1  0  0  0  0
 22 29  1  0  0  0  0
 22 30  1  0  0  0  0
 35 40  1  0  0  0  0
  8 13  1  0  0  0  0
 18 26  1  0  0  0  0
 44 46  1  0  0  0  0
  7 12  1  0  0  0  0
 34 39  1  0  0  0  0
 17 25  1  0  0  0  0
M  END
$$$$

  -OEChem-05262214473D

 49 48  0     1  0  0  0  0  0999 V2000
   -0.0561   -5.3799    2.6949 C   0  0  0  0  0  0  0  0  0  0  0  0
    0.7325   -5.0736    3.5815 O   0  0  0  0  0  0  0  0  0  0  0  0
   -1.0067   -6.5099    2.9135 C   0  0  0  0  0  0  0  0  0  0  0  0
   -0.5910   -7.4777    2.5899 H   0  0  0  0  0  0  0  0  0  0  0  0
   -1.2629   -6.6440    3.9767 H   0  0  0  0  0  0  0  0  0  0  0  0
   -1.9729   -6.4206    2.3918 H   0  0  0  0  0  0  0  0  0  0  0  0
   -0.1735   -4.7694    1.4571 N   0  0  0  0  0  0  0  0  0  0  0  0
    0.6439   -3.6603    1.0409 C   0  0  2  0  0  0  0  0  0  0  0  0
   -0.2788   -2.5625    0.5280 C   0  0  0  0  0  0  0  0  0  0  0  0
   -1.4197   -2.7791    0.1251 O   0  0  0  0  0  0  0  0  0  0  0  0
    1.6395   -4.0779   -0.0301 C   0  0  0  0  0  0  0  0  0  0  0  0
   -0.8741   -5.1235    0.8083 H   0  0  0  0  0  0  0  0  0  0  0  0
    1.1738   -3.3062    1.9318 H   0  0  0  0  0  0  0  0  0  0  0  0
    1.1270   -4.4358   -0.9305 H   0  0  0  0  0  0  0  0  0  0  0  0
    2.2797   -3.2400   -0.3251 H   0  0  0  0  0  0  0  0  0  0  0  0
    2.2827   -4.8880    0.3303 H   0  0  0  0  0  0  0  0  0  0  0  0
    0.3351   -1.3153    0.5316 N   0  0  0  0  0  0  0  0  0  0  0  0
   -0.3268   -0.1184    0.0807 C   0  0  2  0  0  0  0  0  0  0  0  0
   -0.0568    0.9991    1.0837 C   0  0  0  0  0  0  0  0  0  0  0  0
   -0.1635    0.8474    2.2989 O   0  0  0  0  0  0  0  0  0  0  0  0
   -1.8242   -0.3444   -0.1696 C   0  0  0  0  0  0  0  0  0  0  0  0
   -2.1157   -1.2994   -1.3296 C   0  0  0  0  0  0  0  0  0  0  0  0
   -1.4429   -0.6385   -2.8835 S   0  0  0  0  0  0  0  0  0  0  0  0
   -2.5695    0.7606   -3.0807 C   0  0  0  0  0  0  0  0  0  0  0  0
    1.2790   -1.2290    0.9021 H   0  0  0  0  0  0  0  0  0  0  0  0
    0.1564    0.1520   -0.8660 H   0  0  0  0  0  0  0  0  0  0  0  0
   -2.2913    0.6285   -0.3732 H   0  0  0  0  0  0  0  0  0  0  0  0
   -2.2852   -0.7341    0.7471 H   0  0  0  0  0  0  0  0  0  0  0  0
   -3.1928   -1.4377   -1.4625 H   0  0  0  0  0  0  0  0  0  0  0  0
   -1.6642   -2.2805   -1.1552 H   0  0  0  0  0  0  0  0  0  0  0  0
   -2.3237    1.3102   -3.9927 H   0  0  0  0  0  0  0  0  0  0  0  0
   -2.4794    1.4332   -2.2241 H   0  0  0  0  0  0  0  0  0  0  0  0
   -3.5994    0.4015   -3.1464 H   0  0  0  0  0  0  0  0  0  0  0  0
    0.2846    2.1915    0.4618 N   0  0  0  0  0  0  0  0  0  0  0  0
    0.5738    3.3986    1.1998 C   0  0  2  0  0  0  0  0  0  0  0  0
   -0.0303    4.5713    0.4386 C   0  0  0  0  0  0  0  0  0  0  0  0
   -0.2839    4.5315   -0.7636 O   0  0  0  0  0  0  0  0  0  0  0  0
    2.0711    3.5865    1.3884 C   0  0  0  0  0  0  0  0  0  0  0  0
    0.3767    2.2199   -0.5493 H   0  0  0  0  0  0  0  0  0  0  0  0
    0.0799    3.3006    2.1726 H   0  0  0  0  0  0  0  0  0  0  0  0
    2.5831    3.6866    0.4244 H   0  0  0  0  0  0  0  0  0  0  0  0
    2.2875    4.4870    1.9726 H   0  0  0  0  0  0  0  0  0  0  0  0
    2.5089    2.7284    1.9098 H   0  0  0  0  0  0  0  0  0  0  0  0
   -0.2128    5.6820    1.2504 N   0  0  0  0  0  0  0  0  0  0  0  0
   -0.7598    6.9253    0.7593 C   0  0  0  0  0  0  0  0  0  0  0  0
    0.0076    5.6193    2.2400 H   0  0  0  0  0  0  0  0  0  0  0  0
    0.0597    7.5874    0.4429 H   0  0  0  0  0  0  0  0  0  0  0  0
   -1.4189    6.7225   -0.0977 H   0  0  0  0  0  0  0  0  0  0  0  0
   -1.3371    7.4128    1.5587 H   0  0  0  0  0  0  0  0  0  0  0  0
  1  3  1  0  0  0  0
  1  7  1  0  0  0  0
  1  2  2  0  0  0  0
 35 36  1  0  0  0  0
 36 44  1  0  0  0  0
 36 37  2  0  0  0  0
  8  9  1  0  0  0  0
  9 17  1  0  0  0  0
  9 10  2  0  0  0  0
 18 19  1  0  0  0  0
 19 34  1  0  0  0  0
 19 20  2  0  0  0  0
 35 38  1  0  0  0  0
  8 11  1  0  0  0  0
 44 45  1  0  0  0  0
 23 24  1  0  0  0  0
 21 22  1  0  0  0  0
 18 21  1  0  0  0  0
 22 23  1  0  0  0  0
 34 35  1  0  0  0  0
  7  8  1  0  0  0  0
 17 18  1  0  0  0  0
  3  4  1  0  0  0  0
  3  5  1  0  0  0  0
  3  6  1  0  0  0  0
 38 41  1  0  0  0  0
 38 42  1  0  0  0  0
 38 43  1  0  0  0  0
 11 14  1  0  0  0  0
 11 15  1  0  0  0  0
 11 16  1  0  0  0  0
 45 47  1  0  0  0  0
 45 48  1  0  0  0  0
 45 49  1  0  0  0  0
 24 31  1  0  0  0  0
 24 32  1  0  0  0  0
 24 33  1  0  0  0  0
 21 27  1  0  0  0  0
 21 28  1  0  0  0  0
 22 29  1  0  0  0  0
 22 30  1  0  0  0  0
 35 40  1  0  0  0  0
  8 13  1  0  0  0  0
 18 26  1  0  0  0  0
 44 46  1  0  0  0  0
  7 12  1  0  0  0  0
 34 39  1  0  0  0  0
 17 25  1  0  0  0  0
M  END
$$$$

  -OEChem-05262214473D

 49 48  0     1  0  0  0  0  0999 V2000
   -0.0561   -5.3799    2.6949 C   0  0  0  0  0  0  0  0  0  0  0  0
    0.7325   -5.0736    3.5815 O   0  0  0  0  0  0  0  0  0  0  0  0
   -1.0067   -6.5099    2.9135 C   0  0  0  0  0  0  0  0  0  0  0  0
   -0.5910   -7.4777    2.5899 H   0  0  0  0  0  0  0  0  0  0  0  0
   -1.2629   -6.6440    3.9767 H   0  0  0  0  0  0  0  0  0  0  0  0
   -1.9729   -6.4206    2.3918 H   0  0  0  0  0  0  0  0  0  0  0  0
   -0.1735   -4.7694    1.4571 N   0  0  0  0  0  0  0  0  0  0  0  0
    0.6439   -3.6603    1.0409 C   0  0  2  0  0  0  0  0  0  0  0  0
   -0.2788   -2.5625    0.5280 C   0  0  0  0  0  0  0  0  0  0  0  0
   -1.4197   -2.7791    0.1251 O   0  0  0  0  0  0  0  0  0  0  0  0
    1.6395   -4.0779   -0.0301 C   0  0  0  0  0  0  0  0  0  0  0  0
   -0.8741   -5.1235    0.8083 H   0  0  0  0  0  0  0  0  0  0  0  0
    1.1738   -3.3062    1.9318 H   0  0  0  0  0  0  0  0  0  0  0  0
    1.1270   -4.4358   -0.9305 H   0  0  0  0  0  0  0  0  0  0  0  0
    2.2797   -3.2400   -0.3251 H   0  0  0  0  0  0  0  0  0  0  0  0
    2.2827   -4.8880    0.3303 H   0  0  0  0  0  0  0  0  0  0  0  0
    0.3351   -1.3153    0.5316 N   0  0  0  0  0  0  0  0  0  0  0  0
   -0.3268   -0.1184    0.0807 C   0  0  2  0  0  0  0  0  0  0  0  0
   -0.0568    0.9991    1.0837 C   0  0  0  0  0  0  0  0  0  0  0  0
    0.1004    0.7954    2.2858 O   0  0  0  0  0  0  0  0  0  0  0  0
   -1.8242   -0.3444   -0.1696 C   0  0  0  0  0  0  0  0  0  0  0  0
   -2.1157   -1.2994   -1.3296 C   0  0  0  0  0  0  0  0  0  0  0  0
   -1.4429   -0.6385   -2.8835 S   0  0  0  0  0  0  0  0  0  0  0  0
   -2.5695    0.7606   -3.0807 C   0  0  0  0  0  0  0  0  0  0  0  0
    1.2790   -1.2290    0.9021 H   0  0  0  0  0  0  0  0  0  0  0  0
    0.1564    0.1520   -0.8660 H   0  0  0  0  0  0  0  0  0  0  0  0
   -2.2913    0.6285   -0.3732 H   0  0  0  0  0  0  0  0  0  0  0  0
   -2.2852   -0.7341    0.7471 H   0  0  0  0  0  0  0  0  0  0  0  0
   -3.1928   -1.4377   -1.4625 H   0  0  0  0  0  0  0  0  0  0  0  0
   -1.6642   -2.2805   -1.1552 H   0  0  0  0  0  0  0  0  0  0  0  0
   -2.3237    1.3102   -3.9927 H   0  0  0  0  0  0  0  0  0  0  0  0
   -2.4794    1.4332   -2.2241 H   0  0  0  0  0  0  0  0  0  0  0  0
   -3.5994    0.4015   -3.1464 H   0  0  0  0  0  0  0  0  0  0  0  0
   -0.0446    2.2505    0.4847 N   0  0  0  0  0  0  0  0  0  0  0  0
    0.1778    3.4674    1.2297 C   0  0  2  0  0  0  0  0  0  0  0  0
   -0.7480    4.5385    0.6684 C   0  0  0  0  0  0  0  0  0  0  0  0
   -1.2194    4.4904   -0.4659 O   0  0  0  0  0  0  0  0  0  0  0  0
    1.6310    3.9082    1.1485 C   0  0  0  0  0  0  0  0  0  0  0  0
   -0.1560    2.3243   -0.5222 H   0  0  0  0  0  0  0  0  0  0  0  0
   -0.0953    3.2561    2.2694 H   0  0  0  0  0  0  0  0  0  0  0  0
    1.9230    4.1244    0.1144 H   0  0  0  0  0  0  0  0  0  0  0  0
    1.8041    4.8151    1.7373 H   0  0  0  0  0  0  0  0  0  0  0  0
    2.2975    3.1247    1.5251 H   0  0  0  0  0  0  0  0  0  0  0  0
   -0.9515    5.5759    1.5675 N   0  0  0  0  0  0  0  0  0  0  0  0
   -1.7815    6.7185    1.2648 C   0  0  0  0  0  0  0  0  0  0  0  0
   -0.5365    5.5236    2.4931 H   0  0  0  0  0  0  0  0  0  0  0  0
   -1.1601    7.5225    0.8436 H   0  0  0  0  0  0  0  0  0  0  0  0
   -2.5512    6.4291    0.5341 H   0  0  0  0  0  0  0  0  0  0  0  0
   -2.2659    7.0741    2.1861 H   0  0  0  0  0  0  0  0  0  0  0  0
  1  3  1  0  0  0  0
  1  7  1  0  0  0  0
  1  2  2  0  0  0  0
 35 36  1  0  0  0  0
 36 44  1  0  0  0  0
 36 37  2  0  0  0  0
  8  9  1  0  0  0  0
  9 17  1  0  0  0  0
  9 10  2  0  0  0  0
 18 19  1  0  0  0  0
 19 34  1  0  0  0  0
 19 20  2  0  0  0  0
 35 38  1  0  0  0  0
  8 11  1  0  0  0  0
 44 45  1  0  0  0  0
 23 24  1  0  0  0  0
 21 22  1  0  0  0  0
 18 21  1  0  0  0  0
 22 23  1  0  0  0  0
 34 35  1  0  0  0  0
  7  8  1  0  0  0  0
 17 18  1  0  0  0  0
  3  4  1  0  0  0  0
  3  5  1  0  0  0  0
  3  6  1  0  0  0  0
 38 41  1  0  0  0  0
 38 42  1  0  0  0  0
 38 43  1  0  0  0  0
 11 14  1  0  0  0  0
 11 15  1  0  0  0  0
 11 16  1  0  0  0  0
 45 47  1  0  0  0  0
 45 48  1  0  0  0  0
 45 49  1  0  0  0  0
 24 31  1  0  0  0  0
 24 32  1  0  0  0  0
 24 33  1  0  0  0  0
 21 27  1  0  0  0  0
 21 28  1  0  0  0  0
 22 29  1  0  0  0  0
 22 30  1  0  0  0  0
 35 40  1  0  0  0  0
  8 13  1  0  0  0  0
 18 26  1  0  0  0  0
 44 46  1  0  0  0  0
  7 12  1  0  0  0  0
 34 39  1  0  0  0  0
 17 25  1  0  0  0  0
M  END
$$$$

  -OEChem-05262214473D

 49 48  0     1  0  0  0  0  0999 V2000
   -0.0561   -5.3799    2.6949 C   0  0  0  0  0  0  0  0  0  0  0  0
    0.7325   -5.0736    3.5815 O   0  0  0  0  0  0  0  0  0  0  0  0
   -1.0067   -6.5099    2.9135 C   0  0  0  0  0  0  0  0  0  0  0  0
   -0.5910   -7.4777    2.5899 H   0  0  0  0  0  0  0  0  0  0  0  0
   -1.2629   -6.6440    3.9767 H   0  0  0  0  0  0  0  0  0  0  0  0
   -1.9729   -6.4206    2.3918 H   0  0  0  0  0  0  0  0  0  0  0  0
   -0.1735   -4.7694    1.4571 N   0  0  0  0  0  0  0  0  0  0  0  0
    0.6439   -3.6603    1.0409 C   0  0  2  0  0  0  0  0  0  0  0  0
   -0.2788   -2.5625    0.5280 C   0  0  0  0  0  0  0  0  0  0  0  0
   -1.4197   -2.7791    0.1251 O   0  0  0  0  0  0  0  0  0  0  0  0
    1.6395   -4.0779   -0.0301 C   0  0  0  0  0  0  0  0  0  0  0  0
   -0.8741   -5.1235    0.8083 H   0  0  0  0  0  0  0  0  0  0  0  0
    1.1738   -3.3062    1.9318 H   0  0  0  0  0  0  0  0  0  0  0  0
    1.1270   -4.4358   -0.9305 H   0  0  0  0  0  0  0  0  0  0  0  0
    2.2797   -3.2400   -0.3251 H   0  0  0  0  0  0  0  0  0  0  0  0
    2.2827   -4.8880    0.3303 H   0  0  0  0  0  0  0  0  0  0  0  0
    0.3351   -1.3153    0.5316 N   0  0  0  0  0  0  0  0  0  0  0  0
   -0.3268   -0.1184    0.0807 C   0  0  2  0  0  0  0  0  0  0  0  0
   -0.0568    0.9991    1.0837 C   0  0  0  0  0  0  0  0  0  0  0  0
    0.3616    0.7907    2.2207 O   0  0  0  0  0  0  0  0  0  0  0  0
   -1.8242   -0.3444   -0.1696 C   0  0  0  0  0  0  0  0  0  0  0  0
   -2.1157   -1.2994   -1.3296 C   0  0  0  0  0  0  0  0  0  0  0  0
   -1.4429   -0.6385   -2.8835 S   0  0  0  0  0  0  0  0  0  0  0  0
   -2.5695    0.7606   -3.0807 C   0  0  0  0  0  0  0  0  0  0  0  0
    1.2790   -1.2290    0.9021 H   0  0  0  0  0  0  0  0  0  0  0  0
    0.1564    0.1520   -0.8660 H   0  0  0  0  0  0  0  0  0  0  0  0
   -2.2913    0.6285   -0.3732 H   0  0  0  0  0  0  0  0  0  0  0  0
   -2.2852   -0.7341    0.7471 H   0  0  0  0  0  0  0  0  0  0  0  0
   -3.1928   -1.4377   -1.4625 H   0  0  0  0  0  0  0  0  0  0  0  0
   -1.6642   -2.2805   -1.1552 H   0  0  0  0  0  0  0  0  0  0  0  0
   -2.3237    1.3102   -3.9927 H   0  0  0  0  0  0  0  0  0  0  0  0
   -2.4794    1.4332   -2.2241 H   0  0  0  0  0  0  0  0  0  0  0  0
   -3.5994    0.4015   -3.1464 H   0  0  0  0  0  0  0  0  0  0  0  0
   -0.3684    2.2505    0.5718 N   0  0  0  0  0  0  0  0  0  0  0  0
   -0.2108    3.4651    1.3369 C   0  0  2  0  0  0  0  0  0  0  0  0
   -1.3922    4.3741    1.0249 C   0  0  0  0  0  0  0  0  0  0  0  0
   -2.0595    4.2778   -0.0029 O   0  0  0  0  0  0  0  0  0  0  0  0
    1.1057    4.1550    1.0150 C   0  0  0  0  0  0  0  0  0  0  0  0
   -0.6832    2.3333   -0.3903 H   0  0  0  0  0  0  0  0  0  0  0  0
   -0.2386    3.1789    2.3940 H   0  0  0  0  0  0  0  0  0  0  0  0
    1.1521    4.4491   -0.0399 H   0  0  0  0  0  0  0  0  0  0  0  0
    1.2367    5.0604    1.6166 H   0  0  0  0  0  0  0  0  0  0  0  0
    1.9530    3.4892    1.2119 H   0  0  0  0  0  0  0  0  0  0  0  0
   -1.5869    5.3332    2.0090 N   0  0  0  0  0  0  0  0  0  0  0  0
   -2.6375    6.3218    1.9372 C   0  0  0  0  0  0  0  0  0  0  0  0
   -0.9977    5.3270    2.8364 H   0  0  0  0  0  0  0  0  0  0  0  0
   -2.2513    7.2339    1.4588 H   0  0  0  0  0  0  0  0  0  0  0  0
   -3.4752    5.9241    1.3455 H   0  0  0  0  0  0  0  0  0  0  0  0
   -2.9865    6.5601    2.9528 H   0  0  0  0  0  0  0  0  0  0  0  0
  1  3  1  0  0  0  0
  1  7  1  0  0  0  0
  1  2  2  0  0  0  0
 35 36  1  0  0  0  0
 36 44  1  0  0  0  0
 36 37  2  0  0  0  0
  8  9  1  0  0  0  0
  9 17  1  0  0  0  0
  9 10  2  0  0  0  0
 18 19  1  0  0  0  0
 19 34  1  0  0  0  0
 19 20  2  0  0  0  0
 35 38  1  0  0  0  0
  8 11  1  0  0  0  0
 44 45  1  0  0  0  0
 23 24  1  0  0  0  0
 21 22  1  0  0  0  0
 18 21  1  0  0  0  0
 22 23  1  0  0  0  0
 34 35  1  0  0  0  0
  7  8  1  0  0  0  0
 17 18  1  0  0  0  0
  3  4  1  0  0  0  0
  3  5  1  0  0  0  0
  3  6  1  0  0  0  0
 38 41  1  0  0  0  0
 38 42  1  0  0  0  0
 38 43  1  0  0  0  0
 11 14  1  0  0  0  0
 11 15  1  0  0  0  0
 11 16  1  0  0  0  0
 45 47  1  0  0  0  0
 45 48  1  0  0  0  0
 45 49  1  0  0  0  0
 24 31  1  0  0  0  0
 24 32  1  0  0  0  0
 24 33  1  0  0  0  0
 21 27  1  0  0  0  0
 21 28  1  0  0  0  0
 22 29  1  0  0  0  0
 22 30  1  0  0  0  0
 35 40  1  0  0  0  0
  8 13  1  0  0  0  0
 18 26  1  0  0  0  0
 44 46  1  0  0  0  0
  7 12  1  0  0  0  0
 34 39  1  0  0  0  0
 17 25  1  0  0  0  0
M  END
$$$$

  -OEChem-05262214473D

 49 48  0     1  0  0  0  0  0999 V2000
   -0.0561   -5.3799    2.6949 C   0  0  0  0  0  0  0  0  0  0  0  0
    0.7325   -5.0736    3.5815 O   0  0  0  0  0  0  0  0  0  0  0  0
   -1.0067   -6.5099    2.9135 C   0  0  0  0  0  0  0  0  0  0  0  0
   -0.5910   -7.4777    2.5899 H   0  0  0  0  0  0  0  0  0  0  0  0
   -1.2629   -6.6440    3.9767 H   0  0  0  0  0  0  0  0  0  0  0  0
   -1.9729   -6.4206    2.3918 H   0  0  0  0  0  0  0  0  0  0  0  0
   -0.1735   -4.7694    1.4571 N   0  0  0  0  0  0  0  0  0  0  0  0
    0.6439   -3.6603    1.0409 C   0  0  2  0  0  0  0  0  0  0  0  0
   -0.2788   -2.5625    0.5280 C   0  0  0  0  0  0  0  0  0  0  0  0
   -1.4197   -2.7791    0.1251 O   0  0  0  0  0  0  0  0  0  0  0  0
    1.6395   -4.0779   -0.0301 C   0  0  0  0  0  0  0  0  0  0  0  0
   -0.8741   -5.1235    0.8083 H   0  0  0  0  0  0  0  0  0  0  0  0
    1.1738   -3.3062    1.9318 H   0  0  0  0  0  0  0  0  0  0  0  0
    1.1270   -4.4358   -0.9305 H   0  0  0  0  0  0  0  0  0  0  0  0
    2.2797   -3.2400   -0.3251 H   0  0  0  0  0  0  0  0  0  0  0  0
    2.2827   -4.8880    0.3303 H   0  0  0  0  0  0  0  0  0  0  0  0
    0.3351   -1.3153    0.5316 N   0  0  0  0  0  0  0  0  0  0  0  0
   -0.3268   -0.1184    0.0807 C   0  0  2  0  0  0  0  0  0  0  0  0
    0.2326    1.0723    0.8533 C   0  0  0  0  0  0  0  0  0  0  0  0
    1.0881    0.9594    1.7287 O   0  0  0  0  0  0  0  0  0  0  0  0
   -1.8544   -0.2288    0.1818 C   0  0  0  0  0  0  0  0  0  0  0  0
   -2.4582   -1.2740   -0.7593 C   0  0  0  0  0  0  0  0  0  0  0  0
   -2.1004   -0.8544   -2.4913 S   0  0  0  0  0  0  0  0  0  0  0  0
   -3.1450    0.6142   -2.6245 C   0  0  0  0  0  0  0  0  0  0  0  0
    1.2790   -1.2290    0.9021 H   0  0  0  0  0  0  0  0  0  0  0  0
   -0.0465   -0.0005   -0.9731 H   0  0  0  0  0  0  0  0  0  0  0  0
   -2.2876    0.7554   -0.0418 H   0  0  0  0  0  0  0  0  0  0  0  0
   -2.1279   -0.4700    1.2170 H   0  0  0  0  0  0  0  0  0  0  0  0
   -3.5450   -1.3242   -0.6440 H   0  0  0  0  0  0  0  0  0  0  0  0
   -2.0473   -2.2680   -0.5597 H   0  0  0  0  0  0  0  0  0  0  0  0
   -3.0690    1.0344   -3.6303 H   0  0  0  0  0  0  0  0  0  0  0  0
   -2.8231    1.3655   -1.8991 H   0  0  0  0  0  0  0  0  0  0  0  0
   -4.1861    0.3484   -2.4258 H   0  0  0  0  0  0  0  0  0  0  0  0
   -0.3583    2.2689    0.4736 N   0  0  0  0  0  0  0  0  0  0  0  0
   -0.0049    3.5351    1.0714 C   0  0  2  0  0  0  0  0  0  0  0  0
   -1.2812    4.3493    1.2375 C   0  0  0  0  0  0  0  0  0  0  0  0
   -2.2953    4.1500    0.5720 O   0  0  0  0  0  0  0  0  0  0  0  0
    1.0107    4.2836    0.2223 C   0  0  0  0  0  0  0  0  0  0  0  0
   -1.0390    2.2737   -0.2803 H   0  0  0  0  0  0  0  0  0  0  0  0
    0.4178    3.3124    2.0572 H   0  0  0  0  0  0  0  0  0  0  0  0
    0.6051    4.5155   -0.7692 H   0  0  0  0  0  0  0  0  0  0  0  0
    1.2991    5.2302    0.6911 H   0  0  0  0  0  0  0  0  0  0  0  0
    1.9163    3.6842    0.0791 H   0  0  0  0  0  0  0  0  0  0  0  0
   -1.1405    5.3526    2.1861 N   0  0  0  0  0  0  0  0  0  0  0  0
   -2.2072    6.2686    2.5162 C   0  0  0  0  0  0  0  0  0  0  0  0
   -0.2699    5.4327    2.7033 H   0  0  0  0  0  0  0  0  0  0  0  0
   -2.1209    7.1720    1.8946 H   0  0  0  0  0  0  0  0  0  0  0  0
   -3.1771    5.7851    2.3275 H   0  0  0  0  0  0  0  0  0  0  0  0
   -2.1364    6.5463    3.5782 H   0  0  0  0  0  0  0  0  0  0  0  0
  1  3  1  0  0  0  0
  1  7  1  0  0  0  0
  1  2  2  0  0  0  0
 35 36  1  0  0  0  0
 36 44  1  0  0  0  0
 36 37  2  0  0  0  0
  8  9  1  0  0  0  0
  9 17  1  0  0  0  0
  9 10  2  0  0  0  0
 18 19  1  0  0  0  0
 19 34  1  0  0  0  0
 19 20  2  0  0  0  0
 35 38  1  0  0  0  0
  8 11  1  0  0  0  0
 44 45  1  0  0  0  0
 23 24  1  0  0  0  0
 21 22  1  0  0  0  0
 18 21  1  0  0  0  0
 22 23  1  0  0  0  0
 34 35  1  0  0  0  0
  7  8  1  0  0  0  0
 17 18  1  0  0  0  0
  3  4  1  0  0  0  0
  3  5  1  0  0  0  0
  3  6  1  0  0  0  0
 38 41  1  0  0  0  0
 38 42  1  0  0  0  0
 38 43  1  0  0  0  0
 11 14  1  0  0  0  0
 11 15  1  0  0  0  0
 11 16  1  0  0  0  0
 45 47  1  0  0  0  0
 45 48  1  0  0  0  0
 45 49  1  0  0  0  0
 24 31  1  0  0  0  0
 24 32  1  0  0  0  0
 24 33  1  0  0  0  0
 21 27  1  0  0  0  0
 21 28  1  0  0  0  0
 22 29  1  0  0  0  0
 22 30  1  0  0  0  0
 35 40  1  0  0  0  0
  8 13  1  0  0  0  0
 18 26  1  0  0  0  0
 44 46  1  0  0  0  0
  7 12  1  0  0  0  0
 34 39  1  0  0  0  0
 17 25  1  0  0  0  0
M  END
$$$$

  -OEChem-05262214473D

 49 48  0     1  0  0  0  0  0999 V2000
   -0.0561   -5.3799    2.6949 C   0  0  0  0  0  0  0  0  0  0  0  0
    0.7325   -5.0736    3.5815 O   0  0  0  0  0  0  0  0  0  0  0  0
   -1.0067   -6.5099    2.9135 C   0  0  0  0  0  0  0  0  0  0  0  0
   -0.5910   -7.4777    2.5899 H   0  0  0  0  0  0  0  0  0  0  0  0
   -1.2629   -6.6440    3.9767 H   0  0  0  0  0  0  0  0  0  0  0  0
   -1.9729   -6.4206    2.3918 H   0  0  0  0  0  0  0  0  0  0  0  0
   -0.1735   -4.7694    1.4571 N   0  0  0  0  0  0  0  0  0  0  0  0
    0.6439   -3.6603    1.0409 C   0  0  2  0  0  0  0  0  0  0  0  0
   -0.2788   -2.5625    0.5280 C   0  0  0  0  0  0  0  0  0  0  0  0
   -1.4197   -2.7791    0.1251 O   0  0  0  0  0  0  0  0  0  0  0  0
    1.6395   -4.0779   -0.0301 C   0  0  0  0  0  0  0  0  0  0  0  0
   -0.8741   -5.1235    0.8083 H   0  0  0  0  0  0  0  0  0  0  0  0
    1.1738   -3.3062    1.9318 H   0  0  0  0  0  0  0  0  0  0  0  0
    1.1270   -4.4358   -0.9305 H   0  0  0  0  0  0  0  0  0  0  0  0
    2.2797   -3.2400   -0.3251 H   0  0  0  0  0  0  0  0  0  0  0  0
    2.2827   -4.8880    0.3303 H   0  0  0  0  0  0  0  0  0  0  0  0
    0.3351   -1.3153    0.5316 N   0  0  0  0  0  0  0  0  0  0  0  0
   -0.3268   -0.1184    0.0807 C   0  0  2  0  0  0  0  0  0  0  0  0
    0.2326    1.0723    0.8533 C   0  0  0  0  0  0  0  0  0  0  0  0
    1.2590    1.0101    1.5269 O   0  0  0  0  0  0  0  0  0  0  0  0
   -1.8544   -0.2288    0.1818 C   0  0  0  0  0  0  0  0  0  0  0  0
   -2.4582   -1.2740   -0.7593 C   0  0  0  0  0  0  0  0  0  0  0  0
   -2.1004   -0.8544   -2.4913 S   0  0  0  0  0  0  0  0  0  0  0  0
   -3.1450    0.6142   -2.6245 C   0  0  0  0  0  0  0  0  0  0  0  0
    1.2790   -1.2290    0.9021 H   0  0  0  0  0  0  0  0  0  0  0  0
   -0.0465   -0.0005   -0.9731 H   0  0  0  0  0  0  0  0  0  0  0  0
   -2.2876    0.7554   -0.0418 H   0  0  0  0  0  0  0  0  0  0  0  0
   -2.1279   -0.4700    1.2170 H   0  0  0  0  0  0  0  0  0  0  0  0
   -3.5450   -1.3242   -0.6440 H   0  0  0  0  0  0  0  0  0  0  0  0
   -2.0473   -2.2680   -0.5597 H   0  0  0  0  0  0  0  0  0  0  0  0
   -3.0690    1.0344   -3.6303 H   0  0  0  0  0  0  0  0  0  0  0  0
   -2.8231    1.3655   -1.8991 H   0  0  0  0  0  0  0  0  0  0  0  0
   -4.1861    0.3484   -2.4258 H   0  0  0  0  0  0  0  0  0  0  0  0
   -0.5651    2.2007    0.7285 N   0  0  0  0  0  0  0  0  0  0  0  0
   -0.2512    3.4511    1.3792 C   0  0  2  0  0  0  0  0  0  0  0  0
   -1.5540    4.0612    1.8791 C   0  0  0  0  0  0  0  0  0  0  0  0
   -2.6527    3.7760    1.4073 O   0  0  0  0  0  0  0  0  0  0  0  0
    0.4668    4.4018    0.4340 C   0  0  0  0  0  0  0  0  0  0  0  0
   -1.3834    2.1709    0.1274 H   0  0  0  0  0  0  0  0  0  0  0  0
    0.3914    3.2106    2.2332 H   0  0  0  0  0  0  0  0  0  0  0  0
   -0.1616    4.6542   -0.4279 H   0  0  0  0  0  0  0  0  0  0  0  0
    0.7294    5.3382    0.9371 H   0  0  0  0  0  0  0  0  0  0  0  0
    1.3885    3.9496    0.0523 H   0  0  0  0  0  0  0  0  0  0  0  0
   -1.3415    4.9937    2.8848 N   0  0  0  0  0  0  0  0  0  0  0  0
   -2.4192    5.7204    3.5146 C   0  0  0  0  0  0  0  0  0  0  0  0
   -0.3986    5.1532    3.2273 H   0  0  0  0  0  0  0  0  0  0  0  0
   -2.5745    6.6746    2.9897 H   0  0  0  0  0  0  0  0  0  0  0  0
   -3.3411    5.1221    3.4681 H   0  0  0  0  0  0  0  0  0  0  0  0
   -2.1629    5.9179    4.5659 H   0  0  0  0  0  0  0  0  0  0  0  0
  1  3  1  0  0  0  0
  1  7  1  0  0  0  0
  1  2  2  0  0  0  0
 35 36  1  0  0  0  0
 36 44  1  0  0  0  0
 36 37  2  0  0  0  0
  8  9  1  0  0  0  0
  9 17  1  0  0  0  0
  9 10  2  0  0  0  0
 18 19  1  0  0  0  0
 19 34  1  0  0  0  0
 19 20  2  0  0  0  0
 35 38  1  0  0  0  0
  8 11  1  0  0  0  0
 44 45  1  0  0  0  0
 23 24  1  0  0  0  0
 21 22  1  0  0  0  0
 18 21  1  0  0  0  0
 22 23  1  0  0  0  0
 34 35  1  0  0  0  0
  7  8  1  0  0  0  0
 17 18  1  0  0  0  0
  3  4  1  0  0  0  0
  3  5  1  0  0  0  0
  3  6  1  0  0  0  0
 38 41  1  0  0  0  0
 38 42  1  0  0  0  0
 38 43  1  0  0  0  0
 11 14  1  0  0  0  0
 11 15  1  0  0  0  0
 11 16  1  0  0  0  0
 45 47  1  0  0  0  0
 45 48  1  0  0  0  0
 45 49  1  0  0  0  0
 24 31  1  0  0  0  0
 24 32  1  0  0  0  0
 24 33  1  0  0  0  0
 21 27  1  0  0  0  0
 21 28  1  0  0  0  0
 22 29  1  0  0  0  0
 22 30  1  0  0  0  0
 35 40  1  0  0  0  0
  8 13  1  0  0  0  0
 18 26  1  0  0  0  0
 44 46  1  0  0  0  0
  7 12  1  0  0  0  0
 34 39  1  0  0  0  0
 17 25  1  0  0  0  0
M  END
$$$$

  -OEChem-05262214473D

 49 48  0     1  0  0  0  0  0999 V2000
   -0.0561   -5.3799    2.6949 C   0  0  0  0  0  0  0  0  0  0  0  0
    0.7325   -5.0736    3.5815 O   0  0  0  0  0  0  0  0  0  0  0  0
   -1.0067   -6.5099    2.9135 C   0  0  0  0  0  0  0  0  0  0  0  0
   -0.5910   -7.4777    2.5899 H   0  0  0  0  0  0  0  0  0  0  0  0
   -1.2629   -6.6440    3.9767 H   0  0  0  0  0  0  0  0  0  0  0  0
   -1.9729   -6.4206    2.3918 H   0  0  0  0  0  0  0  0  0  0  0  0
   -0.1735   -4.7694    1.4571 N   0  0  0  0  0  0  0  0  0  0  0  0
    0.6439   -3.6603    1.0409 C   0  0  2  0  0  0  0  0  0  0  0  0
   -0.2788   -2.5625    0.5280 C   0  0  0  0  0  0  0  0  0  0  0  0
   -1.4197   -2.7791    0.1251 O   0  0  0  0  0  0  0  0  0  0  0  0
    1.6395   -4.0779   -0.0301 C   0  0  0  0  0  0  0  0  0  0  0  0
   -0.8741   -5.1235    0.8083 H   0  0  0  0  0  0  0  0  0  0  0  0
    1.1738   -3.3062    1.9318 H   0  0  0  0  0  0  0  0  0  0  0  0
    1.1270   -4.4358   -0.9305 H   0  0  0  0  0  0  0  0  0  0  0  0
    2.2797   -3.2400   -0.3251 H   0  0  0  0  0  0  0  0  0  0  0  0
    2.2827   -4.8880    0.3303 H   0  0  0  0  0  0  0  0  0  0  0  0
    0.3351   -1.3153    0.5316 N   0  0  0  0  0  0  0  0  0  0  0  0
   -0.3268   -0.1184    0.0807 C   0  0  2  0  0  0  0  0  0  0  0  0
    0.2326    1.0723    0.8533 C   0  0  0  0  0  0  0  0  0  0  0  0
    1.3766    1.1006    1.3023 O   0  0  0  0  0  0  0  0  0  0  0  0
   -1.8544   -0.2288    0.1818 C   0  0  0  0  0  0  0  0  0  0  0  0
   -2.4582   -1.2740   -0.7593 C   0  0  0  0  0  0  0  0  0  0  0  0
   -2.1004   -0.8544   -2.4913 S   0  0  0  0  0  0  0  0  0  0  0  0
   -3.1450    0.6142   -2.6245 C   0  0  0  0  0  0  0  0  0  0  0  0
    1.2790   -1.2290    0.9021 H   0  0  0  0  0  0  0  0  0  0  0  0
   -0.0465   -0.0005   -0.9731 H   0  0  0  0  0  0  0  0  0  0  0  0
   -2.2876    0.7554   -0.0418 H   0  0  0  0  0  0  0  0  0  0  0  0
   -2.1279   -0.4700    1.2170 H   0  0  0  0  0  0  0  0  0  0  0  0
   -3.5450   -1.3242   -0.6440 H   0  0  0  0  0  0  0  0  0  0  0  0
   -2.0473   -2.2680   -0.5597 H   0  0  0  0  0  0  0  0  0  0  0  0
   -3.0690    1.0344   -3.6303 H   0  0  0  0  0  0  0  0  0  0  0  0
   -2.8231    1.3655   -1.8991 H   0  0  0  0  0  0  0  0  0  0  0  0
   -4.1861    0.3484   -2.4258 H   0  0  0  0  0  0  0  0  0  0  0  0
   -0.7045    2.0835    1.0100 N   0  0  0  0  0  0  0  0  0  0  0  0
   -0.4159    3.3084    1.7184 C   0  0  2  0  0  0  0  0  0  0  0  0
   -1.6502    3.6863    2.5266 C   0  0  0  0  0  0  0  0  0  0  0  0
   -2.7802    3.2886    2.2509 O   0  0  0  0  0  0  0  0  0  0  0  0
   -0.0314    4.4246    0.7597 C   0  0  0  0  0  0  0  0  0  0  0  0
   -1.6202    1.9879    0.5811 H   0  0  0  0  0  0  0  0  0  0  0  0
    0.4148    3.0921    2.3989 H   0  0  0  0  0  0  0  0  0  0  0  0
   -0.8514    4.6553    0.0699 H   0  0  0  0  0  0  0  0  0  0  0  0
    0.2147    5.3446    1.3001 H   0  0  0  0  0  0  0  0  0  0  0  0
    0.8385    4.1393    0.1582 H   0  0  0  0  0  0  0  0  0  0  0  0
   -1.3476    4.5544    3.5663 N   0  0  0  0  0  0  0  0  0  0  0  0
   -2.3504    5.0684    4.4697 C   0  0  0  0  0  0  0  0  0  0  0  0
   -0.3805    4.8166    3.7329 H   0  0  0  0  0  0  0  0  0  0  0  0
   -2.7263    6.0307    4.0920 H   0  0  0  0  0  0  0  0  0  0  0  0
   -3.1822    4.3521    4.5399 H   0  0  0  0  0  0  0  0  0  0  0  0
   -1.9066    5.2137    5.4657 H   0  0  0  0  0  0  0  0  0  0  0  0
  1  3  1  0  0  0  0
  1  7  1  0  0  0  0
  1  2  2  0  0  0  0
 35 36  1  0  0  0  0
 36 44  1  0  0  0  0
 36 37  2  0  0  0  0
  8  9  1  0  0  0  0
  9 17  1  0  0  0  0
  9 10  2  0  0  0  0
 18 19  1  0  0  0  0
 19 34  1  0  0  0  0
 19 20  2  0  0  0  0
 35 38  1  0  0  0  0
  8 11  1  0  0  0  0
 44 45  1  0  0  0  0
 23 24  1  0  0  0  0
 21 22  1  0  0  0  0
 18 21  1  0  0  0  0
 22 23  1  0  0  0  0
 34 35  1  0  0  0  0
  7  8  1  0  0  0  0
 17 18  1  0  0  0  0
  3  4  1  0  0  0  0
  3  5  1  0  0  0  0
  3  6  1  0  0  0  0
 38 41  1  0  0  0  0
 38 42  1  0  0  0  0
 38 43  1  0  0  0  0
 11 14  1  0  0  0  0
 11 15  1  0  0  0  0
 11 16  1  0  0  0  0
 45 47  1  0  0  0  0
 45 48  1  0  0  0  0
 45 49  1  0  0  0  0
 24 31  1  0  0  0  0
 24 32  1  0  0  0  0
 24 33  1  0  0  0  0
 21 27  1  0  0  0  0
 21 28  1  0  0  0  0
 22 29  1  0  0  0  0
 22 30  1  0  0  0  0
 35 40  1  0  0  0  0
  8 13  1  0  0  0  0
 18 26  1  0  0  0  0
 44 46  1  0  0  0  0
  7 12  1  0  0  0  0
 34 39  1  0  0  0  0
 17 25  1  0  0  0  0
M  END
$$$$

  -OEChem-05262214473D

 49 48  0     1  0  0  0  0  0999 V2000
   -0.0561   -5.3799    2.6949 C   0  0  0  0  0  0  0  0  0  0  0  0
    0.7325   -5.0736    3.5815 O   0  0  0  0  0  0  0  0  0  0  0  0
   -1.0067   -6.5099    2.9135 C   0  0  0  0  0  0  0  0  0  0  0  0
   -0.5910   -7.4777    2.5899 H   0  0  0  0  0  0  0  0  0  0  0  0
   -1.2629   -6.6440    3.9767 H   0  0  0  0  0  0  0  0  0  0  0  0
   -1.9729   -6.4206    2.3918 H   0  0  0  0  0  0  0  0  0  0  0  0
   -0.1735   -4.7694    1.4571 N   0  0  0  0  0  0  0  0  0  0  0  0
    0.6439   -3.6603    1.0409 C   0  0  2  0  0  0  0  0  0  0  0  0
   -0.2788   -2.5625    0.5280 C   0  0  0  0  0  0  0  0  0  0  0  0
   -1.4197   -2.7791    0.1251 O   0  0  0  0  0  0  0  0  0  0  0  0
    1.6395   -4.0779   -0.0301 C   0  0  0  0  0  0  0  0  0  0  0  0
   -0.8741   -5.1235    0.8083 H   0  0  0  0  0  0  0  0  0  0  0  0
    1.1738   -3.3062    1.9318 H   0  0  0  0  0  0  0  0  0  0  0  0
    1.1270   -4.4358   -0.9305 H   0  0  0  0  0  0  0  0  0  0  0  0
    2.2797   -3.2400   -0.3251 H   0  0  0  0  0  0  0  0  0  0  0  0
    2.2827   -4.8880    0.3303 H   0  0  0  0  0  0  0  0  0  0  0  0
    0.3351   -1.3153    0.5316 N   0  0  0  0  0  0  0  0  0  0  0  0
   -0.3268   -0.1184    0.0807 C   0  0  2  0  0  0  0  0  0  0  0  0
    0.2326    1.0723    0.8533 C   0  0  0  0  0  0  0  0  0  0  0  0
    1.4330    1.2248    1.0701 O   0  0  0  0  0  0  0  0  0  0  0  0
   -1.8544   -0.2288    0.1818 C   0  0  0  0  0  0  0  0  0  0  0  0
   -2.4582   -1.2740   -0.7593 C   0  0  0  0  0  0  0  0  0  0  0  0
   -2.1004   -0.8544   -2.4913 S   0  0  0  0  0  0  0  0  0  0  0  0
   -3.1450    0.6142   -2.6245 C   0  0  0  0  0  0  0  0  0  0  0  0
    1.2790   -1.2290    0.9021 H   0  0  0  0  0  0  0  0  0  0  0  0
   -0.0465   -0.0005   -0.9731 H   0  0  0  0  0  0  0  0  0  0  0  0
   -2.2876    0.7554   -0.0418 H   0  0  0  0  0  0  0  0  0  0  0  0
   -2.1279   -0.4700    1.2170 H   0  0  0  0  0  0  0  0  0  0  0  0
   -3.5450   -1.3242   -0.6440 H   0  0  0  0  0  0  0  0  0  0  0  0
   -2.0473   -2.2680   -0.5597 H   0  0  0  0  0  0  0  0  0  0  0  0
   -3.0690    1.0344   -3.6303 H   0  0  0  0  0  0  0  0  0  0  0  0
   -2.8231    1.3655   -1.8991 H   0  0  0  0  0  0  0  0  0  0  0  0
   -4.1861    0.3484   -2.4258 H   0  0  0  0  0  0  0  0  0  0  0  0
   -0.7668    1.9253    1.2990 N   0  0  0  0  0  0  0  0  0  0  0  0
   -0.4878    3.1169    2.0657 C   0  0  2  0  0  0  0  0  0  0  0  0
   -1.5631    3.2501    3.1359 C   0  0  0  0  0  0  0  0  0  0  0  0
   -2.6690    2.7210    3.0452 O   0  0  0  0  0  0  0  0  0  0  0  0
   -0.4497    4.3504    1.1769 C   0  0  0  0  0  0  0  0  0  0  0  0
   -1.7333    1.7370    1.0497 H   0  0  0  0  0  0  0  0  0  0  0  0
    0.4864    2.9650    2.5429 H   0  0  0  0  0  0  0  0  0  0  0  0
   -1.4173    4.5188    0.6901 H   0  0  0  0  0  0  0  0  0  0  0  0
   -0.2099    5.2488    1.7552 H   0  0  0  0  0  0  0  0  0  0  0  0
    0.3038    4.2403    0.3896 H   0  0  0  0  0  0  0  0  0  0  0  0
   -1.1582    4.0646    4.1841 N   0  0  0  0  0  0  0  0  0  0  0  0
   -2.0055    4.3570    5.3166 C   0  0  0  0  0  0  0  0  0  0  0  0
   -0.2167    4.4460    4.1856 H   0  0  0  0  0  0  0  0  0  0  0  0
   -2.5658    5.2843    5.1262 H   0  0  0  0  0  0  0  0  0  0  0  0
   -2.7113    3.5273    5.4701 H   0  0  0  0  0  0  0  0  0  0  0  0
   -1.3850    4.4817    6.2162 H   0  0  0  0  0  0  0  0  0  0  0  0
  1  3  1  0  0  0  0
  1  7  1  0  0  0  0
  1  2  2  0  0  0  0
 35 36  1  0  0  0  0
 36 44  1  0  0  0  0
 36 37  2  0  0  0  0
  8  9  1  0  0  0  0
  9 17  1  0  0  0  0
  9 10  2  0  0  0  0
 18 19  1  0  0  0  0
 19 34  1  0  0  0  0
 19 20  2  0  0  0  0
 35 38  1  0  0  0  0
  8 11  1  0  0  0  0
 44 45  1  0  0  0  0
 23 24  1  0  0  0  0
 21 22  1  0  0  0  0
 18 21  1  0  0  0  0
 22 23  1  0  0  0  0
 34 35  1  0  0  0  0
  7  8  1  0  0  0  0
 17 18  1  0  0  0  0
  3  4  1  0  0  0  0
  3  5  1  0  0  0  0
  3  6  1  0  0  0  0
 38 41  1  0  0  0  0
 38 42  1  0  0  0  0
 38 43  1  0  0  0  0
 11 14  1  0  0  0  0
 11 15  1  0  0  0  0
 11 16  1  0  0  0  0
 45 47  1  0  0  0  0
 45 48  1  0  0  0  0
 45 49  1  0  0  0  0
 24 31  1  0  0  0  0
 24 32  1  0  0  0  0
 24 33  1  0  0  0  0
 21 27  1  0  0  0  0
 21 28  1  0  0  0  0
 22 29  1  0  0  0  0
 22 30  1  0  0  0  0
 35 40  1  0  0  0  0
  8 13  1  0  0  0  0
 18 26  1  0  0  0  0
 44 46  1  0  0  0  0
  7 12  1  0  0  0  0
 34 39  1  0  0  0  0
 17 25  1  0  0  0  0
M  END
$$$$

  -OEChem-05262214473D

 49 48  0     1  0  0  0  0  0999 V2000
   -0.0561   -5.3799    2.6949 C   0  0  0  0  0  0  0  0  0  0  0  0
    0.7325   -5.0736    3.5815 O   0  0  0  0  0  0  0  0  0  0  0  0
   -1.0067   -6.5099    2.9135 C   0  0  0  0  0  0  0  0  0  0  0  0
   -0.5910   -7.4777    2.5899 H   0  0  0  0  0  0  0  0  0  0  0  0
   -1.2629   -6.6440    3.9767 H   0  0  0  0  0  0  0  0  0  0  0  0
   -1.9729   -6.4206    2.3918 H   0  0  0  0  0  0  0  0  0  0  0  0
   -0.1735   -4.7694    1.4571 N   0  0  0  0  0  0  0  0  0  0  0  0
    0.6439   -3.6603    1.0409 C   0  0  2  0  0  0  0  0  0  0  0  0
   -0.2788   -2.5625    0.5280 C   0  0  0  0  0  0  0  0  0  0  0  0
   -1.4197   -2.7791    0.1251 O   0  0  0  0  0  0  0  0  0  0  0  0
    1.6395   -4.0779   -0.0301 C   0  0  0  0  0  0  0  0  0  0  0  0
   -0.8741   -5.1235    0.8083 H   0  0  0  0  0  0  0  0  0  0  0  0
    1.1738   -3.3062    1.9318 H   0  0  0  0  0  0  0  0  0  0  0  0
    1.1270   -4.4358   -0.9305 H   0  0  0  0  0  0  0  0  0  0  0  0
    2.2797   -3.2400   -0.3251 H   0  0  0  0  0  0  0  0  0  0  0  0
    2.2827   -4.8880    0.3303 H   0  0  0  0  0  0  0  0  0  0  0  0
    0.3351   -1.3153    0.5316 N   0  0  0  0  0  0  0  0  0  0  0  0
   -0.3268   -0.1184    0.0807 C   0  0  2  0  0  0  0  0  0  0  0  0
    0.2326    1.0723    0.8533 C   0  0  0  0  0  0  0  0  0  0  0  0
    1.4242    1.3741    0.8462 O   0  0  0  0  0  0  0  0  0  0  0  0
   -1.8544   -0.2288    0.1818 C   0  0  0  0  0  0  0  0  0  0  0  0
   -2.4582   -1.2740   -0.7593 C   0  0  0  0  0  0  0  0  0  0  0  0
   -2.1004   -0.8544   -2.4913 S   0  0  0  0  0  0  0  0  0  0  0  0
   -3.1450    0.6142   -2.6245 C   0  0  0  0  0  0  0  0  0  0  0  0
    1.2790   -1.2290    0.9021 H   0  0  0  0  0  0  0  0  0  0  0  0
   -0.0465   -0.0005   -0.9731 H   0  0  0  0  0  0  0  0  0  0  0  0
   -2.2876    0.7554   -0.0418 H   0  0  0  0  0  0  0  0  0  0  0  0
   -2.1279   -0.4700    1.2170 H   0  0  0  0  0  0  0  0  0  0  0  0
   -3.5450   -1.3242   -0.6440 H   0  0  0  0  0  0  0  0  0  0  0  0
   -2.0473   -2.2680   -0.5597 H   0  0  0  0  0  0  0  0  0  0  0  0
   -3.0690    1.0344   -3.6303 H   0  0  0  0  0  0  0  0  0  0  0  0
   -2.8231    1.3655   -1.8991 H   0  0  0  0  0  0  0  0  0  0  0  0
   -4.1861    0.3484   -2.4258 H   0  0  0  0  0  0  0  0  0  0  0  0
   -0.7480    1.7369    1.5757 N   0  0  0  0  0  0  0  0  0  0  0  0
   -0.4620    2.8895    2.3975 C   0  0  2  0  0  0  0  0  0  0  0  0
   -1.2988    2.7823    3.6654 C   0  0  0  0  0  0  0  0  0  0  0  0
   -2.3268    2.1120    3.7361 O   0  0  0  0  0  0  0  0  0  0  0  0
   -0.7598    4.1843    1.6575 C   0  0  0  0  0  0  0  0  0  0  0  0
   -1.7150    1.4353    1.5014 H   0  0  0  0  0  0  0  0  0  0  0  0
    0.6014    2.8379    2.6555 H   0  0  0  0  0  0  0  0  0  0  0  0
   -1.8207    4.2538    1.3906 H   0  0  0  0  0  0  0  0  0  0  0  0
   -0.5156    5.0574    2.2715 H   0  0  0  0  0  0  0  0  0  0  0  0
   -0.1792    4.2459    0.7307 H   0  0  0  0  0  0  0  0  0  0  0  0
   -0.7862    3.5576    4.6961 N   0  0  0  0  0  0  0  0  0  0  0  0
   -1.4082    3.6346    5.9974 C   0  0  0  0  0  0  0  0  0  0  0  0
    0.0815    4.0664    4.5547 H   0  0  0  0  0  0  0  0  0  0  0  0
   -2.1040    4.4862    6.0220 H   0  0  0  0  0  0  0  0  0  0  0  0
   -1.9605    2.7041    6.1953 H   0  0  0  0  0  0  0  0  0  0  0  0
   -0.6336    3.7718    6.7663 H   0  0  0  0  0  0  0  0  0  0  0  0
  1  3  1  0  0  0  0
  1  7  1  0  0  0  0
  1  2  2  0  0  0  0
 35 36  1  0  0  0  0
 36 44  1  0  0  0  0
 36 37  2  0  0  0  0
  8  9  1  0  0  0  0
  9 17  1  0  0  0  0
  9 10  2  0  0  0  0
 18 19  1  0  0  0  0
 19 34  1  0  0  0  0
 19 20  2  0  0  0  0
 35 38  1  0  0  0  0
  8 11  1  0  0  0  0
 44 45  1  0  0  0  0
 23 24  1  0  0  0  0
 21 22  1  0  0  0  0
 18 21  1  0  0  0  0
 22 23  1  0  0  0  0
 34 35  1  0  0  0  0
  7  8  1  0  0  0  0
 17 18  1  0  0  0  0
  3  4  1  0  0  0  0
  3  5  1  0  0  0  0
  3  6  1  0  0  0  0
 38 41  1  0  0  0  0
 38 42  1  0  0  0  0
 38 43  1  0  0  0  0
 11 14  1  0  0  0  0
 11 15  1  0  0  0  0
 11 16  1  0  0  0  0
 45 47  1  0  0  0  0
 45 48  1  0  0  0  0
 45 49  1  0  0  0  0
 24 31  1  0  0  0  0
 24 32  1  0  0  0  0
 24 33  1  0  0  0  0
 21 27  1  0  0  0  0
 21 28  1  0  0  0  0
 22 29  1  0  0  0  0
 22 30  1  0  0  0  0
 35 40  1  0  0  0  0
  8 13  1  0  0  0  0
 18 26  1  0  0  0  0
 44 46  1  0  0  0  0
  7 12  1  0  0  0  0
 34 39  1  0  0  0  0
 17 25  1  0  0  0  0
M  END
$$$$

  -OEChem-05262214473D

 49 48  0     1  0  0  0  0  0999 V2000
   -0.0561   -5.3799    2.6949 C   0  0  0  0  0  0  0  0  0  0  0  0
    0.7325   -5.0736    3.5815 O   0  0  0  0  0  0  0  0  0  0  0  0
   -1.0067   -6.5099    2.9135 C   0  0  0  0  0  0  0  0  0  0  0  0
   -0.5910   -7.4777    2.5899 H   0  0  0  0  0  0  0  0  0  0  0  0
   -1.2629   -6.6440    3.9767 H   0  0  0  0  0  0  0  0  0  0  0  0
   -1.9729   -6.4206    2.3918 H   0  0  0  0  0  0  0  0  0  0  0  0
   -0.1735   -4.7694    1.4571 N   0  0  0  0  0  0  0  0  0  0  0  0
    0.6439   -3.6603    1.0409 C   0  0  2  0  0  0  0  0  0  0  0  0
   -0.2788   -2.5625    0.5280 C   0  0  0  0  0  0  0  0  0  0  0  0
   -1.4197   -2.7791    0.1251 O   0  0  0  0  0  0  0  0  0  0  0  0
    1.6395   -4.0779   -0.0301 C   0  0  0  0  0  0  0  0  0  0  0  0
   -0.8741   -5.1235    0.8083 H   0  0  0  0  0  0  0  0  0  0  0  0
    1.1738   -3.3062    1.9318 H   0  0  0  0  0  0  0  0  0  0  0  0
    1.1270   -4.4358   -0.9305 H   0  0  0  0  0  0  0  0  0  0  0  0
    2.2797   -3.2400   -0.3251 H   0  0  0  0  0  0  0  0  0  0  0  0
    2.2827   -4.8880    0.3303 H   0  0  0  0  0  0  0  0  0  0  0  0
    0.3351   -1.3153    0.5316 N   0  0  0  0  0  0  0  0  0  0  0  0
   -0.3268   -0.1184    0.0807 C   0  0  2  0  0  0  0  0  0  0  0  0
    0.2326    1.0723    0.8533 C   0  0  0  0  0  0  0  0  0  0  0  0
    1.3510    1.5385    0.6459 O   0  0  0  0  0  0  0  0  0  0  0  0
   -1.8544   -0.2288    0.1818 C   0  0  0  0  0  0  0  0  0  0  0  0
   -2.4582   -1.2740   -0.7593 C   0  0  0  0  0  0  0  0  0  0  0  0
   -2.1004   -0.8544   -2.4913 S   0  0  0  0  0  0  0  0  0  0  0  0
   -3.1450    0.6142   -2.6245 C   0  0  0  0  0  0  0  0  0  0  0  0
    1.2790   -1.2290    0.9021 H   0  0  0  0  0  0  0  0  0  0  0  0
   -0.0465   -0.0005   -0.9731 H   0  0  0  0  0  0  0  0  0  0  0  0
   -2.2876    0.7554   -0.0418 H   0  0  0  0  0  0  0  0  0  0  0  0
   -2.1279   -0.4700    1.2170 H   0  0  0  0  0  0  0  0  0  0  0  0
   -3.5450   -1.3242   -0.6440 H   0  0  0  0  0  0  0  0  0  0  0  0
   -2.0473   -2.2680   -0.5597 H   0  0  0  0  0  0  0  0  0  0  0  0
   -3.0690    1.0344   -3.6303 H   0  0  0  0  0  0  0  0  0  0  0  0
   -2.8231    1.3655   -1.8991 H   0  0  0  0  0  0  0  0  0  0  0  0
   -4.1861    0.3484   -2.4258 H   0  0  0  0  0  0  0  0  0  0  0  0
   -0.6492    1.5312    1.8213 N   0  0  0  0  0  0  0  0  0  0  0  0
   -0.3403    2.6417    2.6912 C   0  0  2  0  0  0  0  0  0  0  0  0
   -0.8752    2.3149    4.0792 C   0  0  0  0  0  0  0  0  0  0  0  0
   -1.7769    1.5030    4.2765 O   0  0  0  0  0  0  0  0  0  0  0  0
   -0.9405    3.9376    2.1685 C   0  0  0  0  0  0  0  0  0  0  0  0
   -1.5666    1.1034    1.9055 H   0  0  0  0  0  0  0  0  0  0  0  0
    0.7518    2.7196    2.7290 H   0  0  0  0  0  0  0  0  0  0  0  0
   -2.0341    3.8786    2.1235 H   0  0  0  0  0  0  0  0  0  0  0  0
   -0.6815    4.7835    2.8138 H   0  0  0  0  0  0  0  0  0  0  0  0
   -0.5776    4.1556    1.1583 H   0  0  0  0  0  0  0  0  0  0  0  0
   -0.2571    3.0681    5.0674 N   0  0  0  0  0  0  0  0  0  0  0  0
   -0.5989    2.9505    6.4658 C   0  0  0  0  0  0  0  0  0  0  0  0
    0.4939    3.7038    4.8149 H   0  0  0  0  0  0  0  0  0  0  0  0
   -1.3724    3.6908    6.7182 H   0  0  0  0  0  0  0  0  0  0  0  0
   -0.9809    1.9386    6.6659 H   0  0  0  0  0  0  0  0  0  0  0  0
    0.2963    3.1324    7.0785 H   0  0  0  0  0  0  0  0  0  0  0  0
  1  3  1  0  0  0  0
  1  7  1  0  0  0  0
  1  2  2  0  0  0  0
 35 36  1  0  0  0  0
 36 44  1  0  0  0  0
 36 37  2  0  0  0  0
  8  9  1  0  0  0  0
  9 17  1  0  0  0  0
  9 10  2  0  0  0  0
 18 19  1  0  0  0  0
 19 34  1  0  0  0  0
 19 20  2  0  0  0  0
 35 38  1  0  0  0  0
  8 11  1  0  0  0  0
 44 45  1  0  0  0  0
 23 24  1  0  0  0  0
 21 22  1  0  0  0  0
 18 21  1  0  0  0  0
 22 23  1  0  0  0  0
 34 35  1  0  0  0  0
  7  8  1  0  0  0  0
 17 18  1  0  0  0  0
  3  4  1  0  0  0  0
  3  5  1  0  0  0  0
  3  6  1  0  0  0  0
 38 41  1  0  0  0  0
 38 42  1  0  0  0  0
 38 43  1  0  0  0  0
 11 14  1  0  0  0  0
 11 15  1  0  0  0  0
 11 16  1  0  0  0  0
 45 47  1  0  0  0  0
 45 48  1  0  0  0  0
 45 49  1  0  0  0  0
 24 31  1  0  0  0  0
 24 32  1  0  0  0  0
 24 33  1  0  0  0  0
 21 27  1  0  0  0  0
 21 28  1  0  0  0  0
 22 29  1  0  0  0  0
 22 30  1  0  0  0  0
 35 40  1  0  0  0  0
  8 13  1  0  0  0  0
 18 26  1  0  0  0  0
 44 46  1  0  0  0  0
  7 12  1  0  0  0  0
 34 39  1  0  0  0  0
 17 25  1  0  0  0  0
M  END
$$$$

  -OEChem-05262214473D

 49 48  0     1  0  0  0  0  0999 V2000
   -0.0561   -5.3799    2.6949 C   0  0  0  0  0  0  0  0  0  0  0  0
    0.7325   -5.0736    3.5815 O   0  0  0  0  0  0  0  0  0  0  0  0
   -1.0067   -6.5099    2.9135 C   0  0  0  0  0  0  0  0  0  0  0  0
   -0.5910   -7.4777    2.5899 H   0  0  0  0  0  0  0  0  0  0  0  0
   -1.2629   -6.6440    3.9767 H   0  0  0  0  0  0  0  0  0  0  0  0
   -1.9729   -6.4206    2.3918 H   0  0  0  0  0  0  0  0  0  0  0  0
   -0.1735   -4.7694    1.4571 N   0  0  0  0  0  0  0  0  0  0  0  0
    0.6439   -3.6603    1.0409 C   0  0  2  0  0  0  0  0  0  0  0  0
   -0.2788   -2.5625    0.5280 C   0  0  0  0  0  0  0  0  0  0  0  0
   -1.4197   -2.7791    0.1251 O   0  0  0  0  0  0  0  0  0  0  0  0
    1.6395   -4.0779   -0.0301 C   0  0  0  0  0  0  0  0  0  0  0  0
   -0.8741   -5.1235    0.8083 H   0  0  0  0  0  0  0  0  0  0  0  0
    1.1738   -3.3062    1.9318 H   0  0  0  0  0  0  0  0  0  0  0  0
    1.1270   -4.4358   -0.9305 H   0  0  0  0  0  0  0  0  0  0  0  0
    2.2797   -3.2400   -0.3251 H   0  0  0  0  0  0  0  0  0  0  0  0
    2.2827   -4.8880    0.3303 H   0  0  0  0  0  0  0  0  0  0  0  0
    0.3351   -1.3153    0.5316 N   0  0  0  0  0  0  0  0  0  0  0  0
   -0.3268   -0.1184    0.0807 C   0  0  2  0  0  0  0  0  0  0  0  0
    0.2326    1.0723    0.8533 C   0  0  0  0  0  0  0  0  0  0  0  0
    1.2183    1.7066    0.4828 O   0  0  0  0  0  0  0  0  0  0  0  0
   -1.8544   -0.2288    0.1818 C   0  0  0  0  0  0  0  0  0  0  0  0
   -2.4582   -1.2740   -0.7593 C   0  0  0  0  0  0  0  0  0  0  0  0
   -2.1004   -0.8544   -2.4913 S   0  0  0  0  0  0  0  0  0  0  0  0
   -3.1450    0.6142   -2.6245 C   0  0  0  0  0  0  0  0  0  0  0  0
    1.2790   -1.2290    0.9021 H   0  0  0  0  0  0  0  0  0  0  0  0
   -0.0465   -0.0005   -0.9731 H   0  0  0  0  0  0  0  0  0  0  0  0
   -2.2876    0.7554   -0.0418 H   0  0  0  0  0  0  0  0  0  0  0  0
   -2.1279   -0.4700    1.2170 H   0  0  0  0  0  0  0  0  0  0  0  0
   -3.5450   -1.3242   -0.6440 H   0  0  0  0  0  0  0  0  0  0  0  0
   -2.0473   -2.2680   -0.5597 H   0  0  0  0  0  0  0  0  0  0  0  0
   -3.0690    1.0344   -3.6303 H   0  0  0  0  0  0  0  0  0  0  0  0
   -2.8231    1.3655   -1.8991 H   0  0  0  0  0  0  0  0  0  0  0  0
   -4.1861    0.3484   -2.4258 H   0  0  0  0  0  0  0  0  0  0  0  0
   -0.4772    1.3221    2.0190 N   0  0  0  0  0  0  0  0  0  0  0  0
   -0.1309    2.3905    2.9268 C   0  0  2  0  0  0  0  0  0  0  0  0
   -0.3213    1.8797    4.3488 C   0  0  0  0  0  0  0  0  0  0  0  0
   -1.0567    0.9355    4.6296 O   0  0  0  0  0  0  0  0  0  0  0  0
   -0.9795    3.6271    2.6753 C   0  0  0  0  0  0  0  0  0  0  0  0
   -1.2981    0.7640    2.2342 H   0  0  0  0  0  0  0  0  0  0  0  0
    0.9274    2.6180    2.7584 H   0  0  0  0  0  0  0  0  0  0  0  0
   -2.0431    3.4186    2.8390 H   0  0  0  0  0  0  0  0  0  0  0  0
   -0.6963    4.4457    3.3452 H   0  0  0  0  0  0  0  0  0  0  0  0
   -0.8642    3.9757    1.6433 H   0  0  0  0  0  0  0  0  0  0  0  0
    0.3932    2.6294    5.2728 N   0  0  0  0  0  0  0  0  0  0  0  0
    0.3670    2.3514    6.6898 C   0  0  0  0  0  0  0  0  0  0  0  0
    0.9923    3.3829    4.9486 H   0  0  0  0  0  0  0  0  0  0  0  0
   -0.4209    2.9523    7.1674 H   0  0  0  0  0  0  0  0  0  0  0  0
    0.1608    1.2828    6.8499 H   0  0  0  0  0  0  0  0  0  0  0  0
    1.3414    2.6070    7.1315 H   0  0  0  0  0  0  0  0  0  0  0  0
  1  3  1  0  0  0  0
  1  7  1  0  0  0  0
  1  2  2  0  0  0  0
 35 36  1  0  0  0  0
 36 44  1  0  0  0  0
 36 37  2  0  0  0  0
  8  9  1  0  0  0  0
  9 17  1  0  0  0  0
  9 10  2  0  0  0  0
 18 19  1  0  0  0  0
 19 34  1  0  0  0  0
 19 20  2  0  0  0  0
 35 38  1  0  0  0  0
  8 11  1  0  0  0  0
 44 45  1  0  0  0  0
 23 24  1  0  0  0  0
 21 22  1  0  0  0  0
 18 21  1  0  0  0  0
 22 23  1  0  0  0  0
 34 35  1  0  0  0  0
  7  8  1  0  0  0  0
 17 18  1  0  0  0  0
  3  4  1  0  0  0  0
  3  5  1  0  0  0  0
  3  6  1  0  0  0  0
 38 41  1  0  0  0  0
 38 42  1  0  0  0  0
 38 43  1  0  0  0  0
 11 14  1  0  0  0  0
 11 15  1  0  0  0  0
 11 16  1  0  0  0  0
 45 47  1  0  0  0  0
 45 48  1  0  0  0  0
 45 49  1  0  0  0  0
 24 31  1  0  0  0  0
 24 32  1  0  0  0  0
 24 33  1  0  0  0  0
 21 27  1  0  0  0  0
 21 28  1  0  0  0  0
 22 29  1  0  0  0  0
 22 30  1  0  0  0  0
 35 40  1  0  0  0  0
  8 13  1  0  0  0  0
 18 26  1  0  0  0  0
 44 46  1  0  0  0  0
  7 12  1  0  0  0  0
 34 39  1  0  0  0  0
 17 25  1  0  0  0  0
M  END
$$$$

  -OEChem-05262214473D

 49 48  0     1  0  0  0  0  0999 V2000
   -0.0561   -5.3799    2.6949 C   0  0  0  0  0  0  0  0  0  0  0  0
    0.7325   -5.0736    3.5815 O   0  0  0  0  0  0  0  0  0  0  0  0
   -1.0067   -6.5099    2.9135 C   0  0  0  0  0  0  0  0  0  0  0  0
   -0.5910   -7.4777    2.5899 H   0  0  0  0  0  0  0  0  0  0  0  0
   -1.2629   -6.6440    3.9767 H   0  0  0  0  0  0  0  0  0  0  0  0
   -1.9729   -6.4206    2.3918 H   0  0  0  0  0  0  0  0  0  0  0  0
   -0.1735   -4.7694    1.4571 N   0  0  0  0  0  0  0  0  0  0  0  0
    0.6439   -3.6603    1.0409 C   0  0  2  0  0  0  0  0  0  0  0  0
   -0.2788   -2.5625    0.5280 C   0  0  0  0  0  0  0  0  0  0  0  0
   -1.4197   -2.7791    0.1251 O   0  0  0  0  0  0  0  0  0  0  0  0
    1.6395   -4.0779   -0.0301 C   0  0  0  0  0  0  0  0  0  0  0  0
   -0.8741   -5.1235    0.8083 H   0  0  0  0  0  0  0  0  0  0  0  0
    1.1738   -3.3062    1.9318 H   0  0  0  0  0  0  0  0  0  0  0  0
    1.1270   -4.4358   -0.9305 H   0  0  0  0  0  0  0  0  0  0  0  0
    2.2797   -3.2400   -0.3251 H   0  0  0  0  0  0  0  0  0  0  0  0
    2.2827   -4.8880    0.3303 H   0  0  0  0  0  0  0  0  0  0  0  0
    0.3351   -1.3153    0.5316 N   0  0  0  0  0  0  0  0  0  0  0  0
   -0.3268   -0.1184    0.0807 C   0  0  2  0  0  0  0  0  0  0  0  0
    0.2326    1.0723    0.8533 C   0  0  0  0  0  0  0  0  0  0  0  0
    1.0351    1.8672    0.3681 O   0  0  0  0  0  0  0  0  0  0  0  0
   -1.8544   -0.2288    0.1818 C   0  0  0  0  0  0  0  0  0  0  0  0
   -2.4582   -1.2740   -0.7593 C   0  0  0  0  0  0  0  0  0  0  0  0
   -2.1004   -0.8544   -2.4913 S   0  0  0  0  0  0  0  0  0  0  0  0
   -3.1450    0.6142   -2.6245 C   0  0  0  0  0  0  0  0  0  0  0  0
    1.2790   -1.2290    0.9021 H   0  0  0  0  0  0  0  0  0  0  0  0
   -0.0465   -0.0005   -0.9731 H   0  0  0  0  0  0  0  0  0  0  0  0
   -2.2876    0.7554   -0.0418 H   0  0  0  0  0  0  0  0  0  0  0  0
   -2.1279   -0.4700    1.2170 H   0  0  0  0  0  0  0  0  0  0  0  0
   -3.5450   -1.3242   -0.6440 H   0  0  0  0  0  0  0  0  0  0  0  0
   -2.0473   -2.2680   -0.5597 H   0  0  0  0  0  0  0  0  0  0  0  0
   -3.0690    1.0344   -3.6303 H   0  0  0  0  0  0  0  0  0  0  0  0
   -2.8231    1.3655   -1.8991 H   0  0  0  0  0  0  0  0  0  0  0  0
   -4.1861    0.3484   -2.4258 H   0  0  0  0  0  0  0  0  0  0  0  0
   -0.2437    1.1239    2.1554 N   0  0  0  0  0  0  0  0  0  0  0  0
    0.1519    2.1529    3.0882 C   0  0  2  0  0  0  0  0  0  0  0  0
    0.3254    1.5063    4.4561 C   0  0  0  0  0  0  0  0  0  0  0  0
   -0.2154    0.4483    4.7714 O   0  0  0  0  0  0  0  0  0  0  0  0
   -0.8741    3.2741    3.1431 C   0  0  0  0  0  0  0  0  0  0  0  0
   -0.9278    0.4401    2.4653 H   0  0  0  0  0  0  0  0  0  0  0  0
    1.1163    2.5401    2.7417 H   0  0  0  0  0  0  0  0  0  0  0  0
   -1.8469    2.9052    3.4882 H   0  0  0  0  0  0  0  0  0  0  0  0
   -0.5590    4.0670    3.8294 H   0  0  0  0  0  0  0  0  0  0  0  0
   -1.0195    3.7182    2.1525 H   0  0  0  0  0  0  0  0  0  0  0  0
    1.1202    2.2714    5.2981 N   0  0  0  0  0  0  0  0  0  0  0  0
    1.4238    1.8780    6.6542 C   0  0  0  0  0  0  0  0  0  0  0  0
    1.5427    3.1256    4.9466 H   0  0  0  0  0  0  0  0  0  0  0  0
    0.6857    2.3211    7.3390 H   0  0  0  0  0  0  0  0  0  0  0  0
    1.3866    0.7816    6.7348 H   0  0  0  0  0  0  0  0  0  0  0  0
    2.4305    2.2314    6.9218 H   0  0  0  0  0  0  0  0  0  0  0  0
  1  3  1  0  0  0  0
  1  7  1  0  0  0  0
  1  2  2  0  0  0  0
 35 36  1  0  0  0  0
 36 44  1  0  0  0  0
 36 37  2  0  0  0  0
  8  9  1  0  0  0  0
  9 17  1  0  0  0  0
  9 10  2  0  0  0  0
 18 19  1  0  0  0  0
 19 34  1  0  0  0  0
 19 20  2  0  0  0  0
 35 38  1  0  0  0  0
  8 11  1  0  0  0  0
 44 45  1  0  0  0  0
 23 24  1  0  0  0  0
 21 22  1  0  0  0  0
 18 21  1  0  0  0  0
 22 23  1  0  0  0  0
 34 35  1  0  0  0  0
  7  8  1  0  0  0  0
 17 18  1  0  0  0  0
  3  4  1  0  0  0  0
  3  5  1  0  0  0  0
  3  6  1  0  0  0  0
 38 41  1  0  0  0  0
 38 42  1  0  0  0  0
 38 43  1  0  0  0  0
 11 14  1  0  0  0  0
 11 15  1  0  0  0  0
 11 16  1  0  0  0  0
 45 47  1  0  0  0  0
 45 48  1  0  0  0  0
 45 49  1  0  0  0  0
 24 31  1  0  0  0  0
 24 32  1  0  0  0  0
 24 33  1  0  0  0  0
 21 27  1  0  0  0  0
 21 28  1  0  0  0  0
 22 29  1  0  0  0  0
 22 30  1  0  0  0  0
 35 40  1  0  0  0  0
  8 13  1  0  0  0  0
 18 26  1  0  0  0  0
 44 46  1  0  0  0  0
  7 12  1  0  0  0  0
 34 39  1  0  0  0  0
 17 25  1  0  0  0  0
M  END
$$$$

  -OEChem-05262214473D

 49 48  0     1  0  0  0  0  0999 V2000
   -0.0561   -5.3799    2.6949 C   0  0  0  0  0  0  0  0  0  0  0  0
    0.7325   -5.0736    3.5815 O   0  0  0  0  0  0  0  0  0  0  0  0
   -1.0067   -6.5099    2.9135 C   0  0  0  0  0  0  0  0  0  0  0  0
   -0.5910   -7.4777    2.5899 H   0  0  0  0  0  0  0  0  0  0  0  0
   -1.2629   -6.6440    3.9767 H   0  0  0  0  0  0  0  0  0  0  0  0
   -1.9729   -6.4206    2.3918 H   0  0  0  0  0  0  0  0  0  0  0  0
   -0.1735   -4.7694    1.4571 N   0  0  0  0  0  0  0  0  0  0  0  0
    0.6439   -3.6603    1.0409 C   0  0  2  0  0  0  0  0  0  0  0  0
   -0.2788   -2.5625    0.5280 C   0  0  0  0  0  0  0  0  0  0  0  0
   -1.4197   -2.7791    0.1251 O   0  0  0  0  0  0  0  0  0  0  0  0
    1.6395   -4.0779   -0.0301 C   0  0  0  0  0  0  0  0  0  0  0  0
   -0.8741   -5.1235    0.8083 H   0  0  0  0  0  0  0  0  0  0  0  0
    1.1738   -3.3062    1.9318 H   0  0  0  0  0  0  0  0  0  0  0  0
    1.1270   -4.4358   -0.9305 H   0  0  0  0  0  0  0  0  0  0  0  0
    2.2797   -3.2400   -0.3251 H   0  0  0  0  0  0  0  0  0  0  0  0
    2.2827   -4.8880    0.3303 H   0  0  0  0  0  0  0  0  0  0  0  0
    0.3351   -1.3153    0.5316 N   0  0  0  0  0  0  0  0  0  0  0  0
   -0.3268   -0.1184    0.0807 C   0  0  2  0  0  0  0  0  0  0  0  0
    0.2326    1.0723    0.8533 C   0  0  0  0  0  0  0  0  0  0  0  0
    0.8139    2.0091    0.3095 O   0  0  0  0  0  0  0  0  0  0  0  0
   -1.8544   -0.2288    0.1818 C   0  0  0  0  0  0  0  0  0  0  0  0
   -2.4582   -1.2740   -0.7593 C   0  0  0  0  0  0  0  0  0  0  0  0
   -2.1004   -0.8544   -2.4913 S   0  0  0  0  0  0  0  0  0  0  0  0
   -3.1450    0.6142   -2.6245 C   0  0  0  0  0  0  0  0  0  0  0  0
    1.2790   -1.2290    0.9021 H   0  0  0  0  0  0  0  0  0  0  0  0
   -0.0465   -0.0005   -0.9731 H   0  0  0  0  0  0  0  0  0  0  0  0
   -2.2876    0.7554   -0.0418 H   0  0  0  0  0  0  0  0  0  0  0  0
   -2.1279   -0.4700    1.2170 H   0  0  0  0  0  0  0  0  0  0  0  0
   -3.5450   -1.3242   -0.6440 H   0  0  0  0  0  0  0  0  0  0  0  0
   -2.0473   -2.2680   -0.5597 H   0  0  0  0  0  0  0  0  0  0  0  0
   -3.0690    1.0344   -3.6303 H   0  0  0  0  0  0  0  0  0  0  0  0
   -2.8231    1.3655   -1.8991 H   0  0  0  0  0  0  0  0  0  0  0  0
   -4.1861    0.3484   -2.4258 H   0  0  0  0  0  0  0  0  0  0  0  0
    0.0354    0.9501    2.2212 N   0  0  0  0  0  0  0  0  0  0  0  0
    0.4888    1.9452    3.1645 C   0  0  2  0  0  0  0  0  0  0  0  0
    1.0206    1.2201    4.3937 C   0  0  0  0  0  0  0  0  0  0  0  0
    0.6898    0.0745    4.6922 O   0  0  0  0  0  0  0  0  0  0  0  0
   -0.6315    2.9024    3.5403 C   0  0  0  0  0  0  0  0  0  0  0  0
   -0.4811    0.1538    2.5830 H   0  0  0  0  0  0  0  0  0  0  0  0
    1.3056    2.4912    2.6800 H   0  0  0  0  0  0  0  0  0  0  0  0
   -1.4590    2.3734    4.0270 H   0  0  0  0  0  0  0  0  0  0  0  0
   -0.2789    3.6733    4.2334 H   0  0  0  0  0  0  0  0  0  0  0  0
   -1.0328    3.4009    2.6513 H   0  0  0  0  0  0  0  0  0  0  0  0
    1.8746    2.0185    5.1417 N   0  0  0  0  0  0  0  0  0  0  0  0
    2.4994    1.5626    6.3615 C   0  0  0  0  0  0  0  0  0  0  0  0
    2.1078    2.9494    4.8090 H   0  0  0  0  0  0  0  0  0  0  0  0
    1.8720    1.8401    7.2213 H   0  0  0  0  0  0  0  0  0  0  0  0
    2.6131    0.4690    6.3285 H   0  0  0  0  0  0  0  0  0  0  0  0
    3.4893    2.0313    6.4636 H   0  0  0  0  0  0  0  0  0  0  0  0
  1  3  1  0  0  0  0
  1  7  1  0  0  0  0
  1  2  2  0  0  0  0
 35 36  1  0  0  0  0
 36 44  1  0  0  0  0
 36 37  2  0  0  0  0
  8  9  1  0  0  0  0
  9 17  1  0  0  0  0
  9 10  2  0  0  0  0
 18 19  1  0  0  0  0
 19 34  1  0  0  0  0
 19 20  2  0  0  0  0
 35 38  1  0  0  0  0
  8 11  1  0  0  0  0
 44 45  1  0  0  0  0
 23 24  1  0  0  0  0
 21 22  1  0  0  0  0
 18 21  1  0  0  0  0
 22 23  1  0  0  0  0
 34 35  1  0  0  0  0
  7  8  1  0  0  0  0
 17 18  1  0  0  0  0
  3  4  1  0  0  0  0
  3  5  1  0  0  0  0
  3  6  1  0  0  0  0
 38 41  1  0  0  0  0
 38 42  1  0  0  0  0
 38 43  1  0  0  0  0
 11 14  1  0  0  0  0
 11 15  1  0  0  0  0
 11 16  1  0  0  0  0
 45 47  1  0  0  0  0
 45 48  1  0  0  0  0
 45 49  1  0  0  0  0
 24 31  1  0  0  0  0
 24 32  1  0  0  0  0
 24 33  1  0  0  0  0
 21 27  1  0  0  0  0
 21 28  1  0  0  0  0
 22 29  1  0  0  0  0
 22 30  1  0  0  0  0
 35 40  1  0  0  0  0
  8 13  1  0  0  0  0
 18 26  1  0  0  0  0
 44 46  1  0  0  0  0
  7 12  1  0  0  0  0
 34 39  1  0  0  0  0
 17 25  1  0  0  0  0
M  END
$$$$

  -OEChem-05262214473D

 49 48  0     1  0  0  0  0  0999 V2000
   -0.0561   -5.3799    2.6949 C   0  0  0  0  0  0  0  0  0  0  0  0
    0.7325   -5.0736    3.5815 O   0  0  0  0  0  0  0  0  0  0  0  0
   -1.0067   -6.5099    2.9135 C   0  0  0  0  0  0  0  0  0  0  0  0
   -0.5910   -7.4777    2.5899 H   0  0  0  0  0  0  0  0  0  0  0  0
   -1.2629   -6.6440    3.9767 H   0  0  0  0  0  0  0  0  0  0  0  0
   -1.9729   -6.4206    2.3918 H   0  0  0  0  0  0  0  0  0  0  0  0
   -0.1735   -4.7694    1.4571 N   0  0  0  0  0  0  0  0  0  0  0  0
    0.6439   -3.6603    1.0409 C   0  0  2  0  0  0  0  0  0  0  0  0
   -0.2788   -2.5625    0.5280 C   0  0  0  0  0  0  0  0  0  0  0  0
   -1.4197   -2.7791    0.1251 O   0  0  0  0  0  0  0  0  0  0  0  0
    1.6395   -4.0779   -0.0301 C   0  0  0  0  0  0  0  0  0  0  0  0
   -0.8741   -5.1235    0.8083 H   0  0  0  0  0  0  0  0  0  0  0  0
    1.1738   -3.3062    1.9318 H   0  0  0  0  0  0  0  0  0  0  0  0
    1.1270   -4.4358   -0.9305 H   0  0  0  0  0  0  0  0  0  0  0  0
    2.2797   -3.2400   -0.3251 H   0  0  0  0  0  0  0  0  0  0  0  0
    2.2827   -4.8880    0.3303 H   0  0  0  0  0  0  0  0  0  0  0  0
    0.3351   -1.3153    0.5316 N   0  0  0  0  0  0  0  0  0  0  0  0
   -0.3268   -0.1184    0.0807 C   0  0  2  0  0  0  0  0  0  0  0  0
    0.2326    1.0723    0.8533 C   0  0  0  0  0  0  0  0  0  0  0  0
    0.5699    2.1228    0.3110 O   0  0  0  0  0  0  0  0  0  0  0  0
   -1.8544   -0.2288    0.1818 C   0  0  0  0  0  0  0  0  0  0  0  0
   -2.4582   -1.2740   -0.7593 C   0  0  0  0  0  0  0  0  0  0  0  0
   -2.1004   -0.8544   -2.4913 S   0  0  0  0  0  0  0  0  0  0  0  0
   -3.1450    0.6142   -2.6245 C   0  0  0  0  0  0  0  0  0  0  0  0
    1.2790   -1.2290    0.9021 H   0  0  0  0  0  0  0  0  0  0  0  0
   -0.0465   -0.0005   -0.9731 H   0  0  0  0  0  0  0  0  0  0  0  0
   -2.2876    0.7554   -0.0418 H   0  0  0  0  0  0  0  0  0  0  0  0
   -2.1279   -0.4700    1.2170 H   0  0  0  0  0  0  0  0  0  0  0  0
   -3.5450   -1.3242   -0.6440 H   0  0  0  0  0  0  0  0  0  0  0  0
   -2.0473   -2.2680   -0.5597 H   0  0  0  0  0  0  0  0  0  0  0  0
   -3.0690    1.0344   -3.6303 H   0  0  0  0  0  0  0  0  0  0  0  0
   -2.8231    1.3655   -1.8991 H   0  0  0  0  0  0  0  0  0  0  0  0
   -4.1861    0.3484   -2.4258 H   0  0  0  0  0  0  0  0  0  0  0  0
    0.3410    0.8125    2.2119 N   0  0  0  0  0  0  0  0  0  0  0  0
    0.8569    1.7814    3.1504 C   0  0  2  0  0  0  0  0  0  0  0  0
    1.7170    1.0408    4.1659 C   0  0  0  0  0  0  0  0  0  0  0  0
    1.5971   -0.1605    4.3973 O   0  0  0  0  0  0  0  0  0  0  0  0
   -0.2683    2.5376    3.8396 C   0  0  0  0  0  0  0  0  0  0  0  0
    0.0117   -0.0753    2.5793 H   0  0  0  0  0  0  0  0  0  0  0  0
    1.4824    2.4746    2.5775 H   0  0  0  0  0  0  0  0  0  0  0  0
   -0.9058    1.8594    4.4186 H   0  0  0  0  0  0  0  0  0  0  0  0
    0.1248    3.2914    4.5297 H   0  0  0  0  0  0  0  0  0  0  0  0
   -0.9034    3.0453    3.1057 H   0  0  0  0  0  0  0  0  0  0  0  0
    2.6048    1.8879    4.8143 N   0  0  0  0  0  0  0  0  0  0  0  0
    3.5206    1.4267    5.8315 C   0  0  0  0  0  0  0  0  0  0  0  0
    2.6488    2.8663    4.5453 H   0  0  0  0  0  0  0  0  0  0  0  0
    3.0572    1.5421    6.8224 H   0  0  0  0  0  0  0  0  0  0  0  0
    3.7568    0.3664    5.6586 H   0  0  0  0  0  0  0  0  0  0  0  0
    4.4457    2.0202    5.7881 H   0  0  0  0  0  0  0  0  0  0  0  0
  1  3  1  0  0  0  0
  1  7  1  0  0  0  0
  1  2  2  0  0  0  0
 35 36  1  0  0  0  0
 36 44  1  0  0  0  0
 36 37  2  0  0  0  0
  8  9  1  0  0  0  0
  9 17  1  0  0  0  0
  9 10  2  0  0  0  0
 18 19  1  0  0  0  0
 19 34  1  0  0  0  0
 19 20  2  0  0  0  0
 35 38  1  0  0  0  0
  8 11  1  0  0  0  0
 44 45  1  0  0  0  0
 23 24  1  0  0  0  0
 21 22  1  0  0  0  0
 18 21  1  0  0  0  0
 22 23  1  0  0  0  0
 34 35  1  0  0  0  0
  7  8  1  0  0  0  0
 17 18  1  0  0  0  0
  3  4  1  0  0  0  0
  3  5  1  0  0  0  0
  3  6  1  0  0  0  0
 38 41  1  0  0  0  0
 38 42  1  0  0  0  0
 38 43  1  0  0  0  0
 11 14  1  0  0  0  0
 11 15  1  0  0  0  0
 11 16  1  0  0  0  0
 45 47  1  0  0  0  0
 45 48  1  0  0  0  0
 45 49  1  0  0  0  0
 24 31  1  0  0  0  0
 24 32  1  0  0  0  0
 24 33  1  0  0  0  0
 21 27  1  0  0  0  0
 21 28  1  0  0  0  0
 22 29  1  0  0  0  0
 22 30  1  0  0  0  0
 35 40  1  0  0  0  0
  8 13  1  0  0  0  0
 18 26  1  0  0  0  0
 44 46  1  0  0  0  0
  7 12  1  0  0  0  0
 34 39  1  0  0  0  0
 17 25  1  0  0  0  0
M  END
$$$$

  -OEChem-05262214473D

 49 48  0     1  0  0  0  0  0999 V2000
   -0.0561   -5.3799    2.6949 C   0  0  0  0  0  0  0  0  0  0  0  0
    0.7325   -5.0736    3.5815 O   0  0  0  0  0  0  0  0  0  0  0  0
   -1.0067   -6.5099    2.9135 C   0  0  0  0  0  0  0  0  0  0  0  0
   -0.5910   -7.4777    2.5899 H   0  0  0  0  0  0  0  0  0  0  0  0
   -1.2629   -6.6440    3.9767 H   0  0  0  0  0  0  0  0  0  0  0  0
   -1.9729   -6.4206    2.3918 H   0  0  0  0  0  0  0  0  0  0  0  0
   -0.1735   -4.7694    1.4571 N   0  0  0  0  0  0  0  0  0  0  0  0
    0.6439   -3.6603    1.0409 C   0  0  2  0  0  0  0  0  0  0  0  0
   -0.2788   -2.5625    0.5280 C   0  0  0  0  0  0  0  0  0  0  0  0
   -1.4197   -2.7791    0.1251 O   0  0  0  0  0  0  0  0  0  0  0  0
    1.6395   -4.0779   -0.0301 C   0  0  0  0  0  0  0  0  0  0  0  0
   -0.8741   -5.1235    0.8083 H   0  0  0  0  0  0  0  0  0  0  0  0
    1.1738   -3.3062    1.9318 H   0  0  0  0  0  0  0  0  0  0  0  0
    1.1270   -4.4358   -0.9305 H   0  0  0  0  0  0  0  0  0  0  0  0
    2.2797   -3.2400   -0.3251 H   0  0  0  0  0  0  0  0  0  0  0  0
    2.2827   -4.8880    0.3303 H   0  0  0  0  0  0  0  0  0  0  0  0
    0.3351   -1.3153    0.5316 N   0  0  0  0  0  0  0  0  0  0  0  0
   -0.3268   -0.1184    0.0807 C   0  0  2  0  0  0  0  0  0  0  0  0
    0.2326    1.0723    0.8533 C   0  0  0  0  0  0  0  0  0  0  0  0
    0.3195    2.2004    0.3726 O   0  0  0  0  0  0  0  0  0  0  0  0
   -1.8544   -0.2288    0.1818 C   0  0  0  0  0  0  0  0  0  0  0  0
   -2.4582   -1.2740   -0.7593 C   0  0  0  0  0  0  0  0  0  0  0  0
   -2.1004   -0.8544   -2.4913 S   0  0  0  0  0  0  0  0  0  0  0  0
   -3.1450    0.6142   -2.6245 C   0  0  0  0  0  0  0  0  0  0  0  0
    1.2790   -1.2290    0.9021 H   0  0  0  0  0  0  0  0  0  0  0  0
   -0.0465   -0.0005   -0.9731 H   0  0  0  0  0  0  0  0  0  0  0  0
   -2.2876    0.7554   -0.0418 H   0  0  0  0  0  0  0  0  0  0  0  0
   -2.1279   -0.4700    1.2170 H   0  0  0  0  0  0  0  0  0  0  0  0
   -3.5450   -1.3242   -0.6440 H   0  0  0  0  0  0  0  0  0  0  0  0
   -2.0473   -2.2680   -0.5597 H   0  0  0  0  0  0  0  0  0  0  0  0
   -3.0690    1.0344   -3.6303 H   0  0  0  0  0  0  0  0  0  0  0  0
   -2.8231    1.3655   -1.8991 H   0  0  0  0  0  0  0  0  0  0  0  0
   -4.1861    0.3484   -2.4258 H   0  0  0  0  0  0  0  0  0  0  0  0
    0.6524    0.7206    2.1281 N   0  0  0  0  0  0  0  0  0  0  0  0
    1.2310    1.6728    3.0468 C   0  0  2  0  0  0  0  0  0  0  0  0
    2.3671    0.9805    3.7880 C   0  0  0  0  0  0  0  0  0  0  0  0
    2.4447   -0.2405    3.9069 O   0  0  0  0  0  0  0  0  0  0  0  0
    0.1909    2.2043    4.0207 C   0  0  0  0  0  0  0  0  0  0  0  0
    0.5170   -0.2316    2.4544 H   0  0  0  0  0  0  0  0  0  0  0  0
    1.6346    2.4915    2.4412 H   0  0  0  0  0  0  0  0  0  0  0  0
   -0.2249    1.3983    4.6363 H   0  0  0  0  0  0  0  0  0  0  0  0
    0.6247    2.9473    4.6981 H   0  0  0  0  0  0  0  0  0  0  0  0
   -0.6400    2.6756    3.4847 H   0  0  0  0  0  0  0  0  0  0  0  0
    3.2611    1.8885    4.3381 N   0  0  0  0  0  0  0  0  0  0  0  0
    4.4177    1.4796    5.1004 C   0  0  0  0  0  0  0  0  0  0  0  0
    3.1291    2.8820    4.1734 H   0  0  0  0  0  0  0  0  0  0  0  0
    4.1604    1.4475    6.1694 H   0  0  0  0  0  0  0  0  0  0  0  0
    4.7395    0.4807    4.7707 H   0  0  0  0  0  0  0  0  0  0  0  0
    5.2345    2.1990    4.9414 H   0  0  0  0  0  0  0  0  0  0  0  0
  1  3  1  0  0  0  0
  1  7  1  0  0  0  0
  1  2  2  0  0  0  0
 35 36  1  0  0  0  0
 36 44  1  0  0  0  0
 36 37  2  0  0  0  0
  8  9  1  0  0  0  0
  9 17  1  0  0  0  0
  9 10  2  0  0  0  0
 18 19  1  0  0  0  0
 19 34  1  0  0  0  0
 19 20  2  0  0  0  0
 35 38  1  0  0  0  0
  8 11  1  0  0  0  0
 44 45  1  0  0  0  0
 23 24  1  0  0  0  0
 21 22  1  0  0  0  0
 18 21  1  0  0  0  0
 22 23  1  0  0  0  0
 34 35  1  0  0  0  0
  7  8  1  0  0  0  0
 17 18  1  0  0  0  0
  3  4  1  0  0  0  0
  3  5  1  0  0  0  0
  3  6  1  0  0  0  0
 38 41  1  0  0  0  0
 38 42  1  0  0  0  0
 38 43  1  0  0  0  0
 11 14  1  0  0  0  0
 11 15  1  0  0  0  0
 11 16  1  0  0  0  0
 45 47  1  0  0  0  0
 45 48  1  0  0  0  0
 45 49  1  0  0  0  0
 24 31  1  0  0  0  0
 24 32  1  0  0  0  0
 24 33  1  0  0  0  0
 21 27  1  0  0  0  0
 21 28  1  0  0  0  0
 22 29  1  0  0  0  0
 22 30  1  0  0  0  0
 35 40  1  0  0  0  0
  8 13  1  0  0  0  0
 18 26  1  0  0  0  0
 44 46  1  0  0  0  0
  7 12  1  0  0  0  0
 34 39  1  0  0  0  0
 17 25  1  0  0  0  0
M  END
$$$$

  -OEChem-05262214473D

 49 48  0     1  0  0  0  0  0999 V2000
   -0.0561   -5.3799    2.6949 C   0  0  0  0  0  0  0  0  0  0  0  0
    0.7325   -5.0736    3.5815 O   0  0  0  0  0  0  0  0  0  0  0  0
   -1.0067   -6.5099    2.9135 C   0  0  0  0  0  0  0  0  0  0  0  0
   -0.5910   -7.4777    2.5899 H   0  0  0  0  0  0  0  0  0  0  0  0
   -1.2629   -6.6440    3.9767 H   0  0  0  0  0  0  0  0  0  0  0  0
   -1.9729   -6.4206    2.3918 H   0  0  0  0  0  0  0  0  0  0  0  0
   -0.1735   -4.7694    1.4571 N   0  0  0  0  0  0  0  0  0  0  0  0
    0.6439   -3.6603    1.0409 C   0  0  2  0  0  0  0  0  0  0  0  0
   -0.2788   -2.5625    0.5280 C   0  0  0  0  0  0  0  0  0  0  0  0
   -1.4197   -2.7791    0.1251 O   0  0  0  0  0  0  0  0  0  0  0  0
    1.6395   -4.0779   -0.0301 C   0  0  0  0  0  0  0  0  0  0  0  0
   -0.8741   -5.1235    0.8083 H   0  0  0  0  0  0  0  0  0  0  0  0
    1.1738   -3.3062    1.9318 H   0  0  0  0  0  0  0  0  0  0  0  0
    1.1270   -4.4358   -0.9305 H   0  0  0  0  0  0  0  0  0  0  0  0
    2.2797   -3.2400   -0.3251 H   0  0  0  0  0  0  0  0  0  0  0  0
    2.2827   -4.8880    0.3303 H   0  0  0  0  0  0  0  0  0  0  0  0
    0.3351   -1.3153    0.5316 N   0  0  0  0  0  0  0  0  0  0  0  0
   -0.3268   -0.1184    0.0807 C   0  0  2  0  0  0  0  0  0  0  0  0
    0.2326    1.0723    0.8533 C   0  0  0  0  0  0  0  0  0  0  0  0
    0.0800    2.2368    0.4900 O   0  0  0  0  0  0  0  0  0  0  0  0
   -1.8544   -0.2288    0.1818 C   0  0  0  0  0  0  0  0  0  0  0  0
   -2.4582   -1.2740   -0.7593 C   0  0  0  0  0  0  0  0  0  0  0  0
   -2.1004   -0.8544   -2.4913 S   0  0  0  0  0  0  0  0  0  0  0  0
   -3.1450    0.6142   -2.6245 C   0  0  0  0  0  0  0  0  0  0  0  0
    1.2790   -1.2290    0.9021 H   0  0  0  0  0  0  0  0  0  0  0  0
   -0.0465   -0.0005   -0.9731 H   0  0  0  0  0  0  0  0  0  0  0  0
   -2.2876    0.7554   -0.0418 H   0  0  0  0  0  0  0  0  0  0  0  0
   -2.1279   -0.4700    1.2170 H   0  0  0  0  0  0  0  0  0  0  0  0
   -3.5450   -1.3242   -0.6440 H   0  0  0  0  0  0  0  0  0  0  0  0
   -2.0473   -2.2680   -0.5597 H   0  0  0  0  0  0  0  0  0  0  0  0
   -3.0690    1.0344   -3.6303 H   0  0  0  0  0  0  0  0  0  0  0  0
   -2.8231    1.3655   -1.8991 H   0  0  0  0  0  0  0  0  0  0  0  0
   -4.1861    0.3484   -2.4258 H   0  0  0  0  0  0  0  0  0  0  0  0
    0.9482    0.6806    1.9755 N   0  0  0  0  0  0  0  0  0  0  0  0
    1.5857    1.6268    2.8610 C   0  0  2  0  0  0  0  0  0  0  0  0
    2.9267    1.0433    3.2861 C   0  0  0  0  0  0  0  0  0  0  0  0
    3.1749   -0.1602    3.2544 O   0  0  0  0  0  0  0  0  0  0  0  0
    0.7147    1.9255    4.0713 C   0  0  0  0  0  0  0  0  0  0  0  0
    1.0004   -0.3046    2.2169 H   0  0  0  0  0  0  0  0  0  0  0  0
    1.7519    2.5407    2.2805 H   0  0  0  0  0  0  0  0  0  0  0  0
    0.5371    1.0215    4.6653 H   0  0  0  0  0  0  0  0  0  0  0  0
    1.1867    2.6644    4.7271 H   0  0  0  0  0  0  0  0  0  0  0  0
   -0.2606    2.3171    3.7625 H   0  0  0  0  0  0  0  0  0  0  0  0
    3.7988    2.0202    3.7457 N   0  0  0  0  0  0  0  0  0  0  0  0
    5.1297    1.7176    4.2180 C   0  0  0  0  0  0  0  0  0  0  0  0
    3.5158    2.9954    3.7186 H   0  0  0  0  0  0  0  0  0  0  0  0
    5.1066    1.5627    5.3068 H   0  0  0  0  0  0  0  0  0  0  0  0
    5.4945    0.8042    3.7254 H   0  0  0  0  0  0  0  0  0  0  0  0
    5.8020    2.5554    3.9811 H   0  0  0  0  0  0  0  0  0  0  0  0
  1  3  1  0  0  0  0
  1  7  1  0  0  0  0
  1  2  2  0  0  0  0
 35 36  1  0  0  0  0
 36 44  1  0  0  0  0
 36 37  2  0  0  0  0
  8  9  1  0  0  0  0
  9 17  1  0  0  0  0
  9 10  2  0  0  0  0
 18 19  1  0  0  0  0
 19 34  1  0  0  0  0
 19 20  2  0  0  0  0
 35 38  1  0  0  0  0
  8 11  1  0  0  0  0
 44 45  1  0  0  0  0
 23 24  1  0  0  0  0
 21 22  1  0  0  0  0
 18 21  1  0  0  0  0
 22 23  1  0  0  0  0
 34 35  1  0  0  0  0
  7  8  1  0  0  0  0
 17 18  1  0  0  0  0
  3  4  1  0  0  0  0
  3  5  1  0  0  0  0
  3  6  1  0  0  0  0
 38 41  1  0  0  0  0
 38 42  1  0  0  0  0
 38 43  1  0  0  0  0
 11 14  1  0  0  0  0
 11 15  1  0  0  0  0
 11 16  1  0  0  0  0
 45 47  1  0  0  0  0
 45 48  1  0  0  0  0
 45 49  1  0  0  0  0
 24 31  1  0  0  0  0
 24 32  1  0  0  0  0
 24 33  1  0  0  0  0
 21 27  1  0  0  0  0
 21 28  1  0  0  0  0
 22 29  1  0  0  0  0
 22 30  1  0  0  0  0
 35 40  1  0  0  0  0
  8 13  1  0  0  0  0
 18 26  1  0  0  0  0
 44 46  1  0  0  0  0
  7 12  1  0  0  0  0
 34 39  1  0  0  0  0
 17 25  1  0  0  0  0
M  END
$$$$

  -OEChem-05262214473D

 49 48  0     1  0  0  0  0  0999 V2000
   -0.0561   -5.3799    2.6949 C   0  0  0  0  0  0  0  0  0  0  0  0
    0.7325   -5.0736    3.5815 O   0  0  0  0  0  0  0  0  0  0  0  0
   -1.0067   -6.5099    2.9135 C   0  0  0  0  0  0  0  0  0  0  0  0
   -0.5910   -7.4777    2.5899 H   0  0  0  0  0  0  0  0  0  0  0  0
   -1.2629   -6.6440    3.9767 H   0  0  0  0  0  0  0  0  0  0  0  0
   -1.9729   -6.4206    2.3918 H   0  0  0  0  0  0  0  0  0  0  0  0
   -0.1735   -4.7694    1.4571 N   0  0  0  0  0  0  0  0  0  0  0  0
    0.6439   -3.6603    1.0409 C   0  0  2  0  0  0  0  0  0  0  0  0
   -0.2788   -2.5625    0.5280 C   0  0  0  0  0  0  0  0  0  0  0  0
   -1.4197   -2.7791    0.1251 O   0  0  0  0  0  0  0  0  0  0  0  0
    1.6395   -4.0779   -0.0301 C   0  0  0  0  0  0  0  0  0  0  0  0
   -0.8741   -5.1235    0.8083 H   0  0  0  0  0  0  0  0  0  0  0  0
    1.1738   -3.3062    1.9318 H   0  0  0  0  0  0  0  0  0  0  0  0
    1.1270   -4.4358   -0.9305 H   0  0  0  0  0  0  0  0  0  0  0  0
    2.2797   -3.2400   -0.3251 H   0  0  0  0  0  0  0  0  0  0  0  0
    2.2827   -4.8880    0.3303 H   0  0  0  0  0  0  0  0  0  0  0  0
    0.3351   -1.3153    0.5316 N   0  0  0  0  0  0  0  0  0  0  0  0
   -0.3268   -0.1184    0.0807 C   0  0  2  0  0  0  0  0  0  0  0  0
    0.2326    1.0723    0.8533 C   0  0  0  0  0  0  0  0  0  0  0  0
   -0.1325    2.2294    0.6552 O   0  0  0  0  0  0  0  0  0  0  0  0
   -1.8544   -0.2288    0.1818 C   0  0  0  0  0  0  0  0  0  0  0  0
   -2.4582   -1.2740   -0.7593 C   0  0  0  0  0  0  0  0  0  0  0  0
   -2.1004   -0.8544   -2.4913 S   0  0  0  0  0  0  0  0  0  0  0  0
   -3.1450    0.6142   -2.6245 C   0  0  0  0  0  0  0  0  0  0  0  0
    1.2790   -1.2290    0.9021 H   0  0  0  0  0  0  0  0  0  0  0  0
   -0.0465   -0.0005   -0.9731 H   0  0  0  0  0  0  0  0  0  0  0  0
   -2.2876    0.7554   -0.0418 H   0  0  0  0  0  0  0  0  0  0  0  0
   -2.1279   -0.4700    1.2170 H   0  0  0  0  0  0  0  0  0  0  0  0
   -3.5450   -1.3242   -0.6440 H   0  0  0  0  0  0  0  0  0  0  0  0
   -2.0473   -2.2680   -0.5597 H   0  0  0  0  0  0  0  0  0  0  0  0
   -3.0690    1.0344   -3.6303 H   0  0  0  0  0  0  0  0  0  0  0  0
   -2.8231    1.3655   -1.8991 H   0  0  0  0  0  0  0  0  0  0  0  0
   -4.1861    0.3484   -2.4258 H   0  0  0  0  0  0  0  0  0  0  0  0
    1.2085    0.6952    1.7646 N   0  0  0  0  0  0  0  0  0  0  0  0
    1.8968    1.6464    2.6054 C   0  0  2  0  0  0  0  0  0  0  0  0
    3.3576    1.2249    2.6941 C   0  0  0  0  0  0  0  0  0  0  0  0
    3.7379    0.0750    2.4842 O   0  0  0  0  0  0  0  0  0  0  0  0
    1.2674    1.7199    3.9879 C   0  0  0  0  0  0  0  0  0  0  0  0
    1.4289   -0.2892    1.8829 H   0  0  0  0  0  0  0  0  0  0  0  0
    1.8263    2.6189    2.1061 H   0  0  0  0  0  0  0  0  0  0  0  0
    1.3285    0.7546    4.5036 H   0  0  0  0  0  0  0  0  0  0  0  0
    1.7724    2.4621    4.6148 H   0  0  0  0  0  0  0  0  0  0  0  0
    0.2091    1.9942    3.9202 H   0  0  0  0  0  0  0  0  0  0  0  0
    4.1812    2.2742    3.0773 N   0  0  0  0  0  0  0  0  0  0  0  0
    5.6079    2.1246    3.2444 C   0  0  0  0  0  0  0  0  0  0  0  0
    3.7826    3.1988    3.2119 H   0  0  0  0  0  0  0  0  0  0  0  0
    5.8311    1.8798    4.2933 H   0  0  0  0  0  0  0  0  0  0  0  0
    5.9702    1.3148    2.5940 H   0  0  0  0  0  0  0  0  0  0  0  0
    6.1094    3.0651    2.9728 H   0  0  0  0  0  0  0  0  0  0  0  0
  1  3  1  0  0  0  0
  1  7  1  0  0  0  0
  1  2  2  0  0  0  0
 35 36  1  0  0  0  0
 36 44  1  0  0  0  0
 36 37  2  0  0  0  0
  8  9  1  0  0  0  0
  9 17  1  0  0  0  0
  9 10  2  0  0  0  0
 18 19  1  0  0  0  0
 19 34  1  0  0  0  0
 19 20  2  0  0  0  0
 35 38  1  0  0  0  0
  8 11  1  0  0  0  0
 44 45  1  0  0  0  0
 23 24  1  0  0  0  0
 21 22  1  0  0  0  0
 18 21  1  0  0  0  0
 22 23  1  0  0  0  0
 34 35  1  0  0  0  0
  7  8  1  0  0  0  0
 17 18  1  0  0  0  0
  3  4  1  0  0  0  0
  3  5  1  0  0  0  0
  3  6  1  0  0  0  0
 38 41  1  0  0  0  0
 38 42  1  0  0  0  0
 38 43  1  0  0  0  0
 11 14  1  0  0  0  0
 11 15  1  0  0  0  0
 11 16  1  0  0  0  0
 45 47  1  0  0  0  0
 45 48  1  0  0  0  0
 45 49  1  0  0  0  0
 24 31  1  0  0  0  0
 24 32  1  0  0  0  0
 24 33  1  0  0  0  0
 21 27  1  0  0  0  0
 21 28  1  0  0  0  0
 22 29  1  0  0  0  0
 22 30  1  0  0  0  0
 35 40  1  0  0  0  0
  8 13  1  0  0  0  0
 18 26  1  0  0  0  0
 44 46  1  0  0  0  0
  7 12  1  0  0  0  0
 34 39  1  0  0  0  0
 17 25  1  0  0  0  0
M  END
$$$$

  -OEChem-05262214473D

 49 48  0     1  0  0  0  0  0999 V2000
   -0.0561   -5.3799    2.6949 C   0  0  0  0  0  0  0  0  0  0  0  0
    0.7325   -5.0736    3.5815 O   0  0  0  0  0  0  0  0  0  0  0  0
   -1.0067   -6.5099    2.9135 C   0  0  0  0  0  0  0  0  0  0  0  0
   -0.5910   -7.4777    2.5899 H   0  0  0  0  0  0  0  0  0  0  0  0
   -1.2629   -6.6440    3.9767 H   0  0  0  0  0  0  0  0  0  0  0  0
   -1.9729   -6.4206    2.3918 H   0  0  0  0  0  0  0  0  0  0  0  0
   -0.1735   -4.7694    1.4571 N   0  0  0  0  0  0  0  0  0  0  0  0
    0.6439   -3.6603    1.0409 C   0  0  2  0  0  0  0  0  0  0  0  0
   -0.2788   -2.5625    0.5280 C   0  0  0  0  0  0  0  0  0  0  0  0
   -1.4197   -2.7791    0.1251 O   0  0  0  0  0  0  0  0  0  0  0  0
    1.6395   -4.0779   -0.0301 C   0  0  0  0  0  0  0  0  0  0  0  0
   -0.8741   -5.1235    0.8083 H   0  0  0  0  0  0  0  0  0  0  0  0
    1.1738   -3.3062    1.9318 H   0  0  0  0  0  0  0  0  0  0  0  0
    1.1270   -4.4358   -0.9305 H   0  0  0  0  0  0  0  0  0  0  0  0
    2.2797   -3.2400   -0.3251 H   0  0  0  0  0  0  0  0  0  0  0  0
    2.2827   -4.8880    0.3303 H   0  0  0  0  0  0  0  0  0  0  0  0
    0.3351   -1.3153    0.5316 N   0  0  0  0  0  0  0  0  0  0  0  0
   -0.3268   -0.1184    0.0807 C   0  0  2  0  0  0  0  0  0  0  0  0
    0.2326    1.0723    0.8533 C   0  0  0  0  0  0  0  0  0  0  0  0
   -0.3033    2.1787    0.8571 O   0  0  0  0  0  0  0  0  0  0  0  0
   -1.8544   -0.2288    0.1818 C   0  0  0  0  0  0  0  0  0  0  0  0
   -2.4582   -1.2740   -0.7593 C   0  0  0  0  0  0  0  0  0  0  0  0
   -2.1004   -0.8544   -2.4913 S   0  0  0  0  0  0  0  0  0  0  0  0
   -3.1450    0.6142   -2.6245 C   0  0  0  0  0  0  0  0  0  0  0  0
    1.2790   -1.2290    0.9021 H   0  0  0  0  0  0  0  0  0  0  0  0
   -0.0465   -0.0005   -0.9731 H   0  0  0  0  0  0  0  0  0  0  0  0
   -2.2876    0.7554   -0.0418 H   0  0  0  0  0  0  0  0  0  0  0  0
   -2.1279   -0.4700    1.2170 H   0  0  0  0  0  0  0  0  0  0  0  0
   -3.5450   -1.3242   -0.6440 H   0  0  0  0  0  0  0  0  0  0  0  0
   -2.0473   -2.2680   -0.5597 H   0  0  0  0  0  0  0  0  0  0  0  0
   -3.0690    1.0344   -3.6303 H   0  0  0  0  0  0  0  0  0  0  0  0
   -2.8231    1.3655   -1.8991 H   0  0  0  0  0  0  0  0  0  0  0  0
   -4.1861    0.3484   -2.4258 H   0  0  0  0  0  0  0  0  0  0  0  0
    1.4153    0.7634    1.5097 N   0  0  0  0  0  0  0  0  0  0  0  0
    2.1431    1.7304    2.2976 C   0  0  2  0  0  0  0  0  0  0  0  0
    3.6304    1.5130    2.0525 C   0  0  0  0  0  0  0  0  0  0  0  0
    4.0952    0.4490    1.6489 O   0  0  0  0  0  0  0  0  0  0  0  0
    1.8113    1.6017    3.7761 C   0  0  0  0  0  0  0  0  0  0  0  0
    1.7733   -0.1865    1.4752 H   0  0  0  0  0  0  0  0  0  0  0  0
    1.8527    2.7207    1.9301 H   0  0  0  0  0  0  0  0  0  0  0  0
    2.0951    0.6159    4.1622 H   0  0  0  0  0  0  0  0  0  0  0  0
    2.3421    2.3541    4.3688 H   0  0  0  0  0  0  0  0  0  0  0  0
    0.7368    1.7288    3.9470 H   0  0  0  0  0  0  0  0  0  0  0  0
    4.3822    2.6331    2.3786 N   0  0  0  0  0  0  0  0  0  0  0  0
    5.8199    2.6727    2.2460 C   0  0  0  0  0  0  0  0  0  0  0  0
    3.9113    3.4783    2.6880 H   0  0  0  0  0  0  0  0  0  0  0  0
    6.2847    2.3772    3.1982 H   0  0  0  0  0  0  0  0  0  0  0  0
    6.1342    1.9777    1.4534 H   0  0  0  0  0  0  0  0  0  0  0  0
    6.1359    3.6935    1.9851 H   0  0  0  0  0  0  0  0  0  0  0  0
  1  3  1  0  0  0  0
  1  7  1  0  0  0  0
  1  2  2  0  0  0  0
 35 36  1  0  0  0  0
 36 44  1  0  0  0  0
 36 37  2  0  0  0  0
  8  9  1  0  0  0  0
  9 17  1  0  0  0  0
  9 10  2  0  0  0  0
 18 19  1  0  0  0  0
 19 34  1  0  0  0  0
 19 20  2  0  0  0  0
 35 38  1  0  0  0  0
  8 11  1  0  0  0  0
 44 45  1  0  0  0  0
 23 24  1  0  0  0  0
 21 22  1  0  0  0  0
 18 21  1  0  0  0  0
 22 23  1  0  0  0  0
 34 35  1  0  0  0  0
  7  8  1  0  0  0  0
 17 18  1  0  0  0  0
  3  4  1  0  0  0  0
  3  5  1  0  0  0  0
  3  6  1  0  0  0  0
 38 41  1  0  0  0  0
 38 42  1  0  0  0  0
 38 43  1  0  0  0  0
 11 14  1  0  0  0  0
 11 15  1  0  0  0  0
 11 16  1  0  0  0  0
 45 47  1  0  0  0  0
 45 48  1  0  0  0  0
 45 49  1  0  0  0  0
 24 31  1  0  0  0  0
 24 32  1  0  0  0  0
 24 33  1  0  0  0  0
 21 27  1  0  0  0  0
 21 28  1  0  0  0  0
 22 29  1  0  0  0  0
 22 30  1  0  0  0  0
 35 40  1  0  0  0  0
  8 13  1  0  0  0  0
 18 26  1  0  0  0  0
 44 46  1  0  0  0  0
  7 12  1  0  0  0  0
 34 39  1  0  0  0  0
 17 25  1  0  0  0  0
M  END
$$$$

  -OEChem-05262214473D

 49 48  0     1  0  0  0  0  0999 V2000
   -0.0561   -5.3799    2.6949 C   0  0  0  0  0  0  0  0  0  0  0  0
    0.7325   -5.0736    3.5815 O   0  0  0  0  0  0  0  0  0  0  0  0
   -1.0067   -6.5099    2.9135 C   0  0  0  0  0  0  0  0  0  0  0  0
   -0.5910   -7.4777    2.5899 H   0  0  0  0  0  0  0  0  0  0  0  0
   -1.2629   -6.6440    3.9767 H   0  0  0  0  0  0  0  0  0  0  0  0
   -1.9729   -6.4206    2.3918 H   0  0  0  0  0  0  0  0  0  0  0  0
   -0.1735   -4.7694    1.4571 N   0  0  0  0  0  0  0  0  0  0  0  0
    0.6439   -3.6603    1.0409 C   0  0  2  0  0  0  0  0  0  0  0  0
   -0.2788   -2.5625    0.5280 C   0  0  0  0  0  0  0  0  0  0  0  0
   -1.4197   -2.7791    0.1251 O   0  0  0  0  0  0  0  0  0  0  0  0
    1.6395   -4.0779   -0.0301 C   0  0  0  0  0  0  0  0  0  0  0  0
   -0.8741   -5.1235    0.8083 H   0  0  0  0  0  0  0  0  0  0  0  0
    1.1738   -3.3062    1.9318 H   0  0  0  0  0  0  0  0  0  0  0  0
    1.1270   -4.4358   -0.9305 H   0  0  0  0  0  0  0  0  0  0  0  0
    2.2797   -3.2400   -0.3251 H   0  0  0  0  0  0  0  0  0  0  0  0
    2.2827   -4.8880    0.3303 H   0  0  0  0  0  0  0  0  0  0  0  0
    0.3351   -1.3153    0.5316 N   0  0  0  0  0  0  0  0  0  0  0  0
   -0.3268   -0.1184    0.0807 C   0  0  2  0  0  0  0  0  0  0  0  0
    0.2326    1.0723    0.8533 C   0  0  0  0  0  0  0  0  0  0  0  0
   -0.4209    2.0882    1.0817 O   0  0  0  0  0  0  0  0  0  0  0  0
   -1.8544   -0.2288    0.1818 C   0  0  0  0  0  0  0  0  0  0  0  0
   -2.4582   -1.2740   -0.7593 C   0  0  0  0  0  0  0  0  0  0  0  0
   -2.1004   -0.8544   -2.4913 S   0  0  0  0  0  0  0  0  0  0  0  0
   -3.1450    0.6142   -2.6245 C   0  0  0  0  0  0  0  0  0  0  0  0
    1.2790   -1.2290    0.9021 H   0  0  0  0  0  0  0  0  0  0  0  0
   -0.0465   -0.0005   -0.9731 H   0  0  0  0  0  0  0  0  0  0  0  0
   -2.2876    0.7554   -0.0418 H   0  0  0  0  0  0  0  0  0  0  0  0
   -2.1279   -0.4700    1.2170 H   0  0  0  0  0  0  0  0  0  0  0  0
   -3.5450   -1.3242   -0.6440 H   0  0  0  0  0  0  0  0  0  0  0  0
   -2.0473   -2.2680   -0.5597 H   0  0  0  0  0  0  0  0  0  0  0  0
   -3.0690    1.0344   -3.6303 H   0  0  0  0  0  0  0  0  0  0  0  0
   -2.8231    1.3655   -1.8991 H   0  0  0  0  0  0  0  0  0  0  0  0
   -4.1861    0.3484   -2.4258 H   0  0  0  0  0  0  0  0  0  0  0  0
    1.5546    0.8806    1.2282 N   0  0  0  0  0  0  0  0  0  0  0  0
    2.3078    1.8730    1.9585 C   0  0  2  0  0  0  0  0  0  0  0  0
    3.7266    1.8879    1.4050 C   0  0  0  0  0  0  0  0  0  0  0  0
    4.2227    0.9364    0.8054 O   0  0  0  0  0  0  0  0  0  0  0  0
    2.3094    1.5790    3.4505 C   0  0  0  0  0  0  0  0  0  0  0  0
    2.0101   -0.0034    1.0215 H   0  0  0  0  0  0  0  0  0  0  0  0
    1.8293    2.8392    1.7645 H   0  0  0  0  0  0  0  0  0  0  0  0
    2.7849    0.6148    3.6645 H   0  0  0  0  0  0  0  0  0  0  0  0
    2.8567    2.3478    4.0059 H   0  0  0  0  0  0  0  0  0  0  0  0
    1.2868    1.5391    3.8411 H   0  0  0  0  0  0  0  0  0  0  0  0
    4.3883    3.0724    1.6971 N   0  0  0  0  0  0  0  0  0  0  0  0
    5.7511    3.3247    1.2909 C   0  0  0  0  0  0  0  0  0  0  0  0
    3.8932    3.8148    2.1824 H   0  0  0  0  0  0  0  0  0  0  0  0
    6.4364    3.0211    2.0959 H   0  0  0  0  0  0  0  0  0  0  0  0
    5.9753    2.7478    0.3816 H   0  0  0  0  0  0  0  0  0  0  0  0
    5.8796    4.3977    1.0853 H   0  0  0  0  0  0  0  0  0  0  0  0
  1  3  1  0  0  0  0
  1  7  1  0  0  0  0
  1  2  2  0  0  0  0
 35 36  1  0  0  0  0
 36 44  1  0  0  0  0
 36 37  2  0  0  0  0
  8  9  1  0  0  0  0
  9 17  1  0  0  0  0
  9 10  2  0  0  0  0
 18 19  1  0  0  0  0
 19 34  1  0  0  0  0
 19 20  2  0  0  0  0
 35 38  1  0  0  0  0
  8 11  1  0  0  0  0
 44 45  1  0  0  0  0
 23 24  1  0  0  0  0
 21 22  1  0  0  0  0
 18 21  1  0  0  0  0
 22 23  1  0  0  0  0
 34 35  1  0  0  0  0
  7  8  1  0  0  0  0
 17 18  1  0  0  0  0
  3  4  1  0  0  0  0
  3  5  1  0  0  0  0
  3  6  1  0  0  0  0
 38 41  1  0  0  0  0
 38 42  1  0  0  0  0
 38 43  1  0  0  0  0
 11 14  1  0  0  0  0
 11 15  1  0  0  0  0
 11 16  1  0  0  0  0
 45 47  1  0  0  0  0
 45 48  1  0  0  0  0
 45 49  1  0  0  0  0
 24 31  1  0  0  0  0
 24 32  1  0  0  0  0
 24 33  1  0  0  0  0
 21 27  1  0  0  0  0
 21 28  1  0  0  0  0
 22 29  1  0  0  0  0
 22 30  1  0  0  0  0
 35 40  1  0  0  0  0
  8 13  1  0  0  0  0
 18 26  1  0  0  0  0
 44 46  1  0  0  0  0
  7 12  1  0  0  0  0
 34 39  1  0  0  0  0
 17 25  1  0  0  0  0
M  END
$$$$

  -OEChem-05262214473D

 49 48  0     1  0  0  0  0  0999 V2000
   -0.0561   -5.3799    2.6949 C   0  0  0  0  0  0  0  0  0  0  0  0
    0.7325   -5.0736    3.5815 O   0  0  0  0  0  0  0  0  0  0  0  0
   -1.0067   -6.5099    2.9135 C   0  0  0  0  0  0  0  0  0  0  0  0
   -0.5910   -7.4777    2.5899 H   0  0  0  0  0  0  0  0  0  0  0  0
   -1.2629   -6.6440    3.9767 H   0  0  0  0  0  0  0  0  0  0  0  0
   -1.9729   -6.4206    2.3918 H   0  0  0  0  0  0  0  0  0  0  0  0
   -0.1735   -4.7694    1.4571 N   0  0  0  0  0  0  0  0  0  0  0  0
    0.6439   -3.6603    1.0409 C   0  0  2  0  0  0  0  0  0  0  0  0
   -0.2788   -2.5625    0.5280 C   0  0  0  0  0  0  0  0  0  0  0  0
   -1.4197   -2.7791    0.1251 O   0  0  0  0  0  0  0  0  0  0  0  0
    1.6395   -4.0779   -0.0301 C   0  0  0  0  0  0  0  0  0  0  0  0
   -0.8741   -5.1235    0.8083 H   0  0  0  0  0  0  0  0  0  0  0  0
    1.1738   -3.3062    1.9318 H   0  0  0  0  0  0  0  0  0  0  0  0
    1.1270   -4.4358   -0.9305 H   0  0  0  0  0  0  0  0  0  0  0  0
    2.2797   -3.2400   -0.3251 H   0  0  0  0  0  0  0  0  0  0  0  0
    2.2827   -4.8880    0.3303 H   0  0  0  0  0  0  0  0  0  0  0  0
    0.3351   -1.3153    0.5316 N   0  0  0  0  0  0  0  0  0  0  0  0
   -0.3268   -0.1184    0.0807 C   0  0  2  0  0  0  0  0  0  0  0  0
    0.2326    1.0723    0.8533 C   0  0  0  0  0  0  0  0  0  0  0  0
   -0.4773    1.9640    1.3139 O   0  0  0  0  0  0  0  0  0  0  0  0
   -1.8544   -0.2288    0.1818 C   0  0  0  0  0  0  0  0  0  0  0  0
   -2.4582   -1.2740   -0.7593 C   0  0  0  0  0  0  0  0  0  0  0  0
   -2.1004   -0.8544   -2.4913 S   0  0  0  0  0  0  0  0  0  0  0  0
   -3.1450    0.6142   -2.6245 C   0  0  0  0  0  0  0  0  0  0  0  0
    1.2790   -1.2290    0.9021 H   0  0  0  0  0  0  0  0  0  0  0  0
   -0.0465   -0.0005   -0.9731 H   0  0  0  0  0  0  0  0  0  0  0  0
   -2.2876    0.7554   -0.0418 H   0  0  0  0  0  0  0  0  0  0  0  0
   -2.1279   -0.4700    1.2170 H   0  0  0  0  0  0  0  0  0  0  0  0
   -3.5450   -1.3242   -0.6440 H   0  0  0  0  0  0  0  0  0  0  0  0
   -2.0473   -2.2680   -0.5597 H   0  0  0  0  0  0  0  0  0  0  0  0
   -3.0690    1.0344   -3.6303 H   0  0  0  0  0  0  0  0  0  0  0  0
   -2.8231    1.3655   -1.8991 H   0  0  0  0  0  0  0  0  0  0  0  0
   -4.1861    0.3484   -2.4258 H   0  0  0  0  0  0  0  0  0  0  0  0
    1.6170    1.0388    0.9392 N   0  0  0  0  0  0  0  0  0  0  0  0
    2.3797    2.0646    1.6112 C   0  0  2  0  0  0  0  0  0  0  0  0
    3.6395    2.3241    0.7957 C   0  0  0  0  0  0  0  0  0  0  0  0
    4.1115    1.5040    0.0111 O   0  0  0  0  0  0  0  0  0  0  0  0
    2.7278    1.6532    3.0332 C   0  0  0  0  0  0  0  0  0  0  0  0
    2.1232    0.2475    0.5529 H   0  0  0  0  0  0  0  0  0  0  0  0
    1.7577    2.9663    1.6204 H   0  0  0  0  0  0  0  0  0  0  0  0
    3.3508    0.7514    3.0442 H   0  0  0  0  0  0  0  0  0  0  0  0
    3.2814    2.4436    3.5507 H   0  0  0  0  0  0  0  0  0  0  0  0
    1.8216    1.4381    3.6097 H   0  0  0  0  0  0  0  0  0  0  0  0
    4.1989    3.5622    1.0793 N   0  0  0  0  0  0  0  0  0  0  0  0
    5.4063    4.0362    0.4440 C   0  0  0  0  0  0  0  0  0  0  0  0
    3.7294    4.1855    1.7296 H   0  0  0  0  0  0  0  0  0  0  0  0
    6.2759    3.7675    1.0617 H   0  0  0  0  0  0  0  0  0  0  0  0
    5.5045    3.5725   -0.5486 H   0  0  0  0  0  0  0  0  0  0  0  0
    5.3580    5.1297    0.3348 H   0  0  0  0  0  0  0  0  0  0  0  0
  1  3  1  0  0  0  0
  1  7  1  0  0  0  0
  1  2  2  0  0  0  0
 35 36  1  0  0  0  0
 36 44  1  0  0  0  0
 36 37  2  0  0  0  0
  8  9  1  0  0  0  0
  9 17  1  0  0  0  0
  9 10  2  0  0  0  0
 18 19  1  0  0  0  0
 19 34  1  0  0  0  0
 19 20  2  0  0  0  0
 35 38  1  0  0  0  0
  8 11  1  0  0  0  0
 44 45  1  0  0  0  0
 23 24  1  0  0  0  0
 21 22  1  0  0  0  0
 18 21  1  0  0  0  0
 22 23  1  0  0  0  0
 34 35  1  0  0  0  0
  7  8  1  0  0  0  0
 17 18  1  0  0  0  0
  3  4  1  0  0  0  0
  3  5  1  0  0  0  0
  3  6  1  0  0  0  0
 38 41  1  0  0  0  0
 38 42  1  0  0  0  0
 38 43  1  0  0  0  0
 11 14  1  0  0  0  0
 11 15  1  0  0  0  0
 11 16  1  0  0  0  0
 45 47  1  0  0  0  0
 45 48  1  0  0  0  0
 45 49  1  0  0  0  0
 24 31  1  0  0  0  0
 24 32  1  0  0  0  0
 24 33  1  0  0  0  0
 21 27  1  0  0  0  0
 21 28  1  0  0  0  0
 22 29  1  0  0  0  0
 22 30  1  0  0  0  0
 35 40  1  0  0  0  0
  8 13  1  0  0  0  0
 18 26  1  0  0  0  0
 44 46  1  0  0  0  0
  7 12  1  0  0  0  0
 34 39  1  0  0  0  0
 17 25  1  0  0  0  0
M  END
$$$$

  -OEChem-05262214473D

 49 48  0     1  0  0  0  0  0999 V2000
   -0.0561   -5.3799    2.6949 C   0  0  0  0  0  0  0  0  0  0  0  0
    0.7325   -5.0736    3.5815 O   0  0  0  0  0  0  0  0  0  0  0  0
   -1.0067   -6.5099    2.9135 C   0  0  0  0  0  0  0  0  0  0  0  0
   -0.5910   -7.4777    2.5899 H   0  0  0  0  0  0  0  0  0  0  0  0
   -1.2629   -6.6440    3.9767 H   0  0  0  0  0  0  0  0  0  0  0  0
   -1.9729   -6.4206    2.3918 H   0  0  0  0  0  0  0  0  0  0  0  0
   -0.1735   -4.7694    1.4571 N   0  0  0  0  0  0  0  0  0  0  0  0
    0.6439   -3.6603    1.0409 C   0  0  2  0  0  0  0  0  0  0  0  0
   -0.2788   -2.5625    0.5280 C   0  0  0  0  0  0  0  0  0  0  0  0
   -1.4197   -2.7791    0.1251 O   0  0  0  0  0  0  0  0  0  0  0  0
    1.6395   -4.0779   -0.0301 C   0  0  0  0  0  0  0  0  0  0  0  0
   -0.8741   -5.1235    0.8083 H   0  0  0  0  0  0  0  0  0  0  0  0
    1.1738   -3.3062    1.9318 H   0  0  0  0  0  0  0  0  0  0  0  0
    1.1270   -4.4358   -0.9305 H   0  0  0  0  0  0  0  0  0  0  0  0
    2.2797   -3.2400   -0.3251 H   0  0  0  0  0  0  0  0  0  0  0  0
    2.2827   -4.8880    0.3303 H   0  0  0  0  0  0  0  0  0  0  0  0
    0.3351   -1.3153    0.5316 N   0  0  0  0  0  0  0  0  0  0  0  0
   -0.3268   -0.1184    0.0807 C   0  0  2  0  0  0  0  0  0  0  0  0
    0.2326    1.0723    0.8533 C   0  0  0  0  0  0  0  0  0  0  0  0
   -0.4685    1.8147    1.5378 O   0  0  0  0  0  0  0  0  0  0  0  0
   -1.8544   -0.2288    0.1818 C   0  0  0  0  0  0  0  0  0  0  0  0
   -2.4582   -1.2740   -0.7593 C   0  0  0  0  0  0  0  0  0  0  0  0
   -2.1004   -0.8544   -2.4913 S   0  0  0  0  0  0  0  0  0  0  0  0
   -3.1450    0.6142   -2.6245 C   0  0  0  0  0  0  0  0  0  0  0  0
    1.2790   -1.2290    0.9021 H   0  0  0  0  0  0  0  0  0  0  0  0
   -0.0465   -0.0005   -0.9731 H   0  0  0  0  0  0  0  0  0  0  0  0
   -2.2876    0.7554   -0.0418 H   0  0  0  0  0  0  0  0  0  0  0  0
   -2.1279   -0.4700    1.2170 H   0  0  0  0  0  0  0  0  0  0  0  0
   -3.5450   -1.3242   -0.6440 H   0  0  0  0  0  0  0  0  0  0  0  0
   -2.0473   -2.2680   -0.5597 H   0  0  0  0  0  0  0  0  0  0  0  0
   -3.0690    1.0344   -3.6303 H   0  0  0  0  0  0  0  0  0  0  0  0
   -2.8231    1.3655   -1.8991 H   0  0  0  0  0  0  0  0  0  0  0  0
   -4.1861    0.3484   -2.4258 H   0  0  0  0  0  0  0  0  0  0  0  0
    1.5981    1.2272    0.6625 N   0  0  0  0  0  0  0  0  0  0  0  0
    2.3539    2.2920    1.2794 C   0  0  2  0  0  0  0  0  0  0  0  0
    3.3752    2.7919    0.2662 C   0  0  0  0  0  0  0  0  0  0  0  0
    3.7693    2.1130   -0.6798 O   0  0  0  0  0  0  0  0  0  0  0  0
    3.0379    1.8192    2.5527 C   0  0  0  0  0  0  0  0  0  0  0  0
    2.1049    0.5492    0.1012 H   0  0  0  0  0  0  0  0  0  0  0  0
    1.6428    3.0933    1.5078 H   0  0  0  0  0  0  0  0  0  0  0  0
    3.7542    1.0163    2.3438 H   0  0  0  0  0  0  0  0  0  0  0  0
    3.5871    2.6350    3.0344 H   0  0  0  0  0  0  0  0  0  0  0  0
    2.3046    1.4325    3.2685 H   0  0  0  0  0  0  0  0  0  0  0  0
    3.8269    4.0692    0.5673 N   0  0  0  0  0  0  0  0  0  0  0  0
    4.8089    4.7585   -0.2368 C   0  0  0  0  0  0  0  0  0  0  0  0
    3.4312    4.5651    1.3605 H   0  0  0  0  0  0  0  0  0  0  0  0
    5.8142    4.5656    0.1660 H   0  0  0  0  0  0  0  0  0  0  0  0
    4.7536    4.3957   -1.2737 H   0  0  0  0  0  0  0  0  0  0  0  0
    4.6067    5.8396   -0.2153 H   0  0  0  0  0  0  0  0  0  0  0  0
  1  3  1  0  0  0  0
  1  7  1  0  0  0  0
  1  2  2  0  0  0  0
 35 36  1  0  0  0  0
 36 44  1  0  0  0  0
 36 37  2  0  0  0  0
  8  9  1  0  0  0  0
  9 17  1  0  0  0  0
  9 10  2  0  0  0  0
 18 19  1  0  0  0  0
 19 34  1  0  0  0  0
 19 20  2  0  0  0  0
 35 38  1  0  0  0  0
  8 11  1  0  0  0  0
 44 45  1  0  0  0  0
 23 24  1  0  0  0  0
 21 22  1  0  0  0  0
 18 21  1  0  0  0  0
 22 23  1  0  0  0  0
 34 35  1  0  0  0  0
  7  8  1  0  0  0  0
 17 18  1  0  0  0  0
  3  4  1  0  0  0  0
  3  5  1  0  0  0  0
  3  6  1  0  0  0  0
 38 41  1  0  0  0  0
 38 42  1  0  0  0  0
 38 43  1  0  0  0  0
 11 14  1  0  0  0  0
 11 15  1  0  0  0  0
 11 16  1  0  0  0  0
 45 47  1  0  0  0  0
 45 48  1  0  0  0  0
 45 49  1  0  0  0  0
 24 31  1  0  0  0  0
 24 32  1  0  0  0  0
 24 33  1  0  0  0  0
 21 27  1  0  0  0  0
 21 28  1  0  0  0  0
 22 29  1  0  0  0  0
 22 30  1  0  0  0  0
 35 40  1  0  0  0  0
  8 13  1  0  0  0  0
 18 26  1  0  0  0  0
 44 46  1  0  0  0  0
  7 12  1  0  0  0  0
 34 39  1  0  0  0  0
 17 25  1  0  0  0  0
M  END
$$$$

  -OEChem-05262214473D

 49 48  0     1  0  0  0  0  0999 V2000
   -0.0561   -5.3799    2.6949 C   0  0  0  0  0  0  0  0  0  0  0  0
    0.7325   -5.0736    3.5815 O   0  0  0  0  0  0  0  0  0  0  0  0
   -1.0067   -6.5099    2.9135 C   0  0  0  0  0  0  0  0  0  0  0  0
   -0.5910   -7.4777    2.5899 H   0  0  0  0  0  0  0  0  0  0  0  0
   -1.2629   -6.6440    3.9767 H   0  0  0  0  0  0  0  0  0  0  0  0
   -1.9729   -6.4206    2.3918 H   0  0  0  0  0  0  0  0  0  0  0  0
   -0.1735   -4.7694    1.4571 N   0  0  0  0  0  0  0  0  0  0  0  0
    0.6439   -3.6603    1.0409 C   0  0  2  0  0  0  0  0  0  0  0  0
   -0.2788   -2.5625    0.5280 C   0  0  0  0  0  0  0  0  0  0  0  0
   -1.4197   -2.7791    0.1251 O   0  0  0  0  0  0  0  0  0  0  0  0
    1.6395   -4.0779   -0.0301 C   0  0  0  0  0  0  0  0  0  0  0  0
   -0.8741   -5.1235    0.8083 H   0  0  0  0  0  0  0  0  0  0  0  0
    1.1738   -3.3062    1.9318 H   0  0  0  0  0  0  0  0  0  0  0  0
    1.1270   -4.4358   -0.9305 H   0  0  0  0  0  0  0  0  0  0  0  0
    2.2797   -3.2400   -0.3251 H   0  0  0  0  0  0  0  0  0  0  0  0
    2.2827   -4.8880    0.3303 H   0  0  0  0  0  0  0  0  0  0  0  0
    0.3351   -1.3153    0.5316 N   0  0  0  0  0  0  0  0  0  0  0  0
   -0.3268   -0.1184    0.0807 C   0  0  2  0  0  0  0  0  0  0  0  0
    0.2326    1.0723    0.8533 C   0  0  0  0  0  0  0  0  0  0  0  0
   -0.3953    1.6503    1.7381 O   0  0  0  0  0  0  0  0  0  0  0  0
   -1.8544   -0.2288    0.1818 C   0  0  0  0  0  0  0  0  0  0  0  0
   -2.4582   -1.2740   -0.7593 C   0  0  0  0  0  0  0  0  0  0  0  0
   -2.1004   -0.8544   -2.4913 S   0  0  0  0  0  0  0  0  0  0  0  0
   -3.1450    0.6142   -2.6245 C   0  0  0  0  0  0  0  0  0  0  0  0
    1.2790   -1.2290    0.9021 H   0  0  0  0  0  0  0  0  0  0  0  0
   -0.0465   -0.0005   -0.9731 H   0  0  0  0  0  0  0  0  0  0  0  0
   -2.2876    0.7554   -0.0418 H   0  0  0  0  0  0  0  0  0  0  0  0
   -2.1279   -0.4700    1.2170 H   0  0  0  0  0  0  0  0  0  0  0  0
   -3.5450   -1.3242   -0.6440 H   0  0  0  0  0  0  0  0  0  0  0  0
   -2.0473   -2.2680   -0.5597 H   0  0  0  0  0  0  0  0  0  0  0  0
   -3.0690    1.0344   -3.6303 H   0  0  0  0  0  0  0  0  0  0  0  0
   -2.8231    1.3655   -1.8991 H   0  0  0  0  0  0  0  0  0  0  0  0
   -4.1861    0.3484   -2.4258 H   0  0  0  0  0  0  0  0  0  0  0  0
    1.4993    1.4330    0.4169 N   0  0  0  0  0  0  0  0  0  0  0  0
    2.2321    2.5397    0.9857 C   0  0  2  0  0  0  0  0  0  0  0  0
    2.9516    3.2593   -0.1475 C   0  0  0  0  0  0  0  0  0  0  0  0
    3.2194    2.7220   -1.2202 O   0  0  0  0  0  0  0  0  0  0  0  0
    3.2186    2.0659    2.0416 C   0  0  0  0  0  0  0  0  0  0  0  0
    1.9565    0.8810   -0.3028 H   0  0  0  0  0  0  0  0  0  0  0  0
    1.4924    3.2117    1.4343 H   0  0  0  0  0  0  0  0  0  0  0  0
    3.9677    1.3915    1.6108 H   0  0  0  0  0  0  0  0  0  0  0  0
    3.7530    2.9089    2.4921 H   0  0  0  0  0  0  0  0  0  0  0  0
    2.7029    1.5227    2.8409 H   0  0  0  0  0  0  0  0  0  0  0  0
    3.2978    4.5587    0.1960 N   0  0  0  0  0  0  0  0  0  0  0  0
    3.9997    5.4426   -0.7052 C   0  0  0  0  0  0  0  0  0  0  0  0
    3.0188    4.9277    1.1003 H   0  0  0  0  0  0  0  0  0  0  0  0
    5.0826    5.3610   -0.5302 H   0  0  0  0  0  0  0  0  0  0  0  0
    3.7740    5.1613   -1.7444 H   0  0  0  0  0  0  0  0  0  0  0  0
    3.6768    6.4790   -0.5275 H   0  0  0  0  0  0  0  0  0  0  0  0
  1  3  1  0  0  0  0
  1  7  1  0  0  0  0
  1  2  2  0  0  0  0
 35 36  1  0  0  0  0
 36 44  1  0  0  0  0
 36 37  2  0  0  0  0
  8  9  1  0  0  0  0
  9 17  1  0  0  0  0
  9 10  2  0  0  0  0
 18 19  1  0  0  0  0
 19 34  1  0  0  0  0
 19 20  2  0  0  0  0
 35 38  1  0  0  0  0
  8 11  1  0  0  0  0
 44 45  1  0  0  0  0
 23 24  1  0  0  0  0
 21 22  1  0  0  0  0
 18 21  1  0  0  0  0
 22 23  1  0  0  0  0
 34 35  1  0  0  0  0
  7  8  1  0  0  0  0
 17 18  1  0  0  0  0
  3  4  1  0  0  0  0
  3  5  1  0  0  0  0
  3  6  1  0  0  0  0
 38 41  1  0  0  0  0
 38 42  1  0  0  0  0
 38 43  1  0  0  0  0
 11 14  1  0  0  0  0
 11 15  1  0  0  0  0
 11 16  1  0  0  0  0
 45 47  1  0  0  0  0
 45 48  1  0  0  0  0
 45 49  1  0  0  0  0
 24 31  1  0  0  0  0
 24 32  1  0  0  0  0
 24 33  1  0  0  0  0
 21 27  1  0  0  0  0
 21 28  1  0  0  0  0
 22 29  1  0  0  0  0
 22 30  1  0  0  0  0
 35 40  1  0  0  0  0
  8 13  1  0  0  0  0
 18 26  1  0  0  0  0
 44 46  1  0  0  0  0
  7 12  1  0  0  0  0
 34 39  1  0  0  0  0
 17 25  1  0  0  0  0
M  END
$$$$

  -OEChem-05262214473D

 49 48  0     1  0  0  0  0  0999 V2000
   -0.0561   -5.3799    2.6949 C   0  0  0  0  0  0  0  0  0  0  0  0
    0.7325   -5.0736    3.5815 O   0  0  0  0  0  0  0  0  0  0  0  0
   -1.0067   -6.5099    2.9135 C   0  0  0  0  0  0  0  0  0  0  0  0
   -0.5910   -7.4777    2.5899 H   0  0  0  0  0  0  0  0  0  0  0  0
   -1.2629   -6.6440    3.9767 H   0  0  0  0  0  0  0  0  0  0  0  0
   -1.9729   -6.4206    2.3918 H   0  0  0  0  0  0  0  0  0  0  0  0
   -0.1735   -4.7694    1.4571 N   0  0  0  0  0  0  0  0  0  0  0  0
    0.6439   -3.6603    1.0409 C   0  0  2  0  0  0  0  0  0  0  0  0
   -0.2788   -2.5625    0.5280 C   0  0  0  0  0  0  0  0  0  0  0  0
   -1.4197   -2.7791    0.1251 O   0  0  0  0  0  0  0  0  0  0  0  0
    1.6395   -4.0779   -0.0301 C   0  0  0  0  0  0  0  0  0  0  0  0
   -0.8741   -5.1235    0.8083 H   0  0  0  0  0  0  0  0  0  0  0  0
    1.1738   -3.3062    1.9318 H   0  0  0  0  0  0  0  0  0  0  0  0
    1.1270   -4.4358   -0.9305 H   0  0  0  0  0  0  0  0  0  0  0  0
    2.2797   -3.2400   -0.3251 H   0  0  0  0  0  0  0  0  0  0  0  0
    2.2827   -4.8880    0.3303 H   0  0  0  0  0  0  0  0  0  0  0  0
    0.3351   -1.3153    0.5316 N   0  0  0  0  0  0  0  0  0  0  0  0
   -0.3268   -0.1184    0.0807 C   0  0  2  0  0  0  0  0  0  0  0  0
    0.2326    1.0723    0.8533 C   0  0  0  0  0  0  0  0  0  0  0  0
   -0.2626    1.4822    1.9011 O   0  0  0  0  0  0  0  0  0  0  0  0
   -1.8544   -0.2288    0.1818 C   0  0  0  0  0  0  0  0  0  0  0  0
   -2.4582   -1.2740   -0.7593 C   0  0  0  0  0  0  0  0  0  0  0  0
   -2.1004   -0.8544   -2.4913 S   0  0  0  0  0  0  0  0  0  0  0  0
   -3.1450    0.6142   -2.6245 C   0  0  0  0  0  0  0  0  0  0  0  0
    1.2790   -1.2290    0.9021 H   0  0  0  0  0  0  0  0  0  0  0  0
   -0.0465   -0.0005   -0.9731 H   0  0  0  0  0  0  0  0  0  0  0  0
   -2.2876    0.7554   -0.0418 H   0  0  0  0  0  0  0  0  0  0  0  0
   -2.1279   -0.4700    1.2170 H   0  0  0  0  0  0  0  0  0  0  0  0
   -3.5450   -1.3242   -0.6440 H   0  0  0  0  0  0  0  0  0  0  0  0
   -2.0473   -2.2680   -0.5597 H   0  0  0  0  0  0  0  0  0  0  0  0
   -3.0690    1.0344   -3.6303 H   0  0  0  0  0  0  0  0  0  0  0  0
   -2.8231    1.3655   -1.8991 H   0  0  0  0  0  0  0  0  0  0  0  0
   -4.1861    0.3484   -2.4258 H   0  0  0  0  0  0  0  0  0  0  0  0
    1.3273    1.6421    0.2192 N   0  0  0  0  0  0  0  0  0  0  0  0
    2.0227    2.7910    0.7501 C   0  0  2  0  0  0  0  0  0  0  0  0
    2.3976    3.6945   -0.4172 C   0  0  0  0  0  0  0  0  0  0  0  0
    2.4992    3.2895   -1.5733 O   0  0  0  0  0  0  0  0  0  0  0  0
    3.2576    2.3764    1.5349 C   0  0  0  0  0  0  0  0  0  0  0  0
    1.6880    1.2205   -0.6316 H   0  0  0  0  0  0  0  0  0  0  0  0
    1.3167    3.3133    1.4049 H   0  0  0  0  0  0  0  0  0  0  0  0
    3.9766    1.8515    0.8954 H   0  0  0  0  0  0  0  0  0  0  0  0
    3.7678    3.2467    1.9607 H   0  0  0  0  0  0  0  0  0  0  0  0
    2.9895    1.7027    2.3560 H   0  0  0  0  0  0  0  0  0  0  0  0
    2.6475    4.9974   -0.0094 N   0  0  0  0  0  0  0  0  0  0  0  0
    3.0338    6.0418   -0.9292 C   0  0  0  0  0  0  0  0  0  0  0  0
    2.5204    5.2485    0.9666 H   0  0  0  0  0  0  0  0  0  0  0  0
    4.1311    6.0995   -0.9795 H   0  0  0  0  0  0  0  0  0  0  0  0
    2.6324    5.8170   -1.9284 H   0  0  0  0  0  0  0  0  0  0  0  0
    2.6317    7.0044   -0.5805 H   0  0  0  0  0  0  0  0  0  0  0  0
  1  3  1  0  0  0  0
  1  7  1  0  0  0  0
  1  2  2  0  0  0  0
 35 36  1  0  0  0  0
 36 44  1  0  0  0  0
 36 37  2  0  0  0  0
  8  9  1  0  0  0  0
  9 17  1  0  0  0  0
  9 10  2  0  0  0  0
 18 19  1  0  0  0  0
 19 34  1  0  0  0  0
 19 20  2  0  0  0  0
 35 38  1  0  0  0  0
  8 11  1  0  0  0  0
 44 45  1  0  0  0  0
 23 24  1  0  0  0  0
 21 22  1  0  0  0  0
 18 21  1  0  0  0  0
 22 23  1  0  0  0  0
 34 35  1  0  0  0  0
  7  8  1  0  0  0  0
 17 18  1  0  0  0  0
  3  4  1  0  0  0  0
  3  5  1  0  0  0  0
  3  6  1  0  0  0  0
 38 41  1  0  0  0  0
 38 42  1  0  0  0  0
 38 43  1  0  0  0  0
 11 14  1  0  0  0  0
 11 15  1  0  0  0  0
 11 16  1  0  0  0  0
 45 47  1  0  0  0  0
 45 48  1  0  0  0  0
 45 49  1  0  0  0  0
 24 31  1  0  0  0  0
 24 32  1  0  0  0  0
 24 33  1  0  0  0  0
 21 27  1  0  0  0  0
 21 28  1  0  0  0  0
 22 29  1  0  0  0  0
 22 30  1  0  0  0  0
 35 40  1  0  0  0  0
  8 13  1  0  0  0  0
 18 26  1  0  0  0  0
 44 46  1  0  0  0  0
  7 12  1  0  0  0  0
 34 39  1  0  0  0  0
 17 25  1  0  0  0  0
M  END
$$$$

  -OEChem-05262214473D

 49 48  0     1  0  0  0  0  0999 V2000
   -0.0561   -5.3799    2.6949 C   0  0  0  0  0  0  0  0  0  0  0  0
    0.7325   -5.0736    3.5815 O   0  0  0  0  0  0  0  0  0  0  0  0
   -1.0067   -6.5099    2.9135 C   0  0  0  0  0  0  0  0  0  0  0  0
   -0.5910   -7.4777    2.5899 H   0  0  0  0  0  0  0  0  0  0  0  0
   -1.2629   -6.6440    3.9767 H   0  0  0  0  0  0  0  0  0  0  0  0
   -1.9729   -6.4206    2.3918 H   0  0  0  0  0  0  0  0  0  0  0  0
   -0.1735   -4.7694    1.4571 N   0  0  0  0  0  0  0  0  0  0  0  0
    0.6439   -3.6603    1.0409 C   0  0  2  0  0  0  0  0  0  0  0  0
   -0.2788   -2.5625    0.5280 C   0  0  0  0  0  0  0  0  0  0  0  0
   -1.4197   -2.7791    0.1251 O   0  0  0  0  0  0  0  0  0  0  0  0
    1.6395   -4.0779   -0.0301 C   0  0  0  0  0  0  0  0  0  0  0  0
   -0.8741   -5.1235    0.8083 H   0  0  0  0  0  0  0  0  0  0  0  0
    1.1738   -3.3062    1.9318 H   0  0  0  0  0  0  0  0  0  0  0  0
    1.1270   -4.4358   -0.9305 H   0  0  0  0  0  0  0  0  0  0  0  0
    2.2797   -3.2400   -0.3251 H   0  0  0  0  0  0  0  0  0  0  0  0
    2.2827   -4.8880    0.3303 H   0  0  0  0  0  0  0  0  0  0  0  0
    0.3351   -1.3153    0.5316 N   0  0  0  0  0  0  0  0  0  0  0  0
   -0.3268   -0.1184    0.0807 C   0  0  2  0  0  0  0  0  0  0  0  0
    0.2326    1.0723    0.8533 C   0  0  0  0  0  0  0  0  0  0  0  0
   -0.0794    1.3217    2.0159 O   0  0  0  0  0  0  0  0  0  0  0  0
   -1.8544   -0.2288    0.1818 C   0  0  0  0  0  0  0  0  0  0  0  0
   -2.4582   -1.2740   -0.7593 C   0  0  0  0  0  0  0  0  0  0  0  0
   -2.1004   -0.8544   -2.4913 S   0  0  0  0  0  0  0  0  0  0  0  0
   -3.1450    0.6142   -2.6245 C   0  0  0  0  0  0  0  0  0  0  0  0
    1.2790   -1.2290    0.9021 H   0  0  0  0  0  0  0  0  0  0  0  0
   -0.0465   -0.0005   -0.9731 H   0  0  0  0  0  0  0  0  0  0  0  0
   -2.2876    0.7554   -0.0418 H   0  0  0  0  0  0  0  0  0  0  0  0
   -2.1279   -0.4700    1.2170 H   0  0  0  0  0  0  0  0  0  0  0  0
   -3.5450   -1.3242   -0.6440 H   0  0  0  0  0  0  0  0  0  0  0  0
   -2.0473   -2.2680   -0.5597 H   0  0  0  0  0  0  0  0  0  0  0  0
   -3.0690    1.0344   -3.6303 H   0  0  0  0  0  0  0  0  0  0  0  0
   -2.8231    1.3655   -1.8991 H   0  0  0  0  0  0  0  0  0  0  0  0
   -4.1861    0.3484   -2.4258 H   0  0  0  0  0  0  0  0  0  0  0  0
    1.0938    1.8403    0.0828 N   0  0  0  0  0  0  0  0  0  0  0  0
    1.7400    3.0286    0.5886 C   0  0  2  0  0  0  0  0  0  0  0  0
    1.7510    4.0679   -0.5245 C   0  0  0  0  0  0  0  0  0  0  0  0
    1.6579    3.7767   -1.7151 O   0  0  0  0  0  0  0  0  0  0  0  0
    3.1522    2.7295    1.0671 C   0  0  0  0  0  0  0  0  0  0  0  0
    1.3177    1.5444   -0.8627 H   0  0  0  0  0  0  0  0  0  0  0  0
    1.1278    3.3912    1.4216 H   0  0  0  0  0  0  0  0  0  0  0  0
    3.7804    2.3649    0.2461 H   0  0  0  0  0  0  0  0  0  0  0  0
    3.6305    3.6253    1.4766 H   0  0  0  0  0  0  0  0  0  0  0  0
    3.1448    1.9602    1.8468 H   0  0  0  0  0  0  0  0  0  0  0  0
    1.9205    5.3554   -0.0347 N   0  0  0  0  0  0  0  0  0  0  0  0
    1.9770    6.5152   -0.8936 C   0  0  0  0  0  0  0  0  0  0  0  0
    1.9700    5.5058    0.9686 H   0  0  0  0  0  0  0  0  0  0  0  0
    3.0245    6.7307   -1.1511 H   0  0  0  0  0  0  0  0  0  0  0  0
    1.4065    6.3183   -1.8133 H   0  0  0  0  0  0  0  0  0  0  0  0
    1.5426    7.3800   -0.3708 H   0  0  0  0  0  0  0  0  0  0  0  0
  1  3  1  0  0  0  0
  1  7  1  0  0  0  0
  1  2  2  0  0  0  0
 35 36  1  0  0  0  0
 36 44  1  0  0  0  0
 36 37  2  0  0  0  0
  8  9  1  0  0  0  0
  9 17  1  0  0  0  0
  9 10  2  0  0  0  0
 18 19  1  0  0  0  0
 19 34  1  0  0  0  0
 19 20  2  0  0  0  0
 35 38  1  0  0  0  0
  8 11  1  0  0  0  0
 44 45  1  0  0  0  0
 23 24  1  0  0  0  0
 21 22  1  0  0  0  0
 18 21  1  0  0  0  0
 22 23  1  0  0  0  0
 34 35  1  0  0  0  0
  7  8  1  0  0  0  0
 17 18  1  0  0  0  0
  3  4  1  0  0  0  0
  3  5  1  0  0  0  0
  3  6  1  0  0  0  0
 38 41  1  0  0  0  0
 38 42  1  0  0  0  0
 38 43  1  0  0  0  0
 11 14  1  0  0  0  0
 11 15  1  0  0  0  0
 11 16  1  0  0  0  0
 45 47  1  0  0  0  0
 45 48  1  0  0  0  0
 45 49  1  0  0  0  0
 24 31  1  0  0  0  0
 24 32  1  0  0  0  0
 24 33  1  0  0  0  0
 21 27  1  0  0  0  0
 21 28  1  0  0  0  0
 22 29  1  0  0  0  0
 22 30  1  0  0  0  0
 35 40  1  0  0  0  0
  8 13  1  0  0  0  0
 18 26  1  0  0  0  0
 44 46  1  0  0  0  0
  7 12  1  0  0  0  0
 34 39  1  0  0  0  0
 17 25  1  0  0  0  0
M  END
$$$$

  -OEChem-05262214473D

 49 48  0     1  0  0  0  0  0999 V2000
   -0.0561   -5.3799    2.6949 C   0  0  0  0  0  0  0  0  0  0  0  0
    0.7325   -5.0736    3.5815 O   0  0  0  0  0  0  0  0  0  0  0  0
   -1.0067   -6.5099    2.9135 C   0  0  0  0  0  0  0  0  0  0  0  0
   -0.5910   -7.4777    2.5899 H   0  0  0  0  0  0  0  0  0  0  0  0
   -1.2629   -6.6440    3.9767 H   0  0  0  0  0  0  0  0  0  0  0  0
   -1.9729   -6.4206    2.3918 H   0  0  0  0  0  0  0  0  0  0  0  0
   -0.1735   -4.7694    1.4571 N   0  0  0  0  0  0  0  0  0  0  0  0
    0.6439   -3.6603    1.0409 C   0  0  2  0  0  0  0  0  0  0  0  0
   -0.2788   -2.5625    0.5280 C   0  0  0  0  0  0  0  0  0  0  0  0
   -1.4197   -2.7791    0.1251 O   0  0  0  0  0  0  0  0  0  0  0  0
    1.6395   -4.0779   -0.0301 C   0  0  0  0  0  0  0  0  0  0  0  0
   -0.8741   -5.1235    0.8083 H   0  0  0  0  0  0  0  0  0  0  0  0
    1.1738   -3.3062    1.9318 H   0  0  0  0  0  0  0  0  0  0  0  0
    1.1270   -4.4358   -0.9305 H   0  0  0  0  0  0  0  0  0  0  0  0
    2.2797   -3.2400   -0.3251 H   0  0  0  0  0  0  0  0  0  0  0  0
    2.2827   -4.8880    0.3303 H   0  0  0  0  0  0  0  0  0  0  0  0
    0.3351   -1.3153    0.5316 N   0  0  0  0  0  0  0  0  0  0  0  0
   -0.3268   -0.1184    0.0807 C   0  0  2  0  0  0  0  0  0  0  0  0
    0.2326    1.0723    0.8533 C   0  0  0  0  0  0  0  0  0  0  0  0
    0.1418    1.1797    2.0745 O   0  0  0  0  0  0  0  0  0  0  0  0
   -1.8544   -0.2288    0.1818 C   0  0  0  0  0  0  0  0  0  0  0  0
   -2.4582   -1.2740   -0.7593 C   0  0  0  0  0  0  0  0  0  0  0  0
   -2.1004   -0.8544   -2.4913 S   0  0  0  0  0  0  0  0  0  0  0  0
   -3.1450    0.6142   -2.6245 C   0  0  0  0  0  0  0  0  0  0  0  0
    1.2790   -1.2290    0.9021 H   0  0  0  0  0  0  0  0  0  0  0  0
   -0.0465   -0.0005   -0.9731 H   0  0  0  0  0  0  0  0  0  0  0  0
   -2.2876    0.7554   -0.0418 H   0  0  0  0  0  0  0  0  0  0  0  0
   -2.1279   -0.4700    1.2170 H   0  0  0  0  0  0  0  0  0  0  0  0
   -3.5450   -1.3242   -0.6440 H   0  0  0  0  0  0  0  0  0  0  0  0
   -2.0473   -2.2680   -0.5597 H   0  0  0  0  0  0  0  0  0  0  0  0
   -3.0690    1.0344   -3.6303 H   0  0  0  0  0  0  0  0  0  0  0  0
   -2.8231    1.3655   -1.8991 H   0  0  0  0  0  0  0  0  0  0  0  0
   -4.1861    0.3484   -2.4258 H   0  0  0  0  0  0  0  0  0  0  0  0
    0.8147    2.0141    0.0170 N   0  0  0  0  0  0  0  0  0  0  0  0
    1.4031    3.2363    0.5124 C   0  0  2  0  0  0  0  0  0  0  0  0
    1.0558    4.3541   -0.4621 C   0  0  0  0  0  0  0  0  0  0  0  0
    0.7527    4.1506   -1.6359 O   0  0  0  0  0  0  0  0  0  0  0  0
    2.9096    3.1011    0.6699 C   0  0  0  0  0  0  0  0  0  0  0  0
    0.8710    1.8306   -0.9804 H   0  0  0  0  0  0  0  0  0  0  0  0
    0.9385    3.4401    1.4833 H   0  0  0  0  0  0  0  0  0  0  0  0
    3.3925    2.8967   -0.2926 H   0  0  0  0  0  0  0  0  0  0  0  0
    3.3504    4.0190    1.0725 H   0  0  0  0  0  0  0  0  0  0  0  0
    3.1582    2.2775    1.3480 H   0  0  0  0  0  0  0  0  0  0  0  0
    1.1661    5.6083    0.1217 N   0  0  0  0  0  0  0  0  0  0  0  0
    0.9013    6.8306   -0.6009 C   0  0  0  0  0  0  0  0  0  0  0  0
    1.4049    5.6820    1.1062 H   0  0  0  0  0  0  0  0  0  0  0  0
    1.8381    7.2117   -1.0334 H   0  0  0  0  0  0  0  0  0  0  0  0
    0.1800    6.6309   -1.4070 H   0  0  0  0  0  0  0  0  0  0  0  0
    0.4838    7.5801    0.0874 H   0  0  0  0  0  0  0  0  0  0  0  0
  1  3  1  0  0  0  0
  1  7  1  0  0  0  0
  1  2  2  0  0  0  0
 35 36  1  0  0  0  0
 36 44  1  0  0  0  0
 36 37  2  0  0  0  0
  8  9  1  0  0  0  0
  9 17  1  0  0  0  0
  9 10  2  0  0  0  0
 18 19  1  0  0  0  0
 19 34  1  0  0  0  0
 19 20  2  0  0  0  0
 35 38  1  0  0  0  0
  8 11  1  0  0  0  0
 44 45  1  0  0  0  0
 23 24  1  0  0  0  0
 21 22  1  0  0  0  0
 18 21  1  0  0  0  0
 22 23  1  0  0  0  0
 34 35  1  0  0  0  0
  7  8  1  0  0  0  0
 17 18  1  0  0  0  0
  3  4  1  0  0  0  0
  3  5  1  0  0  0  0
  3  6  1  0  0  0  0
 38 41  1  0  0  0  0
 38 42  1  0  0  0  0
 38 43  1  0  0  0  0
 11 14  1  0  0  0  0
 11 15  1  0  0  0  0
 11 16  1  0  0  0  0
 45 47  1  0  0  0  0
 45 48  1  0  0  0  0
 45 49  1  0  0  0  0
 24 31  1  0  0  0  0
 24 32  1  0  0  0  0
 24 33  1  0  0  0  0
 21 27  1  0  0  0  0
 21 28  1  0  0  0  0
 22 29  1  0  0  0  0
 22 30  1  0  0  0  0
 35 40  1  0  0  0  0
  8 13  1  0  0  0  0
 18 26  1  0  0  0  0
 44 46  1  0  0  0  0
  7 12  1  0  0  0  0
 34 39  1  0  0  0  0
 17 25  1  0  0  0  0
M  END
$$$$

  -OEChem-05262214473D

 49 48  0     1  0  0  0  0  0999 V2000
   -0.0561   -5.3799    2.6949 C   0  0  0  0  0  0  0  0  0  0  0  0
    0.7325   -5.0736    3.5815 O   0  0  0  0  0  0  0  0  0  0  0  0
   -1.0067   -6.5099    2.9135 C   0  0  0  0  0  0  0  0  0  0  0  0
   -0.5910   -7.4777    2.5899 H   0  0  0  0  0  0  0  0  0  0  0  0
   -1.2629   -6.6440    3.9767 H   0  0  0  0  0  0  0  0  0  0  0  0
   -1.9729   -6.4206    2.3918 H   0  0  0  0  0  0  0  0  0  0  0  0
   -0.1735   -4.7694    1.4571 N   0  0  0  0  0  0  0  0  0  0  0  0
    0.6439   -3.6603    1.0409 C   0  0  2  0  0  0  0  0  0  0  0  0
   -0.2788   -2.5625    0.5280 C   0  0  0  0  0  0  0  0  0  0  0  0
   -1.4197   -2.7791    0.1251 O   0  0  0  0  0  0  0  0  0  0  0  0
    1.6395   -4.0779   -0.0301 C   0  0  0  0  0  0  0  0  0  0  0  0
   -0.8741   -5.1235    0.8083 H   0  0  0  0  0  0  0  0  0  0  0  0
    1.1738   -3.3062    1.9318 H   0  0  0  0  0  0  0  0  0  0  0  0
    1.1270   -4.4358   -0.9305 H   0  0  0  0  0  0  0  0  0  0  0  0
    2.2797   -3.2400   -0.3251 H   0  0  0  0  0  0  0  0  0  0  0  0
    2.2827   -4.8880    0.3303 H   0  0  0  0  0  0  0  0  0  0  0  0
    0.3351   -1.3153    0.5316 N   0  0  0  0  0  0  0  0  0  0  0  0
   -0.3268   -0.1184    0.0807 C   0  0  2  0  0  0  0  0  0  0  0  0
    0.2326    1.0723    0.8533 C   0  0  0  0  0  0  0  0  0  0  0  0
    0.3858    1.0661    2.0730 O   0  0  0  0  0  0  0  0  0  0  0  0
   -1.8544   -0.2288    0.1818 C   0  0  0  0  0  0  0  0  0  0  0  0
   -2.4582   -1.2740   -0.7593 C   0  0  0  0  0  0  0  0  0  0  0  0
   -2.1004   -0.8544   -2.4913 S   0  0  0  0  0  0  0  0  0  0  0  0
   -3.1450    0.6142   -2.6245 C   0  0  0  0  0  0  0  0  0  0  0  0
    1.2790   -1.2290    0.9021 H   0  0  0  0  0  0  0  0  0  0  0  0
   -0.0465   -0.0005   -0.9731 H   0  0  0  0  0  0  0  0  0  0  0  0
   -2.2876    0.7554   -0.0418 H   0  0  0  0  0  0  0  0  0  0  0  0
   -2.1279   -0.4700    1.2170 H   0  0  0  0  0  0  0  0  0  0  0  0
   -3.5450   -1.3242   -0.6440 H   0  0  0  0  0  0  0  0  0  0  0  0
   -2.0473   -2.2680   -0.5597 H   0  0  0  0  0  0  0  0  0  0  0  0
   -3.0690    1.0344   -3.6303 H   0  0  0  0  0  0  0  0  0  0  0  0
   -2.8231    1.3655   -1.8991 H   0  0  0  0  0  0  0  0  0  0  0  0
   -4.1861    0.3484   -2.4258 H   0  0  0  0  0  0  0  0  0  0  0  0
    0.5091    2.1516    0.0263 N   0  0  0  0  0  0  0  0  0  0  0  0
    1.0350    3.4001    0.5265 C   0  0  2  0  0  0  0  0  0  0  0  0
    0.3594    4.5334   -0.2342 C   0  0  0  0  0  0  0  0  0  0  0  0
   -0.1546    4.3855   -1.3410 O   0  0  0  0  0  0  0  0  0  0  0  0
    2.5463    3.4660    0.3706 C   0  0  0  0  0  0  0  0  0  0  0  0
    0.3782    2.0597   -0.9767 H   0  0  0  0  0  0  0  0  0  0  0  0
    0.7617    3.4566    1.5858 H   0  0  0  0  0  0  0  0  0  0  0  0
    2.8393    3.4107   -0.6842 H   0  0  0  0  0  0  0  0  0  0  0  0
    2.9467    4.4010    0.7762 H   0  0  0  0  0  0  0  0  0  0  0  0
    3.0287    2.6331    0.8936 H   0  0  0  0  0  0  0  0  0  0  0  0
    0.4359    5.7390    0.4491 N   0  0  0  0  0  0  0  0  0  0  0  0
   -0.1198    6.9665   -0.0709 C   0  0  0  0  0  0  0  0  0  0  0  0
    0.8639    5.7651    1.3699 H   0  0  0  0  0  0  0  0  0  0  0  0
    0.6530    7.5097   -0.6345 H   0  0  0  0  0  0  0  0  0  0  0  0
   -0.9636    6.7335   -0.7371 H   0  0  0  0  0  0  0  0  0  0  0  0
   -0.4726    7.5912    0.7629 H   0  0  0  0  0  0  0  0  0  0  0  0
  1  3  1  0  0  0  0
  1  7  1  0  0  0  0
  1  2  2  0  0  0  0
 35 36  1  0  0  0  0
 36 44  1  0  0  0  0
 36 37  2  0  0  0  0
  8  9  1  0  0  0  0
  9 17  1  0  0  0  0
  9 10  2  0  0  0  0
 18 19  1  0  0  0  0
 19 34  1  0  0  0  0
 19 20  2  0  0  0  0
 35 38  1  0  0  0  0
  8 11  1  0  0  0  0
 44 45  1  0  0  0  0
 23 24  1  0  0  0  0
 21 22  1  0  0  0  0
 18 21  1  0  0  0  0
 22 23  1  0  0  0  0
 34 35  1  0  0  0  0
  7  8  1  0  0  0  0
 17 18  1  0  0  0  0
  3  4  1  0  0  0  0
  3  5  1  0  0  0  0
  3  6  1  0  0  0  0
 38 41  1  0  0  0  0
 38 42  1  0  0  0  0
 38 43  1  0  0  0  0
 11 14  1  0  0  0  0
 11 15  1  0  0  0  0
 11 16  1  0  0  0  0
 45 47  1  0  0  0  0
 45 48  1  0  0  0  0
 45 49  1  0  0  0  0
 24 31  1  0  0  0  0
 24 32  1  0  0  0  0
 24 33  1  0  0  0  0
 21 27  1  0  0  0  0
 21 28  1  0  0  0  0
 22 29  1  0  0  0  0
 22 30  1  0  0  0  0
 35 40  1  0  0  0  0
  8 13  1  0  0  0  0
 18 26  1  0  0  0  0
 44 46  1  0  0  0  0
  7 12  1  0  0  0  0
 34 39  1  0  0  0  0
 17 25  1  0  0  0  0
M  END
$$$$

  -OEChem-05262214473D

 49 48  0     1  0  0  0  0  0999 V2000
   -0.0561   -5.3799    2.6949 C   0  0  0  0  0  0  0  0  0  0  0  0
    0.7325   -5.0736    3.5815 O   0  0  0  0  0  0  0  0  0  0  0  0
   -1.0067   -6.5099    2.9135 C   0  0  0  0  0  0  0  0  0  0  0  0
   -0.5910   -7.4777    2.5899 H   0  0  0  0  0  0  0  0  0  0  0  0
   -1.2629   -6.6440    3.9767 H   0  0  0  0  0  0  0  0  0  0  0  0
   -1.9729   -6.4206    2.3918 H   0  0  0  0  0  0  0  0  0  0  0  0
   -0.1735   -4.7694    1.4571 N   0  0  0  0  0  0  0  0  0  0  0  0
    0.6439   -3.6603    1.0409 C   0  0  2  0  0  0  0  0  0  0  0  0
   -0.2788   -2.5625    0.5280 C   0  0  0  0  0  0  0  0  0  0  0  0
   -1.4197   -2.7791    0.1251 O   0  0  0  0  0  0  0  0  0  0  0  0
    1.6395   -4.0779   -0.0301 C   0  0  0  0  0  0  0  0  0  0  0  0
   -0.8741   -5.1235    0.8083 H   0  0  0  0  0  0  0  0  0  0  0  0
    1.1738   -3.3062    1.9318 H   0  0  0  0  0  0  0  0  0  0  0  0
    1.1270   -4.4358   -0.9305 H   0  0  0  0  0  0  0  0  0  0  0  0
    2.2797   -3.2400   -0.3251 H   0  0  0  0  0  0  0  0  0  0  0  0
    2.2827   -4.8880    0.3303 H   0  0  0  0  0  0  0  0  0  0  0  0
    0.3351   -1.3153    0.5316 N   0  0  0  0  0  0  0  0  0  0  0  0
   -0.3268   -0.1184    0.0807 C   0  0  2  0  0  0  0  0  0  0  0  0
    0.2326    1.0723    0.8533 C   0  0  0  0  0  0  0  0  0  0  0  0
    0.6362    0.9884    2.0114 O   0  0  0  0  0  0  0  0  0  0  0  0
   -1.8544   -0.2288    0.1818 C   0  0  0  0  0  0  0  0  0  0  0  0
   -2.4582   -1.2740   -0.7593 C   0  0  0  0  0  0  0  0  0  0  0  0
   -2.1004   -0.8544   -2.4913 S   0  0  0  0  0  0  0  0  0  0  0  0
   -3.1450    0.6142   -2.6245 C   0  0  0  0  0  0  0  0  0  0  0  0
    1.2790   -1.2290    0.9021 H   0  0  0  0  0  0  0  0  0  0  0  0
   -0.0465   -0.0005   -0.9731 H   0  0  0  0  0  0  0  0  0  0  0  0
   -2.2876    0.7554   -0.0418 H   0  0  0  0  0  0  0  0  0  0  0  0
   -2.1279   -0.4700    1.2170 H   0  0  0  0  0  0  0  0  0  0  0  0
   -3.5450   -1.3242   -0.6440 H   0  0  0  0  0  0  0  0  0  0  0  0
   -2.0473   -2.2680   -0.5597 H   0  0  0  0  0  0  0  0  0  0  0  0
   -3.0690    1.0344   -3.6303 H   0  0  0  0  0  0  0  0  0  0  0  0
   -2.8231    1.3655   -1.8991 H   0  0  0  0  0  0  0  0  0  0  0  0
   -4.1861    0.3484   -2.4258 H   0  0  0  0  0  0  0  0  0  0  0  0
    0.1978    2.2435    0.1101 N   0  0  0  0  0  0  0  0  0  0  0  0
    0.6609    3.5087    0.6300 C   0  0  2  0  0  0  0  0  0  0  0  0
   -0.2907    4.5937    0.1436 C   0  0  0  0  0  0  0  0  0  0  0  0
   -1.0022    4.4655   -0.8506 O   0  0  0  0  0  0  0  0  0  0  0  0
    2.0872    3.7992    0.1895 C   0  0  0  0  0  0  0  0  0  0  0  0
   -0.1271    2.2161   -0.8518 H   0  0  0  0  0  0  0  0  0  0  0  0
    0.6095    3.4397    1.7221 H   0  0  0  0  0  0  0  0  0  0  0  0
    2.1584    3.8718   -0.9019 H   0  0  0  0  0  0  0  0  0  0  0  0
    2.4468    4.7451    0.6078 H   0  0  0  0  0  0  0  0  0  0  0  0
    2.7653    3.0028    0.5145 H   0  0  0  0  0  0  0  0  0  0  0  0
   -0.2204    5.7384    0.9253 N   0  0  0  0  0  0  0  0  0  0  0  0
   -1.0170    6.9136    0.6602 C   0  0  0  0  0  0  0  0  0  0  0  0
    0.3836    5.7494    1.7419 H   0  0  0  0  0  0  0  0  0  0  0  0
   -0.4503    7.6043    0.0186 H   0  0  0  0  0  0  0  0  0  0  0  0
   -1.9464    6.6192    0.1508 H   0  0  0  0  0  0  0  0  0  0  0  0
   -1.2614    7.4124    1.6096 H   0  0  0  0  0  0  0  0  0  0  0  0
  1  3  1  0  0  0  0
  1  7  1  0  0  0  0
  1  2  2  0  0  0  0
 35 36  1  0  0  0  0
 36 44  1  0  0  0  0
 36 37  2  0  0  0  0
  8  9  1  0  0  0  0
  9 17  1  0  0  0  0
  9 10  2  0  0  0  0
 18 19  1  0  0  0  0
 19 34  1  0  0  0  0
 19 20  2  0  0  0  0
 35 38  1  0  0  0  0
  8 11  1  0  0  0  0
 44 45  1  0  0  0  0
 23 24  1  0  0  0  0
 21 22  1  0  0  0  0
 18 21  1  0  0  0  0
 22 23  1  0  0  0  0
 34 35  1  0  0  0  0
  7  8  1  0  0  0  0
 17 18  1  0  0  0  0
  3  4  1  0  0  0  0
  3  5  1  0  0  0  0
  3  6  1  0  0  0  0
 38 41  1  0  0  0  0
 38 42  1  0  0  0  0
 38 43  1  0  0  0  0
 11 14  1  0  0  0  0
 11 15  1  0  0  0  0
 11 16  1  0  0  0  0
 45 47  1  0  0  0  0
 45 48  1  0  0  0  0
 45 49  1  0  0  0  0
 24 31  1  0  0  0  0
 24 32  1  0  0  0  0
 24 33  1  0  0  0  0
 21 27  1  0  0  0  0
 21 28  1  0  0  0  0
 22 29  1  0  0  0  0
 22 30  1  0  0  0  0
 35 40  1  0  0  0  0
  8 13  1  0  0  0  0
 18 26  1  0  0  0  0
 44 46  1  0  0  0  0
  7 12  1  0  0  0  0
 34 39  1  0  0  0  0
 17 25  1  0  0  0  0
M  END
$$$$

  -OEChem-05262214473D

 49 48  0     1  0  0  0  0  0999 V2000
   -0.0561   -5.3799    2.6949 C   0  0  0  0  0  0  0  0  0  0  0  0
    0.7325   -5.0736    3.5815 O   0  0  0  0  0  0  0  0  0  0  0  0
   -1.0067   -6.5099    2.9135 C   0  0  0  0  0  0  0  0  0  0  0  0
   -0.5910   -7.4777    2.5899 H   0  0  0  0  0  0  0  0  0  0  0  0
   -1.2629   -6.6440    3.9767 H   0  0  0  0  0  0  0  0  0  0  0  0
   -1.9729   -6.4206    2.3918 H   0  0  0  0  0  0  0  0  0  0  0  0
   -0.1735   -4.7694    1.4571 N   0  0  0  0  0  0  0  0  0  0  0  0
    0.6439   -3.6603    1.0409 C   0  0  2  0  0  0  0  0  0  0  0  0
   -0.2788   -2.5625    0.5280 C   0  0  0  0  0  0  0  0  0  0  0  0
   -1.4197   -2.7791    0.1251 O   0  0  0  0  0  0  0  0  0  0  0  0
    1.6395   -4.0779   -0.0301 C   0  0  0  0  0  0  0  0  0  0  0  0
   -0.8741   -5.1235    0.8083 H   0  0  0  0  0  0  0  0  0  0  0  0
    1.1738   -3.3062    1.9318 H   0  0  0  0  0  0  0  0  0  0  0  0
    1.1270   -4.4358   -0.9305 H   0  0  0  0  0  0  0  0  0  0  0  0
    2.2797   -3.2400   -0.3251 H   0  0  0  0  0  0  0  0  0  0  0  0
    2.2827   -4.8880    0.3303 H   0  0  0  0  0  0  0  0  0  0  0  0
    0.3351   -1.3153    0.5316 N   0  0  0  0  0  0  0  0  0  0  0  0
   -0.3268   -0.1184    0.0807 C   0  0  2  0  0  0  0  0  0  0  0  0
    0.2326    1.0723    0.8533 C   0  0  0  0  0  0  0  0  0  0  0  0
    0.8757    0.9520    1.8940 O   0  0  0  0  0  0  0  0  0  0  0  0
   -1.8544   -0.2288    0.1818 C   0  0  0  0  0  0  0  0  0  0  0  0
   -2.4582   -1.2740   -0.7593 C   0  0  0  0  0  0  0  0  0  0  0  0
   -2.1004   -0.8544   -2.4913 S   0  0  0  0  0  0  0  0  0  0  0  0
   -3.1450    0.6142   -2.6245 C   0  0  0  0  0  0  0  0  0  0  0  0
    1.2790   -1.2290    0.9021 H   0  0  0  0  0  0  0  0  0  0  0  0
   -0.0465   -0.0005   -0.9731 H   0  0  0  0  0  0  0  0  0  0  0  0
   -2.2876    0.7554   -0.0418 H   0  0  0  0  0  0  0  0  0  0  0  0
   -2.1279   -0.4700    1.2170 H   0  0  0  0  0  0  0  0  0  0  0  0
   -3.5450   -1.3242   -0.6440 H   0  0  0  0  0  0  0  0  0  0  0  0
   -2.0473   -2.2680   -0.5597 H   0  0  0  0  0  0  0  0  0  0  0  0
   -3.0690    1.0344   -3.6303 H   0  0  0  0  0  0  0  0  0  0  0  0
   -2.8231    1.3655   -1.8991 H   0  0  0  0  0  0  0  0  0  0  0  0
   -4.1861    0.3484   -2.4258 H   0  0  0  0  0  0  0  0  0  0  0  0
   -0.0981    2.2835    0.2627 N   0  0  0  0  0  0  0  0  0  0  0  0
    0.3062    3.5547    0.8159 C   0  0  2  0  0  0  0  0  0  0  0  0
   -0.8503    4.5309    0.6456 C   0  0  0  0  0  0  0  0  0  0  0  0
   -1.7324    4.3852   -0.1981 O   0  0  0  0  0  0  0  0  0  0  0  0
    1.5634    4.0781    0.1389 C   0  0  0  0  0  0  0  0  0  0  0  0
   -0.6105    2.2891   -0.6143 H   0  0  0  0  0  0  0  0  0  0  0  0
    0.4922    3.3905    1.8829 H   0  0  0  0  0  0  0  0  0  0  0  0
    1.3964    4.2486   -0.9309 H   0  0  0  0  0  0  0  0  0  0  0  0
    1.8848    5.0279    0.5788 H   0  0  0  0  0  0  0  0  0  0  0  0
    2.3859    3.3613    0.2367 H   0  0  0  0  0  0  0  0  0  0  0  0
   -0.7581    5.6066    1.5177 N   0  0  0  0  0  0  0  0  0  0  0  0
   -1.7289    6.6756    1.5426 C   0  0  0  0  0  0  0  0  0  0  0  0
   -0.0031    5.6361    2.1966 H   0  0  0  0  0  0  0  0  0  0  0  0
   -1.3964    7.4891    0.8812 H   0  0  0  0  0  0  0  0  0  0  0  0
   -2.7014    6.2957    1.1961 H   0  0  0  0  0  0  0  0  0  0  0  0
   -1.8289    7.0560    2.5699 H   0  0  0  0  0  0  0  0  0  0  0  0
  1  3  1  0  0  0  0
  1  7  1  0  0  0  0
  1  2  2  0  0  0  0
 35 36  1  0  0  0  0
 36 44  1  0  0  0  0
 36 37  2  0  0  0  0
  8  9  1  0  0  0  0
  9 17  1  0  0  0  0
  9 10  2  0  0  0  0
 18 19  1  0  0  0  0
 19 34  1  0  0  0  0
 19 20  2  0  0  0  0
 35 38  1  0  0  0  0
  8 11  1  0  0  0  0
 44 45  1  0  0  0  0
 23 24  1  0  0  0  0
 21 22  1  0  0  0  0
 18 21  1  0  0  0  0
 22 23  1  0  0  0  0
 34 35  1  0  0  0  0
  7  8  1  0  0  0  0
 17 18  1  0  0  0  0
  3  4  1  0  0  0  0
  3  5  1  0  0  0  0
  3  6  1  0  0  0  0
 38 41  1  0  0  0  0
 38 42  1  0  0  0  0
 38 43  1  0  0  0  0
 11 14  1  0  0  0  0
 11 15  1  0  0  0  0
 11 16  1  0  0  0  0
 45 47  1  0  0  0  0
 45 48  1  0  0  0  0
 45 49  1  0  0  0  0
 24 31  1  0  0  0  0
 24 32  1  0  0  0  0
 24 33  1  0  0  0  0
 21 27  1  0  0  0  0
 21 28  1  0  0  0  0
 22 29  1  0  0  0  0
 22 30  1  0  0  0  0
 35 40  1  0  0  0  0
  8 13  1  0  0  0  0
 18 26  1  0  0  0  0
 44 46  1  0  0  0  0
  7 12  1  0  0  0  0
 34 39  1  0  0  0  0
 17 25  1  0  0  0  0
M  END
$$$$

  -OEChem-05262214473D

 49 48  0     1  0  0  0  0  0999 V2000
   -0.0561   -5.3799    2.6949 C   0  0  0  0  0  0  0  0  0  0  0  0
    0.7325   -5.0736    3.5815 O   0  0  0  0  0  0  0  0  0  0  0  0
   -1.0067   -6.5099    2.9135 C   0  0  0  0  0  0  0  0  0  0  0  0
   -0.5910   -7.4777    2.5899 H   0  0  0  0  0  0  0  0  0  0  0  0
   -1.2629   -6.6440    3.9767 H   0  0  0  0  0  0  0  0  0  0  0  0
   -1.9729   -6.4206    2.3918 H   0  0  0  0  0  0  0  0  0  0  0  0
   -0.1735   -4.7694    1.4571 N   0  0  0  0  0  0  0  0  0  0  0  0
    0.6439   -3.6603    1.0409 C   0  0  2  0  0  0  0  0  0  0  0  0
   -0.2788   -2.5625    0.5280 C   0  0  0  0  0  0  0  0  0  0  0  0
   -1.4197   -2.7791    0.1251 O   0  0  0  0  0  0  0  0  0  0  0  0
    1.6395   -4.0779   -0.0301 C   0  0  0  0  0  0  0  0  0  0  0  0
   -0.8741   -5.1235    0.8083 H   0  0  0  0  0  0  0  0  0  0  0  0
    1.1738   -3.3062    1.9318 H   0  0  0  0  0  0  0  0  0  0  0  0
    1.1270   -4.4358   -0.9305 H   0  0  0  0  0  0  0  0  0  0  0  0
    2.2797   -3.2400   -0.3251 H   0  0  0  0  0  0  0  0  0  0  0  0
    2.2827   -4.8880    0.3303 H   0  0  0  0  0  0  0  0  0  0  0  0
    0.3351   -1.3153    0.5316 N   0  0  0  0  0  0  0  0  0  0  0  0
   -0.3268   -0.1184    0.0807 C   0  0  2  0  0  0  0  0  0  0  0  0
    0.4685    1.0922    0.5597 C   0  0  0  0  0  0  0  0  0  0  0  0
    1.4860    0.9965    1.2429 O   0  0  0  0  0  0  0  0  0  0  0  0
   -1.7986   -0.0728    0.5139 C   0  0  0  0  0  0  0  0  0  0  0  0
   -2.6643   -1.1538   -0.1377 C   0  0  0  0  0  0  0  0  0  0  0  0
   -2.6687   -0.9630   -1.9454 S   0  0  0  0  0  0  0  0  0  0  0  0
   -3.6146    0.5737   -2.0426 C   0  0  0  0  0  0  0  0  0  0  0  0
    1.2790   -1.2290    0.9021 H   0  0  0  0  0  0  0  0  0  0  0  0
   -0.2779   -0.1441   -1.0147 H   0  0  0  0  0  0  0  0  0  0  0  0
   -2.2024    0.9171    0.2624 H   0  0  0  0  0  0  0  0  0  0  0  0
   -1.8534   -0.1719    1.6056 H   0  0  0  0  0  0  0  0  0  0  0  0
   -3.7000   -1.0886    0.2088 H   0  0  0  0  0  0  0  0  0  0  0  0
   -2.2881   -2.1541    0.0964 H   0  0  0  0  0  0  0  0  0  0  0  0
   -3.7334    0.8716   -3.0872 H   0  0  0  0  0  0  0  0  0  0  0  0
   -3.0907    1.3667   -1.5032 H   0  0  0  0  0  0  0  0  0  0  0  0
   -4.6021    0.4305   -1.5972 H   0  0  0  0  0  0  0  0  0  0  0  0
   -0.1087    2.2900    0.1630 N   0  0  0  0  0  0  0  0  0  0  0  0
    0.4529    3.5754    0.5063 C   0  0  2  0  0  0  0  0  0  0  0  0
   -0.6972    4.5193    0.8315 C   0  0  0  0  0  0  0  0  0  0  0  0
   -1.8441    4.3443    0.4251 O   0  0  0  0  0  0  0  0  0  0  0  0
    1.3053    4.1270   -0.6259 C   0  0  0  0  0  0  0  0  0  0  0  0
   -0.9366    2.2757   -0.4252 H   0  0  0  0  0  0  0  0  0  0  0  0
    1.0660    3.4238    1.4014 H   0  0  0  0  0  0  0  0  0  0  0  0
    0.7081    4.2855   -1.5313 H   0  0  0  0  0  0  0  0  0  0  0  0
    1.7534    5.0882   -0.3531 H   0  0  0  0  0  0  0  0  0  0  0  0
    2.1142    3.4330   -0.8785 H   0  0  0  0  0  0  0  0  0  0  0  0
   -0.2833    5.6032    1.5931 N   0  0  0  0  0  0  0  0  0  0  0  0
   -1.1865    6.6463    2.0202 C   0  0  0  0  0  0  0  0  0  0  0  0
    0.6830    5.6576    1.9012 H   0  0  0  0  0  0  0  0  0  0  0  0
   -1.1779    7.4636    1.2841 H   0  0  0  0  0  0  0  0  0  0  0  0
   -2.2047    6.2383    2.1030 H   0  0  0  0  0  0  0  0  0  0  0  0
   -0.8650    7.0313    2.9992 H   0  0  0  0  0  0  0  0  0  0  0  0
  1  3  1  0  0  0  0
  1  7  1  0  0  0  0
  1  2  2  0  0  0  0
 35 36  1  0  0  0  0
 36 44  1  0  0  0  0
 36 37  2  0  0  0  0
  8  9  1  0  0  0  0
  9 17  1  0  0  0  0
  9 10  2  0  0  0  0
 18 19  1  0  0  0  0
 19 34  1  0  0  0  0
 19 20  2  0  0  0  0
 35 38  1  0  0  0  0
  8 11  1  0  0  0  0
 44 45  1  0  0  0  0
 23 24  1  0  0  0  0
 21 22  1  0  0  0  0
 18 21  1  0  0  0  0
 22 23  1  0  0  0  0
 34 35  1  0  0  0  0
  7  8  1  0  0  0  0
 17 18  1  0  0  0  0
  3  4  1  0  0  0  0
  3  5  1  0  0  0  0
  3  6  1  0  0  0  0
 38 41  1  0  0  0  0
 38 42  1  0  0  0  0
 38 43  1  0  0  0  0
 11 14  1  0  0  0  0
 11 15  1  0  0  0  0
 11 16  1  0  0  0  0
 45 47  1  0  0  0  0
 45 48  1  0  0  0  0
 45 49  1  0  0  0  0
 24 31  1  0  0  0  0
 24 32  1  0  0  0  0
 24 33  1  0  0  0  0
 21 27  1  0  0  0  0
 21 28  1  0  0  0  0
 22 29  1  0  0  0  0
 22 30  1  0  0  0  0
 35 40  1  0  0  0  0
  8 13  1  0  0  0  0
 18 26  1  0  0  0  0
 44 46  1  0  0  0  0
  7 12  1  0  0  0  0
 34 39  1  0  0  0  0
 17 25  1  0  0  0  0
M  END
$$$$

  -OEChem-05262214473D

 49 48  0     1  0  0  0  0  0999 V2000
   -0.0561   -5.3799    2.6949 C   0  0  0  0  0  0  0  0  0  0  0  0
    0.7325   -5.0736    3.5815 O   0  0  0  0  0  0  0  0  0  0  0  0
   -1.0067   -6.5099    2.9135 C   0  0  0  0  0  0  0  0  0  0  0  0
   -0.5910   -7.4777    2.5899 H   0  0  0  0  0  0  0  0  0  0  0  0
   -1.2629   -6.6440    3.9767 H   0  0  0  0  0  0  0  0  0  0  0  0
   -1.9729   -6.4206    2.3918 H   0  0  0  0  0  0  0  0  0  0  0  0
   -0.1735   -4.7694    1.4571 N   0  0  0  0  0  0  0  0  0  0  0  0
    0.6439   -3.6603    1.0409 C   0  0  2  0  0  0  0  0  0  0  0  0
   -0.2788   -2.5625    0.5280 C   0  0  0  0  0  0  0  0  0  0  0  0
   -1.4197   -2.7791    0.1251 O   0  0  0  0  0  0  0  0  0  0  0  0
    1.6395   -4.0779   -0.0301 C   0  0  0  0  0  0  0  0  0  0  0  0
   -0.8741   -5.1235    0.8083 H   0  0  0  0  0  0  0  0  0  0  0  0
    1.1738   -3.3062    1.9318 H   0  0  0  0  0  0  0  0  0  0  0  0
    1.1270   -4.4358   -0.9305 H   0  0  0  0  0  0  0  0  0  0  0  0
    2.2797   -3.2400   -0.3251 H   0  0  0  0  0  0  0  0  0  0  0  0
    2.2827   -4.8880    0.3303 H   0  0  0  0  0  0  0  0  0  0  0  0
    0.3351   -1.3153    0.5316 N   0  0  0  0  0  0  0  0  0  0  0  0
   -0.3268   -0.1184    0.0807 C   0  0  2  0  0  0  0  0  0  0  0  0
    0.4685    1.0922    0.5597 C   0  0  0  0  0  0  0  0  0  0  0  0
    1.6113    1.0083    1.0049 O   0  0  0  0  0  0  0  0  0  0  0  0
   -1.7986   -0.0728    0.5139 C   0  0  0  0  0  0  0  0  0  0  0  0
   -2.6643   -1.1538   -0.1377 C   0  0  0  0  0  0  0  0  0  0  0  0
   -2.6687   -0.9630   -1.9454 S   0  0  0  0  0  0  0  0  0  0  0  0
   -3.6146    0.5737   -2.0426 C   0  0  0  0  0  0  0  0  0  0  0  0
    1.2790   -1.2290    0.9021 H   0  0  0  0  0  0  0  0  0  0  0  0
   -0.2779   -0.1441   -1.0147 H   0  0  0  0  0  0  0  0  0  0  0  0
   -2.2024    0.9171    0.2624 H   0  0  0  0  0  0  0  0  0  0  0  0
   -1.8534   -0.1719    1.6056 H   0  0  0  0  0  0  0  0  0  0  0  0
   -3.7000   -1.0886    0.2088 H   0  0  0  0  0  0  0  0  0  0  0  0
   -2.2881   -2.1541    0.0964 H   0  0  0  0  0  0  0  0  0  0  0  0
   -3.7334    0.8716   -3.0872 H   0  0  0  0  0  0  0  0  0  0  0  0
   -3.0907    1.3667   -1.5032 H   0  0  0  0  0  0  0  0  0  0  0  0
   -4.6021    0.4305   -1.5972 H   0  0  0  0  0  0  0  0  0  0  0  0
   -0.2585    2.2700    0.4623 N   0  0  0  0  0  0  0  0  0  0  0  0
    0.2752    3.5493    0.8672 C   0  0  2  0  0  0  0  0  0  0  0  0
   -0.8411    4.3305    1.5476 C   0  0  0  0  0  0  0  0  0  0  0  0
   -2.0335    4.0997    1.3577 O   0  0  0  0  0  0  0  0  0  0  0  0
    0.8306    4.3184   -0.3214 C   0  0  0  0  0  0  0  0  0  0  0  0
   -1.1890    2.2513    0.0555 H   0  0  0  0  0  0  0  0  0  0  0  0
    1.0721    3.3449    1.5905 H   0  0  0  0  0  0  0  0  0  0  0  0
    0.0466    4.5324   -1.0570 H   0  0  0  0  0  0  0  0  0  0  0  0
    1.2605    5.2757   -0.0087 H   0  0  0  0  0  0  0  0  0  0  0  0
    1.6128    3.7423   -0.8274 H   0  0  0  0  0  0  0  0  0  0  0  0
   -0.3497    5.3440    2.3585 N   0  0  0  0  0  0  0  0  0  0  0  0
   -1.2104    6.2337    3.1025 C   0  0  0  0  0  0  0  0  0  0  0  0
    0.6541    5.4508    2.4718 H   0  0  0  0  0  0  0  0  0  0  0  0
   -1.4121    7.1346    2.5045 H   0  0  0  0  0  0  0  0  0  0  0  0
   -2.1584    5.7233    3.3277 H   0  0  0  0  0  0  0  0  0  0  0  0
   -0.7162    6.5207    4.0424 H   0  0  0  0  0  0  0  0  0  0  0  0
  1  3  1  0  0  0  0
  1  7  1  0  0  0  0
  1  2  2  0  0  0  0
 35 36  1  0  0  0  0
 36 44  1  0  0  0  0
 36 37  2  0  0  0  0
  8  9  1  0  0  0  0
  9 17  1  0  0  0  0
  9 10  2  0  0  0  0
 18 19  1  0  0  0  0
 19 34  1  0  0  0  0
 19 20  2  0  0  0  0
 35 38  1  0  0  0  0
  8 11  1  0  0  0  0
 44 45  1  0  0  0  0
 23 24  1  0  0  0  0
 21 22  1  0  0  0  0
 18 21  1  0  0  0  0
 22 23  1  0  0  0  0
 34 35  1  0  0  0  0
  7  8  1  0  0  0  0
 17 18  1  0  0  0  0
  3  4  1  0  0  0  0
  3  5  1  0  0  0  0
  3  6  1  0  0  0  0
 38 41  1  0  0  0  0
 38 42  1  0  0  0  0
 38 43  1  0  0  0  0
 11 14  1  0  0  0  0
 11 15  1  0  0  0  0
 11 16  1  0  0  0  0
 45 47  1  0  0  0  0
 45 48  1  0  0  0  0
 45 49  1  0  0  0  0
 24 31  1  0  0  0  0
 24 32  1  0  0  0  0
 24 33  1  0  0  0  0
 21 27  1  0  0  0  0
 21 28  1  0  0  0  0
 22 29  1  0  0  0  0
 22 30  1  0  0  0  0
 35 40  1  0  0  0  0
  8 13  1  0  0  0  0
 18 26  1  0  0  0  0
 44 46  1  0  0  0  0
  7 12  1  0  0  0  0
 34 39  1  0  0  0  0
 17 25  1  0  0  0  0
M  END
$$$$

  -OEChem-05262214473D

 49 48  0     1  0  0  0  0  0999 V2000
   -0.0561   -5.3799    2.6949 C   0  0  0  0  0  0  0  0  0  0  0  0
    0.7325   -5.0736    3.5815 O   0  0  0  0  0  0  0  0  0  0  0  0
   -1.0067   -6.5099    2.9135 C   0  0  0  0  0  0  0  0  0  0  0  0
   -0.5910   -7.4777    2.5899 H   0  0  0  0  0  0  0  0  0  0  0  0
   -1.2629   -6.6440    3.9767 H   0  0  0  0  0  0  0  0  0  0  0  0
   -1.9729   -6.4206    2.3918 H   0  0  0  0  0  0  0  0  0  0  0  0
   -0.1735   -4.7694    1.4571 N   0  0  0  0  0  0  0  0  0  0  0  0
    0.6439   -3.6603    1.0409 C   0  0  2  0  0  0  0  0  0  0  0  0
   -0.2788   -2.5625    0.5280 C   0  0  0  0  0  0  0  0  0  0  0  0
   -1.4197   -2.7791    0.1251 O   0  0  0  0  0  0  0  0  0  0  0  0
    1.6395   -4.0779   -0.0301 C   0  0  0  0  0  0  0  0  0  0  0  0
   -0.8741   -5.1235    0.8083 H   0  0  0  0  0  0  0  0  0  0  0  0
    1.1738   -3.3062    1.9318 H   0  0  0  0  0  0  0  0  0  0  0  0
    1.1270   -4.4358   -0.9305 H   0  0  0  0  0  0  0  0  0  0  0  0
    2.2797   -3.2400   -0.3251 H   0  0  0  0  0  0  0  0  0  0  0  0
    2.2827   -4.8880    0.3303 H   0  0  0  0  0  0  0  0  0  0  0  0
    0.3351   -1.3153    0.5316 N   0  0  0  0  0  0  0  0  0  0  0  0
   -0.3268   -0.1184    0.0807 C   0  0  2  0  0  0  0  0  0  0  0  0
    0.4685    1.0922    0.5597 C   0  0  0  0  0  0  0  0  0  0  0  0
    1.6825    1.0621    0.7508 O   0  0  0  0  0  0  0  0  0  0  0  0
   -1.7986   -0.0728    0.5139 C   0  0  0  0  0  0  0  0  0  0  0  0
   -2.6643   -1.1538   -0.1377 C   0  0  0  0  0  0  0  0  0  0  0  0
   -2.6687   -0.9630   -1.9454 S   0  0  0  0  0  0  0  0  0  0  0  0
   -3.6146    0.5737   -2.0426 C   0  0  0  0  0  0  0  0  0  0  0  0
    1.2790   -1.2290    0.9021 H   0  0  0  0  0  0  0  0  0  0  0  0
   -0.2779   -0.1441   -1.0147 H   0  0  0  0  0  0  0  0  0  0  0  0
   -2.2024    0.9171    0.2624 H   0  0  0  0  0  0  0  0  0  0  0  0
   -1.8534   -0.1719    1.6056 H   0  0  0  0  0  0  0  0  0  0  0  0
   -3.7000   -1.0886    0.2088 H   0  0  0  0  0  0  0  0  0  0  0  0
   -2.2881   -2.1541    0.0964 H   0  0  0  0  0  0  0  0  0  0  0  0
   -3.7334    0.8716   -3.0872 H   0  0  0  0  0  0  0  0  0  0  0  0
   -3.0907    1.3667   -1.5032 H   0  0  0  0  0  0  0  0  0  0  0  0
   -4.6021    0.4305   -1.5972 H   0  0  0  0  0  0  0  0  0  0  0  0
   -0.3401    2.1981    0.7794 N   0  0  0  0  0  0  0  0  0  0  0  0
    0.1798    3.4610    1.2487 C   0  0  2  0  0  0  0  0  0  0  0  0
   -0.8178    4.0399    2.2433 C   0  0  0  0  0  0  0  0  0  0  0  0
   -2.0051    3.7223    2.2644 O   0  0  0  0  0  0  0  0  0  0  0  0
    0.4190    4.4236    0.0960 C   0  0  0  0  0  0  0  0  0  0  0  0
   -1.3321    2.1424    0.5683 H   0  0  0  0  0  0  0  0  0  0  0  0
    1.1232    3.2437    1.7613 H   0  0  0  0  0  0  0  0  0  0  0  0
   -0.5151    4.6532   -0.4297 H   0  0  0  0  0  0  0  0  0  0  0  0
    0.8400    5.3703    0.4504 H   0  0  0  0  0  0  0  0  0  0  0  0
    1.1137    3.9933   -0.6334 H   0  0  0  0  0  0  0  0  0  0  0  0
   -0.2355    4.9849    3.0765 N   0  0  0  0  0  0  0  0  0  0  0  0
   -0.9776    5.6873    4.0972 C   0  0  0  0  0  0  0  0  0  0  0  0
    0.7601    5.1718    3.0011 H   0  0  0  0  0  0  0  0  0  0  0  0
   -1.3611    6.6332    3.6871 H   0  0  0  0  0  0  0  0  0  0  0  0
   -1.8204    5.0644    4.4317 H   0  0  0  0  0  0  0  0  0  0  0  0
   -0.3168    5.8989    4.9507 H   0  0  0  0  0  0  0  0  0  0  0  0
  1  3  1  0  0  0  0
  1  7  1  0  0  0  0
  1  2  2  0  0  0  0
 35 36  1  0  0  0  0
 36 44  1  0  0  0  0
 36 37  2  0  0  0  0
  8  9  1  0  0  0  0
  9 17  1  0  0  0  0
  9 10  2  0  0  0  0
 18 19  1  0  0  0  0
 19 34  1  0  0  0  0
 19 20  2  0  0  0  0
 35 38  1  0  0  0  0
  8 11  1  0  0  0  0
 44 45  1  0  0  0  0
 23 24  1  0  0  0  0
 21 22  1  0  0  0  0
 18 21  1  0  0  0  0
 22 23  1  0  0  0  0
 34 35  1  0  0  0  0
  7  8  1  0  0  0  0
 17 18  1  0  0  0  0
  3  4  1  0  0  0  0
  3  5  1  0  0  0  0
  3  6  1  0  0  0  0
 38 41  1  0  0  0  0
 38 42  1  0  0  0  0
 38 43  1  0  0  0  0
 11 14  1  0  0  0  0
 11 15  1  0  0  0  0
 11 16  1  0  0  0  0
 45 47  1  0  0  0  0
 45 48  1  0  0  0  0
 45 49  1  0  0  0  0
 24 31  1  0  0  0  0
 24 32  1  0  0  0  0
 24 33  1  0  0  0  0
 21 27  1  0  0  0  0
 21 28  1  0  0  0  0
 22 29  1  0  0  0  0
 22 30  1  0  0  0  0
 35 40  1  0  0  0  0
  8 13  1  0  0  0  0
 18 26  1  0  0  0  0
 44 46  1  0  0  0  0
  7 12  1  0  0  0  0
 34 39  1  0  0  0  0
 17 25  1  0  0  0  0
M  END
$$$$

  -OEChem-05262214473D

 49 48  0     1  0  0  0  0  0999 V2000
   -0.0561   -5.3799    2.6949 C   0  0  0  0  0  0  0  0  0  0  0  0
    0.7325   -5.0736    3.5815 O   0  0  0  0  0  0  0  0  0  0  0  0
   -1.0067   -6.5099    2.9135 C   0  0  0  0  0  0  0  0  0  0  0  0
   -0.5910   -7.4777    2.5899 H   0  0  0  0  0  0  0  0  0  0  0  0
   -1.2629   -6.6440    3.9767 H   0  0  0  0  0  0  0  0  0  0  0  0
   -1.9729   -6.4206    2.3918 H   0  0  0  0  0  0  0  0  0  0  0  0
   -0.1735   -4.7694    1.4571 N   0  0  0  0  0  0  0  0  0  0  0  0
    0.6439   -3.6603    1.0409 C   0  0  2  0  0  0  0  0  0  0  0  0
   -0.2788   -2.5625    0.5280 C   0  0  0  0  0  0  0  0  0  0  0  0
   -1.4197   -2.7791    0.1251 O   0  0  0  0  0  0  0  0  0  0  0  0
    1.6395   -4.0779   -0.0301 C   0  0  0  0  0  0  0  0  0  0  0  0
   -0.8741   -5.1235    0.8083 H   0  0  0  0  0  0  0  0  0  0  0  0
    1.1738   -3.3062    1.9318 H   0  0  0  0  0  0  0  0  0  0  0  0
    1.1270   -4.4358   -0.9305 H   0  0  0  0  0  0  0  0  0  0  0  0
    2.2797   -3.2400   -0.3251 H   0  0  0  0  0  0  0  0  0  0  0  0
    2.2827   -4.8880    0.3303 H   0  0  0  0  0  0  0  0  0  0  0  0
    0.3351   -1.3153    0.5316 N   0  0  0  0  0  0  0  0  0  0  0  0
   -0.3268   -0.1184    0.0807 C   0  0  2  0  0  0  0  0  0  0  0  0
    0.4685    1.0922    0.5597 C   0  0  0  0  0  0  0  0  0  0  0  0
    1.6947    1.1541    0.4981 O   0  0  0  0  0  0  0  0  0  0  0  0
   -1.7986   -0.0728    0.5139 C   0  0  0  0  0  0  0  0  0  0  0  0
   -2.6643   -1.1538   -0.1377 C   0  0  0  0  0  0  0  0  0  0  0  0
   -2.6687   -0.9630   -1.9454 S   0  0  0  0  0  0  0  0  0  0  0  0
   -3.6146    0.5737   -2.0426 C   0  0  0  0  0  0  0  0  0  0  0  0
    1.2790   -1.2290    0.9021 H   0  0  0  0  0  0  0  0  0  0  0  0
   -0.2779   -0.1441   -1.0147 H   0  0  0  0  0  0  0  0  0  0  0  0
   -2.2024    0.9171    0.2624 H   0  0  0  0  0  0  0  0  0  0  0  0
   -1.8534   -0.1719    1.6056 H   0  0  0  0  0  0  0  0  0  0  0  0
   -3.7000   -1.0886    0.2088 H   0  0  0  0  0  0  0  0  0  0  0  0
   -2.2881   -2.1541    0.0964 H   0  0  0  0  0  0  0  0  0  0  0  0
   -3.7334    0.8716   -3.0872 H   0  0  0  0  0  0  0  0  0  0  0  0
   -3.0907    1.3667   -1.5032 H   0  0  0  0  0  0  0  0  0  0  0  0
   -4.6021    0.4305   -1.5972 H   0  0  0  0  0  0  0  0  0  0  0  0
   -0.3480    2.0793    1.0928 N   0  0  0  0  0  0  0  0  0  0  0  0
    0.1732    3.3165    1.6249 C   0  0  2  0  0  0  0  0  0  0  0  0
   -0.6287    3.6672    2.8713 C   0  0  0  0  0  0  0  0  0  0  0  0
   -1.7608    3.2377    3.0834 O   0  0  0  0  0  0  0  0  0  0  0  0
    0.0986    4.4355    0.5979 C   0  0  0  0  0  0  0  0  0  0  0  0
   -1.3561    1.9563    1.0784 H   0  0  0  0  0  0  0  0  0  0  0  0
    1.2160    3.1271    1.9022 H   0  0  0  0  0  0  0  0  0  0  0  0
   -0.9386    4.6395    0.3079 H   0  0  0  0  0  0  0  0  0  0  0  0
    0.5203    5.3656    0.9931 H   0  0  0  0  0  0  0  0  0  0  0  0
    0.6512    4.1691   -0.3096 H   0  0  0  0  0  0  0  0  0  0  0  0
    0.0514    4.5504    3.6981 N   0  0  0  0  0  0  0  0  0  0  0  0
   -0.5041    5.0441    4.9364 C   0  0  0  0  0  0  0  0  0  0  0  0
    0.9938    4.8394    3.4529 H   0  0  0  0  0  0  0  0  0  0  0  0
   -1.0281    5.9934    4.7512 H   0  0  0  0  0  0  0  0  0  0  0  0
   -1.2136    4.3065    5.3397 H   0  0  0  0  0  0  0  0  0  0  0  0
    0.3062    5.2082    5.6620 H   0  0  0  0  0  0  0  0  0  0  0  0
  1  3  1  0  0  0  0
  1  7  1  0  0  0  0
  1  2  2  0  0  0  0
 35 36  1  0  0  0  0
 36 44  1  0  0  0  0
 36 37  2  0  0  0  0
  8  9  1  0  0  0  0
  9 17  1  0  0  0  0
  9 10  2  0  0  0  0
 18 19  1  0  0  0  0
 19 34  1  0  0  0  0
 19 20  2  0  0  0  0
 35 38  1  0  0  0  0
  8 11  1  0  0  0  0
 44 45  1  0  0  0  0
 23 24  1  0  0  0  0
 21 22  1  0  0  0  0
 18 21  1  0  0  0  0
 22 23  1  0  0  0  0
 34 35  1  0  0  0  0
  7  8  1  0  0  0  0
 17 18  1  0  0  0  0
  3  4  1  0  0  0  0
  3  5  1  0  0  0  0
  3  6  1  0  0  0  0
 38 41  1  0  0  0  0
 38 42  1  0  0  0  0
 38 43  1  0  0  0  0
 11 14  1  0  0  0  0
 11 15  1  0  0  0  0
 11 16  1  0  0  0  0
 45 47  1  0  0  0  0
 45 48  1  0  0  0  0
 45 49  1  0  0  0  0
 24 31  1  0  0  0  0
 24 32  1  0  0  0  0
 24 33  1  0  0  0  0
 21 27  1  0  0  0  0
 21 28  1  0  0  0  0
 22 29  1  0  0  0  0
 22 30  1  0  0  0  0
 35 40  1  0  0  0  0
  8 13  1  0  0  0  0
 18 26  1  0  0  0  0
 44 46  1  0  0  0  0
  7 12  1  0  0  0  0
 34 39  1  0  0  0  0
 17 25  1  0  0  0  0
M  END
$$$$

  -OEChem-05262214473D

 49 48  0     1  0  0  0  0  0999 V2000
   -0.0561   -5.3799    2.6949 C   0  0  0  0  0  0  0  0  0  0  0  0
    0.7325   -5.0736    3.5815 O   0  0  0  0  0  0  0  0  0  0  0  0
   -1.0067   -6.5099    2.9135 C   0  0  0  0  0  0  0  0  0  0  0  0
   -0.5910   -7.4777    2.5899 H   0  0  0  0  0  0  0  0  0  0  0  0
   -1.2629   -6.6440    3.9767 H   0  0  0  0  0  0  0  0  0  0  0  0
   -1.9729   -6.4206    2.3918 H   0  0  0  0  0  0  0  0  0  0  0  0
   -0.1735   -4.7694    1.4571 N   0  0  0  0  0  0  0  0  0  0  0  0
    0.6439   -3.6603    1.0409 C   0  0  2  0  0  0  0  0  0  0  0  0
   -0.2788   -2.5625    0.5280 C   0  0  0  0  0  0  0  0  0  0  0  0
   -1.4197   -2.7791    0.1251 O   0  0  0  0  0  0  0  0  0  0  0  0
    1.6395   -4.0779   -0.0301 C   0  0  0  0  0  0  0  0  0  0  0  0
   -0.8741   -5.1235    0.8083 H   0  0  0  0  0  0  0  0  0  0  0  0
    1.1738   -3.3062    1.9318 H   0  0  0  0  0  0  0  0  0  0  0  0
    1.1270   -4.4358   -0.9305 H   0  0  0  0  0  0  0  0  0  0  0  0
    2.2797   -3.2400   -0.3251 H   0  0  0  0  0  0  0  0  0  0  0  0
    2.2827   -4.8880    0.3303 H   0  0  0  0  0  0  0  0  0  0  0  0
    0.3351   -1.3153    0.5316 N   0  0  0  0  0  0  0  0  0  0  0  0
   -0.3268   -0.1184    0.0807 C   0  0  2  0  0  0  0  0  0  0  0  0
    0.4685    1.0922    0.5597 C   0  0  0  0  0  0  0  0  0  0  0  0
    1.6471    1.2780    0.2638 O   0  0  0  0  0  0  0  0  0  0  0  0
   -1.7986   -0.0728    0.5139 C   0  0  0  0  0  0  0  0  0  0  0  0
   -2.6643   -1.1538   -0.1377 C   0  0  0  0  0  0  0  0  0  0  0  0
   -2.6687   -0.9630   -1.9454 S   0  0  0  0  0  0  0  0  0  0  0  0
   -3.6146    0.5737   -2.0426 C   0  0  0  0  0  0  0  0  0  0  0  0
    1.2790   -1.2290    0.9021 H   0  0  0  0  0  0  0  0  0  0  0  0
   -0.2779   -0.1441   -1.0147 H   0  0  0  0  0  0  0  0  0  0  0  0
   -2.2024    0.9171    0.2624 H   0  0  0  0  0  0  0  0  0  0  0  0
   -1.8534   -0.1719    1.6056 H   0  0  0  0  0  0  0  0  0  0  0  0
   -3.7000   -1.0886    0.2088 H   0  0  0  0  0  0  0  0  0  0  0  0
   -2.2881   -2.1541    0.0964 H   0  0  0  0  0  0  0  0  0  0  0  0
   -3.7334    0.8716   -3.0872 H   0  0  0  0  0  0  0  0  0  0  0  0
   -3.0907    1.3667   -1.5032 H   0  0  0  0  0  0  0  0  0  0  0  0
   -4.6021    0.4305   -1.5972 H   0  0  0  0  0  0  0  0  0  0  0  0
   -0.2816    1.9216    1.3811 N   0  0  0  0  0  0  0  0  0  0  0  0
    0.2559    3.1256    1.9702 C   0  0  2  0  0  0  0  0  0  0  0  0
   -0.2868    3.2378    3.3888 C   0  0  0  0  0  0  0  0  0  0  0  0
   -1.3172    2.6790    3.7590 O   0  0  0  0  0  0  0  0  0  0  0  0
   -0.1087    4.3532    1.1501 C   0  0  0  0  0  0  0  0  0  0  0  0
   -1.2595    1.7059    1.5510 H   0  0  0  0  0  0  0  0  0  0  0  0
    1.3439    3.0030    2.0034 H   0  0  0  0  0  0  0  0  0  0  0  0
   -1.1950    4.4924    1.1055 H   0  0  0  0  0  0  0  0  0  0  0  0
    0.3235    5.2618    1.5823 H   0  0  0  0  0  0  0  0  0  0  0  0
    0.2566    4.2576    0.1219 H   0  0  0  0  0  0  0  0  0  0  0  0
    0.4915    4.0702    4.1809 N   0  0  0  0  0  0  0  0  0  0  0  0
    0.1778    4.3481    5.5631 C   0  0  0  0  0  0  0  0  0  0  0  0
    1.3394    4.4765    3.7964 H   0  0  0  0  0  0  0  0  0  0  0  0
   -0.4360    5.2589    5.6244 H   0  0  0  0  0  0  0  0  0  0  0  0
   -0.3794    3.5012    5.9899 H   0  0  0  0  0  0  0  0  0  0  0  0
    1.1101    4.4957    6.1280 H   0  0  0  0  0  0  0  0  0  0  0  0
  1  3  1  0  0  0  0
  1  7  1  0  0  0  0
  1  2  2  0  0  0  0
 35 36  1  0  0  0  0
 36 44  1  0  0  0  0
 36 37  2  0  0  0  0
  8  9  1  0  0  0  0
  9 17  1  0  0  0  0
  9 10  2  0  0  0  0
 18 19  1  0  0  0  0
 19 34  1  0  0  0  0
 19 20  2  0  0  0  0
 35 38  1  0  0  0  0
  8 11  1  0  0  0  0
 44 45  1  0  0  0  0
 23 24  1  0  0  0  0
 21 22  1  0  0  0  0
 18 21  1  0  0  0  0
 22 23  1  0  0  0  0
 34 35  1  0  0  0  0
  7  8  1  0  0  0  0
 17 18  1  0  0  0  0
  3  4  1  0  0  0  0
  3  5  1  0  0  0  0
  3  6  1  0  0  0  0
 38 41  1  0  0  0  0
 38 42  1  0  0  0  0
 38 43  1  0  0  0  0
 11 14  1  0  0  0  0
 11 15  1  0  0  0  0
 11 16  1  0  0  0  0
 45 47  1  0  0  0  0
 45 48  1  0  0  0  0
 45 49  1  0  0  0  0
 24 31  1  0  0  0  0
 24 32  1  0  0  0  0
 24 33  1  0  0  0  0
 21 27  1  0  0  0  0
 21 28  1  0  0  0  0
 22 29  1  0  0  0  0
 22 30  1  0  0  0  0
 35 40  1  0  0  0  0
  8 13  1  0  0  0  0
 18 26  1  0  0  0  0
 44 46  1  0  0  0  0
  7 12  1  0  0  0  0
 34 39  1  0  0  0  0
 17 25  1  0  0  0  0
M  END
$$$$

  -OEChem-05262214473D

 49 48  0     1  0  0  0  0  0999 V2000
   -0.0561   -5.3799    2.6949 C   0  0  0  0  0  0  0  0  0  0  0  0
    0.7325   -5.0736    3.5815 O   0  0  0  0  0  0  0  0  0  0  0  0
   -1.0067   -6.5099    2.9135 C   0  0  0  0  0  0  0  0  0  0  0  0
   -0.5910   -7.4777    2.5899 H   0  0  0  0  0  0  0  0  0  0  0  0
   -1.2629   -6.6440    3.9767 H   0  0  0  0  0  0  0  0  0  0  0  0
   -1.9729   -6.4206    2.3918 H   0  0  0  0  0  0  0  0  0  0  0  0
   -0.1735   -4.7694    1.4571 N   0  0  0  0  0  0  0  0  0  0  0  0
    0.6439   -3.6603    1.0409 C   0  0  2  0  0  0  0  0  0  0  0  0
   -0.2788   -2.5625    0.5280 C   0  0  0  0  0  0  0  0  0  0  0  0
   -1.4197   -2.7791    0.1251 O   0  0  0  0  0  0  0  0  0  0  0  0
    1.6395   -4.0779   -0.0301 C   0  0  0  0  0  0  0  0  0  0  0  0
   -0.8741   -5.1235    0.8083 H   0  0  0  0  0  0  0  0  0  0  0  0
    1.1738   -3.3062    1.9318 H   0  0  0  0  0  0  0  0  0  0  0  0
    1.1270   -4.4358   -0.9305 H   0  0  0  0  0  0  0  0  0  0  0  0
    2.2797   -3.2400   -0.3251 H   0  0  0  0  0  0  0  0  0  0  0  0
    2.2827   -4.8880    0.3303 H   0  0  0  0  0  0  0  0  0  0  0  0
    0.3351   -1.3153    0.5316 N   0  0  0  0  0  0  0  0  0  0  0  0
   -0.3268   -0.1184    0.0807 C   0  0  2  0  0  0  0  0  0  0  0  0
    0.4685    1.0922    0.5597 C   0  0  0  0  0  0  0  0  0  0  0  0
    1.5430    1.4255    0.0641 O   0  0  0  0  0  0  0  0  0  0  0  0
   -1.7986   -0.0728    0.5139 C   0  0  0  0  0  0  0  0  0  0  0  0
   -2.6643   -1.1538   -0.1377 C   0  0  0  0  0  0  0  0  0  0  0  0
   -2.6687   -0.9630   -1.9454 S   0  0  0  0  0  0  0  0  0  0  0  0
   -3.6146    0.5737   -2.0426 C   0  0  0  0  0  0  0  0  0  0  0  0
    1.2790   -1.2290    0.9021 H   0  0  0  0  0  0  0  0  0  0  0  0
   -0.2779   -0.1441   -1.0147 H   0  0  0  0  0  0  0  0  0  0  0  0
   -2.2024    0.9171    0.2624 H   0  0  0  0  0  0  0  0  0  0  0  0
   -1.8534   -0.1719    1.6056 H   0  0  0  0  0  0  0  0  0  0  0  0
   -3.7000   -1.0886    0.2088 H   0  0  0  0  0  0  0  0  0  0  0  0
   -2.2881   -2.1541    0.0964 H   0  0  0  0  0  0  0  0  0  0  0  0
   -3.7334    0.8716   -3.0872 H   0  0  0  0  0  0  0  0  0  0  0  0
   -3.0907    1.3667   -1.5032 H   0  0  0  0  0  0  0  0  0  0  0  0
   -4.6021    0.4305   -1.5972 H   0  0  0  0  0  0  0  0  0  0  0  0
   -0.1454    1.7357    1.6247 N   0  0  0  0  0  0  0  0  0  0  0  0
    0.4221    2.9013    2.2610 C   0  0  2  0  0  0  0  0  0  0  0  0
    0.1847    2.7810    3.7605 C   0  0  0  0  0  0  0  0  0  0  0  0
   -0.7045    2.0842    4.2451 O   0  0  0  0  0  0  0  0  0  0  0  0
   -0.1889    4.1824    1.7149 C   0  0  0  0  0  0  0  0  0  0  0  0
   -1.0487    1.4080    1.9538 H   0  0  0  0  0  0  0  0  0  0  0  0
    1.4984    2.8798    2.0582 H   0  0  0  0  0  0  0  0  0  0  0  0
   -1.2670    4.2219    1.9087 H   0  0  0  0  0  0  0  0  0  0  0  0
    0.2627    5.0661    2.1778 H   0  0  0  0  0  0  0  0  0  0  0  0
   -0.0431    4.2528    0.6316 H   0  0  0  0  0  0  0  0  0  0  0  0
    1.0549    3.5770    4.4922 N   0  0  0  0  0  0  0  0  0  0  0  0
    1.0218    3.6468    5.9344 C   0  0  0  0  0  0  0  0  0  0  0  0
    1.7733    4.1076    4.0084 H   0  0  0  0  0  0  0  0  0  0  0  0
    0.3750    4.4797    6.2471 H   0  0  0  0  0  0  0  0  0  0  0  0
    0.6254    2.7034    6.3380 H   0  0  0  0  0  0  0  0  0  0  0  0
    2.0402    3.8099    6.3169 H   0  0  0  0  0  0  0  0  0  0  0  0
  1  3  1  0  0  0  0
  1  7  1  0  0  0  0
  1  2  2  0  0  0  0
 35 36  1  0  0  0  0
 36 44  1  0  0  0  0
 36 37  2  0  0  0  0
  8  9  1  0  0  0  0
  9 17  1  0  0  0  0
  9 10  2  0  0  0  0
 18 19  1  0  0  0  0
 19 34  1  0  0  0  0
 19 20  2  0  0  0  0
 35 38  1  0  0  0  0
  8 11  1  0  0  0  0
 44 45  1  0  0  0  0
 23 24  1  0  0  0  0
 21 22  1  0  0  0  0
 18 21  1  0  0  0  0
 22 23  1  0  0  0  0
 34 35  1  0  0  0  0
  7  8  1  0  0  0  0
 17 18  1  0  0  0  0
  3  4  1  0  0  0  0
  3  5  1  0  0  0  0
  3  6  1  0  0  0  0
 38 41  1  0  0  0  0
 38 42  1  0  0  0  0
 38 43  1  0  0  0  0
 11 14  1  0  0  0  0
 11 15  1  0  0  0  0
 11 16  1  0  0  0  0
 45 47  1  0  0  0  0
 45 48  1  0  0  0  0
 45 49  1  0  0  0  0
 24 31  1  0  0  0  0
 24 32  1  0  0  0  0
 24 33  1  0  0  0  0
 21 27  1  0  0  0  0
 21 28  1  0  0  0  0
 22 29  1  0  0  0  0
 22 30  1  0  0  0  0
 35 40  1  0  0  0  0
  8 13  1  0  0  0  0
 18 26  1  0  0  0  0
 44 46  1  0  0  0  0
  7 12  1  0  0  0  0
 34 39  1  0  0  0  0
 17 25  1  0  0  0  0
M  END
$$$$

  -OEChem-05262214473D

 49 48  0     1  0  0  0  0  0999 V2000
   -0.0561   -5.3799    2.6949 C   0  0  0  0  0  0  0  0  0  0  0  0
    0.7325   -5.0736    3.5815 O   0  0  0  0  0  0  0  0  0  0  0  0
   -1.0067   -6.5099    2.9135 C   0  0  0  0  0  0  0  0  0  0  0  0
   -0.5910   -7.4777    2.5899 H   0  0  0  0  0  0  0  0  0  0  0  0
   -1.2629   -6.6440    3.9767 H   0  0  0  0  0  0  0  0  0  0  0  0
   -1.9729   -6.4206    2.3918 H   0  0  0  0  0  0  0  0  0  0  0  0
   -0.1735   -4.7694    1.4571 N   0  0  0  0  0  0  0  0  0  0  0  0
    0.6439   -3.6603    1.0409 C   0  0  2  0  0  0  0  0  0  0  0  0
   -0.2788   -2.5625    0.5280 C   0  0  0  0  0  0  0  0  0  0  0  0
   -1.4197   -2.7791    0.1251 O   0  0  0  0  0  0  0  0  0  0  0  0
    1.6395   -4.0779   -0.0301 C   0  0  0  0  0  0  0  0  0  0  0  0
   -0.8741   -5.1235    0.8083 H   0  0  0  0  0  0  0  0  0  0  0  0
    1.1738   -3.3062    1.9318 H   0  0  0  0  0  0  0  0  0  0  0  0
    1.1270   -4.4358   -0.9305 H   0  0  0  0  0  0  0  0  0  0  0  0
    2.2797   -3.2400   -0.3251 H   0  0  0  0  0  0  0  0  0  0  0  0
    2.2827   -4.8880    0.3303 H   0  0  0  0  0  0  0  0  0  0  0  0
    0.3351   -1.3153    0.5316 N   0  0  0  0  0  0  0  0  0  0  0  0
   -0.3268   -0.1184    0.0807 C   0  0  2  0  0  0  0  0  0  0  0  0
    0.4685    1.0922    0.5597 C   0  0  0  0  0  0  0  0  0  0  0  0
    1.3894    1.5864   -0.0876 O   0  0  0  0  0  0  0  0  0  0  0  0
   -1.7986   -0.0728    0.5139 C   0  0  0  0  0  0  0  0  0  0  0  0
   -2.6643   -1.1538   -0.1377 C   0  0  0  0  0  0  0  0  0  0  0  0
   -2.6687   -0.9630   -1.9454 S   0  0  0  0  0  0  0  0  0  0  0  0
   -3.6146    0.5737   -2.0426 C   0  0  0  0  0  0  0  0  0  0  0  0
    1.2790   -1.2290    0.9021 H   0  0  0  0  0  0  0  0  0  0  0  0
   -0.2779   -0.1441   -1.0147 H   0  0  0  0  0  0  0  0  0  0  0  0
   -2.2024    0.9171    0.2624 H   0  0  0  0  0  0  0  0  0  0  0  0
   -1.8534   -0.1719    1.6056 H   0  0  0  0  0  0  0  0  0  0  0  0
   -3.7000   -1.0886    0.2088 H   0  0  0  0  0  0  0  0  0  0  0  0
   -2.2881   -2.1541    0.0964 H   0  0  0  0  0  0  0  0  0  0  0  0
   -3.7334    0.8716   -3.0872 H   0  0  0  0  0  0  0  0  0  0  0  0
   -3.0907    1.3667   -1.5032 H   0  0  0  0  0  0  0  0  0  0  0  0
   -4.6021    0.4305   -1.5972 H   0  0  0  0  0  0  0  0  0  0  0  0
    0.0513    1.5344    1.8069 N   0  0  0  0  0  0  0  0  0  0  0  0
    0.6606    2.6590    2.4774 C   0  0  2  0  0  0  0  0  0  0  0  0
    0.7535    2.3280    3.9611 C   0  0  0  0  0  0  0  0  0  0  0  0
    0.0354    1.4939    4.5085 O   0  0  0  0  0  0  0  0  0  0  0  0
   -0.1364    3.9347    2.2539 C   0  0  0  0  0  0  0  0  0  0  0  0
   -0.7382    1.0831    2.2594 H   0  0  0  0  0  0  0  0  0  0  0  0
    1.6689    2.7660    2.0627 H   0  0  0  0  0  0  0  0  0  0  0  0
   -1.1496    3.8464    2.6629 H   0  0  0  0  0  0  0  0  0  0  0  0
    0.3422    4.7917    2.7391 H   0  0  0  0  0  0  0  0  0  0  0  0
   -0.2276    4.1551    1.1849 H   0  0  0  0  0  0  0  0  0  0  0  0
    1.7030    3.1044    4.6106 N   0  0  0  0  0  0  0  0  0  0  0  0
    1.9703    2.9877    6.0251 C   0  0  0  0  0  0  0  0  0  0  0  0
    2.2659    3.7579    4.0742 H   0  0  0  0  0  0  0  0  0  0  0  0
    1.3496    3.7090    6.5769 H   0  0  0  0  0  0  0  0  0  0  0  0
    1.7322    1.9675    6.3602 H   0  0  0  0  0  0  0  0  0  0  0  0
    3.0332    3.1976    6.2158 H   0  0  0  0  0  0  0  0  0  0  0  0
  1  3  1  0  0  0  0
  1  7  1  0  0  0  0
  1  2  2  0  0  0  0
 35 36  1  0  0  0  0
 36 44  1  0  0  0  0
 36 37  2  0  0  0  0
  8  9  1  0  0  0  0
  9 17  1  0  0  0  0
  9 10  2  0  0  0  0
 18 19  1  0  0  0  0
 19 34  1  0  0  0  0
 19 20  2  0  0  0  0
 35 38  1  0  0  0  0
  8 11  1  0  0  0  0
 44 45  1  0  0  0  0
 23 24  1  0  0  0  0
 21 22  1  0  0  0  0
 18 21  1  0  0  0  0
 22 23  1  0  0  0  0
 34 35  1  0  0  0  0
  7  8  1  0  0  0  0
 17 18  1  0  0  0  0
  3  4  1  0  0  0  0
  3  5  1  0  0  0  0
  3  6  1  0  0  0  0
 38 41  1  0  0  0  0
 38 42  1  0  0  0  0
 38 43  1  0  0  0  0
 11 14  1  0  0  0  0
 11 15  1  0  0  0  0
 11 16  1  0  0  0  0
 45 47  1  0  0  0  0
 45 48  1  0  0  0  0
 45 49  1  0  0  0  0
 24 31  1  0  0  0  0
 24 32  1  0  0  0  0
 24 33  1  0  0  0  0
 21 27  1  0  0  0  0
 21 28  1  0  0  0  0
 22 29  1  0  0  0  0
 22 30  1  0  0  0  0
 35 40  1  0  0  0  0
  8 13  1  0  0  0  0
 18 26  1  0  0  0  0
 44 46  1  0  0  0  0
  7 12  1  0  0  0  0
 34 39  1  0  0  0  0
 17 25  1  0  0  0  0
M  END
$$$$

  -OEChem-05262214473D

 49 48  0     1  0  0  0  0  0999 V2000
   -0.0561   -5.3799    2.6949 C   0  0  0  0  0  0  0  0  0  0  0  0
    0.7325   -5.0736    3.5815 O   0  0  0  0  0  0  0  0  0  0  0  0
   -1.0067   -6.5099    2.9135 C   0  0  0  0  0  0  0  0  0  0  0  0
   -0.5910   -7.4777    2.5899 H   0  0  0  0  0  0  0  0  0  0  0  0
   -1.2629   -6.6440    3.9767 H   0  0  0  0  0  0  0  0  0  0  0  0
   -1.9729   -6.4206    2.3918 H   0  0  0  0  0  0  0  0  0  0  0  0
   -0.1735   -4.7694    1.4571 N   0  0  0  0  0  0  0  0  0  0  0  0
    0.6439   -3.6603    1.0409 C   0  0  2  0  0  0  0  0  0  0  0  0
   -0.2788   -2.5625    0.5280 C   0  0  0  0  0  0  0  0  0  0  0  0
   -1.4197   -2.7791    0.1251 O   0  0  0  0  0  0  0  0  0  0  0  0
    1.6395   -4.0779   -0.0301 C   0  0  0  0  0  0  0  0  0  0  0  0
   -0.8741   -5.1235    0.8083 H   0  0  0  0  0  0  0  0  0  0  0  0
    1.1738   -3.3062    1.9318 H   0  0  0  0  0  0  0  0  0  0  0  0
    1.1270   -4.4358   -0.9305 H   0  0  0  0  0  0  0  0  0  0  0  0
    2.2797   -3.2400   -0.3251 H   0  0  0  0  0  0  0  0  0  0  0  0
    2.2827   -4.8880    0.3303 H   0  0  0  0  0  0  0  0  0  0  0  0
    0.3351   -1.3153    0.5316 N   0  0  0  0  0  0  0  0  0  0  0  0
   -0.3268   -0.1184    0.0807 C   0  0  2  0  0  0  0  0  0  0  0  0
    0.4685    1.0922    0.5597 C   0  0  0  0  0  0  0  0  0  0  0  0
    1.1968    1.7498   -0.1808 O   0  0  0  0  0  0  0  0  0  0  0  0
   -1.7986   -0.0728    0.5139 C   0  0  0  0  0  0  0  0  0  0  0  0
   -2.6643   -1.1538   -0.1377 C   0  0  0  0  0  0  0  0  0  0  0  0
   -2.6687   -0.9630   -1.9454 S   0  0  0  0  0  0  0  0  0  0  0  0
   -3.6146    0.5737   -2.0426 C   0  0  0  0  0  0  0  0  0  0  0  0
    1.2790   -1.2290    0.9021 H   0  0  0  0  0  0  0  0  0  0  0  0
   -0.2779   -0.1441   -1.0147 H   0  0  0  0  0  0  0  0  0  0  0  0
   -2.2024    0.9171    0.2624 H   0  0  0  0  0  0  0  0  0  0  0  0
   -1.8534   -0.1719    1.6056 H   0  0  0  0  0  0  0  0  0  0  0  0
   -3.7000   -1.0886    0.2088 H   0  0  0  0  0  0  0  0  0  0  0  0
   -2.2881   -2.1541    0.0964 H   0  0  0  0  0  0  0  0  0  0  0  0
   -3.7334    0.8716   -3.0872 H   0  0  0  0  0  0  0  0  0  0  0  0
   -3.0907    1.3667   -1.5032 H   0  0  0  0  0  0  0  0  0  0  0  0
   -4.6021    0.4305   -1.5972 H   0  0  0  0  0  0  0  0  0  0  0  0
    0.2950    1.3314    1.9154 N   0  0  0  0  0  0  0  0  0  0  0  0
    0.9552    2.4151    2.6048 C   0  0  2  0  0  0  0  0  0  0  0  0
    1.3810    1.9095    3.9769 C   0  0  0  0  0  0  0  0  0  0  0  0
    0.8522    0.9483    4.5314 O   0  0  0  0  0  0  0  0  0  0  0  0
    0.0451    3.6269    2.7304 C   0  0  0  0  0  0  0  0  0  0  0  0
   -0.3491    0.7533    2.4470 H   0  0  0  0  0  0  0  0  0  0  0  0
    1.8438    2.6693    2.0168 H   0  0  0  0  0  0  0  0  0  0  0  0
   -0.8508    3.3914    3.3165 H   0  0  0  0  0  0  0  0  0  0  0  0
    0.5566    4.4575    3.2280 H   0  0  0  0  0  0  0  0  0  0  0  0
   -0.2841    3.9710    1.7440 H   0  0  0  0  0  0  0  0  0  0  0  0
    2.3917    2.6846    4.5281 N   0  0  0  0  0  0  0  0  0  0  0  0
    2.9587    2.4160    5.8290 C   0  0  0  0  0  0  0  0  0  0  0  0
    2.7836    3.4513    3.9894 H   0  0  0  0  0  0  0  0  0  0  0  0
    2.4213    2.9993    6.5913 H   0  0  0  0  0  0  0  0  0  0  0  0
    2.8657    1.3435    6.0551 H   0  0  0  0  0  0  0  0  0  0  0  0
    4.0213    2.7005    5.8316 H   0  0  0  0  0  0  0  0  0  0  0  0
  1  3  1  0  0  0  0
  1  7  1  0  0  0  0
  1  2  2  0  0  0  0
 35 36  1  0  0  0  0
 36 44  1  0  0  0  0
 36 37  2  0  0  0  0
  8  9  1  0  0  0  0
  9 17  1  0  0  0  0
  9 10  2  0  0  0  0
 18 19  1  0  0  0  0
 19 34  1  0  0  0  0
 19 20  2  0  0  0  0
 35 38  1  0  0  0  0
  8 11  1  0  0  0  0
 44 45  1  0  0  0  0
 23 24  1  0  0  0  0
 21 22  1  0  0  0  0
 18 21  1  0  0  0  0
 22 23  1  0  0  0  0
 34 35  1  0  0  0  0
  7  8  1  0  0  0  0
 17 18  1  0  0  0  0
  3  4  1  0  0  0  0
  3  5  1  0  0  0  0
  3  6  1  0  0  0  0
 38 41  1  0  0  0  0
 38 42  1  0  0  0  0
 38 43  1  0  0  0  0
 11 14  1  0  0  0  0
 11 15  1  0  0  0  0
 11 16  1  0  0  0  0
 45 47  1  0  0  0  0
 45 48  1  0  0  0  0
 45 49  1  0  0  0  0
 24 31  1  0  0  0  0
 24 32  1  0  0  0  0
 24 33  1  0  0  0  0
 21 27  1  0  0  0  0
 21 28  1  0  0  0  0
 22 29  1  0  0  0  0
 22 30  1  0  0  0  0
 35 40  1  0  0  0  0
  8 13  1  0  0  0  0
 18 26  1  0  0  0  0
 44 46  1  0  0  0  0
  7 12  1  0  0  0  0
 34 39  1  0  0  0  0
 17 25  1  0  0  0  0
M  END
$$$$

  -OEChem-05262214473D

 49 48  0     1  0  0  0  0  0999 V2000
   -0.0561   -5.3799    2.6949 C   0  0  0  0  0  0  0  0  0  0  0  0
    0.7325   -5.0736    3.5815 O   0  0  0  0  0  0  0  0  0  0  0  0
   -1.0067   -6.5099    2.9135 C   0  0  0  0  0  0  0  0  0  0  0  0
   -0.5910   -7.4777    2.5899 H   0  0  0  0  0  0  0  0  0  0  0  0
   -1.2629   -6.6440    3.9767 H   0  0  0  0  0  0  0  0  0  0  0  0
   -1.9729   -6.4206    2.3918 H   0  0  0  0  0  0  0  0  0  0  0  0
   -0.1735   -4.7694    1.4571 N   0  0  0  0  0  0  0  0  0  0  0  0
    0.6439   -3.6603    1.0409 C   0  0  2  0  0  0  0  0  0  0  0  0
   -0.2788   -2.5625    0.5280 C   0  0  0  0  0  0  0  0  0  0  0  0
   -1.4197   -2.7791    0.1251 O   0  0  0  0  0  0  0  0  0  0  0  0
    1.6395   -4.0779   -0.0301 C   0  0  0  0  0  0  0  0  0  0  0  0
   -0.8741   -5.1235    0.8083 H   0  0  0  0  0  0  0  0  0  0  0  0
    1.1738   -3.3062    1.9318 H   0  0  0  0  0  0  0  0  0  0  0  0
    1.1270   -4.4358   -0.9305 H   0  0  0  0  0  0  0  0  0  0  0  0
    2.2797   -3.2400   -0.3251 H   0  0  0  0  0  0  0  0  0  0  0  0
    2.2827   -4.8880    0.3303 H   0  0  0  0  0  0  0  0  0  0  0  0
    0.3351   -1.3153    0.5316 N   0  0  0  0  0  0  0  0  0  0  0  0
   -0.3268   -0.1184    0.0807 C   0  0  2  0  0  0  0  0  0  0  0  0
    0.4685    1.0922    0.5597 C   0  0  0  0  0  0  0  0  0  0  0  0
    0.9783    1.9046   -0.2093 O   0  0  0  0  0  0  0  0  0  0  0  0
   -1.7986   -0.0728    0.5139 C   0  0  0  0  0  0  0  0  0  0  0  0
   -2.6643   -1.1538   -0.1377 C   0  0  0  0  0  0  0  0  0  0  0  0
   -2.6687   -0.9630   -1.9454 S   0  0  0  0  0  0  0  0  0  0  0  0
   -3.6146    0.5737   -2.0426 C   0  0  0  0  0  0  0  0  0  0  0  0
    1.2790   -1.2290    0.9021 H   0  0  0  0  0  0  0  0  0  0  0  0
   -0.2779   -0.1441   -1.0147 H   0  0  0  0  0  0  0  0  0  0  0  0
   -2.2024    0.9171    0.2624 H   0  0  0  0  0  0  0  0  0  0  0  0
   -1.8534   -0.1719    1.6056 H   0  0  0  0  0  0  0  0  0  0  0  0
   -3.7000   -1.0886    0.2088 H   0  0  0  0  0  0  0  0  0  0  0  0
   -2.2881   -2.1541    0.0964 H   0  0  0  0  0  0  0  0  0  0  0  0
   -3.7334    0.8716   -3.0872 H   0  0  0  0  0  0  0  0  0  0  0  0
   -3.0907    1.3667   -1.5032 H   0  0  0  0  0  0  0  0  0  0  0  0
   -4.6021    0.4305   -1.5972 H   0  0  0  0  0  0  0  0  0  0  0  0
    0.5693    1.1404    1.9427 N   0  0  0  0  0  0  0  0  0  0  0  0
    1.2857    2.1862    2.6345 C   0  0  2  0  0  0  0  0  0  0  0  0
    2.0243    1.5542    3.8068 C   0  0  0  0  0  0  0  0  0  0  0  0
    1.6901    0.4845    4.3121 O   0  0  0  0  0  0  0  0  0  0  0  0
    0.3432    3.2801    3.1118 C   0  0  0  0  0  0  0  0  0  0  0  0
    0.0921    0.4410    2.5038 H   0  0  0  0  0  0  0  0  0  0  0  0
    2.0111    2.5964    1.9234 H   0  0  0  0  0  0  0  0  0  0  0  0
   -0.3909    2.8881    3.8252 H   0  0  0  0  0  0  0  0  0  0  0  0
    0.8913    4.0861    3.6110 H   0  0  0  0  0  0  0  0  0  0  0  0
   -0.2090    3.7132    2.2708 H   0  0  0  0  0  0  0  0  0  0  0  0
    3.0742    2.3461    4.2503 N   0  0  0  0  0  0  0  0  0  0  0  0
    3.9196    1.9706    5.3595 C   0  0  0  0  0  0  0  0  0  0  0  0
    3.2912    3.2087    3.7598 H   0  0  0  0  0  0  0  0  0  0  0  0
    3.5171    2.3988    6.2893 H   0  0  0  0  0  0  0  0  0  0  0  0
    3.9486    0.8742    5.4434 H   0  0  0  0  0  0  0  0  0  0  0  0
    4.9372    2.3525    5.1904 H   0  0  0  0  0  0  0  0  0  0  0  0
  1  3  1  0  0  0  0
  1  7  1  0  0  0  0
  1  2  2  0  0  0  0
 35 36  1  0  0  0  0
 36 44  1  0  0  0  0
 36 37  2  0  0  0  0
  8  9  1  0  0  0  0
  9 17  1  0  0  0  0
  9 10  2  0  0  0  0
 18 19  1  0  0  0  0
 19 34  1  0  0  0  0
 19 20  2  0  0  0  0
 35 38  1  0  0  0  0
  8 11  1  0  0  0  0
 44 45  1  0  0  0  0
 23 24  1  0  0  0  0
 21 22  1  0  0  0  0
 18 21  1  0  0  0  0
 22 23  1  0  0  0  0
 34 35  1  0  0  0  0
  7  8  1  0  0  0  0
 17 18  1  0  0  0  0
  3  4  1  0  0  0  0
  3  5  1  0  0  0  0
  3  6  1  0  0  0  0
 38 41  1  0  0  0  0
 38 42  1  0  0  0  0
 38 43  1  0  0  0  0
 11 14  1  0  0  0  0
 11 15  1  0  0  0  0
 11 16  1  0  0  0  0
 45 47  1  0  0  0  0
 45 48  1  0  0  0  0
 45 49  1  0  0  0  0
 24 31  1  0  0  0  0
 24 32  1  0  0  0  0
 24 33  1  0  0  0  0
 21 27  1  0  0  0  0
 21 28  1  0  0  0  0
 22 29  1  0  0  0  0
 22 30  1  0  0  0  0
 35 40  1  0  0  0  0
  8 13  1  0  0  0  0
 18 26  1  0  0  0  0
 44 46  1  0  0  0  0
  7 12  1  0  0  0  0
 34 39  1  0  0  0  0
 17 25  1  0  0  0  0
M  END
$$$$

  -OEChem-05262214473D

 49 48  0     1  0  0  0  0  0999 V2000
   -0.0561   -5.3799    2.6949 C   0  0  0  0  0  0  0  0  0  0  0  0
    0.7325   -5.0736    3.5815 O   0  0  0  0  0  0  0  0  0  0  0  0
   -1.0067   -6.5099    2.9135 C   0  0  0  0  0  0  0  0  0  0  0  0
   -0.5910   -7.4777    2.5899 H   0  0  0  0  0  0  0  0  0  0  0  0
   -1.2629   -6.6440    3.9767 H   0  0  0  0  0  0  0  0  0  0  0  0
   -1.9729   -6.4206    2.3918 H   0  0  0  0  0  0  0  0  0  0  0  0
   -0.1735   -4.7694    1.4571 N   0  0  0  0  0  0  0  0  0  0  0  0
    0.6439   -3.6603    1.0409 C   0  0  2  0  0  0  0  0  0  0  0  0
   -0.2788   -2.5625    0.5280 C   0  0  0  0  0  0  0  0  0  0  0  0
   -1.4197   -2.7791    0.1251 O   0  0  0  0  0  0  0  0  0  0  0  0
    1.6395   -4.0779   -0.0301 C   0  0  0  0  0  0  0  0  0  0  0  0
   -0.8741   -5.1235    0.8083 H   0  0  0  0  0  0  0  0  0  0  0  0
    1.1738   -3.3062    1.9318 H   0  0  0  0  0  0  0  0  0  0  0  0
    1.1270   -4.4358   -0.9305 H   0  0  0  0  0  0  0  0  0  0  0  0
    2.2797   -3.2400   -0.3251 H   0  0  0  0  0  0  0  0  0  0  0  0
    2.2827   -4.8880    0.3303 H   0  0  0  0  0  0  0  0  0  0  0  0
    0.3351   -1.3153    0.5316 N   0  0  0  0  0  0  0  0  0  0  0  0
   -0.3268   -0.1184    0.0807 C   0  0  2  0  0  0  0  0  0  0  0  0
    0.4685    1.0922    0.5597 C   0  0  0  0  0  0  0  0  0  0  0  0
    0.7489    2.0402   -0.1710 O   0  0  0  0  0  0  0  0  0  0  0  0
   -1.7986   -0.0728    0.5139 C   0  0  0  0  0  0  0  0  0  0  0  0
   -2.6643   -1.1538   -0.1377 C   0  0  0  0  0  0  0  0  0  0  0  0
   -2.6687   -0.9630   -1.9454 S   0  0  0  0  0  0  0  0  0  0  0  0
   -3.6146    0.5737   -2.0426 C   0  0  0  0  0  0  0  0  0  0  0  0
    1.2790   -1.2290    0.9021 H   0  0  0  0  0  0  0  0  0  0  0  0
   -0.2779   -0.1441   -1.0147 H   0  0  0  0  0  0  0  0  0  0  0  0
   -2.2024    0.9171    0.2624 H   0  0  0  0  0  0  0  0  0  0  0  0
   -1.8534   -0.1719    1.6056 H   0  0  0  0  0  0  0  0  0  0  0  0
   -3.7000   -1.0886    0.2088 H   0  0  0  0  0  0  0  0  0  0  0  0
   -2.2881   -2.1541    0.0964 H   0  0  0  0  0  0  0  0  0  0  0  0
   -3.7334    0.8716   -3.0872 H   0  0  0  0  0  0  0  0  0  0  0  0
   -3.0907    1.3667   -1.5032 H   0  0  0  0  0  0  0  0  0  0  0  0
   -4.6021    0.4305   -1.5972 H   0  0  0  0  0  0  0  0  0  0  0  0
    0.8553    0.9746    1.8870 N   0  0  0  0  0  0  0  0  0  0  0  0
    1.6296    1.9880    2.5644 C   0  0  2  0  0  0  0  0  0  0  0  0
    2.6396    1.2862    3.4625 C   0  0  0  0  0  0  0  0  0  0  0  0
    2.4922    0.1343    3.8656 O   0  0  0  0  0  0  0  0  0  0  0  0
    0.7378    2.9179    3.3723 C   0  0  0  0  0  0  0  0  0  0  0  0
    0.5553    0.1675    2.4258 H   0  0  0  0  0  0  0  0  0  0  0  0
    2.1594    2.5521    1.7890 H   0  0  0  0  0  0  0  0  0  0  0  0
    0.1987    2.3706    4.1541 H   0  0  0  0  0  0  0  0  0  0  0  0
    1.3234    3.7028    3.8621 H   0  0  0  0  0  0  0  0  0  0  0  0
   -0.0073    3.3992    2.7295 H   0  0  0  0  0  0  0  0  0  0  0  0
    3.7039    2.1122    3.7961 N   0  0  0  0  0  0  0  0  0  0  0  0
    4.7875    1.6817    4.6485 C   0  0  0  0  0  0  0  0  0  0  0  0
    3.7541    3.0466    3.4011 H   0  0  0  0  0  0  0  0  0  0  0  0
    4.5624    1.9486    5.6916 H   0  0  0  0  0  0  0  0  0  0  0  0
    4.9072    0.5913    4.5668 H   0  0  0  0  0  0  0  0  0  0  0  0
    5.7186    2.1772    4.3361 H   0  0  0  0  0  0  0  0  0  0  0  0
  1  3  1  0  0  0  0
  1  7  1  0  0  0  0
  1  2  2  0  0  0  0
 35 36  1  0  0  0  0
 36 44  1  0  0  0  0
 36 37  2  0  0  0  0
  8  9  1  0  0  0  0
  9 17  1  0  0  0  0
  9 10  2  0  0  0  0
 18 19  1  0  0  0  0
 19 34  1  0  0  0  0
 19 20  2  0  0  0  0
 35 38  1  0  0  0  0
  8 11  1  0  0  0  0
 44 45  1  0  0  0  0
 23 24  1  0  0  0  0
 21 22  1  0  0  0  0
 18 21  1  0  0  0  0
 22 23  1  0  0  0  0
 34 35  1  0  0  0  0
  7  8  1  0  0  0  0
 17 18  1  0  0  0  0
  3  4  1  0  0  0  0
  3  5  1  0  0  0  0
  3  6  1  0  0  0  0
 38 41  1  0  0  0  0
 38 42  1  0  0  0  0
 38 43  1  0  0  0  0
 11 14  1  0  0  0  0
 11 15  1  0  0  0  0
 11 16  1  0  0  0  0
 45 47  1  0  0  0  0
 45 48  1  0  0  0  0
 45 49  1  0  0  0  0
 24 31  1  0  0  0  0
 24 32  1  0  0  0  0
 24 33  1  0  0  0  0
 21 27  1  0  0  0  0
 21 28  1  0  0  0  0
 22 29  1  0  0  0  0
 22 30  1  0  0  0  0
 35 40  1  0  0  0  0
  8 13  1  0  0  0  0
 18 26  1  0  0  0  0
 44 46  1  0  0  0  0
  7 12  1  0  0  0  0
 34 39  1  0  0  0  0
 17 25  1  0  0  0  0
M  END
$$$$

  -OEChem-05262214473D

 49 48  0     1  0  0  0  0  0999 V2000
   -0.0561   -5.3799    2.6949 C   0  0  0  0  0  0  0  0  0  0  0  0
    0.7325   -5.0736    3.5815 O   0  0  0  0  0  0  0  0  0  0  0  0
   -1.0067   -6.5099    2.9135 C   0  0  0  0  0  0  0  0  0  0  0  0
   -0.5910   -7.4777    2.5899 H   0  0  0  0  0  0  0  0  0  0  0  0
   -1.2629   -6.6440    3.9767 H   0  0  0  0  0  0  0  0  0  0  0  0
   -1.9729   -6.4206    2.3918 H   0  0  0  0  0  0  0  0  0  0  0  0
   -0.1735   -4.7694    1.4571 N   0  0  0  0  0  0  0  0  0  0  0  0
    0.6439   -3.6603    1.0409 C   0  0  2  0  0  0  0  0  0  0  0  0
   -0.2788   -2.5625    0.5280 C   0  0  0  0  0  0  0  0  0  0  0  0
   -1.4197   -2.7791    0.1251 O   0  0  0  0  0  0  0  0  0  0  0  0
    1.6395   -4.0779   -0.0301 C   0  0  0  0  0  0  0  0  0  0  0  0
   -0.8741   -5.1235    0.8083 H   0  0  0  0  0  0  0  0  0  0  0  0
    1.1738   -3.3062    1.9318 H   0  0  0  0  0  0  0  0  0  0  0  0
    1.1270   -4.4358   -0.9305 H   0  0  0  0  0  0  0  0  0  0  0  0
    2.2797   -3.2400   -0.3251 H   0  0  0  0  0  0  0  0  0  0  0  0
    2.2827   -4.8880    0.3303 H   0  0  0  0  0  0  0  0  0  0  0  0
    0.3351   -1.3153    0.5316 N   0  0  0  0  0  0  0  0  0  0  0  0
   -0.3268   -0.1184    0.0807 C   0  0  2  0  0  0  0  0  0  0  0  0
    0.4685    1.0922    0.5597 C   0  0  0  0  0  0  0  0  0  0  0  0
    0.5241    2.1473   -0.0687 O   0  0  0  0  0  0  0  0  0  0  0  0
   -1.7986   -0.0728    0.5139 C   0  0  0  0  0  0  0  0  0  0  0  0
   -2.6643   -1.1538   -0.1377 C   0  0  0  0  0  0  0  0  0  0  0  0
   -2.6687   -0.9630   -1.9454 S   0  0  0  0  0  0  0  0  0  0  0  0
   -3.6146    0.5737   -2.0426 C   0  0  0  0  0  0  0  0  0  0  0  0
    1.2790   -1.2290    0.9021 H   0  0  0  0  0  0  0  0  0  0  0  0
   -0.2779   -0.1441   -1.0147 H   0  0  0  0  0  0  0  0  0  0  0  0
   -2.2024    0.9171    0.2624 H   0  0  0  0  0  0  0  0  0  0  0  0
   -1.8534   -0.1719    1.6056 H   0  0  0  0  0  0  0  0  0  0  0  0
   -3.7000   -1.0886    0.2088 H   0  0  0  0  0  0  0  0  0  0  0  0
   -2.2881   -2.1541    0.0964 H   0  0  0  0  0  0  0  0  0  0  0  0
   -3.7334    0.8716   -3.0872 H   0  0  0  0  0  0  0  0  0  0  0  0
   -3.0907    1.3667   -1.5032 H   0  0  0  0  0  0  0  0  0  0  0  0
   -4.6021    0.4305   -1.5972 H   0  0  0  0  0  0  0  0  0  0  0  0
    1.1336    0.8451    1.7521 N   0  0  0  0  0  0  0  0  0  0  0  0
    1.9635    1.8340    2.3993 C   0  0  2  0  0  0  0  0  0  0  0  0
    3.1851    1.1237    2.9674 C   0  0  0  0  0  0  0  0  0  0  0  0
    3.2037   -0.0786    3.2223 O   0  0  0  0  0  0  0  0  0  0  0  0
    1.2018    2.5649    3.4939 C   0  0  0  0  0  0  0  0  0  0  0  0
    1.0089   -0.0485    2.2186 H   0  0  0  0  0  0  0  0  0  0  0  0
    2.2787    2.5395    1.6228 H   0  0  0  0  0  0  0  0  0  0  0  0
    0.8777    1.8743    4.2810 H   0  0  0  0  0  0  0  0  0  0  0  0
    1.8235    3.3339    3.9643 H   0  0  0  0  0  0  0  0  0  0  0  0
    0.3073    3.0504    3.0888 H   0  0  0  0  0  0  0  0  0  0  0  0
    4.2378    1.9986    3.1966 N   0  0  0  0  0  0  0  0  0  0  0  0
    5.5032    1.5692    3.7445 C   0  0  0  0  0  0  0  0  0  0  0  0
    4.1407    2.9760    2.9376 H   0  0  0  0  0  0  0  0  0  0  0  0
    5.4859    1.6794    4.8388 H   0  0  0  0  0  0  0  0  0  0  0  0
    5.6760    0.5143    3.4850 H   0  0  0  0  0  0  0  0  0  0  0  0
    6.3120    2.1867    3.3267 H   0  0  0  0  0  0  0  0  0  0  0  0
  1  3  1  0  0  0  0
  1  7  1  0  0  0  0
  1  2  2  0  0  0  0
 35 36  1  0  0  0  0
 36 44  1  0  0  0  0
 36 37  2  0  0  0  0
  8  9  1  0  0  0  0
  9 17  1  0  0  0  0
  9 10  2  0  0  0  0
 18 19  1  0  0  0  0
 19 34  1  0  0  0  0
 19 20  2  0  0  0  0
 35 38  1  0  0  0  0
  8 11  1  0  0  0  0
 44 45  1  0  0  0  0
 23 24  1  0  0  0  0
 21 22  1  0  0  0  0
 18 21  1  0  0  0  0
 22 23  1  0  0  0  0
 34 35  1  0  0  0  0
  7  8  1  0  0  0  0
 17 18  1  0  0  0  0
  3  4  1  0  0  0  0
  3  5  1  0  0  0  0
  3  6  1  0  0  0  0
 38 41  1  0  0  0  0
 38 42  1  0  0  0  0
 38 43  1  0  0  0  0
 11 14  1  0  0  0  0
 11 15  1  0  0  0  0
 11 16  1  0  0  0  0
 45 47  1  0  0  0  0
 45 48  1  0  0  0  0
 45 49  1  0  0  0  0
 24 31  1  0  0  0  0
 24 32  1  0  0  0  0
 24 33  1  0  0  0  0
 21 27  1  0  0  0  0
 21 28  1  0  0  0  0
 22 29  1  0  0  0  0
 22 30  1  0  0  0  0
 35 40  1  0  0  0  0
  8 13  1  0  0  0  0
 18 26  1  0  0  0  0
 44 46  1  0  0  0  0
  7 12  1  0  0  0  0
 34 39  1  0  0  0  0
 17 25  1  0  0  0  0
M  END
$$$$

  -OEChem-05262214473D

 49 48  0     1  0  0  0  0  0999 V2000
   -0.0561   -5.3799    2.6949 C   0  0  0  0  0  0  0  0  0  0  0  0
    0.7325   -5.0736    3.5815 O   0  0  0  0  0  0  0  0  0  0  0  0
   -1.0067   -6.5099    2.9135 C   0  0  0  0  0  0  0  0  0  0  0  0
   -0.5910   -7.4777    2.5899 H   0  0  0  0  0  0  0  0  0  0  0  0
   -1.2629   -6.6440    3.9767 H   0  0  0  0  0  0  0  0  0  0  0  0
   -1.9729   -6.4206    2.3918 H   0  0  0  0  0  0  0  0  0  0  0  0
   -0.1735   -4.7694    1.4571 N   0  0  0  0  0  0  0  0  0  0  0  0
    0.6439   -3.6603    1.0409 C   0  0  2  0  0  0  0  0  0  0  0  0
   -0.2788   -2.5625    0.5280 C   0  0  0  0  0  0  0  0  0  0  0  0
   -1.4197   -2.7791    0.1251 O   0  0  0  0  0  0  0  0  0  0  0  0
    1.6395   -4.0779   -0.0301 C   0  0  0  0  0  0  0  0  0  0  0  0
   -0.8741   -5.1235    0.8083 H   0  0  0  0  0  0  0  0  0  0  0  0
    1.1738   -3.3062    1.9318 H   0  0  0  0  0  0  0  0  0  0  0  0
    1.1270   -4.4358   -0.9305 H   0  0  0  0  0  0  0  0  0  0  0  0
    2.2797   -3.2400   -0.3251 H   0  0  0  0  0  0  0  0  0  0  0  0
    2.2827   -4.8880    0.3303 H   0  0  0  0  0  0  0  0  0  0  0  0
    0.3351   -1.3153    0.5316 N   0  0  0  0  0  0  0  0  0  0  0  0
   -0.3268   -0.1184    0.0807 C   0  0  2  0  0  0  0  0  0  0  0  0
    0.4685    1.0922    0.5597 C   0  0  0  0  0  0  0  0  0  0  0  0
    0.3193    2.2188    0.0909 O   0  0  0  0  0  0  0  0  0  0  0  0
   -1.7986   -0.0728    0.5139 C   0  0  0  0  0  0  0  0  0  0  0  0
   -2.6643   -1.1538   -0.1377 C   0  0  0  0  0  0  0  0  0  0  0  0
   -2.6687   -0.9630   -1.9454 S   0  0  0  0  0  0  0  0  0  0  0  0
   -3.6146    0.5737   -2.0426 C   0  0  0  0  0  0  0  0  0  0  0  0
    1.2790   -1.2290    0.9021 H   0  0  0  0  0  0  0  0  0  0  0  0
   -0.2779   -0.1441   -1.0147 H   0  0  0  0  0  0  0  0  0  0  0  0
   -2.2024    0.9171    0.2624 H   0  0  0  0  0  0  0  0  0  0  0  0
   -1.8534   -0.1719    1.6056 H   0  0  0  0  0  0  0  0  0  0  0  0
   -3.7000   -1.0886    0.2088 H   0  0  0  0  0  0  0  0  0  0  0  0
   -2.2881   -2.1541    0.0964 H   0  0  0  0  0  0  0  0  0  0  0  0
   -3.7334    0.8716   -3.0872 H   0  0  0  0  0  0  0  0  0  0  0  0
   -3.0907    1.3667   -1.5032 H   0  0  0  0  0  0  0  0  0  0  0  0
   -4.6021    0.4305   -1.5972 H   0  0  0  0  0  0  0  0  0  0  0  0
    1.3852    0.7609    1.5471 N   0  0  0  0  0  0  0  0  0  0  0  0
    2.2646    1.7346    2.1504 C   0  0  2  0  0  0  0  0  0  0  0  0
    3.6235    1.0780    2.3552 C   0  0  0  0  0  0  0  0  0  0  0  0
    3.7762   -0.1397    2.4261 O   0  0  0  0  0  0  0  0  0  0  0  0
    1.7036    2.2453    3.4685 C   0  0  0  0  0  0  0  0  0  0  0  0
    1.4220   -0.1923    1.8961 H   0  0  0  0  0  0  0  0  0  0  0  0
    2.3609    2.5594    1.4360 H   0  0  0  0  0  0  0  0  0  0  0  0
    1.6001    1.4330    4.1970 H   0  0  0  0  0  0  0  0  0  0  0  0
    2.3575    3.0043    3.9105 H   0  0  0  0  0  0  0  0  0  0  0  0
    0.7133    2.6905    3.3241 H   0  0  0  0  0  0  0  0  0  0  0  0
    4.6396    2.0132    2.4924 N   0  0  0  0  0  0  0  0  0  0  0  0
    6.0181    1.6406    2.7091 C   0  0  0  0  0  0  0  0  0  0  0  0
    4.4246    3.0018    2.4010 H   0  0  0  0  0  0  0  0  0  0  0  0
    6.2246    1.6094    3.7891 H   0  0  0  0  0  0  0  0  0  0  0  0
    6.2027    0.6483    2.2718 H   0  0  0  0  0  0  0  0  0  0  0  0
    6.6772    2.3803    2.2312 H   0  0  0  0  0  0  0  0  0  0  0  0
  1  3  1  0  0  0  0
  1  7  1  0  0  0  0
  1  2  2  0  0  0  0
 35 36  1  0  0  0  0
 36 44  1  0  0  0  0
 36 37  2  0  0  0  0
  8  9  1  0  0  0  0
  9 17  1  0  0  0  0
  9 10  2  0  0  0  0
 18 19  1  0  0  0  0
 19 34  1  0  0  0  0
 19 20  2  0  0  0  0
 35 38  1  0  0  0  0
  8 11  1  0  0  0  0
 44 45  1  0  0  0  0
 23 24  1  0  0  0  0
 21 22  1  0  0  0  0
 18 21  1  0  0  0  0
 22 23  1  0  0  0  0
 34 35  1  0  0  0  0
  7  8  1  0  0  0  0
 17 18  1  0  0  0  0
  3  4  1  0  0  0  0
  3  5  1  0  0  0  0
  3  6  1  0  0  0  0
 38 41  1  0  0  0  0
 38 42  1  0  0  0  0
 38 43  1  0  0  0  0
 11 14  1  0  0  0  0
 11 15  1  0  0  0  0
 11 16  1  0  0  0  0
 45 47  1  0  0  0  0
 45 48  1  0  0  0  0
 45 49  1  0  0  0  0
 24 31  1  0  0  0  0
 24 32  1  0  0  0  0
 24 33  1  0  0  0  0
 21 27  1  0  0  0  0
 21 28  1  0  0  0  0
 22 29  1  0  0  0  0
 22 30  1  0  0  0  0
 35 40  1  0  0  0  0
  8 13  1  0  0  0  0
 18 26  1  0  0  0  0
 44 46  1  0  0  0  0
  7 12  1  0  0  0  0
 34 39  1  0  0  0  0
 17 25  1  0  0  0  0
M  END
$$$$

  -OEChem-05262214473D

 49 48  0     1  0  0  0  0  0999 V2000
   -0.0561   -5.3799    2.6949 C   0  0  0  0  0  0  0  0  0  0  0  0
    0.7325   -5.0736    3.5815 O   0  0  0  0  0  0  0  0  0  0  0  0
   -1.0067   -6.5099    2.9135 C   0  0  0  0  0  0  0  0  0  0  0  0
   -0.5910   -7.4777    2.5899 H   0  0  0  0  0  0  0  0  0  0  0  0
   -1.2629   -6.6440    3.9767 H   0  0  0  0  0  0  0  0  0  0  0  0
   -1.9729   -6.4206    2.3918 H   0  0  0  0  0  0  0  0  0  0  0  0
   -0.1735   -4.7694    1.4571 N   0  0  0  0  0  0  0  0  0  0  0  0
    0.6439   -3.6603    1.0409 C   0  0  2  0  0  0  0  0  0  0  0  0
   -0.2788   -2.5625    0.5280 C   0  0  0  0  0  0  0  0  0  0  0  0
   -1.4197   -2.7791    0.1251 O   0  0  0  0  0  0  0  0  0  0  0  0
    1.6395   -4.0779   -0.0301 C   0  0  0  0  0  0  0  0  0  0  0  0
   -0.8741   -5.1235    0.8083 H   0  0  0  0  0  0  0  0  0  0  0  0
    1.1738   -3.3062    1.9318 H   0  0  0  0  0  0  0  0  0  0  0  0
    1.1270   -4.4358   -0.9305 H   0  0  0  0  0  0  0  0  0  0  0  0
    2.2797   -3.2400   -0.3251 H   0  0  0  0  0  0  0  0  0  0  0  0
    2.2827   -4.8880    0.3303 H   0  0  0  0  0  0  0  0  0  0  0  0
    0.3351   -1.3153    0.5316 N   0  0  0  0  0  0  0  0  0  0  0  0
   -0.3268   -0.1184    0.0807 C   0  0  2  0  0  0  0  0  0  0  0  0
    0.4685    1.0922    0.5597 C   0  0  0  0  0  0  0  0  0  0  0  0
    0.1484    2.2496    0.2966 O   0  0  0  0  0  0  0  0  0  0  0  0
   -1.7986   -0.0728    0.5139 C   0  0  0  0  0  0  0  0  0  0  0  0
   -2.6643   -1.1538   -0.1377 C   0  0  0  0  0  0  0  0  0  0  0  0
   -2.6687   -0.9630   -1.9454 S   0  0  0  0  0  0  0  0  0  0  0  0
   -3.6146    0.5737   -2.0426 C   0  0  0  0  0  0  0  0  0  0  0  0
    1.2790   -1.2290    0.9021 H   0  0  0  0  0  0  0  0  0  0  0  0
   -0.2779   -0.1441   -1.0147 H   0  0  0  0  0  0  0  0  0  0  0  0
   -2.2024    0.9171    0.2624 H   0  0  0  0  0  0  0  0  0  0  0  0
   -1.8534   -0.1719    1.6056 H   0  0  0  0  0  0  0  0  0  0  0  0
   -3.7000   -1.0886    0.2088 H   0  0  0  0  0  0  0  0  0  0  0  0
   -2.2881   -2.1541    0.0964 H   0  0  0  0  0  0  0  0  0  0  0  0
   -3.7334    0.8716   -3.0872 H   0  0  0  0  0  0  0  0  0  0  0  0
   -3.0907    1.3667   -1.5032 H   0  0  0  0  0  0  0  0  0  0  0  0
   -4.6021    0.4305   -1.5972 H   0  0  0  0  0  0  0  0  0  0  0  0
    1.5930    0.7277    1.2861 N   0  0  0  0  0  0  0  0  0  0  0  0
    2.5125    1.6967    1.8348 C   0  0  2  0  0  0  0  0  0  0  0  0
    3.9249    1.1520    1.6676 C   0  0  0  0  0  0  0  0  0  0  0  0
    4.1706   -0.0447    1.5312 O   0  0  0  0  0  0  0  0  0  0  0  0
    2.2091    1.9808    3.2977 C   0  0  0  0  0  0  0  0  0  0  0  0
    1.7666   -0.2541    1.4803 H   0  0  0  0  0  0  0  0  0  0  0  0
    2.4002    2.6106    1.2414 H   0  0  0  0  0  0  0  0  0  0  0  0
    2.3164    1.0767    3.9081 H   0  0  0  0  0  0  0  0  0  0  0  0
    2.8891    2.7367    3.7043 H   0  0  0  0  0  0  0  0  0  0  0  0
    1.1830    2.3442    3.4195 H   0  0  0  0  0  0  0  0  0  0  0  0
    4.8820    2.1550    1.7318 N   0  0  0  0  0  0  0  0  0  0  0  0
    6.2970    1.8911    1.6129 C   0  0  0  0  0  0  0  0  0  0  0  0
    4.5866    3.1221    1.8279 H   0  0  0  0  0  0  0  0  0  0  0  0
    6.7283    1.7434    2.6140 H   0  0  0  0  0  0  0  0  0  0  0  0
    6.4514    0.9842    1.0099 H   0  0  0  0  0  0  0  0  0  0  0  0
    6.7892    2.7447    1.1240 H   0  0  0  0  0  0  0  0  0  0  0  0
  1  3  1  0  0  0  0
  1  7  1  0  0  0  0
  1  2  2  0  0  0  0
 35 36  1  0  0  0  0
 36 44  1  0  0  0  0
 36 37  2  0  0  0  0
  8  9  1  0  0  0  0
  9 17  1  0  0  0  0
  9 10  2  0  0  0  0
 18 19  1  0  0  0  0
 19 34  1  0  0  0  0
 19 20  2  0  0  0  0
 35 38  1  0  0  0  0
  8 11  1  0  0  0  0
 44 45  1  0  0  0  0
 23 24  1  0  0  0  0
 21 22  1  0  0  0  0
 18 21  1  0  0  0  0
 22 23  1  0  0  0  0
 34 35  1  0  0  0  0
  7  8  1  0  0  0  0
 17 18  1  0  0  0  0
  3  4  1  0  0  0  0
  3  5  1  0  0  0  0
  3  6  1  0  0  0  0
 38 41  1  0  0  0  0
 38 42  1  0  0  0  0
 38 43  1  0  0  0  0
 11 14  1  0  0  0  0
 11 15  1  0  0  0  0
 11 16  1  0  0  0  0
 45 47  1  0  0  0  0
 45 48  1  0  0  0  0
 45 49  1  0  0  0  0
 24 31  1  0  0  0  0
 24 32  1  0  0  0  0
 24 33  1  0  0  0  0
 21 27  1  0  0  0  0
 21 28  1  0  0  0  0
 22 29  1  0  0  0  0
 22 30  1  0  0  0  0
 35 40  1  0  0  0  0
  8 13  1  0  0  0  0
 18 26  1  0  0  0  0
 44 46  1  0  0  0  0
  7 12  1  0  0  0  0
 34 39  1  0  0  0  0
 17 25  1  0  0  0  0
M  END
$$$$

  -OEChem-05262214473D

 49 48  0     1  0  0  0  0  0999 V2000
   -0.0561   -5.3799    2.6949 C   0  0  0  0  0  0  0  0  0  0  0  0
    0.7325   -5.0736    3.5815 O   0  0  0  0  0  0  0  0  0  0  0  0
   -1.0067   -6.5099    2.9135 C   0  0  0  0  0  0  0  0  0  0  0  0
   -0.5910   -7.4777    2.5899 H   0  0  0  0  0  0  0  0  0  0  0  0
   -1.2629   -6.6440    3.9767 H   0  0  0  0  0  0  0  0  0  0  0  0
   -1.9729   -6.4206    2.3918 H   0  0  0  0  0  0  0  0  0  0  0  0
   -0.1735   -4.7694    1.4571 N   0  0  0  0  0  0  0  0  0  0  0  0
    0.6439   -3.6603    1.0409 C   0  0  2  0  0  0  0  0  0  0  0  0
   -0.2788   -2.5625    0.5280 C   0  0  0  0  0  0  0  0  0  0  0  0
   -1.4197   -2.7791    0.1251 O   0  0  0  0  0  0  0  0  0  0  0  0
    1.6395   -4.0779   -0.0301 C   0  0  0  0  0  0  0  0  0  0  0  0
   -0.8741   -5.1235    0.8083 H   0  0  0  0  0  0  0  0  0  0  0  0
    1.1738   -3.3062    1.9318 H   0  0  0  0  0  0  0  0  0  0  0  0
    1.1270   -4.4358   -0.9305 H   0  0  0  0  0  0  0  0  0  0  0  0
    2.2797   -3.2400   -0.3251 H   0  0  0  0  0  0  0  0  0  0  0  0
    2.2827   -4.8880    0.3303 H   0  0  0  0  0  0  0  0  0  0  0  0
    0.3351   -1.3153    0.5316 N   0  0  0  0  0  0  0  0  0  0  0  0
   -0.3268   -0.1184    0.0807 C   0  0  2  0  0  0  0  0  0  0  0  0
    0.4685    1.0922    0.5597 C   0  0  0  0  0  0  0  0  0  0  0  0
    0.0231    2.2377    0.5346 O   0  0  0  0  0  0  0  0  0  0  0  0
   -1.7986   -0.0728    0.5139 C   0  0  0  0  0  0  0  0  0  0  0  0
   -2.6643   -1.1538   -0.1377 C   0  0  0  0  0  0  0  0  0  0  0  0
   -2.6687   -0.9630   -1.9454 S   0  0  0  0  0  0  0  0  0  0  0  0
   -3.6146    0.5737   -2.0426 C   0  0  0  0  0  0  0  0  0  0  0  0
    1.2790   -1.2290    0.9021 H   0  0  0  0  0  0  0  0  0  0  0  0
   -0.2779   -0.1441   -1.0147 H   0  0  0  0  0  0  0  0  0  0  0  0
   -2.2024    0.9171    0.2624 H   0  0  0  0  0  0  0  0  0  0  0  0
   -1.8534   -0.1719    1.6056 H   0  0  0  0  0  0  0  0  0  0  0  0
   -3.7000   -1.0886    0.2088 H   0  0  0  0  0  0  0  0  0  0  0  0
   -2.2881   -2.1541    0.0964 H   0  0  0  0  0  0  0  0  0  0  0  0
   -3.7334    0.8716   -3.0872 H   0  0  0  0  0  0  0  0  0  0  0  0
   -3.0907    1.3667   -1.5032 H   0  0  0  0  0  0  0  0  0  0  0  0
   -4.6021    0.4305   -1.5972 H   0  0  0  0  0  0  0  0  0  0  0  0
    1.7428    0.7476    0.9869 N   0  0  0  0  0  0  0  0  0  0  0  0
    2.6901    1.7227    1.4740 C   0  0  2  0  0  0  0  0  0  0  0  0
    4.0688    1.3408    0.9516 C   0  0  0  0  0  0  0  0  0  0  0  0
    4.3600    0.1998    0.5987 O   0  0  0  0  0  0  0  0  0  0  0  0
    2.6839    1.7894    2.9932 C   0  0  0  0  0  0  0  0  0  0  0  0
    2.0190   -0.2297    0.9996 H   0  0  0  0  0  0  0  0  0  0  0  0
    2.3941    2.6894    1.0522 H   0  0  0  0  0  0  0  0  0  0  0  0
    2.9779    0.8298    3.4338 H   0  0  0  0  0  0  0  0  0  0  0  0
    3.3819    2.5492    3.3600 H   0  0  0  0  0  0  0  0  0  0  0  0
    1.6845    2.0350    3.3684 H   0  0  0  0  0  0  0  0  0  0  0  0
    4.9483    2.4143    0.9664 N   0  0  0  0  0  0  0  0  0  0  0  0
    6.3209    2.3037    0.5306 C   0  0  0  0  0  0  0  0  0  0  0  0
    4.6156    3.3289    1.2572 H   0  0  0  0  0  0  0  0  0  0  0  0
    6.9626    2.0724    1.3936 H   0  0  0  0  0  0  0  0  0  0  0  0
    6.4051    1.4992   -0.2148 H   0  0  0  0  0  0  0  0  0  0  0  0
    6.6404    3.2553    0.0808 H   0  0  0  0  0  0  0  0  0  0  0  0
  1  3  1  0  0  0  0
  1  7  1  0  0  0  0
  1  2  2  0  0  0  0
 35 36  1  0  0  0  0
 36 44  1  0  0  0  0
 36 37  2  0  0  0  0
  8  9  1  0  0  0  0
  9 17  1  0  0  0  0
  9 10  2  0  0  0  0
 18 19  1  0  0  0  0
 19 34  1  0  0  0  0
 19 20  2  0  0  0  0
 35 38  1  0  0  0  0
  8 11  1  0  0  0  0
 44 45  1  0  0  0  0
 23 24  1  0  0  0  0
 21 22  1  0  0  0  0
 18 21  1  0  0  0  0
 22 23  1  0  0  0  0
 34 35  1  0  0  0  0
  7  8  1  0  0  0  0
 17 18  1  0  0  0  0
  3  4  1  0  0  0  0
  3  5  1  0  0  0  0
  3  6  1  0  0  0  0
 38 41  1  0  0  0  0
 38 42  1  0  0  0  0
 38 43  1  0  0  0  0
 11 14  1  0  0  0  0
 11 15  1  0  0  0  0
 11 16  1  0  0  0  0
 45 47  1  0  0  0  0
 45 48  1  0  0  0  0
 45 49  1  0  0  0  0
 24 31  1  0  0  0  0
 24 32  1  0  0  0  0
 24 33  1  0  0  0  0
 21 27  1  0  0  0  0
 21 28  1  0  0  0  0
 22 29  1  0  0  0  0
 22 30  1  0  0  0  0
 35 40  1  0  0  0  0
  8 13  1  0  0  0  0
 18 26  1  0  0  0  0
 44 46  1  0  0  0  0
  7 12  1  0  0  0  0
 34 39  1  0  0  0  0
 17 25  1  0  0  0  0
M  END
$$$$

  -OEChem-05262214473D

 49 48  0     1  0  0  0  0  0999 V2000
   -0.0561   -5.3799    2.6949 C   0  0  0  0  0  0  0  0  0  0  0  0
    0.7325   -5.0736    3.5815 O   0  0  0  0  0  0  0  0  0  0  0  0
   -1.0067   -6.5099    2.9135 C   0  0  0  0  0  0  0  0  0  0  0  0
   -0.5910   -7.4777    2.5899 H   0  0  0  0  0  0  0  0  0  0  0  0
   -1.2629   -6.6440    3.9767 H   0  0  0  0  0  0  0  0  0  0  0  0
   -1.9729   -6.4206    2.3918 H   0  0  0  0  0  0  0  0  0  0  0  0
   -0.1735   -4.7694    1.4571 N   0  0  0  0  0  0  0  0  0  0  0  0
    0.6439   -3.6603    1.0409 C   0  0  2  0  0  0  0  0  0  0  0  0
   -0.2788   -2.5625    0.5280 C   0  0  0  0  0  0  0  0  0  0  0  0
   -1.4197   -2.7791    0.1251 O   0  0  0  0  0  0  0  0  0  0  0  0
    1.6395   -4.0779   -0.0301 C   0  0  0  0  0  0  0  0  0  0  0  0
   -0.8741   -5.1235    0.8083 H   0  0  0  0  0  0  0  0  0  0  0  0
    1.1738   -3.3062    1.9318 H   0  0  0  0  0  0  0  0  0  0  0  0
    1.1270   -4.4358   -0.9305 H   0  0  0  0  0  0  0  0  0  0  0  0
    2.2797   -3.2400   -0.3251 H   0  0  0  0  0  0  0  0  0  0  0  0
    2.2827   -4.8880    0.3303 H   0  0  0  0  0  0  0  0  0  0  0  0
    0.3351   -1.3153    0.5316 N   0  0  0  0  0  0  0  0  0  0  0  0
   -0.3268   -0.1184    0.0807 C   0  0  2  0  0  0  0  0  0  0  0  0
    0.4685    1.0922    0.5597 C   0  0  0  0  0  0  0  0  0  0  0  0
   -0.0481    2.1840    0.7887 O   0  0  0  0  0  0  0  0  0  0  0  0
   -1.7986   -0.0728    0.5139 C   0  0  0  0  0  0  0  0  0  0  0  0
   -2.6643   -1.1538   -0.1377 C   0  0  0  0  0  0  0  0  0  0  0  0
   -2.6687   -0.9630   -1.9454 S   0  0  0  0  0  0  0  0  0  0  0  0
   -3.6146    0.5737   -2.0426 C   0  0  0  0  0  0  0  0  0  0  0  0
    1.2790   -1.2290    0.9021 H   0  0  0  0  0  0  0  0  0  0  0  0
   -0.2779   -0.1441   -1.0147 H   0  0  0  0  0  0  0  0  0  0  0  0
   -2.2024    0.9171    0.2624 H   0  0  0  0  0  0  0  0  0  0  0  0
   -1.8534   -0.1719    1.6056 H   0  0  0  0  0  0  0  0  0  0  0  0
   -3.7000   -1.0886    0.2088 H   0  0  0  0  0  0  0  0  0  0  0  0
   -2.2881   -2.1541    0.0964 H   0  0  0  0  0  0  0  0  0  0  0  0
   -3.7334    0.8716   -3.0872 H   0  0  0  0  0  0  0  0  0  0  0  0
   -3.0907    1.3667   -1.5032 H   0  0  0  0  0  0  0  0  0  0  0  0
   -4.6021    0.4305   -1.5972 H   0  0  0  0  0  0  0  0  0  0  0  0
    1.8244    0.8195    0.6697 N   0  0  0  0  0  0  0  0  0  0  0  0
    2.7855    1.8110    1.0924 C   0  0  2  0  0  0  0  0  0  0  0  0
    4.0454    1.6314    0.2558 C   0  0  0  0  0  0  0  0  0  0  0  0
    4.3316    0.5773   -0.3080 O   0  0  0  0  0  0  0  0  0  0  0  0
    3.0954    1.6842    2.5758 C   0  0  0  0  0  0  0  0  0  0  0  0
    2.1621   -0.1208    0.4867 H   0  0  0  0  0  0  0  0  0  0  0  0
    2.3429    2.7906    0.8814 H   0  0  0  0  0  0  0  0  0  0  0  0
    3.5396    0.7090    2.8065 H   0  0  0  0  0  0  0  0  0  0  0  0
    3.8025    2.4546    2.9008 H   0  0  0  0  0  0  0  0  0  0  0  0
    2.1835    1.7839    3.1744 H   0  0  0  0  0  0  0  0  0  0  0  0
    4.8342    2.7734    0.2484 N   0  0  0  0  0  0  0  0  0  0  0  0
    6.0882    2.8501   -0.4640 C   0  0  0  0  0  0  0  0  0  0  0  0
    4.5096    3.6079    0.7279 H   0  0  0  0  0  0  0  0  0  0  0  0
    6.9115    2.5739    0.2110 H   0  0  0  0  0  0  0  0  0  0  0  0
    6.0671    2.1581   -1.3188 H   0  0  0  0  0  0  0  0  0  0  0  0
    6.2410    3.8771   -0.8274 H   0  0  0  0  0  0  0  0  0  0  0  0
  1  3  1  0  0  0  0
  1  7  1  0  0  0  0
  1  2  2  0  0  0  0
 35 36  1  0  0  0  0
 36 44  1  0  0  0  0
 36 37  2  0  0  0  0
  8  9  1  0  0  0  0
  9 17  1  0  0  0  0
  9 10  2  0  0  0  0
 18 19  1  0  0  0  0
 19 34  1  0  0  0  0
 19 20  2  0  0  0  0
 35 38  1  0  0  0  0
  8 11  1  0  0  0  0
 44 45  1  0  0  0  0
 23 24  1  0  0  0  0
 21 22  1  0  0  0  0
 18 21  1  0  0  0  0
 22 23  1  0  0  0  0
 34 35  1  0  0  0  0
  7  8  1  0  0  0  0
 17 18  1  0  0  0  0
  3  4  1  0  0  0  0
  3  5  1  0  0  0  0
  3  6  1  0  0  0  0
 38 41  1  0  0  0  0
 38 42  1  0  0  0  0
 38 43  1  0  0  0  0
 11 14  1  0  0  0  0
 11 15  1  0  0  0  0
 11 16  1  0  0  0  0
 45 47  1  0  0  0  0
 45 48  1  0  0  0  0
 45 49  1  0  0  0  0
 24 31  1  0  0  0  0
 24 32  1  0  0  0  0
 24 33  1  0  0  0  0
 21 27  1  0  0  0  0
 21 28  1  0  0  0  0
 22 29  1  0  0  0  0
 22 30  1  0  0  0  0
 35 40  1  0  0  0  0
  8 13  1  0  0  0  0
 18 26  1  0  0  0  0
 44 46  1  0  0  0  0
  7 12  1  0  0  0  0
 34 39  1  0  0  0  0
 17 25  1  0  0  0  0
M  END
$$$$

  -OEChem-05262214473D

 49 48  0     1  0  0  0  0  0999 V2000
   -0.0561   -5.3799    2.6949 C   0  0  0  0  0  0  0  0  0  0  0  0
    0.7325   -5.0736    3.5815 O   0  0  0  0  0  0  0  0  0  0  0  0
   -1.0067   -6.5099    2.9135 C   0  0  0  0  0  0  0  0  0  0  0  0
   -0.5910   -7.4777    2.5899 H   0  0  0  0  0  0  0  0  0  0  0  0
   -1.2629   -6.6440    3.9767 H   0  0  0  0  0  0  0  0  0  0  0  0
   -1.9729   -6.4206    2.3918 H   0  0  0  0  0  0  0  0  0  0  0  0
   -0.1735   -4.7694    1.4571 N   0  0  0  0  0  0  0  0  0  0  0  0
    0.6439   -3.6603    1.0409 C   0  0  2  0  0  0  0  0  0  0  0  0
   -0.2788   -2.5625    0.5280 C   0  0  0  0  0  0  0  0  0  0  0  0
   -1.4197   -2.7791    0.1251 O   0  0  0  0  0  0  0  0  0  0  0  0
    1.6395   -4.0779   -0.0301 C   0  0  0  0  0  0  0  0  0  0  0  0
   -0.8741   -5.1235    0.8083 H   0  0  0  0  0  0  0  0  0  0  0  0
    1.1738   -3.3062    1.9318 H   0  0  0  0  0  0  0  0  0  0  0  0
    1.1270   -4.4358   -0.9305 H   0  0  0  0  0  0  0  0  0  0  0  0
    2.2797   -3.2400   -0.3251 H   0  0  0  0  0  0  0  0  0  0  0  0
    2.2827   -4.8880    0.3303 H   0  0  0  0  0  0  0  0  0  0  0  0
    0.3351   -1.3153    0.5316 N   0  0  0  0  0  0  0  0  0  0  0  0
   -0.3268   -0.1184    0.0807 C   0  0  2  0  0  0  0  0  0  0  0  0
    0.4685    1.0922    0.5597 C   0  0  0  0  0  0  0  0  0  0  0  0
   -0.0603    2.0920    1.0414 O   0  0  0  0  0  0  0  0  0  0  0  0
   -1.7986   -0.0728    0.5139 C   0  0  0  0  0  0  0  0  0  0  0  0
   -2.6643   -1.1538   -0.1377 C   0  0  0  0  0  0  0  0  0  0  0  0
   -2.6687   -0.9630   -1.9454 S   0  0  0  0  0  0  0  0  0  0  0  0
   -3.6146    0.5737   -2.0426 C   0  0  0  0  0  0  0  0  0  0  0  0
    1.2790   -1.2290    0.9021 H   0  0  0  0  0  0  0  0  0  0  0  0
   -0.2779   -0.1441   -1.0147 H   0  0  0  0  0  0  0  0  0  0  0  0
   -2.2024    0.9171    0.2624 H   0  0  0  0  0  0  0  0  0  0  0  0
   -1.8534   -0.1719    1.6056 H   0  0  0  0  0  0  0  0  0  0  0  0
   -3.7000   -1.0886    0.2088 H   0  0  0  0  0  0  0  0  0  0  0  0
   -2.2881   -2.1541    0.0964 H   0  0  0  0  0  0  0  0  0  0  0  0
   -3.7334    0.8716   -3.0872 H   0  0  0  0  0  0  0  0  0  0  0  0
   -3.0907    1.3667   -1.5032 H   0  0  0  0  0  0  0  0  0  0  0  0
   -4.6021    0.4305   -1.5972 H   0  0  0  0  0  0  0  0  0  0  0  0
    1.8323    0.9383    0.3563 N   0  0  0  0  0  0  0  0  0  0  0  0
    2.7921    1.9556    0.7162 C   0  0  2  0  0  0  0  0  0  0  0  0
    3.8563    2.0041   -0.3722 C   0  0  0  0  0  0  0  0  0  0  0  0
    4.0873    1.0618   -1.1271 O   0  0  0  0  0  0  0  0  0  0  0  0
    3.4158    1.6723    2.0740 C   0  0  0  0  0  0  0  0  0  0  0  0
    2.1861    0.0652   -0.0234 H   0  0  0  0  0  0  0  0  0  0  0  0
    2.2502    2.9073    0.7406 H   0  0  0  0  0  0  0  0  0  0  0  0
    3.9631    0.7226    2.0689 H   0  0  0  0  0  0  0  0  0  0  0  0
    4.1221    2.4593    2.3581 H   0  0  0  0  0  0  0  0  0  0  0  0
    2.6461    1.6081    2.8506 H   0  0  0  0  0  0  0  0  0  0  0  0
    4.5472    3.2078   -0.3732 N   0  0  0  0  0  0  0  0  0  0  0  0
    5.6147    3.4933   -1.3033 C   0  0  0  0  0  0  0  0  0  0  0  0
    4.2759    3.9402    0.2761 H   0  0  0  0  0  0  0  0  0  0  0  0
    6.5786    3.2137   -0.8531 H   0  0  0  0  0  0  0  0  0  0  0  0
    5.4603    2.9160   -2.2268 H   0  0  0  0  0  0  0  0  0  0  0  0
    5.6181    4.5678   -1.5388 H   0  0  0  0  0  0  0  0  0  0  0  0
  1  3  1  0  0  0  0
  1  7  1  0  0  0  0
  1  2  2  0  0  0  0
 35 36  1  0  0  0  0
 36 44  1  0  0  0  0
 36 37  2  0  0  0  0
  8  9  1  0  0  0  0
  9 17  1  0  0  0  0
  9 10  2  0  0  0  0
 18 19  1  0  0  0  0
 19 34  1  0  0  0  0
 19 20  2  0  0  0  0
 35 38  1  0  0  0  0
  8 11  1  0  0  0  0
 44 45  1  0  0  0  0
 23 24  1  0  0  0  0
 21 22  1  0  0  0  0
 18 21  1  0  0  0  0
 22 23  1  0  0  0  0
 34 35  1  0  0  0  0
  7  8  1  0  0  0  0
 17 18  1  0  0  0  0
  3  4  1  0  0  0  0
  3  5  1  0  0  0  0
  3  6  1  0  0  0  0
 38 41  1  0  0  0  0
 38 42  1  0  0  0  0
 38 43  1  0  0  0  0
 11 14  1  0  0  0  0
 11 15  1  0  0  0  0
 11 16  1  0  0  0  0
 45 47  1  0  0  0  0
 45 48  1  0  0  0  0
 45 49  1  0  0  0  0
 24 31  1  0  0  0  0
 24 32  1  0  0  0  0
 24 33  1  0  0  0  0
 21 27  1  0  0  0  0
 21 28  1  0  0  0  0
 22 29  1  0  0  0  0
 22 30  1  0  0  0  0
 35 40  1  0  0  0  0
  8 13  1  0  0  0  0
 18 26  1  0  0  0  0
 44 46  1  0  0  0  0
  7 12  1  0  0  0  0
 34 39  1  0  0  0  0
 17 25  1  0  0  0  0
M  END
$$$$

  -OEChem-05262214473D

 49 48  0     1  0  0  0  0  0999 V2000
   -0.0561   -5.3799    2.6949 C   0  0  0  0  0  0  0  0  0  0  0  0
    0.7325   -5.0736    3.5815 O   0  0  0  0  0  0  0  0  0  0  0  0
   -1.0067   -6.5099    2.9135 C   0  0  0  0  0  0  0  0  0  0  0  0
   -0.5910   -7.4777    2.5899 H   0  0  0  0  0  0  0  0  0  0  0  0
   -1.2629   -6.6440    3.9767 H   0  0  0  0  0  0  0  0  0  0  0  0
   -1.9729   -6.4206    2.3918 H   0  0  0  0  0  0  0  0  0  0  0  0
   -0.1735   -4.7694    1.4571 N   0  0  0  0  0  0  0  0  0  0  0  0
    0.6439   -3.6603    1.0409 C   0  0  2  0  0  0  0  0  0  0  0  0
   -0.2788   -2.5625    0.5280 C   0  0  0  0  0  0  0  0  0  0  0  0
   -1.4197   -2.7791    0.1251 O   0  0  0  0  0  0  0  0  0  0  0  0
    1.6395   -4.0779   -0.0301 C   0  0  0  0  0  0  0  0  0  0  0  0
   -0.8741   -5.1235    0.8083 H   0  0  0  0  0  0  0  0  0  0  0  0
    1.1738   -3.3062    1.9318 H   0  0  0  0  0  0  0  0  0  0  0  0
    1.1270   -4.4358   -0.9305 H   0  0  0  0  0  0  0  0  0  0  0  0
    2.2797   -3.2400   -0.3251 H   0  0  0  0  0  0  0  0  0  0  0  0
    2.2827   -4.8880    0.3303 H   0  0  0  0  0  0  0  0  0  0  0  0
    0.3351   -1.3153    0.5316 N   0  0  0  0  0  0  0  0  0  0  0  0
   -0.3268   -0.1184    0.0807 C   0  0  2  0  0  0  0  0  0  0  0  0
    0.4685    1.0922    0.5597 C   0  0  0  0  0  0  0  0  0  0  0  0
   -0.0127    1.9681    1.2757 O   0  0  0  0  0  0  0  0  0  0  0  0
   -1.7986   -0.0728    0.5139 C   0  0  0  0  0  0  0  0  0  0  0  0
   -2.6643   -1.1538   -0.1377 C   0  0  0  0  0  0  0  0  0  0  0  0
   -2.6687   -0.9630   -1.9454 S   0  0  0  0  0  0  0  0  0  0  0  0
   -3.6146    0.5737   -2.0426 C   0  0  0  0  0  0  0  0  0  0  0  0
    1.2790   -1.2290    0.9021 H   0  0  0  0  0  0  0  0  0  0  0  0
   -0.2779   -0.1441   -1.0147 H   0  0  0  0  0  0  0  0  0  0  0  0
   -2.2024    0.9171    0.2624 H   0  0  0  0  0  0  0  0  0  0  0  0
   -1.8534   -0.1719    1.6056 H   0  0  0  0  0  0  0  0  0  0  0  0
   -3.7000   -1.0886    0.2088 H   0  0  0  0  0  0  0  0  0  0  0  0
   -2.2881   -2.1541    0.0964 H   0  0  0  0  0  0  0  0  0  0  0  0
   -3.7334    0.8716   -3.0872 H   0  0  0  0  0  0  0  0  0  0  0  0
   -3.0907    1.3667   -1.5032 H   0  0  0  0  0  0  0  0  0  0  0  0
   -4.6021    0.4305   -1.5972 H   0  0  0  0  0  0  0  0  0  0  0  0
    1.7659    1.0961    0.0680 N   0  0  0  0  0  0  0  0  0  0  0  0
    2.7095    2.1465    0.3709 C   0  0  2  0  0  0  0  0  0  0  0  0
    3.5144    2.4335   -0.8897 C   0  0  0  0  0  0  0  0  0  0  0  0
    3.6437    1.6206   -1.8027 O   0  0  0  0  0  0  0  0  0  0  0  0
    3.6231    1.7546    1.5218 C   0  0  0  0  0  0  0  0  0  0  0  0
    2.0895    0.3157   -0.4960 H   0  0  0  0  0  0  0  0  0  0  0  0
    2.1222    3.0314    0.6394 H   0  0  0  0  0  0  0  0  0  0  0  0
    4.2196    0.8697    1.2713 H   0  0  0  0  0  0  0  0  0  0  0  0
    4.3190    2.5631    1.7690 H   0  0  0  0  0  0  0  0  0  0  0  0
    3.0407    1.5196    2.4192 H   0  0  0  0  0  0  0  0  0  0  0  0
    4.1071    3.6880   -0.8561 N   0  0  0  0  0  0  0  0  0  0  0  0
    4.9327    4.1892   -1.9300 C   0  0  0  0  0  0  0  0  0  0  0  0
    3.9303    4.3032   -0.0674 H   0  0  0  0  0  0  0  0  0  0  0  0
    5.9864    3.9481   -1.7263 H   0  0  0  0  0  0  0  0  0  0  0  0
    4.6261    3.7213   -2.8771 H   0  0  0  0  0  0  0  0  0  0  0  0
    4.8141    5.2803   -2.0048 H   0  0  0  0  0  0  0  0  0  0  0  0
  1  3  1  0  0  0  0
  1  7  1  0  0  0  0
  1  2  2  0  0  0  0
 35 36  1  0  0  0  0
 36 44  1  0  0  0  0
 36 37  2  0  0  0  0
  8  9  1  0  0  0  0
  9 17  1  0  0  0  0
  9 10  2  0  0  0  0
 18 19  1  0  0  0  0
 19 34  1  0  0  0  0
 19 20  2  0  0  0  0
 35 38  1  0  0  0  0
  8 11  1  0  0  0  0
 44 45  1  0  0  0  0
 23 24  1  0  0  0  0
 21 22  1  0  0  0  0
 18 21  1  0  0  0  0
 22 23  1  0  0  0  0
 34 35  1  0  0  0  0
  7  8  1  0  0  0  0
 17 18  1  0  0  0  0
  3  4  1  0  0  0  0
  3  5  1  0  0  0  0
  3  6  1  0  0  0  0
 38 41  1  0  0  0  0
 38 42  1  0  0  0  0
 38 43  1  0  0  0  0
 11 14  1  0  0  0  0
 11 15  1  0  0  0  0
 11 16  1  0  0  0  0
 45 47  1  0  0  0  0
 45 48  1  0  0  0  0
 45 49  1  0  0  0  0
 24 31  1  0  0  0  0
 24 32  1  0  0  0  0
 24 33  1  0  0  0  0
 21 27  1  0  0  0  0
 21 28  1  0  0  0  0
 22 29  1  0  0  0  0
 22 30  1  0  0  0  0
 35 40  1  0  0  0  0
  8 13  1  0  0  0  0
 18 26  1  0  0  0  0
 44 46  1  0  0  0  0
  7 12  1  0  0  0  0
 34 39  1  0  0  0  0
 17 25  1  0  0  0  0
M  END
$$$$

  -OEChem-05262214473D

 49 48  0     1  0  0  0  0  0999 V2000
   -0.0561   -5.3799    2.6949 C   0  0  0  0  0  0  0  0  0  0  0  0
    0.7325   -5.0736    3.5815 O   0  0  0  0  0  0  0  0  0  0  0  0
   -1.0067   -6.5099    2.9135 C   0  0  0  0  0  0  0  0  0  0  0  0
   -0.5910   -7.4777    2.5899 H   0  0  0  0  0  0  0  0  0  0  0  0
   -1.2629   -6.6440    3.9767 H   0  0  0  0  0  0  0  0  0  0  0  0
   -1.9729   -6.4206    2.3918 H   0  0  0  0  0  0  0  0  0  0  0  0
   -0.1735   -4.7694    1.4571 N   0  0  0  0  0  0  0  0  0  0  0  0
    0.6439   -3.6603    1.0409 C   0  0  2  0  0  0  0  0  0  0  0  0
   -0.2788   -2.5625    0.5280 C   0  0  0  0  0  0  0  0  0  0  0  0
   -1.4197   -2.7791    0.1251 O   0  0  0  0  0  0  0  0  0  0  0  0
    1.6395   -4.0779   -0.0301 C   0  0  0  0  0  0  0  0  0  0  0  0
   -0.8741   -5.1235    0.8083 H   0  0  0  0  0  0  0  0  0  0  0  0
    1.1738   -3.3062    1.9318 H   0  0  0  0  0  0  0  0  0  0  0  0
    1.1270   -4.4358   -0.9305 H   0  0  0  0  0  0  0  0  0  0  0  0
    2.2797   -3.2400   -0.3251 H   0  0  0  0  0  0  0  0  0  0  0  0
    2.2827   -4.8880    0.3303 H   0  0  0  0  0  0  0  0  0  0  0  0
    0.3351   -1.3153    0.5316 N   0  0  0  0  0  0  0  0  0  0  0  0
   -0.3268   -0.1184    0.0807 C   0  0  2  0  0  0  0  0  0  0  0  0
    0.4685    1.0922    0.5597 C   0  0  0  0  0  0  0  0  0  0  0  0
    0.0914    1.8206    1.4754 O   0  0  0  0  0  0  0  0  0  0  0  0
   -1.7986   -0.0728    0.5139 C   0  0  0  0  0  0  0  0  0  0  0  0
   -2.6643   -1.1538   -0.1377 C   0  0  0  0  0  0  0  0  0  0  0  0
   -2.6687   -0.9630   -1.9454 S   0  0  0  0  0  0  0  0  0  0  0  0
   -3.6146    0.5737   -2.0426 C   0  0  0  0  0  0  0  0  0  0  0  0
    1.2790   -1.2290    0.9021 H   0  0  0  0  0  0  0  0  0  0  0  0
   -0.2779   -0.1441   -1.0147 H   0  0  0  0  0  0  0  0  0  0  0  0
   -2.2024    0.9171    0.2624 H   0  0  0  0  0  0  0  0  0  0  0  0
   -1.8534   -0.1719    1.6056 H   0  0  0  0  0  0  0  0  0  0  0  0
   -3.7000   -1.0886    0.2088 H   0  0  0  0  0  0  0  0  0  0  0  0
   -2.2881   -2.1541    0.0964 H   0  0  0  0  0  0  0  0  0  0  0  0
   -3.7334    0.8716   -3.0872 H   0  0  0  0  0  0  0  0  0  0  0  0
   -3.0907    1.3667   -1.5032 H   0  0  0  0  0  0  0  0  0  0  0  0
   -4.6021    0.4305   -1.5972 H   0  0  0  0  0  0  0  0  0  0  0  0
    1.6297    1.2819   -0.1756 N   0  0  0  0  0  0  0  0  0  0  0  0
    2.5432    2.3707    0.0802 C   0  0  2  0  0  0  0  0  0  0  0  0
    3.0430    2.8903   -1.2614 C   0  0  0  0  0  0  0  0  0  0  0  0
    3.0310    2.2154   -2.2887 O   0  0  0  0  0  0  0  0  0  0  0  0
    3.7033    1.9254    0.9569 C   0  0  0  0  0  0  0  0  0  0  0  0
    1.8787    0.6136   -0.8988 H   0  0  0  0  0  0  0  0  0  0  0  0
    1.9677    3.1545    0.5846 H   0  0  0  0  0  0  0  0  0  0  0  0
    4.2916    1.1402    0.4681 H   0  0  0  0  0  0  0  0  0  0  0  0
    4.3797    2.7588    1.1734 H   0  0  0  0  0  0  0  0  0  0  0  0
    3.3404    1.5244    1.9094 H   0  0  0  0  0  0  0  0  0  0  0  0
    3.5438    4.1812   -1.1673 N   0  0  0  0  0  0  0  0  0  0  0  0
    4.0887    4.8906   -2.3013 C   0  0  0  0  0  0  0  0  0  0  0  0
    3.4964    4.6721   -0.2793 H   0  0  0  0  0  0  0  0  0  0  0  0
    5.1754    4.7273   -2.3490 H   0  0  0  0  0  0  0  0  0  0  0  0
    3.6213    4.5191   -3.2252 H   0  0  0  0  0  0  0  0  0  0  0  0
    3.8840    5.9661   -2.1937 H   0  0  0  0  0  0  0  0  0  0  0  0
  1  3  1  0  0  0  0
  1  7  1  0  0  0  0
  1  2  2  0  0  0  0
 35 36  1  0  0  0  0
 36 44  1  0  0  0  0
 36 37  2  0  0  0  0
  8  9  1  0  0  0  0
  9 17  1  0  0  0  0
  9 10  2  0  0  0  0
 18 19  1  0  0  0  0
 19 34  1  0  0  0  0
 19 20  2  0  0  0  0
 35 38  1  0  0  0  0
  8 11  1  0  0  0  0
 44 45  1  0  0  0  0
 23 24  1  0  0  0  0
 21 22  1  0  0  0  0
 18 21  1  0  0  0  0
 22 23  1  0  0  0  0
 34 35  1  0  0  0  0
  7  8  1  0  0  0  0
 17 18  1  0  0  0  0
  3  4  1  0  0  0  0
  3  5  1  0  0  0  0
  3  6  1  0  0  0  0
 38 41  1  0  0  0  0
 38 42  1  0  0  0  0
 38 43  1  0  0  0  0
 11 14  1  0  0  0  0
 11 15  1  0  0  0  0
 11 16  1  0  0  0  0
 45 47  1  0  0  0  0
 45 48  1  0  0  0  0
 45 49  1  0  0  0  0
 24 31  1  0  0  0  0
 24 32  1  0  0  0  0
 24 33  1  0  0  0  0
 21 27  1  0  0  0  0
 21 28  1  0  0  0  0
 22 29  1  0  0  0  0
 22 30  1  0  0  0  0
 35 40  1  0  0  0  0
  8 13  1  0  0  0  0
 18 26  1  0  0  0  0
 44 46  1  0  0  0  0
  7 12  1  0  0  0  0
 34 39  1  0  0  0  0
 17 25  1  0  0  0  0
M  END
$$$$

  -OEChem-05262214473D

 49 48  0     1  0  0  0  0  0999 V2000
   -0.0561   -5.3799    2.6949 C   0  0  0  0  0  0  0  0  0  0  0  0
    0.7325   -5.0736    3.5815 O   0  0  0  0  0  0  0  0  0  0  0  0
   -1.0067   -6.5099    2.9135 C   0  0  0  0  0  0  0  0  0  0  0  0
   -0.5910   -7.4777    2.5899 H   0  0  0  0  0  0  0  0  0  0  0  0
   -1.2629   -6.6440    3.9767 H   0  0  0  0  0  0  0  0  0  0  0  0
   -1.9729   -6.4206    2.3918 H   0  0  0  0  0  0  0  0  0  0  0  0
   -0.1735   -4.7694    1.4571 N   0  0  0  0  0  0  0  0  0  0  0  0
    0.6439   -3.6603    1.0409 C   0  0  2  0  0  0  0  0  0  0  0  0
   -0.2788   -2.5625    0.5280 C   0  0  0  0  0  0  0  0  0  0  0  0
   -1.4197   -2.7791    0.1251 O   0  0  0  0  0  0  0  0  0  0  0  0
    1.6395   -4.0779   -0.0301 C   0  0  0  0  0  0  0  0  0  0  0  0
   -0.8741   -5.1235    0.8083 H   0  0  0  0  0  0  0  0  0  0  0  0
    1.1738   -3.3062    1.9318 H   0  0  0  0  0  0  0  0  0  0  0  0
    1.1270   -4.4358   -0.9305 H   0  0  0  0  0  0  0  0  0  0  0  0
    2.2797   -3.2400   -0.3251 H   0  0  0  0  0  0  0  0  0  0  0  0
    2.2827   -4.8880    0.3303 H   0  0  0  0  0  0  0  0  0  0  0  0
    0.3351   -1.3153    0.5316 N   0  0  0  0  0  0  0  0  0  0  0  0
   -0.3268   -0.1184    0.0807 C   0  0  2  0  0  0  0  0  0  0  0  0
    0.4685    1.0922    0.5597 C   0  0  0  0  0  0  0  0  0  0  0  0
    0.2450    1.6597    1.6271 O   0  0  0  0  0  0  0  0  0  0  0  0
   -1.7986   -0.0728    0.5139 C   0  0  0  0  0  0  0  0  0  0  0  0
   -2.6643   -1.1538   -0.1377 C   0  0  0  0  0  0  0  0  0  0  0  0
   -2.6687   -0.9630   -1.9454 S   0  0  0  0  0  0  0  0  0  0  0  0
   -3.6146    0.5737   -2.0426 C   0  0  0  0  0  0  0  0  0  0  0  0
    1.2790   -1.2290    0.9021 H   0  0  0  0  0  0  0  0  0  0  0  0
   -0.2779   -0.1441   -1.0147 H   0  0  0  0  0  0  0  0  0  0  0  0
   -2.2024    0.9171    0.2624 H   0  0  0  0  0  0  0  0  0  0  0  0
   -1.8534   -0.1719    1.6056 H   0  0  0  0  0  0  0  0  0  0  0  0
   -3.7000   -1.0886    0.2088 H   0  0  0  0  0  0  0  0  0  0  0  0
   -2.2881   -2.1541    0.0964 H   0  0  0  0  0  0  0  0  0  0  0  0
   -3.7334    0.8716   -3.0872 H   0  0  0  0  0  0  0  0  0  0  0  0
   -3.0907    1.3667   -1.5032 H   0  0  0  0  0  0  0  0  0  0  0  0
   -4.6021    0.4305   -1.5972 H   0  0  0  0  0  0  0  0  0  0  0  0
    1.4330    1.4832   -0.3578 N   0  0  0  0  0  0  0  0  0  0  0  0
    2.3047    2.6131   -0.1363 C   0  0  2  0  0  0  0  0  0  0  0  0
    2.4742    3.3433   -1.4620 C   0  0  0  0  0  0  0  0  0  0  0  0
    2.2911    2.8057   -2.5522 O   0  0  0  0  0  0  0  0  0  0  0  0
    3.6508    2.1731    0.4179 C   0  0  0  0  0  0  0  0  0  0  0  0
    1.5682    0.9385   -1.2044 H   0  0  0  0  0  0  0  0  0  0  0  0
    1.7973    3.2683    0.5800 H   0  0  0  0  0  0  0  0  0  0  0  0
    4.1741    1.5158   -0.2861 H   0  0  0  0  0  0  0  0  0  0  0  0
    4.3002    3.0331    0.6121 H   0  0  0  0  0  0  0  0  0  0  0  0
    3.5248    1.6222    1.3562 H   0  0  0  0  0  0  0  0  0  0  0  0
    2.8957    4.6539   -1.2857 N   0  0  0  0  0  0  0  0  0  0  0  0
    3.1402    5.5496   -2.3920 C   0  0  0  0  0  0  0  0  0  0  0  0
    3.0038    5.0218   -0.3452 H   0  0  0  0  0  0  0  0  0  0  0  0
    4.2009    5.4980   -2.6787 H   0  0  0  0  0  0  0  0  0  0  0  0
    2.5145    5.2550   -3.2474 H   0  0  0  0  0  0  0  0  0  0  0  0
    2.8911    6.5784   -2.0926 H   0  0  0  0  0  0  0  0  0  0  0  0
  1  3  1  0  0  0  0
  1  7  1  0  0  0  0
  1  2  2  0  0  0  0
 35 36  1  0  0  0  0
 36 44  1  0  0  0  0
 36 37  2  0  0  0  0
  8  9  1  0  0  0  0
  9 17  1  0  0  0  0
  9 10  2  0  0  0  0
 18 19  1  0  0  0  0
 19 34  1  0  0  0  0
 19 20  2  0  0  0  0
 35 38  1  0  0  0  0
  8 11  1  0  0  0  0
 44 45  1  0  0  0  0
 23 24  1  0  0  0  0
 21 22  1  0  0  0  0
 18 21  1  0  0  0  0
 22 23  1  0  0  0  0
 34 35  1  0  0  0  0
  7  8  1  0  0  0  0
 17 18  1  0  0  0  0
  3  4  1  0  0  0  0
  3  5  1  0  0  0  0
  3  6  1  0  0  0  0
 38 41  1  0  0  0  0
 38 42  1  0  0  0  0
 38 43  1  0  0  0  0
 11 14  1  0  0  0  0
 11 15  1  0  0  0  0
 11 16  1  0  0  0  0
 45 47  1  0  0  0  0
 45 48  1  0  0  0  0
 45 49  1  0  0  0  0
 24 31  1  0  0  0  0
 24 32  1  0  0  0  0
 24 33  1  0  0  0  0
 21 27  1  0  0  0  0
 21 28  1  0  0  0  0
 22 29  1  0  0  0  0
 22 30  1  0  0  0  0
 35 40  1  0  0  0  0
  8 13  1  0  0  0  0
 18 26  1  0  0  0  0
 44 46  1  0  0  0  0
  7 12  1  0  0  0  0
 34 39  1  0  0  0  0
 17 25  1  0  0  0  0
M  END
$$$$

  -OEChem-05262214473D

 49 48  0     1  0  0  0  0  0999 V2000
   -0.0561   -5.3799    2.6949 C   0  0  0  0  0  0  0  0  0  0  0  0
    0.7325   -5.0736    3.5815 O   0  0  0  0  0  0  0  0  0  0  0  0
   -1.0067   -6.5099    2.9135 C   0  0  0  0  0  0  0  0  0  0  0  0
   -0.5910   -7.4777    2.5899 H   0  0  0  0  0  0  0  0  0  0  0  0
   -1.2629   -6.6440    3.9767 H   0  0  0  0  0  0  0  0  0  0  0  0
   -1.9729   -6.4206    2.3918 H   0  0  0  0  0  0  0  0  0  0  0  0
   -0.1735   -4.7694    1.4571 N   0  0  0  0  0  0  0  0  0  0  0  0
    0.6439   -3.6603    1.0409 C   0  0  2  0  0  0  0  0  0  0  0  0
   -0.2788   -2.5625    0.5280 C   0  0  0  0  0  0  0  0  0  0  0  0
   -1.4197   -2.7791    0.1251 O   0  0  0  0  0  0  0  0  0  0  0  0
    1.6395   -4.0779   -0.0301 C   0  0  0  0  0  0  0  0  0  0  0  0
   -0.8741   -5.1235    0.8083 H   0  0  0  0  0  0  0  0  0  0  0  0
    1.1738   -3.3062    1.9318 H   0  0  0  0  0  0  0  0  0  0  0  0
    1.1270   -4.4358   -0.9305 H   0  0  0  0  0  0  0  0  0  0  0  0
    2.2797   -3.2400   -0.3251 H   0  0  0  0  0  0  0  0  0  0  0  0
    2.2827   -4.8880    0.3303 H   0  0  0  0  0  0  0  0  0  0  0  0
    0.3351   -1.3153    0.5316 N   0  0  0  0  0  0  0  0  0  0  0  0
   -0.3268   -0.1184    0.0807 C   0  0  2  0  0  0  0  0  0  0  0  0
    0.4685    1.0922    0.5597 C   0  0  0  0  0  0  0  0  0  0  0  0
    0.4376    1.4963    1.7203 O   0  0  0  0  0  0  0  0  0  0  0  0
   -1.7986   -0.0728    0.5139 C   0  0  0  0  0  0  0  0  0  0  0  0
   -2.6643   -1.1538   -0.1377 C   0  0  0  0  0  0  0  0  0  0  0  0
   -2.6687   -0.9630   -1.9454 S   0  0  0  0  0  0  0  0  0  0  0  0
   -3.6146    0.5737   -2.0426 C   0  0  0  0  0  0  0  0  0  0  0  0
    1.2790   -1.2290    0.9021 H   0  0  0  0  0  0  0  0  0  0  0  0
   -0.2779   -0.1441   -1.0147 H   0  0  0  0  0  0  0  0  0  0  0  0
   -2.2024    0.9171    0.2624 H   0  0  0  0  0  0  0  0  0  0  0  0
   -1.8534   -0.1719    1.6056 H   0  0  0  0  0  0  0  0  0  0  0  0
   -3.7000   -1.0886    0.2088 H   0  0  0  0  0  0  0  0  0  0  0  0
   -2.2881   -2.1541    0.0964 H   0  0  0  0  0  0  0  0  0  0  0  0
   -3.7334    0.8716   -3.0872 H   0  0  0  0  0  0  0  0  0  0  0  0
   -3.0907    1.3667   -1.5032 H   0  0  0  0  0  0  0  0  0  0  0  0
   -4.6021    0.4305   -1.5972 H   0  0  0  0  0  0  0  0  0  0  0  0
    1.1893    1.6863   -0.4663 N   0  0  0  0  0  0  0  0  0  0  0  0
    2.0102    2.8570   -0.2637 C   0  0  2  0  0  0  0  0  0  0  0  0
    1.8467    3.7618   -1.4778 C   0  0  0  0  0  0  0  0  0  0  0  0
    1.4743    3.3513   -2.5750 O   0  0  0  0  0  0  0  0  0  0  0  0
    3.4693    2.4809   -0.0586 C   0  0  0  0  0  0  0  0  0  0  0  0
    1.1791    1.2683   -1.3920 H   0  0  0  0  0  0  0  0  0  0  0  0
    1.6224    3.3650    0.6260 H   0  0  0  0  0  0  0  0  0  0  0  0
    3.8753    1.9707   -0.9397 H   0  0  0  0  0  0  0  0  0  0  0  0
    4.0858    3.3674    0.1233 H   0  0  0  0  0  0  0  0  0  0  0  0
    3.5814    1.8062    0.7970 H   0  0  0  0  0  0  0  0  0  0  0  0
    2.2069    5.0737   -1.2032 N   0  0  0  0  0  0  0  0  0  0  0  0
    2.1518    6.1214   -2.1959 C   0  0  0  0  0  0  0  0  0  0  0  0
    2.4861    5.3283   -0.2604 H   0  0  0  0  0  0  0  0  0  0  0  0
    3.1292    6.2078   -2.6932 H   0  0  0  0  0  0  0  0  0  0  0  0
    1.3810    5.8789   -2.9422 H   0  0  0  0  0  0  0  0  0  0  0  0
    1.9029    7.0755   -1.7084 H   0  0  0  0  0  0  0  0  0  0  0  0
  1  3  1  0  0  0  0
  1  7  1  0  0  0  0
  1  2  2  0  0  0  0
 35 36  1  0  0  0  0
 36 44  1  0  0  0  0
 36 37  2  0  0  0  0
  8  9  1  0  0  0  0
  9 17  1  0  0  0  0
  9 10  2  0  0  0  0
 18 19  1  0  0  0  0
 19 34  1  0  0  0  0
 19 20  2  0  0  0  0
 35 38  1  0  0  0  0
  8 11  1  0  0  0  0
 44 45  1  0  0  0  0
 23 24  1  0  0  0  0
 21 22  1  0  0  0  0
 18 21  1  0  0  0  0
 22 23  1  0  0  0  0
 34 35  1  0  0  0  0
  7  8  1  0  0  0  0
 17 18  1  0  0  0  0
  3  4  1  0  0  0  0
  3  5  1  0  0  0  0
  3  6  1  0  0  0  0
 38 41  1  0  0  0  0
 38 42  1  0  0  0  0
 38 43  1  0  0  0  0
 11 14  1  0  0  0  0
 11 15  1  0  0  0  0
 11 16  1  0  0  0  0
 45 47  1  0  0  0  0
 45 48  1  0  0  0  0
 45 49  1  0  0  0  0
 24 31  1  0  0  0  0
 24 32  1  0  0  0  0
 24 33  1  0  0  0  0
 21 27  1  0  0  0  0
 21 28  1  0  0  0  0
 22 29  1  0  0  0  0
 22 30  1  0  0  0  0
 35 40  1  0  0  0  0
  8 13  1  0  0  0  0
 18 26  1  0  0  0  0
 44 46  1  0  0  0  0
  7 12  1  0  0  0  0
 34 39  1  0  0  0  0
 17 25  1  0  0  0  0
M  END
$$$$

  -OEChem-05262214473D

 49 48  0     1  0  0  0  0  0999 V2000
   -0.0561   -5.3799    2.6949 C   0  0  0  0  0  0  0  0  0  0  0  0
    0.7325   -5.0736    3.5815 O   0  0  0  0  0  0  0  0  0  0  0  0
   -1.0067   -6.5099    2.9135 C   0  0  0  0  0  0  0  0  0  0  0  0
   -0.5910   -7.4777    2.5899 H   0  0  0  0  0  0  0  0  0  0  0  0
   -1.2629   -6.6440    3.9767 H   0  0  0  0  0  0  0  0  0  0  0  0
   -1.9729   -6.4206    2.3918 H   0  0  0  0  0  0  0  0  0  0  0  0
   -0.1735   -4.7694    1.4571 N   0  0  0  0  0  0  0  0  0  0  0  0
    0.6439   -3.6603    1.0409 C   0  0  2  0  0  0  0  0  0  0  0  0
   -0.2788   -2.5625    0.5280 C   0  0  0  0  0  0  0  0  0  0  0  0
   -1.4197   -2.7791    0.1251 O   0  0  0  0  0  0  0  0  0  0  0  0
    1.6395   -4.0779   -0.0301 C   0  0  0  0  0  0  0  0  0  0  0  0
   -0.8741   -5.1235    0.8083 H   0  0  0  0  0  0  0  0  0  0  0  0
    1.1738   -3.3062    1.9318 H   0  0  0  0  0  0  0  0  0  0  0  0
    1.1270   -4.4358   -0.9305 H   0  0  0  0  0  0  0  0  0  0  0  0
    2.2797   -3.2400   -0.3251 H   0  0  0  0  0  0  0  0  0  0  0  0
    2.2827   -4.8880    0.3303 H   0  0  0  0  0  0  0  0  0  0  0  0
    0.3351   -1.3153    0.5316 N   0  0  0  0  0  0  0  0  0  0  0  0
   -0.3268   -0.1184    0.0807 C   0  0  2  0  0  0  0  0  0  0  0  0
    0.4685    1.0922    0.5597 C   0  0  0  0  0  0  0  0  0  0  0  0
    0.6561    1.3415    1.7488 O   0  0  0  0  0  0  0  0  0  0  0  0
   -1.7986   -0.0728    0.5139 C   0  0  0  0  0  0  0  0  0  0  0  0
   -2.6643   -1.1538   -0.1377 C   0  0  0  0  0  0  0  0  0  0  0  0
   -2.6687   -0.9630   -1.9454 S   0  0  0  0  0  0  0  0  0  0  0  0
   -3.6146    0.5737   -2.0426 C   0  0  0  0  0  0  0  0  0  0  0  0
    1.2790   -1.2290    0.9021 H   0  0  0  0  0  0  0  0  0  0  0  0
   -0.2779   -0.1441   -1.0147 H   0  0  0  0  0  0  0  0  0  0  0  0
   -2.2024    0.9171    0.2624 H   0  0  0  0  0  0  0  0  0  0  0  0
   -1.8534   -0.1719    1.6056 H   0  0  0  0  0  0  0  0  0  0  0  0
   -3.7000   -1.0886    0.2088 H   0  0  0  0  0  0  0  0  0  0  0  0
   -2.2881   -2.1541    0.0964 H   0  0  0  0  0  0  0  0  0  0  0  0
   -3.7334    0.8716   -3.0872 H   0  0  0  0  0  0  0  0  0  0  0  0
   -3.0907    1.3667   -1.5032 H   0  0  0  0  0  0  0  0  0  0  0  0
   -4.6021    0.4305   -1.5972 H   0  0  0  0  0  0  0  0  0  0  0  0
    0.9151    1.8772   -0.4936 N   0  0  0  0  0  0  0  0  0  0  0  0
    1.6797    3.0858   -0.2933 C   0  0  2  0  0  0  0  0  0  0  0  0
    1.2034    4.1171   -1.3077 C   0  0  0  0  0  0  0  0  0  0  0  0
    0.6364    3.8151   -2.3557 O   0  0  0  0  0  0  0  0  0  0  0  0
    3.1712    2.8277   -0.4400 C   0  0  0  0  0  0  0  0  0  0  0  0
    0.7379    1.5806   -1.4487 H   0  0  0  0  0  0  0  0  0  0  0  0
    1.4551    3.4380    0.7194 H   0  0  0  0  0  0  0  0  0  0  0  0
    3.4154    2.4741   -1.4484 H   0  0  0  0  0  0  0  0  0  0  0  0
    3.7511    3.7388   -0.2598 H   0  0  0  0  0  0  0  0  0  0  0  0
    3.5062    2.0641    0.2702 H   0  0  0  0  0  0  0  0  0  0  0  0
    1.5245    5.4121   -0.9254 N   0  0  0  0  0  0  0  0  0  0  0  0
    1.1909    6.5668   -1.7263 C   0  0  0  0  0  0  0  0  0  0  0  0
    1.9785    5.5710   -0.0308 H   0  0  0  0  0  0  0  0  0  0  0  0
    2.0333    6.8082   -2.3912 H   0  0  0  0  0  0  0  0  0  0  0  0
    0.2981    6.3483   -2.3305 H   0  0  0  0  0  0  0  0  0  0  0  0
    0.9870    7.4235   -1.0672 H   0  0  0  0  0  0  0  0  0  0  0  0
  1  3  1  0  0  0  0
  1  7  1  0  0  0  0
  1  2  2  0  0  0  0
 35 36  1  0  0  0  0
 36 44  1  0  0  0  0
 36 37  2  0  0  0  0
  8  9  1  0  0  0  0
  9 17  1  0  0  0  0
  9 10  2  0  0  0  0
 18 19  1  0  0  0  0
 19 34  1  0  0  0  0
 19 20  2  0  0  0  0
 35 38  1  0  0  0  0
  8 11  1  0  0  0  0
 44 45  1  0  0  0  0
 23 24  1  0  0  0  0
 21 22  1  0  0  0  0
 18 21  1  0  0  0  0
 22 23  1  0  0  0  0
 34 35  1  0  0  0  0
  7  8  1  0  0  0  0
 17 18  1  0  0  0  0
  3  4  1  0  0  0  0
  3  5  1  0  0  0  0
  3  6  1  0  0  0  0
 38 41  1  0  0  0  0
 38 42  1  0  0  0  0
 38 43  1  0  0  0  0
 11 14  1  0  0  0  0
 11 15  1  0  0  0  0
 11 16  1  0  0  0  0
 45 47  1  0  0  0  0
 45 48  1  0  0  0  0
 45 49  1  0  0  0  0
 24 31  1  0  0  0  0
 24 32  1  0  0  0  0
 24 33  1  0  0  0  0
 21 27  1  0  0  0  0
 21 28  1  0  0  0  0
 22 29  1  0  0  0  0
 22 30  1  0  0  0  0
 35 40  1  0  0  0  0
  8 13  1  0  0  0  0
 18 26  1  0  0  0  0
 44 46  1  0  0  0  0
  7 12  1  0  0  0  0
 34 39  1  0  0  0  0
 17 25  1  0  0  0  0
M  END
$$$$

  -OEChem-05262214473D

 49 48  0     1  0  0  0  0  0999 V2000
   -0.0561   -5.3799    2.6949 C   0  0  0  0  0  0  0  0  0  0  0  0
    0.7325   -5.0736    3.5815 O   0  0  0  0  0  0  0  0  0  0  0  0
   -1.0067   -6.5099    2.9135 C   0  0  0  0  0  0  0  0  0  0  0  0
   -0.5910   -7.4777    2.5899 H   0  0  0  0  0  0  0  0  0  0  0  0
   -1.2629   -6.6440    3.9767 H   0  0  0  0  0  0  0  0  0  0  0  0
   -1.9729   -6.4206    2.3918 H   0  0  0  0  0  0  0  0  0  0  0  0
   -0.1735   -4.7694    1.4571 N   0  0  0  0  0  0  0  0  0  0  0  0
    0.6439   -3.6603    1.0409 C   0  0  2  0  0  0  0  0  0  0  0  0
   -0.2788   -2.5625    0.5280 C   0  0  0  0  0  0  0  0  0  0  0  0
   -1.4197   -2.7791    0.1251 O   0  0  0  0  0  0  0  0  0  0  0  0
    1.6395   -4.0779   -0.0301 C   0  0  0  0  0  0  0  0  0  0  0  0
   -0.8741   -5.1235    0.8083 H   0  0  0  0  0  0  0  0  0  0  0  0
    1.1738   -3.3062    1.9318 H   0  0  0  0  0  0  0  0  0  0  0  0
    1.1270   -4.4358   -0.9305 H   0  0  0  0  0  0  0  0  0  0  0  0
    2.2797   -3.2400   -0.3251 H   0  0  0  0  0  0  0  0  0  0  0  0
    2.2827   -4.8880    0.3303 H   0  0  0  0  0  0  0  0  0  0  0  0
    0.3351   -1.3153    0.5316 N   0  0  0  0  0  0  0  0  0  0  0  0
   -0.3268   -0.1184    0.0807 C   0  0  2  0  0  0  0  0  0  0  0  0
    0.4685    1.0922    0.5597 C   0  0  0  0  0  0  0  0  0  0  0  0
    0.8855    1.2059    1.7105 O   0  0  0  0  0  0  0  0  0  0  0  0
   -1.7986   -0.0728    0.5139 C   0  0  0  0  0  0  0  0  0  0  0  0
   -2.6643   -1.1538   -0.1377 C   0  0  0  0  0  0  0  0  0  0  0  0
   -2.6687   -0.9630   -1.9454 S   0  0  0  0  0  0  0  0  0  0  0  0
   -3.6146    0.5737   -2.0426 C   0  0  0  0  0  0  0  0  0  0  0  0
    1.2790   -1.2290    0.9021 H   0  0  0  0  0  0  0  0  0  0  0  0
   -0.2779   -0.1441   -1.0147 H   0  0  0  0  0  0  0  0  0  0  0  0
   -2.2024    0.9171    0.2624 H   0  0  0  0  0  0  0  0  0  0  0  0
   -1.8534   -0.1719    1.6056 H   0  0  0  0  0  0  0  0  0  0  0  0
   -3.7000   -1.0886    0.2088 H   0  0  0  0  0  0  0  0  0  0  0  0
   -2.2881   -2.1541    0.0964 H   0  0  0  0  0  0  0  0  0  0  0  0
   -3.7334    0.8716   -3.0872 H   0  0  0  0  0  0  0  0  0  0  0  0
   -3.0907    1.3667   -1.5032 H   0  0  0  0  0  0  0  0  0  0  0  0
   -4.6021    0.4305   -1.5972 H   0  0  0  0  0  0  0  0  0  0  0  0
    0.6291    2.0431   -0.4379 N   0  0  0  0  0  0  0  0  0  0  0  0
    1.3358    3.2840   -0.2232 C   0  0  2  0  0  0  0  0  0  0  0  0
    0.5880    4.3852   -0.9634 C   0  0  0  0  0  0  0  0  0  0  0  0
   -0.1657    4.1653   -1.9092 O   0  0  0  0  0  0  0  0  0  0  0  0
    2.7766    3.1899   -0.7004 C   0  0  0  0  0  0  0  0  0  0  0  0
    0.2747    1.8541   -1.3708 H   0  0  0  0  0  0  0  0  0  0  0  0
    1.3067    3.4823    0.8537 H   0  0  0  0  0  0  0  0  0  0  0  0
    2.8259    2.9916   -1.7773 H   0  0  0  0  0  0  0  0  0  0  0  0
    3.3190    4.1221   -0.5109 H   0  0  0  0  0  0  0  0  0  0  0  0
    3.3045    2.3781   -0.1885 H   0  0  0  0  0  0  0  0  0  0  0  0
    0.8948    5.6461   -0.4713 N   0  0  0  0  0  0  0  0  0  0  0  0
    0.3230    6.8557   -1.0153 C   0  0  0  0  0  0  0  0  0  0  0  0
    1.5156    5.7331    0.3280 H   0  0  0  0  0  0  0  0  0  0  0  0
    0.9881    7.2584   -1.7935 H   0  0  0  0  0  0  0  0  0  0  0  0
   -0.6605    6.6312   -1.4539 H   0  0  0  0  0  0  0  0  0  0  0  0
    0.2057    7.5988   -0.2129 H   0  0  0  0  0  0  0  0  0  0  0  0
  1  3  1  0  0  0  0
  1  7  1  0  0  0  0
  1  2  2  0  0  0  0
 35 36  1  0  0  0  0
 36 44  1  0  0  0  0
 36 37  2  0  0  0  0
  8  9  1  0  0  0  0
  9 17  1  0  0  0  0
  9 10  2  0  0  0  0
 18 19  1  0  0  0  0
 19 34  1  0  0  0  0
 19 20  2  0  0  0  0
 35 38  1  0  0  0  0
  8 11  1  0  0  0  0
 44 45  1  0  0  0  0
 23 24  1  0  0  0  0
 21 22  1  0  0  0  0
 18 21  1  0  0  0  0
 22 23  1  0  0  0  0
 34 35  1  0  0  0  0
  7  8  1  0  0  0  0
 17 18  1  0  0  0  0
  3  4  1  0  0  0  0
  3  5  1  0  0  0  0
  3  6  1  0  0  0  0
 38 41  1  0  0  0  0
 38 42  1  0  0  0  0
 38 43  1  0  0  0  0
 11 14  1  0  0  0  0
 11 15  1  0  0  0  0
 11 16  1  0  0  0  0
 45 47  1  0  0  0  0
 45 48  1  0  0  0  0
 45 49  1  0  0  0  0
 24 31  1  0  0  0  0
 24 32  1  0  0  0  0
 24 33  1  0  0  0  0
 21 27  1  0  0  0  0
 21 28  1  0  0  0  0
 22 29  1  0  0  0  0
 22 30  1  0  0  0  0
 35 40  1  0  0  0  0
  8 13  1  0  0  0  0
 18 26  1  0  0  0  0
 44 46  1  0  0  0  0
  7 12  1  0  0  0  0
 34 39  1  0  0  0  0
 17 25  1  0  0  0  0
M  END
$$$$

  -OEChem-05262214473D

 49 48  0     1  0  0  0  0  0999 V2000
   -0.0561   -5.3799    2.6949 C   0  0  0  0  0  0  0  0  0  0  0  0
    0.7325   -5.0736    3.5815 O   0  0  0  0  0  0  0  0  0  0  0  0
   -1.0067   -6.5099    2.9135 C   0  0  0  0  0  0  0  0  0  0  0  0
   -0.5910   -7.4777    2.5899 H   0  0  0  0  0  0  0  0  0  0  0  0
   -1.2629   -6.6440    3.9767 H   0  0  0  0  0  0  0  0  0  0  0  0
   -1.9729   -6.4206    2.3918 H   0  0  0  0  0  0  0  0  0  0  0  0
   -0.1735   -4.7694    1.4571 N   0  0  0  0  0  0  0  0  0  0  0  0
    0.6439   -3.6603    1.0409 C   0  0  2  0  0  0  0  0  0  0  0  0
   -0.2788   -2.5625    0.5280 C   0  0  0  0  0  0  0  0  0  0  0  0
   -1.4197   -2.7791    0.1251 O   0  0  0  0  0  0  0  0  0  0  0  0
    1.6395   -4.0779   -0.0301 C   0  0  0  0  0  0  0  0  0  0  0  0
   -0.8741   -5.1235    0.8083 H   0  0  0  0  0  0  0  0  0  0  0  0
    1.1738   -3.3062    1.9318 H   0  0  0  0  0  0  0  0  0  0  0  0
    1.1270   -4.4358   -0.9305 H   0  0  0  0  0  0  0  0  0  0  0  0
    2.2797   -3.2400   -0.3251 H   0  0  0  0  0  0  0  0  0  0  0  0
    2.2827   -4.8880    0.3303 H   0  0  0  0  0  0  0  0  0  0  0  0
    0.3351   -1.3153    0.5316 N   0  0  0  0  0  0  0  0  0  0  0  0
   -0.3268   -0.1184    0.0807 C   0  0  2  0  0  0  0  0  0  0  0  0
    0.4685    1.0922    0.5597 C   0  0  0  0  0  0  0  0  0  0  0  0
    1.1103    1.0987    1.6082 O   0  0  0  0  0  0  0  0  0  0  0  0
   -1.7986   -0.0728    0.5139 C   0  0  0  0  0  0  0  0  0  0  0  0
   -2.6643   -1.1538   -0.1377 C   0  0  0  0  0  0  0  0  0  0  0  0
   -2.6687   -0.9630   -1.9454 S   0  0  0  0  0  0  0  0  0  0  0  0
   -3.6146    0.5737   -2.0426 C   0  0  0  0  0  0  0  0  0  0  0  0
    1.2790   -1.2290    0.9021 H   0  0  0  0  0  0  0  0  0  0  0  0
   -0.2779   -0.1441   -1.0147 H   0  0  0  0  0  0  0  0  0  0  0  0
   -2.2024    0.9171    0.2624 H   0  0  0  0  0  0  0  0  0  0  0  0
   -1.8534   -0.1719    1.6056 H   0  0  0  0  0  0  0  0  0  0  0  0
   -3.7000   -1.0886    0.2088 H   0  0  0  0  0  0  0  0  0  0  0  0
   -2.2881   -2.1541    0.0964 H   0  0  0  0  0  0  0  0  0  0  0  0
   -3.7334    0.8716   -3.0872 H   0  0  0  0  0  0  0  0  0  0  0  0
   -3.0907    1.3667   -1.5032 H   0  0  0  0  0  0  0  0  0  0  0  0
   -4.6021    0.4305   -1.5972 H   0  0  0  0  0  0  0  0  0  0  0  0
    0.3508    2.1725   -0.3030 N   0  0  0  0  0  0  0  0  0  0  0  0
    1.0019    3.4380   -0.0581 C   0  0  2  0  0  0  0  0  0  0  0  0
    0.0426    4.5476   -0.4682 C   0  0  0  0  0  0  0  0  0  0  0  0
   -0.8772    4.3782   -1.2660 O   0  0  0  0  0  0  0  0  0  0  0  0
    2.3126    3.5429   -0.8221 C   0  0  0  0  0  0  0  0  0  0  0  0
   -0.1789    2.0701   -1.1635 H   0  0  0  0  0  0  0  0  0  0  0  0
    1.1874    3.4949    1.0200 H   0  0  0  0  0  0  0  0  0  0  0  0
    2.1468    3.4879   -1.9042 H   0  0  0  0  0  0  0  0  0  0  0  0
    2.8189    4.4910   -0.6131 H   0  0  0  0  0  0  0  0  0  0  0  0
    2.9899    2.7269   -0.5477 H   0  0  0  0  0  0  0  0  0  0  0  0
    0.3609    5.7596    0.1283 N   0  0  0  0  0  0  0  0  0  0  0  0
   -0.3927    6.9682   -0.1114 C   0  0  0  0  0  0  0  0  0  0  0  0
    1.1290    5.8037    0.7914 H   0  0  0  0  0  0  0  0  0  0  0  0
    0.0646    7.5277   -0.9407 H   0  0  0  0  0  0  0  0  0  0  0  0
   -1.4293    6.7082   -0.3721 H   0  0  0  0  0  0  0  0  0  0  0  0
   -0.3878    7.5893    0.7965 H   0  0  0  0  0  0  0  0  0  0  0  0
  1  3  1  0  0  0  0
  1  7  1  0  0  0  0
  1  2  2  0  0  0  0
 35 36  1  0  0  0  0
 36 44  1  0  0  0  0
 36 37  2  0  0  0  0
  8  9  1  0  0  0  0
  9 17  1  0  0  0  0
  9 10  2  0  0  0  0
 18 19  1  0  0  0  0
 19 34  1  0  0  0  0
 19 20  2  0  0  0  0
 35 38  1  0  0  0  0
  8 11  1  0  0  0  0
 44 45  1  0  0  0  0
 23 24  1  0  0  0  0
 21 22  1  0  0  0  0
 18 21  1  0  0  0  0
 22 23  1  0  0  0  0
 34 35  1  0  0  0  0
  7  8  1  0  0  0  0
 17 18  1  0  0  0  0
  3  4  1  0  0  0  0
  3  5  1  0  0  0  0
  3  6  1  0  0  0  0
 38 41  1  0  0  0  0
 38 42  1  0  0  0  0
 38 43  1  0  0  0  0
 11 14  1  0  0  0  0
 11 15  1  0  0  0  0
 11 16  1  0  0  0  0
 45 47  1  0  0  0  0
 45 48  1  0  0  0  0
 45 49  1  0  0  0  0
 24 31  1  0  0  0  0
 24 32  1  0  0  0  0
 24 33  1  0  0  0  0
 21 27  1  0  0  0  0
 21 28  1  0  0  0  0
 22 29  1  0  0  0  0
 22 30  1  0  0  0  0
 35 40  1  0  0  0  0
  8 13  1  0  0  0  0
 18 26  1  0  0  0  0
 44 46  1  0  0  0  0
  7 12  1  0  0  0  0
 34 39  1  0  0  0  0
 17 25  1  0  0  0  0
M  END
$$$$

  -OEChem-05262214473D

 49 48  0     1  0  0  0  0  0999 V2000
   -0.0561   -5.3799    2.6949 C   0  0  0  0  0  0  0  0  0  0  0  0
    0.7325   -5.0736    3.5815 O   0  0  0  0  0  0  0  0  0  0  0  0
   -1.0067   -6.5099    2.9135 C   0  0  0  0  0  0  0  0  0  0  0  0
   -0.5910   -7.4777    2.5899 H   0  0  0  0  0  0  0  0  0  0  0  0
   -1.2629   -6.6440    3.9767 H   0  0  0  0  0  0  0  0  0  0  0  0
   -1.9729   -6.4206    2.3918 H   0  0  0  0  0  0  0  0  0  0  0  0
   -0.1735   -4.7694    1.4571 N   0  0  0  0  0  0  0  0  0  0  0  0
    0.6439   -3.6603    1.0409 C   0  0  2  0  0  0  0  0  0  0  0  0
   -0.2788   -2.5625    0.5280 C   0  0  0  0  0  0  0  0  0  0  0  0
   -1.4197   -2.7791    0.1251 O   0  0  0  0  0  0  0  0  0  0  0  0
    1.6395   -4.0779   -0.0301 C   0  0  0  0  0  0  0  0  0  0  0  0
   -0.8741   -5.1235    0.8083 H   0  0  0  0  0  0  0  0  0  0  0  0
    1.1738   -3.3062    1.9318 H   0  0  0  0  0  0  0  0  0  0  0  0
    1.1270   -4.4358   -0.9305 H   0  0  0  0  0  0  0  0  0  0  0  0
    2.2797   -3.2400   -0.3251 H   0  0  0  0  0  0  0  0  0  0  0  0
    2.2827   -4.8880    0.3303 H   0  0  0  0  0  0  0  0  0  0  0  0
    0.3351   -1.3153    0.5316 N   0  0  0  0  0  0  0  0  0  0  0  0
   -0.3268   -0.1184    0.0807 C   0  0  2  0  0  0  0  0  0  0  0  0
    0.4685    1.0922    0.5597 C   0  0  0  0  0  0  0  0  0  0  0  0
    1.3151    1.0273    1.4487 O   0  0  0  0  0  0  0  0  0  0  0  0
   -1.7986   -0.0728    0.5139 C   0  0  0  0  0  0  0  0  0  0  0  0
   -2.6643   -1.1538   -0.1377 C   0  0  0  0  0  0  0  0  0  0  0  0
   -2.6687   -0.9630   -1.9454 S   0  0  0  0  0  0  0  0  0  0  0  0
   -3.6146    0.5737   -2.0426 C   0  0  0  0  0  0  0  0  0  0  0  0
    1.2790   -1.2290    0.9021 H   0  0  0  0  0  0  0  0  0  0  0  0
   -0.2779   -0.1441   -1.0147 H   0  0  0  0  0  0  0  0  0  0  0  0
   -2.2024    0.9171    0.2624 H   0  0  0  0  0  0  0  0  0  0  0  0
   -1.8534   -0.1719    1.6056 H   0  0  0  0  0  0  0  0  0  0  0  0
   -3.7000   -1.0886    0.2088 H   0  0  0  0  0  0  0  0  0  0  0  0
   -2.2881   -2.1541    0.0964 H   0  0  0  0  0  0  0  0  0  0  0  0
   -3.7334    0.8716   -3.0872 H   0  0  0  0  0  0  0  0  0  0  0  0
   -3.0907    1.3667   -1.5032 H   0  0  0  0  0  0  0  0  0  0  0  0
   -4.6021    0.4305   -1.5972 H   0  0  0  0  0  0  0  0  0  0  0  0
    0.0991    2.2567   -0.0980 N   0  0  0  0  0  0  0  0  0  0  0  0
    0.7007    3.5374    0.1907 C   0  0  2  0  0  0  0  0  0  0  0  0
   -0.3958    4.5933    0.1440 C   0  0  0  0  0  0  0  0  0  0  0  0
   -1.4497    4.4393   -0.4698 O   0  0  0  0  0  0  0  0  0  0  0  0
    1.8108    3.8625   -0.7966 C   0  0  0  0  0  0  0  0  0  0  0  0
   -0.5921    2.2139   -0.8410 H   0  0  0  0  0  0  0  0  0  0  0  0
    1.1053    3.4749    1.2068 H   0  0  0  0  0  0  0  0  0  0  0  0
    1.4245    3.9292   -1.8203 H   0  0  0  0  0  0  0  0  0  0  0  0
    2.2849    4.8205   -0.5592 H   0  0  0  0  0  0  0  0  0  0  0  0
    2.5839    3.0867   -0.7831 H   0  0  0  0  0  0  0  0  0  0  0  0
   -0.0410    5.7450    0.8324 N   0  0  0  0  0  0  0  0  0  0  0  0
   -0.9076    6.8968    0.9240 C   0  0  0  0  0  0  0  0  0  0  0  0
    0.8450    5.7779    1.3280 H   0  0  0  0  0  0  0  0  0  0  0  0
   -0.6742    7.5977    0.1090 H   0  0  0  0  0  0  0  0  0  0  0  0
   -1.9560    6.5742    0.8410 H   0  0  0  0  0  0  0  0  0  0  0  0
   -0.7530    7.3957    1.8921 H   0  0  0  0  0  0  0  0  0  0  0  0
  1  3  1  0  0  0  0
  1  7  1  0  0  0  0
  1  2  2  0  0  0  0
 35 36  1  0  0  0  0
 36 44  1  0  0  0  0
 36 37  2  0  0  0  0
  8  9  1  0  0  0  0
  9 17  1  0  0  0  0
  9 10  2  0  0  0  0
 18 19  1  0  0  0  0
 19 34  1  0  0  0  0
 19 20  2  0  0  0  0
 35 38  1  0  0  0  0
  8 11  1  0  0  0  0
 44 45  1  0  0  0  0
 23 24  1  0  0  0  0
 21 22  1  0  0  0  0
 18 21  1  0  0  0  0
 22 23  1  0  0  0  0
 34 35  1  0  0  0  0
  7  8  1  0  0  0  0
 17 18  1  0  0  0  0
  3  4  1  0  0  0  0
  3  5  1  0  0  0  0
  3  6  1  0  0  0  0
 38 41  1  0  0  0  0
 38 42  1  0  0  0  0
 38 43  1  0  0  0  0
 11 14  1  0  0  0  0
 11 15  1  0  0  0  0
 11 16  1  0  0  0  0
 45 47  1  0  0  0  0
 45 48  1  0  0  0  0
 45 49  1  0  0  0  0
 24 31  1  0  0  0  0
 24 32  1  0  0  0  0
 24 33  1  0  0  0  0
 21 27  1  0  0  0  0
 21 28  1  0  0  0  0
 22 29  1  0  0  0  0
 22 30  1  0  0  0  0
 35 40  1  0  0  0  0
  8 13  1  0  0  0  0
 18 26  1  0  0  0  0
 44 46  1  0  0  0  0
  7 12  1  0  0  0  0
 34 39  1  0  0  0  0
 17 25  1  0  0  0  0
M  END
$$$$
