default_name
  -OEChem-02102213163D

 29 28  0     1  0  0  0  0  0999 V2000
   -3.5781   -3.7296    1.2702 H   0  0  0  0  0  0  0  0  0  0  0  0
   -3.5311   -2.7616    0.7732 C   0  0  0  0  0  0  0  0  0  0  0  0
   -4.2371   -2.0766    1.2382 H   0  0  0  0  0  0  0  0  0  0  0  0
   -3.7681   -2.8816   -0.2818 H   0  0  0  0  0  0  0  0  0  0  0  0
   -2.1321   -2.2086    0.9112 C   0  0  0  0  0  0  0  0  0  0  0  0
   -1.2751   -2.8426    1.5112 O   0  0  0  0  0  0  0  0  0  0  0  0
   -1.9041   -1.0186    0.3602 N   0  0  0  0  0  0  0  0  0  0  0  0
   -2.6671   -0.5416   -0.0988 H   0  0  0  0  0  0  0  0  0  0  0  0
   -0.6131   -0.3236    0.3832 C   0  0  1  0  0  0  0  0  0  0  0  0
    0.0142   -0.7800    1.1506 H   0  0  0  0  0  0  0  0  0  0  0  0
    0.0816   -0.5059   -0.9788 C   0  0  0  0  0  0  0  0  0  0  0  0
    0.2240   -1.5733   -1.1603 H   0  0  0  0  0  0  0  0  0  0  0  0
   -0.5607   -0.1090   -1.7663 H   0  0  0  0  0  0  0  0  0  0  0  0
    1.4477    0.1842   -1.0667 C   0  0  0  0  0  0  0  0  0  0  0  0
    1.3207    1.2520   -0.8913 H   0  0  0  0  0  0  0  0  0  0  0  0
    2.0968   -0.2238   -0.2910 H   0  0  0  0  0  0  0  0  0  0  0  0
    2.2668   -0.0287   -2.6678 S   0  0  0  0  0  0  0  0  0  0  0  0
    2.6473   -1.7981   -2.5881 C   0  0  0  0  0  0  0  0  0  0  0  0
    1.7235   -2.3687   -2.4889 H   0  0  0  0  0  0  0  0  0  0  0  0
    3.1589   -2.0993   -3.5027 H   0  0  0  0  0  0  0  0  0  0  0  0
    3.2942   -1.9971   -1.7332 H   0  0  0  0  0  0  0  0  0  0  0  0
   -0.8064    1.1568    0.7414 C   0  0  0  0  0  0  0  0  0  0  0  0
   -1.6978    1.8100    0.2029 O   0  0  0  0  0  0  0  0  0  0  0  0
    0.0314    1.6872    1.6415 N   0  0  0  0  0  0  0  0  0  0  0  0
    0.7279    1.0858    2.0517 H   0  0  0  0  0  0  0  0  0  0  0  0
   -0.0137    3.0826    2.0755 C   0  0  0  0  0  0  0  0  0  0  0  0
   -0.9991    3.3070    2.4905 H   0  0  0  0  0  0  0  0  0  0  0  0
    0.7468    3.2694    2.8349 H   0  0  0  0  0  0  0  0  0  0  0  0
    0.1592    3.7397    1.2213 H   0  0  0  0  0  0  0  0  0  0  0  0
  5  6  2  0  0  0  0
  5  7  1  0  0  0  0
  2  3  1  0  0  0  0
  2  4  1  0  0  0  0
  2  5  1  0  0  0  0
  1  2  1  0  0  0  0
 22 23  2  0  0  0  0
 22 24  1  0  0  0  0
 18 19  1  0  0  0  0
 18 20  1  0  0  0  0
 18 21  1  0  0  0  0
 17 18  1  0  0  0  0
 14 15  1  0  0  0  0
 14 16  1  0  0  0  0
 14 17  1  0  0  0  0
 11 12  1  0  0  0  0
 11 13  1  0  0  0  0
 11 14  1  0  0  0  0
  9 10  1  0  0  0  0
  9 11  1  0  0  0  0
  9 22  1  0  0  0  0
  7  8  1  0  0  0  0
  7  9  1  0  0  0  0
 26 27  1  0  0  0  0
 26 28  1  0  0  0  0
 26 29  1  0  0  0  0
 24 25  1  0  0  0  0
 24 26  1  0  0  0  0
M  END
$$$$
default_name
  -OEChem-02102213163D

 29 28  0     1  0  0  0  0  0999 V2000
   -3.5781   -3.7296    1.2702 H   0  0  0  0  0  0  0  0  0  0  0  0
   -3.5311   -2.7616    0.7732 C   0  0  0  0  0  0  0  0  0  0  0  0
   -4.2371   -2.0766    1.2382 H   0  0  0  0  0  0  0  0  0  0  0  0
   -3.7681   -2.8816   -0.2818 H   0  0  0  0  0  0  0  0  0  0  0  0
   -2.1321   -2.2086    0.9112 C   0  0  0  0  0  0  0  0  0  0  0  0
   -1.2751   -2.8426    1.5112 O   0  0  0  0  0  0  0  0  0  0  0  0
   -1.9041   -1.0186    0.3602 N   0  0  0  0  0  0  0  0  0  0  0  0
   -2.6671   -0.5416   -0.0988 H   0  0  0  0  0  0  0  0  0  0  0  0
   -0.6131   -0.3236    0.3832 C   0  0  1  0  0  0  0  0  0  0  0  0
    0.0142   -0.7800    1.1506 H   0  0  0  0  0  0  0  0  0  0  0  0
    0.0816   -0.5059   -0.9788 C   0  0  0  0  0  0  0  0  0  0  0  0
    0.2240   -1.5733   -1.1603 H   0  0  0  0  0  0  0  0  0  0  0  0
   -0.5607   -0.1090   -1.7663 H   0  0  0  0  0  0  0  0  0  0  0  0
    1.4477    0.1842   -1.0667 C   0  0  0  0  0  0  0  0  0  0  0  0
    1.3722    1.1825   -0.6369 H   0  0  0  0  0  0  0  0  0  0  0  0
    2.1696   -0.3931   -0.4879 H   0  0  0  0  0  0  0  0  0  0  0  0
    2.0713    0.3468   -2.7592 S   0  0  0  0  0  0  0  0  0  0  0  0
    2.4078   -1.3934   -3.1338 C   0  0  0  0  0  0  0  0  0  0  0  0
    1.4856   -1.9704   -3.0598 H   0  0  0  0  0  0  0  0  0  0  0  0
    2.8022   -1.4752   -4.1470 H   0  0  0  0  0  0  0  0  0  0  0  0
    3.1426   -1.7857   -2.4301 H   0  0  0  0  0  0  0  0  0  0  0  0
   -0.8064    1.1568    0.7414 C   0  0  0  0  0  0  0  0  0  0  0  0
   -1.6978    1.8100    0.2029 O   0  0  0  0  0  0  0  0  0  0  0  0
    0.0314    1.6872    1.6415 N   0  0  0  0  0  0  0  0  0  0  0  0
    0.7279    1.0858    2.0517 H   0  0  0  0  0  0  0  0  0  0  0  0
   -0.0137    3.0826    2.0755 C   0  0  0  0  0  0  0  0  0  0  0  0
   -0.9991    3.3070    2.4905 H   0  0  0  0  0  0  0  0  0  0  0  0
    0.7468    3.2694    2.8349 H   0  0  0  0  0  0  0  0  0  0  0  0
    0.1592    3.7397    1.2213 H   0  0  0  0  0  0  0  0  0  0  0  0
  5  6  2  0  0  0  0
  5  7  1  0  0  0  0
  2  3  1  0  0  0  0
  2  4  1  0  0  0  0
  2  5  1  0  0  0  0
  1  2  1  0  0  0  0
 22 23  2  0  0  0  0
 22 24  1  0  0  0  0
 18 19  1  0  0  0  0
 18 20  1  0  0  0  0
 18 21  1  0  0  0  0
 17 18  1  0  0  0  0
 14 15  1  0  0  0  0
 14 16  1  0  0  0  0
 14 17  1  0  0  0  0
 11 12  1  0  0  0  0
 11 13  1  0  0  0  0
 11 14  1  0  0  0  0
  9 10  1  0  0  0  0
  9 11  1  0  0  0  0
  9 22  1  0  0  0  0
  7  8  1  0  0  0  0
  7  9  1  0  0  0  0
 26 27  1  0  0  0  0
 26 28  1  0  0  0  0
 26 29  1  0  0  0  0
 24 25  1  0  0  0  0
 24 26  1  0  0  0  0
M  END
$$$$
default_name
  -OEChem-02102213163D

 29 28  0     1  0  0  0  0  0999 V2000
   -3.5781   -3.7296    1.2702 H   0  0  0  0  0  0  0  0  0  0  0  0
   -3.5311   -2.7616    0.7732 C   0  0  0  0  0  0  0  0  0  0  0  0
   -4.2371   -2.0766    1.2382 H   0  0  0  0  0  0  0  0  0  0  0  0
   -3.7681   -2.8816   -0.2818 H   0  0  0  0  0  0  0  0  0  0  0  0
   -2.1321   -2.2086    0.9112 C   0  0  0  0  0  0  0  0  0  0  0  0
   -1.2751   -2.8426    1.5112 O   0  0  0  0  0  0  0  0  0  0  0  0
   -1.9041   -1.0186    0.3602 N   0  0  0  0  0  0  0  0  0  0  0  0
   -2.6671   -0.5416   -0.0988 H   0  0  0  0  0  0  0  0  0  0  0  0
   -0.6131   -0.3236    0.3832 C   0  0  1  0  0  0  0  0  0  0  0  0
    0.0142   -0.7800    1.1506 H   0  0  0  0  0  0  0  0  0  0  0  0
    0.0816   -0.5059   -0.9788 C   0  0  0  0  0  0  0  0  0  0  0  0
    0.2240   -1.5733   -1.1603 H   0  0  0  0  0  0  0  0  0  0  0  0
   -0.5607   -0.1090   -1.7663 H   0  0  0  0  0  0  0  0  0  0  0  0
    1.4477    0.1842   -1.0667 C   0  0  0  0  0  0  0  0  0  0  0  0
    1.4505    1.0560   -0.4132 H   0  0  0  0  0  0  0  0  0  0  0  0
    2.2145   -0.5123   -0.7255 H   0  0  0  0  0  0  0  0  0  0  0  0
    1.8773    0.7335   -2.7380 S   0  0  0  0  0  0  0  0  0  0  0  0
    2.1189   -0.8731   -3.5395 C   0  0  0  0  0  0  0  0  0  0  0  0
    1.1952   -1.4505   -3.4916 H   0  0  0  0  0  0  0  0  0  0  0  0
    2.3920   -0.7186   -4.5838 H   0  0  0  0  0  0  0  0  0  0  0  0
    2.9181   -1.4185   -3.0368 H   0  0  0  0  0  0  0  0  0  0  0  0
   -0.8064    1.1568    0.7414 C   0  0  0  0  0  0  0  0  0  0  0  0
   -1.6978    1.8100    0.2029 O   0  0  0  0  0  0  0  0  0  0  0  0
    0.0314    1.6872    1.6415 N   0  0  0  0  0  0  0  0  0  0  0  0
    0.7279    1.0858    2.0517 H   0  0  0  0  0  0  0  0  0  0  0  0
   -0.0137    3.0826    2.0755 C   0  0  0  0  0  0  0  0  0  0  0  0
   -0.9991    3.3070    2.4905 H   0  0  0  0  0  0  0  0  0  0  0  0
    0.7468    3.2694    2.8349 H   0  0  0  0  0  0  0  0  0  0  0  0
    0.1592    3.7397    1.2213 H   0  0  0  0  0  0  0  0  0  0  0  0
  5  6  2  0  0  0  0
  5  7  1  0  0  0  0
  2  3  1  0  0  0  0
  2  4  1  0  0  0  0
  2  5  1  0  0  0  0
  1  2  1  0  0  0  0
 22 23  2  0  0  0  0
 22 24  1  0  0  0  0
 18 19  1  0  0  0  0
 18 20  1  0  0  0  0
 18 21  1  0  0  0  0
 17 18  1  0  0  0  0
 14 15  1  0  0  0  0
 14 16  1  0  0  0  0
 14 17  1  0  0  0  0
 11 12  1  0  0  0  0
 11 13  1  0  0  0  0
 11 14  1  0  0  0  0
  9 10  1  0  0  0  0
  9 11  1  0  0  0  0
  9 22  1  0  0  0  0
  7  8  1  0  0  0  0
  7  9  1  0  0  0  0
 26 27  1  0  0  0  0
 26 28  1  0  0  0  0
 26 29  1  0  0  0  0
 24 25  1  0  0  0  0
 24 26  1  0  0  0  0
M  END
$$$$
default_name
  -OEChem-02102213163D

 29 28  0     1  0  0  0  0  0999 V2000
   -3.5781   -3.7296    1.2702 H   0  0  0  0  0  0  0  0  0  0  0  0
   -3.5311   -2.7616    0.7732 C   0  0  0  0  0  0  0  0  0  0  0  0
   -4.2371   -2.0766    1.2382 H   0  0  0  0  0  0  0  0  0  0  0  0
   -3.7681   -2.8816   -0.2818 H   0  0  0  0  0  0  0  0  0  0  0  0
   -2.1321   -2.2086    0.9112 C   0  0  0  0  0  0  0  0  0  0  0  0
   -1.2751   -2.8426    1.5112 O   0  0  0  0  0  0  0  0  0  0  0  0
   -1.9041   -1.0186    0.3602 N   0  0  0  0  0  0  0  0  0  0  0  0
   -2.6671   -0.5416   -0.0988 H   0  0  0  0  0  0  0  0  0  0  0  0
   -0.6131   -0.3236    0.3832 C   0  0  1  0  0  0  0  0  0  0  0  0
    0.0142   -0.7800    1.1506 H   0  0  0  0  0  0  0  0  0  0  0  0
    0.0816   -0.5059   -0.9788 C   0  0  0  0  0  0  0  0  0  0  0  0
    0.2240   -1.5733   -1.1603 H   0  0  0  0  0  0  0  0  0  0  0  0
   -0.5607   -0.1090   -1.7663 H   0  0  0  0  0  0  0  0  0  0  0  0
    1.4477    0.1842   -1.0667 C   0  0  0  0  0  0  0  0  0  0  0  0
    1.5503    0.8810   -0.2354 H   0  0  0  0  0  0  0  0  0  0  0  0
    2.2284   -0.5732   -0.9878 H   0  0  0  0  0  0  0  0  0  0  0  0
    1.6982    1.1050   -2.6059 S   0  0  0  0  0  0  0  0  0  0  0  0
    1.8003   -0.2726   -3.7778 C   0  0  0  0  0  0  0  0  0  0  0  0
    0.8721   -0.8444   -3.7550 H   0  0  0  0  0  0  0  0  0  0  0  0
    1.9560    0.1191   -4.7834 H   0  0  0  0  0  0  0  0  0  0  0  0
    2.6360   -0.9205   -3.5119 H   0  0  0  0  0  0  0  0  0  0  0  0
   -0.8064    1.1568    0.7414 C   0  0  0  0  0  0  0  0  0  0  0  0
   -1.6978    1.8100    0.2029 O   0  0  0  0  0  0  0  0  0  0  0  0
    0.0314    1.6872    1.6415 N   0  0  0  0  0  0  0  0  0  0  0  0
    0.7279    1.0858    2.0517 H   0  0  0  0  0  0  0  0  0  0  0  0
   -0.0137    3.0826    2.0755 C   0  0  0  0  0  0  0  0  0  0  0  0
   -0.9991    3.3070    2.4905 H   0  0  0  0  0  0  0  0  0  0  0  0
    0.7468    3.2694    2.8349 H   0  0  0  0  0  0  0  0  0  0  0  0
    0.1592    3.7397    1.2213 H   0  0  0  0  0  0  0  0  0  0  0  0
  5  6  2  0  0  0  0
  5  7  1  0  0  0  0
  2  3  1  0  0  0  0
  2  4  1  0  0  0  0
  2  5  1  0  0  0  0
  1  2  1  0  0  0  0
 22 23  2  0  0  0  0
 22 24  1  0  0  0  0
 18 19  1  0  0  0  0
 18 20  1  0  0  0  0
 18 21  1  0  0  0  0
 17 18  1  0  0  0  0
 14 15  1  0  0  0  0
 14 16  1  0  0  0  0
 14 17  1  0  0  0  0
 11 12  1  0  0  0  0
 11 13  1  0  0  0  0
 11 14  1  0  0  0  0
  9 10  1  0  0  0  0
  9 11  1  0  0  0  0
  9 22  1  0  0  0  0
  7  8  1  0  0  0  0
  7  9  1  0  0  0  0
 26 27  1  0  0  0  0
 26 28  1  0  0  0  0
 26 29  1  0  0  0  0
 24 25  1  0  0  0  0
 24 26  1  0  0  0  0
M  END
$$$$
default_name
  -OEChem-02102213163D

 29 28  0     1  0  0  0  0  0999 V2000
   -3.5781   -3.7296    1.2702 H   0  0  0  0  0  0  0  0  0  0  0  0
   -3.5311   -2.7616    0.7732 C   0  0  0  0  0  0  0  0  0  0  0  0
   -4.2371   -2.0766    1.2382 H   0  0  0  0  0  0  0  0  0  0  0  0
   -3.7681   -2.8816   -0.2818 H   0  0  0  0  0  0  0  0  0  0  0  0
   -2.1321   -2.2086    0.9112 C   0  0  0  0  0  0  0  0  0  0  0  0
   -1.2751   -2.8426    1.5112 O   0  0  0  0  0  0  0  0  0  0  0  0
   -1.9041   -1.0186    0.3602 N   0  0  0  0  0  0  0  0  0  0  0  0
   -2.6671   -0.5416   -0.0988 H   0  0  0  0  0  0  0  0  0  0  0  0
   -0.6131   -0.3236    0.3832 C   0  0  1  0  0  0  0  0  0  0  0  0
    0.0142   -0.7800    1.1506 H   0  0  0  0  0  0  0  0  0  0  0  0
    0.0816   -0.5059   -0.9788 C   0  0  0  0  0  0  0  0  0  0  0  0
    0.2240   -1.5733   -1.1603 H   0  0  0  0  0  0  0  0  0  0  0  0
   -0.5607   -0.1090   -1.7663 H   0  0  0  0  0  0  0  0  0  0  0  0
    1.4477    0.1842   -1.0667 C   0  0  0  0  0  0  0  0  0  0  0  0
    1.6649    0.6695   -0.1156 H   0  0  0  0  0  0  0  0  0  0  0  0
    2.2104   -0.5718   -1.2568 H   0  0  0  0  0  0  0  0  0  0  0  0
    1.5460    1.4361   -2.3716 S   0  0  0  0  0  0  0  0  0  0  0  0
    1.4737    0.3671   -3.8324 C   0  0  0  0  0  0  0  0  0  0  0  0
    0.5383   -0.1934   -3.8319 H   0  0  0  0  0  0  0  0  0  0  0  0
    1.5240    0.9808   -4.7322 H   0  0  0  0  0  0  0  0  0  0  0  0
    2.3156   -0.3258   -3.8232 H   0  0  0  0  0  0  0  0  0  0  0  0
   -0.8064    1.1568    0.7414 C   0  0  0  0  0  0  0  0  0  0  0  0
   -1.6978    1.8100    0.2029 O   0  0  0  0  0  0  0  0  0  0  0  0
    0.0314    1.6872    1.6415 N   0  0  0  0  0  0  0  0  0  0  0  0
    0.7279    1.0858    2.0517 H   0  0  0  0  0  0  0  0  0  0  0  0
   -0.0137    3.0826    2.0755 C   0  0  0  0  0  0  0  0  0  0  0  0
   -0.9991    3.3070    2.4905 H   0  0  0  0  0  0  0  0  0  0  0  0
    0.7468    3.2694    2.8349 H   0  0  0  0  0  0  0  0  0  0  0  0
    0.1592    3.7397    1.2213 H   0  0  0  0  0  0  0  0  0  0  0  0
  5  6  2  0  0  0  0
  5  7  1  0  0  0  0
  2  3  1  0  0  0  0
  2  4  1  0  0  0  0
  2  5  1  0  0  0  0
  1  2  1  0  0  0  0
 22 23  2  0  0  0  0
 22 24  1  0  0  0  0
 18 19  1  0  0  0  0
 18 20  1  0  0  0  0
 18 21  1  0  0  0  0
 17 18  1  0  0  0  0
 14 15  1  0  0  0  0
 14 16  1  0  0  0  0
 14 17  1  0  0  0  0
 11 12  1  0  0  0  0
 11 13  1  0  0  0  0
 11 14  1  0  0  0  0
  9 10  1  0  0  0  0
  9 11  1  0  0  0  0
  9 22  1  0  0  0  0
  7  8  1  0  0  0  0
  7  9  1  0  0  0  0
 26 27  1  0  0  0  0
 26 28  1  0  0  0  0
 26 29  1  0  0  0  0
 24 25  1  0  0  0  0
 24 26  1  0  0  0  0
M  END
$$$$
default_name
  -OEChem-02102213163D

 29 28  0     1  0  0  0  0  0999 V2000
   -3.5781   -3.7296    1.2702 H   0  0  0  0  0  0  0  0  0  0  0  0
   -3.5311   -2.7616    0.7732 C   0  0  0  0  0  0  0  0  0  0  0  0
   -4.2371   -2.0766    1.2382 H   0  0  0  0  0  0  0  0  0  0  0  0
   -3.7681   -2.8816   -0.2818 H   0  0  0  0  0  0  0  0  0  0  0  0
   -2.1321   -2.2086    0.9112 C   0  0  0  0  0  0  0  0  0  0  0  0
   -1.2751   -2.8426    1.5112 O   0  0  0  0  0  0  0  0  0  0  0  0
   -1.9041   -1.0186    0.3602 N   0  0  0  0  0  0  0  0  0  0  0  0
   -2.6671   -0.5416   -0.0988 H   0  0  0  0  0  0  0  0  0  0  0  0
   -0.6131   -0.3236    0.3832 C   0  0  1  0  0  0  0  0  0  0  0  0
    0.0142   -0.7800    1.1506 H   0  0  0  0  0  0  0  0  0  0  0  0
    0.0816   -0.5059   -0.9788 C   0  0  0  0  0  0  0  0  0  0  0  0
    0.2240   -1.5733   -1.1603 H   0  0  0  0  0  0  0  0  0  0  0  0
   -0.5607   -0.1090   -1.7663 H   0  0  0  0  0  0  0  0  0  0  0  0
    1.4477    0.1842   -1.0667 C   0  0  0  0  0  0  0  0  0  0  0  0
    1.7863    0.4358   -0.0621 H   0  0  0  0  0  0  0  0  0  0  0  0
    2.1617   -0.5082   -1.5142 H   0  0  0  0  0  0  0  0  0  0  0  0
    1.4313    1.7040   -2.0513 S   0  0  0  0  0  0  0  0  0  0  0  0
    1.1613    1.0024   -3.6995 C   0  0  0  0  0  0  0  0  0  0  0  0
    0.2166    0.4582   -3.7173 H   0  0  0  0  0  0  0  0  0  0  0  0
    1.1256    1.8077   -4.4337 H   0  0  0  0  0  0  0  0  0  0  0  0
    1.9786    0.3252   -3.9494 H   0  0  0  0  0  0  0  0  0  0  0  0
   -0.8064    1.1568    0.7414 C   0  0  0  0  0  0  0  0  0  0  0  0
   -1.6978    1.8100    0.2029 O   0  0  0  0  0  0  0  0  0  0  0  0
    0.0314    1.6872    1.6415 N   0  0  0  0  0  0  0  0  0  0  0  0
    0.7279    1.0858    2.0517 H   0  0  0  0  0  0  0  0  0  0  0  0
   -0.0137    3.0826    2.0755 C   0  0  0  0  0  0  0  0  0  0  0  0
   -0.9991    3.3070    2.4905 H   0  0  0  0  0  0  0  0  0  0  0  0
    0.7468    3.2694    2.8349 H   0  0  0  0  0  0  0  0  0  0  0  0
    0.1592    3.7397    1.2213 H   0  0  0  0  0  0  0  0  0  0  0  0
  5  6  2  0  0  0  0
  5  7  1  0  0  0  0
  2  3  1  0  0  0  0
  2  4  1  0  0  0  0
  2  5  1  0  0  0  0
  1  2  1  0  0  0  0
 22 23  2  0  0  0  0
 22 24  1  0  0  0  0
 18 19  1  0  0  0  0
 18 20  1  0  0  0  0
 18 21  1  0  0  0  0
 17 18  1  0  0  0  0
 14 15  1  0  0  0  0
 14 16  1  0  0  0  0
 14 17  1  0  0  0  0
 11 12  1  0  0  0  0
 11 13  1  0  0  0  0
 11 14  1  0  0  0  0
  9 10  1  0  0  0  0
  9 11  1  0  0  0  0
  9 22  1  0  0  0  0
  7  8  1  0  0  0  0
  7  9  1  0  0  0  0
 26 27  1  0  0  0  0
 26 28  1  0  0  0  0
 26 29  1  0  0  0  0
 24 25  1  0  0  0  0
 24 26  1  0  0  0  0
M  END
$$$$
default_name
  -OEChem-02102213163D

 29 28  0     1  0  0  0  0  0999 V2000
   -3.5781   -3.7296    1.2702 H   0  0  0  0  0  0  0  0  0  0  0  0
   -3.5311   -2.7616    0.7732 C   0  0  0  0  0  0  0  0  0  0  0  0
   -4.2371   -2.0766    1.2382 H   0  0  0  0  0  0  0  0  0  0  0  0
   -3.7681   -2.8816   -0.2818 H   0  0  0  0  0  0  0  0  0  0  0  0
   -2.1321   -2.2086    0.9112 C   0  0  0  0  0  0  0  0  0  0  0  0
   -1.2751   -2.8426    1.5112 O   0  0  0  0  0  0  0  0  0  0  0  0
   -1.9041   -1.0186    0.3602 N   0  0  0  0  0  0  0  0  0  0  0  0
   -2.6671   -0.5416   -0.0988 H   0  0  0  0  0  0  0  0  0  0  0  0
   -0.6131   -0.3236    0.3832 C   0  0  1  0  0  0  0  0  0  0  0  0
    0.0142   -0.7800    1.1506 H   0  0  0  0  0  0  0  0  0  0  0  0
    0.0816   -0.5059   -0.9788 C   0  0  0  0  0  0  0  0  0  0  0  0
    0.2240   -1.5733   -1.1603 H   0  0  0  0  0  0  0  0  0  0  0  0
   -0.5607   -0.1090   -1.7663 H   0  0  0  0  0  0  0  0  0  0  0  0
    1.4477    0.1842   -1.0667 C   0  0  0  0  0  0  0  0  0  0  0  0
    1.9064    0.1960   -0.0785 H   0  0  0  0  0  0  0  0  0  0  0  0
    2.0856   -0.3866   -1.7425 H   0  0  0  0  0  0  0  0  0  0  0  0
    1.3617    1.8907   -1.6667 S   0  0  0  0  0  0  0  0  0  0  0  0
    0.8845    1.5900   -3.3883 C   0  0  0  0  0  0  0  0  0  0  0  0
   -0.0711    1.0658   -3.4187 H   0  0  0  0  0  0  0  0  0  0  0  0
    0.7877    2.5435   -3.9083 H   0  0  0  0  0  0  0  0  0  0  0  0
    1.6481    0.9882   -3.8818 H   0  0  0  0  0  0  0  0  0  0  0  0
   -0.8064    1.1568    0.7414 C   0  0  0  0  0  0  0  0  0  0  0  0
   -1.6978    1.8100    0.2029 O   0  0  0  0  0  0  0  0  0  0  0  0
    0.0314    1.6872    1.6415 N   0  0  0  0  0  0  0  0  0  0  0  0
    0.7279    1.0858    2.0517 H   0  0  0  0  0  0  0  0  0  0  0  0
   -0.0137    3.0826    2.0755 C   0  0  0  0  0  0  0  0  0  0  0  0
   -0.9991    3.3070    2.4905 H   0  0  0  0  0  0  0  0  0  0  0  0
    0.7468    3.2694    2.8349 H   0  0  0  0  0  0  0  0  0  0  0  0
    0.1592    3.7397    1.2213 H   0  0  0  0  0  0  0  0  0  0  0  0
  5  6  2  0  0  0  0
  5  7  1  0  0  0  0
  2  3  1  0  0  0  0
  2  4  1  0  0  0  0
  2  5  1  0  0  0  0
  1  2  1  0  0  0  0
 22 23  2  0  0  0  0
 22 24  1  0  0  0  0
 18 19  1  0  0  0  0
 18 20  1  0  0  0  0
 18 21  1  0  0  0  0
 17 18  1  0  0  0  0
 14 15  1  0  0  0  0
 14 16  1  0  0  0  0
 14 17  1  0  0  0  0
 11 12  1  0  0  0  0
 11 13  1  0  0  0  0
 11 14  1  0  0  0  0
  9 10  1  0  0  0  0
  9 11  1  0  0  0  0
  9 22  1  0  0  0  0
  7  8  1  0  0  0  0
  7  9  1  0  0  0  0
 26 27  1  0  0  0  0
 26 28  1  0  0  0  0
 26 29  1  0  0  0  0
 24 25  1  0  0  0  0
 24 26  1  0  0  0  0
M  END
$$$$
default_name
  -OEChem-02102213163D

 29 28  0     1  0  0  0  0  0999 V2000
   -3.5781   -3.7296    1.2702 H   0  0  0  0  0  0  0  0  0  0  0  0
   -3.5311   -2.7616    0.7732 C   0  0  0  0  0  0  0  0  0  0  0  0
   -4.2371   -2.0766    1.2382 H   0  0  0  0  0  0  0  0  0  0  0  0
   -3.7681   -2.8816   -0.2818 H   0  0  0  0  0  0  0  0  0  0  0  0
   -2.1321   -2.2086    0.9112 C   0  0  0  0  0  0  0  0  0  0  0  0
   -1.2751   -2.8426    1.5112 O   0  0  0  0  0  0  0  0  0  0  0  0
   -1.9041   -1.0186    0.3602 N   0  0  0  0  0  0  0  0  0  0  0  0
   -2.6671   -0.5416   -0.0988 H   0  0  0  0  0  0  0  0  0  0  0  0
   -0.6131   -0.3236    0.3832 C   0  0  1  0  0  0  0  0  0  0  0  0
    0.0142   -0.7800    1.1506 H   0  0  0  0  0  0  0  0  0  0  0  0
    0.0816   -0.5059   -0.9788 C   0  0  0  0  0  0  0  0  0  0  0  0
    0.2240   -1.5733   -1.1603 H   0  0  0  0  0  0  0  0  0  0  0  0
   -0.5607   -0.1090   -1.7663 H   0  0  0  0  0  0  0  0  0  0  0  0
    1.4477    0.1842   -1.0667 C   0  0  0  0  0  0  0  0  0  0  0  0
    2.0169   -0.0336   -0.1635 H   0  0  0  0  0  0  0  0  0  0  0  0
    1.9873   -0.2153   -1.9261 H   0  0  0  0  0  0  0  0  0  0  0  0
    1.3421    1.9834   -1.2441 S   0  0  0  0  0  0  0  0  0  0  0  0
    0.6621    2.0900   -2.9198 C   0  0  0  0  0  0  0  0  0  0  0  0
   -0.3052    1.5882   -2.9567 H   0  0  0  0  0  0  0  0  0  0  0  0
    0.5335    3.1380   -3.1916 H   0  0  0  0  0  0  0  0  0  0  0  0
    1.3465    1.6179   -3.6252 H   0  0  0  0  0  0  0  0  0  0  0  0
   -0.8064    1.1568    0.7414 C   0  0  0  0  0  0  0  0  0  0  0  0
   -1.6978    1.8100    0.2029 O   0  0  0  0  0  0  0  0  0  0  0  0
    0.0314    1.6872    1.6415 N   0  0  0  0  0  0  0  0  0  0  0  0
    0.7279    1.0858    2.0517 H   0  0  0  0  0  0  0  0  0  0  0  0
   -0.0137    3.0826    2.0755 C   0  0  0  0  0  0  0  0  0  0  0  0
   -0.9991    3.3070    2.4905 H   0  0  0  0  0  0  0  0  0  0  0  0
    0.7468    3.2694    2.8349 H   0  0  0  0  0  0  0  0  0  0  0  0
    0.1592    3.7397    1.2213 H   0  0  0  0  0  0  0  0  0  0  0  0
  5  6  2  0  0  0  0
  5  7  1  0  0  0  0
  2  3  1  0  0  0  0
  2  4  1  0  0  0  0
  2  5  1  0  0  0  0
  1  2  1  0  0  0  0
 22 23  2  0  0  0  0
 22 24  1  0  0  0  0
 18 19  1  0  0  0  0
 18 20  1  0  0  0  0
 18 21  1  0  0  0  0
 17 18  1  0  0  0  0
 14 15  1  0  0  0  0
 14 16  1  0  0  0  0
 14 17  1  0  0  0  0
 11 12  1  0  0  0  0
 11 13  1  0  0  0  0
 11 14  1  0  0  0  0
  9 10  1  0  0  0  0
  9 11  1  0  0  0  0
  9 22  1  0  0  0  0
  7  8  1  0  0  0  0
  7  9  1  0  0  0  0
 26 27  1  0  0  0  0
 26 28  1  0  0  0  0
 26 29  1  0  0  0  0
 24 25  1  0  0  0  0
 24 26  1  0  0  0  0
M  END
$$$$
default_name
  -OEChem-02102213163D

 29 28  0     1  0  0  0  0  0999 V2000
   -3.5781   -3.7296    1.2702 H   0  0  0  0  0  0  0  0  0  0  0  0
   -3.5311   -2.7616    0.7732 C   0  0  0  0  0  0  0  0  0  0  0  0
   -4.2371   -2.0766    1.2382 H   0  0  0  0  0  0  0  0  0  0  0  0
   -3.7681   -2.8816   -0.2818 H   0  0  0  0  0  0  0  0  0  0  0  0
   -2.1321   -2.2086    0.9112 C   0  0  0  0  0  0  0  0  0  0  0  0
   -1.2751   -2.8426    1.5112 O   0  0  0  0  0  0  0  0  0  0  0  0
   -1.9041   -1.0186    0.3602 N   0  0  0  0  0  0  0  0  0  0  0  0
   -2.6671   -0.5416   -0.0988 H   0  0  0  0  0  0  0  0  0  0  0  0
   -0.6131   -0.3236    0.3832 C   0  0  1  0  0  0  0  0  0  0  0  0
    0.0142   -0.7800    1.1506 H   0  0  0  0  0  0  0  0  0  0  0  0
    0.0816   -0.5059   -0.9788 C   0  0  0  0  0  0  0  0  0  0  0  0
    0.2240   -1.5733   -1.1603 H   0  0  0  0  0  0  0  0  0  0  0  0
   -0.5607   -0.1090   -1.7663 H   0  0  0  0  0  0  0  0  0  0  0  0
    1.4477    0.1842   -1.0667 C   0  0  0  0  0  0  0  0  0  0  0  0
    2.1104   -0.2375   -0.3115 H   0  0  0  0  0  0  0  0  0  0  0  0
    1.8735   -0.0061   -2.0525 H   0  0  0  0  0  0  0  0  0  0  0  0
    1.3737    1.9757   -0.8122 S   0  0  0  0  0  0  0  0  0  0  0  0
    0.5093    2.4682   -2.3261 C   0  0  0  0  0  0  0  0  0  0  0  0
   -0.4698    1.9896   -2.3626 H   0  0  0  0  0  0  0  0  0  0  0  0
    0.3802    3.5508   -2.3327 H   0  0  0  0  0  0  0  0  0  0  0  0
    1.0945    2.1714   -3.1969 H   0  0  0  0  0  0  0  0  0  0  0  0
   -0.8064    1.1568    0.7414 C   0  0  0  0  0  0  0  0  0  0  0  0
   -1.6978    1.8100    0.2029 O   0  0  0  0  0  0  0  0  0  0  0  0
    0.0314    1.6872    1.6415 N   0  0  0  0  0  0  0  0  0  0  0  0
    0.7279    1.0858    2.0517 H   0  0  0  0  0  0  0  0  0  0  0  0
   -0.0137    3.0826    2.0755 C   0  0  0  0  0  0  0  0  0  0  0  0
   -0.9991    3.3070    2.4905 H   0  0  0  0  0  0  0  0  0  0  0  0
    0.7468    3.2694    2.8349 H   0  0  0  0  0  0  0  0  0  0  0  0
    0.1592    3.7397    1.2213 H   0  0  0  0  0  0  0  0  0  0  0  0
  5  6  2  0  0  0  0
  5  7  1  0  0  0  0
  2  3  1  0  0  0  0
  2  4  1  0  0  0  0
  2  5  1  0  0  0  0
  1  2  1  0  0  0  0
 22 23  2  0  0  0  0
 22 24  1  0  0  0  0
 18 19  1  0  0  0  0
 18 20  1  0  0  0  0
 18 21  1  0  0  0  0
 17 18  1  0  0  0  0
 14 15  1  0  0  0  0
 14 16  1  0  0  0  0
 14 17  1  0  0  0  0
 11 12  1  0  0  0  0
 11 13  1  0  0  0  0
 11 14  1  0  0  0  0
  9 10  1  0  0  0  0
  9 11  1  0  0  0  0
  9 22  1  0  0  0  0
  7  8  1  0  0  0  0
  7  9  1  0  0  0  0
 26 27  1  0  0  0  0
 26 28  1  0  0  0  0
 26 29  1  0  0  0  0
 24 25  1  0  0  0  0
 24 26  1  0  0  0  0
M  END
$$$$
default_name
  -OEChem-02102213163D

 29 28  0     1  0  0  0  0  0999 V2000
   -3.5781   -3.7296    1.2702 H   0  0  0  0  0  0  0  0  0  0  0  0
   -3.5311   -2.7616    0.7732 C   0  0  0  0  0  0  0  0  0  0  0  0
   -4.2371   -2.0766    1.2382 H   0  0  0  0  0  0  0  0  0  0  0  0
   -3.7681   -2.8816   -0.2818 H   0  0  0  0  0  0  0  0  0  0  0  0
   -2.1321   -2.2086    0.9112 C   0  0  0  0  0  0  0  0  0  0  0  0
   -1.2751   -2.8426    1.5112 O   0  0  0  0  0  0  0  0  0  0  0  0
   -1.9041   -1.0186    0.3602 N   0  0  0  0  0  0  0  0  0  0  0  0
   -2.6671   -0.5416   -0.0988 H   0  0  0  0  0  0  0  0  0  0  0  0
   -0.6131   -0.3236    0.3832 C   0  0  1  0  0  0  0  0  0  0  0  0
    0.0142   -0.7800    1.1506 H   0  0  0  0  0  0  0  0  0  0  0  0
    0.0816   -0.5059   -0.9788 C   0  0  0  0  0  0  0  0  0  0  0  0
    0.2240   -1.5733   -1.1603 H   0  0  0  0  0  0  0  0  0  0  0  0
   -0.5607   -0.1090   -1.7663 H   0  0  0  0  0  0  0  0  0  0  0  0
    1.4477    0.1842   -1.0667 C   0  0  0  0  0  0  0  0  0  0  0  0
    2.1803   -0.4016   -0.5124 H   0  0  0  0  0  0  0  0  0  0  0  0
    1.7520    0.2268   -2.1131 H   0  0  0  0  0  0  0  0  0  0  0  0
    1.4545    1.8682   -0.4005 S   0  0  0  0  0  0  0  0  0  0  0  0
    0.4365    2.6988   -1.6476 C   0  0  0  0  0  0  0  0  0  0  0  0
   -0.5536    2.2429   -1.6771 H   0  0  0  0  0  0  0  0  0  0  0  0
    0.3384    3.7537   -1.3900 H   0  0  0  0  0  0  0  0  0  0  0  0
    0.9092    2.6110   -2.6262 H   0  0  0  0  0  0  0  0  0  0  0  0
   -0.8064    1.1568    0.7414 C   0  0  0  0  0  0  0  0  0  0  0  0
   -1.6978    1.8100    0.2029 O   0  0  0  0  0  0  0  0  0  0  0  0
    0.0314    1.6872    1.6415 N   0  0  0  0  0  0  0  0  0  0  0  0
    0.7279    1.0858    2.0517 H   0  0  0  0  0  0  0  0  0  0  0  0
   -0.0137    3.0826    2.0755 C   0  0  0  0  0  0  0  0  0  0  0  0
   -0.9991    3.3070    2.4905 H   0  0  0  0  0  0  0  0  0  0  0  0
    0.7468    3.2694    2.8349 H   0  0  0  0  0  0  0  0  0  0  0  0
    0.1592    3.7397    1.2213 H   0  0  0  0  0  0  0  0  0  0  0  0
  5  6  2  0  0  0  0
  5  7  1  0  0  0  0
  2  3  1  0  0  0  0
  2  4  1  0  0  0  0
  2  5  1  0  0  0  0
  1  2  1  0  0  0  0
 22 23  2  0  0  0  0
 22 24  1  0  0  0  0
 18 19  1  0  0  0  0
 18 20  1  0  0  0  0
 18 21  1  0  0  0  0
 17 18  1  0  0  0  0
 14 15  1  0  0  0  0
 14 16  1  0  0  0  0
 14 17  1  0  0  0  0
 11 12  1  0  0  0  0
 11 13  1  0  0  0  0
 11 14  1  0  0  0  0
  9 10  1  0  0  0  0
  9 11  1  0  0  0  0
  9 22  1  0  0  0  0
  7  8  1  0  0  0  0
  7  9  1  0  0  0  0
 26 27  1  0  0  0  0
 26 28  1  0  0  0  0
 26 29  1  0  0  0  0
 24 25  1  0  0  0  0
 24 26  1  0  0  0  0
M  END
$$$$
default_name
  -OEChem-02102213163D

 29 28  0     1  0  0  0  0  0999 V2000
   -3.5781   -3.7296    1.2702 H   0  0  0  0  0  0  0  0  0  0  0  0
   -3.5311   -2.7616    0.7732 C   0  0  0  0  0  0  0  0  0  0  0  0
   -4.2371   -2.0766    1.2382 H   0  0  0  0  0  0  0  0  0  0  0  0
   -3.7681   -2.8816   -0.2818 H   0  0  0  0  0  0  0  0  0  0  0  0
   -2.1321   -2.2086    0.9112 C   0  0  0  0  0  0  0  0  0  0  0  0
   -1.2751   -2.8426    1.5112 O   0  0  0  0  0  0  0  0  0  0  0  0
   -1.9041   -1.0186    0.3602 N   0  0  0  0  0  0  0  0  0  0  0  0
   -2.6671   -0.5416   -0.0988 H   0  0  0  0  0  0  0  0  0  0  0  0
   -0.6131   -0.3236    0.3832 C   0  0  1  0  0  0  0  0  0  0  0  0
    0.0142   -0.7800    1.1506 H   0  0  0  0  0  0  0  0  0  0  0  0
    0.0816   -0.5059   -0.9788 C   0  0  0  0  0  0  0  0  0  0  0  0
    0.2240   -1.5733   -1.1603 H   0  0  0  0  0  0  0  0  0  0  0  0
   -0.5607   -0.1090   -1.7663 H   0  0  0  0  0  0  0  0  0  0  0  0
    1.4477    0.1842   -1.0667 C   0  0  0  0  0  0  0  0  0  0  0  0
    2.2221   -0.5149   -0.7525 H   0  0  0  0  0  0  0  0  0  0  0  0
    1.6310    0.4675   -2.1038 H   0  0  0  0  0  0  0  0  0  0  0  0
    1.5789    1.6681   -0.0370 S   0  0  0  0  0  0  0  0  0  0  0  0
    0.4486    2.7661   -0.9306 C   0  0  0  0  0  0  0  0  0  0  0  0
   -0.5510    2.3306   -0.9467 H   0  0  0  0  0  0  0  0  0  0  0  0
    0.4108    3.7328   -0.4277 H   0  0  0  0  0  0  0  0  0  0  0  0
    0.8031    2.9067   -1.9520 H   0  0  0  0  0  0  0  0  0  0  0  0
   -0.8064    1.1568    0.7414 C   0  0  0  0  0  0  0  0  0  0  0  0
   -1.6978    1.8100    0.2029 O   0  0  0  0  0  0  0  0  0  0  0  0
    0.0314    1.6872    1.6415 N   0  0  0  0  0  0  0  0  0  0  0  0
    0.7279    1.0858    2.0517 H   0  0  0  0  0  0  0  0  0  0  0  0
   -0.0137    3.0826    2.0755 C   0  0  0  0  0  0  0  0  0  0  0  0
   -0.9991    3.3070    2.4905 H   0  0  0  0  0  0  0  0  0  0  0  0
    0.7468    3.2694    2.8349 H   0  0  0  0  0  0  0  0  0  0  0  0
    0.1592    3.7397    1.2213 H   0  0  0  0  0  0  0  0  0  0  0  0
  5  6  2  0  0  0  0
  5  7  1  0  0  0  0
  2  3  1  0  0  0  0
  2  4  1  0  0  0  0
  2  5  1  0  0  0  0
  1  2  1  0  0  0  0
 22 23  2  0  0  0  0
 22 24  1  0  0  0  0
 18 19  1  0  0  0  0
 18 20  1  0  0  0  0
 18 21  1  0  0  0  0
 17 18  1  0  0  0  0
 14 15  1  0  0  0  0
 14 16  1  0  0  0  0
 14 17  1  0  0  0  0
 11 12  1  0  0  0  0
 11 13  1  0  0  0  0
 11 14  1  0  0  0  0
  9 10  1  0  0  0  0
  9 11  1  0  0  0  0
  9 22  1  0  0  0  0
  7  8  1  0  0  0  0
  7  9  1  0  0  0  0
 26 27  1  0  0  0  0
 26 28  1  0  0  0  0
 26 29  1  0  0  0  0
 24 25  1  0  0  0  0
 24 26  1  0  0  0  0
M  END
$$$$
default_name
  -OEChem-02102213163D

 29 28  0     1  0  0  0  0  0999 V2000
   -3.5781   -3.7296    1.2702 H   0  0  0  0  0  0  0  0  0  0  0  0
   -3.5311   -2.7616    0.7732 C   0  0  0  0  0  0  0  0  0  0  0  0
   -4.2371   -2.0766    1.2382 H   0  0  0  0  0  0  0  0  0  0  0  0
   -3.7681   -2.8816   -0.2818 H   0  0  0  0  0  0  0  0  0  0  0  0
   -2.1321   -2.2086    0.9112 C   0  0  0  0  0  0  0  0  0  0  0  0
   -1.2751   -2.8426    1.5112 O   0  0  0  0  0  0  0  0  0  0  0  0
   -1.9041   -1.0186    0.3602 N   0  0  0  0  0  0  0  0  0  0  0  0
   -2.6671   -0.5416   -0.0988 H   0  0  0  0  0  0  0  0  0  0  0  0
   -0.6131   -0.3236    0.3832 C   0  0  1  0  0  0  0  0  0  0  0  0
    0.0142   -0.7800    1.1506 H   0  0  0  0  0  0  0  0  0  0  0  0
    0.0816   -0.5059   -0.9788 C   0  0  0  0  0  0  0  0  0  0  0  0
    0.2240   -1.5733   -1.1603 H   0  0  0  0  0  0  0  0  0  0  0  0
   -0.5607   -0.1090   -1.7663 H   0  0  0  0  0  0  0  0  0  0  0  0
    1.4477    0.1842   -1.0667 C   0  0  0  0  0  0  0  0  0  0  0  0
    2.2328   -0.5696   -1.0153 H   0  0  0  0  0  0  0  0  0  0  0  0
    1.5187    0.6997   -2.0251 H   0  0  0  0  0  0  0  0  0  0  0  0
    1.7385    1.3893    0.2535 S   0  0  0  0  0  0  0  0  0  0  0  0
    0.5448    2.6656   -0.2238 C   0  0  0  0  0  0  0  0  0  0  0  0
   -0.4620    2.2468   -0.2213 H   0  0  0  0  0  0  0  0  0  0  0  0
    0.5926    3.4897    0.4886 H   0  0  0  0  0  0  0  0  0  0  0  0
    0.7837    3.0385   -1.2202 H   0  0  0  0  0  0  0  0  0  0  0  0
   -0.8064    1.1568    0.7414 C   0  0  0  0  0  0  0  0  0  0  0  0
   -1.6978    1.8100    0.2029 O   0  0  0  0  0  0  0  0  0  0  0  0
    0.0314    1.6872    1.6415 N   0  0  0  0  0  0  0  0  0  0  0  0
    0.7279    1.0858    2.0517 H   0  0  0  0  0  0  0  0  0  0  0  0
   -0.0137    3.0826    2.0755 C   0  0  0  0  0  0  0  0  0  0  0  0
   -0.9991    3.3070    2.4905 H   0  0  0  0  0  0  0  0  0  0  0  0
    0.7468    3.2694    2.8349 H   0  0  0  0  0  0  0  0  0  0  0  0
    0.1592    3.7397    1.2213 H   0  0  0  0  0  0  0  0  0  0  0  0
  5  6  2  0  0  0  0
  5  7  1  0  0  0  0
  2  3  1  0  0  0  0
  2  4  1  0  0  0  0
  2  5  1  0  0  0  0
  1  2  1  0  0  0  0
 22 23  2  0  0  0  0
 22 24  1  0  0  0  0
 18 19  1  0  0  0  0
 18 20  1  0  0  0  0
 18 21  1  0  0  0  0
 17 18  1  0  0  0  0
 14 15  1  0  0  0  0
 14 16  1  0  0  0  0
 14 17  1  0  0  0  0
 11 12  1  0  0  0  0
 11 13  1  0  0  0  0
 11 14  1  0  0  0  0
  9 10  1  0  0  0  0
  9 11  1  0  0  0  0
  9 22  1  0  0  0  0
  7  8  1  0  0  0  0
  7  9  1  0  0  0  0
 26 27  1  0  0  0  0
 26 28  1  0  0  0  0
 26 29  1  0  0  0  0
 24 25  1  0  0  0  0
 24 26  1  0  0  0  0
M  END
$$$$
default_name
  -OEChem-02102213163D

 29 28  0     1  0  0  0  0  0999 V2000
   -3.5781   -3.7296    1.2702 H   0  0  0  0  0  0  0  0  0  0  0  0
   -3.5311   -2.7616    0.7732 C   0  0  0  0  0  0  0  0  0  0  0  0
   -4.2371   -2.0766    1.2382 H   0  0  0  0  0  0  0  0  0  0  0  0
   -3.7681   -2.8816   -0.2818 H   0  0  0  0  0  0  0  0  0  0  0  0
   -2.1321   -2.2086    0.9112 C   0  0  0  0  0  0  0  0  0  0  0  0
   -1.2751   -2.8426    1.5112 O   0  0  0  0  0  0  0  0  0  0  0  0
   -1.9041   -1.0186    0.3602 N   0  0  0  0  0  0  0  0  0  0  0  0
   -2.6671   -0.5416   -0.0988 H   0  0  0  0  0  0  0  0  0  0  0  0
   -0.6131   -0.3236    0.3832 C   0  0  1  0  0  0  0  0  0  0  0  0
    0.0142   -0.7800    1.1506 H   0  0  0  0  0  0  0  0  0  0  0  0
    0.0816   -0.5059   -0.9788 C   0  0  0  0  0  0  0  0  0  0  0  0
    0.2240   -1.5733   -1.1603 H   0  0  0  0  0  0  0  0  0  0  0  0
   -0.5607   -0.1090   -1.7663 H   0  0  0  0  0  0  0  0  0  0  0  0
    1.4477    0.1842   -1.0667 C   0  0  0  0  0  0  0  0  0  0  0  0
    2.2117   -0.5619   -1.2831 H   0  0  0  0  0  0  0  0  0  0  0  0
    1.4229    0.9075   -1.8825 H   0  0  0  0  0  0  0  0  0  0  0  0
    1.9223    1.0505    0.4512 S   0  0  0  0  0  0  0  0  0  0  0  0
    0.7186    2.4041    0.4245 C   0  0  0  0  0  0  0  0  0  0  0  0
   -0.2928    1.9973    0.4497 H   0  0  0  0  0  0  0  0  0  0  0  0
    0.8712    3.0408    1.2963 H   0  0  0  0  0  0  0  0  0  0  0  0
    0.8520    2.9972   -0.4806 H   0  0  0  0  0  0  0  0  0  0  0  0
   -0.8064    1.1568    0.7414 C   0  0  0  0  0  0  0  0  0  0  0  0
   -1.6978    1.8100    0.2029 O   0  0  0  0  0  0  0  0  0  0  0  0
    0.0314    1.6872    1.6415 N   0  0  0  0  0  0  0  0  0  0  0  0
    0.7279    1.0858    2.0517 H   0  0  0  0  0  0  0  0  0  0  0  0
   -0.0137    3.0826    2.0755 C   0  0  0  0  0  0  0  0  0  0  0  0
   -0.9991    3.3070    2.4905 H   0  0  0  0  0  0  0  0  0  0  0  0
    0.7468    3.2694    2.8349 H   0  0  0  0  0  0  0  0  0  0  0  0
    0.1592    3.7397    1.2213 H   0  0  0  0  0  0  0  0  0  0  0  0
  5  6  2  0  0  0  0
  5  7  1  0  0  0  0
  2  3  1  0  0  0  0
  2  4  1  0  0  0  0
  2  5  1  0  0  0  0
  1  2  1  0  0  0  0
 22 23  2  0  0  0  0
 22 24  1  0  0  0  0
 18 19  1  0  0  0  0
 18 20  1  0  0  0  0
 18 21  1  0  0  0  0
 17 18  1  0  0  0  0
 14 15  1  0  0  0  0
 14 16  1  0  0  0  0
 14 17  1  0  0  0  0
 11 12  1  0  0  0  0
 11 13  1  0  0  0  0
 11 14  1  0  0  0  0
  9 10  1  0  0  0  0
  9 11  1  0  0  0  0
  9 22  1  0  0  0  0
  7  8  1  0  0  0  0
  7  9  1  0  0  0  0
 26 27  1  0  0  0  0
 26 28  1  0  0  0  0
 26 29  1  0  0  0  0
 24 25  1  0  0  0  0
 24 26  1  0  0  0  0
M  END
$$$$
default_name
  -OEChem-02102213163D

 29 28  0     1  0  0  0  0  0999 V2000
   -3.5781   -3.7296    1.2702 H   0  0  0  0  0  0  0  0  0  0  0  0
   -3.5311   -2.7616    0.7732 C   0  0  0  0  0  0  0  0  0  0  0  0
   -4.2371   -2.0766    1.2382 H   0  0  0  0  0  0  0  0  0  0  0  0
   -3.7681   -2.8816   -0.2818 H   0  0  0  0  0  0  0  0  0  0  0  0
   -2.1321   -2.2086    0.9112 C   0  0  0  0  0  0  0  0  0  0  0  0
   -1.2751   -2.8426    1.5112 O   0  0  0  0  0  0  0  0  0  0  0  0
   -1.9041   -1.0186    0.3602 N   0  0  0  0  0  0  0  0  0  0  0  0
   -2.6671   -0.5416   -0.0988 H   0  0  0  0  0  0  0  0  0  0  0  0
   -0.6131   -0.3236    0.3832 C   0  0  1  0  0  0  0  0  0  0  0  0
    0.0142   -0.7800    1.1506 H   0  0  0  0  0  0  0  0  0  0  0  0
    0.0816   -0.5059   -0.9788 C   0  0  0  0  0  0  0  0  0  0  0  0
    0.2240   -1.5733   -1.1603 H   0  0  0  0  0  0  0  0  0  0  0  0
   -0.5607   -0.1090   -1.7663 H   0  0  0  0  0  0  0  0  0  0  0  0
    1.4477    0.1842   -1.0667 C   0  0  0  0  0  0  0  0  0  0  0  0
    2.1603   -0.4924   -1.5375 H   0  0  0  0  0  0  0  0  0  0  0  0
    1.3501    1.0768   -1.6857 H   0  0  0  0  0  0  0  0  0  0  0  0
    2.1178    0.6750    0.5426 S   0  0  0  0  0  0  0  0  0  0  0  0
    0.9581    1.9994    0.9701 C   0  0  0  0  0  0  0  0  0  0  0  0
   -0.0549    1.5989    1.0206 H   0  0  0  0  0  0  0  0  0  0  0  0
    1.2279    2.4167    1.9406 H   0  0  0  0  0  0  0  0  0  0  0  0
    1.0037    2.7858    0.2162 H   0  0  0  0  0  0  0  0  0  0  0  0
   -0.8064    1.1568    0.7414 C   0  0  0  0  0  0  0  0  0  0  0  0
   -1.6978    1.8100    0.2029 O   0  0  0  0  0  0  0  0  0  0  0  0
    0.0314    1.6872    1.6415 N   0  0  0  0  0  0  0  0  0  0  0  0
    0.7279    1.0858    2.0517 H   0  0  0  0  0  0  0  0  0  0  0  0
   -0.0137    3.0826    2.0755 C   0  0  0  0  0  0  0  0  0  0  0  0
   -0.9991    3.3070    2.4905 H   0  0  0  0  0  0  0  0  0  0  0  0
    0.7468    3.2694    2.8349 H   0  0  0  0  0  0  0  0  0  0  0  0
    0.1592    3.7397    1.2213 H   0  0  0  0  0  0  0  0  0  0  0  0
  5  6  2  0  0  0  0
  5  7  1  0  0  0  0
  2  3  1  0  0  0  0
  2  4  1  0  0  0  0
  2  5  1  0  0  0  0
  1  2  1  0  0  0  0
 22 23  2  0  0  0  0
 22 24  1  0  0  0  0
 18 19  1  0  0  0  0
 18 20  1  0  0  0  0
 18 21  1  0  0  0  0
 17 18  1  0  0  0  0
 14 15  1  0  0  0  0
 14 16  1  0  0  0  0
 14 17  1  0  0  0  0
 11 12  1  0  0  0  0
 11 13  1  0  0  0  0
 11 14  1  0  0  0  0
  9 10  1  0  0  0  0
  9 11  1  0  0  0  0
  9 22  1  0  0  0  0
  7  8  1  0  0  0  0
  7  9  1  0  0  0  0
 26 27  1  0  0  0  0
 26 28  1  0  0  0  0
 26 29  1  0  0  0  0
 24 25  1  0  0  0  0
 24 26  1  0  0  0  0
M  END
$$$$
default_name
  -OEChem-02102213163D

 29 28  0     1  0  0  0  0  0999 V2000
   -3.5781   -3.7296    1.2702 H   0  0  0  0  0  0  0  0  0  0  0  0
   -3.5311   -2.7616    0.7732 C   0  0  0  0  0  0  0  0  0  0  0  0
   -4.2371   -2.0766    1.2382 H   0  0  0  0  0  0  0  0  0  0  0  0
   -3.7681   -2.8816   -0.2818 H   0  0  0  0  0  0  0  0  0  0  0  0
   -2.1321   -2.2086    0.9112 C   0  0  0  0  0  0  0  0  0  0  0  0
   -1.2751   -2.8426    1.5112 O   0  0  0  0  0  0  0  0  0  0  0  0
   -1.9041   -1.0186    0.3602 N   0  0  0  0  0  0  0  0  0  0  0  0
   -2.6671   -0.5416   -0.0988 H   0  0  0  0  0  0  0  0  0  0  0  0
   -0.6131   -0.3236    0.3832 C   0  0  1  0  0  0  0  0  0  0  0  0
    0.0142   -0.7800    1.1506 H   0  0  0  0  0  0  0  0  0  0  0  0
    0.0816   -0.5059   -0.9788 C   0  0  0  0  0  0  0  0  0  0  0  0
    0.2240   -1.5733   -1.1603 H   0  0  0  0  0  0  0  0  0  0  0  0
   -0.5607   -0.1090   -1.7663 H   0  0  0  0  0  0  0  0  0  0  0  0
    1.4477    0.1842   -1.0667 C   0  0  0  0  0  0  0  0  0  0  0  0
    2.0820   -0.3659   -1.7612 H   0  0  0  0  0  0  0  0  0  0  0  0
    1.3052    1.1960   -1.4480 H   0  0  0  0  0  0  0  0  0  0  0  0
    2.3118    0.2883    0.5214 S   0  0  0  0  0  0  0  0  0  0  0  0
    1.2470    1.4791    1.3759 C   0  0  0  0  0  0  0  0  0  0  0  0
    0.2355    1.0790    1.4524 H   0  0  0  0  0  0  0  0  0  0  0  0
    1.6382    1.6601    2.3774 H   0  0  0  0  0  0  0  0  0  0  0  0
    1.2281    2.4186    0.8229 H   0  0  0  0  0  0  0  0  0  0  0  0
   -0.8064    1.1568    0.7414 C   0  0  0  0  0  0  0  0  0  0  0  0
   -1.6978    1.8100    0.2029 O   0  0  0  0  0  0  0  0  0  0  0  0
    0.0314    1.6872    1.6415 N   0  0  0  0  0  0  0  0  0  0  0  0
    0.7279    1.0858    2.0517 H   0  0  0  0  0  0  0  0  0  0  0  0
   -0.0137    3.0826    2.0755 C   0  0  0  0  0  0  0  0  0  0  0  0
   -0.9991    3.3070    2.4905 H   0  0  0  0  0  0  0  0  0  0  0  0
    0.7468    3.2694    2.8349 H   0  0  0  0  0  0  0  0  0  0  0  0
    0.1592    3.7397    1.2213 H   0  0  0  0  0  0  0  0  0  0  0  0
  5  6  2  0  0  0  0
  5  7  1  0  0  0  0
  2  3  1  0  0  0  0
  2  4  1  0  0  0  0
  2  5  1  0  0  0  0
  1  2  1  0  0  0  0
 22 23  2  0  0  0  0
 22 24  1  0  0  0  0
 18 19  1  0  0  0  0
 18 20  1  0  0  0  0
 18 21  1  0  0  0  0
 17 18  1  0  0  0  0
 14 15  1  0  0  0  0
 14 16  1  0  0  0  0
 14 17  1  0  0  0  0
 11 12  1  0  0  0  0
 11 13  1  0  0  0  0
 11 14  1  0  0  0  0
  9 10  1  0  0  0  0
  9 11  1  0  0  0  0
  9 22  1  0  0  0  0
  7  8  1  0  0  0  0
  7  9  1  0  0  0  0
 26 27  1  0  0  0  0
 26 28  1  0  0  0  0
 26 29  1  0  0  0  0
 24 25  1  0  0  0  0
 24 26  1  0  0  0  0
M  END
$$$$
default_name
  -OEChem-02102213163D

 29 28  0     1  0  0  0  0  0999 V2000
   -3.5781   -3.7296    1.2702 H   0  0  0  0  0  0  0  0  0  0  0  0
   -3.5311   -2.7616    0.7732 C   0  0  0  0  0  0  0  0  0  0  0  0
   -4.2371   -2.0766    1.2382 H   0  0  0  0  0  0  0  0  0  0  0  0
   -3.7681   -2.8816   -0.2818 H   0  0  0  0  0  0  0  0  0  0  0  0
   -2.1321   -2.2086    0.9112 C   0  0  0  0  0  0  0  0  0  0  0  0
   -1.2751   -2.8426    1.5112 O   0  0  0  0  0  0  0  0  0  0  0  0
   -1.9041   -1.0186    0.3602 N   0  0  0  0  0  0  0  0  0  0  0  0
   -2.6671   -0.5416   -0.0988 H   0  0  0  0  0  0  0  0  0  0  0  0
   -0.6131   -0.3236    0.3832 C   0  0  1  0  0  0  0  0  0  0  0  0
    0.0142   -0.7800    1.1506 H   0  0  0  0  0  0  0  0  0  0  0  0
    0.0816   -0.5059   -0.9788 C   0  0  0  0  0  0  0  0  0  0  0  0
    0.2240   -1.5733   -1.1603 H   0  0  0  0  0  0  0  0  0  0  0  0
   -0.5607   -0.1090   -1.7663 H   0  0  0  0  0  0  0  0  0  0  0  0
    1.4477    0.1842   -1.0667 C   0  0  0  0  0  0  0  0  0  0  0  0
    1.9821   -0.1909   -1.9390 H   0  0  0  0  0  0  0  0  0  0  0  0
    1.2913    1.2569   -1.1858 H   0  0  0  0  0  0  0  0  0  0  0  0
    2.4910   -0.0832    0.3893 S   0  0  0  0  0  0  0  0  0  0  0  0
    1.5656    0.8786    1.6142 C   0  0  0  0  0  0  0  0  0  0  0  0
    0.5586    0.4729    1.7158 H   0  0  0  0  0  0  0  0  0  0  0  0
    2.0741    0.8224    2.5770 H   0  0  0  0  0  0  0  0  0  0  0  0
    1.5102    1.9207    1.2981 H   0  0  0  0  0  0  0  0  0  0  0  0
   -0.8064    1.1568    0.7414 C   0  0  0  0  0  0  0  0  0  0  0  0
   -1.6978    1.8100    0.2029 O   0  0  0  0  0  0  0  0  0  0  0  0
    0.0314    1.6872    1.6415 N   0  0  0  0  0  0  0  0  0  0  0  0
    0.7279    1.0858    2.0517 H   0  0  0  0  0  0  0  0  0  0  0  0
   -0.0137    3.0826    2.0755 C   0  0  0  0  0  0  0  0  0  0  0  0
   -0.9991    3.3070    2.4905 H   0  0  0  0  0  0  0  0  0  0  0  0
    0.7468    3.2694    2.8349 H   0  0  0  0  0  0  0  0  0  0  0  0
    0.1592    3.7397    1.2213 H   0  0  0  0  0  0  0  0  0  0  0  0
  5  6  2  0  0  0  0
  5  7  1  0  0  0  0
  2  3  1  0  0  0  0
  2  4  1  0  0  0  0
  2  5  1  0  0  0  0
  1  2  1  0  0  0  0
 22 23  2  0  0  0  0
 22 24  1  0  0  0  0
 18 19  1  0  0  0  0
 18 20  1  0  0  0  0
 18 21  1  0  0  0  0
 17 18  1  0  0  0  0
 14 15  1  0  0  0  0
 14 16  1  0  0  0  0
 14 17  1  0  0  0  0
 11 12  1  0  0  0  0
 11 13  1  0  0  0  0
 11 14  1  0  0  0  0
  9 10  1  0  0  0  0
  9 11  1  0  0  0  0
  9 22  1  0  0  0  0
  7  8  1  0  0  0  0
  7  9  1  0  0  0  0
 26 27  1  0  0  0  0
 26 28  1  0  0  0  0
 26 29  1  0  0  0  0
 24 25  1  0  0  0  0
 24 26  1  0  0  0  0
M  END
$$$$
default_name
  -OEChem-02102213163D

 29 28  0     1  0  0  0  0  0999 V2000
   -3.5781   -3.7296    1.2702 H   0  0  0  0  0  0  0  0  0  0  0  0
   -3.5311   -2.7616    0.7732 C   0  0  0  0  0  0  0  0  0  0  0  0
   -4.2371   -2.0766    1.2382 H   0  0  0  0  0  0  0  0  0  0  0  0
   -3.7681   -2.8816   -0.2818 H   0  0  0  0  0  0  0  0  0  0  0  0
   -2.1321   -2.2086    0.9112 C   0  0  0  0  0  0  0  0  0  0  0  0
   -1.2751   -2.8426    1.5112 O   0  0  0  0  0  0  0  0  0  0  0  0
   -1.9041   -1.0186    0.3602 N   0  0  0  0  0  0  0  0  0  0  0  0
   -2.6671   -0.5416   -0.0988 H   0  0  0  0  0  0  0  0  0  0  0  0
   -0.6131   -0.3236    0.3832 C   0  0  1  0  0  0  0  0  0  0  0  0
    0.0142   -0.7800    1.1506 H   0  0  0  0  0  0  0  0  0  0  0  0
    0.0816   -0.5059   -0.9788 C   0  0  0  0  0  0  0  0  0  0  0  0
    0.2240   -1.5733   -1.1603 H   0  0  0  0  0  0  0  0  0  0  0  0
   -0.5607   -0.1090   -1.7663 H   0  0  0  0  0  0  0  0  0  0  0  0
    1.4477    0.1842   -1.0667 C   0  0  0  0  0  0  0  0  0  0  0  0
    1.8676    0.0207   -2.0587 H   0  0  0  0  0  0  0  0  0  0  0  0
    1.3093    1.2555   -0.9168 H   0  0  0  0  0  0  0  0  0  0  0  0
    2.6431   -0.4142    0.1550 S   0  0  0  0  0  0  0  0  0  0  0  0
    1.8922    0.2389    1.6687 C   0  0  0  0  0  0  0  0  0  0  0  0
    0.8924   -0.1781    1.7927 H   0  0  0  0  0  0  0  0  0  0  0  0
    2.5061   -0.0393    2.5258 H   0  0  0  0  0  0  0  0  0  0  0  0
    1.8307    1.3259    1.6094 H   0  0  0  0  0  0  0  0  0  0  0  0
   -0.8064    1.1568    0.7414 C   0  0  0  0  0  0  0  0  0  0  0  0
   -1.6978    1.8100    0.2029 O   0  0  0  0  0  0  0  0  0  0  0  0
    0.0314    1.6872    1.6415 N   0  0  0  0  0  0  0  0  0  0  0  0
    0.7279    1.0858    2.0517 H   0  0  0  0  0  0  0  0  0  0  0  0
   -0.0137    3.0826    2.0755 C   0  0  0  0  0  0  0  0  0  0  0  0
   -0.9991    3.3070    2.4905 H   0  0  0  0  0  0  0  0  0  0  0  0
    0.7468    3.2694    2.8349 H   0  0  0  0  0  0  0  0  0  0  0  0
    0.1592    3.7397    1.2213 H   0  0  0  0  0  0  0  0  0  0  0  0
  5  6  2  0  0  0  0
  5  7  1  0  0  0  0
  2  3  1  0  0  0  0
  2  4  1  0  0  0  0
  2  5  1  0  0  0  0
  1  2  1  0  0  0  0
 22 23  2  0  0  0  0
 22 24  1  0  0  0  0
 18 19  1  0  0  0  0
 18 20  1  0  0  0  0
 18 21  1  0  0  0  0
 17 18  1  0  0  0  0
 14 15  1  0  0  0  0
 14 16  1  0  0  0  0
 14 17  1  0  0  0  0
 11 12  1  0  0  0  0
 11 13  1  0  0  0  0
 11 14  1  0  0  0  0
  9 10  1  0  0  0  0
  9 11  1  0  0  0  0
  9 22  1  0  0  0  0
  7  8  1  0  0  0  0
  7  9  1  0  0  0  0
 26 27  1  0  0  0  0
 26 28  1  0  0  0  0
 26 29  1  0  0  0  0
 24 25  1  0  0  0  0
 24 26  1  0  0  0  0
M  END
$$$$
default_name
  -OEChem-02102213163D

 29 28  0     1  0  0  0  0  0999 V2000
   -3.5781   -3.7296    1.2702 H   0  0  0  0  0  0  0  0  0  0  0  0
   -3.5311   -2.7616    0.7732 C   0  0  0  0  0  0  0  0  0  0  0  0
   -4.2371   -2.0766    1.2382 H   0  0  0  0  0  0  0  0  0  0  0  0
   -3.7681   -2.8816   -0.2818 H   0  0  0  0  0  0  0  0  0  0  0  0
   -2.1321   -2.2086    0.9112 C   0  0  0  0  0  0  0  0  0  0  0  0
   -1.2751   -2.8426    1.5112 O   0  0  0  0  0  0  0  0  0  0  0  0
   -1.9041   -1.0186    0.3602 N   0  0  0  0  0  0  0  0  0  0  0  0
   -2.6671   -0.5416   -0.0988 H   0  0  0  0  0  0  0  0  0  0  0  0
   -0.6131   -0.3236    0.3832 C   0  0  1  0  0  0  0  0  0  0  0  0
    0.0142   -0.7800    1.1506 H   0  0  0  0  0  0  0  0  0  0  0  0
    0.0816   -0.5059   -0.9788 C   0  0  0  0  0  0  0  0  0  0  0  0
    0.2240   -1.5733   -1.1603 H   0  0  0  0  0  0  0  0  0  0  0  0
   -0.5607   -0.1090   -1.7663 H   0  0  0  0  0  0  0  0  0  0  0  0
    1.4477    0.1842   -1.0667 C   0  0  0  0  0  0  0  0  0  0  0  0
    1.7461    0.2543   -2.1123 H   0  0  0  0  0  0  0  0  0  0  0  0
    1.3580    1.1919   -0.6593 H   0  0  0  0  0  0  0  0  0  0  0  0
    2.7579   -0.6822   -0.1653 S   0  0  0  0  0  0  0  0  0  0  0  0
    2.2046   -0.3964    1.5359 C   0  0  0  0  0  0  0  0  0  0  0  0
    1.2141   -0.8296    1.6780 H   0  0  0  0  0  0  0  0  0  0  0  0
    2.9045   -0.8662    2.2273 H   0  0  0  0  0  0  0  0  0  0  0  0
    2.1676    0.6749    1.7355 H   0  0  0  0  0  0  0  0  0  0  0  0
   -0.8064    1.1568    0.7414 C   0  0  0  0  0  0  0  0  0  0  0  0
   -1.6978    1.8100    0.2029 O   0  0  0  0  0  0  0  0  0  0  0  0
    0.0314    1.6872    1.6415 N   0  0  0  0  0  0  0  0  0  0  0  0
    0.7279    1.0858    2.0517 H   0  0  0  0  0  0  0  0  0  0  0  0
   -0.0137    3.0826    2.0755 C   0  0  0  0  0  0  0  0  0  0  0  0
   -0.9991    3.3070    2.4905 H   0  0  0  0  0  0  0  0  0  0  0  0
    0.7468    3.2694    2.8349 H   0  0  0  0  0  0  0  0  0  0  0  0
    0.1592    3.7397    1.2213 H   0  0  0  0  0  0  0  0  0  0  0  0
  5  6  2  0  0  0  0
  5  7  1  0  0  0  0
  2  3  1  0  0  0  0
  2  4  1  0  0  0  0
  2  5  1  0  0  0  0
  1  2  1  0  0  0  0
 22 23  2  0  0  0  0
 22 24  1  0  0  0  0
 18 19  1  0  0  0  0
 18 20  1  0  0  0  0
 18 21  1  0  0  0  0
 17 18  1  0  0  0  0
 14 15  1  0  0  0  0
 14 16  1  0  0  0  0
 14 17  1  0  0  0  0
 11 12  1  0  0  0  0
 11 13  1  0  0  0  0
 11 14  1  0  0  0  0
  9 10  1  0  0  0  0
  9 11  1  0  0  0  0
  9 22  1  0  0  0  0
  7  8  1  0  0  0  0
  7  9  1  0  0  0  0
 26 27  1  0  0  0  0
 26 28  1  0  0  0  0
 26 29  1  0  0  0  0
 24 25  1  0  0  0  0
 24 26  1  0  0  0  0
M  END
$$$$
default_name
  -OEChem-02102213163D

 29 28  0     1  0  0  0  0  0999 V2000
   -3.5781   -3.7296    1.2702 H   0  0  0  0  0  0  0  0  0  0  0  0
   -3.5311   -2.7616    0.7732 C   0  0  0  0  0  0  0  0  0  0  0  0
   -4.2371   -2.0766    1.2382 H   0  0  0  0  0  0  0  0  0  0  0  0
   -3.7681   -2.8816   -0.2818 H   0  0  0  0  0  0  0  0  0  0  0  0
   -2.1321   -2.2086    0.9112 C   0  0  0  0  0  0  0  0  0  0  0  0
   -1.2751   -2.8426    1.5112 O   0  0  0  0  0  0  0  0  0  0  0  0
   -1.9041   -1.0186    0.3602 N   0  0  0  0  0  0  0  0  0  0  0  0
   -2.6671   -0.5416   -0.0988 H   0  0  0  0  0  0  0  0  0  0  0  0
   -0.6131   -0.3236    0.3832 C   0  0  1  0  0  0  0  0  0  0  0  0
    0.0142   -0.7800    1.1506 H   0  0  0  0  0  0  0  0  0  0  0  0
    0.0816   -0.5059   -0.9788 C   0  0  0  0  0  0  0  0  0  0  0  0
    0.2240   -1.5733   -1.1603 H   0  0  0  0  0  0  0  0  0  0  0  0
   -0.5607   -0.1090   -1.7663 H   0  0  0  0  0  0  0  0  0  0  0  0
    1.4477    0.1842   -1.0667 C   0  0  0  0  0  0  0  0  0  0  0  0
    1.6261    0.4941   -2.0959 H   0  0  0  0  0  0  0  0  0  0  0  0
    1.4341    1.0703   -0.4310 H   0  0  0  0  0  0  0  0  0  0  0  0
    2.8274   -0.8689   -0.5499 S   0  0  0  0  0  0  0  0  0  0  0  0
    2.4814   -0.9840    1.2246 C   0  0  0  0  0  0  0  0  0  0  0  0
    1.5018   -1.4373    1.3795 H   0  0  0  0  0  0  0  0  0  0  0  0
    3.2424   -1.6020    1.7019 H   0  0  0  0  0  0  0  0  0  0  0  0
    2.4981    0.0119    1.6680 H   0  0  0  0  0  0  0  0  0  0  0  0
   -0.8064    1.1568    0.7414 C   0  0  0  0  0  0  0  0  0  0  0  0
   -1.6978    1.8100    0.2029 O   0  0  0  0  0  0  0  0  0  0  0  0
    0.0314    1.6872    1.6415 N   0  0  0  0  0  0  0  0  0  0  0  0
    0.7279    1.0858    2.0517 H   0  0  0  0  0  0  0  0  0  0  0  0
   -0.0137    3.0826    2.0755 C   0  0  0  0  0  0  0  0  0  0  0  0
   -0.9991    3.3070    2.4905 H   0  0  0  0  0  0  0  0  0  0  0  0
    0.7468    3.2694    2.8349 H   0  0  0  0  0  0  0  0  0  0  0  0
    0.1592    3.7397    1.2213 H   0  0  0  0  0  0  0  0  0  0  0  0
  5  6  2  0  0  0  0
  5  7  1  0  0  0  0
  2  3  1  0  0  0  0
  2  4  1  0  0  0  0
  2  5  1  0  0  0  0
  1  2  1  0  0  0  0
 22 23  2  0  0  0  0
 22 24  1  0  0  0  0
 18 19  1  0  0  0  0
 18 20  1  0  0  0  0
 18 21  1  0  0  0  0
 17 18  1  0  0  0  0
 14 15  1  0  0  0  0
 14 16  1  0  0  0  0
 14 17  1  0  0  0  0
 11 12  1  0  0  0  0
 11 13  1  0  0  0  0
 11 14  1  0  0  0  0
  9 10  1  0  0  0  0
  9 11  1  0  0  0  0
  9 22  1  0  0  0  0
  7  8  1  0  0  0  0
  7  9  1  0  0  0  0
 26 27  1  0  0  0  0
 26 28  1  0  0  0  0
 26 29  1  0  0  0  0
 24 25  1  0  0  0  0
 24 26  1  0  0  0  0
M  END
$$$$
default_name
  -OEChem-02102213163D

 29 28  0     1  0  0  0  0  0999 V2000
   -3.5781   -3.7296    1.2702 H   0  0  0  0  0  0  0  0  0  0  0  0
   -3.5311   -2.7616    0.7732 C   0  0  0  0  0  0  0  0  0  0  0  0
   -4.2371   -2.0766    1.2382 H   0  0  0  0  0  0  0  0  0  0  0  0
   -3.7681   -2.8816   -0.2818 H   0  0  0  0  0  0  0  0  0  0  0  0
   -2.1321   -2.2086    0.9112 C   0  0  0  0  0  0  0  0  0  0  0  0
   -1.2751   -2.8426    1.5112 O   0  0  0  0  0  0  0  0  0  0  0  0
   -1.9041   -1.0186    0.3602 N   0  0  0  0  0  0  0  0  0  0  0  0
   -2.6671   -0.5416   -0.0988 H   0  0  0  0  0  0  0  0  0  0  0  0
   -0.6131   -0.3236    0.3832 C   0  0  1  0  0  0  0  0  0  0  0  0
    0.0142   -0.7800    1.1506 H   0  0  0  0  0  0  0  0  0  0  0  0
    0.0816   -0.5059   -0.9788 C   0  0  0  0  0  0  0  0  0  0  0  0
    0.2240   -1.5733   -1.1603 H   0  0  0  0  0  0  0  0  0  0  0  0
   -0.5607   -0.1090   -1.7663 H   0  0  0  0  0  0  0  0  0  0  0  0
    1.4477    0.1842   -1.0667 C   0  0  0  0  0  0  0  0  0  0  0  0
    1.5155    0.7238   -2.0109 H   0  0  0  0  0  0  0  0  0  0  0  0
    1.5324    0.8990   -0.2474 H   0  0  0  0  0  0  0  0  0  0  0  0
    2.8470   -0.9616   -0.9725 S   0  0  0  0  0  0  0  0  0  0  0  0
    2.7038   -1.4840    0.7561 C   0  0  0  0  0  0  0  0  0  0  0  0
    1.7359   -1.9596    0.9175 H   0  0  0  0  0  0  0  0  0  0  0  0
    3.4966   -2.1965    0.9853 H   0  0  0  0  0  0  0  0  0  0  0  0
    2.7997   -0.6177    1.4113 H   0  0  0  0  0  0  0  0  0  0  0  0
   -0.8064    1.1568    0.7414 C   0  0  0  0  0  0  0  0  0  0  0  0
   -1.6978    1.8100    0.2029 O   0  0  0  0  0  0  0  0  0  0  0  0
    0.0314    1.6872    1.6415 N   0  0  0  0  0  0  0  0  0  0  0  0
    0.7279    1.0858    2.0517 H   0  0  0  0  0  0  0  0  0  0  0  0
   -0.0137    3.0826    2.0755 C   0  0  0  0  0  0  0  0  0  0  0  0
   -0.9991    3.3070    2.4905 H   0  0  0  0  0  0  0  0  0  0  0  0
    0.7468    3.2694    2.8349 H   0  0  0  0  0  0  0  0  0  0  0  0
    0.1592    3.7397    1.2213 H   0  0  0  0  0  0  0  0  0  0  0  0
  5  6  2  0  0  0  0
  5  7  1  0  0  0  0
  2  3  1  0  0  0  0
  2  4  1  0  0  0  0
  2  5  1  0  0  0  0
  1  2  1  0  0  0  0
 22 23  2  0  0  0  0
 22 24  1  0  0  0  0
 18 19  1  0  0  0  0
 18 20  1  0  0  0  0
 18 21  1  0  0  0  0
 17 18  1  0  0  0  0
 14 15  1  0  0  0  0
 14 16  1  0  0  0  0
 14 17  1  0  0  0  0
 11 12  1  0  0  0  0
 11 13  1  0  0  0  0
 11 14  1  0  0  0  0
  9 10  1  0  0  0  0
  9 11  1  0  0  0  0
  9 22  1  0  0  0  0
  7  8  1  0  0  0  0
  7  9  1  0  0  0  0
 26 27  1  0  0  0  0
 26 28  1  0  0  0  0
 26 29  1  0  0  0  0
 24 25  1  0  0  0  0
 24 26  1  0  0  0  0
M  END
$$$$
default_name
  -OEChem-02102213163D

 29 28  0     1  0  0  0  0  0999 V2000
   -3.5781   -3.7296    1.2702 H   0  0  0  0  0  0  0  0  0  0  0  0
   -3.5311   -2.7616    0.7732 C   0  0  0  0  0  0  0  0  0  0  0  0
   -4.2371   -2.0766    1.2382 H   0  0  0  0  0  0  0  0  0  0  0  0
   -3.7681   -2.8816   -0.2818 H   0  0  0  0  0  0  0  0  0  0  0  0
   -2.1321   -2.2086    0.9112 C   0  0  0  0  0  0  0  0  0  0  0  0
   -1.2751   -2.8426    1.5112 O   0  0  0  0  0  0  0  0  0  0  0  0
   -1.9041   -1.0186    0.3602 N   0  0  0  0  0  0  0  0  0  0  0  0
   -2.6671   -0.5416   -0.0988 H   0  0  0  0  0  0  0  0  0  0  0  0
   -0.6131   -0.3236    0.3832 C   0  0  1  0  0  0  0  0  0  0  0  0
    0.0142   -0.7800    1.1506 H   0  0  0  0  0  0  0  0  0  0  0  0
    0.0816   -0.5059   -0.9788 C   0  0  0  0  0  0  0  0  0  0  0  0
    0.2240   -1.5733   -1.1603 H   0  0  0  0  0  0  0  0  0  0  0  0
   -0.5607   -0.1090   -1.7663 H   0  0  0  0  0  0  0  0  0  0  0  0
    1.4477    0.1842   -1.0667 C   0  0  0  0  0  0  0  0  0  0  0  0
    1.4221    0.9276   -1.8628 H   0  0  0  0  0  0  0  0  0  0  0  0
    1.6462    0.6898   -0.1210 H   0  0  0  0  0  0  0  0  0  0  0  0
    2.8154   -0.9539   -1.4044 S   0  0  0  0  0  0  0  0  0  0  0  0
    2.8566   -1.8621    0.1624 C   0  0  0  0  0  0  0  0  0  0  0  0
    1.9005   -2.3611    0.3234 H   0  0  0  0  0  0  0  0  0  0  0  0
    3.6499   -2.6093    0.1263 H   0  0  0  0  0  0  0  0  0  0  0  0
    3.0517   -1.1712    0.9831 H   0  0  0  0  0  0  0  0  0  0  0  0
   -0.8064    1.1568    0.7414 C   0  0  0  0  0  0  0  0  0  0  0  0
   -1.6978    1.8100    0.2029 O   0  0  0  0  0  0  0  0  0  0  0  0
    0.0314    1.6872    1.6415 N   0  0  0  0  0  0  0  0  0  0  0  0
    0.7279    1.0858    2.0517 H   0  0  0  0  0  0  0  0  0  0  0  0
   -0.0137    3.0826    2.0755 C   0  0  0  0  0  0  0  0  0  0  0  0
   -0.9991    3.3070    2.4905 H   0  0  0  0  0  0  0  0  0  0  0  0
    0.7468    3.2694    2.8349 H   0  0  0  0  0  0  0  0  0  0  0  0
    0.1592    3.7397    1.2213 H   0  0  0  0  0  0  0  0  0  0  0  0
  5  6  2  0  0  0  0
  5  7  1  0  0  0  0
  2  3  1  0  0  0  0
  2  4  1  0  0  0  0
  2  5  1  0  0  0  0
  1  2  1  0  0  0  0
 22 23  2  0  0  0  0
 22 24  1  0  0  0  0
 18 19  1  0  0  0  0
 18 20  1  0  0  0  0
 18 21  1  0  0  0  0
 17 18  1  0  0  0  0
 14 15  1  0  0  0  0
 14 16  1  0  0  0  0
 14 17  1  0  0  0  0
 11 12  1  0  0  0  0
 11 13  1  0  0  0  0
 11 14  1  0  0  0  0
  9 10  1  0  0  0  0
  9 11  1  0  0  0  0
  9 22  1  0  0  0  0
  7  8  1  0  0  0  0
  7  9  1  0  0  0  0
 26 27  1  0  0  0  0
 26 28  1  0  0  0  0
 26 29  1  0  0  0  0
 24 25  1  0  0  0  0
 24 26  1  0  0  0  0
M  END
$$$$
default_name
  -OEChem-02102213163D

 29 28  0     1  0  0  0  0  0999 V2000
   -3.5781   -3.7296    1.2702 H   0  0  0  0  0  0  0  0  0  0  0  0
   -3.5311   -2.7616    0.7732 C   0  0  0  0  0  0  0  0  0  0  0  0
   -4.2371   -2.0766    1.2382 H   0  0  0  0  0  0  0  0  0  0  0  0
   -3.7681   -2.8816   -0.2818 H   0  0  0  0  0  0  0  0  0  0  0  0
   -2.1321   -2.2086    0.9112 C   0  0  0  0  0  0  0  0  0  0  0  0
   -1.2751   -2.8426    1.5112 O   0  0  0  0  0  0  0  0  0  0  0  0
   -1.9041   -1.0186    0.3602 N   0  0  0  0  0  0  0  0  0  0  0  0
   -2.6671   -0.5416   -0.0988 H   0  0  0  0  0  0  0  0  0  0  0  0
   -0.6131   -0.3236    0.3832 C   0  0  1  0  0  0  0  0  0  0  0  0
    0.0142   -0.7800    1.1506 H   0  0  0  0  0  0  0  0  0  0  0  0
    0.0816   -0.5059   -0.9788 C   0  0  0  0  0  0  0  0  0  0  0  0
    0.2240   -1.5733   -1.1603 H   0  0  0  0  0  0  0  0  0  0  0  0
   -0.5607   -0.1090   -1.7663 H   0  0  0  0  0  0  0  0  0  0  0  0
    1.4477    0.1842   -1.0667 C   0  0  0  0  0  0  0  0  0  0  0  0
    1.3521    1.0918   -1.6620 H   0  0  0  0  0  0  0  0  0  0  0  0
    1.7677    0.4569   -0.0604 H   0  0  0  0  0  0  0  0  0  0  0  0
    2.7346   -0.8463   -1.8162 S   0  0  0  0  0  0  0  0  0  0  0  0
    2.9295   -2.0928   -0.5161 C   0  0  0  0  0  0  0  0  0  0  0  0
    1.9843   -2.6143   -0.3621 H   0  0  0  0  0  0  0  0  0  0  0  0
    3.6917   -2.8122   -0.8164 H   0  0  0  0  0  0  0  0  0  0  0  0
    3.2371   -1.6109    0.4124 H   0  0  0  0  0  0  0  0  0  0  0  0
   -0.8064    1.1568    0.7414 C   0  0  0  0  0  0  0  0  0  0  0  0
   -1.6978    1.8100    0.2029 O   0  0  0  0  0  0  0  0  0  0  0  0
    0.0314    1.6872    1.6415 N   0  0  0  0  0  0  0  0  0  0  0  0
    0.7279    1.0858    2.0517 H   0  0  0  0  0  0  0  0  0  0  0  0
   -0.0137    3.0826    2.0755 C   0  0  0  0  0  0  0  0  0  0  0  0
   -0.9991    3.3070    2.4905 H   0  0  0  0  0  0  0  0  0  0  0  0
    0.7468    3.2694    2.8349 H   0  0  0  0  0  0  0  0  0  0  0  0
    0.1592    3.7397    1.2213 H   0  0  0  0  0  0  0  0  0  0  0  0
  5  6  2  0  0  0  0
  5  7  1  0  0  0  0
  2  3  1  0  0  0  0
  2  4  1  0  0  0  0
  2  5  1  0  0  0  0
  1  2  1  0  0  0  0
 22 23  2  0  0  0  0
 22 24  1  0  0  0  0
 18 19  1  0  0  0  0
 18 20  1  0  0  0  0
 18 21  1  0  0  0  0
 17 18  1  0  0  0  0
 14 15  1  0  0  0  0
 14 16  1  0  0  0  0
 14 17  1  0  0  0  0
 11 12  1  0  0  0  0
 11 13  1  0  0  0  0
 11 14  1  0  0  0  0
  9 10  1  0  0  0  0
  9 11  1  0  0  0  0
  9 22  1  0  0  0  0
  7  8  1  0  0  0  0
  7  9  1  0  0  0  0
 26 27  1  0  0  0  0
 26 28  1  0  0  0  0
 26 29  1  0  0  0  0
 24 25  1  0  0  0  0
 24 26  1  0  0  0  0
M  END
$$$$
default_name
  -OEChem-02102213163D

 29 28  0     1  0  0  0  0  0999 V2000
   -3.5781   -3.7296    1.2702 H   0  0  0  0  0  0  0  0  0  0  0  0
   -3.5311   -2.7616    0.7732 C   0  0  0  0  0  0  0  0  0  0  0  0
   -4.2371   -2.0766    1.2382 H   0  0  0  0  0  0  0  0  0  0  0  0
   -3.7681   -2.8816   -0.2818 H   0  0  0  0  0  0  0  0  0  0  0  0
   -2.1321   -2.2086    0.9112 C   0  0  0  0  0  0  0  0  0  0  0  0
   -1.2751   -2.8426    1.5112 O   0  0  0  0  0  0  0  0  0  0  0  0
   -1.9041   -1.0186    0.3602 N   0  0  0  0  0  0  0  0  0  0  0  0
   -2.6671   -0.5416   -0.0988 H   0  0  0  0  0  0  0  0  0  0  0  0
   -0.6131   -0.3236    0.3832 C   0  0  1  0  0  0  0  0  0  0  0  0
    0.0142   -0.7800    1.1506 H   0  0  0  0  0  0  0  0  0  0  0  0
    0.0816   -0.5059   -0.9788 C   0  0  0  0  0  0  0  0  0  0  0  0
    0.2240   -1.5733   -1.1603 H   0  0  0  0  0  0  0  0  0  0  0  0
   -0.5607   -0.1090   -1.7663 H   0  0  0  0  0  0  0  0  0  0  0  0
    1.4477    0.1842   -1.0667 C   0  0  0  0  0  0  0  0  0  0  0  0
    1.3103    1.2050   -1.4219 H   0  0  0  0  0  0  0  0  0  0  0  0
    1.8887    0.2162   -0.0698 H   0  0  0  0  0  0  0  0  0  0  0  0
    2.6102   -0.6463   -2.1796 S   0  0  0  0  0  0  0  0  0  0  0  0
    2.9174   -2.1601   -1.2331 C   0  0  0  0  0  0  0  0  0  0  0  0
    1.9817   -2.7020   -1.0925 H   0  0  0  0  0  0  0  0  0  0  0  0
    3.6193   -2.7913   -1.7787 H   0  0  0  0  0  0  0  0  0  0  0  0
    3.3431   -1.9066   -0.2618 H   0  0  0  0  0  0  0  0  0  0  0  0
   -0.8064    1.1568    0.7414 C   0  0  0  0  0  0  0  0  0  0  0  0
   -1.6978    1.8100    0.2029 O   0  0  0  0  0  0  0  0  0  0  0  0
    0.0314    1.6872    1.6415 N   0  0  0  0  0  0  0  0  0  0  0  0
    0.7279    1.0858    2.0517 H   0  0  0  0  0  0  0  0  0  0  0  0
   -0.0137    3.0826    2.0755 C   0  0  0  0  0  0  0  0  0  0  0  0
   -0.9991    3.3070    2.4905 H   0  0  0  0  0  0  0  0  0  0  0  0
    0.7468    3.2694    2.8349 H   0  0  0  0  0  0  0  0  0  0  0  0
    0.1592    3.7397    1.2213 H   0  0  0  0  0  0  0  0  0  0  0  0
  5  6  2  0  0  0  0
  5  7  1  0  0  0  0
  2  3  1  0  0  0  0
  2  4  1  0  0  0  0
  2  5  1  0  0  0  0
  1  2  1  0  0  0  0
 22 23  2  0  0  0  0
 22 24  1  0  0  0  0
 18 19  1  0  0  0  0
 18 20  1  0  0  0  0
 18 21  1  0  0  0  0
 17 18  1  0  0  0  0
 14 15  1  0  0  0  0
 14 16  1  0  0  0  0
 14 17  1  0  0  0  0
 11 12  1  0  0  0  0
 11 13  1  0  0  0  0
 11 14  1  0  0  0  0
  9 10  1  0  0  0  0
  9 11  1  0  0  0  0
  9 22  1  0  0  0  0
  7  8  1  0  0  0  0
  7  9  1  0  0  0  0
 26 27  1  0  0  0  0
 26 28  1  0  0  0  0
 26 29  1  0  0  0  0
 24 25  1  0  0  0  0
 24 26  1  0  0  0  0
M  END
$$$$
default_name
  -OEChem-02102213163D

 29 28  0     1  0  0  0  0  0999 V2000
   -3.5781   -3.7296    1.2702 H   0  0  0  0  0  0  0  0  0  0  0  0
   -3.5311   -2.7616    0.7732 C   0  0  0  0  0  0  0  0  0  0  0  0
   -4.2371   -2.0766    1.2382 H   0  0  0  0  0  0  0  0  0  0  0  0
   -3.7681   -2.8816   -0.2818 H   0  0  0  0  0  0  0  0  0  0  0  0
   -2.1321   -2.2086    0.9112 C   0  0  0  0  0  0  0  0  0  0  0  0
   -1.2751   -2.8426    1.5112 O   0  0  0  0  0  0  0  0  0  0  0  0
   -1.9041   -1.0186    0.3602 N   0  0  0  0  0  0  0  0  0  0  0  0
   -2.6671   -0.5416   -0.0988 H   0  0  0  0  0  0  0  0  0  0  0  0
   -0.6131   -0.3236    0.3832 C   0  0  1  0  0  0  0  0  0  0  0  0
    0.0142   -0.7800    1.1506 H   0  0  0  0  0  0  0  0  0  0  0  0
    0.0816   -0.5059   -0.9788 C   0  0  0  0  0  0  0  0  0  0  0  0
    0.2240   -1.5733   -1.1603 H   0  0  0  0  0  0  0  0  0  0  0  0
   -0.5607   -0.1090   -1.7663 H   0  0  0  0  0  0  0  0  0  0  0  0
    1.4477    0.1842   -1.0667 C   0  0  0  0  0  0  0  0  0  0  0  0
    1.2996    1.2597   -1.1590 H   0  0  0  0  0  0  0  0  0  0  0  0
    2.0010   -0.0160   -0.1484 H   0  0  0  0  0  0  0  0  0  0  0  0
    2.4506   -0.3674   -2.4701 S   0  0  0  0  0  0  0  0  0  0  0  0
    2.8211   -2.0596   -1.9399 C   0  0  0  0  0  0  0  0  0  0  0  0
    1.8927   -2.6183   -1.8179 H   0  0  0  0  0  0  0  0  0  0  0  0
    3.4376   -2.5482   -2.6949 H   0  0  0  0  0  0  0  0  0  0  0  0
    3.3626   -2.0384   -0.9937 H   0  0  0  0  0  0  0  0  0  0  0  0
   -0.8064    1.1568    0.7414 C   0  0  0  0  0  0  0  0  0  0  0  0
   -1.6978    1.8100    0.2029 O   0  0  0  0  0  0  0  0  0  0  0  0
    0.0314    1.6872    1.6415 N   0  0  0  0  0  0  0  0  0  0  0  0
    0.7279    1.0858    2.0517 H   0  0  0  0  0  0  0  0  0  0  0  0
   -0.0137    3.0826    2.0755 C   0  0  0  0  0  0  0  0  0  0  0  0
   -0.9991    3.3070    2.4905 H   0  0  0  0  0  0  0  0  0  0  0  0
    0.7468    3.2694    2.8349 H   0  0  0  0  0  0  0  0  0  0  0  0
    0.1592    3.7397    1.2213 H   0  0  0  0  0  0  0  0  0  0  0  0
  5  6  2  0  0  0  0
  5  7  1  0  0  0  0
  2  3  1  0  0  0  0
  2  4  1  0  0  0  0
  2  5  1  0  0  0  0
  1  2  1  0  0  0  0
 22 23  2  0  0  0  0
 22 24  1  0  0  0  0
 18 19  1  0  0  0  0
 18 20  1  0  0  0  0
 18 21  1  0  0  0  0
 17 18  1  0  0  0  0
 14 15  1  0  0  0  0
 14 16  1  0  0  0  0
 14 17  1  0  0  0  0
 11 12  1  0  0  0  0
 11 13  1  0  0  0  0
 11 14  1  0  0  0  0
  9 10  1  0  0  0  0
  9 11  1  0  0  0  0
  9 22  1  0  0  0  0
  7  8  1  0  0  0  0
  7  9  1  0  0  0  0
 26 27  1  0  0  0  0
 26 28  1  0  0  0  0
 26 29  1  0  0  0  0
 24 25  1  0  0  0  0
 24 26  1  0  0  0  0
M  END
$$$$
default_name
  -OEChem-02102213163D

 29 28  0     1  0  0  0  0  0999 V2000
   -3.5781   -3.7296    1.2702 H   0  0  0  0  0  0  0  0  0  0  0  0
   -3.5311   -2.7616    0.7732 C   0  0  0  0  0  0  0  0  0  0  0  0
   -4.2371   -2.0766    1.2382 H   0  0  0  0  0  0  0  0  0  0  0  0
   -3.7681   -2.8816   -0.2818 H   0  0  0  0  0  0  0  0  0  0  0  0
   -2.1321   -2.2086    0.9112 C   0  0  0  0  0  0  0  0  0  0  0  0
   -1.2751   -2.8426    1.5112 O   0  0  0  0  0  0  0  0  0  0  0  0
   -1.9041   -1.0186    0.3602 N   0  0  0  0  0  0  0  0  0  0  0  0
   -2.6671   -0.5416   -0.0988 H   0  0  0  0  0  0  0  0  0  0  0  0
   -0.6131   -0.3236    0.3832 C   0  0  1  0  0  0  0  0  0  0  0  0
    0.0142   -0.7800    1.1506 H   0  0  0  0  0  0  0  0  0  0  0  0
    0.0816   -0.5059   -0.9788 C   0  0  0  0  0  0  0  0  0  0  0  0
   -0.0143   -1.5498   -1.2849 H   0  0  0  0  0  0  0  0  0  0  0  0
   -0.4183    0.1151   -1.7236 H   0  0  0  0  0  0  0  0  0  0  0  0
    1.5713   -0.1443   -0.9597 C   0  0  0  0  0  0  0  0  0  0  0  0
    1.6825    0.8971   -0.6593 H   0  0  0  0  0  0  0  0  0  0  0  0
    2.0757   -0.7762   -0.2279 H   0  0  0  0  0  0  0  0  0  0  0  0
    2.3906   -0.3578   -2.5606 S   0  0  0  0  0  0  0  0  0  0  0  0
    2.3554   -2.1646   -2.6880 C   0  0  0  0  0  0  0  0  0  0  0  0
    1.3226   -2.5141   -2.6739 H   0  0  0  0  0  0  0  0  0  0  0  0
    2.8251   -2.4702   -3.6233 H   0  0  0  0  0  0  0  0  0  0  0  0
    2.9016   -2.6030   -1.8523 H   0  0  0  0  0  0  0  0  0  0  0  0
   -0.8064    1.1568    0.7414 C   0  0  0  0  0  0  0  0  0  0  0  0
   -1.6978    1.8100    0.2029 O   0  0  0  0  0  0  0  0  0  0  0  0
    0.0314    1.6872    1.6415 N   0  0  0  0  0  0  0  0  0  0  0  0
    0.7279    1.0858    2.0517 H   0  0  0  0  0  0  0  0  0  0  0  0
   -0.0137    3.0826    2.0755 C   0  0  0  0  0  0  0  0  0  0  0  0
   -0.9991    3.3070    2.4905 H   0  0  0  0  0  0  0  0  0  0  0  0
    0.7468    3.2694    2.8349 H   0  0  0  0  0  0  0  0  0  0  0  0
    0.1592    3.7397    1.2213 H   0  0  0  0  0  0  0  0  0  0  0  0
  5  6  2  0  0  0  0
  5  7  1  0  0  0  0
  2  3  1  0  0  0  0
  2  4  1  0  0  0  0
  2  5  1  0  0  0  0
  1  2  1  0  0  0  0
 22 23  2  0  0  0  0
 22 24  1  0  0  0  0
 18 19  1  0  0  0  0
 18 20  1  0  0  0  0
 18 21  1  0  0  0  0
 17 18  1  0  0  0  0
 14 15  1  0  0  0  0
 14 16  1  0  0  0  0
 14 17  1  0  0  0  0
 11 12  1  0  0  0  0
 11 13  1  0  0  0  0
 11 14  1  0  0  0  0
  9 10  1  0  0  0  0
  9 11  1  0  0  0  0
  9 22  1  0  0  0  0
  7  8  1  0  0  0  0
  7  9  1  0  0  0  0
 26 27  1  0  0  0  0
 26 28  1  0  0  0  0
 26 29  1  0  0  0  0
 24 25  1  0  0  0  0
 24 26  1  0  0  0  0
M  END
$$$$
default_name
  -OEChem-02102213163D

 29 28  0     1  0  0  0  0  0999 V2000
   -3.5781   -3.7296    1.2702 H   0  0  0  0  0  0  0  0  0  0  0  0
   -3.5311   -2.7616    0.7732 C   0  0  0  0  0  0  0  0  0  0  0  0
   -4.2371   -2.0766    1.2382 H   0  0  0  0  0  0  0  0  0  0  0  0
   -3.7681   -2.8816   -0.2818 H   0  0  0  0  0  0  0  0  0  0  0  0
   -2.1321   -2.2086    0.9112 C   0  0  0  0  0  0  0  0  0  0  0  0
   -1.2751   -2.8426    1.5112 O   0  0  0  0  0  0  0  0  0  0  0  0
   -1.9041   -1.0186    0.3602 N   0  0  0  0  0  0  0  0  0  0  0  0
   -2.6671   -0.5416   -0.0988 H   0  0  0  0  0  0  0  0  0  0  0  0
   -0.6131   -0.3236    0.3832 C   0  0  1  0  0  0  0  0  0  0  0  0
    0.0142   -0.7800    1.1506 H   0  0  0  0  0  0  0  0  0  0  0  0
    0.0816   -0.5059   -0.9788 C   0  0  0  0  0  0  0  0  0  0  0  0
   -0.0143   -1.5498   -1.2849 H   0  0  0  0  0  0  0  0  0  0  0  0
   -0.4183    0.1151   -1.7236 H   0  0  0  0  0  0  0  0  0  0  0  0
    1.5713   -0.1443   -0.9597 C   0  0  0  0  0  0  0  0  0  0  0  0
    1.7055    0.7893   -0.4143 H   0  0  0  0  0  0  0  0  0  0  0  0
    2.1168   -0.9343   -0.4424 H   0  0  0  0  0  0  0  0  0  0  0  0
    2.2897    0.0605   -2.6095 S   0  0  0  0  0  0  0  0  0  0  0  0
    2.2384   -1.6564   -3.1849 C   0  0  0  0  0  0  0  0  0  0  0  0
    1.2069   -2.0097   -3.1967 H   0  0  0  0  0  0  0  0  0  0  0  0
    2.6484   -1.7119   -4.1938 H   0  0  0  0  0  0  0  0  0  0  0  0
    2.8330   -2.2848   -2.5212 H   0  0  0  0  0  0  0  0  0  0  0  0
   -0.8064    1.1568    0.7414 C   0  0  0  0  0  0  0  0  0  0  0  0
   -1.6978    1.8100    0.2029 O   0  0  0  0  0  0  0  0  0  0  0  0
    0.0314    1.6872    1.6415 N   0  0  0  0  0  0  0  0  0  0  0  0
    0.7279    1.0858    2.0517 H   0  0  0  0  0  0  0  0  0  0  0  0
   -0.0137    3.0826    2.0755 C   0  0  0  0  0  0  0  0  0  0  0  0
   -0.9991    3.3070    2.4905 H   0  0  0  0  0  0  0  0  0  0  0  0
    0.7468    3.2694    2.8349 H   0  0  0  0  0  0  0  0  0  0  0  0
    0.1592    3.7397    1.2213 H   0  0  0  0  0  0  0  0  0  0  0  0
  5  6  2  0  0  0  0
  5  7  1  0  0  0  0
  2  3  1  0  0  0  0
  2  4  1  0  0  0  0
  2  5  1  0  0  0  0
  1  2  1  0  0  0  0
 22 23  2  0  0  0  0
 22 24  1  0  0  0  0
 18 19  1  0  0  0  0
 18 20  1  0  0  0  0
 18 21  1  0  0  0  0
 17 18  1  0  0  0  0
 14 15  1  0  0  0  0
 14 16  1  0  0  0  0
 14 17  1  0  0  0  0
 11 12  1  0  0  0  0
 11 13  1  0  0  0  0
 11 14  1  0  0  0  0
  9 10  1  0  0  0  0
  9 11  1  0  0  0  0
  9 22  1  0  0  0  0
  7  8  1  0  0  0  0
  7  9  1  0  0  0  0
 26 27  1  0  0  0  0
 26 28  1  0  0  0  0
 26 29  1  0  0  0  0
 24 25  1  0  0  0  0
 24 26  1  0  0  0  0
M  END
$$$$
default_name
  -OEChem-02102213163D

 29 28  0     1  0  0  0  0  0999 V2000
   -3.5781   -3.7296    1.2702 H   0  0  0  0  0  0  0  0  0  0  0  0
   -3.5311   -2.7616    0.7732 C   0  0  0  0  0  0  0  0  0  0  0  0
   -4.2371   -2.0766    1.2382 H   0  0  0  0  0  0  0  0  0  0  0  0
   -3.7681   -2.8816   -0.2818 H   0  0  0  0  0  0  0  0  0  0  0  0
   -2.1321   -2.2086    0.9112 C   0  0  0  0  0  0  0  0  0  0  0  0
   -1.2751   -2.8426    1.5112 O   0  0  0  0  0  0  0  0  0  0  0  0
   -1.9041   -1.0186    0.3602 N   0  0  0  0  0  0  0  0  0  0  0  0
   -2.6671   -0.5416   -0.0988 H   0  0  0  0  0  0  0  0  0  0  0  0
   -0.6131   -0.3236    0.3832 C   0  0  1  0  0  0  0  0  0  0  0  0
    0.0142   -0.7800    1.1506 H   0  0  0  0  0  0  0  0  0  0  0  0
    0.0816   -0.5059   -0.9788 C   0  0  0  0  0  0  0  0  0  0  0  0
   -0.0143   -1.5498   -1.2849 H   0  0  0  0  0  0  0  0  0  0  0  0
   -0.4183    0.1151   -1.7236 H   0  0  0  0  0  0  0  0  0  0  0  0
    1.5713   -0.1443   -0.9597 C   0  0  0  0  0  0  0  0  0  0  0  0
    1.7430    0.6236   -0.2061 H   0  0  0  0  0  0  0  0  0  0  0  0
    2.1440   -1.0329   -0.6918 H   0  0  0  0  0  0  0  0  0  0  0  0
    2.1879    0.4766   -2.5453 S   0  0  0  0  0  0  0  0  0  0  0  0
    2.0935   -1.0410   -3.5300 C   0  0  0  0  0  0  0  0  0  0  0  0
    1.0616   -1.3913   -3.5677 H   0  0  0  0  0  0  0  0  0  0  0  0
    2.4404   -0.8365   -4.5433 H   0  0  0  0  0  0  0  0  0  0  0  0
    2.7248   -1.8094   -3.0830 H   0  0  0  0  0  0  0  0  0  0  0  0
   -0.8064    1.1568    0.7414 C   0  0  0  0  0  0  0  0  0  0  0  0
   -1.6978    1.8100    0.2029 O   0  0  0  0  0  0  0  0  0  0  0  0
    0.0314    1.6872    1.6415 N   0  0  0  0  0  0  0  0  0  0  0  0
    0.7279    1.0858    2.0517 H   0  0  0  0  0  0  0  0  0  0  0  0
   -0.0137    3.0826    2.0755 C   0  0  0  0  0  0  0  0  0  0  0  0
   -0.9991    3.3070    2.4905 H   0  0  0  0  0  0  0  0  0  0  0  0
    0.7468    3.2694    2.8349 H   0  0  0  0  0  0  0  0  0  0  0  0
    0.1592    3.7397    1.2213 H   0  0  0  0  0  0  0  0  0  0  0  0
  5  6  2  0  0  0  0
  5  7  1  0  0  0  0
  2  3  1  0  0  0  0
  2  4  1  0  0  0  0
  2  5  1  0  0  0  0
  1  2  1  0  0  0  0
 22 23  2  0  0  0  0
 22 24  1  0  0  0  0
 18 19  1  0  0  0  0
 18 20  1  0  0  0  0
 18 21  1  0  0  0  0
 17 18  1  0  0  0  0
 14 15  1  0  0  0  0
 14 16  1  0  0  0  0
 14 17  1  0  0  0  0
 11 12  1  0  0  0  0
 11 13  1  0  0  0  0
 11 14  1  0  0  0  0
  9 10  1  0  0  0  0
  9 11  1  0  0  0  0
  9 22  1  0  0  0  0
  7  8  1  0  0  0  0
  7  9  1  0  0  0  0
 26 27  1  0  0  0  0
 26 28  1  0  0  0  0
 26 29  1  0  0  0  0
 24 25  1  0  0  0  0
 24 26  1  0  0  0  0
M  END
$$$$
default_name
  -OEChem-02102213163D

 29 28  0     1  0  0  0  0  0999 V2000
   -3.5781   -3.7296    1.2702 H   0  0  0  0  0  0  0  0  0  0  0  0
   -3.5311   -2.7616    0.7732 C   0  0  0  0  0  0  0  0  0  0  0  0
   -4.2371   -2.0766    1.2382 H   0  0  0  0  0  0  0  0  0  0  0  0
   -3.7681   -2.8816   -0.2818 H   0  0  0  0  0  0  0  0  0  0  0  0
   -2.1321   -2.2086    0.9112 C   0  0  0  0  0  0  0  0  0  0  0  0
   -1.2751   -2.8426    1.5112 O   0  0  0  0  0  0  0  0  0  0  0  0
   -1.9041   -1.0186    0.3602 N   0  0  0  0  0  0  0  0  0  0  0  0
   -2.6671   -0.5416   -0.0988 H   0  0  0  0  0  0  0  0  0  0  0  0
   -0.6131   -0.3236    0.3832 C   0  0  1  0  0  0  0  0  0  0  0  0
    0.0142   -0.7800    1.1506 H   0  0  0  0  0  0  0  0  0  0  0  0
    0.0816   -0.5059   -0.9788 C   0  0  0  0  0  0  0  0  0  0  0  0
   -0.0143   -1.5498   -1.2849 H   0  0  0  0  0  0  0  0  0  0  0  0
   -0.4183    0.1151   -1.7236 H   0  0  0  0  0  0  0  0  0  0  0  0
    1.5713   -0.1443   -0.9597 C   0  0  0  0  0  0  0  0  0  0  0  0
    1.7925    0.4113   -0.0490 H   0  0  0  0  0  0  0  0  0  0  0  0
    2.1553   -1.0654   -0.9592 H   0  0  0  0  0  0  0  0  0  0  0  0
    2.0921    0.8620   -2.3724 S   0  0  0  0  0  0  0  0  0  0  0  0
    1.9305   -0.3602   -3.6997 C   0  0  0  0  0  0  0  0  0  0  0  0
    0.8966   -0.7012   -3.7617 H   0  0  0  0  0  0  0  0  0  0  0  0
    2.2153    0.0962   -4.6481 H   0  0  0  0  0  0  0  0  0  0  0  0
    2.5845   -1.2093   -3.4995 H   0  0  0  0  0  0  0  0  0  0  0  0
   -0.8064    1.1568    0.7414 C   0  0  0  0  0  0  0  0  0  0  0  0
   -1.6978    1.8100    0.2029 O   0  0  0  0  0  0  0  0  0  0  0  0
    0.0314    1.6872    1.6415 N   0  0  0  0  0  0  0  0  0  0  0  0
    0.7279    1.0858    2.0517 H   0  0  0  0  0  0  0  0  0  0  0  0
   -0.0137    3.0826    2.0755 C   0  0  0  0  0  0  0  0  0  0  0  0
   -0.9991    3.3070    2.4905 H   0  0  0  0  0  0  0  0  0  0  0  0
    0.7468    3.2694    2.8349 H   0  0  0  0  0  0  0  0  0  0  0  0
    0.1592    3.7397    1.2213 H   0  0  0  0  0  0  0  0  0  0  0  0
  5  6  2  0  0  0  0
  5  7  1  0  0  0  0
  2  3  1  0  0  0  0
  2  4  1  0  0  0  0
  2  5  1  0  0  0  0
  1  2  1  0  0  0  0
 22 23  2  0  0  0  0
 22 24  1  0  0  0  0
 18 19  1  0  0  0  0
 18 20  1  0  0  0  0
 18 21  1  0  0  0  0
 17 18  1  0  0  0  0
 14 15  1  0  0  0  0
 14 16  1  0  0  0  0
 14 17  1  0  0  0  0
 11 12  1  0  0  0  0
 11 13  1  0  0  0  0
 11 14  1  0  0  0  0
  9 10  1  0  0  0  0
  9 11  1  0  0  0  0
  9 22  1  0  0  0  0
  7  8  1  0  0  0  0
  7  9  1  0  0  0  0
 26 27  1  0  0  0  0
 26 28  1  0  0  0  0
 26 29  1  0  0  0  0
 24 25  1  0  0  0  0
 24 26  1  0  0  0  0
M  END
$$$$
default_name
  -OEChem-02102213163D

 29 28  0     1  0  0  0  0  0999 V2000
   -3.5781   -3.7296    1.2702 H   0  0  0  0  0  0  0  0  0  0  0  0
   -3.5311   -2.7616    0.7732 C   0  0  0  0  0  0  0  0  0  0  0  0
   -4.2371   -2.0766    1.2382 H   0  0  0  0  0  0  0  0  0  0  0  0
   -3.7681   -2.8816   -0.2818 H   0  0  0  0  0  0  0  0  0  0  0  0
   -2.1321   -2.2086    0.9112 C   0  0  0  0  0  0  0  0  0  0  0  0
   -1.2751   -2.8426    1.5112 O   0  0  0  0  0  0  0  0  0  0  0  0
   -1.9041   -1.0186    0.3602 N   0  0  0  0  0  0  0  0  0  0  0  0
   -2.6671   -0.5416   -0.0988 H   0  0  0  0  0  0  0  0  0  0  0  0
   -0.6131   -0.3236    0.3832 C   0  0  1  0  0  0  0  0  0  0  0  0
    0.0142   -0.7800    1.1506 H   0  0  0  0  0  0  0  0  0  0  0  0
    0.0816   -0.5059   -0.9788 C   0  0  0  0  0  0  0  0  0  0  0  0
   -0.0143   -1.5498   -1.2849 H   0  0  0  0  0  0  0  0  0  0  0  0
   -0.4183    0.1151   -1.7236 H   0  0  0  0  0  0  0  0  0  0  0  0
    1.5713   -0.1443   -0.9597 C   0  0  0  0  0  0  0  0  0  0  0  0
    1.8506    0.1669    0.0464 H   0  0  0  0  0  0  0  0  0  0  0  0
    2.1500   -1.0294   -1.2264 H   0  0  0  0  0  0  0  0  0  0  0  0
    2.0089    1.1905   -2.1027 S   0  0  0  0  0  0  0  0  0  0  0  0
    1.7604    0.3395   -3.6825 C   0  0  0  0  0  0  0  0  0  0  0  0
    0.7231    0.0137   -3.7654 H   0  0  0  0  0  0  0  0  0  0  0  0
    1.9886    1.0228   -4.5009 H   0  0  0  0  0  0  0  0  0  0  0  0
    2.4216   -0.5254   -3.7424 H   0  0  0  0  0  0  0  0  0  0  0  0
   -0.8064    1.1568    0.7414 C   0  0  0  0  0  0  0  0  0  0  0  0
   -1.6978    1.8100    0.2029 O   0  0  0  0  0  0  0  0  0  0  0  0
    0.0314    1.6872    1.6415 N   0  0  0  0  0  0  0  0  0  0  0  0
    0.7279    1.0858    2.0517 H   0  0  0  0  0  0  0  0  0  0  0  0
   -0.0137    3.0826    2.0755 C   0  0  0  0  0  0  0  0  0  0  0  0
   -0.9991    3.3070    2.4905 H   0  0  0  0  0  0  0  0  0  0  0  0
    0.7468    3.2694    2.8349 H   0  0  0  0  0  0  0  0  0  0  0  0
    0.1592    3.7397    1.2213 H   0  0  0  0  0  0  0  0  0  0  0  0
  5  6  2  0  0  0  0
  5  7  1  0  0  0  0
  2  3  1  0  0  0  0
  2  4  1  0  0  0  0
  2  5  1  0  0  0  0
  1  2  1  0  0  0  0
 22 23  2  0  0  0  0
 22 24  1  0  0  0  0
 18 19  1  0  0  0  0
 18 20  1  0  0  0  0
 18 21  1  0  0  0  0
 17 18  1  0  0  0  0
 14 15  1  0  0  0  0
 14 16  1  0  0  0  0
 14 17  1  0  0  0  0
 11 12  1  0  0  0  0
 11 13  1  0  0  0  0
 11 14  1  0  0  0  0
  9 10  1  0  0  0  0
  9 11  1  0  0  0  0
  9 22  1  0  0  0  0
  7  8  1  0  0  0  0
  7  9  1  0  0  0  0
 26 27  1  0  0  0  0
 26 28  1  0  0  0  0
 26 29  1  0  0  0  0
 24 25  1  0  0  0  0
 24 26  1  0  0  0  0
M  END
$$$$
default_name
  -OEChem-02102213163D

 29 28  0     1  0  0  0  0  0999 V2000
   -3.5781   -3.7296    1.2702 H   0  0  0  0  0  0  0  0  0  0  0  0
   -3.5311   -2.7616    0.7732 C   0  0  0  0  0  0  0  0  0  0  0  0
   -4.2371   -2.0766    1.2382 H   0  0  0  0  0  0  0  0  0  0  0  0
   -3.7681   -2.8816   -0.2818 H   0  0  0  0  0  0  0  0  0  0  0  0
   -2.1321   -2.2086    0.9112 C   0  0  0  0  0  0  0  0  0  0  0  0
   -1.2751   -2.8426    1.5112 O   0  0  0  0  0  0  0  0  0  0  0  0
   -1.9041   -1.0186    0.3602 N   0  0  0  0  0  0  0  0  0  0  0  0
   -2.6671   -0.5416   -0.0988 H   0  0  0  0  0  0  0  0  0  0  0  0
   -0.6131   -0.3236    0.3832 C   0  0  1  0  0  0  0  0  0  0  0  0
    0.0142   -0.7800    1.1506 H   0  0  0  0  0  0  0  0  0  0  0  0
    0.0816   -0.5059   -0.9788 C   0  0  0  0  0  0  0  0  0  0  0  0
   -0.0143   -1.5498   -1.2849 H   0  0  0  0  0  0  0  0  0  0  0  0
   -0.4183    0.1151   -1.7236 H   0  0  0  0  0  0  0  0  0  0  0  0
    1.5713   -0.1443   -0.9597 C   0  0  0  0  0  0  0  0  0  0  0  0
    1.9134   -0.0930    0.0734 H   0  0  0  0  0  0  0  0  0  0  0  0
    2.1284   -0.9275   -1.4751 H   0  0  0  0  0  0  0  0  0  0  0  0
    1.9440    1.4397   -1.7544 S   0  0  0  0  0  0  0  0  0  0  0  0
    1.5949    1.0105   -3.4795 C   0  0  0  0  0  0  0  0  0  0  0  0
    0.5530    0.7046   -3.5787 H   0  0  0  0  0  0  0  0  0  0  0  0
    1.7755    1.8801   -4.1119 H   0  0  0  0  0  0  0  0  0  0  0  0
    2.2473    0.1958   -3.7950 H   0  0  0  0  0  0  0  0  0  0  0  0
   -0.8064    1.1568    0.7414 C   0  0  0  0  0  0  0  0  0  0  0  0
   -1.6978    1.8100    0.2029 O   0  0  0  0  0  0  0  0  0  0  0  0
    0.0314    1.6872    1.6415 N   0  0  0  0  0  0  0  0  0  0  0  0
    0.7279    1.0858    2.0517 H   0  0  0  0  0  0  0  0  0  0  0  0
   -0.0137    3.0826    2.0755 C   0  0  0  0  0  0  0  0  0  0  0  0
   -0.9991    3.3070    2.4905 H   0  0  0  0  0  0  0  0  0  0  0  0
    0.7468    3.2694    2.8349 H   0  0  0  0  0  0  0  0  0  0  0  0
    0.1592    3.7397    1.2213 H   0  0  0  0  0  0  0  0  0  0  0  0
  5  6  2  0  0  0  0
  5  7  1  0  0  0  0
  2  3  1  0  0  0  0
  2  4  1  0  0  0  0
  2  5  1  0  0  0  0
  1  2  1  0  0  0  0
 22 23  2  0  0  0  0
 22 24  1  0  0  0  0
 18 19  1  0  0  0  0
 18 20  1  0  0  0  0
 18 21  1  0  0  0  0
 17 18  1  0  0  0  0
 14 15  1  0  0  0  0
 14 16  1  0  0  0  0
 14 17  1  0  0  0  0
 11 12  1  0  0  0  0
 11 13  1  0  0  0  0
 11 14  1  0  0  0  0
  9 10  1  0  0  0  0
  9 11  1  0  0  0  0
  9 22  1  0  0  0  0
  7  8  1  0  0  0  0
  7  9  1  0  0  0  0
 26 27  1  0  0  0  0
 26 28  1  0  0  0  0
 26 29  1  0  0  0  0
 24 25  1  0  0  0  0
 24 26  1  0  0  0  0
M  END
$$$$
default_name
  -OEChem-02102213163D

 29 28  0     1  0  0  0  0  0999 V2000
   -3.5781   -3.7296    1.2702 H   0  0  0  0  0  0  0  0  0  0  0  0
   -3.5311   -2.7616    0.7732 C   0  0  0  0  0  0  0  0  0  0  0  0
   -4.2371   -2.0766    1.2382 H   0  0  0  0  0  0  0  0  0  0  0  0
   -3.7681   -2.8816   -0.2818 H   0  0  0  0  0  0  0  0  0  0  0  0
   -2.1321   -2.2086    0.9112 C   0  0  0  0  0  0  0  0  0  0  0  0
   -1.2751   -2.8426    1.5112 O   0  0  0  0  0  0  0  0  0  0  0  0
   -1.9041   -1.0186    0.3602 N   0  0  0  0  0  0  0  0  0  0  0  0
   -2.6671   -0.5416   -0.0988 H   0  0  0  0  0  0  0  0  0  0  0  0
   -0.6131   -0.3236    0.3832 C   0  0  1  0  0  0  0  0  0  0  0  0
    0.0142   -0.7800    1.1506 H   0  0  0  0  0  0  0  0  0  0  0  0
    0.0816   -0.5059   -0.9788 C   0  0  0  0  0  0  0  0  0  0  0  0
   -0.0143   -1.5498   -1.2849 H   0  0  0  0  0  0  0  0  0  0  0  0
   -0.4183    0.1151   -1.7236 H   0  0  0  0  0  0  0  0  0  0  0  0
    1.5713   -0.1443   -0.9597 C   0  0  0  0  0  0  0  0  0  0  0  0
    1.9764   -0.3506    0.0304 H   0  0  0  0  0  0  0  0  0  0  0  0
    2.0921   -0.7666   -1.6884 H   0  0  0  0  0  0  0  0  0  0  0  0
    1.9017    1.5927   -1.3514 S   0  0  0  0  0  0  0  0  0  0  0  0
    1.4453    1.6071   -3.1045 C   0  0  0  0  0  0  0  0  0  0  0  0
    0.3979    1.3244   -3.2141 H   0  0  0  0  0  0  0  0  0  0  0  0
    1.5907    2.6097   -3.5076 H   0  0  0  0  0  0  0  0  0  0  0  0
    2.0733    0.9051   -3.6539 H   0  0  0  0  0  0  0  0  0  0  0  0
   -0.8064    1.1568    0.7414 C   0  0  0  0  0  0  0  0  0  0  0  0
   -1.6978    1.8100    0.2029 O   0  0  0  0  0  0  0  0  0  0  0  0
    0.0314    1.6872    1.6415 N   0  0  0  0  0  0  0  0  0  0  0  0
    0.7279    1.0858    2.0517 H   0  0  0  0  0  0  0  0  0  0  0  0
   -0.0137    3.0826    2.0755 C   0  0  0  0  0  0  0  0  0  0  0  0
   -0.9991    3.3070    2.4905 H   0  0  0  0  0  0  0  0  0  0  0  0
    0.7468    3.2694    2.8349 H   0  0  0  0  0  0  0  0  0  0  0  0
    0.1592    3.7397    1.2213 H   0  0  0  0  0  0  0  0  0  0  0  0
  5  6  2  0  0  0  0
  5  7  1  0  0  0  0
  2  3  1  0  0  0  0
  2  4  1  0  0  0  0
  2  5  1  0  0  0  0
  1  2  1  0  0  0  0
 22 23  2  0  0  0  0
 22 24  1  0  0  0  0
 18 19  1  0  0  0  0
 18 20  1  0  0  0  0
 18 21  1  0  0  0  0
 17 18  1  0  0  0  0
 14 15  1  0  0  0  0
 14 16  1  0  0  0  0
 14 17  1  0  0  0  0
 11 12  1  0  0  0  0
 11 13  1  0  0  0  0
 11 14  1  0  0  0  0
  9 10  1  0  0  0  0
  9 11  1  0  0  0  0
  9 22  1  0  0  0  0
  7  8  1  0  0  0  0
  7  9  1  0  0  0  0
 26 27  1  0  0  0  0
 26 28  1  0  0  0  0
 26 29  1  0  0  0  0
 24 25  1  0  0  0  0
 24 26  1  0  0  0  0
M  END
$$$$
default_name
  -OEChem-02102213163D

 29 28  0     1  0  0  0  0  0999 V2000
   -3.5781   -3.7296    1.2702 H   0  0  0  0  0  0  0  0  0  0  0  0
   -3.5311   -2.7616    0.7732 C   0  0  0  0  0  0  0  0  0  0  0  0
   -4.2371   -2.0766    1.2382 H   0  0  0  0  0  0  0  0  0  0  0  0
   -3.7681   -2.8816   -0.2818 H   0  0  0  0  0  0  0  0  0  0  0  0
   -2.1321   -2.2086    0.9112 C   0  0  0  0  0  0  0  0  0  0  0  0
   -1.2751   -2.8426    1.5112 O   0  0  0  0  0  0  0  0  0  0  0  0
   -1.9041   -1.0186    0.3602 N   0  0  0  0  0  0  0  0  0  0  0  0
   -2.6671   -0.5416   -0.0988 H   0  0  0  0  0  0  0  0  0  0  0  0
   -0.6131   -0.3236    0.3832 C   0  0  1  0  0  0  0  0  0  0  0  0
    0.0142   -0.7800    1.1506 H   0  0  0  0  0  0  0  0  0  0  0  0
    0.0816   -0.5059   -0.9788 C   0  0  0  0  0  0  0  0  0  0  0  0
   -0.0143   -1.5498   -1.2849 H   0  0  0  0  0  0  0  0  0  0  0  0
   -0.4183    0.1151   -1.7236 H   0  0  0  0  0  0  0  0  0  0  0  0
    1.5713   -0.1443   -0.9597 C   0  0  0  0  0  0  0  0  0  0  0  0
    2.0356   -0.5884   -0.0798 H   0  0  0  0  0  0  0  0  0  0  0  0
    2.0435   -0.5576   -1.8517 H   0  0  0  0  0  0  0  0  0  0  0  0
    1.8850    1.6389   -0.9211 S   0  0  0  0  0  0  0  0  0  0  0  0
    1.3218    2.0885   -2.5832 C   0  0  0  0  0  0  0  0  0  0  0  0
    0.2684    1.8310   -2.6966 H   0  0  0  0  0  0  0  0  0  0  0  0
    1.4467    3.1618   -2.7291 H   0  0  0  0  0  0  0  0  0  0  0  0
    1.9116    1.5542   -3.3285 H   0  0  0  0  0  0  0  0  0  0  0  0
   -0.8064    1.1568    0.7414 C   0  0  0  0  0  0  0  0  0  0  0  0
   -1.6978    1.8100    0.2029 O   0  0  0  0  0  0  0  0  0  0  0  0
    0.0314    1.6872    1.6415 N   0  0  0  0  0  0  0  0  0  0  0  0
    0.7279    1.0858    2.0517 H   0  0  0  0  0  0  0  0  0  0  0  0
   -0.0137    3.0826    2.0755 C   0  0  0  0  0  0  0  0  0  0  0  0
   -0.9991    3.3070    2.4905 H   0  0  0  0  0  0  0  0  0  0  0  0
    0.7468    3.2694    2.8349 H   0  0  0  0  0  0  0  0  0  0  0  0
    0.1592    3.7397    1.2213 H   0  0  0  0  0  0  0  0  0  0  0  0
  5  6  2  0  0  0  0
  5  7  1  0  0  0  0
  2  3  1  0  0  0  0
  2  4  1  0  0  0  0
  2  5  1  0  0  0  0
  1  2  1  0  0  0  0
 22 23  2  0  0  0  0
 22 24  1  0  0  0  0
 18 19  1  0  0  0  0
 18 20  1  0  0  0  0
 18 21  1  0  0  0  0
 17 18  1  0  0  0  0
 14 15  1  0  0  0  0
 14 16  1  0  0  0  0
 14 17  1  0  0  0  0
 11 12  1  0  0  0  0
 11 13  1  0  0  0  0
 11 14  1  0  0  0  0
  9 10  1  0  0  0  0
  9 11  1  0  0  0  0
  9 22  1  0  0  0  0
  7  8  1  0  0  0  0
  7  9  1  0  0  0  0
 26 27  1  0  0  0  0
 26 28  1  0  0  0  0
 26 29  1  0  0  0  0
 24 25  1  0  0  0  0
 24 26  1  0  0  0  0
M  END
$$$$
default_name
  -OEChem-02102213163D

 29 28  0     1  0  0  0  0  0999 V2000
   -3.5781   -3.7296    1.2702 H   0  0  0  0  0  0  0  0  0  0  0  0
   -3.5311   -2.7616    0.7732 C   0  0  0  0  0  0  0  0  0  0  0  0
   -4.2371   -2.0766    1.2382 H   0  0  0  0  0  0  0  0  0  0  0  0
   -3.7681   -2.8816   -0.2818 H   0  0  0  0  0  0  0  0  0  0  0  0
   -2.1321   -2.2086    0.9112 C   0  0  0  0  0  0  0  0  0  0  0  0
   -1.2751   -2.8426    1.5112 O   0  0  0  0  0  0  0  0  0  0  0  0
   -1.9041   -1.0186    0.3602 N   0  0  0  0  0  0  0  0  0  0  0  0
   -2.6671   -0.5416   -0.0988 H   0  0  0  0  0  0  0  0  0  0  0  0
   -0.6131   -0.3236    0.3832 C   0  0  1  0  0  0  0  0  0  0  0  0
    0.0142   -0.7800    1.1506 H   0  0  0  0  0  0  0  0  0  0  0  0
    0.0816   -0.5059   -0.9788 C   0  0  0  0  0  0  0  0  0  0  0  0
   -0.0143   -1.5498   -1.2849 H   0  0  0  0  0  0  0  0  0  0  0  0
   -0.4183    0.1151   -1.7236 H   0  0  0  0  0  0  0  0  0  0  0  0
    1.5713   -0.1443   -0.9597 C   0  0  0  0  0  0  0  0  0  0  0  0
    2.0867   -0.7902   -0.2496 H   0  0  0  0  0  0  0  0  0  0  0  0
    1.9859   -0.3149   -1.9539 H   0  0  0  0  0  0  0  0  0  0  0  0
    1.8949    1.5753   -0.4928 S   0  0  0  0  0  0  0  0  0  0  0  0
    1.2328    2.4220   -1.9510 C   0  0  0  0  0  0  0  0  0  0  0  0
    0.1731    2.1897   -2.0615 H   0  0  0  0  0  0  0  0  0  0  0  0
    1.3534    3.4989   -1.8294 H   0  0  0  0  0  0  0  0  0  0  0  0
    1.7732    2.0988   -2.8411 H   0  0  0  0  0  0  0  0  0  0  0  0
   -0.8064    1.1568    0.7414 C   0  0  0  0  0  0  0  0  0  0  0  0
   -1.6978    1.8100    0.2029 O   0  0  0  0  0  0  0  0  0  0  0  0
    0.0314    1.6872    1.6415 N   0  0  0  0  0  0  0  0  0  0  0  0
    0.7279    1.0858    2.0517 H   0  0  0  0  0  0  0  0  0  0  0  0
   -0.0137    3.0826    2.0755 C   0  0  0  0  0  0  0  0  0  0  0  0
   -0.9991    3.3070    2.4905 H   0  0  0  0  0  0  0  0  0  0  0  0
    0.7468    3.2694    2.8349 H   0  0  0  0  0  0  0  0  0  0  0  0
    0.1592    3.7397    1.2213 H   0  0  0  0  0  0  0  0  0  0  0  0
  5  6  2  0  0  0  0
  5  7  1  0  0  0  0
  2  3  1  0  0  0  0
  2  4  1  0  0  0  0
  2  5  1  0  0  0  0
  1  2  1  0  0  0  0
 22 23  2  0  0  0  0
 22 24  1  0  0  0  0
 18 19  1  0  0  0  0
 18 20  1  0  0  0  0
 18 21  1  0  0  0  0
 17 18  1  0  0  0  0
 14 15  1  0  0  0  0
 14 16  1  0  0  0  0
 14 17  1  0  0  0  0
 11 12  1  0  0  0  0
 11 13  1  0  0  0  0
 11 14  1  0  0  0  0
  9 10  1  0  0  0  0
  9 11  1  0  0  0  0
  9 22  1  0  0  0  0
  7  8  1  0  0  0  0
  7  9  1  0  0  0  0
 26 27  1  0  0  0  0
 26 28  1  0  0  0  0
 26 29  1  0  0  0  0
 24 25  1  0  0  0  0
 24 26  1  0  0  0  0
M  END
$$$$
default_name
  -OEChem-02102213163D

 29 28  0     1  0  0  0  0  0999 V2000
   -3.5781   -3.7296    1.2702 H   0  0  0  0  0  0  0  0  0  0  0  0
   -3.5311   -2.7616    0.7732 C   0  0  0  0  0  0  0  0  0  0  0  0
   -4.2371   -2.0766    1.2382 H   0  0  0  0  0  0  0  0  0  0  0  0
   -3.7681   -2.8816   -0.2818 H   0  0  0  0  0  0  0  0  0  0  0  0
   -2.1321   -2.2086    0.9112 C   0  0  0  0  0  0  0  0  0  0  0  0
   -1.2751   -2.8426    1.5112 O   0  0  0  0  0  0  0  0  0  0  0  0
   -1.9041   -1.0186    0.3602 N   0  0  0  0  0  0  0  0  0  0  0  0
   -2.6671   -0.5416   -0.0988 H   0  0  0  0  0  0  0  0  0  0  0  0
   -0.6131   -0.3236    0.3832 C   0  0  1  0  0  0  0  0  0  0  0  0
    0.0142   -0.7800    1.1506 H   0  0  0  0  0  0  0  0  0  0  0  0
    0.0816   -0.5059   -0.9788 C   0  0  0  0  0  0  0  0  0  0  0  0
   -0.0143   -1.5498   -1.2849 H   0  0  0  0  0  0  0  0  0  0  0  0
   -0.4183    0.1151   -1.7236 H   0  0  0  0  0  0  0  0  0  0  0  0
    1.5713   -0.1443   -0.9597 C   0  0  0  0  0  0  0  0  0  0  0  0
    2.1264   -0.9422   -0.4676 H   0  0  0  0  0  0  0  0  0  0  0  0
    1.9232   -0.0549   -1.9881 H   0  0  0  0  0  0  0  0  0  0  0  0
    1.9309    1.4061   -0.0957 S   0  0  0  0  0  0  0  0  0  0  0  0
    1.1843    2.5849   -1.2510 C   0  0  0  0  0  0  0  0  0  0  0  0
    0.1188    2.3761   -1.3520 H   0  0  0  0  0  0  0  0  0  0  0  0
    1.3170    3.5979   -0.8700 H   0  0  0  0  0  0  0  0  0  0  0  0
    1.6675    2.5018   -2.2249 H   0  0  0  0  0  0  0  0  0  0  0  0
   -0.8064    1.1568    0.7414 C   0  0  0  0  0  0  0  0  0  0  0  0
   -1.6978    1.8100    0.2029 O   0  0  0  0  0  0  0  0  0  0  0  0
    0.0314    1.6872    1.6415 N   0  0  0  0  0  0  0  0  0  0  0  0
    0.7279    1.0858    2.0517 H   0  0  0  0  0  0  0  0  0  0  0  0
   -0.0137    3.0826    2.0755 C   0  0  0  0  0  0  0  0  0  0  0  0
   -0.9991    3.3070    2.4905 H   0  0  0  0  0  0  0  0  0  0  0  0
    0.7468    3.2694    2.8349 H   0  0  0  0  0  0  0  0  0  0  0  0
    0.1592    3.7397    1.2213 H   0  0  0  0  0  0  0  0  0  0  0  0
  5  6  2  0  0  0  0
  5  7  1  0  0  0  0
  2  3  1  0  0  0  0
  2  4  1  0  0  0  0
  2  5  1  0  0  0  0
  1  2  1  0  0  0  0
 22 23  2  0  0  0  0
 22 24  1  0  0  0  0
 18 19  1  0  0  0  0
 18 20  1  0  0  0  0
 18 21  1  0  0  0  0
 17 18  1  0  0  0  0
 14 15  1  0  0  0  0
 14 16  1  0  0  0  0
 14 17  1  0  0  0  0
 11 12  1  0  0  0  0
 11 13  1  0  0  0  0
 11 14  1  0  0  0  0
  9 10  1  0  0  0  0
  9 11  1  0  0  0  0
  9 22  1  0  0  0  0
  7  8  1  0  0  0  0
  7  9  1  0  0  0  0
 26 27  1  0  0  0  0
 26 28  1  0  0  0  0
 26 29  1  0  0  0  0
 24 25  1  0  0  0  0
 24 26  1  0  0  0  0
M  END
$$$$
default_name
  -OEChem-02102213163D

 29 28  0     1  0  0  0  0  0999 V2000
   -3.5781   -3.7296    1.2702 H   0  0  0  0  0  0  0  0  0  0  0  0
   -3.5311   -2.7616    0.7732 C   0  0  0  0  0  0  0  0  0  0  0  0
   -4.2371   -2.0766    1.2382 H   0  0  0  0  0  0  0  0  0  0  0  0
   -3.7681   -2.8816   -0.2818 H   0  0  0  0  0  0  0  0  0  0  0  0
   -2.1321   -2.2086    0.9112 C   0  0  0  0  0  0  0  0  0  0  0  0
   -1.2751   -2.8426    1.5112 O   0  0  0  0  0  0  0  0  0  0  0  0
   -1.9041   -1.0186    0.3602 N   0  0  0  0  0  0  0  0  0  0  0  0
   -2.6671   -0.5416   -0.0988 H   0  0  0  0  0  0  0  0  0  0  0  0
   -0.6131   -0.3236    0.3832 C   0  0  1  0  0  0  0  0  0  0  0  0
    0.0142   -0.7800    1.1506 H   0  0  0  0  0  0  0  0  0  0  0  0
    0.0816   -0.5059   -0.9788 C   0  0  0  0  0  0  0  0  0  0  0  0
   -0.0143   -1.5498   -1.2849 H   0  0  0  0  0  0  0  0  0  0  0  0
   -0.4183    0.1151   -1.7236 H   0  0  0  0  0  0  0  0  0  0  0  0
    1.5713   -0.1443   -0.9597 C   0  0  0  0  0  0  0  0  0  0  0  0
    2.1520   -1.0342   -0.7188 H   0  0  0  0  0  0  0  0  0  0  0  0
    1.8598    0.2046   -1.9519 H   0  0  0  0  0  0  0  0  0  0  0  0
    1.9904    1.1430    0.2432 S   0  0  0  0  0  0  0  0  0  0  0  0
    1.1796    2.5660   -0.5309 C   0  0  0  0  0  0  0  0  0  0  0  0
    0.1090    2.3776   -0.6164 H   0  0  0  0  0  0  0  0  0  0  0  0
    1.3402    3.4521    0.0839 H   0  0  0  0  0  0  0  0  0  0  0  0
    1.6017    2.7357   -1.5219 H   0  0  0  0  0  0  0  0  0  0  0  0
   -0.8064    1.1568    0.7414 C   0  0  0  0  0  0  0  0  0  0  0  0
   -1.6978    1.8100    0.2029 O   0  0  0  0  0  0  0  0  0  0  0  0
    0.0314    1.6872    1.6415 N   0  0  0  0  0  0  0  0  0  0  0  0
    0.7279    1.0858    2.0517 H   0  0  0  0  0  0  0  0  0  0  0  0
   -0.0137    3.0826    2.0755 C   0  0  0  0  0  0  0  0  0  0  0  0
   -0.9991    3.3070    2.4905 H   0  0  0  0  0  0  0  0  0  0  0  0
    0.7468    3.2694    2.8349 H   0  0  0  0  0  0  0  0  0  0  0  0
    0.1592    3.7397    1.2213 H   0  0  0  0  0  0  0  0  0  0  0  0
  5  6  2  0  0  0  0
  5  7  1  0  0  0  0
  2  3  1  0  0  0  0
  2  4  1  0  0  0  0
  2  5  1  0  0  0  0
  1  2  1  0  0  0  0
 22 23  2  0  0  0  0
 22 24  1  0  0  0  0
 18 19  1  0  0  0  0
 18 20  1  0  0  0  0
 18 21  1  0  0  0  0
 17 18  1  0  0  0  0
 14 15  1  0  0  0  0
 14 16  1  0  0  0  0
 14 17  1  0  0  0  0
 11 12  1  0  0  0  0
 11 13  1  0  0  0  0
 11 14  1  0  0  0  0
  9 10  1  0  0  0  0
  9 11  1  0  0  0  0
  9 22  1  0  0  0  0
  7  8  1  0  0  0  0
  7  9  1  0  0  0  0
 26 27  1  0  0  0  0
 26 28  1  0  0  0  0
 26 29  1  0  0  0  0
 24 25  1  0  0  0  0
 24 26  1  0  0  0  0
M  END
$$$$
default_name
  -OEChem-02102213163D

 29 28  0     1  0  0  0  0  0999 V2000
   -3.5781   -3.7296    1.2702 H   0  0  0  0  0  0  0  0  0  0  0  0
   -3.5311   -2.7616    0.7732 C   0  0  0  0  0  0  0  0  0  0  0  0
   -4.2371   -2.0766    1.2382 H   0  0  0  0  0  0  0  0  0  0  0  0
   -3.7681   -2.8816   -0.2818 H   0  0  0  0  0  0  0  0  0  0  0  0
   -2.1321   -2.2086    0.9112 C   0  0  0  0  0  0  0  0  0  0  0  0
   -1.2751   -2.8426    1.5112 O   0  0  0  0  0  0  0  0  0  0  0  0
   -1.9041   -1.0186    0.3602 N   0  0  0  0  0  0  0  0  0  0  0  0
   -2.6671   -0.5416   -0.0988 H   0  0  0  0  0  0  0  0  0  0  0  0
   -0.6131   -0.3236    0.3832 C   0  0  1  0  0  0  0  0  0  0  0  0
    0.0142   -0.7800    1.1506 H   0  0  0  0  0  0  0  0  0  0  0  0
    0.0816   -0.5059   -0.9788 C   0  0  0  0  0  0  0  0  0  0  0  0
   -0.0143   -1.5498   -1.2849 H   0  0  0  0  0  0  0  0  0  0  0  0
   -0.4183    0.1151   -1.7236 H   0  0  0  0  0  0  0  0  0  0  0  0
    1.5713   -0.1443   -0.9597 C   0  0  0  0  0  0  0  0  0  0  0  0
    2.1616   -1.0597   -0.9861 H   0  0  0  0  0  0  0  0  0  0  0  0
    1.7998    0.4460   -1.8478 H   0  0  0  0  0  0  0  0  0  0  0  0
    2.0694    0.8037    0.5006 S   0  0  0  0  0  0  0  0  0  0  0  0
    1.2191    2.3667    0.1601 C   0  0  0  0  0  0  0  0  0  0  0  0
    0.1444    2.1940    0.0950 H   0  0  0  0  0  0  0  0  0  0  0  0
    1.4213    3.0714    0.9672 H   0  0  0  0  0  0  0  0  0  0  0  0
    1.5803    2.7847   -0.7799 H   0  0  0  0  0  0  0  0  0  0  0  0
   -0.8064    1.1568    0.7414 C   0  0  0  0  0  0  0  0  0  0  0  0
   -1.6978    1.8100    0.2029 O   0  0  0  0  0  0  0  0  0  0  0  0
    0.0314    1.6872    1.6415 N   0  0  0  0  0  0  0  0  0  0  0  0
    0.7279    1.0858    2.0517 H   0  0  0  0  0  0  0  0  0  0  0  0
   -0.0137    3.0826    2.0755 C   0  0  0  0  0  0  0  0  0  0  0  0
   -0.9991    3.3070    2.4905 H   0  0  0  0  0  0  0  0  0  0  0  0
    0.7468    3.2694    2.8349 H   0  0  0  0  0  0  0  0  0  0  0  0
    0.1592    3.7397    1.2213 H   0  0  0  0  0  0  0  0  0  0  0  0
  5  6  2  0  0  0  0
  5  7  1  0  0  0  0
  2  3  1  0  0  0  0
  2  4  1  0  0  0  0
  2  5  1  0  0  0  0
  1  2  1  0  0  0  0
 22 23  2  0  0  0  0
 22 24  1  0  0  0  0
 18 19  1  0  0  0  0
 18 20  1  0  0  0  0
 18 21  1  0  0  0  0
 17 18  1  0  0  0  0
 14 15  1  0  0  0  0
 14 16  1  0  0  0  0
 14 17  1  0  0  0  0
 11 12  1  0  0  0  0
 11 13  1  0  0  0  0
 11 14  1  0  0  0  0
  9 10  1  0  0  0  0
  9 11  1  0  0  0  0
  9 22  1  0  0  0  0
  7  8  1  0  0  0  0
  7  9  1  0  0  0  0
 26 27  1  0  0  0  0
 26 28  1  0  0  0  0
 26 29  1  0  0  0  0
 24 25  1  0  0  0  0
 24 26  1  0  0  0  0
M  END
$$$$
default_name
  -OEChem-02102213163D

 29 28  0     1  0  0  0  0  0999 V2000
   -3.5781   -3.7296    1.2702 H   0  0  0  0  0  0  0  0  0  0  0  0
   -3.5311   -2.7616    0.7732 C   0  0  0  0  0  0  0  0  0  0  0  0
   -4.2371   -2.0766    1.2382 H   0  0  0  0  0  0  0  0  0  0  0  0
   -3.7681   -2.8816   -0.2818 H   0  0  0  0  0  0  0  0  0  0  0  0
   -2.1321   -2.2086    0.9112 C   0  0  0  0  0  0  0  0  0  0  0  0
   -1.2751   -2.8426    1.5112 O   0  0  0  0  0  0  0  0  0  0  0  0
   -1.9041   -1.0186    0.3602 N   0  0  0  0  0  0  0  0  0  0  0  0
   -2.6671   -0.5416   -0.0988 H   0  0  0  0  0  0  0  0  0  0  0  0
   -0.6131   -0.3236    0.3832 C   0  0  1  0  0  0  0  0  0  0  0  0
    0.0142   -0.7800    1.1506 H   0  0  0  0  0  0  0  0  0  0  0  0
    0.0816   -0.5059   -0.9788 C   0  0  0  0  0  0  0  0  0  0  0  0
   -0.0143   -1.5498   -1.2849 H   0  0  0  0  0  0  0  0  0  0  0  0
   -0.4183    0.1151   -1.7236 H   0  0  0  0  0  0  0  0  0  0  0  0
    1.5713   -0.1443   -0.9597 C   0  0  0  0  0  0  0  0  0  0  0  0
    2.1546   -1.0171   -1.2513 H   0  0  0  0  0  0  0  0  0  0  0  0
    1.7475    0.6528   -1.6829 H   0  0  0  0  0  0  0  0  0  0  0  0
    2.1626    0.4116    0.6592 S   0  0  0  0  0  0  0  0  0  0  0  0
    1.3001    2.0005    0.7751 C   0  0  0  0  0  0  0  0  0  0  0  0
    0.2227    1.8379    0.7339 H   0  0  0  0  0  0  0  0  0  0  0  0
    1.5547    2.4819    1.7197 H   0  0  0  0  0  0  0  0  0  0  0  0
    1.6047    2.6454   -0.0497 H   0  0  0  0  0  0  0  0  0  0  0  0
   -0.8064    1.1568    0.7414 C   0  0  0  0  0  0  0  0  0  0  0  0
   -1.6978    1.8100    0.2029 O   0  0  0  0  0  0  0  0  0  0  0  0
    0.0314    1.6872    1.6415 N   0  0  0  0  0  0  0  0  0  0  0  0
    0.7279    1.0858    2.0517 H   0  0  0  0  0  0  0  0  0  0  0  0
   -0.0137    3.0826    2.0755 C   0  0  0  0  0  0  0  0  0  0  0  0
   -0.9991    3.3070    2.4905 H   0  0  0  0  0  0  0  0  0  0  0  0
    0.7468    3.2694    2.8349 H   0  0  0  0  0  0  0  0  0  0  0  0
    0.1592    3.7397    1.2213 H   0  0  0  0  0  0  0  0  0  0  0  0
  5  6  2  0  0  0  0
  5  7  1  0  0  0  0
  2  3  1  0  0  0  0
  2  4  1  0  0  0  0
  2  5  1  0  0  0  0
  1  2  1  0  0  0  0
 22 23  2  0  0  0  0
 22 24  1  0  0  0  0
 18 19  1  0  0  0  0
 18 20  1  0  0  0  0
 18 21  1  0  0  0  0
 17 18  1  0  0  0  0
 14 15  1  0  0  0  0
 14 16  1  0  0  0  0
 14 17  1  0  0  0  0
 11 12  1  0  0  0  0
 11 13  1  0  0  0  0
 11 14  1  0  0  0  0
  9 10  1  0  0  0  0
  9 11  1  0  0  0  0
  9 22  1  0  0  0  0
  7  8  1  0  0  0  0
  7  9  1  0  0  0  0
 26 27  1  0  0  0  0
 26 28  1  0  0  0  0
 26 29  1  0  0  0  0
 24 25  1  0  0  0  0
 24 26  1  0  0  0  0
M  END
$$$$
default_name
  -OEChem-02102213163D

 29 28  0     1  0  0  0  0  0999 V2000
   -3.5781   -3.7296    1.2702 H   0  0  0  0  0  0  0  0  0  0  0  0
   -3.5311   -2.7616    0.7732 C   0  0  0  0  0  0  0  0  0  0  0  0
   -4.2371   -2.0766    1.2382 H   0  0  0  0  0  0  0  0  0  0  0  0
   -3.7681   -2.8816   -0.2818 H   0  0  0  0  0  0  0  0  0  0  0  0
   -2.1321   -2.2086    0.9112 C   0  0  0  0  0  0  0  0  0  0  0  0
   -1.2751   -2.8426    1.5112 O   0  0  0  0  0  0  0  0  0  0  0  0
   -1.9041   -1.0186    0.3602 N   0  0  0  0  0  0  0  0  0  0  0  0
   -2.6671   -0.5416   -0.0988 H   0  0  0  0  0  0  0  0  0  0  0  0
   -0.6131   -0.3236    0.3832 C   0  0  1  0  0  0  0  0  0  0  0  0
    0.0142   -0.7800    1.1506 H   0  0  0  0  0  0  0  0  0  0  0  0
    0.0816   -0.5059   -0.9788 C   0  0  0  0  0  0  0  0  0  0  0  0
   -0.0143   -1.5498   -1.2849 H   0  0  0  0  0  0  0  0  0  0  0  0
   -0.4183    0.1151   -1.7236 H   0  0  0  0  0  0  0  0  0  0  0  0
    1.5713   -0.1443   -0.9597 C   0  0  0  0  0  0  0  0  0  0  0  0
    2.1316   -0.9093   -1.4963 H   0  0  0  0  0  0  0  0  0  0  0  0
    1.7064    0.8109   -1.4684 H   0  0  0  0  0  0  0  0  0  0  0  0
    2.2635   -0.0068    0.7081 S   0  0  0  0  0  0  0  0  0  0  0  0
    1.4171    1.4923    1.2720 C   0  0  0  0  0  0  0  0  0  0  0  0
    0.3384    1.3334    1.2567 H   0  0  0  0  0  0  0  0  0  0  0  0
    1.7314    1.7236    2.2901 H   0  0  0  0  0  0  0  0  0  0  0  0
    1.6734    2.3272    0.6192 H   0  0  0  0  0  0  0  0  0  0  0  0
   -0.8064    1.1568    0.7414 C   0  0  0  0  0  0  0  0  0  0  0  0
   -1.6978    1.8100    0.2029 O   0  0  0  0  0  0  0  0  0  0  0  0
    0.0314    1.6872    1.6415 N   0  0  0  0  0  0  0  0  0  0  0  0
    0.7279    1.0858    2.0517 H   0  0  0  0  0  0  0  0  0  0  0  0
   -0.0137    3.0826    2.0755 C   0  0  0  0  0  0  0  0  0  0  0  0
   -0.9991    3.3070    2.4905 H   0  0  0  0  0  0  0  0  0  0  0  0
    0.7468    3.2694    2.8349 H   0  0  0  0  0  0  0  0  0  0  0  0
    0.1592    3.7397    1.2213 H   0  0  0  0  0  0  0  0  0  0  0  0
  5  6  2  0  0  0  0
  5  7  1  0  0  0  0
  2  3  1  0  0  0  0
  2  4  1  0  0  0  0
  2  5  1  0  0  0  0
  1  2  1  0  0  0  0
 22 23  2  0  0  0  0
 22 24  1  0  0  0  0
 18 19  1  0  0  0  0
 18 20  1  0  0  0  0
 18 21  1  0  0  0  0
 17 18  1  0  0  0  0
 14 15  1  0  0  0  0
 14 16  1  0  0  0  0
 14 17  1  0  0  0  0
 11 12  1  0  0  0  0
 11 13  1  0  0  0  0
 11 14  1  0  0  0  0
  9 10  1  0  0  0  0
  9 11  1  0  0  0  0
  9 22  1  0  0  0  0
  7  8  1  0  0  0  0
  7  9  1  0  0  0  0
 26 27  1  0  0  0  0
 26 28  1  0  0  0  0
 26 29  1  0  0  0  0
 24 25  1  0  0  0  0
 24 26  1  0  0  0  0
M  END
$$$$
default_name
  -OEChem-02102213163D

 29 28  0     1  0  0  0  0  0999 V2000
   -3.5781   -3.7296    1.2702 H   0  0  0  0  0  0  0  0  0  0  0  0
   -3.5311   -2.7616    0.7732 C   0  0  0  0  0  0  0  0  0  0  0  0
   -4.2371   -2.0766    1.2382 H   0  0  0  0  0  0  0  0  0  0  0  0
   -3.7681   -2.8816   -0.2818 H   0  0  0  0  0  0  0  0  0  0  0  0
   -2.1321   -2.2086    0.9112 C   0  0  0  0  0  0  0  0  0  0  0  0
   -1.2751   -2.8426    1.5112 O   0  0  0  0  0  0  0  0  0  0  0  0
   -1.9041   -1.0186    0.3602 N   0  0  0  0  0  0  0  0  0  0  0  0
   -2.6671   -0.5416   -0.0988 H   0  0  0  0  0  0  0  0  0  0  0  0
   -0.6131   -0.3236    0.3832 C   0  0  1  0  0  0  0  0  0  0  0  0
    0.0142   -0.7800    1.1506 H   0  0  0  0  0  0  0  0  0  0  0  0
    0.0816   -0.5059   -0.9788 C   0  0  0  0  0  0  0  0  0  0  0  0
   -0.0143   -1.5498   -1.2849 H   0  0  0  0  0  0  0  0  0  0  0  0
   -0.4183    0.1151   -1.7236 H   0  0  0  0  0  0  0  0  0  0  0  0
    1.5713   -0.1443   -0.9597 C   0  0  0  0  0  0  0  0  0  0  0  0
    2.0941   -0.7436   -1.7045 H   0  0  0  0  0  0  0  0  0  0  0  0
    1.6793    0.9095   -1.2189 H   0  0  0  0  0  0  0  0  0  0  0  0
    2.3653   -0.4228    0.6439 S   0  0  0  0  0  0  0  0  0  0  0  0
    1.5620    0.8769    1.6171 C   0  0  0  0  0  0  0  0  0  0  0  0
    0.4837    0.7150    1.6277 H   0  0  0  0  0  0  0  0  0  0  0  0
    1.9394    0.8482    2.6397 H   0  0  0  0  0  0  0  0  0  0  0  0
    1.7816    1.8518    1.1810 H   0  0  0  0  0  0  0  0  0  0  0  0
   -0.8064    1.1568    0.7414 C   0  0  0  0  0  0  0  0  0  0  0  0
   -1.6978    1.8100    0.2029 O   0  0  0  0  0  0  0  0  0  0  0  0
    0.0314    1.6872    1.6415 N   0  0  0  0  0  0  0  0  0  0  0  0
    0.7279    1.0858    2.0517 H   0  0  0  0  0  0  0  0  0  0  0  0
   -0.0137    3.0826    2.0755 C   0  0  0  0  0  0  0  0  0  0  0  0
   -0.9991    3.3070    2.4905 H   0  0  0  0  0  0  0  0  0  0  0  0
    0.7468    3.2694    2.8349 H   0  0  0  0  0  0  0  0  0  0  0  0
    0.1592    3.7397    1.2213 H   0  0  0  0  0  0  0  0  0  0  0  0
  5  6  2  0  0  0  0
  5  7  1  0  0  0  0
  2  3  1  0  0  0  0
  2  4  1  0  0  0  0
  2  5  1  0  0  0  0
  1  2  1  0  0  0  0
 22 23  2  0  0  0  0
 22 24  1  0  0  0  0
 18 19  1  0  0  0  0
 18 20  1  0  0  0  0
 18 21  1  0  0  0  0
 17 18  1  0  0  0  0
 14 15  1  0  0  0  0
 14 16  1  0  0  0  0
 14 17  1  0  0  0  0
 11 12  1  0  0  0  0
 11 13  1  0  0  0  0
 11 14  1  0  0  0  0
  9 10  1  0  0  0  0
  9 11  1  0  0  0  0
  9 22  1  0  0  0  0
  7  8  1  0  0  0  0
  7  9  1  0  0  0  0
 26 27  1  0  0  0  0
 26 28  1  0  0  0  0
 26 29  1  0  0  0  0
 24 25  1  0  0  0  0
 24 26  1  0  0  0  0
M  END
$$$$
default_name
  -OEChem-02102213163D

 29 28  0     1  0  0  0  0  0999 V2000
   -3.5781   -3.7296    1.2702 H   0  0  0  0  0  0  0  0  0  0  0  0
   -3.5311   -2.7616    0.7732 C   0  0  0  0  0  0  0  0  0  0  0  0
   -4.2371   -2.0766    1.2382 H   0  0  0  0  0  0  0  0  0  0  0  0
   -3.7681   -2.8816   -0.2818 H   0  0  0  0  0  0  0  0  0  0  0  0
   -2.1321   -2.2086    0.9112 C   0  0  0  0  0  0  0  0  0  0  0  0
   -1.2751   -2.8426    1.5112 O   0  0  0  0  0  0  0  0  0  0  0  0
   -1.9041   -1.0186    0.3602 N   0  0  0  0  0  0  0  0  0  0  0  0
   -2.6671   -0.5416   -0.0988 H   0  0  0  0  0  0  0  0  0  0  0  0
   -0.6131   -0.3236    0.3832 C   0  0  1  0  0  0  0  0  0  0  0  0
    0.0142   -0.7800    1.1506 H   0  0  0  0  0  0  0  0  0  0  0  0
    0.0816   -0.5059   -0.9788 C   0  0  0  0  0  0  0  0  0  0  0  0
   -0.0143   -1.5498   -1.2849 H   0  0  0  0  0  0  0  0  0  0  0  0
   -0.4183    0.1151   -1.7236 H   0  0  0  0  0  0  0  0  0  0  0  0
    1.5713   -0.1443   -0.9597 C   0  0  0  0  0  0  0  0  0  0  0  0
    2.0446   -0.5313   -1.8616 H   0  0  0  0  0  0  0  0  0  0  0  0
    1.6680    0.9420   -0.9515 H   0  0  0  0  0  0  0  0  0  0  0  0
    2.4610   -0.8083    0.4710 S   0  0  0  0  0  0  0  0  0  0  0  0
    1.7251    0.1961    1.7868 C   0  0  0  0  0  0  0  0  0  0  0  0
    0.6488    0.0249    1.8217 H   0  0  0  0  0  0  0  0  0  0  0  0
    2.1644   -0.0845    2.7444 H   0  0  0  0  0  0  0  0  0  0  0  0
    1.9219    1.2517    1.5975 H   0  0  0  0  0  0  0  0  0  0  0  0
   -0.8064    1.1568    0.7414 C   0  0  0  0  0  0  0  0  0  0  0  0
   -1.6978    1.8100    0.2029 O   0  0  0  0  0  0  0  0  0  0  0  0
    0.0314    1.6872    1.6415 N   0  0  0  0  0  0  0  0  0  0  0  0
    0.7279    1.0858    2.0517 H   0  0  0  0  0  0  0  0  0  0  0  0
   -0.0137    3.0826    2.0755 C   0  0  0  0  0  0  0  0  0  0  0  0
   -0.9991    3.3070    2.4905 H   0  0  0  0  0  0  0  0  0  0  0  0
    0.7468    3.2694    2.8349 H   0  0  0  0  0  0  0  0  0  0  0  0
    0.1592    3.7397    1.2213 H   0  0  0  0  0  0  0  0  0  0  0  0
  5  6  2  0  0  0  0
  5  7  1  0  0  0  0
  2  3  1  0  0  0  0
  2  4  1  0  0  0  0
  2  5  1  0  0  0  0
  1  2  1  0  0  0  0
 22 23  2  0  0  0  0
 22 24  1  0  0  0  0
 18 19  1  0  0  0  0
 18 20  1  0  0  0  0
 18 21  1  0  0  0  0
 17 18  1  0  0  0  0
 14 15  1  0  0  0  0
 14 16  1  0  0  0  0
 14 17  1  0  0  0  0
 11 12  1  0  0  0  0
 11 13  1  0  0  0  0
 11 14  1  0  0  0  0
  9 10  1  0  0  0  0
  9 11  1  0  0  0  0
  9 22  1  0  0  0  0
  7  8  1  0  0  0  0
  7  9  1  0  0  0  0
 26 27  1  0  0  0  0
 26 28  1  0  0  0  0
 26 29  1  0  0  0  0
 24 25  1  0  0  0  0
 24 26  1  0  0  0  0
M  END
$$$$
default_name
  -OEChem-02102213163D

 29 28  0     1  0  0  0  0  0999 V2000
   -3.5781   -3.7296    1.2702 H   0  0  0  0  0  0  0  0  0  0  0  0
   -3.5311   -2.7616    0.7732 C   0  0  0  0  0  0  0  0  0  0  0  0
   -4.2371   -2.0766    1.2382 H   0  0  0  0  0  0  0  0  0  0  0  0
   -3.7681   -2.8816   -0.2818 H   0  0  0  0  0  0  0  0  0  0  0  0
   -2.1321   -2.2086    0.9112 C   0  0  0  0  0  0  0  0  0  0  0  0
   -1.2751   -2.8426    1.5112 O   0  0  0  0  0  0  0  0  0  0  0  0
   -1.9041   -1.0186    0.3602 N   0  0  0  0  0  0  0  0  0  0  0  0
   -2.6671   -0.5416   -0.0988 H   0  0  0  0  0  0  0  0  0  0  0  0
   -0.6131   -0.3236    0.3832 C   0  0  1  0  0  0  0  0  0  0  0  0
    0.0142   -0.7800    1.1506 H   0  0  0  0  0  0  0  0  0  0  0  0
    0.0816   -0.5059   -0.9788 C   0  0  0  0  0  0  0  0  0  0  0  0
   -0.0143   -1.5498   -1.2849 H   0  0  0  0  0  0  0  0  0  0  0  0
   -0.4183    0.1151   -1.7236 H   0  0  0  0  0  0  0  0  0  0  0  0
    1.5713   -0.1443   -0.9597 C   0  0  0  0  0  0  0  0  0  0  0  0
    1.9865   -0.2869   -1.9569 H   0  0  0  0  0  0  0  0  0  0  0  0
    1.6733    0.9060   -0.6844 H   0  0  0  0  0  0  0  0  0  0  0  0
    2.5442   -1.1368    0.2013 S   0  0  0  0  0  0  0  0  0  0  0  0
    1.8951   -0.5036    1.7696 C   0  0  0  0  0  0  0  0  0  0  0  0
    0.8222   -0.6900    1.8254 H   0  0  0  0  0  0  0  0  0  0  0  0
    2.3912   -1.0111    2.5973 H   0  0  0  0  0  0  0  0  0  0  0  0
    2.0847    0.5678    1.8404 H   0  0  0  0  0  0  0  0  0  0  0  0
   -0.8064    1.1568    0.7414 C   0  0  0  0  0  0  0  0  0  0  0  0
   -1.6978    1.8100    0.2029 O   0  0  0  0  0  0  0  0  0  0  0  0
    0.0314    1.6872    1.6415 N   0  0  0  0  0  0  0  0  0  0  0  0
    0.7279    1.0858    2.0517 H   0  0  0  0  0  0  0  0  0  0  0  0
   -0.0137    3.0826    2.0755 C   0  0  0  0  0  0  0  0  0  0  0  0
   -0.9991    3.3070    2.4905 H   0  0  0  0  0  0  0  0  0  0  0  0
    0.7468    3.2694    2.8349 H   0  0  0  0  0  0  0  0  0  0  0  0
    0.1592    3.7397    1.2213 H   0  0  0  0  0  0  0  0  0  0  0  0
  5  6  2  0  0  0  0
  5  7  1  0  0  0  0
  2  3  1  0  0  0  0
  2  4  1  0  0  0  0
  2  5  1  0  0  0  0
  1  2  1  0  0  0  0
 22 23  2  0  0  0  0
 22 24  1  0  0  0  0
 18 19  1  0  0  0  0
 18 20  1  0  0  0  0
 18 21  1  0  0  0  0
 17 18  1  0  0  0  0
 14 15  1  0  0  0  0
 14 16  1  0  0  0  0
 14 17  1  0  0  0  0
 11 12  1  0  0  0  0
 11 13  1  0  0  0  0
 11 14  1  0  0  0  0
  9 10  1  0  0  0  0
  9 11  1  0  0  0  0
  9 22  1  0  0  0  0
  7  8  1  0  0  0  0
  7  9  1  0  0  0  0
 26 27  1  0  0  0  0
 26 28  1  0  0  0  0
 26 29  1  0  0  0  0
 24 25  1  0  0  0  0
 24 26  1  0  0  0  0
M  END
$$$$
default_name
  -OEChem-02102213163D

 29 28  0     1  0  0  0  0  0999 V2000
   -3.5781   -3.7296    1.2702 H   0  0  0  0  0  0  0  0  0  0  0  0
   -3.5311   -2.7616    0.7732 C   0  0  0  0  0  0  0  0  0  0  0  0
   -4.2371   -2.0766    1.2382 H   0  0  0  0  0  0  0  0  0  0  0  0
   -3.7681   -2.8816   -0.2818 H   0  0  0  0  0  0  0  0  0  0  0  0
   -2.1321   -2.2086    0.9112 C   0  0  0  0  0  0  0  0  0  0  0  0
   -1.2751   -2.8426    1.5112 O   0  0  0  0  0  0  0  0  0  0  0  0
   -1.9041   -1.0186    0.3602 N   0  0  0  0  0  0  0  0  0  0  0  0
   -2.6671   -0.5416   -0.0988 H   0  0  0  0  0  0  0  0  0  0  0  0
   -0.6131   -0.3236    0.3832 C   0  0  1  0  0  0  0  0  0  0  0  0
    0.0142   -0.7800    1.1506 H   0  0  0  0  0  0  0  0  0  0  0  0
    0.0816   -0.5059   -0.9788 C   0  0  0  0  0  0  0  0  0  0  0  0
   -0.0143   -1.5498   -1.2849 H   0  0  0  0  0  0  0  0  0  0  0  0
   -0.4183    0.1151   -1.7236 H   0  0  0  0  0  0  0  0  0  0  0  0
    1.5713   -0.1443   -0.9597 C   0  0  0  0  0  0  0  0  0  0  0  0
    1.9238   -0.0271   -1.9840 H   0  0  0  0  0  0  0  0  0  0  0  0
    1.6948    0.8041   -0.4357 H   0  0  0  0  0  0  0  0  0  0  0  0
    2.6092   -1.3860   -0.1470 S   0  0  0  0  0  0  0  0  0  0  0  0
    2.0606   -1.1746    1.5666 C   0  0  0  0  0  0  0  0  0  0  0  0
    0.9923   -1.3809    1.6387 H   0  0  0  0  0  0  0  0  0  0  0  0
    2.6043   -1.8684    2.2083 H   0  0  0  0  0  0  0  0  0  0  0  0
    2.2591   -0.1534    1.8930 H   0  0  0  0  0  0  0  0  0  0  0  0
   -0.8064    1.1568    0.7414 C   0  0  0  0  0  0  0  0  0  0  0  0
   -1.6978    1.8100    0.2029 O   0  0  0  0  0  0  0  0  0  0  0  0
    0.0314    1.6872    1.6415 N   0  0  0  0  0  0  0  0  0  0  0  0
    0.7279    1.0858    2.0517 H   0  0  0  0  0  0  0  0  0  0  0  0
   -0.0137    3.0826    2.0755 C   0  0  0  0  0  0  0  0  0  0  0  0
   -0.9991    3.3070    2.4905 H   0  0  0  0  0  0  0  0  0  0  0  0
    0.7468    3.2694    2.8349 H   0  0  0  0  0  0  0  0  0  0  0  0
    0.1592    3.7397    1.2213 H   0  0  0  0  0  0  0  0  0  0  0  0
  5  6  2  0  0  0  0
  5  7  1  0  0  0  0
  2  3  1  0  0  0  0
  2  4  1  0  0  0  0
  2  5  1  0  0  0  0
  1  2  1  0  0  0  0
 22 23  2  0  0  0  0
 22 24  1  0  0  0  0
 18 19  1  0  0  0  0
 18 20  1  0  0  0  0
 18 21  1  0  0  0  0
 17 18  1  0  0  0  0
 14 15  1  0  0  0  0
 14 16  1  0  0  0  0
 14 17  1  0  0  0  0
 11 12  1  0  0  0  0
 11 13  1  0  0  0  0
 11 14  1  0  0  0  0
  9 10  1  0  0  0  0
  9 11  1  0  0  0  0
  9 22  1  0  0  0  0
  7  8  1  0  0  0  0
  7  9  1  0  0  0  0
 26 27  1  0  0  0  0
 26 28  1  0  0  0  0
 26 29  1  0  0  0  0
 24 25  1  0  0  0  0
 24 26  1  0  0  0  0
M  END
$$$$
default_name
  -OEChem-02102213163D

 29 28  0     1  0  0  0  0  0999 V2000
   -3.5781   -3.7296    1.2702 H   0  0  0  0  0  0  0  0  0  0  0  0
   -3.5311   -2.7616    0.7732 C   0  0  0  0  0  0  0  0  0  0  0  0
   -4.2371   -2.0766    1.2382 H   0  0  0  0  0  0  0  0  0  0  0  0
   -3.7681   -2.8816   -0.2818 H   0  0  0  0  0  0  0  0  0  0  0  0
   -2.1321   -2.2086    0.9112 C   0  0  0  0  0  0  0  0  0  0  0  0
   -1.2751   -2.8426    1.5112 O   0  0  0  0  0  0  0  0  0  0  0  0
   -1.9041   -1.0186    0.3602 N   0  0  0  0  0  0  0  0  0  0  0  0
   -2.6671   -0.5416   -0.0988 H   0  0  0  0  0  0  0  0  0  0  0  0
   -0.6131   -0.3236    0.3832 C   0  0  1  0  0  0  0  0  0  0  0  0
    0.0142   -0.7800    1.1506 H   0  0  0  0  0  0  0  0  0  0  0  0
    0.0816   -0.5059   -0.9788 C   0  0  0  0  0  0  0  0  0  0  0  0
   -0.0143   -1.5498   -1.2849 H   0  0  0  0  0  0  0  0  0  0  0  0
   -0.4183    0.1151   -1.7236 H   0  0  0  0  0  0  0  0  0  0  0  0
    1.5713   -0.1443   -0.9597 C   0  0  0  0  0  0  0  0  0  0  0  0
    1.8607    0.2305   -1.9410 H   0  0  0  0  0  0  0  0  0  0  0  0
    1.7311    0.6432   -0.2224 H   0  0  0  0  0  0  0  0  0  0  0  0
    2.6515   -1.5389   -0.5500 S   0  0  0  0  0  0  0  0  0  0  0  0
    2.2102   -1.7712    1.1916 C   0  0  0  0  0  0  0  0  0  0  0  0
    1.1474   -2.0007    1.2741 H   0  0  0  0  0  0  0  0  0  0  0  0
    2.7891   -2.5980    1.6040 H   0  0  0  0  0  0  0  0  0  0  0  0
    2.4331   -0.8627    1.7519 H   0  0  0  0  0  0  0  0  0  0  0  0
   -0.8064    1.1568    0.7414 C   0  0  0  0  0  0  0  0  0  0  0  0
   -1.6978    1.8100    0.2029 O   0  0  0  0  0  0  0  0  0  0  0  0
    0.0314    1.6872    1.6415 N   0  0  0  0  0  0  0  0  0  0  0  0
    0.7279    1.0858    2.0517 H   0  0  0  0  0  0  0  0  0  0  0  0
   -0.0137    3.0826    2.0755 C   0  0  0  0  0  0  0  0  0  0  0  0
   -0.9991    3.3070    2.4905 H   0  0  0  0  0  0  0  0  0  0  0  0
    0.7468    3.2694    2.8349 H   0  0  0  0  0  0  0  0  0  0  0  0
    0.1592    3.7397    1.2213 H   0  0  0  0  0  0  0  0  0  0  0  0
  5  6  2  0  0  0  0
  5  7  1  0  0  0  0
  2  3  1  0  0  0  0
  2  4  1  0  0  0  0
  2  5  1  0  0  0  0
  1  2  1  0  0  0  0
 22 23  2  0  0  0  0
 22 24  1  0  0  0  0
 18 19  1  0  0  0  0
 18 20  1  0  0  0  0
 18 21  1  0  0  0  0
 17 18  1  0  0  0  0
 14 15  1  0  0  0  0
 14 16  1  0  0  0  0
 14 17  1  0  0  0  0
 11 12  1  0  0  0  0
 11 13  1  0  0  0  0
 11 14  1  0  0  0  0
  9 10  1  0  0  0  0
  9 11  1  0  0  0  0
  9 22  1  0  0  0  0
  7  8  1  0  0  0  0
  7  9  1  0  0  0  0
 26 27  1  0  0  0  0
 26 28  1  0  0  0  0
 26 29  1  0  0  0  0
 24 25  1  0  0  0  0
 24 26  1  0  0  0  0
M  END
$$$$
default_name
  -OEChem-02102213163D

 29 28  0     1  0  0  0  0  0999 V2000
   -3.5781   -3.7296    1.2702 H   0  0  0  0  0  0  0  0  0  0  0  0
   -3.5311   -2.7616    0.7732 C   0  0  0  0  0  0  0  0  0  0  0  0
   -4.2371   -2.0766    1.2382 H   0  0  0  0  0  0  0  0  0  0  0  0
   -3.7681   -2.8816   -0.2818 H   0  0  0  0  0  0  0  0  0  0  0  0
   -2.1321   -2.2086    0.9112 C   0  0  0  0  0  0  0  0  0  0  0  0
   -1.2751   -2.8426    1.5112 O   0  0  0  0  0  0  0  0  0  0  0  0
   -1.9041   -1.0186    0.3602 N   0  0  0  0  0  0  0  0  0  0  0  0
   -2.6671   -0.5416   -0.0988 H   0  0  0  0  0  0  0  0  0  0  0  0
   -0.6131   -0.3236    0.3832 C   0  0  1  0  0  0  0  0  0  0  0  0
    0.0142   -0.7800    1.1506 H   0  0  0  0  0  0  0  0  0  0  0  0
    0.0816   -0.5059   -0.9788 C   0  0  0  0  0  0  0  0  0  0  0  0
   -0.0143   -1.5498   -1.2849 H   0  0  0  0  0  0  0  0  0  0  0  0
   -0.4183    0.1151   -1.7236 H   0  0  0  0  0  0  0  0  0  0  0  0
    1.5713   -0.1443   -0.9597 C   0  0  0  0  0  0  0  0  0  0  0  0
    1.8015    0.4684   -1.8308 H   0  0  0  0  0  0  0  0  0  0  0  0
    1.7798    0.4343   -0.0591 H   0  0  0  0  0  0  0  0  0  0  0  0
    2.6682   -1.5851   -0.9803 S   0  0  0  0  0  0  0  0  0  0  0  0
    2.3337   -2.2526    0.6703 C   0  0  0  0  0  0  0  0  0  0  0  0
    1.2770   -2.5072    0.7567 H   0  0  0  0  0  0  0  0  0  0  0  0
    2.9331   -3.1501    0.8255 H   0  0  0  0  0  0  0  0  0  0  0  0
    2.5948   -1.5118    1.4265 H   0  0  0  0  0  0  0  0  0  0  0  0
   -0.8064    1.1568    0.7414 C   0  0  0  0  0  0  0  0  0  0  0  0
   -1.6978    1.8100    0.2029 O   0  0  0  0  0  0  0  0  0  0  0  0
    0.0314    1.6872    1.6415 N   0  0  0  0  0  0  0  0  0  0  0  0
    0.7279    1.0858    2.0517 H   0  0  0  0  0  0  0  0  0  0  0  0
   -0.0137    3.0826    2.0755 C   0  0  0  0  0  0  0  0  0  0  0  0
   -0.9991    3.3070    2.4905 H   0  0  0  0  0  0  0  0  0  0  0  0
    0.7468    3.2694    2.8349 H   0  0  0  0  0  0  0  0  0  0  0  0
    0.1592    3.7397    1.2213 H   0  0  0  0  0  0  0  0  0  0  0  0
  5  6  2  0  0  0  0
  5  7  1  0  0  0  0
  2  3  1  0  0  0  0
  2  4  1  0  0  0  0
  2  5  1  0  0  0  0
  1  2  1  0  0  0  0
 22 23  2  0  0  0  0
 22 24  1  0  0  0  0
 18 19  1  0  0  0  0
 18 20  1  0  0  0  0
 18 21  1  0  0  0  0
 17 18  1  0  0  0  0
 14 15  1  0  0  0  0
 14 16  1  0  0  0  0
 14 17  1  0  0  0  0
 11 12  1  0  0  0  0
 11 13  1  0  0  0  0
 11 14  1  0  0  0  0
  9 10  1  0  0  0  0
  9 11  1  0  0  0  0
  9 22  1  0  0  0  0
  7  8  1  0  0  0  0
  7  9  1  0  0  0  0
 26 27  1  0  0  0  0
 26 28  1  0  0  0  0
 26 29  1  0  0  0  0
 24 25  1  0  0  0  0
 24 26  1  0  0  0  0
M  END
$$$$
default_name
  -OEChem-02102213163D

 29 28  0     1  0  0  0  0  0999 V2000
   -3.5781   -3.7296    1.2702 H   0  0  0  0  0  0  0  0  0  0  0  0
   -3.5311   -2.7616    0.7732 C   0  0  0  0  0  0  0  0  0  0  0  0
   -4.2371   -2.0766    1.2382 H   0  0  0  0  0  0  0  0  0  0  0  0
   -3.7681   -2.8816   -0.2818 H   0  0  0  0  0  0  0  0  0  0  0  0
   -2.1321   -2.2086    0.9112 C   0  0  0  0  0  0  0  0  0  0  0  0
   -1.2751   -2.8426    1.5112 O   0  0  0  0  0  0  0  0  0  0  0  0
   -1.9041   -1.0186    0.3602 N   0  0  0  0  0  0  0  0  0  0  0  0
   -2.6671   -0.5416   -0.0988 H   0  0  0  0  0  0  0  0  0  0  0  0
   -0.6131   -0.3236    0.3832 C   0  0  1  0  0  0  0  0  0  0  0  0
    0.0142   -0.7800    1.1506 H   0  0  0  0  0  0  0  0  0  0  0  0
    0.0816   -0.5059   -0.9788 C   0  0  0  0  0  0  0  0  0  0  0  0
   -0.0143   -1.5498   -1.2849 H   0  0  0  0  0  0  0  0  0  0  0  0
   -0.4183    0.1151   -1.7236 H   0  0  0  0  0  0  0  0  0  0  0  0
    1.5713   -0.1443   -0.9597 C   0  0  0  0  0  0  0  0  0  0  0  0
    1.7504    0.6702   -1.6609 H   0  0  0  0  0  0  0  0  0  0  0  0
    1.8374    0.1915    0.0432 H   0  0  0  0  0  0  0  0  0  0  0  0
    2.6583   -1.5215   -1.4086 S   0  0  0  0  0  0  0  0  0  0  0  0
    2.4228   -2.5861    0.0381 C   0  0  0  0  0  0  0  0  0  0  0  0
    1.3722   -2.8659    0.1215 H   0  0  0  0  0  0  0  0  0  0  0  0
    3.0264   -3.4872   -0.0742 H   0  0  0  0  0  0  0  0  0  0  0  0
    2.7332   -2.0564    0.9391 H   0  0  0  0  0  0  0  0  0  0  0  0
   -0.8064    1.1568    0.7414 C   0  0  0  0  0  0  0  0  0  0  0  0
   -1.6978    1.8100    0.2029 O   0  0  0  0  0  0  0  0  0  0  0  0
    0.0314    1.6872    1.6415 N   0  0  0  0  0  0  0  0  0  0  0  0
    0.7279    1.0858    2.0517 H   0  0  0  0  0  0  0  0  0  0  0  0
   -0.0137    3.0826    2.0755 C   0  0  0  0  0  0  0  0  0  0  0  0
   -0.9991    3.3070    2.4905 H   0  0  0  0  0  0  0  0  0  0  0  0
    0.7468    3.2694    2.8349 H   0  0  0  0  0  0  0  0  0  0  0  0
    0.1592    3.7397    1.2213 H   0  0  0  0  0  0  0  0  0  0  0  0
  5  6  2  0  0  0  0
  5  7  1  0  0  0  0
  2  3  1  0  0  0  0
  2  4  1  0  0  0  0
  2  5  1  0  0  0  0
  1  2  1  0  0  0  0
 22 23  2  0  0  0  0
 22 24  1  0  0  0  0
 18 19  1  0  0  0  0
 18 20  1  0  0  0  0
 18 21  1  0  0  0  0
 17 18  1  0  0  0  0
 14 15  1  0  0  0  0
 14 16  1  0  0  0  0
 14 17  1  0  0  0  0
 11 12  1  0  0  0  0
 11 13  1  0  0  0  0
 11 14  1  0  0  0  0
  9 10  1  0  0  0  0
  9 11  1  0  0  0  0
  9 22  1  0  0  0  0
  7  8  1  0  0  0  0
  7  9  1  0  0  0  0
 26 27  1  0  0  0  0
 26 28  1  0  0  0  0
 26 29  1  0  0  0  0
 24 25  1  0  0  0  0
 24 26  1  0  0  0  0
M  END
$$$$
default_name
  -OEChem-02102213163D

 29 28  0     1  0  0  0  0  0999 V2000
   -3.5781   -3.7296    1.2702 H   0  0  0  0  0  0  0  0  0  0  0  0
   -3.5311   -2.7616    0.7732 C   0  0  0  0  0  0  0  0  0  0  0  0
   -4.2371   -2.0766    1.2382 H   0  0  0  0  0  0  0  0  0  0  0  0
   -3.7681   -2.8816   -0.2818 H   0  0  0  0  0  0  0  0  0  0  0  0
   -2.1321   -2.2086    0.9112 C   0  0  0  0  0  0  0  0  0  0  0  0
   -1.2751   -2.8426    1.5112 O   0  0  0  0  0  0  0  0  0  0  0  0
   -1.9041   -1.0186    0.3602 N   0  0  0  0  0  0  0  0  0  0  0  0
   -2.6671   -0.5416   -0.0988 H   0  0  0  0  0  0  0  0  0  0  0  0
   -0.6131   -0.3236    0.3832 C   0  0  1  0  0  0  0  0  0  0  0  0
    0.0142   -0.7800    1.1506 H   0  0  0  0  0  0  0  0  0  0  0  0
    0.0816   -0.5059   -0.9788 C   0  0  0  0  0  0  0  0  0  0  0  0
   -0.0143   -1.5498   -1.2849 H   0  0  0  0  0  0  0  0  0  0  0  0
   -0.4183    0.1151   -1.7236 H   0  0  0  0  0  0  0  0  0  0  0  0
    1.5713   -0.1443   -0.9597 C   0  0  0  0  0  0  0  0  0  0  0  0
    1.7107    0.8222   -1.4430 H   0  0  0  0  0  0  0  0  0  0  0  0
    1.9000   -0.0685    0.0774 H   0  0  0  0  0  0  0  0  0  0  0  0
    2.6223   -1.3523   -1.8057 S   0  0  0  0  0  0  0  0  0  0  0  0
    2.4713   -2.7490   -0.6619 C   0  0  0  0  0  0  0  0  0  0  0  0
    1.4265   -3.0524   -0.5880 H   0  0  0  0  0  0  0  0  0  0  0  0
    3.0627   -3.5862   -1.0336 H   0  0  0  0  0  0  0  0  0  0  0  0
    2.8389   -2.4594    0.3229 H   0  0  0  0  0  0  0  0  0  0  0  0
   -0.8064    1.1568    0.7414 C   0  0  0  0  0  0  0  0  0  0  0  0
   -1.6978    1.8100    0.2029 O   0  0  0  0  0  0  0  0  0  0  0  0
    0.0314    1.6872    1.6415 N   0  0  0  0  0  0  0  0  0  0  0  0
    0.7279    1.0858    2.0517 H   0  0  0  0  0  0  0  0  0  0  0  0
   -0.0137    3.0826    2.0755 C   0  0  0  0  0  0  0  0  0  0  0  0
   -0.9991    3.3070    2.4905 H   0  0  0  0  0  0  0  0  0  0  0  0
    0.7468    3.2694    2.8349 H   0  0  0  0  0  0  0  0  0  0  0  0
    0.1592    3.7397    1.2213 H   0  0  0  0  0  0  0  0  0  0  0  0
  5  6  2  0  0  0  0
  5  7  1  0  0  0  0
  2  3  1  0  0  0  0
  2  4  1  0  0  0  0
  2  5  1  0  0  0  0
  1  2  1  0  0  0  0
 22 23  2  0  0  0  0
 22 24  1  0  0  0  0
 18 19  1  0  0  0  0
 18 20  1  0  0  0  0
 18 21  1  0  0  0  0
 17 18  1  0  0  0  0
 14 15  1  0  0  0  0
 14 16  1  0  0  0  0
 14 17  1  0  0  0  0
 11 12  1  0  0  0  0
 11 13  1  0  0  0  0
 11 14  1  0  0  0  0
  9 10  1  0  0  0  0
  9 11  1  0  0  0  0
  9 22  1  0  0  0  0
  7  8  1  0  0  0  0
  7  9  1  0  0  0  0
 26 27  1  0  0  0  0
 26 28  1  0  0  0  0
 26 29  1  0  0  0  0
 24 25  1  0  0  0  0
 24 26  1  0  0  0  0
M  END
$$$$
default_name
  -OEChem-02102213163D

 29 28  0     1  0  0  0  0  0999 V2000
   -3.5781   -3.7296    1.2702 H   0  0  0  0  0  0  0  0  0  0  0  0
   -3.5311   -2.7616    0.7732 C   0  0  0  0  0  0  0  0  0  0  0  0
   -4.2371   -2.0766    1.2382 H   0  0  0  0  0  0  0  0  0  0  0  0
   -3.7681   -2.8816   -0.2818 H   0  0  0  0  0  0  0  0  0  0  0  0
   -2.1321   -2.2086    0.9112 C   0  0  0  0  0  0  0  0  0  0  0  0
   -1.2751   -2.8426    1.5112 O   0  0  0  0  0  0  0  0  0  0  0  0
   -1.9041   -1.0186    0.3602 N   0  0  0  0  0  0  0  0  0  0  0  0
   -2.6671   -0.5416   -0.0988 H   0  0  0  0  0  0  0  0  0  0  0  0
   -0.6131   -0.3236    0.3832 C   0  0  1  0  0  0  0  0  0  0  0  0
    0.0142   -0.7800    1.1506 H   0  0  0  0  0  0  0  0  0  0  0  0
    0.0816   -0.5059   -0.9788 C   0  0  0  0  0  0  0  0  0  0  0  0
   -0.0143   -1.5498   -1.2849 H   0  0  0  0  0  0  0  0  0  0  0  0
   -0.4183    0.1151   -1.7236 H   0  0  0  0  0  0  0  0  0  0  0  0
    1.5713   -0.1443   -0.9597 C   0  0  0  0  0  0  0  0  0  0  0  0
    1.6852    0.9141   -1.1918 H   0  0  0  0  0  0  0  0  0  0  0  0
    1.9635   -0.3280    0.0412 H   0  0  0  0  0  0  0  0  0  0  0  0
    2.5628   -1.0892   -2.1446 S   0  0  0  0  0  0  0  0  0  0  0  0
    2.4759   -2.7301   -1.3820 C   0  0  0  0  0  0  0  0  0  0  0  0
    1.4363   -3.0539   -1.3236 H   0  0  0  0  0  0  0  0  0  0  0  0
    3.0396   -3.4404   -1.9875 H   0  0  0  0  0  0  0  0  0  0  0  0
    2.9047   -2.6933   -0.3801 H   0  0  0  0  0  0  0  0  0  0  0  0
   -0.8064    1.1568    0.7414 C   0  0  0  0  0  0  0  0  0  0  0  0
   -1.6978    1.8100    0.2029 O   0  0  0  0  0  0  0  0  0  0  0  0
    0.0314    1.6872    1.6415 N   0  0  0  0  0  0  0  0  0  0  0  0
    0.7279    1.0858    2.0517 H   0  0  0  0  0  0  0  0  0  0  0  0
   -0.0137    3.0826    2.0755 C   0  0  0  0  0  0  0  0  0  0  0  0
   -0.9991    3.3070    2.4905 H   0  0  0  0  0  0  0  0  0  0  0  0
    0.7468    3.2694    2.8349 H   0  0  0  0  0  0  0  0  0  0  0  0
    0.1592    3.7397    1.2213 H   0  0  0  0  0  0  0  0  0  0  0  0
  5  6  2  0  0  0  0
  5  7  1  0  0  0  0
  2  3  1  0  0  0  0
  2  4  1  0  0  0  0
  2  5  1  0  0  0  0
  1  2  1  0  0  0  0
 22 23  2  0  0  0  0
 22 24  1  0  0  0  0
 18 19  1  0  0  0  0
 18 20  1  0  0  0  0
 18 21  1  0  0  0  0
 17 18  1  0  0  0  0
 14 15  1  0  0  0  0
 14 16  1  0  0  0  0
 14 17  1  0  0  0  0
 11 12  1  0  0  0  0
 11 13  1  0  0  0  0
 11 14  1  0  0  0  0
  9 10  1  0  0  0  0
  9 11  1  0  0  0  0
  9 22  1  0  0  0  0
  7  8  1  0  0  0  0
  7  9  1  0  0  0  0
 26 27  1  0  0  0  0
 26 28  1  0  0  0  0
 26 29  1  0  0  0  0
 24 25  1  0  0  0  0
 24 26  1  0  0  0  0
M  END
$$$$
default_name
  -OEChem-02102213163D

 29 28  0     1  0  0  0  0  0999 V2000
   -3.5781   -3.7296    1.2702 H   0  0  0  0  0  0  0  0  0  0  0  0
   -3.5311   -2.7616    0.7732 C   0  0  0  0  0  0  0  0  0  0  0  0
   -4.2371   -2.0766    1.2382 H   0  0  0  0  0  0  0  0  0  0  0  0
   -3.7681   -2.8816   -0.2818 H   0  0  0  0  0  0  0  0  0  0  0  0
   -2.1321   -2.2086    0.9112 C   0  0  0  0  0  0  0  0  0  0  0  0
   -1.2751   -2.8426    1.5112 O   0  0  0  0  0  0  0  0  0  0  0  0
   -1.9041   -1.0186    0.3602 N   0  0  0  0  0  0  0  0  0  0  0  0
   -2.6671   -0.5416   -0.0988 H   0  0  0  0  0  0  0  0  0  0  0  0
   -0.6131   -0.3236    0.3832 C   0  0  1  0  0  0  0  0  0  0  0  0
    0.0142   -0.7800    1.1506 H   0  0  0  0  0  0  0  0  0  0  0  0
    0.0816   -0.5059   -0.9788 C   0  0  0  0  0  0  0  0  0  0  0  0
   -0.0143   -1.5498   -1.2849 H   0  0  0  0  0  0  0  0  0  0  0  0
   -0.4183    0.1151   -1.7236 H   0  0  0  0  0  0  0  0  0  0  0  0
    1.5713   -0.1443   -0.9597 C   0  0  0  0  0  0  0  0  0  0  0  0
    1.6755    0.9397   -0.9245 H   0  0  0  0  0  0  0  0  0  0  0  0
    2.0234   -0.5694   -0.0629 H   0  0  0  0  0  0  0  0  0  0  0  0
    2.4837   -0.7500   -2.4020 S   0  0  0  0  0  0  0  0  0  0  0  0
    2.4364   -2.5308   -2.0730 C   0  0  0  0  0  0  0  0  0  0  0  0
    1.4009   -2.8703   -2.0350 H   0  0  0  0  0  0  0  0  0  0  0  0
    2.9585   -3.0597   -2.8708 H   0  0  0  0  0  0  0  0  0  0  0  0
    2.9261   -2.7423   -1.1221 H   0  0  0  0  0  0  0  0  0  0  0  0
   -0.8064    1.1568    0.7414 C   0  0  0  0  0  0  0  0  0  0  0  0
   -1.6978    1.8100    0.2029 O   0  0  0  0  0  0  0  0  0  0  0  0
    0.0314    1.6872    1.6415 N   0  0  0  0  0  0  0  0  0  0  0  0
    0.7279    1.0858    2.0517 H   0  0  0  0  0  0  0  0  0  0  0  0
   -0.0137    3.0826    2.0755 C   0  0  0  0  0  0  0  0  0  0  0  0
   -0.9991    3.3070    2.4905 H   0  0  0  0  0  0  0  0  0  0  0  0
    0.7468    3.2694    2.8349 H   0  0  0  0  0  0  0  0  0  0  0  0
    0.1592    3.7397    1.2213 H   0  0  0  0  0  0  0  0  0  0  0  0
  5  6  2  0  0  0  0
  5  7  1  0  0  0  0
  2  3  1  0  0  0  0
  2  4  1  0  0  0  0
  2  5  1  0  0  0  0
  1  2  1  0  0  0  0
 22 23  2  0  0  0  0
 22 24  1  0  0  0  0
 18 19  1  0  0  0  0
 18 20  1  0  0  0  0
 18 21  1  0  0  0  0
 17 18  1  0  0  0  0
 14 15  1  0  0  0  0
 14 16  1  0  0  0  0
 14 17  1  0  0  0  0
 11 12  1  0  0  0  0
 11 13  1  0  0  0  0
 11 14  1  0  0  0  0
  9 10  1  0  0  0  0
  9 11  1  0  0  0  0
  9 22  1  0  0  0  0
  7  8  1  0  0  0  0
  7  9  1  0  0  0  0
 26 27  1  0  0  0  0
 26 28  1  0  0  0  0
 26 29  1  0  0  0  0
 24 25  1  0  0  0  0
 24 26  1  0  0  0  0
M  END
$$$$
default_name
  -OEChem-02102213163D

 29 28  0     1  0  0  0  0  0999 V2000
   -3.5781   -3.7296    1.2702 H   0  0  0  0  0  0  0  0  0  0  0  0
   -3.5311   -2.7616    0.7732 C   0  0  0  0  0  0  0  0  0  0  0  0
   -4.2371   -2.0766    1.2382 H   0  0  0  0  0  0  0  0  0  0  0  0
   -3.7681   -2.8816   -0.2818 H   0  0  0  0  0  0  0  0  0  0  0  0
   -2.1321   -2.2086    0.9112 C   0  0  0  0  0  0  0  0  0  0  0  0
   -1.2751   -2.8426    1.5112 O   0  0  0  0  0  0  0  0  0  0  0  0
   -1.9041   -1.0186    0.3602 N   0  0  0  0  0  0  0  0  0  0  0  0
   -2.6671   -0.5416   -0.0988 H   0  0  0  0  0  0  0  0  0  0  0  0
   -0.6131   -0.3236    0.3832 C   0  0  1  0  0  0  0  0  0  0  0  0
    0.0142   -0.7800    1.1506 H   0  0  0  0  0  0  0  0  0  0  0  0
    0.0816   -0.5059   -0.9788 C   0  0  0  0  0  0  0  0  0  0  0  0
   -0.2353   -1.4579   -1.4099 H   0  0  0  0  0  0  0  0  0  0  0  0
   -0.2308    0.2939   -1.6519 H   0  0  0  0  0  0  0  0  0  0  0  0
    1.6121   -0.5024   -0.8910 C   0  0  0  0  0  0  0  0  0  0  0  0
    1.9435    0.4444   -0.4656 H   0  0  0  0  0  0  0  0  0  0  0  0
    1.9270   -1.3123   -0.2320 H   0  0  0  0  0  0  0  0  0  0  0  0
    2.4315   -0.7166   -2.4917 S   0  0  0  0  0  0  0  0  0  0  0  0
    1.9926   -2.4401   -2.8362 C   0  0  0  0  0  0  0  0  0  0  0  0
    0.9078   -2.5411   -2.8818 H   0  0  0  0  0  0  0  0  0  0  0  0
    2.4215   -2.7379   -3.7933 H   0  0  0  0  0  0  0  0  0  0  0  0
    2.3874   -3.0844   -2.0502 H   0  0  0  0  0  0  0  0  0  0  0  0
   -0.8064    1.1568    0.7414 C   0  0  0  0  0  0  0  0  0  0  0  0
   -1.6978    1.8100    0.2029 O   0  0  0  0  0  0  0  0  0  0  0  0
    0.0314    1.6872    1.6415 N   0  0  0  0  0  0  0  0  0  0  0  0
    0.7279    1.0858    2.0517 H   0  0  0  0  0  0  0  0  0  0  0  0
   -0.0137    3.0826    2.0755 C   0  0  0  0  0  0  0  0  0  0  0  0
   -0.9991    3.3070    2.4905 H   0  0  0  0  0  0  0  0  0  0  0  0
    0.7468    3.2694    2.8349 H   0  0  0  0  0  0  0  0  0  0  0  0
    0.1592    3.7397    1.2213 H   0  0  0  0  0  0  0  0  0  0  0  0
  5  6  2  0  0  0  0
  5  7  1  0  0  0  0
  2  3  1  0  0  0  0
  2  4  1  0  0  0  0
  2  5  1  0  0  0  0
  1  2  1  0  0  0  0
 22 23  2  0  0  0  0
 22 24  1  0  0  0  0
 18 19  1  0  0  0  0
 18 20  1  0  0  0  0
 18 21  1  0  0  0  0
 17 18  1  0  0  0  0
 14 15  1  0  0  0  0
 14 16  1  0  0  0  0
 14 17  1  0  0  0  0
 11 12  1  0  0  0  0
 11 13  1  0  0  0  0
 11 14  1  0  0  0  0
  9 10  1  0  0  0  0
  9 11  1  0  0  0  0
  9 22  1  0  0  0  0
  7  8  1  0  0  0  0
  7  9  1  0  0  0  0
 26 27  1  0  0  0  0
 26 28  1  0  0  0  0
 26 29  1  0  0  0  0
 24 25  1  0  0  0  0
 24 26  1  0  0  0  0
M  END
$$$$
default_name
  -OEChem-02102213163D

 29 28  0     1  0  0  0  0  0999 V2000
   -3.5781   -3.7296    1.2702 H   0  0  0  0  0  0  0  0  0  0  0  0
   -3.5311   -2.7616    0.7732 C   0  0  0  0  0  0  0  0  0  0  0  0
   -4.2371   -2.0766    1.2382 H   0  0  0  0  0  0  0  0  0  0  0  0
   -3.7681   -2.8816   -0.2818 H   0  0  0  0  0  0  0  0  0  0  0  0
   -2.1321   -2.2086    0.9112 C   0  0  0  0  0  0  0  0  0  0  0  0
   -1.2751   -2.8426    1.5112 O   0  0  0  0  0  0  0  0  0  0  0  0
   -1.9041   -1.0186    0.3602 N   0  0  0  0  0  0  0  0  0  0  0  0
   -2.6671   -0.5416   -0.0988 H   0  0  0  0  0  0  0  0  0  0  0  0
   -0.6131   -0.3236    0.3832 C   0  0  1  0  0  0  0  0  0  0  0  0
    0.0142   -0.7800    1.1506 H   0  0  0  0  0  0  0  0  0  0  0  0
    0.0816   -0.5059   -0.9788 C   0  0  0  0  0  0  0  0  0  0  0  0
   -0.2353   -1.4579   -1.4099 H   0  0  0  0  0  0  0  0  0  0  0  0
   -0.2308    0.2939   -1.6519 H   0  0  0  0  0  0  0  0  0  0  0  0
    1.6121   -0.5024   -0.8910 C   0  0  0  0  0  0  0  0  0  0  0  0
    1.9306    0.3071   -0.2349 H   0  0  0  0  0  0  0  0  0  0  0  0
    1.9405   -1.4503   -0.4632 H   0  0  0  0  0  0  0  0  0  0  0  0
    2.4305   -0.2835   -2.4916 S   0  0  0  0  0  0  0  0  0  0  0  0
    2.0162   -1.8658   -3.2703 C   0  0  0  0  0  0  0  0  0  0  0  0
    0.9329   -1.9678   -3.3420 H   0  0  0  0  0  0  0  0  0  0  0  0
    2.4470   -1.8998   -4.2713 H   0  0  0  0  0  0  0  0  0  0  0  0
    2.4225   -2.6853   -2.6769 H   0  0  0  0  0  0  0  0  0  0  0  0
   -0.8064    1.1568    0.7414 C   0  0  0  0  0  0  0  0  0  0  0  0
   -1.6978    1.8100    0.2029 O   0  0  0  0  0  0  0  0  0  0  0  0
    0.0314    1.6872    1.6415 N   0  0  0  0  0  0  0  0  0  0  0  0
    0.7279    1.0858    2.0517 H   0  0  0  0  0  0  0  0  0  0  0  0
   -0.0137    3.0826    2.0755 C   0  0  0  0  0  0  0  0  0  0  0  0
   -0.9991    3.3070    2.4905 H   0  0  0  0  0  0  0  0  0  0  0  0
    0.7468    3.2694    2.8349 H   0  0  0  0  0  0  0  0  0  0  0  0
    0.1592    3.7397    1.2213 H   0  0  0  0  0  0  0  0  0  0  0  0
  5  6  2  0  0  0  0
  5  7  1  0  0  0  0
  2  3  1  0  0  0  0
  2  4  1  0  0  0  0
  2  5  1  0  0  0  0
  1  2  1  0  0  0  0
 22 23  2  0  0  0  0
 22 24  1  0  0  0  0
 18 19  1  0  0  0  0
 18 20  1  0  0  0  0
 18 21  1  0  0  0  0
 17 18  1  0  0  0  0
 14 15  1  0  0  0  0
 14 16  1  0  0  0  0
 14 17  1  0  0  0  0
 11 12  1  0  0  0  0
 11 13  1  0  0  0  0
 11 14  1  0  0  0  0
  9 10  1  0  0  0  0
  9 11  1  0  0  0  0
  9 22  1  0  0  0  0
  7  8  1  0  0  0  0
  7  9  1  0  0  0  0
 26 27  1  0  0  0  0
 26 28  1  0  0  0  0
 26 29  1  0  0  0  0
 24 25  1  0  0  0  0
 24 26  1  0  0  0  0
M  END
$$$$
default_name
  -OEChem-02102213163D

 29 28  0     1  0  0  0  0  0999 V2000
   -3.5781   -3.7296    1.2702 H   0  0  0  0  0  0  0  0  0  0  0  0
   -3.5311   -2.7616    0.7732 C   0  0  0  0  0  0  0  0  0  0  0  0
   -4.2371   -2.0766    1.2382 H   0  0  0  0  0  0  0  0  0  0  0  0
   -3.7681   -2.8816   -0.2818 H   0  0  0  0  0  0  0  0  0  0  0  0
   -2.1321   -2.2086    0.9112 C   0  0  0  0  0  0  0  0  0  0  0  0
   -1.2751   -2.8426    1.5112 O   0  0  0  0  0  0  0  0  0  0  0  0
   -1.9041   -1.0186    0.3602 N   0  0  0  0  0  0  0  0  0  0  0  0
   -2.6671   -0.5416   -0.0988 H   0  0  0  0  0  0  0  0  0  0  0  0
   -0.6131   -0.3236    0.3832 C   0  0  1  0  0  0  0  0  0  0  0  0
    0.0142   -0.7800    1.1506 H   0  0  0  0  0  0  0  0  0  0  0  0
    0.0816   -0.5059   -0.9788 C   0  0  0  0  0  0  0  0  0  0  0  0
   -0.2353   -1.4579   -1.4099 H   0  0  0  0  0  0  0  0  0  0  0  0
   -0.2308    0.2939   -1.6519 H   0  0  0  0  0  0  0  0  0  0  0  0
    1.6121   -0.5024   -0.8910 C   0  0  0  0  0  0  0  0  0  0  0  0
    1.9203    0.1148   -0.0476 H   0  0  0  0  0  0  0  0  0  0  0  0
    1.9556   -1.5236   -0.7222 H   0  0  0  0  0  0  0  0  0  0  0  0
    2.4231    0.1349   -2.3796 S   0  0  0  0  0  0  0  0  0  0  0  0
    2.0302   -1.1985   -3.5412 C   0  0  0  0  0  0  0  0  0  0  0  0
    0.9484   -1.2946   -3.6383 H   0  0  0  0  0  0  0  0  0  0  0  0
    2.4589   -0.9663   -4.5165 H   0  0  0  0  0  0  0  0  0  0  0  0
    2.4501   -2.1374   -3.1792 H   0  0  0  0  0  0  0  0  0  0  0  0
   -0.8064    1.1568    0.7414 C   0  0  0  0  0  0  0  0  0  0  0  0
   -1.6978    1.8100    0.2029 O   0  0  0  0  0  0  0  0  0  0  0  0
    0.0314    1.6872    1.6415 N   0  0  0  0  0  0  0  0  0  0  0  0
    0.7279    1.0858    2.0517 H   0  0  0  0  0  0  0  0  0  0  0  0
   -0.0137    3.0826    2.0755 C   0  0  0  0  0  0  0  0  0  0  0  0
   -0.9991    3.3070    2.4905 H   0  0  0  0  0  0  0  0  0  0  0  0
    0.7468    3.2694    2.8349 H   0  0  0  0  0  0  0  0  0  0  0  0
    0.1592    3.7397    1.2213 H   0  0  0  0  0  0  0  0  0  0  0  0
  5  6  2  0  0  0  0
  5  7  1  0  0  0  0
  2  3  1  0  0  0  0
  2  4  1  0  0  0  0
  2  5  1  0  0  0  0
  1  2  1  0  0  0  0
 22 23  2  0  0  0  0
 22 24  1  0  0  0  0
 18 19  1  0  0  0  0
 18 20  1  0  0  0  0
 18 21  1  0  0  0  0
 17 18  1  0  0  0  0
 14 15  1  0  0  0  0
 14 16  1  0  0  0  0
 14 17  1  0  0  0  0
 11 12  1  0  0  0  0
 11 13  1  0  0  0  0
 11 14  1  0  0  0  0
  9 10  1  0  0  0  0
  9 11  1  0  0  0  0
  9 22  1  0  0  0  0
  7  8  1  0  0  0  0
  7  9  1  0  0  0  0
 26 27  1  0  0  0  0
 26 28  1  0  0  0  0
 26 29  1  0  0  0  0
 24 25  1  0  0  0  0
 24 26  1  0  0  0  0
M  END
$$$$
default_name
  -OEChem-02102213163D

 29 28  0     1  0  0  0  0  0999 V2000
   -3.5781   -3.7296    1.2702 H   0  0  0  0  0  0  0  0  0  0  0  0
   -3.5311   -2.7616    0.7732 C   0  0  0  0  0  0  0  0  0  0  0  0
   -4.2371   -2.0766    1.2382 H   0  0  0  0  0  0  0  0  0  0  0  0
   -3.7681   -2.8816   -0.2818 H   0  0  0  0  0  0  0  0  0  0  0  0
   -2.1321   -2.2086    0.9112 C   0  0  0  0  0  0  0  0  0  0  0  0
   -1.2751   -2.8426    1.5112 O   0  0  0  0  0  0  0  0  0  0  0  0
   -1.9041   -1.0186    0.3602 N   0  0  0  0  0  0  0  0  0  0  0  0
   -2.6671   -0.5416   -0.0988 H   0  0  0  0  0  0  0  0  0  0  0  0
   -0.6131   -0.3236    0.3832 C   0  0  1  0  0  0  0  0  0  0  0  0
    0.0142   -0.7800    1.1506 H   0  0  0  0  0  0  0  0  0  0  0  0
    0.0816   -0.5059   -0.9788 C   0  0  0  0  0  0  0  0  0  0  0  0
   -0.2353   -1.4579   -1.4099 H   0  0  0  0  0  0  0  0  0  0  0  0
   -0.2308    0.2939   -1.6519 H   0  0  0  0  0  0  0  0  0  0  0  0
    1.6121   -0.5024   -0.8910 C   0  0  0  0  0  0  0  0  0  0  0  0
    1.9133   -0.1196    0.0836 H   0  0  0  0  0  0  0  0  0  0  0  0
    1.9710   -1.5273   -0.9914 H   0  0  0  0  0  0  0  0  0  0  0  0
    2.4099    0.5099   -2.1632 S   0  0  0  0  0  0  0  0  0  0  0  0
    2.0337   -0.4838   -3.6305 C   0  0  0  0  0  0  0  0  0  0  0  0
    0.9532   -0.5677   -3.7507 H   0  0  0  0  0  0  0  0  0  0  0  0
    2.4565   -0.0011   -4.5121 H   0  0  0  0  0  0  0  0  0  0  0  0
    2.4683   -1.4780   -3.5229 H   0  0  0  0  0  0  0  0  0  0  0  0
   -0.8064    1.1568    0.7414 C   0  0  0  0  0  0  0  0  0  0  0  0
   -1.6978    1.8100    0.2029 O   0  0  0  0  0  0  0  0  0  0  0  0
    0.0314    1.6872    1.6415 N   0  0  0  0  0  0  0  0  0  0  0  0
    0.7279    1.0858    2.0517 H   0  0  0  0  0  0  0  0  0  0  0  0
   -0.0137    3.0826    2.0755 C   0  0  0  0  0  0  0  0  0  0  0  0
   -0.9991    3.3070    2.4905 H   0  0  0  0  0  0  0  0  0  0  0  0
    0.7468    3.2694    2.8349 H   0  0  0  0  0  0  0  0  0  0  0  0
    0.1592    3.7397    1.2213 H   0  0  0  0  0  0  0  0  0  0  0  0
  5  6  2  0  0  0  0
  5  7  1  0  0  0  0
  2  3  1  0  0  0  0
  2  4  1  0  0  0  0
  2  5  1  0  0  0  0
  1  2  1  0  0  0  0
 22 23  2  0  0  0  0
 22 24  1  0  0  0  0
 18 19  1  0  0  0  0
 18 20  1  0  0  0  0
 18 21  1  0  0  0  0
 17 18  1  0  0  0  0
 14 15  1  0  0  0  0
 14 16  1  0  0  0  0
 14 17  1  0  0  0  0
 11 12  1  0  0  0  0
 11 13  1  0  0  0  0
 11 14  1  0  0  0  0
  9 10  1  0  0  0  0
  9 11  1  0  0  0  0
  9 22  1  0  0  0  0
  7  8  1  0  0  0  0
  7  9  1  0  0  0  0
 26 27  1  0  0  0  0
 26 28  1  0  0  0  0
 26 29  1  0  0  0  0
 24 25  1  0  0  0  0
 24 26  1  0  0  0  0
M  END
$$$$
default_name
  -OEChem-02102213163D

 29 28  0     1  0  0  0  0  0999 V2000
   -3.5781   -3.7296    1.2702 H   0  0  0  0  0  0  0  0  0  0  0  0
   -3.5311   -2.7616    0.7732 C   0  0  0  0  0  0  0  0  0  0  0  0
   -4.2371   -2.0766    1.2382 H   0  0  0  0  0  0  0  0  0  0  0  0
   -3.7681   -2.8816   -0.2818 H   0  0  0  0  0  0  0  0  0  0  0  0
   -2.1321   -2.2086    0.9112 C   0  0  0  0  0  0  0  0  0  0  0  0
   -1.2751   -2.8426    1.5112 O   0  0  0  0  0  0  0  0  0  0  0  0
   -1.9041   -1.0186    0.3602 N   0  0  0  0  0  0  0  0  0  0  0  0
   -2.6671   -0.5416   -0.0988 H   0  0  0  0  0  0  0  0  0  0  0  0
   -0.6131   -0.3236    0.3832 C   0  0  1  0  0  0  0  0  0  0  0  0
    0.0142   -0.7800    1.1506 H   0  0  0  0  0  0  0  0  0  0  0  0
    0.0816   -0.5059   -0.9788 C   0  0  0  0  0  0  0  0  0  0  0  0
   -0.2353   -1.4579   -1.4099 H   0  0  0  0  0  0  0  0  0  0  0  0
   -0.2308    0.2939   -1.6519 H   0  0  0  0  0  0  0  0  0  0  0  0
    1.6121   -0.5024   -0.8910 C   0  0  0  0  0  0  0  0  0  0  0  0
    1.9101   -0.3800    0.1499 H   0  0  0  0  0  0  0  0  0  0  0  0
    1.9859   -1.4611   -1.2523 H   0  0  0  0  0  0  0  0  0  0  0  0
    2.3916    0.8160   -1.8574 S   0  0  0  0  0  0  0  0  0  0  0  0
    2.0264    0.2297   -3.5321 C   0  0  0  0  0  0  0  0  0  0  0  0
    0.9470    0.1636   -3.6713 H   0  0  0  0  0  0  0  0  0  0  0  0
    2.4398    0.9301   -4.2584 H   0  0  0  0  0  0  0  0  0  0  0  0
    2.4759   -0.7519   -3.6844 H   0  0  0  0  0  0  0  0  0  0  0  0
   -0.8064    1.1568    0.7414 C   0  0  0  0  0  0  0  0  0  0  0  0
   -1.6978    1.8100    0.2029 O   0  0  0  0  0  0  0  0  0  0  0  0
    0.0314    1.6872    1.6415 N   0  0  0  0  0  0  0  0  0  0  0  0
    0.7279    1.0858    2.0517 H   0  0  0  0  0  0  0  0  0  0  0  0
   -0.0137    3.0826    2.0755 C   0  0  0  0  0  0  0  0  0  0  0  0
   -0.9991    3.3070    2.4905 H   0  0  0  0  0  0  0  0  0  0  0  0
    0.7468    3.2694    2.8349 H   0  0  0  0  0  0  0  0  0  0  0  0
    0.1592    3.7397    1.2213 H   0  0  0  0  0  0  0  0  0  0  0  0
  5  6  2  0  0  0  0
  5  7  1  0  0  0  0
  2  3  1  0  0  0  0
  2  4  1  0  0  0  0
  2  5  1  0  0  0  0
  1  2  1  0  0  0  0
 22 23  2  0  0  0  0
 22 24  1  0  0  0  0
 18 19  1  0  0  0  0
 18 20  1  0  0  0  0
 18 21  1  0  0  0  0
 17 18  1  0  0  0  0
 14 15  1  0  0  0  0
 14 16  1  0  0  0  0
 14 17  1  0  0  0  0
 11 12  1  0  0  0  0
 11 13  1  0  0  0  0
 11 14  1  0  0  0  0
  9 10  1  0  0  0  0
  9 11  1  0  0  0  0
  9 22  1  0  0  0  0
  7  8  1  0  0  0  0
  7  9  1  0  0  0  0
 26 27  1  0  0  0  0
 26 28  1  0  0  0  0
 26 29  1  0  0  0  0
 24 25  1  0  0  0  0
 24 26  1  0  0  0  0
M  END
$$$$
default_name
  -OEChem-02102213163D

 29 28  0     1  0  0  0  0  0999 V2000
   -3.5781   -3.7296    1.2702 H   0  0  0  0  0  0  0  0  0  0  0  0
   -3.5311   -2.7616    0.7732 C   0  0  0  0  0  0  0  0  0  0  0  0
   -4.2371   -2.0766    1.2382 H   0  0  0  0  0  0  0  0  0  0  0  0
   -3.7681   -2.8816   -0.2818 H   0  0  0  0  0  0  0  0  0  0  0  0
   -2.1321   -2.2086    0.9112 C   0  0  0  0  0  0  0  0  0  0  0  0
   -1.2751   -2.8426    1.5112 O   0  0  0  0  0  0  0  0  0  0  0  0
   -1.9041   -1.0186    0.3602 N   0  0  0  0  0  0  0  0  0  0  0  0
   -2.6671   -0.5416   -0.0988 H   0  0  0  0  0  0  0  0  0  0  0  0
   -0.6131   -0.3236    0.3832 C   0  0  1  0  0  0  0  0  0  0  0  0
    0.0142   -0.7800    1.1506 H   0  0  0  0  0  0  0  0  0  0  0  0
    0.0816   -0.5059   -0.9788 C   0  0  0  0  0  0  0  0  0  0  0  0
   -0.2353   -1.4579   -1.4099 H   0  0  0  0  0  0  0  0  0  0  0  0
   -0.2308    0.2939   -1.6519 H   0  0  0  0  0  0  0  0  0  0  0  0
    1.6121   -0.5024   -0.8910 C   0  0  0  0  0  0  0  0  0  0  0  0
    1.9109   -0.6486    0.1465 H   0  0  0  0  0  0  0  0  0  0  0  0
    1.9990   -1.3295   -1.4873 H   0  0  0  0  0  0  0  0  0  0  0  0
    2.3696    1.0324   -1.4828 S   0  0  0  0  0  0  0  0  0  0  0  0
    2.0089    0.8934   -3.2527 C   0  0  0  0  0  0  0  0  0  0  0  0
    0.9302    0.8494   -3.4057 H   0  0  0  0  0  0  0  0  0  0  0  0
    2.4100    1.7637   -3.7728 H   0  0  0  0  0  0  0  0  0  0  0  0
    2.4724   -0.0087   -3.6528 H   0  0  0  0  0  0  0  0  0  0  0  0
   -0.8064    1.1568    0.7414 C   0  0  0  0  0  0  0  0  0  0  0  0
   -1.6978    1.8100    0.2029 O   0  0  0  0  0  0  0  0  0  0  0  0
    0.0314    1.6872    1.6415 N   0  0  0  0  0  0  0  0  0  0  0  0
    0.7279    1.0858    2.0517 H   0  0  0  0  0  0  0  0  0  0  0  0
   -0.0137    3.0826    2.0755 C   0  0  0  0  0  0  0  0  0  0  0  0
   -0.9991    3.3070    2.4905 H   0  0  0  0  0  0  0  0  0  0  0  0
    0.7468    3.2694    2.8349 H   0  0  0  0  0  0  0  0  0  0  0  0
    0.1592    3.7397    1.2213 H   0  0  0  0  0  0  0  0  0  0  0  0
  5  6  2  0  0  0  0
  5  7  1  0  0  0  0
  2  3  1  0  0  0  0
  2  4  1  0  0  0  0
  2  5  1  0  0  0  0
  1  2  1  0  0  0  0
 22 23  2  0  0  0  0
 22 24  1  0  0  0  0
 18 19  1  0  0  0  0
 18 20  1  0  0  0  0
 18 21  1  0  0  0  0
 17 18  1  0  0  0  0
 14 15  1  0  0  0  0
 14 16  1  0  0  0  0
 14 17  1  0  0  0  0
 11 12  1  0  0  0  0
 11 13  1  0  0  0  0
 11 14  1  0  0  0  0
  9 10  1  0  0  0  0
  9 11  1  0  0  0  0
  9 22  1  0  0  0  0
  7  8  1  0  0  0  0
  7  9  1  0  0  0  0
 26 27  1  0  0  0  0
 26 28  1  0  0  0  0
 26 29  1  0  0  0  0
 24 25  1  0  0  0  0
 24 26  1  0  0  0  0
M  END
$$$$
default_name
  -OEChem-02102213163D

 29 28  0     1  0  0  0  0  0999 V2000
   -3.5781   -3.7296    1.2702 H   0  0  0  0  0  0  0  0  0  0  0  0
   -3.5311   -2.7616    0.7732 C   0  0  0  0  0  0  0  0  0  0  0  0
   -4.2371   -2.0766    1.2382 H   0  0  0  0  0  0  0  0  0  0  0  0
   -3.7681   -2.8816   -0.2818 H   0  0  0  0  0  0  0  0  0  0  0  0
   -2.1321   -2.2086    0.9112 C   0  0  0  0  0  0  0  0  0  0  0  0
   -1.2751   -2.8426    1.5112 O   0  0  0  0  0  0  0  0  0  0  0  0
   -1.9041   -1.0186    0.3602 N   0  0  0  0  0  0  0  0  0  0  0  0
   -2.6671   -0.5416   -0.0988 H   0  0  0  0  0  0  0  0  0  0  0  0
   -0.6131   -0.3236    0.3832 C   0  0  1  0  0  0  0  0  0  0  0  0
    0.0142   -0.7800    1.1506 H   0  0  0  0  0  0  0  0  0  0  0  0
    0.0816   -0.5059   -0.9788 C   0  0  0  0  0  0  0  0  0  0  0  0
   -0.2353   -1.4579   -1.4099 H   0  0  0  0  0  0  0  0  0  0  0  0
   -0.2308    0.2939   -1.6519 H   0  0  0  0  0  0  0  0  0  0  0  0
    1.6121   -0.5024   -0.8910 C   0  0  0  0  0  0  0  0  0  0  0  0
    1.9156   -0.9073    0.0739 H   0  0  0  0  0  0  0  0  0  0  0  0
    2.0097   -1.1415   -1.6802 H   0  0  0  0  0  0  0  0  0  0  0  0
    2.3454    1.1443   -1.0651 S   0  0  0  0  0  0  0  0  0  0  0  0
    1.9823    1.4620   -2.8113 C   0  0  0  0  0  0  0  0  0  0  0  0
    0.9039    1.4430   -2.9719 H   0  0  0  0  0  0  0  0  0  0  0  0
    2.3692    2.4430   -3.0882 H   0  0  0  0  0  0  0  0  0  0  0  0
    2.4581    0.7009   -3.4303 H   0  0  0  0  0  0  0  0  0  0  0  0
   -0.8064    1.1568    0.7414 C   0  0  0  0  0  0  0  0  0  0  0  0
   -1.6978    1.8100    0.2029 O   0  0  0  0  0  0  0  0  0  0  0  0
    0.0314    1.6872    1.6415 N   0  0  0  0  0  0  0  0  0  0  0  0
    0.7279    1.0858    2.0517 H   0  0  0  0  0  0  0  0  0  0  0  0
   -0.0137    3.0826    2.0755 C   0  0  0  0  0  0  0  0  0  0  0  0
   -0.9991    3.3070    2.4905 H   0  0  0  0  0  0  0  0  0  0  0  0
    0.7468    3.2694    2.8349 H   0  0  0  0  0  0  0  0  0  0  0  0
    0.1592    3.7397    1.2213 H   0  0  0  0  0  0  0  0  0  0  0  0
  5  6  2  0  0  0  0
  5  7  1  0  0  0  0
  2  3  1  0  0  0  0
  2  4  1  0  0  0  0
  2  5  1  0  0  0  0
  1  2  1  0  0  0  0
 22 23  2  0  0  0  0
 22 24  1  0  0  0  0
 18 19  1  0  0  0  0
 18 20  1  0  0  0  0
 18 21  1  0  0  0  0
 17 18  1  0  0  0  0
 14 15  1  0  0  0  0
 14 16  1  0  0  0  0
 14 17  1  0  0  0  0
 11 12  1  0  0  0  0
 11 13  1  0  0  0  0
 11 14  1  0  0  0  0
  9 10  1  0  0  0  0
  9 11  1  0  0  0  0
  9 22  1  0  0  0  0
  7  8  1  0  0  0  0
  7  9  1  0  0  0  0
 26 27  1  0  0  0  0
 26 28  1  0  0  0  0
 26 29  1  0  0  0  0
 24 25  1  0  0  0  0
 24 26  1  0  0  0  0
M  END
$$$$
default_name
  -OEChem-02102213163D

 29 28  0     1  0  0  0  0  0999 V2000
   -3.5781   -3.7296    1.2702 H   0  0  0  0  0  0  0  0  0  0  0  0
   -3.5311   -2.7616    0.7732 C   0  0  0  0  0  0  0  0  0  0  0  0
   -4.2371   -2.0766    1.2382 H   0  0  0  0  0  0  0  0  0  0  0  0
   -3.7681   -2.8816   -0.2818 H   0  0  0  0  0  0  0  0  0  0  0  0
   -2.1321   -2.2086    0.9112 C   0  0  0  0  0  0  0  0  0  0  0  0
   -1.2751   -2.8426    1.5112 O   0  0  0  0  0  0  0  0  0  0  0  0
   -1.9041   -1.0186    0.3602 N   0  0  0  0  0  0  0  0  0  0  0  0
   -2.6671   -0.5416   -0.0988 H   0  0  0  0  0  0  0  0  0  0  0  0
   -0.6131   -0.3236    0.3832 C   0  0  1  0  0  0  0  0  0  0  0  0
    0.0142   -0.7800    1.1506 H   0  0  0  0  0  0  0  0  0  0  0  0
    0.0816   -0.5059   -0.9788 C   0  0  0  0  0  0  0  0  0  0  0  0
   -0.2353   -1.4579   -1.4099 H   0  0  0  0  0  0  0  0  0  0  0  0
   -0.2308    0.2939   -1.6519 H   0  0  0  0  0  0  0  0  0  0  0  0
    1.6121   -0.5024   -0.8910 C   0  0  0  0  0  0  0  0  0  0  0  0
    1.9240   -1.1383   -0.0631 H   0  0  0  0  0  0  0  0  0  0  0  0
    2.0171   -0.9098   -1.8180 H   0  0  0  0  0  0  0  0  0  0  0  0
    2.3206    1.1441   -0.6327 S   0  0  0  0  0  0  0  0  0  0  0  0
    1.9484    1.8968   -2.2380 C   0  0  0  0  0  0  0  0  0  0  0  0
    0.8700    1.9038   -2.3995 H   0  0  0  0  0  0  0  0  0  0  0  0
    2.3201    2.9217   -2.2515 H   0  0  0  0  0  0  0  0  0  0  0  0
    2.4338    1.3286   -3.0320 H   0  0  0  0  0  0  0  0  0  0  0  0
   -0.8064    1.1568    0.7414 C   0  0  0  0  0  0  0  0  0  0  0  0
   -1.6978    1.8100    0.2029 O   0  0  0  0  0  0  0  0  0  0  0  0
    0.0314    1.6872    1.6415 N   0  0  0  0  0  0  0  0  0  0  0  0
    0.7279    1.0858    2.0517 H   0  0  0  0  0  0  0  0  0  0  0  0
   -0.0137    3.0826    2.0755 C   0  0  0  0  0  0  0  0  0  0  0  0
   -0.9991    3.3070    2.4905 H   0  0  0  0  0  0  0  0  0  0  0  0
    0.7468    3.2694    2.8349 H   0  0  0  0  0  0  0  0  0  0  0  0
    0.1592    3.7397    1.2213 H   0  0  0  0  0  0  0  0  0  0  0  0
  5  6  2  0  0  0  0
  5  7  1  0  0  0  0
  2  3  1  0  0  0  0
  2  4  1  0  0  0  0
  2  5  1  0  0  0  0
  1  2  1  0  0  0  0
 22 23  2  0  0  0  0
 22 24  1  0  0  0  0
 18 19  1  0  0  0  0
 18 20  1  0  0  0  0
 18 21  1  0  0  0  0
 17 18  1  0  0  0  0
 14 15  1  0  0  0  0
 14 16  1  0  0  0  0
 14 17  1  0  0  0  0
 11 12  1  0  0  0  0
 11 13  1  0  0  0  0
 11 14  1  0  0  0  0
  9 10  1  0  0  0  0
  9 11  1  0  0  0  0
  9 22  1  0  0  0  0
  7  8  1  0  0  0  0
  7  9  1  0  0  0  0
 26 27  1  0  0  0  0
 26 28  1  0  0  0  0
 26 29  1  0  0  0  0
 24 25  1  0  0  0  0
 24 26  1  0  0  0  0
M  END
$$$$
default_name
  -OEChem-02102213163D

 29 28  0     1  0  0  0  0  0999 V2000
   -3.5781   -3.7296    1.2702 H   0  0  0  0  0  0  0  0  0  0  0  0
   -3.5311   -2.7616    0.7732 C   0  0  0  0  0  0  0  0  0  0  0  0
   -4.2371   -2.0766    1.2382 H   0  0  0  0  0  0  0  0  0  0  0  0
   -3.7681   -2.8816   -0.2818 H   0  0  0  0  0  0  0  0  0  0  0  0
   -2.1321   -2.2086    0.9112 C   0  0  0  0  0  0  0  0  0  0  0  0
   -1.2751   -2.8426    1.5112 O   0  0  0  0  0  0  0  0  0  0  0  0
   -1.9041   -1.0186    0.3602 N   0  0  0  0  0  0  0  0  0  0  0  0
   -2.6671   -0.5416   -0.0988 H   0  0  0  0  0  0  0  0  0  0  0  0
   -0.6131   -0.3236    0.3832 C   0  0  1  0  0  0  0  0  0  0  0  0
    0.0142   -0.7800    1.1506 H   0  0  0  0  0  0  0  0  0  0  0  0
    0.0816   -0.5059   -0.9788 C   0  0  0  0  0  0  0  0  0  0  0  0
   -0.2353   -1.4579   -1.4099 H   0  0  0  0  0  0  0  0  0  0  0  0
   -0.2308    0.2939   -1.6519 H   0  0  0  0  0  0  0  0  0  0  0  0
    1.6121   -0.5024   -0.8910 C   0  0  0  0  0  0  0  0  0  0  0  0
    1.9355   -1.3259   -0.2551 H   0  0  0  0  0  0  0  0  0  0  0  0
    2.0207   -0.6504   -1.8913 H   0  0  0  0  0  0  0  0  0  0  0  0
    2.2969    1.0319   -0.2151 S   0  0  0  0  0  0  0  0  0  0  0  0
    1.9095    2.1681   -1.5718 C   0  0  0  0  0  0  0  0  0  0  0  0
    0.8308    2.2006   -1.7276 H   0  0  0  0  0  0  0  0  0  0  0  0
    2.2660    3.1671   -1.3196 H   0  0  0  0  0  0  0  0  0  0  0  0
    2.4012    1.8317   -2.4850 H   0  0  0  0  0  0  0  0  0  0  0  0
   -0.8064    1.1568    0.7414 C   0  0  0  0  0  0  0  0  0  0  0  0
   -1.6978    1.8100    0.2029 O   0  0  0  0  0  0  0  0  0  0  0  0
    0.0314    1.6872    1.6415 N   0  0  0  0  0  0  0  0  0  0  0  0
    0.7279    1.0858    2.0517 H   0  0  0  0  0  0  0  0  0  0  0  0
   -0.0137    3.0826    2.0755 C   0  0  0  0  0  0  0  0  0  0  0  0
   -0.9991    3.3070    2.4905 H   0  0  0  0  0  0  0  0  0  0  0  0
    0.7468    3.2694    2.8349 H   0  0  0  0  0  0  0  0  0  0  0  0
    0.1592    3.7397    1.2213 H   0  0  0  0  0  0  0  0  0  0  0  0
  5  6  2  0  0  0  0
  5  7  1  0  0  0  0
  2  3  1  0  0  0  0
  2  4  1  0  0  0  0
  2  5  1  0  0  0  0
  1  2  1  0  0  0  0
 22 23  2  0  0  0  0
 22 24  1  0  0  0  0
 18 19  1  0  0  0  0
 18 20  1  0  0  0  0
 18 21  1  0  0  0  0
 17 18  1  0  0  0  0
 14 15  1  0  0  0  0
 14 16  1  0  0  0  0
 14 17  1  0  0  0  0
 11 12  1  0  0  0  0
 11 13  1  0  0  0  0
 11 14  1  0  0  0  0
  9 10  1  0  0  0  0
  9 11  1  0  0  0  0
  9 22  1  0  0  0  0
  7  8  1  0  0  0  0
  7  9  1  0  0  0  0
 26 27  1  0  0  0  0
 26 28  1  0  0  0  0
 26 29  1  0  0  0  0
 24 25  1  0  0  0  0
 24 26  1  0  0  0  0
M  END
$$$$
default_name
  -OEChem-02102213163D

 29 28  0     1  0  0  0  0  0999 V2000
   -3.5781   -3.7296    1.2702 H   0  0  0  0  0  0  0  0  0  0  0  0
   -3.5311   -2.7616    0.7732 C   0  0  0  0  0  0  0  0  0  0  0  0
   -4.2371   -2.0766    1.2382 H   0  0  0  0  0  0  0  0  0  0  0  0
   -3.7681   -2.8816   -0.2818 H   0  0  0  0  0  0  0  0  0  0  0  0
   -2.1321   -2.2086    0.9112 C   0  0  0  0  0  0  0  0  0  0  0  0
   -1.2751   -2.8426    1.5112 O   0  0  0  0  0  0  0  0  0  0  0  0
   -1.9041   -1.0186    0.3602 N   0  0  0  0  0  0  0  0  0  0  0  0
   -2.6671   -0.5416   -0.0988 H   0  0  0  0  0  0  0  0  0  0  0  0
   -0.6131   -0.3236    0.3832 C   0  0  1  0  0  0  0  0  0  0  0  0
    0.0142   -0.7800    1.1506 H   0  0  0  0  0  0  0  0  0  0  0  0
    0.0816   -0.5059   -0.9788 C   0  0  0  0  0  0  0  0  0  0  0  0
   -0.2353   -1.4579   -1.4099 H   0  0  0  0  0  0  0  0  0  0  0  0
   -0.2308    0.2939   -1.6519 H   0  0  0  0  0  0  0  0  0  0  0  0
    1.6121   -0.5024   -0.8910 C   0  0  0  0  0  0  0  0  0  0  0  0
    1.9492   -1.4573   -0.4890 H   0  0  0  0  0  0  0  0  0  0  0  0
    2.0203   -0.3808   -1.8950 H   0  0  0  0  0  0  0  0  0  0  0  0
    2.2759    0.8151    0.1594 S   0  0  0  0  0  0  0  0  0  0  0  0
    1.8683    2.2574   -0.8583 C   0  0  0  0  0  0  0  0  0  0  0  0
    0.7889    2.3130   -1.0018 H   0  0  0  0  0  0  0  0  0  0  0  0
    2.2107    3.1626   -0.3559 H   0  0  0  0  0  0  0  0  0  0  0  0
    2.3627    2.1758   -1.8267 H   0  0  0  0  0  0  0  0  0  0  0  0
   -0.8064    1.1568    0.7414 C   0  0  0  0  0  0  0  0  0  0  0  0
   -1.6978    1.8100    0.2029 O   0  0  0  0  0  0  0  0  0  0  0  0
    0.0314    1.6872    1.6415 N   0  0  0  0  0  0  0  0  0  0  0  0
    0.7279    1.0858    2.0517 H   0  0  0  0  0  0  0  0  0  0  0  0
   -0.0137    3.0826    2.0755 C   0  0  0  0  0  0  0  0  0  0  0  0
   -0.9991    3.3070    2.4905 H   0  0  0  0  0  0  0  0  0  0  0  0
    0.7468    3.2694    2.8349 H   0  0  0  0  0  0  0  0  0  0  0  0
    0.1592    3.7397    1.2213 H   0  0  0  0  0  0  0  0  0  0  0  0
  5  6  2  0  0  0  0
  5  7  1  0  0  0  0
  2  3  1  0  0  0  0
  2  4  1  0  0  0  0
  2  5  1  0  0  0  0
  1  2  1  0  0  0  0
 22 23  2  0  0  0  0
 22 24  1  0  0  0  0
 18 19  1  0  0  0  0
 18 20  1  0  0  0  0
 18 21  1  0  0  0  0
 17 18  1  0  0  0  0
 14 15  1  0  0  0  0
 14 16  1  0  0  0  0
 14 17  1  0  0  0  0
 11 12  1  0  0  0  0
 11 13  1  0  0  0  0
 11 14  1  0  0  0  0
  9 10  1  0  0  0  0
  9 11  1  0  0  0  0
  9 22  1  0  0  0  0
  7  8  1  0  0  0  0
  7  9  1  0  0  0  0
 26 27  1  0  0  0  0
 26 28  1  0  0  0  0
 26 29  1  0  0  0  0
 24 25  1  0  0  0  0
 24 26  1  0  0  0  0
M  END
$$$$
default_name
  -OEChem-02102213163D

 29 28  0     1  0  0  0  0  0999 V2000
   -3.5781   -3.7296    1.2702 H   0  0  0  0  0  0  0  0  0  0  0  0
   -3.5311   -2.7616    0.7732 C   0  0  0  0  0  0  0  0  0  0  0  0
   -4.2371   -2.0766    1.2382 H   0  0  0  0  0  0  0  0  0  0  0  0
   -3.7681   -2.8816   -0.2818 H   0  0  0  0  0  0  0  0  0  0  0  0
   -2.1321   -2.2086    0.9112 C   0  0  0  0  0  0  0  0  0  0  0  0
   -1.2751   -2.8426    1.5112 O   0  0  0  0  0  0  0  0  0  0  0  0
   -1.9041   -1.0186    0.3602 N   0  0  0  0  0  0  0  0  0  0  0  0
   -2.6671   -0.5416   -0.0988 H   0  0  0  0  0  0  0  0  0  0  0  0
   -0.6131   -0.3236    0.3832 C   0  0  1  0  0  0  0  0  0  0  0  0
    0.0142   -0.7800    1.1506 H   0  0  0  0  0  0  0  0  0  0  0  0
    0.0816   -0.5059   -0.9788 C   0  0  0  0  0  0  0  0  0  0  0  0
   -0.2353   -1.4579   -1.4099 H   0  0  0  0  0  0  0  0  0  0  0  0
   -0.2308    0.2939   -1.6519 H   0  0  0  0  0  0  0  0  0  0  0  0
    1.6121   -0.5024   -0.8910 C   0  0  0  0  0  0  0  0  0  0  0  0
    1.9643   -1.5236   -0.7490 H   0  0  0  0  0  0  0  0  0  0  0  0
    2.0159   -0.1194   -1.8289 H   0  0  0  0  0  0  0  0  0  0  0  0
    2.2590    0.5087    0.4650 S   0  0  0  0  0  0  0  0  0  0  0  0
    1.8277    2.1588   -0.1459 C   0  0  0  0  0  0  0  0  0  0  0  0
    0.7471    2.2334   -0.2717 H   0  0  0  0  0  0  0  0  0  0  0  0
    2.1580    2.9084    0.5737 H   0  0  0  0  0  0  0  0  0  0  0  0
    2.3207    2.3375   -1.1019 H   0  0  0  0  0  0  0  0  0  0  0  0
   -0.8064    1.1568    0.7414 C   0  0  0  0  0  0  0  0  0  0  0  0
   -1.6978    1.8100    0.2029 O   0  0  0  0  0  0  0  0  0  0  0  0
    0.0314    1.6872    1.6415 N   0  0  0  0  0  0  0  0  0  0  0  0
    0.7279    1.0858    2.0517 H   0  0  0  0  0  0  0  0  0  0  0  0
   -0.0137    3.0826    2.0755 C   0  0  0  0  0  0  0  0  0  0  0  0
   -0.9991    3.3070    2.4905 H   0  0  0  0  0  0  0  0  0  0  0  0
    0.7468    3.2694    2.8349 H   0  0  0  0  0  0  0  0  0  0  0  0
    0.1592    3.7397    1.2213 H   0  0  0  0  0  0  0  0  0  0  0  0
  5  6  2  0  0  0  0
  5  7  1  0  0  0  0
  2  3  1  0  0  0  0
  2  4  1  0  0  0  0
  2  5  1  0  0  0  0
  1  2  1  0  0  0  0
 22 23  2  0  0  0  0
 22 24  1  0  0  0  0
 18 19  1  0  0  0  0
 18 20  1  0  0  0  0
 18 21  1  0  0  0  0
 17 18  1  0  0  0  0
 14 15  1  0  0  0  0
 14 16  1  0  0  0  0
 14 17  1  0  0  0  0
 11 12  1  0  0  0  0
 11 13  1  0  0  0  0
 11 14  1  0  0  0  0
  9 10  1  0  0  0  0
  9 11  1  0  0  0  0
  9 22  1  0  0  0  0
  7  8  1  0  0  0  0
  7  9  1  0  0  0  0
 26 27  1  0  0  0  0
 26 28  1  0  0  0  0
 26 29  1  0  0  0  0
 24 25  1  0  0  0  0
 24 26  1  0  0  0  0
M  END
$$$$
default_name
  -OEChem-02102213163D

 29 28  0     1  0  0  0  0  0999 V2000
   -3.5781   -3.7296    1.2702 H   0  0  0  0  0  0  0  0  0  0  0  0
   -3.5311   -2.7616    0.7732 C   0  0  0  0  0  0  0  0  0  0  0  0
   -4.2371   -2.0766    1.2382 H   0  0  0  0  0  0  0  0  0  0  0  0
   -3.7681   -2.8816   -0.2818 H   0  0  0  0  0  0  0  0  0  0  0  0
   -2.1321   -2.2086    0.9112 C   0  0  0  0  0  0  0  0  0  0  0  0
   -1.2751   -2.8426    1.5112 O   0  0  0  0  0  0  0  0  0  0  0  0
   -1.9041   -1.0186    0.3602 N   0  0  0  0  0  0  0  0  0  0  0  0
   -2.6671   -0.5416   -0.0988 H   0  0  0  0  0  0  0  0  0  0  0  0
   -0.6131   -0.3236    0.3832 C   0  0  1  0  0  0  0  0  0  0  0  0
    0.0142   -0.7800    1.1506 H   0  0  0  0  0  0  0  0  0  0  0  0
    0.0816   -0.5059   -0.9788 C   0  0  0  0  0  0  0  0  0  0  0  0
   -0.2353   -1.4579   -1.4099 H   0  0  0  0  0  0  0  0  0  0  0  0
   -0.2308    0.2939   -1.6519 H   0  0  0  0  0  0  0  0  0  0  0  0
    1.6121   -0.5024   -0.8910 C   0  0  0  0  0  0  0  0  0  0  0  0
    1.9797   -1.5203   -1.0172 H   0  0  0  0  0  0  0  0  0  0  0  0
    2.0078    0.1159   -1.6976 H   0  0  0  0  0  0  0  0  0  0  0  0
    2.2475    0.1336    0.6811 S   0  0  0  0  0  0  0  0  0  0  0  0
    1.7903    1.8788    0.5167 C   0  0  0  0  0  0  0  0  0  0  0  0
    0.7084    1.9672    0.4130 H   0  0  0  0  0  0  0  0  0  0  0  0
    2.1113    2.4218    1.4060 H   0  0  0  0  0  0  0  0  0  0  0  0
    2.2782    2.3058   -0.3599 H   0  0  0  0  0  0  0  0  0  0  0  0
   -0.8064    1.1568    0.7414 C   0  0  0  0  0  0  0  0  0  0  0  0
   -1.6978    1.8100    0.2029 O   0  0  0  0  0  0  0  0  0  0  0  0
    0.0314    1.6872    1.6415 N   0  0  0  0  0  0  0  0  0  0  0  0
    0.7279    1.0858    2.0517 H   0  0  0  0  0  0  0  0  0  0  0  0
   -0.0137    3.0826    2.0755 C   0  0  0  0  0  0  0  0  0  0  0  0
   -0.9991    3.3070    2.4905 H   0  0  0  0  0  0  0  0  0  0  0  0
    0.7468    3.2694    2.8349 H   0  0  0  0  0  0  0  0  0  0  0  0
    0.1592    3.7397    1.2213 H   0  0  0  0  0  0  0  0  0  0  0  0
  5  6  2  0  0  0  0
  5  7  1  0  0  0  0
  2  3  1  0  0  0  0
  2  4  1  0  0  0  0
  2  5  1  0  0  0  0
  1  2  1  0  0  0  0
 22 23  2  0  0  0  0
 22 24  1  0  0  0  0
 18 19  1  0  0  0  0
 18 20  1  0  0  0  0
 18 21  1  0  0  0  0
 17 18  1  0  0  0  0
 14 15  1  0  0  0  0
 14 16  1  0  0  0  0
 14 17  1  0  0  0  0
 11 12  1  0  0  0  0
 11 13  1  0  0  0  0
 11 14  1  0  0  0  0
  9 10  1  0  0  0  0
  9 11  1  0  0  0  0
  9 22  1  0  0  0  0
  7  8  1  0  0  0  0
  7  9  1  0  0  0  0
 26 27  1  0  0  0  0
 26 28  1  0  0  0  0
 26 29  1  0  0  0  0
 24 25  1  0  0  0  0
 24 26  1  0  0  0  0
M  END
$$$$
default_name
  -OEChem-02102213163D

 29 28  0     1  0  0  0  0  0999 V2000
   -3.5781   -3.7296    1.2702 H   0  0  0  0  0  0  0  0  0  0  0  0
   -3.5311   -2.7616    0.7732 C   0  0  0  0  0  0  0  0  0  0  0  0
   -4.2371   -2.0766    1.2382 H   0  0  0  0  0  0  0  0  0  0  0  0
   -3.7681   -2.8816   -0.2818 H   0  0  0  0  0  0  0  0  0  0  0  0
   -2.1321   -2.2086    0.9112 C   0  0  0  0  0  0  0  0  0  0  0  0
   -1.2751   -2.8426    1.5112 O   0  0  0  0  0  0  0  0  0  0  0  0
   -1.9041   -1.0186    0.3602 N   0  0  0  0  0  0  0  0  0  0  0  0
   -2.6671   -0.5416   -0.0988 H   0  0  0  0  0  0  0  0  0  0  0  0
   -0.6131   -0.3236    0.3832 C   0  0  1  0  0  0  0  0  0  0  0  0
    0.0142   -0.7800    1.1506 H   0  0  0  0  0  0  0  0  0  0  0  0
    0.0816   -0.5059   -0.9788 C   0  0  0  0  0  0  0  0  0  0  0  0
   -0.2353   -1.4579   -1.4099 H   0  0  0  0  0  0  0  0  0  0  0  0
   -0.2308    0.2939   -1.6519 H   0  0  0  0  0  0  0  0  0  0  0  0
    1.6121   -0.5024   -0.8910 C   0  0  0  0  0  0  0  0  0  0  0  0
    1.9943   -1.4475   -1.2755 H   0  0  0  0  0  0  0  0  0  0  0  0
    1.9966    0.3091   -1.5099 H   0  0  0  0  0  0  0  0  0  0  0  0
    2.2420   -0.2849    0.7929 S   0  0  0  0  0  0  0  0  0  0  0  0
    1.7587    1.4366    1.0844 C   0  0  0  0  0  0  0  0  0  0  0  0
    0.6754    1.5327    1.0057 H   0  0  0  0  0  0  0  0  0  0  0  0
    2.0739    1.7361    2.0843 H   0  0  0  0  0  0  0  0  0  0  0  0
    2.2380    2.0828    0.3486 H   0  0  0  0  0  0  0  0  0  0  0  0
   -0.8064    1.1568    0.7414 C   0  0  0  0  0  0  0  0  0  0  0  0
   -1.6978    1.8100    0.2029 O   0  0  0  0  0  0  0  0  0  0  0  0
    0.0314    1.6872    1.6415 N   0  0  0  0  0  0  0  0  0  0  0  0
    0.7279    1.0858    2.0517 H   0  0  0  0  0  0  0  0  0  0  0  0
   -0.0137    3.0826    2.0755 C   0  0  0  0  0  0  0  0  0  0  0  0
   -0.9991    3.3070    2.4905 H   0  0  0  0  0  0  0  0  0  0  0  0
    0.7468    3.2694    2.8349 H   0  0  0  0  0  0  0  0  0  0  0  0
    0.1592    3.7397    1.2213 H   0  0  0  0  0  0  0  0  0  0  0  0
  5  6  2  0  0  0  0
  5  7  1  0  0  0  0
  2  3  1  0  0  0  0
  2  4  1  0  0  0  0
  2  5  1  0  0  0  0
  1  2  1  0  0  0  0
 22 23  2  0  0  0  0
 22 24  1  0  0  0  0
 18 19  1  0  0  0  0
 18 20  1  0  0  0  0
 18 21  1  0  0  0  0
 17 18  1  0  0  0  0
 14 15  1  0  0  0  0
 14 16  1  0  0  0  0
 14 17  1  0  0  0  0
 11 12  1  0  0  0  0
 11 13  1  0  0  0  0
 11 14  1  0  0  0  0
  9 10  1  0  0  0  0
  9 11  1  0  0  0  0
  9 22  1  0  0  0  0
  7  8  1  0  0  0  0
  7  9  1  0  0  0  0
 26 27  1  0  0  0  0
 26 28  1  0  0  0  0
 26 29  1  0  0  0  0
 24 25  1  0  0  0  0
 24 26  1  0  0  0  0
M  END
$$$$
default_name
  -OEChem-02102213163D

 29 28  0     1  0  0  0  0  0999 V2000
   -3.5781   -3.7296    1.2702 H   0  0  0  0  0  0  0  0  0  0  0  0
   -3.5311   -2.7616    0.7732 C   0  0  0  0  0  0  0  0  0  0  0  0
   -4.2371   -2.0766    1.2382 H   0  0  0  0  0  0  0  0  0  0  0  0
   -3.7681   -2.8816   -0.2818 H   0  0  0  0  0  0  0  0  0  0  0  0
   -2.1321   -2.2086    0.9112 C   0  0  0  0  0  0  0  0  0  0  0  0
   -1.2751   -2.8426    1.5112 O   0  0  0  0  0  0  0  0  0  0  0  0
   -1.9041   -1.0186    0.3602 N   0  0  0  0  0  0  0  0  0  0  0  0
   -2.6671   -0.5416   -0.0988 H   0  0  0  0  0  0  0  0  0  0  0  0
   -0.6131   -0.3236    0.3832 C   0  0  1  0  0  0  0  0  0  0  0  0
    0.0142   -0.7800    1.1506 H   0  0  0  0  0  0  0  0  0  0  0  0
    0.0816   -0.5059   -0.9788 C   0  0  0  0  0  0  0  0  0  0  0  0
   -0.2353   -1.4579   -1.4099 H   0  0  0  0  0  0  0  0  0  0  0  0
   -0.2308    0.2939   -1.6519 H   0  0  0  0  0  0  0  0  0  0  0  0
    1.6121   -0.5024   -0.8910 C   0  0  0  0  0  0  0  0  0  0  0  0
    2.0072   -1.3102   -1.5061 H   0  0  0  0  0  0  0  0  0  0  0  0
    1.9830    0.4471   -1.2786 H   0  0  0  0  0  0  0  0  0  0  0  0
    2.2430   -0.7180    0.7928 S   0  0  0  0  0  0  0  0  0  0  0  0
    1.7351    0.8622    1.5185 C   0  0  0  0  0  0  0  0  0  0  0  0
    0.6503    0.9593    1.4658 H   0  0  0  0  0  0  0  0  0  0  0  0
    2.0484    0.8979    2.5623 H   0  0  0  0  0  0  0  0  0  0  0  0
    2.2029    1.6838    0.9753 H   0  0  0  0  0  0  0  0  0  0  0  0
   -0.8064    1.1568    0.7414 C   0  0  0  0  0  0  0  0  0  0  0  0
   -1.6978    1.8100    0.2029 O   0  0  0  0  0  0  0  0  0  0  0  0
    0.0314    1.6872    1.6415 N   0  0  0  0  0  0  0  0  0  0  0  0
    0.7279    1.0858    2.0517 H   0  0  0  0  0  0  0  0  0  0  0  0
   -0.0137    3.0826    2.0755 C   0  0  0  0  0  0  0  0  0  0  0  0
   -0.9991    3.3070    2.4905 H   0  0  0  0  0  0  0  0  0  0  0  0
    0.7468    3.2694    2.8349 H   0  0  0  0  0  0  0  0  0  0  0  0
    0.1592    3.7397    1.2213 H   0  0  0  0  0  0  0  0  0  0  0  0
  5  6  2  0  0  0  0
  5  7  1  0  0  0  0
  2  3  1  0  0  0  0
  2  4  1  0  0  0  0
  2  5  1  0  0  0  0
  1  2  1  0  0  0  0
 22 23  2  0  0  0  0
 22 24  1  0  0  0  0
 18 19  1  0  0  0  0
 18 20  1  0  0  0  0
 18 21  1  0  0  0  0
 17 18  1  0  0  0  0
 14 15  1  0  0  0  0
 14 16  1  0  0  0  0
 14 17  1  0  0  0  0
 11 12  1  0  0  0  0
 11 13  1  0  0  0  0
 11 14  1  0  0  0  0
  9 10  1  0  0  0  0
  9 11  1  0  0  0  0
  9 22  1  0  0  0  0
  7  8  1  0  0  0  0
  7  9  1  0  0  0  0
 26 27  1  0  0  0  0
 26 28  1  0  0  0  0
 26 29  1  0  0  0  0
 24 25  1  0  0  0  0
 24 26  1  0  0  0  0
M  END
$$$$
default_name
  -OEChem-02102213163D

 29 28  0     1  0  0  0  0  0999 V2000
   -3.5781   -3.7296    1.2702 H   0  0  0  0  0  0  0  0  0  0  0  0
   -3.5311   -2.7616    0.7732 C   0  0  0  0  0  0  0  0  0  0  0  0
   -4.2371   -2.0766    1.2382 H   0  0  0  0  0  0  0  0  0  0  0  0
   -3.7681   -2.8816   -0.2818 H   0  0  0  0  0  0  0  0  0  0  0  0
   -2.1321   -2.2086    0.9112 C   0  0  0  0  0  0  0  0  0  0  0  0
   -1.2751   -2.8426    1.5112 O   0  0  0  0  0  0  0  0  0  0  0  0
   -1.9041   -1.0186    0.3602 N   0  0  0  0  0  0  0  0  0  0  0  0
   -2.6671   -0.5416   -0.0988 H   0  0  0  0  0  0  0  0  0  0  0  0
   -0.6131   -0.3236    0.3832 C   0  0  1  0  0  0  0  0  0  0  0  0
    0.0142   -0.7800    1.1506 H   0  0  0  0  0  0  0  0  0  0  0  0
    0.0816   -0.5059   -0.9788 C   0  0  0  0  0  0  0  0  0  0  0  0
   -0.2353   -1.4579   -1.4099 H   0  0  0  0  0  0  0  0  0  0  0  0
   -0.2308    0.2939   -1.6519 H   0  0  0  0  0  0  0  0  0  0  0  0
    1.6121   -0.5024   -0.8910 C   0  0  0  0  0  0  0  0  0  0  0  0
    2.0176   -1.1179   -1.6934 H   0  0  0  0  0  0  0  0  0  0  0  0
    1.9680    0.5205   -1.0196 H   0  0  0  0  0  0  0  0  0  0  0  0
    2.2504   -1.1363    0.6808 S   0  0  0  0  0  0  0  0  0  0  0  0
    1.7211    0.1950    1.7895 C   0  0  0  0  0  0  0  0  0  0  0  0
    0.6348    0.2862    1.7622 H   0  0  0  0  0  0  0  0  0  0  0  0
    2.0365   -0.0356    2.8074 H   0  0  0  0  0  0  0  0  0  0  0  0
    2.1754    1.1359    1.4777 H   0  0  0  0  0  0  0  0  0  0  0  0
   -0.8064    1.1568    0.7414 C   0  0  0  0  0  0  0  0  0  0  0  0
   -1.6978    1.8100    0.2029 O   0  0  0  0  0  0  0  0  0  0  0  0
    0.0314    1.6872    1.6415 N   0  0  0  0  0  0  0  0  0  0  0  0
    0.7279    1.0858    2.0517 H   0  0  0  0  0  0  0  0  0  0  0  0
   -0.0137    3.0826    2.0755 C   0  0  0  0  0  0  0  0  0  0  0  0
   -0.9991    3.3070    2.4905 H   0  0  0  0  0  0  0  0  0  0  0  0
    0.7468    3.2694    2.8349 H   0  0  0  0  0  0  0  0  0  0  0  0
    0.1592    3.7397    1.2213 H   0  0  0  0  0  0  0  0  0  0  0  0
  5  6  2  0  0  0  0
  5  7  1  0  0  0  0
  2  3  1  0  0  0  0
  2  4  1  0  0  0  0
  2  5  1  0  0  0  0
  1  2  1  0  0  0  0
 22 23  2  0  0  0  0
 22 24  1  0  0  0  0
 18 19  1  0  0  0  0
 18 20  1  0  0  0  0
 18 21  1  0  0  0  0
 17 18  1  0  0  0  0
 14 15  1  0  0  0  0
 14 16  1  0  0  0  0
 14 17  1  0  0  0  0
 11 12  1  0  0  0  0
 11 13  1  0  0  0  0
 11 14  1  0  0  0  0
  9 10  1  0  0  0  0
  9 11  1  0  0  0  0
  9 22  1  0  0  0  0
  7  8  1  0  0  0  0
  7  9  1  0  0  0  0
 26 27  1  0  0  0  0
 26 28  1  0  0  0  0
 26 29  1  0  0  0  0
 24 25  1  0  0  0  0
 24 26  1  0  0  0  0
M  END
$$$$
default_name
  -OEChem-02102213163D

 29 28  0     1  0  0  0  0  0999 V2000
   -3.5781   -3.7296    1.2702 H   0  0  0  0  0  0  0  0  0  0  0  0
   -3.5311   -2.7616    0.7732 C   0  0  0  0  0  0  0  0  0  0  0  0
   -4.2371   -2.0766    1.2382 H   0  0  0  0  0  0  0  0  0  0  0  0
   -3.7681   -2.8816   -0.2818 H   0  0  0  0  0  0  0  0  0  0  0  0
   -2.1321   -2.2086    0.9112 C   0  0  0  0  0  0  0  0  0  0  0  0
   -1.2751   -2.8426    1.5112 O   0  0  0  0  0  0  0  0  0  0  0  0
   -1.9041   -1.0186    0.3602 N   0  0  0  0  0  0  0  0  0  0  0  0
   -2.6671   -0.5416   -0.0988 H   0  0  0  0  0  0  0  0  0  0  0  0
   -0.6131   -0.3236    0.3832 C   0  0  1  0  0  0  0  0  0  0  0  0
    0.0142   -0.7800    1.1506 H   0  0  0  0  0  0  0  0  0  0  0  0
    0.0816   -0.5059   -0.9788 C   0  0  0  0  0  0  0  0  0  0  0  0
   -0.2353   -1.4579   -1.4099 H   0  0  0  0  0  0  0  0  0  0  0  0
   -0.2308    0.2939   -1.6519 H   0  0  0  0  0  0  0  0  0  0  0  0
    1.6121   -0.5024   -0.8910 C   0  0  0  0  0  0  0  0  0  0  0  0
    2.0246   -0.8835   -1.8247 H   0  0  0  0  0  0  0  0  0  0  0  0
    1.9525    0.5242   -0.7505 H   0  0  0  0  0  0  0  0  0  0  0  0
    2.2637   -1.5113    0.4644 S   0  0  0  0  0  0  0  0  0  0  0  0
    1.7176   -0.5198    1.8788 C   0  0  0  0  0  0  0  0  0  0  0  0
    0.6300   -0.4408    1.8745 H   0  0  0  0  0  0  0  0  0  0  0  0
    2.0389   -1.0008    2.8030 H   0  0  0  0  0  0  0  0  0  0  0  0
    2.1571    0.4764    1.8213 H   0  0  0  0  0  0  0  0  0  0  0  0
   -0.8064    1.1568    0.7414 C   0  0  0  0  0  0  0  0  0  0  0  0
   -1.6978    1.8100    0.2029 O   0  0  0  0  0  0  0  0  0  0  0  0
    0.0314    1.6872    1.6415 N   0  0  0  0  0  0  0  0  0  0  0  0
    0.7279    1.0858    2.0517 H   0  0  0  0  0  0  0  0  0  0  0  0
   -0.0137    3.0826    2.0755 C   0  0  0  0  0  0  0  0  0  0  0  0
   -0.9991    3.3070    2.4905 H   0  0  0  0  0  0  0  0  0  0  0  0
    0.7468    3.2694    2.8349 H   0  0  0  0  0  0  0  0  0  0  0  0
    0.1592    3.7397    1.2213 H   0  0  0  0  0  0  0  0  0  0  0  0
  5  6  2  0  0  0  0
  5  7  1  0  0  0  0
  2  3  1  0  0  0  0
  2  4  1  0  0  0  0
  2  5  1  0  0  0  0
  1  2  1  0  0  0  0
 22 23  2  0  0  0  0
 22 24  1  0  0  0  0
 18 19  1  0  0  0  0
 18 20  1  0  0  0  0
 18 21  1  0  0  0  0
 17 18  1  0  0  0  0
 14 15  1  0  0  0  0
 14 16  1  0  0  0  0
 14 17  1  0  0  0  0
 11 12  1  0  0  0  0
 11 13  1  0  0  0  0
 11 14  1  0  0  0  0
  9 10  1  0  0  0  0
  9 11  1  0  0  0  0
  9 22  1  0  0  0  0
  7  8  1  0  0  0  0
  7  9  1  0  0  0  0
 26 27  1  0  0  0  0
 26 28  1  0  0  0  0
 26 29  1  0  0  0  0
 24 25  1  0  0  0  0
 24 26  1  0  0  0  0
M  END
$$$$
default_name
  -OEChem-02102213163D

 29 28  0     1  0  0  0  0  0999 V2000
   -3.5781   -3.7296    1.2702 H   0  0  0  0  0  0  0  0  0  0  0  0
   -3.5311   -2.7616    0.7732 C   0  0  0  0  0  0  0  0  0  0  0  0
   -4.2371   -2.0766    1.2382 H   0  0  0  0  0  0  0  0  0  0  0  0
   -3.7681   -2.8816   -0.2818 H   0  0  0  0  0  0  0  0  0  0  0  0
   -2.1321   -2.2086    0.9112 C   0  0  0  0  0  0  0  0  0  0  0  0
   -1.2751   -2.8426    1.5112 O   0  0  0  0  0  0  0  0  0  0  0  0
   -1.9041   -1.0186    0.3602 N   0  0  0  0  0  0  0  0  0  0  0  0
   -2.6671   -0.5416   -0.0988 H   0  0  0  0  0  0  0  0  0  0  0  0
   -0.6131   -0.3236    0.3832 C   0  0  1  0  0  0  0  0  0  0  0  0
    0.0142   -0.7800    1.1506 H   0  0  0  0  0  0  0  0  0  0  0  0
    0.0816   -0.5059   -0.9788 C   0  0  0  0  0  0  0  0  0  0  0  0
   -0.2353   -1.4579   -1.4099 H   0  0  0  0  0  0  0  0  0  0  0  0
   -0.2308    0.2939   -1.6519 H   0  0  0  0  0  0  0  0  0  0  0  0
    1.6121   -0.5024   -0.8910 C   0  0  0  0  0  0  0  0  0  0  0  0
    2.0278   -0.6231   -1.8909 H   0  0  0  0  0  0  0  0  0  0  0  0
    1.9377    0.4579   -0.4895 H   0  0  0  0  0  0  0  0  0  0  0  0
    2.2819   -1.8174    0.1586 S   0  0  0  0  0  0  0  0  0  0  0  0
    1.7248   -1.2333    1.7804 C   0  0  0  0  0  0  0  0  0  0  0  0
    0.6363   -1.1721    1.7951 H   0  0  0  0  0  0  0  0  0  0  0  0
    2.0556   -1.9319    2.5494 H   0  0  0  0  0  0  0  0  0  0  0  0
    2.1495   -0.2497    1.9828 H   0  0  0  0  0  0  0  0  0  0  0  0
   -0.8064    1.1568    0.7414 C   0  0  0  0  0  0  0  0  0  0  0  0
   -1.6978    1.8100    0.2029 O   0  0  0  0  0  0  0  0  0  0  0  0
    0.0314    1.6872    1.6415 N   0  0  0  0  0  0  0  0  0  0  0  0
    0.7279    1.0858    2.0517 H   0  0  0  0  0  0  0  0  0  0  0  0
   -0.0137    3.0826    2.0755 C   0  0  0  0  0  0  0  0  0  0  0  0
   -0.9991    3.3070    2.4905 H   0  0  0  0  0  0  0  0  0  0  0  0
    0.7468    3.2694    2.8349 H   0  0  0  0  0  0  0  0  0  0  0  0
    0.1592    3.7397    1.2213 H   0  0  0  0  0  0  0  0  0  0  0  0
  5  6  2  0  0  0  0
  5  7  1  0  0  0  0
  2  3  1  0  0  0  0
  2  4  1  0  0  0  0
  2  5  1  0  0  0  0
  1  2  1  0  0  0  0
 22 23  2  0  0  0  0
 22 24  1  0  0  0  0
 18 19  1  0  0  0  0
 18 20  1  0  0  0  0
 18 21  1  0  0  0  0
 17 18  1  0  0  0  0
 14 15  1  0  0  0  0
 14 16  1  0  0  0  0
 14 17  1  0  0  0  0
 11 12  1  0  0  0  0
 11 13  1  0  0  0  0
 11 14  1  0  0  0  0
  9 10  1  0  0  0  0
  9 11  1  0  0  0  0
  9 22  1  0  0  0  0
  7  8  1  0  0  0  0
  7  9  1  0  0  0  0
 26 27  1  0  0  0  0
 26 28  1  0  0  0  0
 26 29  1  0  0  0  0
 24 25  1  0  0  0  0
 24 26  1  0  0  0  0
M  END
$$$$
default_name
  -OEChem-02102213163D

 29 28  0     1  0  0  0  0  0999 V2000
   -3.5781   -3.7296    1.2702 H   0  0  0  0  0  0  0  0  0  0  0  0
   -3.5311   -2.7616    0.7732 C   0  0  0  0  0  0  0  0  0  0  0  0
   -4.2371   -2.0766    1.2382 H   0  0  0  0  0  0  0  0  0  0  0  0
   -3.7681   -2.8816   -0.2818 H   0  0  0  0  0  0  0  0  0  0  0  0
   -2.1321   -2.2086    0.9112 C   0  0  0  0  0  0  0  0  0  0  0  0
   -1.2751   -2.8426    1.5112 O   0  0  0  0  0  0  0  0  0  0  0  0
   -1.9041   -1.0186    0.3602 N   0  0  0  0  0  0  0  0  0  0  0  0
   -2.6671   -0.5416   -0.0988 H   0  0  0  0  0  0  0  0  0  0  0  0
   -0.6131   -0.3236    0.3832 C   0  0  1  0  0  0  0  0  0  0  0  0
    0.0142   -0.7800    1.1506 H   0  0  0  0  0  0  0  0  0  0  0  0
    0.0816   -0.5059   -0.9788 C   0  0  0  0  0  0  0  0  0  0  0  0
   -0.2353   -1.4579   -1.4099 H   0  0  0  0  0  0  0  0  0  0  0  0
   -0.2308    0.2939   -1.6519 H   0  0  0  0  0  0  0  0  0  0  0  0
    1.6121   -0.5024   -0.8910 C   0  0  0  0  0  0  0  0  0  0  0  0
    2.0270   -0.3545   -1.8876 H   0  0  0  0  0  0  0  0  0  0  0  0
    1.9245    0.3263   -0.2546 H   0  0  0  0  0  0  0  0  0  0  0  0
    2.3039   -2.0338   -0.2160 S   0  0  0  0  0  0  0  0  0  0  0  0
    1.7424   -1.8970    1.5009 C   0  0  0  0  0  0  0  0  0  0  0  0
    0.6531   -1.8579    1.5295 H   0  0  0  0  0  0  0  0  0  0  0  0
    2.0853   -2.7656    2.0637 H   0  0  0  0  0  0  0  0  0  0  0  0
    2.1530   -0.9928    1.9513 H   0  0  0  0  0  0  0  0  0  0  0  0
   -0.8064    1.1568    0.7414 C   0  0  0  0  0  0  0  0  0  0  0  0
   -1.6978    1.8100    0.2029 O   0  0  0  0  0  0  0  0  0  0  0  0
    0.0314    1.6872    1.6415 N   0  0  0  0  0  0  0  0  0  0  0  0
    0.7279    1.0858    2.0517 H   0  0  0  0  0  0  0  0  0  0  0  0
   -0.0137    3.0826    2.0755 C   0  0  0  0  0  0  0  0  0  0  0  0
   -0.9991    3.3070    2.4905 H   0  0  0  0  0  0  0  0  0  0  0  0
    0.7468    3.2694    2.8349 H   0  0  0  0  0  0  0  0  0  0  0  0
    0.1592    3.7397    1.2213 H   0  0  0  0  0  0  0  0  0  0  0  0
  5  6  2  0  0  0  0
  5  7  1  0  0  0  0
  2  3  1  0  0  0  0
  2  4  1  0  0  0  0
  2  5  1  0  0  0  0
  1  2  1  0  0  0  0
 22 23  2  0  0  0  0
 22 24  1  0  0  0  0
 18 19  1  0  0  0  0
 18 20  1  0  0  0  0
 18 21  1  0  0  0  0
 17 18  1  0  0  0  0
 14 15  1  0  0  0  0
 14 16  1  0  0  0  0
 14 17  1  0  0  0  0
 11 12  1  0  0  0  0
 11 13  1  0  0  0  0
 11 14  1  0  0  0  0
  9 10  1  0  0  0  0
  9 11  1  0  0  0  0
  9 22  1  0  0  0  0
  7  8  1  0  0  0  0
  7  9  1  0  0  0  0
 26 27  1  0  0  0  0
 26 28  1  0  0  0  0
 26 29  1  0  0  0  0
 24 25  1  0  0  0  0
 24 26  1  0  0  0  0
M  END
$$$$
default_name
  -OEChem-02102213163D

 29 28  0     1  0  0  0  0  0999 V2000
   -3.5781   -3.7296    1.2702 H   0  0  0  0  0  0  0  0  0  0  0  0
   -3.5311   -2.7616    0.7732 C   0  0  0  0  0  0  0  0  0  0  0  0
   -4.2371   -2.0766    1.2382 H   0  0  0  0  0  0  0  0  0  0  0  0
   -3.7681   -2.8816   -0.2818 H   0  0  0  0  0  0  0  0  0  0  0  0
   -2.1321   -2.2086    0.9112 C   0  0  0  0  0  0  0  0  0  0  0  0
   -1.2751   -2.8426    1.5112 O   0  0  0  0  0  0  0  0  0  0  0  0
   -1.9041   -1.0186    0.3602 N   0  0  0  0  0  0  0  0  0  0  0  0
   -2.6671   -0.5416   -0.0988 H   0  0  0  0  0  0  0  0  0  0  0  0
   -0.6131   -0.3236    0.3832 C   0  0  1  0  0  0  0  0  0  0  0  0
    0.0142   -0.7800    1.1506 H   0  0  0  0  0  0  0  0  0  0  0  0
    0.0816   -0.5059   -0.9788 C   0  0  0  0  0  0  0  0  0  0  0  0
   -0.2353   -1.4579   -1.4099 H   0  0  0  0  0  0  0  0  0  0  0  0
   -0.2308    0.2939   -1.6519 H   0  0  0  0  0  0  0  0  0  0  0  0
    1.6121   -0.5024   -0.8910 C   0  0  0  0  0  0  0  0  0  0  0  0
    2.0222   -0.0958   -1.8149 H   0  0  0  0  0  0  0  0  0  0  0  0
    1.9139    0.1383   -0.0616 H   0  0  0  0  0  0  0  0  0  0  0  0
    2.3281   -2.1458   -0.6337 S   0  0  0  0  0  0  0  0  0  0  0  0
    1.7690   -2.4655    1.0595 C   0  0  0  0  0  0  0  0  0  0  0  0
    0.6793   -2.4514    1.0957 H   0  0  0  0  0  0  0  0  0  0  0  0
    2.1262   -3.4449    1.3792 H   0  0  0  0  0  0  0  0  0  0  0  0
    2.1674   -1.7025    1.7287 H   0  0  0  0  0  0  0  0  0  0  0  0
   -0.8064    1.1568    0.7414 C   0  0  0  0  0  0  0  0  0  0  0  0
   -1.6978    1.8100    0.2029 O   0  0  0  0  0  0  0  0  0  0  0  0
    0.0314    1.6872    1.6415 N   0  0  0  0  0  0  0  0  0  0  0  0
    0.7279    1.0858    2.0517 H   0  0  0  0  0  0  0  0  0  0  0  0
   -0.0137    3.0826    2.0755 C   0  0  0  0  0  0  0  0  0  0  0  0
   -0.9991    3.3070    2.4905 H   0  0  0  0  0  0  0  0  0  0  0  0
    0.7468    3.2694    2.8349 H   0  0  0  0  0  0  0  0  0  0  0  0
    0.1592    3.7397    1.2213 H   0  0  0  0  0  0  0  0  0  0  0  0
  5  6  2  0  0  0  0
  5  7  1  0  0  0  0
  2  3  1  0  0  0  0
  2  4  1  0  0  0  0
  2  5  1  0  0  0  0
  1  2  1  0  0  0  0
 22 23  2  0  0  0  0
 22 24  1  0  0  0  0
 18 19  1  0  0  0  0
 18 20  1  0  0  0  0
 18 21  1  0  0  0  0
 17 18  1  0  0  0  0
 14 15  1  0  0  0  0
 14 16  1  0  0  0  0
 14 17  1  0  0  0  0
 11 12  1  0  0  0  0
 11 13  1  0  0  0  0
 11 14  1  0  0  0  0
  9 10  1  0  0  0  0
  9 11  1  0  0  0  0
  9 22  1  0  0  0  0
  7  8  1  0  0  0  0
  7  9  1  0  0  0  0
 26 27  1  0  0  0  0
 26 28  1  0  0  0  0
 26 29  1  0  0  0  0
 24 25  1  0  0  0  0
 24 26  1  0  0  0  0
M  END
$$$$
default_name
  -OEChem-02102213163D

 29 28  0     1  0  0  0  0  0999 V2000
   -3.5781   -3.7296    1.2702 H   0  0  0  0  0  0  0  0  0  0  0  0
   -3.5311   -2.7616    0.7732 C   0  0  0  0  0  0  0  0  0  0  0  0
   -4.2371   -2.0766    1.2382 H   0  0  0  0  0  0  0  0  0  0  0  0
   -3.7681   -2.8816   -0.2818 H   0  0  0  0  0  0  0  0  0  0  0  0
   -2.1321   -2.2086    0.9112 C   0  0  0  0  0  0  0  0  0  0  0  0
   -1.2751   -2.8426    1.5112 O   0  0  0  0  0  0  0  0  0  0  0  0
   -1.9041   -1.0186    0.3602 N   0  0  0  0  0  0  0  0  0  0  0  0
   -2.6671   -0.5416   -0.0988 H   0  0  0  0  0  0  0  0  0  0  0  0
   -0.6131   -0.3236    0.3832 C   0  0  1  0  0  0  0  0  0  0  0  0
    0.0142   -0.7800    1.1506 H   0  0  0  0  0  0  0  0  0  0  0  0
    0.0816   -0.5059   -0.9788 C   0  0  0  0  0  0  0  0  0  0  0  0
   -0.2353   -1.4579   -1.4099 H   0  0  0  0  0  0  0  0  0  0  0  0
   -0.2308    0.2939   -1.6519 H   0  0  0  0  0  0  0  0  0  0  0  0
    1.6121   -0.5024   -0.8910 C   0  0  0  0  0  0  0  0  0  0  0  0
    2.0138    0.1352   -1.6780 H   0  0  0  0  0  0  0  0  0  0  0  0
    1.9065   -0.0933    0.0762 H   0  0  0  0  0  0  0  0  0  0  0  0
    2.3529   -2.1456   -1.0661 S   0  0  0  0  0  0  0  0  0  0  0  0
    1.8029   -2.9003    0.4862 C   0  0  0  0  0  0  0  0  0  0  0  0
    0.7132   -2.9123    0.5233 H   0  0  0  0  0  0  0  0  0  0  0  0
    2.1753   -3.9235    0.5425 H   0  0  0  0  0  0  0  0  0  0  0  0
    2.1917   -2.3302    1.3304 H   0  0  0  0  0  0  0  0  0  0  0  0
   -0.8064    1.1568    0.7414 C   0  0  0  0  0  0  0  0  0  0  0  0
   -1.6978    1.8100    0.2029 O   0  0  0  0  0  0  0  0  0  0  0  0
    0.0314    1.6872    1.6415 N   0  0  0  0  0  0  0  0  0  0  0  0
    0.7279    1.0858    2.0517 H   0  0  0  0  0  0  0  0  0  0  0  0
   -0.0137    3.0826    2.0755 C   0  0  0  0  0  0  0  0  0  0  0  0
   -0.9991    3.3070    2.4905 H   0  0  0  0  0  0  0  0  0  0  0  0
    0.7468    3.2694    2.8349 H   0  0  0  0  0  0  0  0  0  0  0  0
    0.1592    3.7397    1.2213 H   0  0  0  0  0  0  0  0  0  0  0  0
  5  6  2  0  0  0  0
  5  7  1  0  0  0  0
  2  3  1  0  0  0  0
  2  4  1  0  0  0  0
  2  5  1  0  0  0  0
  1  2  1  0  0  0  0
 22 23  2  0  0  0  0
 22 24  1  0  0  0  0
 18 19  1  0  0  0  0
 18 20  1  0  0  0  0
 18 21  1  0  0  0  0
 17 18  1  0  0  0  0
 14 15  1  0  0  0  0
 14 16  1  0  0  0  0
 14 17  1  0  0  0  0
 11 12  1  0  0  0  0
 11 13  1  0  0  0  0
 11 14  1  0  0  0  0
  9 10  1  0  0  0  0
  9 11  1  0  0  0  0
  9 22  1  0  0  0  0
  7  8  1  0  0  0  0
  7  9  1  0  0  0  0
 26 27  1  0  0  0  0
 26 28  1  0  0  0  0
 26 29  1  0  0  0  0
 24 25  1  0  0  0  0
 24 26  1  0  0  0  0
M  END
$$$$
default_name
  -OEChem-02102213163D

 29 28  0     1  0  0  0  0  0999 V2000
   -3.5781   -3.7296    1.2702 H   0  0  0  0  0  0  0  0  0  0  0  0
   -3.5311   -2.7616    0.7732 C   0  0  0  0  0  0  0  0  0  0  0  0
   -4.2371   -2.0766    1.2382 H   0  0  0  0  0  0  0  0  0  0  0  0
   -3.7681   -2.8816   -0.2818 H   0  0  0  0  0  0  0  0  0  0  0  0
   -2.1321   -2.2086    0.9112 C   0  0  0  0  0  0  0  0  0  0  0  0
   -1.2751   -2.8426    1.5112 O   0  0  0  0  0  0  0  0  0  0  0  0
   -1.9041   -1.0186    0.3602 N   0  0  0  0  0  0  0  0  0  0  0  0
   -2.6671   -0.5416   -0.0988 H   0  0  0  0  0  0  0  0  0  0  0  0
   -0.6131   -0.3236    0.3832 C   0  0  1  0  0  0  0  0  0  0  0  0
    0.0142   -0.7800    1.1506 H   0  0  0  0  0  0  0  0  0  0  0  0
    0.0816   -0.5059   -0.9788 C   0  0  0  0  0  0  0  0  0  0  0  0
   -0.2353   -1.4579   -1.4099 H   0  0  0  0  0  0  0  0  0  0  0  0
   -0.2308    0.2939   -1.6519 H   0  0  0  0  0  0  0  0  0  0  0  0
    1.6121   -0.5024   -0.8910 C   0  0  0  0  0  0  0  0  0  0  0  0
    2.0024    0.3228   -1.4859 H   0  0  0  0  0  0  0  0  0  0  0  0
    1.9029   -0.3528    0.1494 H   0  0  0  0  0  0  0  0  0  0  0  0
    2.3767   -2.0333   -1.4837 S   0  0  0  0  0  0  0  0  0  0  0  0
    1.8418   -3.1716   -0.1799 C   0  0  0  0  0  0  0  0  0  0  0  0
    0.7525   -3.2090   -0.1486 H   0  0  0  0  0  0  0  0  0  0  0  0
    2.2293   -4.1690   -0.3895 H   0  0  0  0  0  0  0  0  0  0  0  0
    2.2242   -2.8333    0.7835 H   0  0  0  0  0  0  0  0  0  0  0  0
   -0.8064    1.1568    0.7414 C   0  0  0  0  0  0  0  0  0  0  0  0
   -1.6978    1.8100    0.2029 O   0  0  0  0  0  0  0  0  0  0  0  0
    0.0314    1.6872    1.6415 N   0  0  0  0  0  0  0  0  0  0  0  0
    0.7279    1.0858    2.0517 H   0  0  0  0  0  0  0  0  0  0  0  0
   -0.0137    3.0826    2.0755 C   0  0  0  0  0  0  0  0  0  0  0  0
   -0.9991    3.3070    2.4905 H   0  0  0  0  0  0  0  0  0  0  0  0
    0.7468    3.2694    2.8349 H   0  0  0  0  0  0  0  0  0  0  0  0
    0.1592    3.7397    1.2213 H   0  0  0  0  0  0  0  0  0  0  0  0
  5  6  2  0  0  0  0
  5  7  1  0  0  0  0
  2  3  1  0  0  0  0
  2  4  1  0  0  0  0
  2  5  1  0  0  0  0
  1  2  1  0  0  0  0
 22 23  2  0  0  0  0
 22 24  1  0  0  0  0
 18 19  1  0  0  0  0
 18 20  1  0  0  0  0
 18 21  1  0  0  0  0
 17 18  1  0  0  0  0
 14 15  1  0  0  0  0
 14 16  1  0  0  0  0
 14 17  1  0  0  0  0
 11 12  1  0  0  0  0
 11 13  1  0  0  0  0
 11 14  1  0  0  0  0
  9 10  1  0  0  0  0
  9 11  1  0  0  0  0
  9 22  1  0  0  0  0
  7  8  1  0  0  0  0
  7  9  1  0  0  0  0
 26 27  1  0  0  0  0
 26 28  1  0  0  0  0
 26 29  1  0  0  0  0
 24 25  1  0  0  0  0
 24 26  1  0  0  0  0
M  END
$$$$
default_name
  -OEChem-02102213163D

 29 28  0     1  0  0  0  0  0999 V2000
   -3.5781   -3.7296    1.2702 H   0  0  0  0  0  0  0  0  0  0  0  0
   -3.5311   -2.7616    0.7732 C   0  0  0  0  0  0  0  0  0  0  0  0
   -4.2371   -2.0766    1.2382 H   0  0  0  0  0  0  0  0  0  0  0  0
   -3.7681   -2.8816   -0.2818 H   0  0  0  0  0  0  0  0  0  0  0  0
   -2.1321   -2.2086    0.9112 C   0  0  0  0  0  0  0  0  0  0  0  0
   -1.2751   -2.8426    1.5112 O   0  0  0  0  0  0  0  0  0  0  0  0
   -1.9041   -1.0186    0.3602 N   0  0  0  0  0  0  0  0  0  0  0  0
   -2.6671   -0.5416   -0.0988 H   0  0  0  0  0  0  0  0  0  0  0  0
   -0.6131   -0.3236    0.3832 C   0  0  1  0  0  0  0  0  0  0  0  0
    0.0142   -0.7800    1.1506 H   0  0  0  0  0  0  0  0  0  0  0  0
    0.0816   -0.5059   -0.9788 C   0  0  0  0  0  0  0  0  0  0  0  0
   -0.2353   -1.4579   -1.4099 H   0  0  0  0  0  0  0  0  0  0  0  0
   -0.2308    0.2939   -1.6519 H   0  0  0  0  0  0  0  0  0  0  0  0
    1.6121   -0.5024   -0.8910 C   0  0  0  0  0  0  0  0  0  0  0  0
    1.9886    0.4542   -1.2520 H   0  0  0  0  0  0  0  0  0  0  0  0
    1.9033   -0.6224    0.1531 H   0  0  0  0  0  0  0  0  0  0  0  0
    2.3977   -1.8166   -1.8582 S   0  0  0  0  0  0  0  0  0  0  0  0
    1.8829   -3.2610   -0.8935 C   0  0  0  0  0  0  0  0  0  0  0  0
    0.7944   -3.3214   -0.8744 H   0  0  0  0  0  0  0  0  0  0  0  0
    2.2846   -4.1644   -1.3531 H   0  0  0  0  0  0  0  0  0  0  0  0
    2.2628   -3.1774    0.1251 H   0  0  0  0  0  0  0  0  0  0  0  0
   -0.8064    1.1568    0.7414 C   0  0  0  0  0  0  0  0  0  0  0  0
   -1.6978    1.8100    0.2029 O   0  0  0  0  0  0  0  0  0  0  0  0
    0.0314    1.6872    1.6415 N   0  0  0  0  0  0  0  0  0  0  0  0
    0.7279    1.0858    2.0517 H   0  0  0  0  0  0  0  0  0  0  0  0
   -0.0137    3.0826    2.0755 C   0  0  0  0  0  0  0  0  0  0  0  0
   -0.9991    3.3070    2.4905 H   0  0  0  0  0  0  0  0  0  0  0  0
    0.7468    3.2694    2.8349 H   0  0  0  0  0  0  0  0  0  0  0  0
    0.1592    3.7397    1.2213 H   0  0  0  0  0  0  0  0  0  0  0  0
  5  6  2  0  0  0  0
  5  7  1  0  0  0  0
  2  3  1  0  0  0  0
  2  4  1  0  0  0  0
  2  5  1  0  0  0  0
  1  2  1  0  0  0  0
 22 23  2  0  0  0  0
 22 24  1  0  0  0  0
 18 19  1  0  0  0  0
 18 20  1  0  0  0  0
 18 21  1  0  0  0  0
 17 18  1  0  0  0  0
 14 15  1  0  0  0  0
 14 16  1  0  0  0  0
 14 17  1  0  0  0  0
 11 12  1  0  0  0  0
 11 13  1  0  0  0  0
 11 14  1  0  0  0  0
  9 10  1  0  0  0  0
  9 11  1  0  0  0  0
  9 22  1  0  0  0  0
  7  8  1  0  0  0  0
  7  9  1  0  0  0  0
 26 27  1  0  0  0  0
 26 28  1  0  0  0  0
 26 29  1  0  0  0  0
 24 25  1  0  0  0  0
 24 26  1  0  0  0  0
M  END
$$$$
default_name
  -OEChem-02102213163D

 29 28  0     1  0  0  0  0  0999 V2000
   -3.5781   -3.7296    1.2702 H   0  0  0  0  0  0  0  0  0  0  0  0
   -3.5311   -2.7616    0.7732 C   0  0  0  0  0  0  0  0  0  0  0  0
   -4.2371   -2.0766    1.2382 H   0  0  0  0  0  0  0  0  0  0  0  0
   -3.7681   -2.8816   -0.2818 H   0  0  0  0  0  0  0  0  0  0  0  0
   -2.1321   -2.2086    0.9112 C   0  0  0  0  0  0  0  0  0  0  0  0
   -1.2751   -2.8426    1.5112 O   0  0  0  0  0  0  0  0  0  0  0  0
   -1.9041   -1.0186    0.3602 N   0  0  0  0  0  0  0  0  0  0  0  0
   -2.6671   -0.5416   -0.0988 H   0  0  0  0  0  0  0  0  0  0  0  0
   -0.6131   -0.3236    0.3832 C   0  0  1  0  0  0  0  0  0  0  0  0
    0.0142   -0.7800    1.1506 H   0  0  0  0  0  0  0  0  0  0  0  0
    0.0816   -0.5059   -0.9788 C   0  0  0  0  0  0  0  0  0  0  0  0
   -0.2353   -1.4579   -1.4099 H   0  0  0  0  0  0  0  0  0  0  0  0
   -0.2308    0.2939   -1.6519 H   0  0  0  0  0  0  0  0  0  0  0  0
    1.6121   -0.5024   -0.8910 C   0  0  0  0  0  0  0  0  0  0  0  0
    1.9736    0.5205   -0.9920 H   0  0  0  0  0  0  0  0  0  0  0  0
    1.9077   -0.8837    0.0871 H   0  0  0  0  0  0  0  0  0  0  0  0
    2.4145   -1.5102   -2.1638 S   0  0  0  0  0  0  0  0  0  0  0  0
    1.9236   -3.1623   -1.6058 C   0  0  0  0  0  0  0  0  0  0  0  0
    0.8361   -3.2419   -1.6045 H   0  0  0  0  0  0  0  0  0  0  0  0
    2.3374   -3.9102   -2.2827 H   0  0  0  0  0  0  0  0  0  0  0  0
    2.3048   -3.3391   -0.5997 H   0  0  0  0  0  0  0  0  0  0  0  0
   -0.8064    1.1568    0.7414 C   0  0  0  0  0  0  0  0  0  0  0  0
   -1.6978    1.8100    0.2029 O   0  0  0  0  0  0  0  0  0  0  0  0
    0.0314    1.6872    1.6415 N   0  0  0  0  0  0  0  0  0  0  0  0
    0.7279    1.0858    2.0517 H   0  0  0  0  0  0  0  0  0  0  0  0
   -0.0137    3.0826    2.0755 C   0  0  0  0  0  0  0  0  0  0  0  0
   -0.9991    3.3070    2.4905 H   0  0  0  0  0  0  0  0  0  0  0  0
    0.7468    3.2694    2.8349 H   0  0  0  0  0  0  0  0  0  0  0  0
    0.1592    3.7397    1.2213 H   0  0  0  0  0  0  0  0  0  0  0  0
  5  6  2  0  0  0  0
  5  7  1  0  0  0  0
  2  3  1  0  0  0  0
  2  4  1  0  0  0  0
  2  5  1  0  0  0  0
  1  2  1  0  0  0  0
 22 23  2  0  0  0  0
 22 24  1  0  0  0  0
 18 19  1  0  0  0  0
 18 20  1  0  0  0  0
 18 21  1  0  0  0  0
 17 18  1  0  0  0  0
 14 15  1  0  0  0  0
 14 16  1  0  0  0  0
 14 17  1  0  0  0  0
 11 12  1  0  0  0  0
 11 13  1  0  0  0  0
 11 14  1  0  0  0  0
  9 10  1  0  0  0  0
  9 11  1  0  0  0  0
  9 22  1  0  0  0  0
  7  8  1  0  0  0  0
  7  9  1  0  0  0  0
 26 27  1  0  0  0  0
 26 28  1  0  0  0  0
 26 29  1  0  0  0  0
 24 25  1  0  0  0  0
 24 26  1  0  0  0  0
M  END
$$$$
default_name
  -OEChem-02102213163D

 29 28  0     1  0  0  0  0  0999 V2000
   -3.5781   -3.7296    1.2702 H   0  0  0  0  0  0  0  0  0  0  0  0
   -3.5311   -2.7616    0.7732 C   0  0  0  0  0  0  0  0  0  0  0  0
   -4.2371   -2.0766    1.2382 H   0  0  0  0  0  0  0  0  0  0  0  0
   -3.7681   -2.8816   -0.2818 H   0  0  0  0  0  0  0  0  0  0  0  0
   -2.1321   -2.2086    0.9112 C   0  0  0  0  0  0  0  0  0  0  0  0
   -1.2751   -2.8426    1.5112 O   0  0  0  0  0  0  0  0  0  0  0  0
   -1.9041   -1.0186    0.3602 N   0  0  0  0  0  0  0  0  0  0  0  0
   -2.6671   -0.5416   -0.0988 H   0  0  0  0  0  0  0  0  0  0  0  0
   -0.6131   -0.3236    0.3832 C   0  0  1  0  0  0  0  0  0  0  0  0
    0.0142   -0.7800    1.1506 H   0  0  0  0  0  0  0  0  0  0  0  0
    0.0816   -0.5059   -0.9788 C   0  0  0  0  0  0  0  0  0  0  0  0
   -0.2353   -1.4579   -1.4099 H   0  0  0  0  0  0  0  0  0  0  0  0
   -0.2308    0.2939   -1.6519 H   0  0  0  0  0  0  0  0  0  0  0  0
    1.6121   -0.5024   -0.8910 C   0  0  0  0  0  0  0  0  0  0  0  0
    1.9582    0.5171   -0.7238 H   0  0  0  0  0  0  0  0  0  0  0  0
    1.9157   -1.1190   -0.0443 H   0  0  0  0  0  0  0  0  0  0  0  0
    2.4261   -1.1350   -2.3799 S   0  0  0  0  0  0  0  0  0  0  0  0
    1.9610   -2.8823   -2.2685 C   0  0  0  0  0  0  0  0  0  0  0  0
    0.8748   -2.9757   -2.2892 H   0  0  0  0  0  0  0  0  0  0  0  0
    2.3841   -3.4237   -3.1151 H   0  0  0  0  0  0  0  0  0  0  0  0
    2.3473   -3.3074   -1.3417 H   0  0  0  0  0  0  0  0  0  0  0  0
   -0.8064    1.1568    0.7414 C   0  0  0  0  0  0  0  0  0  0  0  0
   -1.6978    1.8100    0.2029 O   0  0  0  0  0  0  0  0  0  0  0  0
    0.0314    1.6872    1.6415 N   0  0  0  0  0  0  0  0  0  0  0  0
    0.7279    1.0858    2.0517 H   0  0  0  0  0  0  0  0  0  0  0  0
   -0.0137    3.0826    2.0755 C   0  0  0  0  0  0  0  0  0  0  0  0
   -0.9991    3.3070    2.4905 H   0  0  0  0  0  0  0  0  0  0  0  0
    0.7468    3.2694    2.8349 H   0  0  0  0  0  0  0  0  0  0  0  0
    0.1592    3.7397    1.2213 H   0  0  0  0  0  0  0  0  0  0  0  0
  5  6  2  0  0  0  0
  5  7  1  0  0  0  0
  2  3  1  0  0  0  0
  2  4  1  0  0  0  0
  2  5  1  0  0  0  0
  1  2  1  0  0  0  0
 22 23  2  0  0  0  0
 22 24  1  0  0  0  0
 18 19  1  0  0  0  0
 18 20  1  0  0  0  0
 18 21  1  0  0  0  0
 17 18  1  0  0  0  0
 14 15  1  0  0  0  0
 14 16  1  0  0  0  0
 14 17  1  0  0  0  0
 11 12  1  0  0  0  0
 11 13  1  0  0  0  0
 11 14  1  0  0  0  0
  9 10  1  0  0  0  0
  9 11  1  0  0  0  0
  9 22  1  0  0  0  0
  7  8  1  0  0  0  0
  7  9  1  0  0  0  0
 26 27  1  0  0  0  0
 26 28  1  0  0  0  0
 26 29  1  0  0  0  0
 24 25  1  0  0  0  0
 24 26  1  0  0  0  0
M  END
$$$$
default_name
  -OEChem-02102213163D

 29 28  0     1  0  0  0  0  0999 V2000
   -3.5781   -3.7296    1.2702 H   0  0  0  0  0  0  0  0  0  0  0  0
   -3.5311   -2.7616    0.7732 C   0  0  0  0  0  0  0  0  0  0  0  0
   -4.2371   -2.0766    1.2382 H   0  0  0  0  0  0  0  0  0  0  0  0
   -3.7681   -2.8816   -0.2818 H   0  0  0  0  0  0  0  0  0  0  0  0
   -2.1321   -2.2086    0.9112 C   0  0  0  0  0  0  0  0  0  0  0  0
   -1.2751   -2.8426    1.5112 O   0  0  0  0  0  0  0  0  0  0  0  0
   -1.9041   -1.0186    0.3602 N   0  0  0  0  0  0  0  0  0  0  0  0
   -2.6671   -0.5416   -0.0988 H   0  0  0  0  0  0  0  0  0  0  0  0
   -0.6131   -0.3236    0.3832 C   0  0  1  0  0  0  0  0  0  0  0  0
    0.0142   -0.7800    1.1506 H   0  0  0  0  0  0  0  0  0  0  0  0
    0.0816   -0.5059   -0.9788 C   0  0  0  0  0  0  0  0  0  0  0  0
   -0.4238   -1.3040   -1.5267 H   0  0  0  0  0  0  0  0  0  0  0  0
   -0.0109    0.4153   -1.5560 H   0  0  0  0  0  0  0  0  0  0  0  0
    1.5675   -0.8656   -0.8652 C   0  0  0  0  0  0  0  0  0  0  0  0
    2.0861   -0.0753   -0.3233 H   0  0  0  0  0  0  0  0  0  0  0  0
    1.6607   -1.7956   -0.3031 H   0  0  0  0  0  0  0  0  0  0  0  0
    2.3868   -1.0805   -2.4658 S   0  0  0  0  0  0  0  0  0  0  0  0
    1.5835   -2.6059   -3.0226 C   0  0  0  0  0  0  0  0  0  0  0  0
    0.5073   -2.4480   -3.0986 H   0  0  0  0  0  0  0  0  0  0  0  0
    1.9755   -2.8843   -4.0012 H   0  0  0  0  0  0  0  0  0  0  0  0
    1.7866   -3.4086   -2.3132 H   0  0  0  0  0  0  0  0  0  0  0  0
   -0.8064    1.1568    0.7414 C   0  0  0  0  0  0  0  0  0  0  0  0
   -1.6978    1.8100    0.2029 O   0  0  0  0  0  0  0  0  0  0  0  0
    0.0314    1.6872    1.6415 N   0  0  0  0  0  0  0  0  0  0  0  0
    0.7279    1.0858    2.0517 H   0  0  0  0  0  0  0  0  0  0  0  0
   -0.0137    3.0826    2.0755 C   0  0  0  0  0  0  0  0  0  0  0  0
   -0.9991    3.3070    2.4905 H   0  0  0  0  0  0  0  0  0  0  0  0
    0.7468    3.2694    2.8349 H   0  0  0  0  0  0  0  0  0  0  0  0
    0.1592    3.7397    1.2213 H   0  0  0  0  0  0  0  0  0  0  0  0
  5  6  2  0  0  0  0
  5  7  1  0  0  0  0
  2  3  1  0  0  0  0
  2  4  1  0  0  0  0
  2  5  1  0  0  0  0
  1  2  1  0  0  0  0
 22 23  2  0  0  0  0
 22 24  1  0  0  0  0
 18 19  1  0  0  0  0
 18 20  1  0  0  0  0
 18 21  1  0  0  0  0
 17 18  1  0  0  0  0
 14 15  1  0  0  0  0
 14 16  1  0  0  0  0
 14 17  1  0  0  0  0
 11 12  1  0  0  0  0
 11 13  1  0  0  0  0
 11 14  1  0  0  0  0
  9 10  1  0  0  0  0
  9 11  1  0  0  0  0
  9 22  1  0  0  0  0
  7  8  1  0  0  0  0
  7  9  1  0  0  0  0
 26 27  1  0  0  0  0
 26 28  1  0  0  0  0
 26 29  1  0  0  0  0
 24 25  1  0  0  0  0
 24 26  1  0  0  0  0
M  END
$$$$
default_name
  -OEChem-02102213163D

 29 28  0     1  0  0  0  0  0999 V2000
   -3.5781   -3.7296    1.2702 H   0  0  0  0  0  0  0  0  0  0  0  0
   -3.5311   -2.7616    0.7732 C   0  0  0  0  0  0  0  0  0  0  0  0
   -4.2371   -2.0766    1.2382 H   0  0  0  0  0  0  0  0  0  0  0  0
   -3.7681   -2.8816   -0.2818 H   0  0  0  0  0  0  0  0  0  0  0  0
   -2.1321   -2.2086    0.9112 C   0  0  0  0  0  0  0  0  0  0  0  0
   -1.2751   -2.8426    1.5112 O   0  0  0  0  0  0  0  0  0  0  0  0
   -1.9041   -1.0186    0.3602 N   0  0  0  0  0  0  0  0  0  0  0  0
   -2.6671   -0.5416   -0.0988 H   0  0  0  0  0  0  0  0  0  0  0  0
   -0.6131   -0.3236    0.3832 C   0  0  1  0  0  0  0  0  0  0  0  0
    0.0142   -0.7800    1.1506 H   0  0  0  0  0  0  0  0  0  0  0  0
    0.0816   -0.5059   -0.9788 C   0  0  0  0  0  0  0  0  0  0  0  0
   -0.4238   -1.3040   -1.5267 H   0  0  0  0  0  0  0  0  0  0  0  0
   -0.0109    0.4153   -1.5560 H   0  0  0  0  0  0  0  0  0  0  0  0
    1.5675   -0.8656   -0.8652 C   0  0  0  0  0  0  0  0  0  0  0  0
    2.0322   -0.2311   -0.1111 H   0  0  0  0  0  0  0  0  0  0  0  0
    1.6528   -1.9059   -0.5490 H   0  0  0  0  0  0  0  0  0  0  0  0
    2.4842   -0.6617   -2.4136 S   0  0  0  0  0  0  0  0  0  0  0  0
    1.7562   -2.0071   -3.3840 C   0  0  0  0  0  0  0  0  0  0  0  0
    0.6823   -1.8476   -3.4859 H   0  0  0  0  0  0  0  0  0  0  0  0
    2.2118   -2.0261   -4.3744 H   0  0  0  0  0  0  0  0  0  0  0  0
    1.9391   -2.9601   -2.8867 H   0  0  0  0  0  0  0  0  0  0  0  0
   -0.8064    1.1568    0.7414 C   0  0  0  0  0  0  0  0  0  0  0  0
   -1.6978    1.8100    0.2029 O   0  0  0  0  0  0  0  0  0  0  0  0
    0.0314    1.6872    1.6415 N   0  0  0  0  0  0  0  0  0  0  0  0
    0.7279    1.0858    2.0517 H   0  0  0  0  0  0  0  0  0  0  0  0
   -0.0137    3.0826    2.0755 C   0  0  0  0  0  0  0  0  0  0  0  0
   -0.9991    3.3070    2.4905 H   0  0  0  0  0  0  0  0  0  0  0  0
    0.7468    3.2694    2.8349 H   0  0  0  0  0  0  0  0  0  0  0  0
    0.1592    3.7397    1.2213 H   0  0  0  0  0  0  0  0  0  0  0  0
  5  6  2  0  0  0  0
  5  7  1  0  0  0  0
  2  3  1  0  0  0  0
  2  4  1  0  0  0  0
  2  5  1  0  0  0  0
  1  2  1  0  0  0  0
 22 23  2  0  0  0  0
 22 24  1  0  0  0  0
 18 19  1  0  0  0  0
 18 20  1  0  0  0  0
 18 21  1  0  0  0  0
 17 18  1  0  0  0  0
 14 15  1  0  0  0  0
 14 16  1  0  0  0  0
 14 17  1  0  0  0  0
 11 12  1  0  0  0  0
 11 13  1  0  0  0  0
 11 14  1  0  0  0  0
  9 10  1  0  0  0  0
  9 11  1  0  0  0  0
  9 22  1  0  0  0  0
  7  8  1  0  0  0  0
  7  9  1  0  0  0  0
 26 27  1  0  0  0  0
 26 28  1  0  0  0  0
 26 29  1  0  0  0  0
 24 25  1  0  0  0  0
 24 26  1  0  0  0  0
M  END
$$$$
default_name
  -OEChem-02102213163D

 29 28  0     1  0  0  0  0  0999 V2000
   -3.5781   -3.7296    1.2702 H   0  0  0  0  0  0  0  0  0  0  0  0
   -3.5311   -2.7616    0.7732 C   0  0  0  0  0  0  0  0  0  0  0  0
   -4.2371   -2.0766    1.2382 H   0  0  0  0  0  0  0  0  0  0  0  0
   -3.7681   -2.8816   -0.2818 H   0  0  0  0  0  0  0  0  0  0  0  0
   -2.1321   -2.2086    0.9112 C   0  0  0  0  0  0  0  0  0  0  0  0
   -1.2751   -2.8426    1.5112 O   0  0  0  0  0  0  0  0  0  0  0  0
   -1.9041   -1.0186    0.3602 N   0  0  0  0  0  0  0  0  0  0  0  0
   -2.6671   -0.5416   -0.0988 H   0  0  0  0  0  0  0  0  0  0  0  0
   -0.6131   -0.3236    0.3832 C   0  0  1  0  0  0  0  0  0  0  0  0
    0.0142   -0.7800    1.1506 H   0  0  0  0  0  0  0  0  0  0  0  0
    0.0816   -0.5059   -0.9788 C   0  0  0  0  0  0  0  0  0  0  0  0
   -0.4238   -1.3040   -1.5267 H   0  0  0  0  0  0  0  0  0  0  0  0
   -0.0109    0.4153   -1.5560 H   0  0  0  0  0  0  0  0  0  0  0  0
    1.5675   -0.8656   -0.8652 C   0  0  0  0  0  0  0  0  0  0  0  0
    1.9702   -0.4358    0.0515 H   0  0  0  0  0  0  0  0  0  0  0  0
    1.6622   -1.9509   -0.8147 H   0  0  0  0  0  0  0  0  0  0  0  0
    2.5671   -0.2685   -2.2522 S   0  0  0  0  0  0  0  0  0  0  0  0
    1.9333   -1.3349   -3.5724 C   0  0  0  0  0  0  0  0  0  0  0  0
    0.8634   -1.1671   -3.6988 H   0  0  0  0  0  0  0  0  0  0  0  0
    2.4463   -1.0990   -4.5051 H   0  0  0  0  0  0  0  0  0  0  0  0
    2.1126   -2.3801   -3.3189 H   0  0  0  0  0  0  0  0  0  0  0  0
   -0.8064    1.1568    0.7414 C   0  0  0  0  0  0  0  0  0  0  0  0
   -1.6978    1.8100    0.2029 O   0  0  0  0  0  0  0  0  0  0  0  0
    0.0314    1.6872    1.6415 N   0  0  0  0  0  0  0  0  0  0  0  0
    0.7279    1.0858    2.0517 H   0  0  0  0  0  0  0  0  0  0  0  0
   -0.0137    3.0826    2.0755 C   0  0  0  0  0  0  0  0  0  0  0  0
   -0.9991    3.3070    2.4905 H   0  0  0  0  0  0  0  0  0  0  0  0
    0.7468    3.2694    2.8349 H   0  0  0  0  0  0  0  0  0  0  0  0
    0.1592    3.7397    1.2213 H   0  0  0  0  0  0  0  0  0  0  0  0
  5  6  2  0  0  0  0
  5  7  1  0  0  0  0
  2  3  1  0  0  0  0
  2  4  1  0  0  0  0
  2  5  1  0  0  0  0
  1  2  1  0  0  0  0
 22 23  2  0  0  0  0
 22 24  1  0  0  0  0
 18 19  1  0  0  0  0
 18 20  1  0  0  0  0
 18 21  1  0  0  0  0
 17 18  1  0  0  0  0
 14 15  1  0  0  0  0
 14 16  1  0  0  0  0
 14 17  1  0  0  0  0
 11 12  1  0  0  0  0
 11 13  1  0  0  0  0
 11 14  1  0  0  0  0
  9 10  1  0  0  0  0
  9 11  1  0  0  0  0
  9 22  1  0  0  0  0
  7  8  1  0  0  0  0
  7  9  1  0  0  0  0
 26 27  1  0  0  0  0
 26 28  1  0  0  0  0
 26 29  1  0  0  0  0
 24 25  1  0  0  0  0
 24 26  1  0  0  0  0
M  END
$$$$
default_name
  -OEChem-02102213163D

 29 28  0     1  0  0  0  0  0999 V2000
   -3.5781   -3.7296    1.2702 H   0  0  0  0  0  0  0  0  0  0  0  0
   -3.5311   -2.7616    0.7732 C   0  0  0  0  0  0  0  0  0  0  0  0
   -4.2371   -2.0766    1.2382 H   0  0  0  0  0  0  0  0  0  0  0  0
   -3.7681   -2.8816   -0.2818 H   0  0  0  0  0  0  0  0  0  0  0  0
   -2.1321   -2.2086    0.9112 C   0  0  0  0  0  0  0  0  0  0  0  0
   -1.2751   -2.8426    1.5112 O   0  0  0  0  0  0  0  0  0  0  0  0
   -1.9041   -1.0186    0.3602 N   0  0  0  0  0  0  0  0  0  0  0  0
   -2.6671   -0.5416   -0.0988 H   0  0  0  0  0  0  0  0  0  0  0  0
   -0.6131   -0.3236    0.3832 C   0  0  1  0  0  0  0  0  0  0  0  0
    0.0142   -0.7800    1.1506 H   0  0  0  0  0  0  0  0  0  0  0  0
    0.0816   -0.5059   -0.9788 C   0  0  0  0  0  0  0  0  0  0  0  0
   -0.4238   -1.3040   -1.5267 H   0  0  0  0  0  0  0  0  0  0  0  0
   -0.0109    0.4153   -1.5560 H   0  0  0  0  0  0  0  0  0  0  0  0
    1.5675   -0.8656   -0.8652 C   0  0  0  0  0  0  0  0  0  0  0  0
    1.9043   -0.6755    0.1534 H   0  0  0  0  0  0  0  0  0  0  0  0
    1.6883   -1.9276   -1.0820 H   0  0  0  0  0  0  0  0  0  0  0  0
    2.6298    0.0725   -1.9926 S   0  0  0  0  0  0  0  0  0  0  0  0
    2.1030   -0.6348   -3.5750 C   0  0  0  0  0  0  0  0  0  0  0  0
    1.0381   -0.4530   -3.7227 H   0  0  0  0  0  0  0  0  0  0  0  0
    2.6630   -0.1661   -4.3847 H   0  0  0  0  0  0  0  0  0  0  0  0
    2.2953   -1.7081   -3.5803 H   0  0  0  0  0  0  0  0  0  0  0  0
   -0.8064    1.1568    0.7414 C   0  0  0  0  0  0  0  0  0  0  0  0
   -1.6978    1.8100    0.2029 O   0  0  0  0  0  0  0  0  0  0  0  0
    0.0314    1.6872    1.6415 N   0  0  0  0  0  0  0  0  0  0  0  0
    0.7279    1.0858    2.0517 H   0  0  0  0  0  0  0  0  0  0  0  0
   -0.0137    3.0826    2.0755 C   0  0  0  0  0  0  0  0  0  0  0  0
   -0.9991    3.3070    2.4905 H   0  0  0  0  0  0  0  0  0  0  0  0
    0.7468    3.2694    2.8349 H   0  0  0  0  0  0  0  0  0  0  0  0
    0.1592    3.7397    1.2213 H   0  0  0  0  0  0  0  0  0  0  0  0
  5  6  2  0  0  0  0
  5  7  1  0  0  0  0
  2  3  1  0  0  0  0
  2  4  1  0  0  0  0
  2  5  1  0  0  0  0
  1  2  1  0  0  0  0
 22 23  2  0  0  0  0
 22 24  1  0  0  0  0
 18 19  1  0  0  0  0
 18 20  1  0  0  0  0
 18 21  1  0  0  0  0
 17 18  1  0  0  0  0
 14 15  1  0  0  0  0
 14 16  1  0  0  0  0
 14 17  1  0  0  0  0
 11 12  1  0  0  0  0
 11 13  1  0  0  0  0
 11 14  1  0  0  0  0
  9 10  1  0  0  0  0
  9 11  1  0  0  0  0
  9 22  1  0  0  0  0
  7  8  1  0  0  0  0
  7  9  1  0  0  0  0
 26 27  1  0  0  0  0
 26 28  1  0  0  0  0
 26 29  1  0  0  0  0
 24 25  1  0  0  0  0
 24 26  1  0  0  0  0
M  END
$$$$
default_name
  -OEChem-02102213163D

 29 28  0     1  0  0  0  0  0999 V2000
   -3.5781   -3.7296    1.2702 H   0  0  0  0  0  0  0  0  0  0  0  0
   -3.5311   -2.7616    0.7732 C   0  0  0  0  0  0  0  0  0  0  0  0
   -4.2371   -2.0766    1.2382 H   0  0  0  0  0  0  0  0  0  0  0  0
   -3.7681   -2.8816   -0.2818 H   0  0  0  0  0  0  0  0  0  0  0  0
   -2.1321   -2.2086    0.9112 C   0  0  0  0  0  0  0  0  0  0  0  0
   -1.2751   -2.8426    1.5112 O   0  0  0  0  0  0  0  0  0  0  0  0
   -1.9041   -1.0186    0.3602 N   0  0  0  0  0  0  0  0  0  0  0  0
   -2.6671   -0.5416   -0.0988 H   0  0  0  0  0  0  0  0  0  0  0  0
   -0.6131   -0.3236    0.3832 C   0  0  1  0  0  0  0  0  0  0  0  0
    0.0142   -0.7800    1.1506 H   0  0  0  0  0  0  0  0  0  0  0  0
    0.0816   -0.5059   -0.9788 C   0  0  0  0  0  0  0  0  0  0  0  0
   -0.4238   -1.3040   -1.5267 H   0  0  0  0  0  0  0  0  0  0  0  0
   -0.0109    0.4153   -1.5560 H   0  0  0  0  0  0  0  0  0  0  0  0
    1.5675   -0.8656   -0.8652 C   0  0  0  0  0  0  0  0  0  0  0  0
    1.8391   -0.9339    0.1878 H   0  0  0  0  0  0  0  0  0  0  0  0
    1.7293   -1.8375   -1.3328 H   0  0  0  0  0  0  0  0  0  0  0  0
    2.6680    0.3380   -1.6525 S   0  0  0  0  0  0  0  0  0  0  0  0
    2.2537    0.0453   -3.3915 C   0  0  0  0  0  0  0  0  0  0  0  0
    1.1946    0.2462   -3.5560 H   0  0  0  0  0  0  0  0  0  0  0  0
    2.8470    0.7089   -4.0211 H   0  0  0  0  0  0  0  0  0  0  0  0
    2.4748   -0.9899   -3.6532 H   0  0  0  0  0  0  0  0  0  0  0  0
   -0.8064    1.1568    0.7414 C   0  0  0  0  0  0  0  0  0  0  0  0
   -1.6978    1.8100    0.2029 O   0  0  0  0  0  0  0  0  0  0  0  0
    0.0314    1.6872    1.6415 N   0  0  0  0  0  0  0  0  0  0  0  0
    0.7279    1.0858    2.0517 H   0  0  0  0  0  0  0  0  0  0  0  0
   -0.0137    3.0826    2.0755 C   0  0  0  0  0  0  0  0  0  0  0  0
   -0.9991    3.3070    2.4905 H   0  0  0  0  0  0  0  0  0  0  0  0
    0.7468    3.2694    2.8349 H   0  0  0  0  0  0  0  0  0  0  0  0
    0.1592    3.7397    1.2213 H   0  0  0  0  0  0  0  0  0  0  0  0
  5  6  2  0  0  0  0
  5  7  1  0  0  0  0
  2  3  1  0  0  0  0
  2  4  1  0  0  0  0
  2  5  1  0  0  0  0
  1  2  1  0  0  0  0
 22 23  2  0  0  0  0
 22 24  1  0  0  0  0
 18 19  1  0  0  0  0
 18 20  1  0  0  0  0
 18 21  1  0  0  0  0
 17 18  1  0  0  0  0
 14 15  1  0  0  0  0
 14 16  1  0  0  0  0
 14 17  1  0  0  0  0
 11 12  1  0  0  0  0
 11 13  1  0  0  0  0
 11 14  1  0  0  0  0
  9 10  1  0  0  0  0
  9 11  1  0  0  0  0
  9 22  1  0  0  0  0
  7  8  1  0  0  0  0
  7  9  1  0  0  0  0
 26 27  1  0  0  0  0
 26 28  1  0  0  0  0
 26 29  1  0  0  0  0
 24 25  1  0  0  0  0
 24 26  1  0  0  0  0
M  END
$$$$
default_name
  -OEChem-02102213163D

 29 28  0     1  0  0  0  0  0999 V2000
   -3.5781   -3.7296    1.2702 H   0  0  0  0  0  0  0  0  0  0  0  0
   -3.5311   -2.7616    0.7732 C   0  0  0  0  0  0  0  0  0  0  0  0
   -4.2371   -2.0766    1.2382 H   0  0  0  0  0  0  0  0  0  0  0  0
   -3.7681   -2.8816   -0.2818 H   0  0  0  0  0  0  0  0  0  0  0  0
   -2.1321   -2.2086    0.9112 C   0  0  0  0  0  0  0  0  0  0  0  0
   -1.2751   -2.8426    1.5112 O   0  0  0  0  0  0  0  0  0  0  0  0
   -1.9041   -1.0186    0.3602 N   0  0  0  0  0  0  0  0  0  0  0  0
   -2.6671   -0.5416   -0.0988 H   0  0  0  0  0  0  0  0  0  0  0  0
   -0.6131   -0.3236    0.3832 C   0  0  1  0  0  0  0  0  0  0  0  0
    0.0142   -0.7800    1.1506 H   0  0  0  0  0  0  0  0  0  0  0  0
    0.0816   -0.5059   -0.9788 C   0  0  0  0  0  0  0  0  0  0  0  0
   -0.4238   -1.3040   -1.5267 H   0  0  0  0  0  0  0  0  0  0  0  0
   -0.0109    0.4153   -1.5560 H   0  0  0  0  0  0  0  0  0  0  0  0
    1.5675   -0.8656   -0.8652 C   0  0  0  0  0  0  0  0  0  0  0  0
    1.7790   -1.1934    0.1522 H   0  0  0  0  0  0  0  0  0  0  0  0
    1.7824   -1.6867   -1.5499 H   0  0  0  0  0  0  0  0  0  0  0  0
    2.6792    0.5098   -1.2550 S   0  0  0  0  0  0  0  0  0  0  0  0
    2.3750    0.6590   -3.0346 C   0  0  0  0  0  0  0  0  0  0  0  0
    1.3223    0.8828   -3.2102 H   0  0  0  0  0  0  0  0  0  0  0  0
    2.9859    1.4664   -3.4393 H   0  0  0  0  0  0  0  0  0  0  0  0
    2.6387   -0.2745   -3.5325 H   0  0  0  0  0  0  0  0  0  0  0  0
   -0.8064    1.1568    0.7414 C   0  0  0  0  0  0  0  0  0  0  0  0
   -1.6978    1.8100    0.2029 O   0  0  0  0  0  0  0  0  0  0  0  0
    0.0314    1.6872    1.6415 N   0  0  0  0  0  0  0  0  0  0  0  0
    0.7279    1.0858    2.0517 H   0  0  0  0  0  0  0  0  0  0  0  0
   -0.0137    3.0826    2.0755 C   0  0  0  0  0  0  0  0  0  0  0  0
   -0.9991    3.3070    2.4905 H   0  0  0  0  0  0  0  0  0  0  0  0
    0.7468    3.2694    2.8349 H   0  0  0  0  0  0  0  0  0  0  0  0
    0.1592    3.7397    1.2213 H   0  0  0  0  0  0  0  0  0  0  0  0
  5  6  2  0  0  0  0
  5  7  1  0  0  0  0
  2  3  1  0  0  0  0
  2  4  1  0  0  0  0
  2  5  1  0  0  0  0
  1  2  1  0  0  0  0
 22 23  2  0  0  0  0
 22 24  1  0  0  0  0
 18 19  1  0  0  0  0
 18 20  1  0  0  0  0
 18 21  1  0  0  0  0
 17 18  1  0  0  0  0
 14 15  1  0  0  0  0
 14 16  1  0  0  0  0
 14 17  1  0  0  0  0
 11 12  1  0  0  0  0
 11 13  1  0  0  0  0
 11 14  1  0  0  0  0
  9 10  1  0  0  0  0
  9 11  1  0  0  0  0
  9 22  1  0  0  0  0
  7  8  1  0  0  0  0
  7  9  1  0  0  0  0
 26 27  1  0  0  0  0
 26 28  1  0  0  0  0
 26 29  1  0  0  0  0
 24 25  1  0  0  0  0
 24 26  1  0  0  0  0
M  END
$$$$
default_name
  -OEChem-02102213163D

 29 28  0     1  0  0  0  0  0999 V2000
   -3.5781   -3.7296    1.2702 H   0  0  0  0  0  0  0  0  0  0  0  0
   -3.5311   -2.7616    0.7732 C   0  0  0  0  0  0  0  0  0  0  0  0
   -4.2371   -2.0766    1.2382 H   0  0  0  0  0  0  0  0  0  0  0  0
   -3.7681   -2.8816   -0.2818 H   0  0  0  0  0  0  0  0  0  0  0  0
   -2.1321   -2.2086    0.9112 C   0  0  0  0  0  0  0  0  0  0  0  0
   -1.2751   -2.8426    1.5112 O   0  0  0  0  0  0  0  0  0  0  0  0
   -1.9041   -1.0186    0.3602 N   0  0  0  0  0  0  0  0  0  0  0  0
   -2.6671   -0.5416   -0.0988 H   0  0  0  0  0  0  0  0  0  0  0  0
   -0.6131   -0.3236    0.3832 C   0  0  1  0  0  0  0  0  0  0  0  0
    0.0142   -0.7800    1.1506 H   0  0  0  0  0  0  0  0  0  0  0  0
    0.0816   -0.5059   -0.9788 C   0  0  0  0  0  0  0  0  0  0  0  0
   -0.4238   -1.3040   -1.5267 H   0  0  0  0  0  0  0  0  0  0  0  0
   -0.0109    0.4153   -1.5560 H   0  0  0  0  0  0  0  0  0  0  0  0
    1.5675   -0.8656   -0.8652 C   0  0  0  0  0  0  0  0  0  0  0  0
    1.7281   -1.4362    0.0491 H   0  0  0  0  0  0  0  0  0  0  0  0
    1.8440   -1.4857   -1.7187 H   0  0  0  0  0  0  0  0  0  0  0  0
    2.6626    0.5762   -0.8274 S   0  0  0  0  0  0  0  0  0  0  0  0
    2.4587    1.1647   -2.5285 C   0  0  0  0  0  0  0  0  0  0  0  0
    1.4124    1.4133   -2.7086 H   0  0  0  0  0  0  0  0  0  0  0  0
    3.0702    2.0548   -2.6788 H   0  0  0  0  0  0  0  0  0  0  0  0
    2.7761    0.3895   -3.2264 H   0  0  0  0  0  0  0  0  0  0  0  0
   -0.8064    1.1568    0.7414 C   0  0  0  0  0  0  0  0  0  0  0  0
   -1.6978    1.8100    0.2029 O   0  0  0  0  0  0  0  0  0  0  0  0
    0.0314    1.6872    1.6415 N   0  0  0  0  0  0  0  0  0  0  0  0
    0.7279    1.0858    2.0517 H   0  0  0  0  0  0  0  0  0  0  0  0
   -0.0137    3.0826    2.0755 C   0  0  0  0  0  0  0  0  0  0  0  0
   -0.9991    3.3070    2.4905 H   0  0  0  0  0  0  0  0  0  0  0  0
    0.7468    3.2694    2.8349 H   0  0  0  0  0  0  0  0  0  0  0  0
    0.1592    3.7397    1.2213 H   0  0  0  0  0  0  0  0  0  0  0  0
  5  6  2  0  0  0  0
  5  7  1  0  0  0  0
  2  3  1  0  0  0  0
  2  4  1  0  0  0  0
  2  5  1  0  0  0  0
  1  2  1  0  0  0  0
 22 23  2  0  0  0  0
 22 24  1  0  0  0  0
 18 19  1  0  0  0  0
 18 20  1  0  0  0  0
 18 21  1  0  0  0  0
 17 18  1  0  0  0  0
 14 15  1  0  0  0  0
 14 16  1  0  0  0  0
 14 17  1  0  0  0  0
 11 12  1  0  0  0  0
 11 13  1  0  0  0  0
 11 14  1  0  0  0  0
  9 10  1  0  0  0  0
  9 11  1  0  0  0  0
  9 22  1  0  0  0  0
  7  8  1  0  0  0  0
  7  9  1  0  0  0  0
 26 27  1  0  0  0  0
 26 28  1  0  0  0  0
 26 29  1  0  0  0  0
 24 25  1  0  0  0  0
 24 26  1  0  0  0  0
M  END
$$$$
default_name
  -OEChem-02102213163D

 29 28  0     1  0  0  0  0  0999 V2000
   -3.5781   -3.7296    1.2702 H   0  0  0  0  0  0  0  0  0  0  0  0
   -3.5311   -2.7616    0.7732 C   0  0  0  0  0  0  0  0  0  0  0  0
   -4.2371   -2.0766    1.2382 H   0  0  0  0  0  0  0  0  0  0  0  0
   -3.7681   -2.8816   -0.2818 H   0  0  0  0  0  0  0  0  0  0  0  0
   -2.1321   -2.2086    0.9112 C   0  0  0  0  0  0  0  0  0  0  0  0
   -1.2751   -2.8426    1.5112 O   0  0  0  0  0  0  0  0  0  0  0  0
   -1.9041   -1.0186    0.3602 N   0  0  0  0  0  0  0  0  0  0  0  0
   -2.6671   -0.5416   -0.0988 H   0  0  0  0  0  0  0  0  0  0  0  0
   -0.6131   -0.3236    0.3832 C   0  0  1  0  0  0  0  0  0  0  0  0
    0.0142   -0.7800    1.1506 H   0  0  0  0  0  0  0  0  0  0  0  0
    0.0816   -0.5059   -0.9788 C   0  0  0  0  0  0  0  0  0  0  0  0
   -0.4238   -1.3040   -1.5267 H   0  0  0  0  0  0  0  0  0  0  0  0
   -0.0109    0.4153   -1.5560 H   0  0  0  0  0  0  0  0  0  0  0  0
    1.5675   -0.8656   -0.8652 C   0  0  0  0  0  0  0  0  0  0  0  0
    1.6899   -1.6459   -0.1146 H   0  0  0  0  0  0  0  0  0  0  0  0
    1.9099   -1.2479   -1.8274 H   0  0  0  0  0  0  0  0  0  0  0  0
    2.6193    0.5329   -0.3986 S   0  0  0  0  0  0  0  0  0  0  0  0
    2.4991    1.5278   -1.9077 C   0  0  0  0  0  0  0  0  0  0  0  0
    1.4588    1.8017   -2.0856 H   0  0  0  0  0  0  0  0  0  0  0  0
    3.0941    2.4340   -1.7915 H   0  0  0  0  0  0  0  0  0  0  0  0
    2.8774    0.9566   -2.7560 H   0  0  0  0  0  0  0  0  0  0  0  0
   -0.8064    1.1568    0.7414 C   0  0  0  0  0  0  0  0  0  0  0  0
   -1.6978    1.8100    0.2029 O   0  0  0  0  0  0  0  0  0  0  0  0
    0.0314    1.6872    1.6415 N   0  0  0  0  0  0  0  0  0  0  0  0
    0.7279    1.0858    2.0517 H   0  0  0  0  0  0  0  0  0  0  0  0
   -0.0137    3.0826    2.0755 C   0  0  0  0  0  0  0  0  0  0  0  0
   -0.9991    3.3070    2.4905 H   0  0  0  0  0  0  0  0  0  0  0  0
    0.7468    3.2694    2.8349 H   0  0  0  0  0  0  0  0  0  0  0  0
    0.1592    3.7397    1.2213 H   0  0  0  0  0  0  0  0  0  0  0  0
  5  6  2  0  0  0  0
  5  7  1  0  0  0  0
  2  3  1  0  0  0  0
  2  4  1  0  0  0  0
  2  5  1  0  0  0  0
  1  2  1  0  0  0  0
 22 23  2  0  0  0  0
 22 24  1  0  0  0  0
 18 19  1  0  0  0  0
 18 20  1  0  0  0  0
 18 21  1  0  0  0  0
 17 18  1  0  0  0  0
 14 15  1  0  0  0  0
 14 16  1  0  0  0  0
 14 17  1  0  0  0  0
 11 12  1  0  0  0  0
 11 13  1  0  0  0  0
 11 14  1  0  0  0  0
  9 10  1  0  0  0  0
  9 11  1  0  0  0  0
  9 22  1  0  0  0  0
  7  8  1  0  0  0  0
  7  9  1  0  0  0  0
 26 27  1  0  0  0  0
 26 28  1  0  0  0  0
 26 29  1  0  0  0  0
 24 25  1  0  0  0  0
 24 26  1  0  0  0  0
M  END
$$$$
default_name
  -OEChem-02102213163D

 29 28  0     1  0  0  0  0  0999 V2000
   -3.5781   -3.7296    1.2702 H   0  0  0  0  0  0  0  0  0  0  0  0
   -3.5311   -2.7616    0.7732 C   0  0  0  0  0  0  0  0  0  0  0  0
   -4.2371   -2.0766    1.2382 H   0  0  0  0  0  0  0  0  0  0  0  0
   -3.7681   -2.8816   -0.2818 H   0  0  0  0  0  0  0  0  0  0  0  0
   -2.1321   -2.2086    0.9112 C   0  0  0  0  0  0  0  0  0  0  0  0
   -1.2751   -2.8426    1.5112 O   0  0  0  0  0  0  0  0  0  0  0  0
   -1.9041   -1.0186    0.3602 N   0  0  0  0  0  0  0  0  0  0  0  0
   -2.6671   -0.5416   -0.0988 H   0  0  0  0  0  0  0  0  0  0  0  0
   -0.6131   -0.3236    0.3832 C   0  0  1  0  0  0  0  0  0  0  0  0
    0.0142   -0.7800    1.1506 H   0  0  0  0  0  0  0  0  0  0  0  0
    0.0816   -0.5059   -0.9788 C   0  0  0  0  0  0  0  0  0  0  0  0
   -0.4238   -1.3040   -1.5267 H   0  0  0  0  0  0  0  0  0  0  0  0
   -0.0109    0.4153   -1.5560 H   0  0  0  0  0  0  0  0  0  0  0  0
    1.5675   -0.8656   -0.8652 C   0  0  0  0  0  0  0  0  0  0  0  0
    1.6669   -1.8081   -0.3275 H   0  0  0  0  0  0  0  0  0  0  0  0
    1.9756   -0.9897   -1.8689 H   0  0  0  0  0  0  0  0  0  0  0  0
    2.5522    0.3825    0.0021 S   0  0  0  0  0  0  0  0  0  0  0  0
    2.4934    1.7235   -1.2145 C   0  0  0  0  0  0  0  0  0  0  0  0
    1.4582    2.0215   -1.3836 H   0  0  0  0  0  0  0  0  0  0  0  0
    3.0561    2.5782   -0.8379 H   0  0  0  0  0  0  0  0  0  0  0  0
    2.9358    1.3884   -2.1531 H   0  0  0  0  0  0  0  0  0  0  0  0
   -0.8064    1.1568    0.7414 C   0  0  0  0  0  0  0  0  0  0  0  0
   -1.6978    1.8100    0.2029 O   0  0  0  0  0  0  0  0  0  0  0  0
    0.0314    1.6872    1.6415 N   0  0  0  0  0  0  0  0  0  0  0  0
    0.7279    1.0858    2.0517 H   0  0  0  0  0  0  0  0  0  0  0  0
   -0.0137    3.0826    2.0755 C   0  0  0  0  0  0  0  0  0  0  0  0
   -0.9991    3.3070    2.4905 H   0  0  0  0  0  0  0  0  0  0  0  0
    0.7468    3.2694    2.8349 H   0  0  0  0  0  0  0  0  0  0  0  0
    0.1592    3.7397    1.2213 H   0  0  0  0  0  0  0  0  0  0  0  0
  5  6  2  0  0  0  0
  5  7  1  0  0  0  0
  2  3  1  0  0  0  0
  2  4  1  0  0  0  0
  2  5  1  0  0  0  0
  1  2  1  0  0  0  0
 22 23  2  0  0  0  0
 22 24  1  0  0  0  0
 18 19  1  0  0  0  0
 18 20  1  0  0  0  0
 18 21  1  0  0  0  0
 17 18  1  0  0  0  0
 14 15  1  0  0  0  0
 14 16  1  0  0  0  0
 14 17  1  0  0  0  0
 11 12  1  0  0  0  0
 11 13  1  0  0  0  0
 11 14  1  0  0  0  0
  9 10  1  0  0  0  0
  9 11  1  0  0  0  0
  9 22  1  0  0  0  0
  7  8  1  0  0  0  0
  7  9  1  0  0  0  0
 26 27  1  0  0  0  0
 26 28  1  0  0  0  0
 26 29  1  0  0  0  0
 24 25  1  0  0  0  0
 24 26  1  0  0  0  0
M  END
$$$$
default_name
  -OEChem-02102213163D

 29 28  0     1  0  0  0  0  0999 V2000
   -3.5781   -3.7296    1.2702 H   0  0  0  0  0  0  0  0  0  0  0  0
   -3.5311   -2.7616    0.7732 C   0  0  0  0  0  0  0  0  0  0  0  0
   -4.2371   -2.0766    1.2382 H   0  0  0  0  0  0  0  0  0  0  0  0
   -3.7681   -2.8816   -0.2818 H   0  0  0  0  0  0  0  0  0  0  0  0
   -2.1321   -2.2086    0.9112 C   0  0  0  0  0  0  0  0  0  0  0  0
   -1.2751   -2.8426    1.5112 O   0  0  0  0  0  0  0  0  0  0  0  0
   -1.9041   -1.0186    0.3602 N   0  0  0  0  0  0  0  0  0  0  0  0
   -2.6671   -0.5416   -0.0988 H   0  0  0  0  0  0  0  0  0  0  0  0
   -0.6131   -0.3236    0.3832 C   0  0  1  0  0  0  0  0  0  0  0  0
    0.0142   -0.7800    1.1506 H   0  0  0  0  0  0  0  0  0  0  0  0
    0.0816   -0.5059   -0.9788 C   0  0  0  0  0  0  0  0  0  0  0  0
   -0.4238   -1.3040   -1.5267 H   0  0  0  0  0  0  0  0  0  0  0  0
   -0.0109    0.4153   -1.5560 H   0  0  0  0  0  0  0  0  0  0  0  0
    1.5675   -0.8656   -0.8652 C   0  0  0  0  0  0  0  0  0  0  0  0
    1.6607   -1.9118   -0.5753 H   0  0  0  0  0  0  0  0  0  0  0  0
    2.0366   -0.7287   -1.8401 H   0  0  0  0  0  0  0  0  0  0  0  0
    2.4660    0.1356    0.3473 S   0  0  0  0  0  0  0  0  0  0  0  0
    2.4421    1.7386   -0.4962 C   0  0  0  0  0  0  0  0  0  0  0  0
    1.4109    2.0576   -0.6504 H   0  0  0  0  0  0  0  0  0  0  0  0
    2.9586    2.4775    0.1171 H   0  0  0  0  0  0  0  0  0  0  0  0
    2.9473    1.6553   -1.4589 H   0  0  0  0  0  0  0  0  0  0  0  0
   -0.8064    1.1568    0.7414 C   0  0  0  0  0  0  0  0  0  0  0  0
   -1.6978    1.8100    0.2029 O   0  0  0  0  0  0  0  0  0  0  0  0
    0.0314    1.6872    1.6415 N   0  0  0  0  0  0  0  0  0  0  0  0
    0.7279    1.0858    2.0517 H   0  0  0  0  0  0  0  0  0  0  0  0
   -0.0137    3.0826    2.0755 C   0  0  0  0  0  0  0  0  0  0  0  0
   -0.9991    3.3070    2.4905 H   0  0  0  0  0  0  0  0  0  0  0  0
    0.7468    3.2694    2.8349 H   0  0  0  0  0  0  0  0  0  0  0  0
    0.1592    3.7397    1.2213 H   0  0  0  0  0  0  0  0  0  0  0  0
  5  6  2  0  0  0  0
  5  7  1  0  0  0  0
  2  3  1  0  0  0  0
  2  4  1  0  0  0  0
  2  5  1  0  0  0  0
  1  2  1  0  0  0  0
 22 23  2  0  0  0  0
 22 24  1  0  0  0  0
 18 19  1  0  0  0  0
 18 20  1  0  0  0  0
 18 21  1  0  0  0  0
 17 18  1  0  0  0  0
 14 15  1  0  0  0  0
 14 16  1  0  0  0  0
 14 17  1  0  0  0  0
 11 12  1  0  0  0  0
 11 13  1  0  0  0  0
 11 14  1  0  0  0  0
  9 10  1  0  0  0  0
  9 11  1  0  0  0  0
  9 22  1  0  0  0  0
  7  8  1  0  0  0  0
  7  9  1  0  0  0  0
 26 27  1  0  0  0  0
 26 28  1  0  0  0  0
 26 29  1  0  0  0  0
 24 25  1  0  0  0  0
 24 26  1  0  0  0  0
M  END
$$$$
default_name
  -OEChem-02102213163D

 29 28  0     1  0  0  0  0  0999 V2000
   -3.5781   -3.7296    1.2702 H   0  0  0  0  0  0  0  0  0  0  0  0
   -3.5311   -2.7616    0.7732 C   0  0  0  0  0  0  0  0  0  0  0  0
   -4.2371   -2.0766    1.2382 H   0  0  0  0  0  0  0  0  0  0  0  0
   -3.7681   -2.8816   -0.2818 H   0  0  0  0  0  0  0  0  0  0  0  0
   -2.1321   -2.2086    0.9112 C   0  0  0  0  0  0  0  0  0  0  0  0
   -1.2751   -2.8426    1.5112 O   0  0  0  0  0  0  0  0  0  0  0  0
   -1.9041   -1.0186    0.3602 N   0  0  0  0  0  0  0  0  0  0  0  0
   -2.6671   -0.5416   -0.0988 H   0  0  0  0  0  0  0  0  0  0  0  0
   -0.6131   -0.3236    0.3832 C   0  0  1  0  0  0  0  0  0  0  0  0
    0.0142   -0.7800    1.1506 H   0  0  0  0  0  0  0  0  0  0  0  0
    0.0816   -0.5059   -0.9788 C   0  0  0  0  0  0  0  0  0  0  0  0
   -0.4238   -1.3040   -1.5267 H   0  0  0  0  0  0  0  0  0  0  0  0
   -0.0109    0.4153   -1.5560 H   0  0  0  0  0  0  0  0  0  0  0  0
    1.5675   -0.8656   -0.8652 C   0  0  0  0  0  0  0  0  0  0  0  0
    1.6719   -1.9499   -0.8411 H   0  0  0  0  0  0  0  0  0  0  0  0
    2.0888   -0.4826   -1.7432 H   0  0  0  0  0  0  0  0  0  0  0  0
    2.3665   -0.1912    0.6135 S   0  0  0  0  0  0  0  0  0  0  0  0
    2.3486    1.5720    0.1983 C   0  0  0  0  0  0  0  0  0  0  0  0
    1.3199    1.9077    0.0640 H   0  0  0  0  0  0  0  0  0  0  0  0
    2.8084    2.1388    1.0084 H   0  0  0  0  0  0  0  0  0  0  0  0
    2.9112    1.7392   -0.7207 H   0  0  0  0  0  0  0  0  0  0  0  0
   -0.8064    1.1568    0.7414 C   0  0  0  0  0  0  0  0  0  0  0  0
   -1.6978    1.8100    0.2029 O   0  0  0  0  0  0  0  0  0  0  0  0
    0.0314    1.6872    1.6415 N   0  0  0  0  0  0  0  0  0  0  0  0
    0.7279    1.0858    2.0517 H   0  0  0  0  0  0  0  0  0  0  0  0
   -0.0137    3.0826    2.0755 C   0  0  0  0  0  0  0  0  0  0  0  0
   -0.9991    3.3070    2.4905 H   0  0  0  0  0  0  0  0  0  0  0  0
    0.7468    3.2694    2.8349 H   0  0  0  0  0  0  0  0  0  0  0  0
    0.1592    3.7397    1.2213 H   0  0  0  0  0  0  0  0  0  0  0  0
  5  6  2  0  0  0  0
  5  7  1  0  0  0  0
  2  3  1  0  0  0  0
  2  4  1  0  0  0  0
  2  5  1  0  0  0  0
  1  2  1  0  0  0  0
 22 23  2  0  0  0  0
 22 24  1  0  0  0  0
 18 19  1  0  0  0  0
 18 20  1  0  0  0  0
 18 21  1  0  0  0  0
 17 18  1  0  0  0  0
 14 15  1  0  0  0  0
 14 16  1  0  0  0  0
 14 17  1  0  0  0  0
 11 12  1  0  0  0  0
 11 13  1  0  0  0  0
 11 14  1  0  0  0  0
  9 10  1  0  0  0  0
  9 11  1  0  0  0  0
  9 22  1  0  0  0  0
  7  8  1  0  0  0  0
  7  9  1  0  0  0  0
 26 27  1  0  0  0  0
 26 28  1  0  0  0  0
 26 29  1  0  0  0  0
 24 25  1  0  0  0  0
 24 26  1  0  0  0  0
M  END
$$$$
default_name
  -OEChem-02102213163D

 29 28  0     1  0  0  0  0  0999 V2000
   -3.5781   -3.7296    1.2702 H   0  0  0  0  0  0  0  0  0  0  0  0
   -3.5311   -2.7616    0.7732 C   0  0  0  0  0  0  0  0  0  0  0  0
   -4.2371   -2.0766    1.2382 H   0  0  0  0  0  0  0  0  0  0  0  0
   -3.7681   -2.8816   -0.2818 H   0  0  0  0  0  0  0  0  0  0  0  0
   -2.1321   -2.2086    0.9112 C   0  0  0  0  0  0  0  0  0  0  0  0
   -1.2751   -2.8426    1.5112 O   0  0  0  0  0  0  0  0  0  0  0  0
   -1.9041   -1.0186    0.3602 N   0  0  0  0  0  0  0  0  0  0  0  0
   -2.6671   -0.5416   -0.0988 H   0  0  0  0  0  0  0  0  0  0  0  0
   -0.6131   -0.3236    0.3832 C   0  0  1  0  0  0  0  0  0  0  0  0
    0.0142   -0.7800    1.1506 H   0  0  0  0  0  0  0  0  0  0  0  0
    0.0816   -0.5059   -0.9788 C   0  0  0  0  0  0  0  0  0  0  0  0
   -0.4238   -1.3040   -1.5267 H   0  0  0  0  0  0  0  0  0  0  0  0
   -0.0109    0.4153   -1.5560 H   0  0  0  0  0  0  0  0  0  0  0  0
    1.5675   -0.8656   -0.8652 C   0  0  0  0  0  0  0  0  0  0  0  0
    1.6995   -1.9198   -1.1067 H   0  0  0  0  0  0  0  0  0  0  0  0
    2.1286   -0.2681   -1.5846 H   0  0  0  0  0  0  0  0  0  0  0  0
    2.2605   -0.5756    0.7827 S   0  0  0  0  0  0  0  0  0  0  0  0
    2.2194    1.2351    0.8217 C   0  0  0  0  0  0  0  0  0  0  0  0
    1.1916    1.5819    0.7110 H   0  0  0  0  0  0  0  0  0  0  0  0
    2.6157    1.5851    1.7752 H   0  0  0  0  0  0  0  0  0  0  0  0
    2.8298    1.6344    0.0113 H   0  0  0  0  0  0  0  0  0  0  0  0
   -0.8064    1.1568    0.7414 C   0  0  0  0  0  0  0  0  0  0  0  0
   -1.6978    1.8100    0.2029 O   0  0  0  0  0  0  0  0  0  0  0  0
    0.0314    1.6872    1.6415 N   0  0  0  0  0  0  0  0  0  0  0  0
    0.7279    1.0858    2.0517 H   0  0  0  0  0  0  0  0  0  0  0  0
   -0.0137    3.0826    2.0755 C   0  0  0  0  0  0  0  0  0  0  0  0
   -0.9991    3.3070    2.4905 H   0  0  0  0  0  0  0  0  0  0  0  0
    0.7468    3.2694    2.8349 H   0  0  0  0  0  0  0  0  0  0  0  0
    0.1592    3.7397    1.2213 H   0  0  0  0  0  0  0  0  0  0  0  0
  5  6  2  0  0  0  0
  5  7  1  0  0  0  0
  2  3  1  0  0  0  0
  2  4  1  0  0  0  0
  2  5  1  0  0  0  0
  1  2  1  0  0  0  0
 22 23  2  0  0  0  0
 22 24  1  0  0  0  0
 18 19  1  0  0  0  0
 18 20  1  0  0  0  0
 18 21  1  0  0  0  0
 17 18  1  0  0  0  0
 14 15  1  0  0  0  0
 14 16  1  0  0  0  0
 14 17  1  0  0  0  0
 11 12  1  0  0  0  0
 11 13  1  0  0  0  0
 11 14  1  0  0  0  0
  9 10  1  0  0  0  0
  9 11  1  0  0  0  0
  9 22  1  0  0  0  0
  7  8  1  0  0  0  0
  7  9  1  0  0  0  0
 26 27  1  0  0  0  0
 26 28  1  0  0  0  0
 26 29  1  0  0  0  0
 24 25  1  0  0  0  0
 24 26  1  0  0  0  0
M  END
$$$$
default_name
  -OEChem-02102213163D

 29 28  0     1  0  0  0  0  0999 V2000
   -3.5781   -3.7296    1.2702 H   0  0  0  0  0  0  0  0  0  0  0  0
   -3.5311   -2.7616    0.7732 C   0  0  0  0  0  0  0  0  0  0  0  0
   -4.2371   -2.0766    1.2382 H   0  0  0  0  0  0  0  0  0  0  0  0
   -3.7681   -2.8816   -0.2818 H   0  0  0  0  0  0  0  0  0  0  0  0
   -2.1321   -2.2086    0.9112 C   0  0  0  0  0  0  0  0  0  0  0  0
   -1.2751   -2.8426    1.5112 O   0  0  0  0  0  0  0  0  0  0  0  0
   -1.9041   -1.0186    0.3602 N   0  0  0  0  0  0  0  0  0  0  0  0
   -2.6671   -0.5416   -0.0988 H   0  0  0  0  0  0  0  0  0  0  0  0
   -0.6131   -0.3236    0.3832 C   0  0  1  0  0  0  0  0  0  0  0  0
    0.0142   -0.7800    1.1506 H   0  0  0  0  0  0  0  0  0  0  0  0
    0.0816   -0.5059   -0.9788 C   0  0  0  0  0  0  0  0  0  0  0  0
   -0.4238   -1.3040   -1.5267 H   0  0  0  0  0  0  0  0  0  0  0  0
   -0.0109    0.4153   -1.5560 H   0  0  0  0  0  0  0  0  0  0  0  0
    1.5675   -0.8656   -0.8652 C   0  0  0  0  0  0  0  0  0  0  0  0
    1.7417   -1.8237   -1.3540 H   0  0  0  0  0  0  0  0  0  0  0  0
    2.1532   -0.1001   -1.3752 H   0  0  0  0  0  0  0  0  0  0  0  0
    2.1552   -0.9914    0.8432 S   0  0  0  0  0  0  0  0  0  0  0  0
    2.0631    0.7507    1.3314 C   0  0  0  0  0  0  0  0  0  0  0  0
    1.0345    1.1025    1.2464 H   0  0  0  0  0  0  0  0  0  0  0  0
    2.3936    0.8543    2.3653 H   0  0  0  0  0  0  0  0  0  0  0  0
    2.7087    1.3480    0.6870 H   0  0  0  0  0  0  0  0  0  0  0  0
   -0.8064    1.1568    0.7414 C   0  0  0  0  0  0  0  0  0  0  0  0
   -1.6978    1.8100    0.2029 O   0  0  0  0  0  0  0  0  0  0  0  0
    0.0314    1.6872    1.6415 N   0  0  0  0  0  0  0  0  0  0  0  0
    0.7279    1.0858    2.0517 H   0  0  0  0  0  0  0  0  0  0  0  0
   -0.0137    3.0826    2.0755 C   0  0  0  0  0  0  0  0  0  0  0  0
   -0.9991    3.3070    2.4905 H   0  0  0  0  0  0  0  0  0  0  0  0
    0.7468    3.2694    2.8349 H   0  0  0  0  0  0  0  0  0  0  0  0
    0.1592    3.7397    1.2213 H   0  0  0  0  0  0  0  0  0  0  0  0
  5  6  2  0  0  0  0
  5  7  1  0  0  0  0
  2  3  1  0  0  0  0
  2  4  1  0  0  0  0
  2  5  1  0  0  0  0
  1  2  1  0  0  0  0
 22 23  2  0  0  0  0
 22 24  1  0  0  0  0
 18 19  1  0  0  0  0
 18 20  1  0  0  0  0
 18 21  1  0  0  0  0
 17 18  1  0  0  0  0
 14 15  1  0  0  0  0
 14 16  1  0  0  0  0
 14 17  1  0  0  0  0
 11 12  1  0  0  0  0
 11 13  1  0  0  0  0
 11 14  1  0  0  0  0
  9 10  1  0  0  0  0
  9 11  1  0  0  0  0
  9 22  1  0  0  0  0
  7  8  1  0  0  0  0
  7  9  1  0  0  0  0
 26 27  1  0  0  0  0
 26 28  1  0  0  0  0
 26 29  1  0  0  0  0
 24 25  1  0  0  0  0
 24 26  1  0  0  0  0
M  END
$$$$
default_name
  -OEChem-02102213163D

 29 28  0     1  0  0  0  0  0999 V2000
   -3.5781   -3.7296    1.2702 H   0  0  0  0  0  0  0  0  0  0  0  0
   -3.5311   -2.7616    0.7732 C   0  0  0  0  0  0  0  0  0  0  0  0
   -4.2371   -2.0766    1.2382 H   0  0  0  0  0  0  0  0  0  0  0  0
   -3.7681   -2.8816   -0.2818 H   0  0  0  0  0  0  0  0  0  0  0  0
   -2.1321   -2.2086    0.9112 C   0  0  0  0  0  0  0  0  0  0  0  0
   -1.2751   -2.8426    1.5112 O   0  0  0  0  0  0  0  0  0  0  0  0
   -1.9041   -1.0186    0.3602 N   0  0  0  0  0  0  0  0  0  0  0  0
   -2.6671   -0.5416   -0.0988 H   0  0  0  0  0  0  0  0  0  0  0  0
   -0.6131   -0.3236    0.3832 C   0  0  1  0  0  0  0  0  0  0  0  0
    0.0142   -0.7800    1.1506 H   0  0  0  0  0  0  0  0  0  0  0  0
    0.0816   -0.5059   -0.9788 C   0  0  0  0  0  0  0  0  0  0  0  0
   -0.4238   -1.3040   -1.5267 H   0  0  0  0  0  0  0  0  0  0  0  0
   -0.0109    0.4153   -1.5560 H   0  0  0  0  0  0  0  0  0  0  0  0
    1.5675   -0.8656   -0.8652 C   0  0  0  0  0  0  0  0  0  0  0  0
    1.7956   -1.6679   -1.5662 H   0  0  0  0  0  0  0  0  0  0  0  0
    2.1611    0.0103   -1.1293 H   0  0  0  0  0  0  0  0  0  0  0  0
    2.0578   -1.4102    0.7910 S   0  0  0  0  0  0  0  0  0  0  0  0
    1.8905    0.1520    1.6928 C   0  0  0  0  0  0  0  0  0  0  0  0
    0.8595    0.5021    1.6337 H   0  0  0  0  0  0  0  0  0  0  0  0
    2.1572   -0.0040    2.7385 H   0  0  0  0  0  0  0  0  0  0  0  0
    2.5563    0.8995    1.2605 H   0  0  0  0  0  0  0  0  0  0  0  0
   -0.8064    1.1568    0.7414 C   0  0  0  0  0  0  0  0  0  0  0  0
   -1.6978    1.8100    0.2029 O   0  0  0  0  0  0  0  0  0  0  0  0
    0.0314    1.6872    1.6415 N   0  0  0  0  0  0  0  0  0  0  0  0
    0.7279    1.0858    2.0517 H   0  0  0  0  0  0  0  0  0  0  0  0
   -0.0137    3.0826    2.0755 C   0  0  0  0  0  0  0  0  0  0  0  0
   -0.9991    3.3070    2.4905 H   0  0  0  0  0  0  0  0  0  0  0  0
    0.7468    3.2694    2.8349 H   0  0  0  0  0  0  0  0  0  0  0  0
    0.1592    3.7397    1.2213 H   0  0  0  0  0  0  0  0  0  0  0  0
  5  6  2  0  0  0  0
  5  7  1  0  0  0  0
  2  3  1  0  0  0  0
  2  4  1  0  0  0  0
  2  5  1  0  0  0  0
  1  2  1  0  0  0  0
 22 23  2  0  0  0  0
 22 24  1  0  0  0  0
 18 19  1  0  0  0  0
 18 20  1  0  0  0  0
 18 21  1  0  0  0  0
 17 18  1  0  0  0  0
 14 15  1  0  0  0  0
 14 16  1  0  0  0  0
 14 17  1  0  0  0  0
 11 12  1  0  0  0  0
 11 13  1  0  0  0  0
 11 14  1  0  0  0  0
  9 10  1  0  0  0  0
  9 11  1  0  0  0  0
  9 22  1  0  0  0  0
  7  8  1  0  0  0  0
  7  9  1  0  0  0  0
 26 27  1  0  0  0  0
 26 28  1  0  0  0  0
 26 29  1  0  0  0  0
 24 25  1  0  0  0  0
 24 26  1  0  0  0  0
M  END
$$$$
default_name
  -OEChem-02102213163D

 29 28  0     1  0  0  0  0  0999 V2000
   -3.5781   -3.7296    1.2702 H   0  0  0  0  0  0  0  0  0  0  0  0
   -3.5311   -2.7616    0.7732 C   0  0  0  0  0  0  0  0  0  0  0  0
   -4.2371   -2.0766    1.2382 H   0  0  0  0  0  0  0  0  0  0  0  0
   -3.7681   -2.8816   -0.2818 H   0  0  0  0  0  0  0  0  0  0  0  0
   -2.1321   -2.2086    0.9112 C   0  0  0  0  0  0  0  0  0  0  0  0
   -1.2751   -2.8426    1.5112 O   0  0  0  0  0  0  0  0  0  0  0  0
   -1.9041   -1.0186    0.3602 N   0  0  0  0  0  0  0  0  0  0  0  0
   -2.6671   -0.5416   -0.0988 H   0  0  0  0  0  0  0  0  0  0  0  0
   -0.6131   -0.3236    0.3832 C   0  0  1  0  0  0  0  0  0  0  0  0
    0.0142   -0.7800    1.1506 H   0  0  0  0  0  0  0  0  0  0  0  0
    0.0816   -0.5059   -0.9788 C   0  0  0  0  0  0  0  0  0  0  0  0
   -0.4238   -1.3040   -1.5267 H   0  0  0  0  0  0  0  0  0  0  0  0
   -0.0109    0.4153   -1.5560 H   0  0  0  0  0  0  0  0  0  0  0  0
    1.5675   -0.8656   -0.8652 C   0  0  0  0  0  0  0  0  0  0  0  0
    1.8576   -1.4632   -1.7288 H   0  0  0  0  0  0  0  0  0  0  0  0
    2.1517    0.0553   -0.8637 H   0  0  0  0  0  0  0  0  0  0  0  0
    1.9749   -1.8035    0.6295 S   0  0  0  0  0  0  0  0  0  0  0  0
    1.7133   -0.5203    1.8812 C   0  0  0  0  0  0  0  0  0  0  0  0
    0.6785   -0.1784    1.8466 H   0  0  0  0  0  0  0  0  0  0  0  0
    1.9227   -0.9311    2.8693 H   0  0  0  0  0  0  0  0  0  0  0  0
    2.3827    0.3195    1.6927 H   0  0  0  0  0  0  0  0  0  0  0  0
   -0.8064    1.1568    0.7414 C   0  0  0  0  0  0  0  0  0  0  0  0
   -1.6978    1.8100    0.2029 O   0  0  0  0  0  0  0  0  0  0  0  0
    0.0314    1.6872    1.6415 N   0  0  0  0  0  0  0  0  0  0  0  0
    0.7279    1.0858    2.0517 H   0  0  0  0  0  0  0  0  0  0  0  0
   -0.0137    3.0826    2.0755 C   0  0  0  0  0  0  0  0  0  0  0  0
   -0.9991    3.3070    2.4905 H   0  0  0  0  0  0  0  0  0  0  0  0
    0.7468    3.2694    2.8349 H   0  0  0  0  0  0  0  0  0  0  0  0
    0.1592    3.7397    1.2213 H   0  0  0  0  0  0  0  0  0  0  0  0
  5  6  2  0  0  0  0
  5  7  1  0  0  0  0
  2  3  1  0  0  0  0
  2  4  1  0  0  0  0
  2  5  1  0  0  0  0
  1  2  1  0  0  0  0
 22 23  2  0  0  0  0
 22 24  1  0  0  0  0
 18 19  1  0  0  0  0
 18 20  1  0  0  0  0
 18 21  1  0  0  0  0
 17 18  1  0  0  0  0
 14 15  1  0  0  0  0
 14 16  1  0  0  0  0
 14 17  1  0  0  0  0
 11 12  1  0  0  0  0
 11 13  1  0  0  0  0
 11 14  1  0  0  0  0
  9 10  1  0  0  0  0
  9 11  1  0  0  0  0
  9 22  1  0  0  0  0
  7  8  1  0  0  0  0
  7  9  1  0  0  0  0
 26 27  1  0  0  0  0
 26 28  1  0  0  0  0
 26 29  1  0  0  0  0
 24 25  1  0  0  0  0
 24 26  1  0  0  0  0
M  END
$$$$
default_name
  -OEChem-02102213163D

 29 28  0     1  0  0  0  0  0999 V2000
   -3.5781   -3.7296    1.2702 H   0  0  0  0  0  0  0  0  0  0  0  0
   -3.5311   -2.7616    0.7732 C   0  0  0  0  0  0  0  0  0  0  0  0
   -4.2371   -2.0766    1.2382 H   0  0  0  0  0  0  0  0  0  0  0  0
   -3.7681   -2.8816   -0.2818 H   0  0  0  0  0  0  0  0  0  0  0  0
   -2.1321   -2.2086    0.9112 C   0  0  0  0  0  0  0  0  0  0  0  0
   -1.2751   -2.8426    1.5112 O   0  0  0  0  0  0  0  0  0  0  0  0
   -1.9041   -1.0186    0.3602 N   0  0  0  0  0  0  0  0  0  0  0  0
   -2.6671   -0.5416   -0.0988 H   0  0  0  0  0  0  0  0  0  0  0  0
   -0.6131   -0.3236    0.3832 C   0  0  1  0  0  0  0  0  0  0  0  0
    0.0142   -0.7800    1.1506 H   0  0  0  0  0  0  0  0  0  0  0  0
    0.0816   -0.5059   -0.9788 C   0  0  0  0  0  0  0  0  0  0  0  0
   -0.4238   -1.3040   -1.5267 H   0  0  0  0  0  0  0  0  0  0  0  0
   -0.0109    0.4153   -1.5560 H   0  0  0  0  0  0  0  0  0  0  0  0
    1.5675   -0.8656   -0.8652 C   0  0  0  0  0  0  0  0  0  0  0  0
    1.9235   -1.2235   -1.8307 H   0  0  0  0  0  0  0  0  0  0  0  0
    2.1256    0.0320   -0.5963 H   0  0  0  0  0  0  0  0  0  0  0  0
    1.9122   -2.1444    0.3699 S   0  0  0  0  0  0  0  0  0  0  0  0
    1.5436   -1.2203    1.8838 C   0  0  0  0  0  0  0  0  0  0  0  0
    0.5037   -0.8925    1.8705 H   0  0  0  0  0  0  0  0  0  0  0  0
    1.7061   -1.8639    2.7488 H   0  0  0  0  0  0  0  0  0  0  0  0
    2.2000   -0.3525    1.9541 H   0  0  0  0  0  0  0  0  0  0  0  0
   -0.8064    1.1568    0.7414 C   0  0  0  0  0  0  0  0  0  0  0  0
   -1.6978    1.8100    0.2029 O   0  0  0  0  0  0  0  0  0  0  0  0
    0.0314    1.6872    1.6415 N   0  0  0  0  0  0  0  0  0  0  0  0
    0.7279    1.0858    2.0517 H   0  0  0  0  0  0  0  0  0  0  0  0
   -0.0137    3.0826    2.0755 C   0  0  0  0  0  0  0  0  0  0  0  0
   -0.9991    3.3070    2.4905 H   0  0  0  0  0  0  0  0  0  0  0  0
    0.7468    3.2694    2.8349 H   0  0  0  0  0  0  0  0  0  0  0  0
    0.1592    3.7397    1.2213 H   0  0  0  0  0  0  0  0  0  0  0  0
  5  6  2  0  0  0  0
  5  7  1  0  0  0  0
  2  3  1  0  0  0  0
  2  4  1  0  0  0  0
  2  5  1  0  0  0  0
  1  2  1  0  0  0  0
 22 23  2  0  0  0  0
 22 24  1  0  0  0  0
 18 19  1  0  0  0  0
 18 20  1  0  0  0  0
 18 21  1  0  0  0  0
 17 18  1  0  0  0  0
 14 15  1  0  0  0  0
 14 16  1  0  0  0  0
 14 17  1  0  0  0  0
 11 12  1  0  0  0  0
 11 13  1  0  0  0  0
 11 14  1  0  0  0  0
  9 10  1  0  0  0  0
  9 11  1  0  0  0  0
  9 22  1  0  0  0  0
  7  8  1  0  0  0  0
  7  9  1  0  0  0  0
 26 27  1  0  0  0  0
 26 28  1  0  0  0  0
 26 29  1  0  0  0  0
 24 25  1  0  0  0  0
 24 26  1  0  0  0  0
M  END
$$$$
default_name
  -OEChem-02102213163D

 29 28  0     1  0  0  0  0  0999 V2000
   -3.5781   -3.7296    1.2702 H   0  0  0  0  0  0  0  0  0  0  0  0
   -3.5311   -2.7616    0.7732 C   0  0  0  0  0  0  0  0  0  0  0  0
   -4.2371   -2.0766    1.2382 H   0  0  0  0  0  0  0  0  0  0  0  0
   -3.7681   -2.8816   -0.2818 H   0  0  0  0  0  0  0  0  0  0  0  0
   -2.1321   -2.2086    0.9112 C   0  0  0  0  0  0  0  0  0  0  0  0
   -1.2751   -2.8426    1.5112 O   0  0  0  0  0  0  0  0  0  0  0  0
   -1.9041   -1.0186    0.3602 N   0  0  0  0  0  0  0  0  0  0  0  0
   -2.6671   -0.5416   -0.0988 H   0  0  0  0  0  0  0  0  0  0  0  0
   -0.6131   -0.3236    0.3832 C   0  0  1  0  0  0  0  0  0  0  0  0
    0.0142   -0.7800    1.1506 H   0  0  0  0  0  0  0  0  0  0  0  0
    0.0816   -0.5059   -0.9788 C   0  0  0  0  0  0  0  0  0  0  0  0
   -0.4238   -1.3040   -1.5267 H   0  0  0  0  0  0  0  0  0  0  0  0
   -0.0109    0.4153   -1.5560 H   0  0  0  0  0  0  0  0  0  0  0  0
    1.5675   -0.8656   -0.8652 C   0  0  0  0  0  0  0  0  0  0  0  0
    1.9887   -0.9651   -1.8651 H   0  0  0  0  0  0  0  0  0  0  0  0
    2.0846   -0.0582   -0.3456 H   0  0  0  0  0  0  0  0  0  0  0  0
    1.8740   -2.4099    0.0298 S   0  0  0  0  0  0  0  0  0  0  0  0
    1.3930   -1.9004    1.7004 C   0  0  0  0  0  0  0  0  0  0  0  0
    0.3472   -1.5917    1.7038 H   0  0  0  0  0  0  0  0  0  0  0  0
    1.5220   -2.7389    2.3852 H   0  0  0  0  0  0  0  0  0  0  0  0
    2.0206   -1.0707    2.0269 H   0  0  0  0  0  0  0  0  0  0  0  0
   -0.8064    1.1568    0.7414 C   0  0  0  0  0  0  0  0  0  0  0  0
   -1.6978    1.8100    0.2029 O   0  0  0  0  0  0  0  0  0  0  0  0
    0.0314    1.6872    1.6415 N   0  0  0  0  0  0  0  0  0  0  0  0
    0.7279    1.0858    2.0517 H   0  0  0  0  0  0  0  0  0  0  0  0
   -0.0137    3.0826    2.0755 C   0  0  0  0  0  0  0  0  0  0  0  0
   -0.9991    3.3070    2.4905 H   0  0  0  0  0  0  0  0  0  0  0  0
    0.7468    3.2694    2.8349 H   0  0  0  0  0  0  0  0  0  0  0  0
    0.1592    3.7397    1.2213 H   0  0  0  0  0  0  0  0  0  0  0  0
  5  6  2  0  0  0  0
  5  7  1  0  0  0  0
  2  3  1  0  0  0  0
  2  4  1  0  0  0  0
  2  5  1  0  0  0  0
  1  2  1  0  0  0  0
 22 23  2  0  0  0  0
 22 24  1  0  0  0  0
 18 19  1  0  0  0  0
 18 20  1  0  0  0  0
 18 21  1  0  0  0  0
 17 18  1  0  0  0  0
 14 15  1  0  0  0  0
 14 16  1  0  0  0  0
 14 17  1  0  0  0  0
 11 12  1  0  0  0  0
 11 13  1  0  0  0  0
 11 14  1  0  0  0  0
  9 10  1  0  0  0  0
  9 11  1  0  0  0  0
  9 22  1  0  0  0  0
  7  8  1  0  0  0  0
  7  9  1  0  0  0  0
 26 27  1  0  0  0  0
 26 28  1  0  0  0  0
 26 29  1  0  0  0  0
 24 25  1  0  0  0  0
 24 26  1  0  0  0  0
M  END
$$$$
default_name
  -OEChem-02102213163D

 29 28  0     1  0  0  0  0  0999 V2000
   -3.5781   -3.7296    1.2702 H   0  0  0  0  0  0  0  0  0  0  0  0
   -3.5311   -2.7616    0.7732 C   0  0  0  0  0  0  0  0  0  0  0  0
   -4.2371   -2.0766    1.2382 H   0  0  0  0  0  0  0  0  0  0  0  0
   -3.7681   -2.8816   -0.2818 H   0  0  0  0  0  0  0  0  0  0  0  0
   -2.1321   -2.2086    0.9112 C   0  0  0  0  0  0  0  0  0  0  0  0
   -1.2751   -2.8426    1.5112 O   0  0  0  0  0  0  0  0  0  0  0  0
   -1.9041   -1.0186    0.3602 N   0  0  0  0  0  0  0  0  0  0  0  0
   -2.6671   -0.5416   -0.0988 H   0  0  0  0  0  0  0  0  0  0  0  0
   -0.6131   -0.3236    0.3832 C   0  0  1  0  0  0  0  0  0  0  0  0
    0.0142   -0.7800    1.1506 H   0  0  0  0  0  0  0  0  0  0  0  0
    0.0816   -0.5059   -0.9788 C   0  0  0  0  0  0  0  0  0  0  0  0
   -0.4238   -1.3040   -1.5267 H   0  0  0  0  0  0  0  0  0  0  0  0
   -0.0109    0.4153   -1.5560 H   0  0  0  0  0  0  0  0  0  0  0  0
    1.5675   -0.8656   -0.8652 C   0  0  0  0  0  0  0  0  0  0  0  0
    2.0487   -0.7056   -1.8295 H   0  0  0  0  0  0  0  0  0  0  0  0
    2.0315   -0.2089   -0.1284 H   0  0  0  0  0  0  0  0  0  0  0  0
    1.8628   -2.5817   -0.3676 S   0  0  0  0  0  0  0  0  0  0  0  0
    1.2717   -2.5142    1.3435 C   0  0  0  0  0  0  0  0  0  0  0  0
    0.2195   -2.2283    1.3580 H   0  0  0  0  0  0  0  0  0  0  0  0
    1.3831   -3.4965    1.8034 H   0  0  0  0  0  0  0  0  0  0  0  0
    1.8566   -1.7861    1.9062 H   0  0  0  0  0  0  0  0  0  0  0  0
   -0.8064    1.1568    0.7414 C   0  0  0  0  0  0  0  0  0  0  0  0
   -1.6978    1.8100    0.2029 O   0  0  0  0  0  0  0  0  0  0  0  0
    0.0314    1.6872    1.6415 N   0  0  0  0  0  0  0  0  0  0  0  0
    0.7279    1.0858    2.0517 H   0  0  0  0  0  0  0  0  0  0  0  0
   -0.0137    3.0826    2.0755 C   0  0  0  0  0  0  0  0  0  0  0  0
   -0.9991    3.3070    2.4905 H   0  0  0  0  0  0  0  0  0  0  0  0
    0.7468    3.2694    2.8349 H   0  0  0  0  0  0  0  0  0  0  0  0
    0.1592    3.7397    1.2213 H   0  0  0  0  0  0  0  0  0  0  0  0
  5  6  2  0  0  0  0
  5  7  1  0  0  0  0
  2  3  1  0  0  0  0
  2  4  1  0  0  0  0
  2  5  1  0  0  0  0
  1  2  1  0  0  0  0
 22 23  2  0  0  0  0
 22 24  1  0  0  0  0
 18 19  1  0  0  0  0
 18 20  1  0  0  0  0
 18 21  1  0  0  0  0
 17 18  1  0  0  0  0
 14 15  1  0  0  0  0
 14 16  1  0  0  0  0
 14 17  1  0  0  0  0
 11 12  1  0  0  0  0
 11 13  1  0  0  0  0
 11 14  1  0  0  0  0
  9 10  1  0  0  0  0
  9 11  1  0  0  0  0
  9 22  1  0  0  0  0
  7  8  1  0  0  0  0
  7  9  1  0  0  0  0
 26 27  1  0  0  0  0
 26 28  1  0  0  0  0
 26 29  1  0  0  0  0
 24 25  1  0  0  0  0
 24 26  1  0  0  0  0
M  END
$$$$
default_name
  -OEChem-02102213163D

 29 28  0     1  0  0  0  0  0999 V2000
   -3.5781   -3.7296    1.2702 H   0  0  0  0  0  0  0  0  0  0  0  0
   -3.5311   -2.7616    0.7732 C   0  0  0  0  0  0  0  0  0  0  0  0
   -4.2371   -2.0766    1.2382 H   0  0  0  0  0  0  0  0  0  0  0  0
   -3.7681   -2.8816   -0.2818 H   0  0  0  0  0  0  0  0  0  0  0  0
   -2.1321   -2.2086    0.9112 C   0  0  0  0  0  0  0  0  0  0  0  0
   -1.2751   -2.8426    1.5112 O   0  0  0  0  0  0  0  0  0  0  0  0
   -1.9041   -1.0186    0.3602 N   0  0  0  0  0  0  0  0  0  0  0  0
   -2.6671   -0.5416   -0.0988 H   0  0  0  0  0  0  0  0  0  0  0  0
   -0.6131   -0.3236    0.3832 C   0  0  1  0  0  0  0  0  0  0  0  0
    0.0142   -0.7800    1.1506 H   0  0  0  0  0  0  0  0  0  0  0  0
    0.0816   -0.5059   -0.9788 C   0  0  0  0  0  0  0  0  0  0  0  0
   -0.4238   -1.3040   -1.5267 H   0  0  0  0  0  0  0  0  0  0  0  0
   -0.0109    0.4153   -1.5560 H   0  0  0  0  0  0  0  0  0  0  0  0
    1.5675   -0.8656   -0.8652 C   0  0  0  0  0  0  0  0  0  0  0  0
    2.0997   -0.4628   -1.7263 H   0  0  0  0  0  0  0  0  0  0  0  0
    1.9699   -0.4100    0.0403 H   0  0  0  0  0  0  0  0  0  0  0  0
    1.8794   -2.6482   -0.7953 S   0  0  0  0  0  0  0  0  0  0  0  0
    1.1880   -3.0198    0.8374 C   0  0  0  0  0  0  0  0  0  0  0  0
    0.1294   -2.7588    0.8564 H   0  0  0  0  0  0  0  0  0  0  0  0
    1.2989   -4.0849    1.0429 H   0  0  0  0  0  0  0  0  0  0  0  0
    1.7193   -2.4501    1.6002 H   0  0  0  0  0  0  0  0  0  0  0  0
   -0.8064    1.1568    0.7414 C   0  0  0  0  0  0  0  0  0  0  0  0
   -1.6978    1.8100    0.2029 O   0  0  0  0  0  0  0  0  0  0  0  0
    0.0314    1.6872    1.6415 N   0  0  0  0  0  0  0  0  0  0  0  0
    0.7279    1.0858    2.0517 H   0  0  0  0  0  0  0  0  0  0  0  0
   -0.0137    3.0826    2.0755 C   0  0  0  0  0  0  0  0  0  0  0  0
   -0.9991    3.3070    2.4905 H   0  0  0  0  0  0  0  0  0  0  0  0
    0.7468    3.2694    2.8349 H   0  0  0  0  0  0  0  0  0  0  0  0
    0.1592    3.7397    1.2213 H   0  0  0  0  0  0  0  0  0  0  0  0
  5  6  2  0  0  0  0
  5  7  1  0  0  0  0
  2  3  1  0  0  0  0
  2  4  1  0  0  0  0
  2  5  1  0  0  0  0
  1  2  1  0  0  0  0
 22 23  2  0  0  0  0
 22 24  1  0  0  0  0
 18 19  1  0  0  0  0
 18 20  1  0  0  0  0
 18 21  1  0  0  0  0
 17 18  1  0  0  0  0
 14 15  1  0  0  0  0
 14 16  1  0  0  0  0
 14 17  1  0  0  0  0
 11 12  1  0  0  0  0
 11 13  1  0  0  0  0
 11 14  1  0  0  0  0
  9 10  1  0  0  0  0
  9 11  1  0  0  0  0
  9 22  1  0  0  0  0
  7  8  1  0  0  0  0
  7  9  1  0  0  0  0
 26 27  1  0  0  0  0
 26 28  1  0  0  0  0
 26 29  1  0  0  0  0
 24 25  1  0  0  0  0
 24 26  1  0  0  0  0
M  END
$$$$
default_name
  -OEChem-02102213163D

 29 28  0     1  0  0  0  0  0999 V2000
   -3.5781   -3.7296    1.2702 H   0  0  0  0  0  0  0  0  0  0  0  0
   -3.5311   -2.7616    0.7732 C   0  0  0  0  0  0  0  0  0  0  0  0
   -4.2371   -2.0766    1.2382 H   0  0  0  0  0  0  0  0  0  0  0  0
   -3.7681   -2.8816   -0.2818 H   0  0  0  0  0  0  0  0  0  0  0  0
   -2.1321   -2.2086    0.9112 C   0  0  0  0  0  0  0  0  0  0  0  0
   -1.2751   -2.8426    1.5112 O   0  0  0  0  0  0  0  0  0  0  0  0
   -1.9041   -1.0186    0.3602 N   0  0  0  0  0  0  0  0  0  0  0  0
   -2.6671   -0.5416   -0.0988 H   0  0  0  0  0  0  0  0  0  0  0  0
   -0.6131   -0.3236    0.3832 C   0  0  1  0  0  0  0  0  0  0  0  0
    0.0142   -0.7800    1.1506 H   0  0  0  0  0  0  0  0  0  0  0  0
    0.0816   -0.5059   -0.9788 C   0  0  0  0  0  0  0  0  0  0  0  0
   -0.4238   -1.3040   -1.5267 H   0  0  0  0  0  0  0  0  0  0  0  0
   -0.0109    0.4153   -1.5560 H   0  0  0  0  0  0  0  0  0  0  0  0
    1.5675   -0.8656   -0.8652 C   0  0  0  0  0  0  0  0  0  0  0  0
    2.1379   -0.2531   -1.5627 H   0  0  0  0  0  0  0  0  0  0  0  0
    1.9040   -0.6477    0.1491 H   0  0  0  0  0  0  0  0  0  0  0  0
    1.9227   -2.6048   -1.2241 S   0  0  0  0  0  0  0  0  0  0  0  0
    1.1476   -3.3829    0.2166 C   0  0  0  0  0  0  0  0  0  0  0  0
    0.0831   -3.1472    0.2334 H   0  0  0  0  0  0  0  0  0  0  0  0
    1.2749   -4.4641    0.1556 H   0  0  0  0  0  0  0  0  0  0  0  0
    1.6179   -3.0172    1.1297 H   0  0  0  0  0  0  0  0  0  0  0  0
   -0.8064    1.1568    0.7414 C   0  0  0  0  0  0  0  0  0  0  0  0
   -1.6978    1.8100    0.2029 O   0  0  0  0  0  0  0  0  0  0  0  0
    0.0314    1.6872    1.6415 N   0  0  0  0  0  0  0  0  0  0  0  0
    0.7279    1.0858    2.0517 H   0  0  0  0  0  0  0  0  0  0  0  0
   -0.0137    3.0826    2.0755 C   0  0  0  0  0  0  0  0  0  0  0  0
   -0.9991    3.3070    2.4905 H   0  0  0  0  0  0  0  0  0  0  0  0
    0.7468    3.2694    2.8349 H   0  0  0  0  0  0  0  0  0  0  0  0
    0.1592    3.7397    1.2213 H   0  0  0  0  0  0  0  0  0  0  0  0
  5  6  2  0  0  0  0
  5  7  1  0  0  0  0
  2  3  1  0  0  0  0
  2  4  1  0  0  0  0
  2  5  1  0  0  0  0
  1  2  1  0  0  0  0
 22 23  2  0  0  0  0
 22 24  1  0  0  0  0
 18 19  1  0  0  0  0
 18 20  1  0  0  0  0
 18 21  1  0  0  0  0
 17 18  1  0  0  0  0
 14 15  1  0  0  0  0
 14 16  1  0  0  0  0
 14 17  1  0  0  0  0
 11 12  1  0  0  0  0
 11 13  1  0  0  0  0
 11 14  1  0  0  0  0
  9 10  1  0  0  0  0
  9 11  1  0  0  0  0
  9 22  1  0  0  0  0
  7  8  1  0  0  0  0
  7  9  1  0  0  0  0
 26 27  1  0  0  0  0
 26 28  1  0  0  0  0
 26 29  1  0  0  0  0
 24 25  1  0  0  0  0
 24 26  1  0  0  0  0
M  END
$$$$
default_name
  -OEChem-02102213163D

 29 28  0     1  0  0  0  0  0999 V2000
   -3.5781   -3.7296    1.2702 H   0  0  0  0  0  0  0  0  0  0  0  0
   -3.5311   -2.7616    0.7732 C   0  0  0  0  0  0  0  0  0  0  0  0
   -4.2371   -2.0766    1.2382 H   0  0  0  0  0  0  0  0  0  0  0  0
   -3.7681   -2.8816   -0.2818 H   0  0  0  0  0  0  0  0  0  0  0  0
   -2.1321   -2.2086    0.9112 C   0  0  0  0  0  0  0  0  0  0  0  0
   -1.2751   -2.8426    1.5112 O   0  0  0  0  0  0  0  0  0  0  0  0
   -1.9041   -1.0186    0.3602 N   0  0  0  0  0  0  0  0  0  0  0  0
   -2.6671   -0.5416   -0.0988 H   0  0  0  0  0  0  0  0  0  0  0  0
   -0.6131   -0.3236    0.3832 C   0  0  1  0  0  0  0  0  0  0  0  0
    0.0142   -0.7800    1.1506 H   0  0  0  0  0  0  0  0  0  0  0  0
    0.0816   -0.5059   -0.9788 C   0  0  0  0  0  0  0  0  0  0  0  0
   -0.4238   -1.3040   -1.5267 H   0  0  0  0  0  0  0  0  0  0  0  0
   -0.0109    0.4153   -1.5560 H   0  0  0  0  0  0  0  0  0  0  0  0
    1.5675   -0.8656   -0.8652 C   0  0  0  0  0  0  0  0  0  0  0  0
    2.1609   -0.0909   -1.3497 H   0  0  0  0  0  0  0  0  0  0  0  0
    1.8383   -0.9059    0.1905 H   0  0  0  0  0  0  0  0  0  0  0  0
    1.9898   -2.4545   -1.6247 S   0  0  0  0  0  0  0  0  0  0  0  0
    1.1532   -3.5787   -0.4766 C   0  0  0  0  0  0  0  0  0  0  0  0
    0.0836   -3.3670   -0.4686 H   0  0  0  0  0  0  0  0  0  0  0  0
    1.3130   -4.6082   -0.7980 H   0  0  0  0  0  0  0  0  0  0  0  0
    1.5595   -3.4490    0.5268 H   0  0  0  0  0  0  0  0  0  0  0  0
   -0.8064    1.1568    0.7414 C   0  0  0  0  0  0  0  0  0  0  0  0
   -1.6978    1.8100    0.2029 O   0  0  0  0  0  0  0  0  0  0  0  0
    0.0314    1.6872    1.6415 N   0  0  0  0  0  0  0  0  0  0  0  0
    0.7279    1.0858    2.0517 H   0  0  0  0  0  0  0  0  0  0  0  0
   -0.0137    3.0826    2.0755 C   0  0  0  0  0  0  0  0  0  0  0  0
   -0.9991    3.3070    2.4905 H   0  0  0  0  0  0  0  0  0  0  0  0
    0.7468    3.2694    2.8349 H   0  0  0  0  0  0  0  0  0  0  0  0
    0.1592    3.7397    1.2213 H   0  0  0  0  0  0  0  0  0  0  0  0
  5  6  2  0  0  0  0
  5  7  1  0  0  0  0
  2  3  1  0  0  0  0
  2  4  1  0  0  0  0
  2  5  1  0  0  0  0
  1  2  1  0  0  0  0
 22 23  2  0  0  0  0
 22 24  1  0  0  0  0
 18 19  1  0  0  0  0
 18 20  1  0  0  0  0
 18 21  1  0  0  0  0
 17 18  1  0  0  0  0
 14 15  1  0  0  0  0
 14 16  1  0  0  0  0
 14 17  1  0  0  0  0
 11 12  1  0  0  0  0
 11 13  1  0  0  0  0
 11 14  1  0  0  0  0
  9 10  1  0  0  0  0
  9 11  1  0  0  0  0
  9 22  1  0  0  0  0
  7  8  1  0  0  0  0
  7  9  1  0  0  0  0
 26 27  1  0  0  0  0
 26 28  1  0  0  0  0
 26 29  1  0  0  0  0
 24 25  1  0  0  0  0
 24 26  1  0  0  0  0
M  END
$$$$
default_name
  -OEChem-02102213163D

 29 28  0     1  0  0  0  0  0999 V2000
   -3.5781   -3.7296    1.2702 H   0  0  0  0  0  0  0  0  0  0  0  0
   -3.5311   -2.7616    0.7732 C   0  0  0  0  0  0  0  0  0  0  0  0
   -4.2371   -2.0766    1.2382 H   0  0  0  0  0  0  0  0  0  0  0  0
   -3.7681   -2.8816   -0.2818 H   0  0  0  0  0  0  0  0  0  0  0  0
   -2.1321   -2.2086    0.9112 C   0  0  0  0  0  0  0  0  0  0  0  0
   -1.2751   -2.8426    1.5112 O   0  0  0  0  0  0  0  0  0  0  0  0
   -1.9041   -1.0186    0.3602 N   0  0  0  0  0  0  0  0  0  0  0  0
   -2.6671   -0.5416   -0.0988 H   0  0  0  0  0  0  0  0  0  0  0  0
   -0.6131   -0.3236    0.3832 C   0  0  1  0  0  0  0  0  0  0  0  0
    0.0142   -0.7800    1.1506 H   0  0  0  0  0  0  0  0  0  0  0  0
    0.0816   -0.5059   -0.9788 C   0  0  0  0  0  0  0  0  0  0  0  0
   -0.4238   -1.3040   -1.5267 H   0  0  0  0  0  0  0  0  0  0  0  0
   -0.0109    0.4153   -1.5560 H   0  0  0  0  0  0  0  0  0  0  0  0
    1.5675   -0.8656   -0.8652 C   0  0  0  0  0  0  0  0  0  0  0  0
    2.1670    0.0128   -1.1019 H   0  0  0  0  0  0  0  0  0  0  0  0
    1.7773   -1.1670    0.1618 H   0  0  0  0  0  0  0  0  0  0  0  0
    2.0760   -2.2075   -1.9699 S   0  0  0  0  0  0  0  0  0  0  0  0
    1.2045   -3.5937   -1.1949 C   0  0  0  0  0  0  0  0  0  0  0  0
    0.1309   -3.4031   -1.2018 H   0  0  0  0  0  0  0  0  0  0  0  0
    1.4105   -4.5075   -1.7530 H   0  0  0  0  0  0  0  0  0  0  0  0
    1.5480   -3.7159   -0.1674 H   0  0  0  0  0  0  0  0  0  0  0  0
   -0.8064    1.1568    0.7414 C   0  0  0  0  0  0  0  0  0  0  0  0
   -1.6978    1.8100    0.2029 O   0  0  0  0  0  0  0  0  0  0  0  0
    0.0314    1.6872    1.6415 N   0  0  0  0  0  0  0  0  0  0  0  0
    0.7279    1.0858    2.0517 H   0  0  0  0  0  0  0  0  0  0  0  0
   -0.0137    3.0826    2.0755 C   0  0  0  0  0  0  0  0  0  0  0  0
   -0.9991    3.3070    2.4905 H   0  0  0  0  0  0  0  0  0  0  0  0
    0.7468    3.2694    2.8349 H   0  0  0  0  0  0  0  0  0  0  0  0
    0.1592    3.7397    1.2213 H   0  0  0  0  0  0  0  0  0  0  0  0
  5  6  2  0  0  0  0
  5  7  1  0  0  0  0
  2  3  1  0  0  0  0
  2  4  1  0  0  0  0
  2  5  1  0  0  0  0
  1  2  1  0  0  0  0
 22 23  2  0  0  0  0
 22 24  1  0  0  0  0
 18 19  1  0  0  0  0
 18 20  1  0  0  0  0
 18 21  1  0  0  0  0
 17 18  1  0  0  0  0
 14 15  1  0  0  0  0
 14 16  1  0  0  0  0
 14 17  1  0  0  0  0
 11 12  1  0  0  0  0
 11 13  1  0  0  0  0
 11 14  1  0  0  0  0
  9 10  1  0  0  0  0
  9 11  1  0  0  0  0
  9 22  1  0  0  0  0
  7  8  1  0  0  0  0
  7  9  1  0  0  0  0
 26 27  1  0  0  0  0
 26 28  1  0  0  0  0
 26 29  1  0  0  0  0
 24 25  1  0  0  0  0
 24 26  1  0  0  0  0
M  END
$$$$
default_name
  -OEChem-02102213163D

 29 28  0     1  0  0  0  0  0999 V2000
   -3.5781   -3.7296    1.2702 H   0  0  0  0  0  0  0  0  0  0  0  0
   -3.5311   -2.7616    0.7732 C   0  0  0  0  0  0  0  0  0  0  0  0
   -4.2371   -2.0766    1.2382 H   0  0  0  0  0  0  0  0  0  0  0  0
   -3.7681   -2.8816   -0.2818 H   0  0  0  0  0  0  0  0  0  0  0  0
   -2.1321   -2.2086    0.9112 C   0  0  0  0  0  0  0  0  0  0  0  0
   -1.2751   -2.8426    1.5112 O   0  0  0  0  0  0  0  0  0  0  0  0
   -1.9041   -1.0186    0.3602 N   0  0  0  0  0  0  0  0  0  0  0  0
   -2.6671   -0.5416   -0.0988 H   0  0  0  0  0  0  0  0  0  0  0  0
   -0.6131   -0.3236    0.3832 C   0  0  1  0  0  0  0  0  0  0  0  0
    0.0142   -0.7800    1.1506 H   0  0  0  0  0  0  0  0  0  0  0  0
    0.0816   -0.5059   -0.9788 C   0  0  0  0  0  0  0  0  0  0  0  0
   -0.4238   -1.3040   -1.5267 H   0  0  0  0  0  0  0  0  0  0  0  0
   -0.0109    0.4153   -1.5560 H   0  0  0  0  0  0  0  0  0  0  0  0
    1.5675   -0.8656   -0.8652 C   0  0  0  0  0  0  0  0  0  0  0  0
    2.1559    0.0509   -0.8362 H   0  0  0  0  0  0  0  0  0  0  0  0
    1.7251   -1.4131    0.0648 H   0  0  0  0  0  0  0  0  0  0  0  0
    2.1755   -1.8807   -2.2362 S   0  0  0  0  0  0  0  0  0  0  0  0
    1.2980   -3.4271   -1.8895 C   0  0  0  0  0  0  0  0  0  0  0  0
    0.2219   -3.2532   -1.9163 H   0  0  0  0  0  0  0  0  0  0  0  0
    1.5607   -4.1688   -2.6443 H   0  0  0  0  0  0  0  0  0  0  0  0
    1.5842   -3.7998   -0.9056 H   0  0  0  0  0  0  0  0  0  0  0  0
   -0.8064    1.1568    0.7414 C   0  0  0  0  0  0  0  0  0  0  0  0
   -1.6978    1.8100    0.2029 O   0  0  0  0  0  0  0  0  0  0  0  0
    0.0314    1.6872    1.6415 N   0  0  0  0  0  0  0  0  0  0  0  0
    0.7279    1.0858    2.0517 H   0  0  0  0  0  0  0  0  0  0  0  0
   -0.0137    3.0826    2.0755 C   0  0  0  0  0  0  0  0  0  0  0  0
   -0.9991    3.3070    2.4905 H   0  0  0  0  0  0  0  0  0  0  0  0
    0.7468    3.2694    2.8349 H   0  0  0  0  0  0  0  0  0  0  0  0
    0.1592    3.7397    1.2213 H   0  0  0  0  0  0  0  0  0  0  0  0
  5  6  2  0  0  0  0
  5  7  1  0  0  0  0
  2  3  1  0  0  0  0
  2  4  1  0  0  0  0
  2  5  1  0  0  0  0
  1  2  1  0  0  0  0
 22 23  2  0  0  0  0
 22 24  1  0  0  0  0
 18 19  1  0  0  0  0
 18 20  1  0  0  0  0
 18 21  1  0  0  0  0
 17 18  1  0  0  0  0
 14 15  1  0  0  0  0
 14 16  1  0  0  0  0
 14 17  1  0  0  0  0
 11 12  1  0  0  0  0
 11 13  1  0  0  0  0
 11 14  1  0  0  0  0
  9 10  1  0  0  0  0
  9 11  1  0  0  0  0
  9 22  1  0  0  0  0
  7  8  1  0  0  0  0
  7  9  1  0  0  0  0
 26 27  1  0  0  0  0
 26 28  1  0  0  0  0
 26 29  1  0  0  0  0
 24 25  1  0  0  0  0
 24 26  1  0  0  0  0
M  END
$$$$
default_name
  -OEChem-02102213163D

 29 28  0     1  0  0  0  0  0999 V2000
   -3.5781   -3.7296    1.2702 H   0  0  0  0  0  0  0  0  0  0  0  0
   -3.5311   -2.7616    0.7732 C   0  0  0  0  0  0  0  0  0  0  0  0
   -4.2371   -2.0766    1.2382 H   0  0  0  0  0  0  0  0  0  0  0  0
   -3.7681   -2.8816   -0.2818 H   0  0  0  0  0  0  0  0  0  0  0  0
   -2.1321   -2.2086    0.9112 C   0  0  0  0  0  0  0  0  0  0  0  0
   -1.2751   -2.8426    1.5112 O   0  0  0  0  0  0  0  0  0  0  0  0
   -1.9041   -1.0186    0.3602 N   0  0  0  0  0  0  0  0  0  0  0  0
   -2.6671   -0.5416   -0.0988 H   0  0  0  0  0  0  0  0  0  0  0  0
   -0.6131   -0.3236    0.3832 C   0  0  1  0  0  0  0  0  0  0  0  0
    0.0142   -0.7800    1.1506 H   0  0  0  0  0  0  0  0  0  0  0  0
    0.0816   -0.5059   -0.9788 C   0  0  0  0  0  0  0  0  0  0  0  0
   -0.4238   -1.3040   -1.5267 H   0  0  0  0  0  0  0  0  0  0  0  0
   -0.0109    0.4153   -1.5560 H   0  0  0  0  0  0  0  0  0  0  0  0
    1.5675   -0.8656   -0.8652 C   0  0  0  0  0  0  0  0  0  0  0  0
    2.1283    0.0209   -0.5706 H   0  0  0  0  0  0  0  0  0  0  0  0
    1.6854   -1.6275   -0.0938 H   0  0  0  0  0  0  0  0  0  0  0  0
    2.2815   -1.4963   -2.4053 S   0  0  0  0  0  0  0  0  0  0  0  0
    1.4273   -3.0902   -2.5128 C   0  0  0  0  0  0  0  0  0  0  0  0
    0.3503   -2.9274   -2.5632 H   0  0  0  0  0  0  0  0  0  0  0  0
    1.7534   -3.6152   -3.4111 H   0  0  0  0  0  0  0  0  0  0  0  0
    1.6656   -3.6950   -1.6375 H   0  0  0  0  0  0  0  0  0  0  0  0
   -0.8064    1.1568    0.7414 C   0  0  0  0  0  0  0  0  0  0  0  0
   -1.6978    1.8100    0.2029 O   0  0  0  0  0  0  0  0  0  0  0  0
    0.0314    1.6872    1.6415 N   0  0  0  0  0  0  0  0  0  0  0  0
    0.7279    1.0858    2.0517 H   0  0  0  0  0  0  0  0  0  0  0  0
   -0.0137    3.0826    2.0755 C   0  0  0  0  0  0  0  0  0  0  0  0
   -0.9991    3.3070    2.4905 H   0  0  0  0  0  0  0  0  0  0  0  0
    0.7468    3.2694    2.8349 H   0  0  0  0  0  0  0  0  0  0  0  0
    0.1592    3.7397    1.2213 H   0  0  0  0  0  0  0  0  0  0  0  0
  5  6  2  0  0  0  0
  5  7  1  0  0  0  0
  2  3  1  0  0  0  0
  2  4  1  0  0  0  0
  2  5  1  0  0  0  0
  1  2  1  0  0  0  0
 22 23  2  0  0  0  0
 22 24  1  0  0  0  0
 18 19  1  0  0  0  0
 18 20  1  0  0  0  0
 18 21  1  0  0  0  0
 17 18  1  0  0  0  0
 14 15  1  0  0  0  0
 14 16  1  0  0  0  0
 14 17  1  0  0  0  0
 11 12  1  0  0  0  0
 11 13  1  0  0  0  0
 11 14  1  0  0  0  0
  9 10  1  0  0  0  0
  9 11  1  0  0  0  0
  9 22  1  0  0  0  0
  7  8  1  0  0  0  0
  7  9  1  0  0  0  0
 26 27  1  0  0  0  0
 26 28  1  0  0  0  0
 26 29  1  0  0  0  0
 24 25  1  0  0  0  0
 24 26  1  0  0  0  0
M  END
$$$$
default_name
  -OEChem-02102213163D

 29 28  0     1  0  0  0  0  0999 V2000
   -3.5781   -3.7296    1.2702 H   0  0  0  0  0  0  0  0  0  0  0  0
   -3.5311   -2.7616    0.7732 C   0  0  0  0  0  0  0  0  0  0  0  0
   -4.2371   -2.0766    1.2382 H   0  0  0  0  0  0  0  0  0  0  0  0
   -3.7681   -2.8816   -0.2818 H   0  0  0  0  0  0  0  0  0  0  0  0
   -2.1321   -2.2086    0.9112 C   0  0  0  0  0  0  0  0  0  0  0  0
   -1.2751   -2.8426    1.5112 O   0  0  0  0  0  0  0  0  0  0  0  0
   -1.9041   -1.0186    0.3602 N   0  0  0  0  0  0  0  0  0  0  0  0
   -2.6671   -0.5416   -0.0988 H   0  0  0  0  0  0  0  0  0  0  0  0
   -0.6131   -0.3236    0.3832 C   0  0  1  0  0  0  0  0  0  0  0  0
    0.0142   -0.7800    1.1506 H   0  0  0  0  0  0  0  0  0  0  0  0
    0.0816   -0.5059   -0.9788 C   0  0  0  0  0  0  0  0  0  0  0  0
   -0.5672   -1.0986   -1.6273 H   0  0  0  0  0  0  0  0  0  0  0  0
    0.2264    0.4710   -1.4425 H   0  0  0  0  0  0  0  0  0  0  0  0
    1.4404   -1.2093   -0.8840 C   0  0  0  0  0  0  0  0  0  0  0  0
    2.1005   -0.6266   -0.2422 H   0  0  0  0  0  0  0  0  0  0  0  0
    1.2950   -2.1931   -0.4364 H   0  0  0  0  0  0  0  0  0  0  0  0
    2.2595   -1.4249   -2.4847 S   0  0  0  0  0  0  0  0  0  0  0  0
    1.1562   -2.6505   -3.2345 C   0  0  0  0  0  0  0  0  0  0  0  0
    0.1484   -2.2411   -3.3093 H   0  0  0  0  0  0  0  0  0  0  0  0
    1.5176   -2.8993   -4.2327 H   0  0  0  0  0  0  0  0  0  0  0  0
    1.1401   -3.5535   -2.6236 H   0  0  0  0  0  0  0  0  0  0  0  0
   -0.8064    1.1568    0.7414 C   0  0  0  0  0  0  0  0  0  0  0  0
   -1.6978    1.8100    0.2029 O   0  0  0  0  0  0  0  0  0  0  0  0
    0.0314    1.6872    1.6415 N   0  0  0  0  0  0  0  0  0  0  0  0
    0.7279    1.0858    2.0517 H   0  0  0  0  0  0  0  0  0  0  0  0
   -0.0137    3.0826    2.0755 C   0  0  0  0  0  0  0  0  0  0  0  0
   -0.9991    3.3070    2.4905 H   0  0  0  0  0  0  0  0  0  0  0  0
    0.7468    3.2694    2.8349 H   0  0  0  0  0  0  0  0  0  0  0  0
    0.1592    3.7397    1.2213 H   0  0  0  0  0  0  0  0  0  0  0  0
  5  6  2  0  0  0  0
  5  7  1  0  0  0  0
  2  3  1  0  0  0  0
  2  4  1  0  0  0  0
  2  5  1  0  0  0  0
  1  2  1  0  0  0  0
 22 23  2  0  0  0  0
 22 24  1  0  0  0  0
 18 19  1  0  0  0  0
 18 20  1  0  0  0  0
 18 21  1  0  0  0  0
 17 18  1  0  0  0  0
 14 15  1  0  0  0  0
 14 16  1  0  0  0  0
 14 17  1  0  0  0  0
 11 12  1  0  0  0  0
 11 13  1  0  0  0  0
 11 14  1  0  0  0  0
  9 10  1  0  0  0  0
  9 11  1  0  0  0  0
  9 22  1  0  0  0  0
  7  8  1  0  0  0  0
  7  9  1  0  0  0  0
 26 27  1  0  0  0  0
 26 28  1  0  0  0  0
 26 29  1  0  0  0  0
 24 25  1  0  0  0  0
 24 26  1  0  0  0  0
M  END
$$$$
default_name
  -OEChem-02102213163D

 29 28  0     1  0  0  0  0  0999 V2000
   -3.5781   -3.7296    1.2702 H   0  0  0  0  0  0  0  0  0  0  0  0
   -3.5311   -2.7616    0.7732 C   0  0  0  0  0  0  0  0  0  0  0  0
   -4.2371   -2.0766    1.2382 H   0  0  0  0  0  0  0  0  0  0  0  0
   -3.7681   -2.8816   -0.2818 H   0  0  0  0  0  0  0  0  0  0  0  0
   -2.1321   -2.2086    0.9112 C   0  0  0  0  0  0  0  0  0  0  0  0
   -1.2751   -2.8426    1.5112 O   0  0  0  0  0  0  0  0  0  0  0  0
   -1.9041   -1.0186    0.3602 N   0  0  0  0  0  0  0  0  0  0  0  0
   -2.6671   -0.5416   -0.0988 H   0  0  0  0  0  0  0  0  0  0  0  0
   -0.6131   -0.3236    0.3832 C   0  0  1  0  0  0  0  0  0  0  0  0
    0.0142   -0.7800    1.1506 H   0  0  0  0  0  0  0  0  0  0  0  0
    0.0816   -0.5059   -0.9788 C   0  0  0  0  0  0  0  0  0  0  0  0
   -0.5672   -1.0986   -1.6273 H   0  0  0  0  0  0  0  0  0  0  0  0
    0.2264    0.4710   -1.4425 H   0  0  0  0  0  0  0  0  0  0  0  0
    1.4404   -1.2093   -0.8840 C   0  0  0  0  0  0  0  0  0  0  0  0
    2.0033   -0.7887   -0.0512 H   0  0  0  0  0  0  0  0  0  0  0  0
    1.2731   -2.2701   -0.6939 H   0  0  0  0  0  0  0  0  0  0  0  0
    2.4471   -1.0485   -2.3808 S   0  0  0  0  0  0  0  0  0  0  0  0
    1.4761   -2.0709   -3.5183 C   0  0  0  0  0  0  0  0  0  0  0  0
    0.4722   -1.6574   -3.6185 H   0  0  0  0  0  0  0  0  0  0  0  0
    1.9590   -2.0822   -4.4958 H   0  0  0  0  0  0  0  0  0  0  0  0
    1.4157   -3.0903   -3.1362 H   0  0  0  0  0  0  0  0  0  0  0  0
   -0.8064    1.1568    0.7414 C   0  0  0  0  0  0  0  0  0  0  0  0
   -1.6978    1.8100    0.2029 O   0  0  0  0  0  0  0  0  0  0  0  0
    0.0314    1.6872    1.6415 N   0  0  0  0  0  0  0  0  0  0  0  0
    0.7279    1.0858    2.0517 H   0  0  0  0  0  0  0  0  0  0  0  0
   -0.0137    3.0826    2.0755 C   0  0  0  0  0  0  0  0  0  0  0  0
   -0.9991    3.3070    2.4905 H   0  0  0  0  0  0  0  0  0  0  0  0
    0.7468    3.2694    2.8349 H   0  0  0  0  0  0  0  0  0  0  0  0
    0.1592    3.7397    1.2213 H   0  0  0  0  0  0  0  0  0  0  0  0
  5  6  2  0  0  0  0
  5  7  1  0  0  0  0
  2  3  1  0  0  0  0
  2  4  1  0  0  0  0
  2  5  1  0  0  0  0
  1  2  1  0  0  0  0
 22 23  2  0  0  0  0
 22 24  1  0  0  0  0
 18 19  1  0  0  0  0
 18 20  1  0  0  0  0
 18 21  1  0  0  0  0
 17 18  1  0  0  0  0
 14 15  1  0  0  0  0
 14 16  1  0  0  0  0
 14 17  1  0  0  0  0
 11 12  1  0  0  0  0
 11 13  1  0  0  0  0
 11 14  1  0  0  0  0
  9 10  1  0  0  0  0
  9 11  1  0  0  0  0
  9 22  1  0  0  0  0
  7  8  1  0  0  0  0
  7  9  1  0  0  0  0
 26 27  1  0  0  0  0
 26 28  1  0  0  0  0
 26 29  1  0  0  0  0
 24 25  1  0  0  0  0
 24 26  1  0  0  0  0
M  END
$$$$
default_name
  -OEChem-02102213163D

 29 28  0     1  0  0  0  0  0999 V2000
   -3.5781   -3.7296    1.2702 H   0  0  0  0  0  0  0  0  0  0  0  0
   -3.5311   -2.7616    0.7732 C   0  0  0  0  0  0  0  0  0  0  0  0
   -4.2371   -2.0766    1.2382 H   0  0  0  0  0  0  0  0  0  0  0  0
   -3.7681   -2.8816   -0.2818 H   0  0  0  0  0  0  0  0  0  0  0  0
   -2.1321   -2.2086    0.9112 C   0  0  0  0  0  0  0  0  0  0  0  0
   -1.2751   -2.8426    1.5112 O   0  0  0  0  0  0  0  0  0  0  0  0
   -1.9041   -1.0186    0.3602 N   0  0  0  0  0  0  0  0  0  0  0  0
   -2.6671   -0.5416   -0.0988 H   0  0  0  0  0  0  0  0  0  0  0  0
   -0.6131   -0.3236    0.3832 C   0  0  1  0  0  0  0  0  0  0  0  0
    0.0142   -0.7800    1.1506 H   0  0  0  0  0  0  0  0  0  0  0  0
    0.0816   -0.5059   -0.9788 C   0  0  0  0  0  0  0  0  0  0  0  0
   -0.5672   -1.0986   -1.6273 H   0  0  0  0  0  0  0  0  0  0  0  0
    0.2264    0.4710   -1.4425 H   0  0  0  0  0  0  0  0  0  0  0  0
    1.4404   -1.2093   -0.8840 C   0  0  0  0  0  0  0  0  0  0  0  0
    1.8892   -0.9906    0.0845 H   0  0  0  0  0  0  0  0  0  0  0  0
    1.2838   -2.2857   -0.9628 H   0  0  0  0  0  0  0  0  0  0  0  0
    2.6099   -0.7059   -2.1718 S   0  0  0  0  0  0  0  0  0  0  0  0
    1.8095   -1.4408   -3.6214 C   0  0  0  0  0  0  0  0  0  0  0  0
    0.8123   -1.0174   -3.7449 H   0  0  0  0  0  0  0  0  0  0  0  0
    2.4034   -1.2256   -4.5101 H   0  0  0  0  0  0  0  0  0  0  0  0
    1.7353   -2.5209   -3.4925 H   0  0  0  0  0  0  0  0  0  0  0  0
   -0.8064    1.1568    0.7414 C   0  0  0  0  0  0  0  0  0  0  0  0
   -1.6978    1.8100    0.2029 O   0  0  0  0  0  0  0  0  0  0  0  0
    0.0314    1.6872    1.6415 N   0  0  0  0  0  0  0  0  0  0  0  0
    0.7279    1.0858    2.0517 H   0  0  0  0  0  0  0  0  0  0  0  0
   -0.0137    3.0826    2.0755 C   0  0  0  0  0  0  0  0  0  0  0  0
   -0.9991    3.3070    2.4905 H   0  0  0  0  0  0  0  0  0  0  0  0
    0.7468    3.2694    2.8349 H   0  0  0  0  0  0  0  0  0  0  0  0
    0.1592    3.7397    1.2213 H   0  0  0  0  0  0  0  0  0  0  0  0
  5  6  2  0  0  0  0
  5  7  1  0  0  0  0
  2  3  1  0  0  0  0
  2  4  1  0  0  0  0
  2  5  1  0  0  0  0
  1  2  1  0  0  0  0
 22 23  2  0  0  0  0
 22 24  1  0  0  0  0
 18 19  1  0  0  0  0
 18 20  1  0  0  0  0
 18 21  1  0  0  0  0
 17 18  1  0  0  0  0
 14 15  1  0  0  0  0
 14 16  1  0  0  0  0
 14 17  1  0  0  0  0
 11 12  1  0  0  0  0
 11 13  1  0  0  0  0
 11 14  1  0  0  0  0
  9 10  1  0  0  0  0
  9 11  1  0  0  0  0
  9 22  1  0  0  0  0
  7  8  1  0  0  0  0
  7  9  1  0  0  0  0
 26 27  1  0  0  0  0
 26 28  1  0  0  0  0
 26 29  1  0  0  0  0
 24 25  1  0  0  0  0
 24 26  1  0  0  0  0
M  END
$$$$
default_name
  -OEChem-02102213163D

 29 28  0     1  0  0  0  0  0999 V2000
   -3.5781   -3.7296    1.2702 H   0  0  0  0  0  0  0  0  0  0  0  0
   -3.5311   -2.7616    0.7732 C   0  0  0  0  0  0  0  0  0  0  0  0
   -4.2371   -2.0766    1.2382 H   0  0  0  0  0  0  0  0  0  0  0  0
   -3.7681   -2.8816   -0.2818 H   0  0  0  0  0  0  0  0  0  0  0  0
   -2.1321   -2.2086    0.9112 C   0  0  0  0  0  0  0  0  0  0  0  0
   -1.2751   -2.8426    1.5112 O   0  0  0  0  0  0  0  0  0  0  0  0
   -1.9041   -1.0186    0.3602 N   0  0  0  0  0  0  0  0  0  0  0  0
   -2.6671   -0.5416   -0.0988 H   0  0  0  0  0  0  0  0  0  0  0  0
   -0.6131   -0.3236    0.3832 C   0  0  1  0  0  0  0  0  0  0  0  0
    0.0142   -0.7800    1.1506 H   0  0  0  0  0  0  0  0  0  0  0  0
    0.0816   -0.5059   -0.9788 C   0  0  0  0  0  0  0  0  0  0  0  0
   -0.5672   -1.0986   -1.6273 H   0  0  0  0  0  0  0  0  0  0  0  0
    0.2264    0.4710   -1.4425 H   0  0  0  0  0  0  0  0  0  0  0  0
    1.4404   -1.2093   -0.8840 C   0  0  0  0  0  0  0  0  0  0  0  0
    1.7662   -1.2186    0.1557 H   0  0  0  0  0  0  0  0  0  0  0  0
    1.3264   -2.2389   -1.2249 H   0  0  0  0  0  0  0  0  0  0  0  0
    2.7368   -0.4202   -1.8720 S   0  0  0  0  0  0  0  0  0  0  0  0
    2.1337   -0.8031   -3.5368 C   0  0  0  0  0  0  0  0  0  0  0  0
    1.1455   -0.3649   -3.6797 H   0  0  0  0  0  0  0  0  0  0  0  0
    2.8207   -0.3877   -4.2745 H   0  0  0  0  0  0  0  0  0  0  0  0
    2.0772   -1.8841   -3.6680 H   0  0  0  0  0  0  0  0  0  0  0  0
   -0.8064    1.1568    0.7414 C   0  0  0  0  0  0  0  0  0  0  0  0
   -1.6978    1.8100    0.2029 O   0  0  0  0  0  0  0  0  0  0  0  0
    0.0314    1.6872    1.6415 N   0  0  0  0  0  0  0  0  0  0  0  0
    0.7279    1.0858    2.0517 H   0  0  0  0  0  0  0  0  0  0  0  0
   -0.0137    3.0826    2.0755 C   0  0  0  0  0  0  0  0  0  0  0  0
   -0.9991    3.3070    2.4905 H   0  0  0  0  0  0  0  0  0  0  0  0
    0.7468    3.2694    2.8349 H   0  0  0  0  0  0  0  0  0  0  0  0
    0.1592    3.7397    1.2213 H   0  0  0  0  0  0  0  0  0  0  0  0
  5  6  2  0  0  0  0
  5  7  1  0  0  0  0
  2  3  1  0  0  0  0
  2  4  1  0  0  0  0
  2  5  1  0  0  0  0
  1  2  1  0  0  0  0
 22 23  2  0  0  0  0
 22 24  1  0  0  0  0
 18 19  1  0  0  0  0
 18 20  1  0  0  0  0
 18 21  1  0  0  0  0
 17 18  1  0  0  0  0
 14 15  1  0  0  0  0
 14 16  1  0  0  0  0
 14 17  1  0  0  0  0
 11 12  1  0  0  0  0
 11 13  1  0  0  0  0
 11 14  1  0  0  0  0
  9 10  1  0  0  0  0
  9 11  1  0  0  0  0
  9 22  1  0  0  0  0
  7  8  1  0  0  0  0
  7  9  1  0  0  0  0
 26 27  1  0  0  0  0
 26 28  1  0  0  0  0
 26 29  1  0  0  0  0
 24 25  1  0  0  0  0
 24 26  1  0  0  0  0
M  END
$$$$
default_name
  -OEChem-02102213163D

 29 28  0     1  0  0  0  0  0999 V2000
   -3.5781   -3.7296    1.2702 H   0  0  0  0  0  0  0  0  0  0  0  0
   -3.5311   -2.7616    0.7732 C   0  0  0  0  0  0  0  0  0  0  0  0
   -4.2371   -2.0766    1.2382 H   0  0  0  0  0  0  0  0  0  0  0  0
   -3.7681   -2.8816   -0.2818 H   0  0  0  0  0  0  0  0  0  0  0  0
   -2.1321   -2.2086    0.9112 C   0  0  0  0  0  0  0  0  0  0  0  0
   -1.2751   -2.8426    1.5112 O   0  0  0  0  0  0  0  0  0  0  0  0
   -1.9041   -1.0186    0.3602 N   0  0  0  0  0  0  0  0  0  0  0  0
   -2.6671   -0.5416   -0.0988 H   0  0  0  0  0  0  0  0  0  0  0  0
   -0.6131   -0.3236    0.3832 C   0  0  1  0  0  0  0  0  0  0  0  0
    0.0142   -0.7800    1.1506 H   0  0  0  0  0  0  0  0  0  0  0  0
    0.0816   -0.5059   -0.9788 C   0  0  0  0  0  0  0  0  0  0  0  0
   -0.5672   -1.0986   -1.6273 H   0  0  0  0  0  0  0  0  0  0  0  0
    0.2264    0.4710   -1.4425 H   0  0  0  0  0  0  0  0  0  0  0  0
    1.4404   -1.2093   -0.8840 C   0  0  0  0  0  0  0  0  0  0  0  0
    1.6426   -1.4572    0.1576 H   0  0  0  0  0  0  0  0  0  0  0  0
    1.3978   -2.1329   -1.4623 H   0  0  0  0  0  0  0  0  0  0  0  0
    2.8193   -0.2110   -1.5019 S   0  0  0  0  0  0  0  0  0  0  0  0
    2.4266   -0.2014   -3.2703 C   0  0  0  0  0  0  0  0  0  0  0  0
    1.4493    0.2558   -3.4275 H   0  0  0  0  0  0  0  0  0  0  0  0
    3.1824    0.3743   -3.8053 H   0  0  0  0  0  0  0  0  0  0  0  0
    2.4182   -1.2232   -3.6508 H   0  0  0  0  0  0  0  0  0  0  0  0
   -0.8064    1.1568    0.7414 C   0  0  0  0  0  0  0  0  0  0  0  0
   -1.6978    1.8100    0.2029 O   0  0  0  0  0  0  0  0  0  0  0  0
    0.0314    1.6872    1.6415 N   0  0  0  0  0  0  0  0  0  0  0  0
    0.7279    1.0858    2.0517 H   0  0  0  0  0  0  0  0  0  0  0  0
   -0.0137    3.0826    2.0755 C   0  0  0  0  0  0  0  0  0  0  0  0
   -0.9991    3.3070    2.4905 H   0  0  0  0  0  0  0  0  0  0  0  0
    0.7468    3.2694    2.8349 H   0  0  0  0  0  0  0  0  0  0  0  0
    0.1592    3.7397    1.2213 H   0  0  0  0  0  0  0  0  0  0  0  0
  5  6  2  0  0  0  0
  5  7  1  0  0  0  0
  2  3  1  0  0  0  0
  2  4  1  0  0  0  0
  2  5  1  0  0  0  0
  1  2  1  0  0  0  0
 22 23  2  0  0  0  0
 22 24  1  0  0  0  0
 18 19  1  0  0  0  0
 18 20  1  0  0  0  0
 18 21  1  0  0  0  0
 17 18  1  0  0  0  0
 14 15  1  0  0  0  0
 14 16  1  0  0  0  0
 14 17  1  0  0  0  0
 11 12  1  0  0  0  0
 11 13  1  0  0  0  0
 11 14  1  0  0  0  0
  9 10  1  0  0  0  0
  9 11  1  0  0  0  0
  9 22  1  0  0  0  0
  7  8  1  0  0  0  0
  7  9  1  0  0  0  0
 26 27  1  0  0  0  0
 26 28  1  0  0  0  0
 26 29  1  0  0  0  0
 24 25  1  0  0  0  0
 24 26  1  0  0  0  0
M  END
$$$$
default_name
  -OEChem-02102213163D

 29 28  0     1  0  0  0  0  0999 V2000
   -3.5781   -3.7296    1.2702 H   0  0  0  0  0  0  0  0  0  0  0  0
   -3.5311   -2.7616    0.7732 C   0  0  0  0  0  0  0  0  0  0  0  0
   -4.2371   -2.0766    1.2382 H   0  0  0  0  0  0  0  0  0  0  0  0
   -3.7681   -2.8816   -0.2818 H   0  0  0  0  0  0  0  0  0  0  0  0
   -2.1321   -2.2086    0.9112 C   0  0  0  0  0  0  0  0  0  0  0  0
   -1.2751   -2.8426    1.5112 O   0  0  0  0  0  0  0  0  0  0  0  0
   -1.9041   -1.0186    0.3602 N   0  0  0  0  0  0  0  0  0  0  0  0
   -2.6671   -0.5416   -0.0988 H   0  0  0  0  0  0  0  0  0  0  0  0
   -0.6131   -0.3236    0.3832 C   0  0  1  0  0  0  0  0  0  0  0  0
    0.0142   -0.7800    1.1506 H   0  0  0  0  0  0  0  0  0  0  0  0
    0.0816   -0.5059   -0.9788 C   0  0  0  0  0  0  0  0  0  0  0  0
   -0.5672   -1.0986   -1.6273 H   0  0  0  0  0  0  0  0  0  0  0  0
    0.2264    0.4710   -1.4425 H   0  0  0  0  0  0  0  0  0  0  0  0
    1.4404   -1.2093   -0.8840 C   0  0  0  0  0  0  0  0  0  0  0  0
    1.5268   -1.6900    0.0900 H   0  0  0  0  0  0  0  0  0  0  0  0
    1.4933   -1.9749   -1.6588 H   0  0  0  0  0  0  0  0  0  0  0  0
    2.8516   -0.0925   -1.0865 S   0  0  0  0  0  0  0  0  0  0  0  0
    2.6682    0.3234   -2.8401 C   0  0  0  0  0  0  0  0  0  0  0  0
    1.7027    0.8024   -3.0054 H   0  0  0  0  0  0  0  0  0  0  0  0
    3.4639    1.0085   -3.1342 H   0  0  0  0  0  0  0  0  0  0  0  0
    2.7349   -0.5833   -3.4421 H   0  0  0  0  0  0  0  0  0  0  0  0
   -0.8064    1.1568    0.7414 C   0  0  0  0  0  0  0  0  0  0  0  0
   -1.6978    1.8100    0.2029 O   0  0  0  0  0  0  0  0  0  0  0  0
    0.0314    1.6872    1.6415 N   0  0  0  0  0  0  0  0  0  0  0  0
    0.7279    1.0858    2.0517 H   0  0  0  0  0  0  0  0  0  0  0  0
   -0.0137    3.0826    2.0755 C   0  0  0  0  0  0  0  0  0  0  0  0
   -0.9991    3.3070    2.4905 H   0  0  0  0  0  0  0  0  0  0  0  0
    0.7468    3.2694    2.8349 H   0  0  0  0  0  0  0  0  0  0  0  0
    0.1592    3.7397    1.2213 H   0  0  0  0  0  0  0  0  0  0  0  0
  5  6  2  0  0  0  0
  5  7  1  0  0  0  0
  2  3  1  0  0  0  0
  2  4  1  0  0  0  0
  2  5  1  0  0  0  0
  1  2  1  0  0  0  0
 22 23  2  0  0  0  0
 22 24  1  0  0  0  0
 18 19  1  0  0  0  0
 18 20  1  0  0  0  0
 18 21  1  0  0  0  0
 17 18  1  0  0  0  0
 14 15  1  0  0  0  0
 14 16  1  0  0  0  0
 14 17  1  0  0  0  0
 11 12  1  0  0  0  0
 11 13  1  0  0  0  0
 11 14  1  0  0  0  0
  9 10  1  0  0  0  0
  9 11  1  0  0  0  0
  9 22  1  0  0  0  0
  7  8  1  0  0  0  0
  7  9  1  0  0  0  0
 26 27  1  0  0  0  0
 26 28  1  0  0  0  0
 26 29  1  0  0  0  0
 24 25  1  0  0  0  0
 24 26  1  0  0  0  0
M  END
$$$$
default_name
  -OEChem-02102213163D

 29 28  0     1  0  0  0  0  0999 V2000
   -3.5781   -3.7296    1.2702 H   0  0  0  0  0  0  0  0  0  0  0  0
   -3.5311   -2.7616    0.7732 C   0  0  0  0  0  0  0  0  0  0  0  0
   -4.2371   -2.0766    1.2382 H   0  0  0  0  0  0  0  0  0  0  0  0
   -3.7681   -2.8816   -0.2818 H   0  0  0  0  0  0  0  0  0  0  0  0
   -2.1321   -2.2086    0.9112 C   0  0  0  0  0  0  0  0  0  0  0  0
   -1.2751   -2.8426    1.5112 O   0  0  0  0  0  0  0  0  0  0  0  0
   -1.9041   -1.0186    0.3602 N   0  0  0  0  0  0  0  0  0  0  0  0
   -2.6671   -0.5416   -0.0988 H   0  0  0  0  0  0  0  0  0  0  0  0
   -0.6131   -0.3236    0.3832 C   0  0  1  0  0  0  0  0  0  0  0  0
    0.0142   -0.7800    1.1506 H   0  0  0  0  0  0  0  0  0  0  0  0
    0.0816   -0.5059   -0.9788 C   0  0  0  0  0  0  0  0  0  0  0  0
   -0.5672   -1.0986   -1.6273 H   0  0  0  0  0  0  0  0  0  0  0  0
    0.2264    0.4710   -1.4425 H   0  0  0  0  0  0  0  0  0  0  0  0
    1.4404   -1.2093   -0.8840 C   0  0  0  0  0  0  0  0  0  0  0  0
    1.4267   -1.9013   -0.0425 H   0  0  0  0  0  0  0  0  0  0  0  0
    1.6064   -1.7757   -1.8010 H   0  0  0  0  0  0  0  0  0  0  0  0
    2.8316   -0.0728   -0.6543 S   0  0  0  0  0  0  0  0  0  0  0  0
    2.8421    0.7355   -2.2755 C   0  0  0  0  0  0  0  0  0  0  0  0
    1.8887    1.2376   -2.4422 H   0  0  0  0  0  0  0  0  0  0  0  0
    3.6459    1.4716   -2.3071 H   0  0  0  0  0  0  0  0  0  0  0  0
    3.0057   -0.0080   -3.0561 H   0  0  0  0  0  0  0  0  0  0  0  0
   -0.8064    1.1568    0.7414 C   0  0  0  0  0  0  0  0  0  0  0  0
   -1.6978    1.8100    0.2029 O   0  0  0  0  0  0  0  0  0  0  0  0
    0.0314    1.6872    1.6415 N   0  0  0  0  0  0  0  0  0  0  0  0
    0.7279    1.0858    2.0517 H   0  0  0  0  0  0  0  0  0  0  0  0
   -0.0137    3.0826    2.0755 C   0  0  0  0  0  0  0  0  0  0  0  0
   -0.9991    3.3070    2.4905 H   0  0  0  0  0  0  0  0  0  0  0  0
    0.7468    3.2694    2.8349 H   0  0  0  0  0  0  0  0  0  0  0  0
    0.1592    3.7397    1.2213 H   0  0  0  0  0  0  0  0  0  0  0  0
  5  6  2  0  0  0  0
  5  7  1  0  0  0  0
  2  3  1  0  0  0  0
  2  4  1  0  0  0  0
  2  5  1  0  0  0  0
  1  2  1  0  0  0  0
 22 23  2  0  0  0  0
 22 24  1  0  0  0  0
 18 19  1  0  0  0  0
 18 20  1  0  0  0  0
 18 21  1  0  0  0  0
 17 18  1  0  0  0  0
 14 15  1  0  0  0  0
 14 16  1  0  0  0  0
 14 17  1  0  0  0  0
 11 12  1  0  0  0  0
 11 13  1  0  0  0  0
 11 14  1  0  0  0  0
  9 10  1  0  0  0  0
  9 11  1  0  0  0  0
  9 22  1  0  0  0  0
  7  8  1  0  0  0  0
  7  9  1  0  0  0  0
 26 27  1  0  0  0  0
 26 28  1  0  0  0  0
 26 29  1  0  0  0  0
 24 25  1  0  0  0  0
 24 26  1  0  0  0  0
M  END
$$$$
default_name
  -OEChem-02102213163D

 29 28  0     1  0  0  0  0  0999 V2000
   -3.5781   -3.7296    1.2702 H   0  0  0  0  0  0  0  0  0  0  0  0
   -3.5311   -2.7616    0.7732 C   0  0  0  0  0  0  0  0  0  0  0  0
   -4.2371   -2.0766    1.2382 H   0  0  0  0  0  0  0  0  0  0  0  0
   -3.7681   -2.8816   -0.2818 H   0  0  0  0  0  0  0  0  0  0  0  0
   -2.1321   -2.2086    0.9112 C   0  0  0  0  0  0  0  0  0  0  0  0
   -1.2751   -2.8426    1.5112 O   0  0  0  0  0  0  0  0  0  0  0  0
   -1.9041   -1.0186    0.3602 N   0  0  0  0  0  0  0  0  0  0  0  0
   -2.6671   -0.5416   -0.0988 H   0  0  0  0  0  0  0  0  0  0  0  0
   -0.6131   -0.3236    0.3832 C   0  0  1  0  0  0  0  0  0  0  0  0
    0.0142   -0.7800    1.1506 H   0  0  0  0  0  0  0  0  0  0  0  0
    0.0816   -0.5059   -0.9788 C   0  0  0  0  0  0  0  0  0  0  0  0
   -0.5672   -1.0986   -1.6273 H   0  0  0  0  0  0  0  0  0  0  0  0
    0.2264    0.4710   -1.4425 H   0  0  0  0  0  0  0  0  0  0  0  0
    1.4404   -1.2093   -0.8840 C   0  0  0  0  0  0  0  0  0  0  0  0
    1.3491   -2.0765   -0.2308 H   0  0  0  0  0  0  0  0  0  0  0  0
    1.7293   -1.5488   -1.8793 H   0  0  0  0  0  0  0  0  0  0  0  0
    2.7606   -0.1533   -0.2347 S   0  0  0  0  0  0  0  0  0  0  0  0
    2.9364    1.0067   -1.6149 C   0  0  0  0  0  0  0  0  0  0  0  0
    1.9944    1.5317   -1.7763 H   0  0  0  0  0  0  0  0  0  0  0  0
    3.7160    1.7321   -1.3804 H   0  0  0  0  0  0  0  0  0  0  0  0
    3.2123    0.4635   -2.5192 H   0  0  0  0  0  0  0  0  0  0  0  0
   -0.8064    1.1568    0.7414 C   0  0  0  0  0  0  0  0  0  0  0  0
   -1.6978    1.8100    0.2029 O   0  0  0  0  0  0  0  0  0  0  0  0
    0.0314    1.6872    1.6415 N   0  0  0  0  0  0  0  0  0  0  0  0
    0.7279    1.0858    2.0517 H   0  0  0  0  0  0  0  0  0  0  0  0
   -0.0137    3.0826    2.0755 C   0  0  0  0  0  0  0  0  0  0  0  0
   -0.9991    3.3070    2.4905 H   0  0  0  0  0  0  0  0  0  0  0  0
    0.7468    3.2694    2.8349 H   0  0  0  0  0  0  0  0  0  0  0  0
    0.1592    3.7397    1.2213 H   0  0  0  0  0  0  0  0  0  0  0  0
  5  6  2  0  0  0  0
  5  7  1  0  0  0  0
  2  3  1  0  0  0  0
  2  4  1  0  0  0  0
  2  5  1  0  0  0  0
  1  2  1  0  0  0  0
 22 23  2  0  0  0  0
 22 24  1  0  0  0  0
 18 19  1  0  0  0  0
 18 20  1  0  0  0  0
 18 21  1  0  0  0  0
 17 18  1  0  0  0  0
 14 15  1  0  0  0  0
 14 16  1  0  0  0  0
 14 17  1  0  0  0  0
 11 12  1  0  0  0  0
 11 13  1  0  0  0  0
 11 14  1  0  0  0  0
  9 10  1  0  0  0  0
  9 11  1  0  0  0  0
  9 22  1  0  0  0  0
  7  8  1  0  0  0  0
  7  9  1  0  0  0  0
 26 27  1  0  0  0  0
 26 28  1  0  0  0  0
 26 29  1  0  0  0  0
 24 25  1  0  0  0  0
 24 26  1  0  0  0  0
M  END
$$$$
default_name
  -OEChem-02102213163D

 29 28  0     1  0  0  0  0  0999 V2000
   -3.5781   -3.7296    1.2702 H   0  0  0  0  0  0  0  0  0  0  0  0
   -3.5311   -2.7616    0.7732 C   0  0  0  0  0  0  0  0  0  0  0  0
   -4.2371   -2.0766    1.2382 H   0  0  0  0  0  0  0  0  0  0  0  0
   -3.7681   -2.8816   -0.2818 H   0  0  0  0  0  0  0  0  0  0  0  0
   -2.1321   -2.2086    0.9112 C   0  0  0  0  0  0  0  0  0  0  0  0
   -1.2751   -2.8426    1.5112 O   0  0  0  0  0  0  0  0  0  0  0  0
   -1.9041   -1.0186    0.3602 N   0  0  0  0  0  0  0  0  0  0  0  0
   -2.6671   -0.5416   -0.0988 H   0  0  0  0  0  0  0  0  0  0  0  0
   -0.6131   -0.3236    0.3832 C   0  0  1  0  0  0  0  0  0  0  0  0
    0.0142   -0.7800    1.1506 H   0  0  0  0  0  0  0  0  0  0  0  0
    0.0816   -0.5059   -0.9788 C   0  0  0  0  0  0  0  0  0  0  0  0
   -0.5672   -1.0986   -1.6273 H   0  0  0  0  0  0  0  0  0  0  0  0
    0.2264    0.4710   -1.4425 H   0  0  0  0  0  0  0  0  0  0  0  0
    1.4404   -1.2093   -0.8840 C   0  0  0  0  0  0  0  0  0  0  0  0
    1.2993   -2.2039   -0.4621 H   0  0  0  0  0  0  0  0  0  0  0  0
    1.8537   -1.3098   -1.8882 H   0  0  0  0  0  0  0  0  0  0  0  0
    2.6436   -0.3285    0.1438 S   0  0  0  0  0  0  0  0  0  0  0  0
    2.9448    1.1188   -0.9034 C   0  0  0  0  0  0  0  0  0  0  0  0
    2.0128    1.6647   -1.0530 H   0  0  0  0  0  0  0  0  0  0  0  0
    3.6695    1.7722   -0.4171 H   0  0  0  0  0  0  0  0  0  0  0  0
    3.3405    0.7990   -1.8678 H   0  0  0  0  0  0  0  0  0  0  0  0
   -0.8064    1.1568    0.7414 C   0  0  0  0  0  0  0  0  0  0  0  0
   -1.6978    1.8100    0.2029 O   0  0  0  0  0  0  0  0  0  0  0  0
    0.0314    1.6872    1.6415 N   0  0  0  0  0  0  0  0  0  0  0  0
    0.7279    1.0858    2.0517 H   0  0  0  0  0  0  0  0  0  0  0  0
   -0.0137    3.0826    2.0755 C   0  0  0  0  0  0  0  0  0  0  0  0
   -0.9991    3.3070    2.4905 H   0  0  0  0  0  0  0  0  0  0  0  0
    0.7468    3.2694    2.8349 H   0  0  0  0  0  0  0  0  0  0  0  0
    0.1592    3.7397    1.2213 H   0  0  0  0  0  0  0  0  0  0  0  0
  5  6  2  0  0  0  0
  5  7  1  0  0  0  0
  2  3  1  0  0  0  0
  2  4  1  0  0  0  0
  2  5  1  0  0  0  0
  1  2  1  0  0  0  0
 22 23  2  0  0  0  0
 22 24  1  0  0  0  0
 18 19  1  0  0  0  0
 18 20  1  0  0  0  0
 18 21  1  0  0  0  0
 17 18  1  0  0  0  0
 14 15  1  0  0  0  0
 14 16  1  0  0  0  0
 14 17  1  0  0  0  0
 11 12  1  0  0  0  0
 11 13  1  0  0  0  0
 11 14  1  0  0  0  0
  9 10  1  0  0  0  0
  9 11  1  0  0  0  0
  9 22  1  0  0  0  0
  7  8  1  0  0  0  0
  7  9  1  0  0  0  0
 26 27  1  0  0  0  0
 26 28  1  0  0  0  0
 26 29  1  0  0  0  0
 24 25  1  0  0  0  0
 24 26  1  0  0  0  0
M  END
$$$$
default_name
  -OEChem-02102213163D

 29 28  0     1  0  0  0  0  0999 V2000
   -3.5781   -3.7296    1.2702 H   0  0  0  0  0  0  0  0  0  0  0  0
   -3.5311   -2.7616    0.7732 C   0  0  0  0  0  0  0  0  0  0  0  0
   -4.2371   -2.0766    1.2382 H   0  0  0  0  0  0  0  0  0  0  0  0
   -3.7681   -2.8816   -0.2818 H   0  0  0  0  0  0  0  0  0  0  0  0
   -2.1321   -2.2086    0.9112 C   0  0  0  0  0  0  0  0  0  0  0  0
   -1.2751   -2.8426    1.5112 O   0  0  0  0  0  0  0  0  0  0  0  0
   -1.9041   -1.0186    0.3602 N   0  0  0  0  0  0  0  0  0  0  0  0
   -2.6671   -0.5416   -0.0988 H   0  0  0  0  0  0  0  0  0  0  0  0
   -0.6131   -0.3236    0.3832 C   0  0  1  0  0  0  0  0  0  0  0  0
    0.0142   -0.7800    1.1506 H   0  0  0  0  0  0  0  0  0  0  0  0
    0.0816   -0.5059   -0.9788 C   0  0  0  0  0  0  0  0  0  0  0  0
   -0.5672   -1.0986   -1.6273 H   0  0  0  0  0  0  0  0  0  0  0  0
    0.2264    0.4710   -1.4425 H   0  0  0  0  0  0  0  0  0  0  0  0
    1.4404   -1.2093   -0.8840 C   0  0  0  0  0  0  0  0  0  0  0  0
    1.2807   -2.2746   -0.7206 H   0  0  0  0  0  0  0  0  0  0  0  0
    1.9710   -1.0748   -1.8272 H   0  0  0  0  0  0  0  0  0  0  0  0
    2.4883   -0.5863    0.4552 S   0  0  0  0  0  0  0  0  0  0  0  0
    2.8665    1.0639   -0.1895 C   0  0  0  0  0  0  0  0  0  0  0  0
    1.9425    1.6276   -0.3217 H   0  0  0  0  0  0  0  0  0  0  0  0
    3.5096    1.5893    0.5170 H   0  0  0  0  0  0  0  0  0  0  0  0
    3.3816    0.9757   -1.1464 H   0  0  0  0  0  0  0  0  0  0  0  0
   -0.8064    1.1568    0.7414 C   0  0  0  0  0  0  0  0  0  0  0  0
   -1.6978    1.8100    0.2029 O   0  0  0  0  0  0  0  0  0  0  0  0
    0.0314    1.6872    1.6415 N   0  0  0  0  0  0  0  0  0  0  0  0
    0.7279    1.0858    2.0517 H   0  0  0  0  0  0  0  0  0  0  0  0
   -0.0137    3.0826    2.0755 C   0  0  0  0  0  0  0  0  0  0  0  0
   -0.9991    3.3070    2.4905 H   0  0  0  0  0  0  0  0  0  0  0  0
    0.7468    3.2694    2.8349 H   0  0  0  0  0  0  0  0  0  0  0  0
    0.1592    3.7397    1.2213 H   0  0  0  0  0  0  0  0  0  0  0  0
  5  6  2  0  0  0  0
  5  7  1  0  0  0  0
  2  3  1  0  0  0  0
  2  4  1  0  0  0  0
  2  5  1  0  0  0  0
  1  2  1  0  0  0  0
 22 23  2  0  0  0  0
 22 24  1  0  0  0  0
 18 19  1  0  0  0  0
 18 20  1  0  0  0  0
 18 21  1  0  0  0  0
 17 18  1  0  0  0  0
 14 15  1  0  0  0  0
 14 16  1  0  0  0  0
 14 17  1  0  0  0  0
 11 12  1  0  0  0  0
 11 13  1  0  0  0  0
 11 14  1  0  0  0  0
  9 10  1  0  0  0  0
  9 11  1  0  0  0  0
  9 22  1  0  0  0  0
  7  8  1  0  0  0  0
  7  9  1  0  0  0  0
 26 27  1  0  0  0  0
 26 28  1  0  0  0  0
 26 29  1  0  0  0  0
 24 25  1  0  0  0  0
 24 26  1  0  0  0  0
M  END
$$$$
default_name
  -OEChem-02102213163D

 29 28  0     1  0  0  0  0  0999 V2000
   -3.5781   -3.7296    1.2702 H   0  0  0  0  0  0  0  0  0  0  0  0
   -3.5311   -2.7616    0.7732 C   0  0  0  0  0  0  0  0  0  0  0  0
   -4.2371   -2.0766    1.2382 H   0  0  0  0  0  0  0  0  0  0  0  0
   -3.7681   -2.8816   -0.2818 H   0  0  0  0  0  0  0  0  0  0  0  0
   -2.1321   -2.2086    0.9112 C   0  0  0  0  0  0  0  0  0  0  0  0
   -1.2751   -2.8426    1.5112 O   0  0  0  0  0  0  0  0  0  0  0  0
   -1.9041   -1.0186    0.3602 N   0  0  0  0  0  0  0  0  0  0  0  0
   -2.6671   -0.5416   -0.0988 H   0  0  0  0  0  0  0  0  0  0  0  0
   -0.6131   -0.3236    0.3832 C   0  0  1  0  0  0  0  0  0  0  0  0
    0.0142   -0.7800    1.1506 H   0  0  0  0  0  0  0  0  0  0  0  0
    0.0816   -0.5059   -0.9788 C   0  0  0  0  0  0  0  0  0  0  0  0
   -0.5672   -1.0986   -1.6273 H   0  0  0  0  0  0  0  0  0  0  0  0
    0.2264    0.4710   -1.4425 H   0  0  0  0  0  0  0  0  0  0  0  0
    1.4404   -1.2093   -0.8840 C   0  0  0  0  0  0  0  0  0  0  0  0
    1.2946   -2.2840   -0.9888 H   0  0  0  0  0  0  0  0  0  0  0  0
    2.0734   -0.8600   -1.7005 H   0  0  0  0  0  0  0  0  0  0  0  0
    2.3055   -0.9093    0.6785 S   0  0  0  0  0  0  0  0  0  0  0  0
    2.7070    0.8458    0.4782 C   0  0  0  0  0  0  0  0  0  0  0  0
    1.7884    1.4228    0.3678 H   0  0  0  0  0  0  0  0  0  0  0  0
    3.2471    1.1957    1.3584 H   0  0  0  0  0  0  0  0  0  0  0  0
    3.3329    0.9816   -0.4042 H   0  0  0  0  0  0  0  0  0  0  0  0
   -0.8064    1.1568    0.7414 C   0  0  0  0  0  0  0  0  0  0  0  0
   -1.6978    1.8100    0.2029 O   0  0  0  0  0  0  0  0  0  0  0  0
    0.0314    1.6872    1.6415 N   0  0  0  0  0  0  0  0  0  0  0  0
    0.7279    1.0858    2.0517 H   0  0  0  0  0  0  0  0  0  0  0  0
   -0.0137    3.0826    2.0755 C   0  0  0  0  0  0  0  0  0  0  0  0
   -0.9991    3.3070    2.4905 H   0  0  0  0  0  0  0  0  0  0  0  0
    0.7468    3.2694    2.8349 H   0  0  0  0  0  0  0  0  0  0  0  0
    0.1592    3.7397    1.2213 H   0  0  0  0  0  0  0  0  0  0  0  0
  5  6  2  0  0  0  0
  5  7  1  0  0  0  0
  2  3  1  0  0  0  0
  2  4  1  0  0  0  0
  2  5  1  0  0  0  0
  1  2  1  0  0  0  0
 22 23  2  0  0  0  0
 22 24  1  0  0  0  0
 18 19  1  0  0  0  0
 18 20  1  0  0  0  0
 18 21  1  0  0  0  0
 17 18  1  0  0  0  0
 14 15  1  0  0  0  0
 14 16  1  0  0  0  0
 14 17  1  0  0  0  0
 11 12  1  0  0  0  0
 11 13  1  0  0  0  0
 11 14  1  0  0  0  0
  9 10  1  0  0  0  0
  9 11  1  0  0  0  0
  9 22  1  0  0  0  0
  7  8  1  0  0  0  0
  7  9  1  0  0  0  0
 26 27  1  0  0  0  0
 26 28  1  0  0  0  0
 26 29  1  0  0  0  0
 24 25  1  0  0  0  0
 24 26  1  0  0  0  0
M  END
$$$$
default_name
  -OEChem-02102213163D

 29 28  0     1  0  0  0  0  0999 V2000
   -3.5781   -3.7296    1.2702 H   0  0  0  0  0  0  0  0  0  0  0  0
   -3.5311   -2.7616    0.7732 C   0  0  0  0  0  0  0  0  0  0  0  0
   -4.2371   -2.0766    1.2382 H   0  0  0  0  0  0  0  0  0  0  0  0
   -3.7681   -2.8816   -0.2818 H   0  0  0  0  0  0  0  0  0  0  0  0
   -2.1321   -2.2086    0.9112 C   0  0  0  0  0  0  0  0  0  0  0  0
   -1.2751   -2.8426    1.5112 O   0  0  0  0  0  0  0  0  0  0  0  0
   -1.9041   -1.0186    0.3602 N   0  0  0  0  0  0  0  0  0  0  0  0
   -2.6671   -0.5416   -0.0988 H   0  0  0  0  0  0  0  0  0  0  0  0
   -0.6131   -0.3236    0.3832 C   0  0  1  0  0  0  0  0  0  0  0  0
    0.0142   -0.7800    1.1506 H   0  0  0  0  0  0  0  0  0  0  0  0
    0.0816   -0.5059   -0.9788 C   0  0  0  0  0  0  0  0  0  0  0  0
   -0.5672   -1.0986   -1.6273 H   0  0  0  0  0  0  0  0  0  0  0  0
    0.2264    0.4710   -1.4425 H   0  0  0  0  0  0  0  0  0  0  0  0
    1.4404   -1.2093   -0.8840 C   0  0  0  0  0  0  0  0  0  0  0  0
    1.3400   -2.2312   -1.2483 H   0  0  0  0  0  0  0  0  0  0  0  0
    2.1538   -0.6799   -1.5166 H   0  0  0  0  0  0  0  0  0  0  0  0
    2.1076   -1.2755    0.7983 S   0  0  0  0  0  0  0  0  0  0  0  0
    2.4771    0.4794    1.0542 C   0  0  0  0  0  0  0  0  0  0  0  0
    1.5609    1.0644    0.9686 H   0  0  0  0  0  0  0  0  0  0  0  0
    2.9000    0.6183    2.0496 H   0  0  0  0  0  0  0  0  0  0  0  0
    3.1975    0.8162    0.3083 H   0  0  0  0  0  0  0  0  0  0  0  0
   -0.8064    1.1568    0.7414 C   0  0  0  0  0  0  0  0  0  0  0  0
   -1.6978    1.8100    0.2029 O   0  0  0  0  0  0  0  0  0  0  0  0
    0.0314    1.6872    1.6415 N   0  0  0  0  0  0  0  0  0  0  0  0
    0.7279    1.0858    2.0517 H   0  0  0  0  0  0  0  0  0  0  0  0
   -0.0137    3.0826    2.0755 C   0  0  0  0  0  0  0  0  0  0  0  0
   -0.9991    3.3070    2.4905 H   0  0  0  0  0  0  0  0  0  0  0  0
    0.7468    3.2694    2.8349 H   0  0  0  0  0  0  0  0  0  0  0  0
    0.1592    3.7397    1.2213 H   0  0  0  0  0  0  0  0  0  0  0  0
  5  6  2  0  0  0  0
  5  7  1  0  0  0  0
  2  3  1  0  0  0  0
  2  4  1  0  0  0  0
  2  5  1  0  0  0  0
  1  2  1  0  0  0  0
 22 23  2  0  0  0  0
 22 24  1  0  0  0  0
 18 19  1  0  0  0  0
 18 20  1  0  0  0  0
 18 21  1  0  0  0  0
 17 18  1  0  0  0  0
 14 15  1  0  0  0  0
 14 16  1  0  0  0  0
 14 17  1  0  0  0  0
 11 12  1  0  0  0  0
 11 13  1  0  0  0  0
 11 14  1  0  0  0  0
  9 10  1  0  0  0  0
  9 11  1  0  0  0  0
  9 22  1  0  0  0  0
  7  8  1  0  0  0  0
  7  9  1  0  0  0  0
 26 27  1  0  0  0  0
 26 28  1  0  0  0  0
 26 29  1  0  0  0  0
 24 25  1  0  0  0  0
 24 26  1  0  0  0  0
M  END
$$$$
default_name
  -OEChem-02102213163D

 29 28  0     1  0  0  0  0  0999 V2000
   -3.5781   -3.7296    1.2702 H   0  0  0  0  0  0  0  0  0  0  0  0
   -3.5311   -2.7616    0.7732 C   0  0  0  0  0  0  0  0  0  0  0  0
   -4.2371   -2.0766    1.2382 H   0  0  0  0  0  0  0  0  0  0  0  0
   -3.7681   -2.8816   -0.2818 H   0  0  0  0  0  0  0  0  0  0  0  0
   -2.1321   -2.2086    0.9112 C   0  0  0  0  0  0  0  0  0  0  0  0
   -1.2751   -2.8426    1.5112 O   0  0  0  0  0  0  0  0  0  0  0  0
   -1.9041   -1.0186    0.3602 N   0  0  0  0  0  0  0  0  0  0  0  0
   -2.6671   -0.5416   -0.0988 H   0  0  0  0  0  0  0  0  0  0  0  0
   -0.6131   -0.3236    0.3832 C   0  0  1  0  0  0  0  0  0  0  0  0
    0.0142   -0.7800    1.1506 H   0  0  0  0  0  0  0  0  0  0  0  0
    0.0816   -0.5059   -0.9788 C   0  0  0  0  0  0  0  0  0  0  0  0
   -0.5672   -1.0986   -1.6273 H   0  0  0  0  0  0  0  0  0  0  0  0
    0.2264    0.4710   -1.4425 H   0  0  0  0  0  0  0  0  0  0  0  0
    1.4404   -1.2093   -0.8840 C   0  0  0  0  0  0  0  0  0  0  0  0
    1.4139   -2.1200   -1.4815 H   0  0  0  0  0  0  0  0  0  0  0  0
    2.2067   -0.5469   -1.2882 H   0  0  0  0  0  0  0  0  0  0  0  0
    1.9081   -1.6598    0.8066 S   0  0  0  0  0  0  0  0  0  0  0  0
    2.1925   -0.0103    1.4993 C   0  0  0  0  0  0  0  0  0  0  0  0
    1.2755    0.5767    1.4396 H   0  0  0  0  0  0  0  0  0  0  0  0
    2.4918   -0.1035    2.5436 H   0  0  0  0  0  0  0  0  0  0  0  0
    2.9848    0.4909    0.9425 H   0  0  0  0  0  0  0  0  0  0  0  0
   -0.8064    1.1568    0.7414 C   0  0  0  0  0  0  0  0  0  0  0  0
   -1.6978    1.8100    0.2029 O   0  0  0  0  0  0  0  0  0  0  0  0
    0.0314    1.6872    1.6415 N   0  0  0  0  0  0  0  0  0  0  0  0
    0.7279    1.0858    2.0517 H   0  0  0  0  0  0  0  0  0  0  0  0
   -0.0137    3.0826    2.0755 C   0  0  0  0  0  0  0  0  0  0  0  0
   -0.9991    3.3070    2.4905 H   0  0  0  0  0  0  0  0  0  0  0  0
    0.7468    3.2694    2.8349 H   0  0  0  0  0  0  0  0  0  0  0  0
    0.1592    3.7397    1.2213 H   0  0  0  0  0  0  0  0  0  0  0  0
  5  6  2  0  0  0  0
  5  7  1  0  0  0  0
  2  3  1  0  0  0  0
  2  4  1  0  0  0  0
  2  5  1  0  0  0  0
  1  2  1  0  0  0  0
 22 23  2  0  0  0  0
 22 24  1  0  0  0  0
 18 19  1  0  0  0  0
 18 20  1  0  0  0  0
 18 21  1  0  0  0  0
 17 18  1  0  0  0  0
 14 15  1  0  0  0  0
 14 16  1  0  0  0  0
 14 17  1  0  0  0  0
 11 12  1  0  0  0  0
 11 13  1  0  0  0  0
 11 14  1  0  0  0  0
  9 10  1  0  0  0  0
  9 11  1  0  0  0  0
  9 22  1  0  0  0  0
  7  8  1  0  0  0  0
  7  9  1  0  0  0  0
 26 27  1  0  0  0  0
 26 28  1  0  0  0  0
 26 29  1  0  0  0  0
 24 25  1  0  0  0  0
 24 26  1  0  0  0  0
M  END
$$$$
default_name
  -OEChem-02102213163D

 29 28  0     1  0  0  0  0  0999 V2000
   -3.5781   -3.7296    1.2702 H   0  0  0  0  0  0  0  0  0  0  0  0
   -3.5311   -2.7616    0.7732 C   0  0  0  0  0  0  0  0  0  0  0  0
   -4.2371   -2.0766    1.2382 H   0  0  0  0  0  0  0  0  0  0  0  0
   -3.7681   -2.8816   -0.2818 H   0  0  0  0  0  0  0  0  0  0  0  0
   -2.1321   -2.2086    0.9112 C   0  0  0  0  0  0  0  0  0  0  0  0
   -1.2751   -2.8426    1.5112 O   0  0  0  0  0  0  0  0  0  0  0  0
   -1.9041   -1.0186    0.3602 N   0  0  0  0  0  0  0  0  0  0  0  0
   -2.6671   -0.5416   -0.0988 H   0  0  0  0  0  0  0  0  0  0  0  0
   -0.6131   -0.3236    0.3832 C   0  0  1  0  0  0  0  0  0  0  0  0
    0.0142   -0.7800    1.1506 H   0  0  0  0  0  0  0  0  0  0  0  0
    0.0816   -0.5059   -0.9788 C   0  0  0  0  0  0  0  0  0  0  0  0
   -0.5672   -1.0986   -1.6273 H   0  0  0  0  0  0  0  0  0  0  0  0
    0.2264    0.4710   -1.4425 H   0  0  0  0  0  0  0  0  0  0  0  0
    1.4404   -1.2093   -0.8840 C   0  0  0  0  0  0  0  0  0  0  0  0
    1.5111   -1.9579   -1.6724 H   0  0  0  0  0  0  0  0  0  0  0  0
    2.2286   -0.4699   -1.0307 H   0  0  0  0  0  0  0  0  0  0  0  0
    1.7205   -2.0362    0.7027 S   0  0  0  0  0  0  0  0  0  0  0  0
    1.8726   -0.5899    1.7830 C   0  0  0  0  0  0  0  0  0  0  0  0
    0.9518   -0.0070    1.7489 H   0  0  0  0  0  0  0  0  0  0  0  0
    2.0504   -0.9206    2.8067 H   0  0  0  0  0  0  0  0  0  0  0  0
    2.7092    0.0277    1.4552 H   0  0  0  0  0  0  0  0  0  0  0  0
   -0.8064    1.1568    0.7414 C   0  0  0  0  0  0  0  0  0  0  0  0
   -1.6978    1.8100    0.2029 O   0  0  0  0  0  0  0  0  0  0  0  0
    0.0314    1.6872    1.6415 N   0  0  0  0  0  0  0  0  0  0  0  0
    0.7279    1.0858    2.0517 H   0  0  0  0  0  0  0  0  0  0  0  0
   -0.0137    3.0826    2.0755 C   0  0  0  0  0  0  0  0  0  0  0  0
   -0.9991    3.3070    2.4905 H   0  0  0  0  0  0  0  0  0  0  0  0
    0.7468    3.2694    2.8349 H   0  0  0  0  0  0  0  0  0  0  0  0
    0.1592    3.7397    1.2213 H   0  0  0  0  0  0  0  0  0  0  0  0
  5  6  2  0  0  0  0
  5  7  1  0  0  0  0
  2  3  1  0  0  0  0
  2  4  1  0  0  0  0
  2  5  1  0  0  0  0
  1  2  1  0  0  0  0
 22 23  2  0  0  0  0
 22 24  1  0  0  0  0
 18 19  1  0  0  0  0
 18 20  1  0  0  0  0
 18 21  1  0  0  0  0
 17 18  1  0  0  0  0
 14 15  1  0  0  0  0
 14 16  1  0  0  0  0
 14 17  1  0  0  0  0
 11 12  1  0  0  0  0
 11 13  1  0  0  0  0
 11 14  1  0  0  0  0
  9 10  1  0  0  0  0
  9 11  1  0  0  0  0
  9 22  1  0  0  0  0
  7  8  1  0  0  0  0
  7  9  1  0  0  0  0
 26 27  1  0  0  0  0
 26 28  1  0  0  0  0
 26 29  1  0  0  0  0
 24 25  1  0  0  0  0
 24 26  1  0  0  0  0
M  END
$$$$
default_name
  -OEChem-02102213163D

 29 28  0     1  0  0  0  0  0999 V2000
   -3.5781   -3.7296    1.2702 H   0  0  0  0  0  0  0  0  0  0  0  0
   -3.5311   -2.7616    0.7732 C   0  0  0  0  0  0  0  0  0  0  0  0
   -4.2371   -2.0766    1.2382 H   0  0  0  0  0  0  0  0  0  0  0  0
   -3.7681   -2.8816   -0.2818 H   0  0  0  0  0  0  0  0  0  0  0  0
   -2.1321   -2.2086    0.9112 C   0  0  0  0  0  0  0  0  0  0  0  0
   -1.2751   -2.8426    1.5112 O   0  0  0  0  0  0  0  0  0  0  0  0
   -1.9041   -1.0186    0.3602 N   0  0  0  0  0  0  0  0  0  0  0  0
   -2.6671   -0.5416   -0.0988 H   0  0  0  0  0  0  0  0  0  0  0  0
   -0.6131   -0.3236    0.3832 C   0  0  1  0  0  0  0  0  0  0  0  0
    0.0142   -0.7800    1.1506 H   0  0  0  0  0  0  0  0  0  0  0  0
    0.0816   -0.5059   -0.9788 C   0  0  0  0  0  0  0  0  0  0  0  0
   -0.5672   -1.0986   -1.6273 H   0  0  0  0  0  0  0  0  0  0  0  0
    0.2264    0.4710   -1.4425 H   0  0  0  0  0  0  0  0  0  0  0  0
    1.4404   -1.2093   -0.8840 C   0  0  0  0  0  0  0  0  0  0  0  0
    1.6252   -1.7560   -1.8082 H   0  0  0  0  0  0  0  0  0  0  0  0
    2.2179   -0.4543   -0.7617 H   0  0  0  0  0  0  0  0  0  0  0  0
    1.5577   -2.3788    0.4937 S   0  0  0  0  0  0  0  0  0  0  0  0
    1.5392   -1.2201    1.8861 C   0  0  0  0  0  0  0  0  0  0  0  0
    0.6117   -0.6469    1.8752 H   0  0  0  0  0  0  0  0  0  0  0  0
    1.6060   -1.7773    2.8209 H   0  0  0  0  0  0  0  0  0  0  0  0
    2.3896   -0.5417    1.8114 H   0  0  0  0  0  0  0  0  0  0  0  0
   -0.8064    1.1568    0.7414 C   0  0  0  0  0  0  0  0  0  0  0  0
   -1.6978    1.8100    0.2029 O   0  0  0  0  0  0  0  0  0  0  0  0
    0.0314    1.6872    1.6415 N   0  0  0  0  0  0  0  0  0  0  0  0
    0.7279    1.0858    2.0517 H   0  0  0  0  0  0  0  0  0  0  0  0
   -0.0137    3.0826    2.0755 C   0  0  0  0  0  0  0  0  0  0  0  0
   -0.9991    3.3070    2.4905 H   0  0  0  0  0  0  0  0  0  0  0  0
    0.7468    3.2694    2.8349 H   0  0  0  0  0  0  0  0  0  0  0  0
    0.1592    3.7397    1.2213 H   0  0  0  0  0  0  0  0  0  0  0  0
  5  6  2  0  0  0  0
  5  7  1  0  0  0  0
  2  3  1  0  0  0  0
  2  4  1  0  0  0  0
  2  5  1  0  0  0  0
  1  2  1  0  0  0  0
 22 23  2  0  0  0  0
 22 24  1  0  0  0  0
 18 19  1  0  0  0  0
 18 20  1  0  0  0  0
 18 21  1  0  0  0  0
 17 18  1  0  0  0  0
 14 15  1  0  0  0  0
 14 16  1  0  0  0  0
 14 17  1  0  0  0  0
 11 12  1  0  0  0  0
 11 13  1  0  0  0  0
 11 14  1  0  0  0  0
  9 10  1  0  0  0  0
  9 11  1  0  0  0  0
  9 22  1  0  0  0  0
  7  8  1  0  0  0  0
  7  9  1  0  0  0  0
 26 27  1  0  0  0  0
 26 28  1  0  0  0  0
 26 29  1  0  0  0  0
 24 25  1  0  0  0  0
 24 26  1  0  0  0  0
M  END
$$$$
default_name
  -OEChem-02102213163D

 29 28  0     1  0  0  0  0  0999 V2000
   -3.5781   -3.7296    1.2702 H   0  0  0  0  0  0  0  0  0  0  0  0
   -3.5311   -2.7616    0.7732 C   0  0  0  0  0  0  0  0  0  0  0  0
   -4.2371   -2.0766    1.2382 H   0  0  0  0  0  0  0  0  0  0  0  0
   -3.7681   -2.8816   -0.2818 H   0  0  0  0  0  0  0  0  0  0  0  0
   -2.1321   -2.2086    0.9112 C   0  0  0  0  0  0  0  0  0  0  0  0
   -1.2751   -2.8426    1.5112 O   0  0  0  0  0  0  0  0  0  0  0  0
   -1.9041   -1.0186    0.3602 N   0  0  0  0  0  0  0  0  0  0  0  0
   -2.6671   -0.5416   -0.0988 H   0  0  0  0  0  0  0  0  0  0  0  0
   -0.6131   -0.3236    0.3832 C   0  0  1  0  0  0  0  0  0  0  0  0
    0.0142   -0.7800    1.1506 H   0  0  0  0  0  0  0  0  0  0  0  0
    0.0816   -0.5059   -0.9788 C   0  0  0  0  0  0  0  0  0  0  0  0
   -0.5672   -1.0986   -1.6273 H   0  0  0  0  0  0  0  0  0  0  0  0
    0.2264    0.4710   -1.4425 H   0  0  0  0  0  0  0  0  0  0  0  0
    1.4404   -1.2093   -0.8840 C   0  0  0  0  0  0  0  0  0  0  0  0
    1.7482   -1.5280   -1.8794 H   0  0  0  0  0  0  0  0  0  0  0  0
    2.1754   -0.5011   -0.4996 H   0  0  0  0  0  0  0  0  0  0  0  0
    1.4307   -2.6645    0.1940 S   0  0  0  0  0  0  0  0  0  0  0  0
    1.2150   -1.8577    1.8015 C   0  0  0  0  0  0  0  0  0  0  0  0
    0.2784   -1.2995    1.8100 H   0  0  0  0  0  0  0  0  0  0  0  0
    1.1886   -2.6151    2.5854 H   0  0  0  0  0  0  0  0  0  0  0  0
    2.0476   -1.1785    1.9869 H   0  0  0  0  0  0  0  0  0  0  0  0
   -0.8064    1.1568    0.7414 C   0  0  0  0  0  0  0  0  0  0  0  0
   -1.6978    1.8100    0.2029 O   0  0  0  0  0  0  0  0  0  0  0  0
    0.0314    1.6872    1.6415 N   0  0  0  0  0  0  0  0  0  0  0  0
    0.7279    1.0858    2.0517 H   0  0  0  0  0  0  0  0  0  0  0  0
   -0.0137    3.0826    2.0755 C   0  0  0  0  0  0  0  0  0  0  0  0
   -0.9991    3.3070    2.4905 H   0  0  0  0  0  0  0  0  0  0  0  0
    0.7468    3.2694    2.8349 H   0  0  0  0  0  0  0  0  0  0  0  0
    0.1592    3.7397    1.2213 H   0  0  0  0  0  0  0  0  0  0  0  0
  5  6  2  0  0  0  0
  5  7  1  0  0  0  0
  2  3  1  0  0  0  0
  2  4  1  0  0  0  0
  2  5  1  0  0  0  0
  1  2  1  0  0  0  0
 22 23  2  0  0  0  0
 22 24  1  0  0  0  0
 18 19  1  0  0  0  0
 18 20  1  0  0  0  0
 18 21  1  0  0  0  0
 17 18  1  0  0  0  0
 14 15  1  0  0  0  0
 14 16  1  0  0  0  0
 14 17  1  0  0  0  0
 11 12  1  0  0  0  0
 11 13  1  0  0  0  0
 11 14  1  0  0  0  0
  9 10  1  0  0  0  0
  9 11  1  0  0  0  0
  9 22  1  0  0  0  0
  7  8  1  0  0  0  0
  7  9  1  0  0  0  0
 26 27  1  0  0  0  0
 26 28  1  0  0  0  0
 26 29  1  0  0  0  0
 24 25  1  0  0  0  0
 24 26  1  0  0  0  0
M  END
$$$$
default_name
  -OEChem-02102213163D

 29 28  0     1  0  0  0  0  0999 V2000
   -3.5781   -3.7296    1.2702 H   0  0  0  0  0  0  0  0  0  0  0  0
   -3.5311   -2.7616    0.7732 C   0  0  0  0  0  0  0  0  0  0  0  0
   -4.2371   -2.0766    1.2382 H   0  0  0  0  0  0  0  0  0  0  0  0
   -3.7681   -2.8816   -0.2818 H   0  0  0  0  0  0  0  0  0  0  0  0
   -2.1321   -2.2086    0.9112 C   0  0  0  0  0  0  0  0  0  0  0  0
   -1.2751   -2.8426    1.5112 O   0  0  0  0  0  0  0  0  0  0  0  0
   -1.9041   -1.0186    0.3602 N   0  0  0  0  0  0  0  0  0  0  0  0
   -2.6671   -0.5416   -0.0988 H   0  0  0  0  0  0  0  0  0  0  0  0
   -0.6131   -0.3236    0.3832 C   0  0  1  0  0  0  0  0  0  0  0  0
    0.0142   -0.7800    1.1506 H   0  0  0  0  0  0  0  0  0  0  0  0
    0.0816   -0.5059   -0.9788 C   0  0  0  0  0  0  0  0  0  0  0  0
   -0.5672   -1.0986   -1.6273 H   0  0  0  0  0  0  0  0  0  0  0  0
    0.2264    0.4710   -1.4425 H   0  0  0  0  0  0  0  0  0  0  0  0
    1.4404   -1.2093   -0.8840 C   0  0  0  0  0  0  0  0  0  0  0  0
    1.8718   -1.2894   -1.8813 H   0  0  0  0  0  0  0  0  0  0  0  0
    2.1039   -0.6071   -0.2622 H   0  0  0  0  0  0  0  0  0  0  0  0
    1.3483   -2.8737   -0.1762 S   0  0  0  0  0  0  0  0  0  0  0  0
    0.9221   -2.4594    1.5351 C   0  0  0  0  0  0  0  0  0  0  0  0
   -0.0253   -1.9202    1.5578 H   0  0  0  0  0  0  0  0  0  0  0  0
    0.8270   -3.3771    2.1161 H   0  0  0  0  0  0  0  0  0  0  0  0
    1.7067   -1.8394    1.9697 H   0  0  0  0  0  0  0  0  0  0  0  0
   -0.8064    1.1568    0.7414 C   0  0  0  0  0  0  0  0  0  0  0  0
   -1.6978    1.8100    0.2029 O   0  0  0  0  0  0  0  0  0  0  0  0
    0.0314    1.6872    1.6415 N   0  0  0  0  0  0  0  0  0  0  0  0
    0.7279    1.0858    2.0517 H   0  0  0  0  0  0  0  0  0  0  0  0
   -0.0137    3.0826    2.0755 C   0  0  0  0  0  0  0  0  0  0  0  0
   -0.9991    3.3070    2.4905 H   0  0  0  0  0  0  0  0  0  0  0  0
    0.7468    3.2694    2.8349 H   0  0  0  0  0  0  0  0  0  0  0  0
    0.1592    3.7397    1.2213 H   0  0  0  0  0  0  0  0  0  0  0  0
  5  6  2  0  0  0  0
  5  7  1  0  0  0  0
  2  3  1  0  0  0  0
  2  4  1  0  0  0  0
  2  5  1  0  0  0  0
  1  2  1  0  0  0  0
 22 23  2  0  0  0  0
 22 24  1  0  0  0  0
 18 19  1  0  0  0  0
 18 20  1  0  0  0  0
 18 21  1  0  0  0  0
 17 18  1  0  0  0  0
 14 15  1  0  0  0  0
 14 16  1  0  0  0  0
 14 17  1  0  0  0  0
 11 12  1  0  0  0  0
 11 13  1  0  0  0  0
 11 14  1  0  0  0  0
  9 10  1  0  0  0  0
  9 11  1  0  0  0  0
  9 22  1  0  0  0  0
  7  8  1  0  0  0  0
  7  9  1  0  0  0  0
 26 27  1  0  0  0  0
 26 28  1  0  0  0  0
 26 29  1  0  0  0  0
 24 25  1  0  0  0  0
 24 26  1  0  0  0  0
M  END
$$$$
default_name
  -OEChem-02102213163D

 29 28  0     1  0  0  0  0  0999 V2000
   -3.5781   -3.7296    1.2702 H   0  0  0  0  0  0  0  0  0  0  0  0
   -3.5311   -2.7616    0.7732 C   0  0  0  0  0  0  0  0  0  0  0  0
   -4.2371   -2.0766    1.2382 H   0  0  0  0  0  0  0  0  0  0  0  0
   -3.7681   -2.8816   -0.2818 H   0  0  0  0  0  0  0  0  0  0  0  0
   -2.1321   -2.2086    0.9112 C   0  0  0  0  0  0  0  0  0  0  0  0
   -1.2751   -2.8426    1.5112 O   0  0  0  0  0  0  0  0  0  0  0  0
   -1.9041   -1.0186    0.3602 N   0  0  0  0  0  0  0  0  0  0  0  0
   -2.6671   -0.5416   -0.0988 H   0  0  0  0  0  0  0  0  0  0  0  0
   -0.6131   -0.3236    0.3832 C   0  0  1  0  0  0  0  0  0  0  0  0
    0.0142   -0.7800    1.1506 H   0  0  0  0  0  0  0  0  0  0  0  0
    0.0816   -0.5059   -0.9788 C   0  0  0  0  0  0  0  0  0  0  0  0
   -0.5672   -1.0986   -1.6273 H   0  0  0  0  0  0  0  0  0  0  0  0
    0.2264    0.4710   -1.4425 H   0  0  0  0  0  0  0  0  0  0  0  0
    1.4404   -1.2093   -0.8840 C   0  0  0  0  0  0  0  0  0  0  0  0
    1.9876   -1.0566   -1.8137 H   0  0  0  0  0  0  0  0  0  0  0  0
    2.0084   -0.7651   -0.0658 H   0  0  0  0  0  0  0  0  0  0  0  0
    1.3159   -2.9922   -0.5916 S   0  0  0  0  0  0  0  0  0  0  0  0
    0.6805   -2.9842    1.1049 C   0  0  0  0  0  0  0  0  0  0  0  0
   -0.2788   -2.4668    1.1357 H   0  0  0  0  0  0  0  0  0  0  0  0
    0.5455   -4.0113    1.4451 H   0  0  0  0  0  0  0  0  0  0  0  0
    1.3900   -2.4793    1.7610 H   0  0  0  0  0  0  0  0  0  0  0  0
   -0.8064    1.1568    0.7414 C   0  0  0  0  0  0  0  0  0  0  0  0
   -1.6978    1.8100    0.2029 O   0  0  0  0  0  0  0  0  0  0  0  0
    0.0314    1.6872    1.6415 N   0  0  0  0  0  0  0  0  0  0  0  0
    0.7279    1.0858    2.0517 H   0  0  0  0  0  0  0  0  0  0  0  0
   -0.0137    3.0826    2.0755 C   0  0  0  0  0  0  0  0  0  0  0  0
   -0.9991    3.3070    2.4905 H   0  0  0  0  0  0  0  0  0  0  0  0
    0.7468    3.2694    2.8349 H   0  0  0  0  0  0  0  0  0  0  0  0
    0.1592    3.7397    1.2213 H   0  0  0  0  0  0  0  0  0  0  0  0
  5  6  2  0  0  0  0
  5  7  1  0  0  0  0
  2  3  1  0  0  0  0
  2  4  1  0  0  0  0
  2  5  1  0  0  0  0
  1  2  1  0  0  0  0
 22 23  2  0  0  0  0
 22 24  1  0  0  0  0
 18 19  1  0  0  0  0
 18 20  1  0  0  0  0
 18 21  1  0  0  0  0
 17 18  1  0  0  0  0
 14 15  1  0  0  0  0
 14 16  1  0  0  0  0
 14 17  1  0  0  0  0
 11 12  1  0  0  0  0
 11 13  1  0  0  0  0
 11 14  1  0  0  0  0
  9 10  1  0  0  0  0
  9 11  1  0  0  0  0
  9 22  1  0  0  0  0
  7  8  1  0  0  0  0
  7  9  1  0  0  0  0
 26 27  1  0  0  0  0
 26 28  1  0  0  0  0
 26 29  1  0  0  0  0
 24 25  1  0  0  0  0
 24 26  1  0  0  0  0
M  END
$$$$
default_name
  -OEChem-02102213163D

 29 28  0     1  0  0  0  0  0999 V2000
   -3.5781   -3.7296    1.2702 H   0  0  0  0  0  0  0  0  0  0  0  0
   -3.5311   -2.7616    0.7732 C   0  0  0  0  0  0  0  0  0  0  0  0
   -4.2371   -2.0766    1.2382 H   0  0  0  0  0  0  0  0  0  0  0  0
   -3.7681   -2.8816   -0.2818 H   0  0  0  0  0  0  0  0  0  0  0  0
   -2.1321   -2.2086    0.9112 C   0  0  0  0  0  0  0  0  0  0  0  0
   -1.2751   -2.8426    1.5112 O   0  0  0  0  0  0  0  0  0  0  0  0
   -1.9041   -1.0186    0.3602 N   0  0  0  0  0  0  0  0  0  0  0  0
   -2.6671   -0.5416   -0.0988 H   0  0  0  0  0  0  0  0  0  0  0  0
   -0.6131   -0.3236    0.3832 C   0  0  1  0  0  0  0  0  0  0  0  0
    0.0142   -0.7800    1.1506 H   0  0  0  0  0  0  0  0  0  0  0  0
    0.0816   -0.5059   -0.9788 C   0  0  0  0  0  0  0  0  0  0  0  0
   -0.5672   -1.0986   -1.6273 H   0  0  0  0  0  0  0  0  0  0  0  0
    0.2264    0.4710   -1.4425 H   0  0  0  0  0  0  0  0  0  0  0  0
    1.4404   -1.2093   -0.8840 C   0  0  0  0  0  0  0  0  0  0  0  0
    2.0877   -0.8453   -1.6812 H   0  0  0  0  0  0  0  0  0  0  0  0
    1.8953   -0.9643    0.0765 H   0  0  0  0  0  0  0  0  0  0  0  0
    1.3359   -3.0118   -1.0238 S   0  0  0  0  0  0  0  0  0  0  0  0
    0.5066   -3.3963    0.5402 C   0  0  0  0  0  0  0  0  0  0  0  0
   -0.4648   -2.9019    0.5725 H   0  0  0  0  0  0  0  0  0  0  0  0
    0.3635   -4.4744    0.6180 H   0  0  0  0  0  0  0  0  0  0  0  0
    1.1192   -3.0546    1.3751 H   0  0  0  0  0  0  0  0  0  0  0  0
   -0.8064    1.1568    0.7414 C   0  0  0  0  0  0  0  0  0  0  0  0
   -1.6978    1.8100    0.2029 O   0  0  0  0  0  0  0  0  0  0  0  0
    0.0314    1.6872    1.6415 N   0  0  0  0  0  0  0  0  0  0  0  0
    0.7279    1.0858    2.0517 H   0  0  0  0  0  0  0  0  0  0  0  0
   -0.0137    3.0826    2.0755 C   0  0  0  0  0  0  0  0  0  0  0  0
   -0.9991    3.3070    2.4905 H   0  0  0  0  0  0  0  0  0  0  0  0
    0.7468    3.2694    2.8349 H   0  0  0  0  0  0  0  0  0  0  0  0
    0.1592    3.7397    1.2213 H   0  0  0  0  0  0  0  0  0  0  0  0
  5  6  2  0  0  0  0
  5  7  1  0  0  0  0
  2  3  1  0  0  0  0
  2  4  1  0  0  0  0
  2  5  1  0  0  0  0
  1  2  1  0  0  0  0
 22 23  2  0  0  0  0
 22 24  1  0  0  0  0
 18 19  1  0  0  0  0
 18 20  1  0  0  0  0
 18 21  1  0  0  0  0
 17 18  1  0  0  0  0
 14 15  1  0  0  0  0
 14 16  1  0  0  0  0
 14 17  1  0  0  0  0
 11 12  1  0  0  0  0
 11 13  1  0  0  0  0
 11 14  1  0  0  0  0
  9 10  1  0  0  0  0
  9 11  1  0  0  0  0
  9 22  1  0  0  0  0
  7  8  1  0  0  0  0
  7  9  1  0  0  0  0
 26 27  1  0  0  0  0
 26 28  1  0  0  0  0
 26 29  1  0  0  0  0
 24 25  1  0  0  0  0
 24 26  1  0  0  0  0
M  END
$$$$
default_name
  -OEChem-02102213163D

 29 28  0     1  0  0  0  0  0999 V2000
   -3.5781   -3.7296    1.2702 H   0  0  0  0  0  0  0  0  0  0  0  0
   -3.5311   -2.7616    0.7732 C   0  0  0  0  0  0  0  0  0  0  0  0
   -4.2371   -2.0766    1.2382 H   0  0  0  0  0  0  0  0  0  0  0  0
   -3.7681   -2.8816   -0.2818 H   0  0  0  0  0  0  0  0  0  0  0  0
   -2.1321   -2.2086    0.9112 C   0  0  0  0  0  0  0  0  0  0  0  0
   -1.2751   -2.8426    1.5112 O   0  0  0  0  0  0  0  0  0  0  0  0
   -1.9041   -1.0186    0.3602 N   0  0  0  0  0  0  0  0  0  0  0  0
   -2.6671   -0.5416   -0.0988 H   0  0  0  0  0  0  0  0  0  0  0  0
   -0.6131   -0.3236    0.3832 C   0  0  1  0  0  0  0  0  0  0  0  0
    0.0142   -0.7800    1.1506 H   0  0  0  0  0  0  0  0  0  0  0  0
    0.0816   -0.5059   -0.9788 C   0  0  0  0  0  0  0  0  0  0  0  0
   -0.5672   -1.0986   -1.6273 H   0  0  0  0  0  0  0  0  0  0  0  0
    0.2264    0.4710   -1.4425 H   0  0  0  0  0  0  0  0  0  0  0  0
    1.4404   -1.2093   -0.8840 C   0  0  0  0  0  0  0  0  0  0  0  0
    2.1653   -0.6700   -1.4929 H   0  0  0  0  0  0  0  0  0  0  0  0
    1.7724   -1.1912    0.1547 H   0  0  0  0  0  0  0  0  0  0  0  0
    1.4069   -2.9314   -1.4434 S   0  0  0  0  0  0  0  0  0  0  0  0
    0.4123   -3.6676   -0.1203 C   0  0  0  0  0  0  0  0  0  0  0  0
   -0.5705   -3.1961   -0.0934 H   0  0  0  0  0  0  0  0  0  0  0  0
    0.2934   -4.7349   -0.3088 H   0  0  0  0  0  0  0  0  0  0  0  0
    0.9126   -3.5261    0.8381 H   0  0  0  0  0  0  0  0  0  0  0  0
   -0.8064    1.1568    0.7414 C   0  0  0  0  0  0  0  0  0  0  0  0
   -1.6978    1.8100    0.2029 O   0  0  0  0  0  0  0  0  0  0  0  0
    0.0314    1.6872    1.6415 N   0  0  0  0  0  0  0  0  0  0  0  0
    0.7279    1.0858    2.0517 H   0  0  0  0  0  0  0  0  0  0  0  0
   -0.0137    3.0826    2.0755 C   0  0  0  0  0  0  0  0  0  0  0  0
   -0.9991    3.3070    2.4905 H   0  0  0  0  0  0  0  0  0  0  0  0
    0.7468    3.2694    2.8349 H   0  0  0  0  0  0  0  0  0  0  0  0
    0.1592    3.7397    1.2213 H   0  0  0  0  0  0  0  0  0  0  0  0
  5  6  2  0  0  0  0
  5  7  1  0  0  0  0
  2  3  1  0  0  0  0
  2  4  1  0  0  0  0
  2  5  1  0  0  0  0
  1  2  1  0  0  0  0
 22 23  2  0  0  0  0
 22 24  1  0  0  0  0
 18 19  1  0  0  0  0
 18 20  1  0  0  0  0
 18 21  1  0  0  0  0
 17 18  1  0  0  0  0
 14 15  1  0  0  0  0
 14 16  1  0  0  0  0
 14 17  1  0  0  0  0
 11 12  1  0  0  0  0
 11 13  1  0  0  0  0
 11 14  1  0  0  0  0
  9 10  1  0  0  0  0
  9 11  1  0  0  0  0
  9 22  1  0  0  0  0
  7  8  1  0  0  0  0
  7  9  1  0  0  0  0
 26 27  1  0  0  0  0
 26 28  1  0  0  0  0
 26 29  1  0  0  0  0
 24 25  1  0  0  0  0
 24 26  1  0  0  0  0
M  END
$$$$
default_name
  -OEChem-02102213163D

 29 28  0     1  0  0  0  0  0999 V2000
   -3.5781   -3.7296    1.2702 H   0  0  0  0  0  0  0  0  0  0  0  0
   -3.5311   -2.7616    0.7732 C   0  0  0  0  0  0  0  0  0  0  0  0
   -4.2371   -2.0766    1.2382 H   0  0  0  0  0  0  0  0  0  0  0  0
   -3.7681   -2.8816   -0.2818 H   0  0  0  0  0  0  0  0  0  0  0  0
   -2.1321   -2.2086    0.9112 C   0  0  0  0  0  0  0  0  0  0  0  0
   -1.2751   -2.8426    1.5112 O   0  0  0  0  0  0  0  0  0  0  0  0
   -1.9041   -1.0186    0.3602 N   0  0  0  0  0  0  0  0  0  0  0  0
   -2.6671   -0.5416   -0.0988 H   0  0  0  0  0  0  0  0  0  0  0  0
   -0.6131   -0.3236    0.3832 C   0  0  1  0  0  0  0  0  0  0  0  0
    0.0142   -0.7800    1.1506 H   0  0  0  0  0  0  0  0  0  0  0  0
    0.0816   -0.5059   -0.9788 C   0  0  0  0  0  0  0  0  0  0  0  0
   -0.5672   -1.0986   -1.6273 H   0  0  0  0  0  0  0  0  0  0  0  0
    0.2264    0.4710   -1.4425 H   0  0  0  0  0  0  0  0  0  0  0  0
    1.4404   -1.2093   -0.8840 C   0  0  0  0  0  0  0  0  0  0  0  0
    2.2151   -0.5427   -1.2616 H   0  0  0  0  0  0  0  0  0  0  0  0
    1.6481   -1.4302    0.1636 H   0  0  0  0  0  0  0  0  0  0  0  0
    1.5240   -2.7562   -1.8219 S   0  0  0  0  0  0  0  0  0  0  0  0
    0.4040   -3.7796   -0.8318 C   0  0  0  0  0  0  0  0  0  0  0  0
   -0.5889   -3.3291   -0.8167 H   0  0  0  0  0  0  0  0  0  0  0  0
    0.3398   -4.7750   -1.2720 H   0  0  0  0  0  0  0  0  0  0  0  0
    0.7844   -3.8616    0.1867 H   0  0  0  0  0  0  0  0  0  0  0  0
   -0.8064    1.1568    0.7414 C   0  0  0  0  0  0  0  0  0  0  0  0
   -1.6978    1.8100    0.2029 O   0  0  0  0  0  0  0  0  0  0  0  0
    0.0314    1.6872    1.6415 N   0  0  0  0  0  0  0  0  0  0  0  0
    0.7279    1.0858    2.0517 H   0  0  0  0  0  0  0  0  0  0  0  0
   -0.0137    3.0826    2.0755 C   0  0  0  0  0  0  0  0  0  0  0  0
   -0.9991    3.3070    2.4905 H   0  0  0  0  0  0  0  0  0  0  0  0
    0.7468    3.2694    2.8349 H   0  0  0  0  0  0  0  0  0  0  0  0
    0.1592    3.7397    1.2213 H   0  0  0  0  0  0  0  0  0  0  0  0
  5  6  2  0  0  0  0
  5  7  1  0  0  0  0
  2  3  1  0  0  0  0
  2  4  1  0  0  0  0
  2  5  1  0  0  0  0
  1  2  1  0  0  0  0
 22 23  2  0  0  0  0
 22 24  1  0  0  0  0
 18 19  1  0  0  0  0
 18 20  1  0  0  0  0
 18 21  1  0  0  0  0
 17 18  1  0  0  0  0
 14 15  1  0  0  0  0
 14 16  1  0  0  0  0
 14 17  1  0  0  0  0
 11 12  1  0  0  0  0
 11 13  1  0  0  0  0
 11 14  1  0  0  0  0
  9 10  1  0  0  0  0
  9 11  1  0  0  0  0
  9 22  1  0  0  0  0
  7  8  1  0  0  0  0
  7  9  1  0  0  0  0
 26 27  1  0  0  0  0
 26 28  1  0  0  0  0
 26 29  1  0  0  0  0
 24 25  1  0  0  0  0
 24 26  1  0  0  0  0
M  END
$$$$
default_name
  -OEChem-02102213163D

 29 28  0     1  0  0  0  0  0999 V2000
   -3.5781   -3.7296    1.2702 H   0  0  0  0  0  0  0  0  0  0  0  0
   -3.5311   -2.7616    0.7732 C   0  0  0  0  0  0  0  0  0  0  0  0
   -4.2371   -2.0766    1.2382 H   0  0  0  0  0  0  0  0  0  0  0  0
   -3.7681   -2.8816   -0.2818 H   0  0  0  0  0  0  0  0  0  0  0  0
   -2.1321   -2.2086    0.9112 C   0  0  0  0  0  0  0  0  0  0  0  0
   -1.2751   -2.8426    1.5112 O   0  0  0  0  0  0  0  0  0  0  0  0
   -1.9041   -1.0186    0.3602 N   0  0  0  0  0  0  0  0  0  0  0  0
   -2.6671   -0.5416   -0.0988 H   0  0  0  0  0  0  0  0  0  0  0  0
   -0.6131   -0.3236    0.3832 C   0  0  1  0  0  0  0  0  0  0  0  0
    0.0142   -0.7800    1.1506 H   0  0  0  0  0  0  0  0  0  0  0  0
    0.0816   -0.5059   -0.9788 C   0  0  0  0  0  0  0  0  0  0  0  0
   -0.5672   -1.0986   -1.6273 H   0  0  0  0  0  0  0  0  0  0  0  0
    0.2264    0.4710   -1.4425 H   0  0  0  0  0  0  0  0  0  0  0  0
    1.4404   -1.2093   -0.8840 C   0  0  0  0  0  0  0  0  0  0  0  0
    2.2337   -0.4719   -1.0031 H   0  0  0  0  0  0  0  0  0  0  0  0
    1.5307   -1.6652    0.1027 H   0  0  0  0  0  0  0  0  0  0  0  0
    1.6792   -2.4984   -2.1333 S   0  0  0  0  0  0  0  0  0  0  0  0
    0.4823   -3.7247   -1.5458 C   0  0  0  0  0  0  0  0  0  0  0  0
   -0.5186   -3.2919   -1.5480 H   0  0  0  0  0  0  0  0  0  0  0  0
    0.4998   -4.5921   -2.2062 H   0  0  0  0  0  0  0  0  0  0  0  0
    0.7432   -4.0383   -0.5347 H   0  0  0  0  0  0  0  0  0  0  0  0
   -0.8064    1.1568    0.7414 C   0  0  0  0  0  0  0  0  0  0  0  0
   -1.6978    1.8100    0.2029 O   0  0  0  0  0  0  0  0  0  0  0  0
    0.0314    1.6872    1.6415 N   0  0  0  0  0  0  0  0  0  0  0  0
    0.7279    1.0858    2.0517 H   0  0  0  0  0  0  0  0  0  0  0  0
   -0.0137    3.0826    2.0755 C   0  0  0  0  0  0  0  0  0  0  0  0
   -0.9991    3.3070    2.4905 H   0  0  0  0  0  0  0  0  0  0  0  0
    0.7468    3.2694    2.8349 H   0  0  0  0  0  0  0  0  0  0  0  0
    0.1592    3.7397    1.2213 H   0  0  0  0  0  0  0  0  0  0  0  0
  5  6  2  0  0  0  0
  5  7  1  0  0  0  0
  2  3  1  0  0  0  0
  2  4  1  0  0  0  0
  2  5  1  0  0  0  0
  1  2  1  0  0  0  0
 22 23  2  0  0  0  0
 22 24  1  0  0  0  0
 18 19  1  0  0  0  0
 18 20  1  0  0  0  0
 18 21  1  0  0  0  0
 17 18  1  0  0  0  0
 14 15  1  0  0  0  0
 14 16  1  0  0  0  0
 14 17  1  0  0  0  0
 11 12  1  0  0  0  0
 11 13  1  0  0  0  0
 11 14  1  0  0  0  0
  9 10  1  0  0  0  0
  9 11  1  0  0  0  0
  9 22  1  0  0  0  0
  7  8  1  0  0  0  0
  7  9  1  0  0  0  0
 26 27  1  0  0  0  0
 26 28  1  0  0  0  0
 26 29  1  0  0  0  0
 24 25  1  0  0  0  0
 24 26  1  0  0  0  0
M  END
$$$$
default_name
  -OEChem-02102213163D

 29 28  0     1  0  0  0  0  0999 V2000
   -3.5781   -3.7296    1.2702 H   0  0  0  0  0  0  0  0  0  0  0  0
   -3.5311   -2.7616    0.7732 C   0  0  0  0  0  0  0  0  0  0  0  0
   -4.2371   -2.0766    1.2382 H   0  0  0  0  0  0  0  0  0  0  0  0
   -3.7681   -2.8816   -0.2818 H   0  0  0  0  0  0  0  0  0  0  0  0
   -2.1321   -2.2086    0.9112 C   0  0  0  0  0  0  0  0  0  0  0  0
   -1.2751   -2.8426    1.5112 O   0  0  0  0  0  0  0  0  0  0  0  0
   -1.9041   -1.0186    0.3602 N   0  0  0  0  0  0  0  0  0  0  0  0
   -2.6671   -0.5416   -0.0988 H   0  0  0  0  0  0  0  0  0  0  0  0
   -0.6131   -0.3236    0.3832 C   0  0  1  0  0  0  0  0  0  0  0  0
    0.0142   -0.7800    1.1506 H   0  0  0  0  0  0  0  0  0  0  0  0
    0.0816   -0.5059   -0.9788 C   0  0  0  0  0  0  0  0  0  0  0  0
   -0.5672   -1.0986   -1.6273 H   0  0  0  0  0  0  0  0  0  0  0  0
    0.2264    0.4710   -1.4425 H   0  0  0  0  0  0  0  0  0  0  0  0
    1.4404   -1.2093   -0.8840 C   0  0  0  0  0  0  0  0  0  0  0  0
    2.2198   -0.4626   -0.7349 H   0  0  0  0  0  0  0  0  0  0  0  0
    1.4283   -1.8800   -0.0241 H   0  0  0  0  0  0  0  0  0  0  0  0
    1.8620   -2.1754   -2.3566 S   0  0  0  0  0  0  0  0  0  0  0  0
    0.6418   -3.5066   -2.2135 C   0  0  0  0  0  0  0  0  0  0  0  0
   -0.3645   -3.0872   -2.2375 H   0  0  0  0  0  0  0  0  0  0  0  0
    0.7623   -4.1985   -3.0475 H   0  0  0  0  0  0  0  0  0  0  0  0
    0.7920   -4.0442   -1.2769 H   0  0  0  0  0  0  0  0  0  0  0  0
   -0.8064    1.1568    0.7414 C   0  0  0  0  0  0  0  0  0  0  0  0
   -1.6978    1.8100    0.2029 O   0  0  0  0  0  0  0  0  0  0  0  0
    0.0314    1.6872    1.6415 N   0  0  0  0  0  0  0  0  0  0  0  0
    0.7279    1.0858    2.0517 H   0  0  0  0  0  0  0  0  0  0  0  0
   -0.0137    3.0826    2.0755 C   0  0  0  0  0  0  0  0  0  0  0  0
   -0.9991    3.3070    2.4905 H   0  0  0  0  0  0  0  0  0  0  0  0
    0.7468    3.2694    2.8349 H   0  0  0  0  0  0  0  0  0  0  0  0
    0.1592    3.7397    1.2213 H   0  0  0  0  0  0  0  0  0  0  0  0
  5  6  2  0  0  0  0
  5  7  1  0  0  0  0
  2  3  1  0  0  0  0
  2  4  1  0  0  0  0
  2  5  1  0  0  0  0
  1  2  1  0  0  0  0
 22 23  2  0  0  0  0
 22 24  1  0  0  0  0
 18 19  1  0  0  0  0
 18 20  1  0  0  0  0
 18 21  1  0  0  0  0
 17 18  1  0  0  0  0
 14 15  1  0  0  0  0
 14 16  1  0  0  0  0
 14 17  1  0  0  0  0
 11 12  1  0  0  0  0
 11 13  1  0  0  0  0
 11 14  1  0  0  0  0
  9 10  1  0  0  0  0
  9 11  1  0  0  0  0
  9 22  1  0  0  0  0
  7  8  1  0  0  0  0
  7  9  1  0  0  0  0
 26 27  1  0  0  0  0
 26 28  1  0  0  0  0
 26 29  1  0  0  0  0
 24 25  1  0  0  0  0
 24 26  1  0  0  0  0
M  END
$$$$
default_name
  -OEChem-02102213163D

 29 28  0     1  0  0  0  0  0999 V2000
   -3.5781   -3.7296    1.2702 H   0  0  0  0  0  0  0  0  0  0  0  0
   -3.5311   -2.7616    0.7732 C   0  0  0  0  0  0  0  0  0  0  0  0
   -4.2371   -2.0766    1.2382 H   0  0  0  0  0  0  0  0  0  0  0  0
   -3.7681   -2.8816   -0.2818 H   0  0  0  0  0  0  0  0  0  0  0  0
   -2.1321   -2.2086    0.9112 C   0  0  0  0  0  0  0  0  0  0  0  0
   -1.2751   -2.8426    1.5112 O   0  0  0  0  0  0  0  0  0  0  0  0
   -1.9041   -1.0186    0.3602 N   0  0  0  0  0  0  0  0  0  0  0  0
   -2.6671   -0.5416   -0.0988 H   0  0  0  0  0  0  0  0  0  0  0  0
   -0.6131   -0.3236    0.3832 C   0  0  1  0  0  0  0  0  0  0  0  0
    0.0142   -0.7800    1.1506 H   0  0  0  0  0  0  0  0  0  0  0  0
    0.0816   -0.5059   -0.9788 C   0  0  0  0  0  0  0  0  0  0  0  0
   -0.5672   -1.0986   -1.6273 H   0  0  0  0  0  0  0  0  0  0  0  0
    0.2264    0.4710   -1.4425 H   0  0  0  0  0  0  0  0  0  0  0  0
    1.4404   -1.2093   -0.8840 C   0  0  0  0  0  0  0  0  0  0  0  0
    2.1743   -0.5154   -0.4754 H   0  0  0  0  0  0  0  0  0  0  0  0
    1.3479   -2.0601   -0.2080 H   0  0  0  0  0  0  0  0  0  0  0  0
    2.0600   -1.8092   -2.4764 S   0  0  0  0  0  0  0  0  0  0  0  0
    0.8716   -3.1402   -2.7895 C   0  0  0  0  0  0  0  0  0  0  0  0
   -0.1370   -2.7287   -2.8383 H   0  0  0  0  0  0  0  0  0  0  0  0
    1.1094   -3.6212   -3.7387 H   0  0  0  0  0  0  0  0  0  0  0  0
    0.9274   -3.8788   -1.9894 H   0  0  0  0  0  0  0  0  0  0  0  0
   -0.8064    1.1568    0.7414 C   0  0  0  0  0  0  0  0  0  0  0  0
   -1.6978    1.8100    0.2029 O   0  0  0  0  0  0  0  0  0  0  0  0
    0.0314    1.6872    1.6415 N   0  0  0  0  0  0  0  0  0  0  0  0
    0.7279    1.0858    2.0517 H   0  0  0  0  0  0  0  0  0  0  0  0
   -0.0137    3.0826    2.0755 C   0  0  0  0  0  0  0  0  0  0  0  0
   -0.9991    3.3070    2.4905 H   0  0  0  0  0  0  0  0  0  0  0  0
    0.7468    3.2694    2.8349 H   0  0  0  0  0  0  0  0  0  0  0  0
    0.1592    3.7397    1.2213 H   0  0  0  0  0  0  0  0  0  0  0  0
  5  6  2  0  0  0  0
  5  7  1  0  0  0  0
  2  3  1  0  0  0  0
  2  4  1  0  0  0  0
  2  5  1  0  0  0  0
  1  2  1  0  0  0  0
 22 23  2  0  0  0  0
 22 24  1  0  0  0  0
 18 19  1  0  0  0  0
 18 20  1  0  0  0  0
 18 21  1  0  0  0  0
 17 18  1  0  0  0  0
 14 15  1  0  0  0  0
 14 16  1  0  0  0  0
 14 17  1  0  0  0  0
 11 12  1  0  0  0  0
 11 13  1  0  0  0  0
 11 14  1  0  0  0  0
  9 10  1  0  0  0  0
  9 11  1  0  0  0  0
  9 22  1  0  0  0  0
  7  8  1  0  0  0  0
  7  9  1  0  0  0  0
 26 27  1  0  0  0  0
 26 28  1  0  0  0  0
 26 29  1  0  0  0  0
 24 25  1  0  0  0  0
 24 26  1  0  0  0  0
M  END
$$$$
default_name
  -OEChem-02102213163D

 29 28  0     1  0  0  0  0  0999 V2000
   -3.5781   -3.7296    1.2702 H   0  0  0  0  0  0  0  0  0  0  0  0
   -3.5311   -2.7616    0.7732 C   0  0  0  0  0  0  0  0  0  0  0  0
   -4.2371   -2.0766    1.2382 H   0  0  0  0  0  0  0  0  0  0  0  0
   -3.7681   -2.8816   -0.2818 H   0  0  0  0  0  0  0  0  0  0  0  0
   -2.1321   -2.2086    0.9112 C   0  0  0  0  0  0  0  0  0  0  0  0
   -1.2751   -2.8426    1.5112 O   0  0  0  0  0  0  0  0  0  0  0  0
   -1.9041   -1.0186    0.3602 N   0  0  0  0  0  0  0  0  0  0  0  0
   -2.6671   -0.5416   -0.0988 H   0  0  0  0  0  0  0  0  0  0  0  0
   -0.6131   -0.3236    0.3832 C   0  0  1  0  0  0  0  0  0  0  0  0
    0.0142   -0.7800    1.1506 H   0  0  0  0  0  0  0  0  0  0  0  0
    0.0816   -0.5059   -0.9788 C   0  0  0  0  0  0  0  0  0  0  0  0
   -0.6555   -0.8555   -1.7048 H   0  0  0  0  0  0  0  0  0  0  0  0
    0.4648    0.4573   -1.3190 H   0  0  0  0  0  0  0  0  0  0  0  0
    1.2396   -1.5100   -0.9462 C   0  0  0  0  0  0  0  0  0  0  0  0
    1.9857   -1.1718   -0.2278 H   0  0  0  0  0  0  0  0  0  0  0  0
    0.8549   -2.4779   -0.6228 H   0  0  0  0  0  0  0  0  0  0  0  0
    2.0583   -1.7261   -2.5470 S   0  0  0  0  0  0  0  0  0  0  0  0
    0.7397   -2.5711   -3.4576 C   0  0  0  0  0  0  0  0  0  0  0  0
   -0.1444   -1.9344   -3.4997 H   0  0  0  0  0  0  0  0  0  0  0  0
    1.0789   -2.7820   -4.4722 H   0  0  0  0  0  0  0  0  0  0  0  0
    0.4919   -3.5092   -2.9600 H   0  0  0  0  0  0  0  0  0  0  0  0
   -0.8064    1.1568    0.7414 C   0  0  0  0  0  0  0  0  0  0  0  0
   -1.6978    1.8100    0.2029 O   0  0  0  0  0  0  0  0  0  0  0  0
    0.0314    1.6872    1.6415 N   0  0  0  0  0  0  0  0  0  0  0  0
    0.7279    1.0858    2.0517 H   0  0  0  0  0  0  0  0  0  0  0  0
   -0.0137    3.0826    2.0755 C   0  0  0  0  0  0  0  0  0  0  0  0
   -0.9991    3.3070    2.4905 H   0  0  0  0  0  0  0  0  0  0  0  0
    0.7468    3.2694    2.8349 H   0  0  0  0  0  0  0  0  0  0  0  0
    0.1592    3.7397    1.2213 H   0  0  0  0  0  0  0  0  0  0  0  0
  5  6  2  0  0  0  0
  5  7  1  0  0  0  0
  2  3  1  0  0  0  0
  2  4  1  0  0  0  0
  2  5  1  0  0  0  0
  1  2  1  0  0  0  0
 22 23  2  0  0  0  0
 22 24  1  0  0  0  0
 18 19  1  0  0  0  0
 18 20  1  0  0  0  0
 18 21  1  0  0  0  0
 17 18  1  0  0  0  0
 14 15  1  0  0  0  0
 14 16  1  0  0  0  0
 14 17  1  0  0  0  0
 11 12  1  0  0  0  0
 11 13  1  0  0  0  0
 11 14  1  0  0  0  0
  9 10  1  0  0  0  0
  9 11  1  0  0  0  0
  9 22  1  0  0  0  0
  7  8  1  0  0  0  0
  7  9  1  0  0  0  0
 26 27  1  0  0  0  0
 26 28  1  0  0  0  0
 26 29  1  0  0  0  0
 24 25  1  0  0  0  0
 24 26  1  0  0  0  0
M  END
$$$$
default_name
  -OEChem-02102213163D

 29 28  0     1  0  0  0  0  0999 V2000
   -3.5781   -3.7296    1.2702 H   0  0  0  0  0  0  0  0  0  0  0  0
   -3.5311   -2.7616    0.7732 C   0  0  0  0  0  0  0  0  0  0  0  0
   -4.2371   -2.0766    1.2382 H   0  0  0  0  0  0  0  0  0  0  0  0
   -3.7681   -2.8816   -0.2818 H   0  0  0  0  0  0  0  0  0  0  0  0
   -2.1321   -2.2086    0.9112 C   0  0  0  0  0  0  0  0  0  0  0  0
   -1.2751   -2.8426    1.5112 O   0  0  0  0  0  0  0  0  0  0  0  0
   -1.9041   -1.0186    0.3602 N   0  0  0  0  0  0  0  0  0  0  0  0
   -2.6671   -0.5416   -0.0988 H   0  0  0  0  0  0  0  0  0  0  0  0
   -0.6131   -0.3236    0.3832 C   0  0  1  0  0  0  0  0  0  0  0  0
    0.0142   -0.7800    1.1506 H   0  0  0  0  0  0  0  0  0  0  0  0
    0.0816   -0.5059   -0.9788 C   0  0  0  0  0  0  0  0  0  0  0  0
   -0.6555   -0.8555   -1.7048 H   0  0  0  0  0  0  0  0  0  0  0  0
    0.4648    0.4573   -1.3190 H   0  0  0  0  0  0  0  0  0  0  0  0
    1.2396   -1.5100   -0.9462 C   0  0  0  0  0  0  0  0  0  0  0  0
    1.8458   -1.3276   -0.0594 H   0  0  0  0  0  0  0  0  0  0  0  0
    0.8275   -2.5180   -0.8880 H   0  0  0  0  0  0  0  0  0  0  0  0
    2.3216   -1.4175   -2.3954 S   0  0  0  0  0  0  0  0  0  0  0  0
    1.1951   -2.0527   -3.6640 C   0  0  0  0  0  0  0  0  0  0  0  0
    0.3168   -1.4100   -3.7309 H   0  0  0  0  0  0  0  0  0  0  0  0
    1.7055   -2.0644   -4.6275 H   0  0  0  0  0  0  0  0  0  0  0  0
    0.8879   -3.0671   -3.4085 H   0  0  0  0  0  0  0  0  0  0  0  0
   -0.8064    1.1568    0.7414 C   0  0  0  0  0  0  0  0  0  0  0  0
   -1.6978    1.8100    0.2029 O   0  0  0  0  0  0  0  0  0  0  0  0
    0.0314    1.6872    1.6415 N   0  0  0  0  0  0  0  0  0  0  0  0
    0.7279    1.0858    2.0517 H   0  0  0  0  0  0  0  0  0  0  0  0
   -0.0137    3.0826    2.0755 C   0  0  0  0  0  0  0  0  0  0  0  0
   -0.9991    3.3070    2.4905 H   0  0  0  0  0  0  0  0  0  0  0  0
    0.7468    3.2694    2.8349 H   0  0  0  0  0  0  0  0  0  0  0  0
    0.1592    3.7397    1.2213 H   0  0  0  0  0  0  0  0  0  0  0  0
  5  6  2  0  0  0  0
  5  7  1  0  0  0  0
  2  3  1  0  0  0  0
  2  4  1  0  0  0  0
  2  5  1  0  0  0  0
  1  2  1  0  0  0  0
 22 23  2  0  0  0  0
 22 24  1  0  0  0  0
 18 19  1  0  0  0  0
 18 20  1  0  0  0  0
 18 21  1  0  0  0  0
 17 18  1  0  0  0  0
 14 15  1  0  0  0  0
 14 16  1  0  0  0  0
 14 17  1  0  0  0  0
 11 12  1  0  0  0  0
 11 13  1  0  0  0  0
 11 14  1  0  0  0  0
  9 10  1  0  0  0  0
  9 11  1  0  0  0  0
  9 22  1  0  0  0  0
  7  8  1  0  0  0  0
  7  9  1  0  0  0  0
 26 27  1  0  0  0  0
 26 28  1  0  0  0  0
 26 29  1  0  0  0  0
 24 25  1  0  0  0  0
 24 26  1  0  0  0  0
M  END
$$$$
default_name
  -OEChem-02102213163D

 29 28  0     1  0  0  0  0  0999 V2000
   -3.5781   -3.7296    1.2702 H   0  0  0  0  0  0  0  0  0  0  0  0
   -3.5311   -2.7616    0.7732 C   0  0  0  0  0  0  0  0  0  0  0  0
   -4.2371   -2.0766    1.2382 H   0  0  0  0  0  0  0  0  0  0  0  0
   -3.7681   -2.8816   -0.2818 H   0  0  0  0  0  0  0  0  0  0  0  0
   -2.1321   -2.2086    0.9112 C   0  0  0  0  0  0  0  0  0  0  0  0
   -1.2751   -2.8426    1.5112 O   0  0  0  0  0  0  0  0  0  0  0  0
   -1.9041   -1.0186    0.3602 N   0  0  0  0  0  0  0  0  0  0  0  0
   -2.6671   -0.5416   -0.0988 H   0  0  0  0  0  0  0  0  0  0  0  0
   -0.6131   -0.3236    0.3832 C   0  0  1  0  0  0  0  0  0  0  0  0
    0.0142   -0.7800    1.1506 H   0  0  0  0  0  0  0  0  0  0  0  0
    0.0816   -0.5059   -0.9788 C   0  0  0  0  0  0  0  0  0  0  0  0
   -0.6555   -0.8555   -1.7048 H   0  0  0  0  0  0  0  0  0  0  0  0
    0.4648    0.4573   -1.3190 H   0  0  0  0  0  0  0  0  0  0  0  0
    1.2396   -1.5100   -0.9462 C   0  0  0  0  0  0  0  0  0  0  0  0
    1.6830   -1.5118    0.0491 H   0  0  0  0  0  0  0  0  0  0  0  0
    0.8463   -2.5051   -1.1566 H   0  0  0  0  0  0  0  0  0  0  0  0
    2.5486   -1.1475   -2.1440 S   0  0  0  0  0  0  0  0  0  0  0  0
    1.6672   -1.5090   -3.6848 C   0  0  0  0  0  0  0  0  0  0  0  0
    0.7986   -0.8558   -3.7735 H   0  0  0  0  0  0  0  0  0  0  0  0
    2.3332   -1.3375   -4.5310 H   0  0  0  0  0  0  0  0  0  0  0  0
    1.3439   -2.5503   -3.6881 H   0  0  0  0  0  0  0  0  0  0  0  0
   -0.8064    1.1568    0.7414 C   0  0  0  0  0  0  0  0  0  0  0  0
   -1.6978    1.8100    0.2029 O   0  0  0  0  0  0  0  0  0  0  0  0
    0.0314    1.6872    1.6415 N   0  0  0  0  0  0  0  0  0  0  0  0
    0.7279    1.0858    2.0517 H   0  0  0  0  0  0  0  0  0  0  0  0
   -0.0137    3.0826    2.0755 C   0  0  0  0  0  0  0  0  0  0  0  0
   -0.9991    3.3070    2.4905 H   0  0  0  0  0  0  0  0  0  0  0  0
    0.7468    3.2694    2.8349 H   0  0  0  0  0  0  0  0  0  0  0  0
    0.1592    3.7397    1.2213 H   0  0  0  0  0  0  0  0  0  0  0  0
  5  6  2  0  0  0  0
  5  7  1  0  0  0  0
  2  3  1  0  0  0  0
  2  4  1  0  0  0  0
  2  5  1  0  0  0  0
  1  2  1  0  0  0  0
 22 23  2  0  0  0  0
 22 24  1  0  0  0  0
 18 19  1  0  0  0  0
 18 20  1  0  0  0  0
 18 21  1  0  0  0  0
 17 18  1  0  0  0  0
 14 15  1  0  0  0  0
 14 16  1  0  0  0  0
 14 17  1  0  0  0  0
 11 12  1  0  0  0  0
 11 13  1  0  0  0  0
 11 14  1  0  0  0  0
  9 10  1  0  0  0  0
  9 11  1  0  0  0  0
  9 22  1  0  0  0  0
  7  8  1  0  0  0  0
  7  9  1  0  0  0  0
 26 27  1  0  0  0  0
 26 28  1  0  0  0  0
 26 29  1  0  0  0  0
 24 25  1  0  0  0  0
 24 26  1  0  0  0  0
M  END
$$$$
default_name
  -OEChem-02102213163D

 29 28  0     1  0  0  0  0  0999 V2000
   -3.5781   -3.7296    1.2702 H   0  0  0  0  0  0  0  0  0  0  0  0
   -3.5311   -2.7616    0.7732 C   0  0  0  0  0  0  0  0  0  0  0  0
   -4.2371   -2.0766    1.2382 H   0  0  0  0  0  0  0  0  0  0  0  0
   -3.7681   -2.8816   -0.2818 H   0  0  0  0  0  0  0  0  0  0  0  0
   -2.1321   -2.2086    0.9112 C   0  0  0  0  0  0  0  0  0  0  0  0
   -1.2751   -2.8426    1.5112 O   0  0  0  0  0  0  0  0  0  0  0  0
   -1.9041   -1.0186    0.3602 N   0  0  0  0  0  0  0  0  0  0  0  0
   -2.6671   -0.5416   -0.0988 H   0  0  0  0  0  0  0  0  0  0  0  0
   -0.6131   -0.3236    0.3832 C   0  0  1  0  0  0  0  0  0  0  0  0
    0.0142   -0.7800    1.1506 H   0  0  0  0  0  0  0  0  0  0  0  0
    0.0816   -0.5059   -0.9788 C   0  0  0  0  0  0  0  0  0  0  0  0
   -0.6555   -0.8555   -1.7048 H   0  0  0  0  0  0  0  0  0  0  0  0
    0.4648    0.4573   -1.3190 H   0  0  0  0  0  0  0  0  0  0  0  0
    1.2396   -1.5100   -0.9462 C   0  0  0  0  0  0  0  0  0  0  0  0
    1.5084   -1.7118    0.0902 H   0  0  0  0  0  0  0  0  0  0  0  0
    0.9098   -2.4401   -1.4105 H   0  0  0  0  0  0  0  0  0  0  0  0
    2.7237   -0.9347   -1.8099 S   0  0  0  0  0  0  0  0  0  0  0  0
    2.1237   -0.9771   -3.5186 C   0  0  0  0  0  0  0  0  0  0  0  0
    1.2681   -0.3094   -3.6246 H   0  0  0  0  0  0  0  0  0  0  0  0
    2.9190   -0.6507   -4.1892 H   0  0  0  0  0  0  0  0  0  0  0  0
    1.8290   -1.9939   -3.7799 H   0  0  0  0  0  0  0  0  0  0  0  0
   -0.8064    1.1568    0.7414 C   0  0  0  0  0  0  0  0  0  0  0  0
   -1.6978    1.8100    0.2029 O   0  0  0  0  0  0  0  0  0  0  0  0
    0.0314    1.6872    1.6415 N   0  0  0  0  0  0  0  0  0  0  0  0
    0.7279    1.0858    2.0517 H   0  0  0  0  0  0  0  0  0  0  0  0
   -0.0137    3.0826    2.0755 C   0  0  0  0  0  0  0  0  0  0  0  0
   -0.9991    3.3070    2.4905 H   0  0  0  0  0  0  0  0  0  0  0  0
    0.7468    3.2694    2.8349 H   0  0  0  0  0  0  0  0  0  0  0  0
    0.1592    3.7397    1.2213 H   0  0  0  0  0  0  0  0  0  0  0  0
  5  6  2  0  0  0  0
  5  7  1  0  0  0  0
  2  3  1  0  0  0  0
  2  4  1  0  0  0  0
  2  5  1  0  0  0  0
  1  2  1  0  0  0  0
 22 23  2  0  0  0  0
 22 24  1  0  0  0  0
 18 19  1  0  0  0  0
 18 20  1  0  0  0  0
 18 21  1  0  0  0  0
 17 18  1  0  0  0  0
 14 15  1  0  0  0  0
 14 16  1  0  0  0  0
 14 17  1  0  0  0  0
 11 12  1  0  0  0  0
 11 13  1  0  0  0  0
 11 14  1  0  0  0  0
  9 10  1  0  0  0  0
  9 11  1  0  0  0  0
  9 22  1  0  0  0  0
  7  8  1  0  0  0  0
  7  9  1  0  0  0  0
 26 27  1  0  0  0  0
 26 28  1  0  0  0  0
 26 29  1  0  0  0  0
 24 25  1  0  0  0  0
 24 26  1  0  0  0  0
M  END
$$$$
default_name
  -OEChem-02102213163D

 29 28  0     1  0  0  0  0  0999 V2000
   -3.5781   -3.7296    1.2702 H   0  0  0  0  0  0  0  0  0  0  0  0
   -3.5311   -2.7616    0.7732 C   0  0  0  0  0  0  0  0  0  0  0  0
   -4.2371   -2.0766    1.2382 H   0  0  0  0  0  0  0  0  0  0  0  0
   -3.7681   -2.8816   -0.2818 H   0  0  0  0  0  0  0  0  0  0  0  0
   -2.1321   -2.2086    0.9112 C   0  0  0  0  0  0  0  0  0  0  0  0
   -1.2751   -2.8426    1.5112 O   0  0  0  0  0  0  0  0  0  0  0  0
   -1.9041   -1.0186    0.3602 N   0  0  0  0  0  0  0  0  0  0  0  0
   -2.6671   -0.5416   -0.0988 H   0  0  0  0  0  0  0  0  0  0  0  0
   -0.6131   -0.3236    0.3832 C   0  0  1  0  0  0  0  0  0  0  0  0
    0.0142   -0.7800    1.1506 H   0  0  0  0  0  0  0  0  0  0  0  0
    0.0816   -0.5059   -0.9788 C   0  0  0  0  0  0  0  0  0  0  0  0
   -0.6555   -0.8555   -1.7048 H   0  0  0  0  0  0  0  0  0  0  0  0
    0.4648    0.4573   -1.3190 H   0  0  0  0  0  0  0  0  0  0  0  0
    1.2396   -1.5100   -0.9462 C   0  0  0  0  0  0  0  0  0  0  0  0
    1.3339   -1.9141    0.0613 H   0  0  0  0  0  0  0  0  0  0  0  0
    1.0139   -2.3273   -1.6321 H   0  0  0  0  0  0  0  0  0  0  0  0
    2.8351   -0.7934   -1.4159 S   0  0  0  0  0  0  0  0  0  0  0  0
    2.5335   -0.4934   -3.1768 C   0  0  0  0  0  0  0  0  0  0  0  0
    1.6934    0.1918   -3.2944 H   0  0  0  0  0  0  0  0  0  0  0  0
    3.4232   -0.0509   -3.6256 H   0  0  0  0  0  0  0  0  0  0  0  0
    2.3100   -1.4358   -3.6775 H   0  0  0  0  0  0  0  0  0  0  0  0
   -0.8064    1.1568    0.7414 C   0  0  0  0  0  0  0  0  0  0  0  0
   -1.6978    1.8100    0.2029 O   0  0  0  0  0  0  0  0  0  0  0  0
    0.0314    1.6872    1.6415 N   0  0  0  0  0  0  0  0  0  0  0  0
    0.7279    1.0858    2.0517 H   0  0  0  0  0  0  0  0  0  0  0  0
   -0.0137    3.0826    2.0755 C   0  0  0  0  0  0  0  0  0  0  0  0
   -0.9991    3.3070    2.4905 H   0  0  0  0  0  0  0  0  0  0  0  0
    0.7468    3.2694    2.8349 H   0  0  0  0  0  0  0  0  0  0  0  0
    0.1592    3.7397    1.2213 H   0  0  0  0  0  0  0  0  0  0  0  0
  5  6  2  0  0  0  0
  5  7  1  0  0  0  0
  2  3  1  0  0  0  0
  2  4  1  0  0  0  0
  2  5  1  0  0  0  0
  1  2  1  0  0  0  0
 22 23  2  0  0  0  0
 22 24  1  0  0  0  0
 18 19  1  0  0  0  0
 18 20  1  0  0  0  0
 18 21  1  0  0  0  0
 17 18  1  0  0  0  0
 14 15  1  0  0  0  0
 14 16  1  0  0  0  0
 14 17  1  0  0  0  0
 11 12  1  0  0  0  0
 11 13  1  0  0  0  0
 11 14  1  0  0  0  0
  9 10  1  0  0  0  0
  9 11  1  0  0  0  0
  9 22  1  0  0  0  0
  7  8  1  0  0  0  0
  7  9  1  0  0  0  0
 26 27  1  0  0  0  0
 26 28  1  0  0  0  0
 26 29  1  0  0  0  0
 24 25  1  0  0  0  0
 24 26  1  0  0  0  0
M  END
$$$$
default_name
  -OEChem-02102213163D

 29 28  0     1  0  0  0  0  0999 V2000
   -3.5781   -3.7296    1.2702 H   0  0  0  0  0  0  0  0  0  0  0  0
   -3.5311   -2.7616    0.7732 C   0  0  0  0  0  0  0  0  0  0  0  0
   -4.2371   -2.0766    1.2382 H   0  0  0  0  0  0  0  0  0  0  0  0
   -3.7681   -2.8816   -0.2818 H   0  0  0  0  0  0  0  0  0  0  0  0
   -2.1321   -2.2086    0.9112 C   0  0  0  0  0  0  0  0  0  0  0  0
   -1.2751   -2.8426    1.5112 O   0  0  0  0  0  0  0  0  0  0  0  0
   -1.9041   -1.0186    0.3602 N   0  0  0  0  0  0  0  0  0  0  0  0
   -2.6671   -0.5416   -0.0988 H   0  0  0  0  0  0  0  0  0  0  0  0
   -0.6131   -0.3236    0.3832 C   0  0  1  0  0  0  0  0  0  0  0  0
    0.0142   -0.7800    1.1506 H   0  0  0  0  0  0  0  0  0  0  0  0
    0.0816   -0.5059   -0.9788 C   0  0  0  0  0  0  0  0  0  0  0  0
   -0.6555   -0.8555   -1.7048 H   0  0  0  0  0  0  0  0  0  0  0  0
    0.4648    0.4573   -1.3190 H   0  0  0  0  0  0  0  0  0  0  0  0
    1.2396   -1.5100   -0.9462 C   0  0  0  0  0  0  0  0  0  0  0  0
    1.1713   -2.1047   -0.0358 H   0  0  0  0  0  0  0  0  0  0  0  0
    1.1514   -2.1744   -1.8065 H   0  0  0  0  0  0  0  0  0  0  0  0
    2.8751   -0.7334   -0.9888 S   0  0  0  0  0  0  0  0  0  0  0  0
    2.8687   -0.0907   -2.6825 C   0  0  0  0  0  0  0  0  0  0  0  0
    2.0455    0.6137   -2.8053 H   0  0  0  0  0  0  0  0  0  0  0  0
    3.8114    0.4210   -2.8784 H   0  0  0  0  0  0  0  0  0  0  0  0
    2.7542   -0.9141   -3.3880 H   0  0  0  0  0  0  0  0  0  0  0  0
   -0.8064    1.1568    0.7414 C   0  0  0  0  0  0  0  0  0  0  0  0
   -1.6978    1.8100    0.2029 O   0  0  0  0  0  0  0  0  0  0  0  0
    0.0314    1.6872    1.6415 N   0  0  0  0  0  0  0  0  0  0  0  0
    0.7279    1.0858    2.0517 H   0  0  0  0  0  0  0  0  0  0  0  0
   -0.0137    3.0826    2.0755 C   0  0  0  0  0  0  0  0  0  0  0  0
   -0.9991    3.3070    2.4905 H   0  0  0  0  0  0  0  0  0  0  0  0
    0.7468    3.2694    2.8349 H   0  0  0  0  0  0  0  0  0  0  0  0
    0.1592    3.7397    1.2213 H   0  0  0  0  0  0  0  0  0  0  0  0
  5  6  2  0  0  0  0
  5  7  1  0  0  0  0
  2  3  1  0  0  0  0
  2  4  1  0  0  0  0
  2  5  1  0  0  0  0
  1  2  1  0  0  0  0
 22 23  2  0  0  0  0
 22 24  1  0  0  0  0
 18 19  1  0  0  0  0
 18 20  1  0  0  0  0
 18 21  1  0  0  0  0
 17 18  1  0  0  0  0
 14 15  1  0  0  0  0
 14 16  1  0  0  0  0
 14 17  1  0  0  0  0
 11 12  1  0  0  0  0
 11 13  1  0  0  0  0
 11 14  1  0  0  0  0
  9 10  1  0  0  0  0
  9 11  1  0  0  0  0
  9 22  1  0  0  0  0
  7  8  1  0  0  0  0
  7  9  1  0  0  0  0
 26 27  1  0  0  0  0
 26 28  1  0  0  0  0
 26 29  1  0  0  0  0
 24 25  1  0  0  0  0
 24 26  1  0  0  0  0
M  END
$$$$
default_name
  -OEChem-02102213163D

 29 28  0     1  0  0  0  0  0999 V2000
   -3.5781   -3.7296    1.2702 H   0  0  0  0  0  0  0  0  0  0  0  0
   -3.5311   -2.7616    0.7732 C   0  0  0  0  0  0  0  0  0  0  0  0
   -4.2371   -2.0766    1.2382 H   0  0  0  0  0  0  0  0  0  0  0  0
   -3.7681   -2.8816   -0.2818 H   0  0  0  0  0  0  0  0  0  0  0  0
   -2.1321   -2.2086    0.9112 C   0  0  0  0  0  0  0  0  0  0  0  0
   -1.2751   -2.8426    1.5112 O   0  0  0  0  0  0  0  0  0  0  0  0
   -1.9041   -1.0186    0.3602 N   0  0  0  0  0  0  0  0  0  0  0  0
   -2.6671   -0.5416   -0.0988 H   0  0  0  0  0  0  0  0  0  0  0  0
   -0.6131   -0.3236    0.3832 C   0  0  1  0  0  0  0  0  0  0  0  0
    0.0142   -0.7800    1.1506 H   0  0  0  0  0  0  0  0  0  0  0  0
    0.0816   -0.5059   -0.9788 C   0  0  0  0  0  0  0  0  0  0  0  0
   -0.6555   -0.8555   -1.7048 H   0  0  0  0  0  0  0  0  0  0  0  0
    0.4648    0.4573   -1.3190 H   0  0  0  0  0  0  0  0  0  0  0  0
    1.2396   -1.5100   -0.9462 C   0  0  0  0  0  0  0  0  0  0  0  0
    1.0318   -2.2708   -0.1944 H   0  0  0  0  0  0  0  0  0  0  0  0
    1.3130   -1.9918   -1.9218 H   0  0  0  0  0  0  0  0  0  0  0  0
    2.8410   -0.7587   -0.5577 S   0  0  0  0  0  0  0  0  0  0  0  0
    3.1065    0.2035   -2.0695 C   0  0  0  0  0  0  0  0  0  0  0  0
    2.3003    0.9276   -2.1908 H   0  0  0  0  0  0  0  0  0  0  0  0
    4.0570    0.7330   -1.9986 H   0  0  0  0  0  0  0  0  0  0  0  0
    3.1313   -0.4644   -2.9310 H   0  0  0  0  0  0  0  0  0  0  0  0
   -0.8064    1.1568    0.7414 C   0  0  0  0  0  0  0  0  0  0  0  0
   -1.6978    1.8100    0.2029 O   0  0  0  0  0  0  0  0  0  0  0  0
    0.0314    1.6872    1.6415 N   0  0  0  0  0  0  0  0  0  0  0  0
    0.7279    1.0858    2.0517 H   0  0  0  0  0  0  0  0  0  0  0  0
   -0.0137    3.0826    2.0755 C   0  0  0  0  0  0  0  0  0  0  0  0
   -0.9991    3.3070    2.4905 H   0  0  0  0  0  0  0  0  0  0  0  0
    0.7468    3.2694    2.8349 H   0  0  0  0  0  0  0  0  0  0  0  0
    0.1592    3.7397    1.2213 H   0  0  0  0  0  0  0  0  0  0  0  0
  5  6  2  0  0  0  0
  5  7  1  0  0  0  0
  2  3  1  0  0  0  0
  2  4  1  0  0  0  0
  2  5  1  0  0  0  0
  1  2  1  0  0  0  0
 22 23  2  0  0  0  0
 22 24  1  0  0  0  0
 18 19  1  0  0  0  0
 18 20  1  0  0  0  0
 18 21  1  0  0  0  0
 17 18  1  0  0  0  0
 14 15  1  0  0  0  0
 14 16  1  0  0  0  0
 14 17  1  0  0  0  0
 11 12  1  0  0  0  0
 11 13  1  0  0  0  0
 11 14  1  0  0  0  0
  9 10  1  0  0  0  0
  9 11  1  0  0  0  0
  9 22  1  0  0  0  0
  7  8  1  0  0  0  0
  7  9  1  0  0  0  0
 26 27  1  0  0  0  0
 26 28  1  0  0  0  0
 26 29  1  0  0  0  0
 24 25  1  0  0  0  0
 24 26  1  0  0  0  0
M  END
$$$$
default_name
  -OEChem-02102213163D

 29 28  0     1  0  0  0  0  0999 V2000
   -3.5781   -3.7296    1.2702 H   0  0  0  0  0  0  0  0  0  0  0  0
   -3.5311   -2.7616    0.7732 C   0  0  0  0  0  0  0  0  0  0  0  0
   -4.2371   -2.0766    1.2382 H   0  0  0  0  0  0  0  0  0  0  0  0
   -3.7681   -2.8816   -0.2818 H   0  0  0  0  0  0  0  0  0  0  0  0
   -2.1321   -2.2086    0.9112 C   0  0  0  0  0  0  0  0  0  0  0  0
   -1.2751   -2.8426    1.5112 O   0  0  0  0  0  0  0  0  0  0  0  0
   -1.9041   -1.0186    0.3602 N   0  0  0  0  0  0  0  0  0  0  0  0
   -2.6671   -0.5416   -0.0988 H   0  0  0  0  0  0  0  0  0  0  0  0
   -0.6131   -0.3236    0.3832 C   0  0  1  0  0  0  0  0  0  0  0  0
    0.0142   -0.7800    1.1506 H   0  0  0  0  0  0  0  0  0  0  0  0
    0.0816   -0.5059   -0.9788 C   0  0  0  0  0  0  0  0  0  0  0  0
   -0.6555   -0.8555   -1.7048 H   0  0  0  0  0  0  0  0  0  0  0  0
    0.4648    0.4573   -1.3190 H   0  0  0  0  0  0  0  0  0  0  0  0
    1.2396   -1.5100   -0.9462 C   0  0  0  0  0  0  0  0  0  0  0  0
    0.9248   -2.4009   -0.4037 H   0  0  0  0  0  0  0  0  0  0  0  0
    1.4875   -1.7921   -1.9700 H   0  0  0  0  0  0  0  0  0  0  0  0
    2.7351   -0.8676   -0.1521 S   0  0  0  0  0  0  0  0  0  0  0  0
    3.2307    0.3691   -1.3796 C   0  0  0  0  0  0  0  0  0  0  0  0
    2.4406    1.1121   -1.4926 H   0  0  0  0  0  0  0  0  0  0  0  0
    4.1434    0.8636   -1.0462 H   0  0  0  0  0  0  0  0  0  0  0  0
    3.4156   -0.1172   -2.3378 H   0  0  0  0  0  0  0  0  0  0  0  0
   -0.8064    1.1568    0.7414 C   0  0  0  0  0  0  0  0  0  0  0  0
   -1.6978    1.8100    0.2029 O   0  0  0  0  0  0  0  0  0  0  0  0
    0.0314    1.6872    1.6415 N   0  0  0  0  0  0  0  0  0  0  0  0
    0.7279    1.0858    2.0517 H   0  0  0  0  0  0  0  0  0  0  0  0
   -0.0137    3.0826    2.0755 C   0  0  0  0  0  0  0  0  0  0  0  0
   -0.9991    3.3070    2.4905 H   0  0  0  0  0  0  0  0  0  0  0  0
    0.7468    3.2694    2.8349 H   0  0  0  0  0  0  0  0  0  0  0  0
    0.1592    3.7397    1.2213 H   0  0  0  0  0  0  0  0  0  0  0  0
  5  6  2  0  0  0  0
  5  7  1  0  0  0  0
  2  3  1  0  0  0  0
  2  4  1  0  0  0  0
  2  5  1  0  0  0  0
  1  2  1  0  0  0  0
 22 23  2  0  0  0  0
 22 24  1  0  0  0  0
 18 19  1  0  0  0  0
 18 20  1  0  0  0  0
 18 21  1  0  0  0  0
 17 18  1  0  0  0  0
 14 15  1  0  0  0  0
 14 16  1  0  0  0  0
 14 17  1  0  0  0  0
 11 12  1  0  0  0  0
 11 13  1  0  0  0  0
 11 14  1  0  0  0  0
  9 10  1  0  0  0  0
  9 11  1  0  0  0  0
  9 22  1  0  0  0  0
  7  8  1  0  0  0  0
  7  9  1  0  0  0  0
 26 27  1  0  0  0  0
 26 28  1  0  0  0  0
 26 29  1  0  0  0  0
 24 25  1  0  0  0  0
 24 26  1  0  0  0  0
M  END
$$$$
default_name
  -OEChem-02102213163D

 29 28  0     1  0  0  0  0  0999 V2000
   -3.5781   -3.7296    1.2702 H   0  0  0  0  0  0  0  0  0  0  0  0
   -3.5311   -2.7616    0.7732 C   0  0  0  0  0  0  0  0  0  0  0  0
   -4.2371   -2.0766    1.2382 H   0  0  0  0  0  0  0  0  0  0  0  0
   -3.7681   -2.8816   -0.2818 H   0  0  0  0  0  0  0  0  0  0  0  0
   -2.1321   -2.2086    0.9112 C   0  0  0  0  0  0  0  0  0  0  0  0
   -1.2751   -2.8426    1.5112 O   0  0  0  0  0  0  0  0  0  0  0  0
   -1.9041   -1.0186    0.3602 N   0  0  0  0  0  0  0  0  0  0  0  0
   -2.6671   -0.5416   -0.0988 H   0  0  0  0  0  0  0  0  0  0  0  0
   -0.6131   -0.3236    0.3832 C   0  0  1  0  0  0  0  0  0  0  0  0
    0.0142   -0.7800    1.1506 H   0  0  0  0  0  0  0  0  0  0  0  0
    0.0816   -0.5059   -0.9788 C   0  0  0  0  0  0  0  0  0  0  0  0
   -0.6555   -0.8555   -1.7048 H   0  0  0  0  0  0  0  0  0  0  0  0
    0.4648    0.4573   -1.3190 H   0  0  0  0  0  0  0  0  0  0  0  0
    1.2396   -1.5100   -0.9462 C   0  0  0  0  0  0  0  0  0  0  0  0
    0.8577   -2.4863   -0.6495 H   0  0  0  0  0  0  0  0  0  0  0  0
    1.6632   -1.5888   -1.9480 H   0  0  0  0  0  0  0  0  0  0  0  0
    2.5647   -1.0527    0.2005 S   0  0  0  0  0  0  0  0  0  0  0  0
    3.2327    0.3949   -0.6597 C   0  0  0  0  0  0  0  0  0  0  0  0
    2.4567    1.1545   -0.7584 H   0  0  0  0  0  0  0  0  0  0  0  0
    4.0647    0.8041   -0.0860 H   0  0  0  0  0  0  0  0  0  0  0  0
    3.5878    0.1038   -1.6487 H   0  0  0  0  0  0  0  0  0  0  0  0
   -0.8064    1.1568    0.7414 C   0  0  0  0  0  0  0  0  0  0  0  0
   -1.6978    1.8100    0.2029 O   0  0  0  0  0  0  0  0  0  0  0  0
    0.0314    1.6872    1.6415 N   0  0  0  0  0  0  0  0  0  0  0  0
    0.7279    1.0858    2.0517 H   0  0  0  0  0  0  0  0  0  0  0  0
   -0.0137    3.0826    2.0755 C   0  0  0  0  0  0  0  0  0  0  0  0
   -0.9991    3.3070    2.4905 H   0  0  0  0  0  0  0  0  0  0  0  0
    0.7468    3.2694    2.8349 H   0  0  0  0  0  0  0  0  0  0  0  0
    0.1592    3.7397    1.2213 H   0  0  0  0  0  0  0  0  0  0  0  0
  5  6  2  0  0  0  0
  5  7  1  0  0  0  0
  2  3  1  0  0  0  0
  2  4  1  0  0  0  0
  2  5  1  0  0  0  0
  1  2  1  0  0  0  0
 22 23  2  0  0  0  0
 22 24  1  0  0  0  0
 18 19  1  0  0  0  0
 18 20  1  0  0  0  0
 18 21  1  0  0  0  0
 17 18  1  0  0  0  0
 14 15  1  0  0  0  0
 14 16  1  0  0  0  0
 14 17  1  0  0  0  0
 11 12  1  0  0  0  0
 11 13  1  0  0  0  0
 11 14  1  0  0  0  0
  9 10  1  0  0  0  0
  9 11  1  0  0  0  0
  9 22  1  0  0  0  0
  7  8  1  0  0  0  0
  7  9  1  0  0  0  0
 26 27  1  0  0  0  0
 26 28  1  0  0  0  0
 26 29  1  0  0  0  0
 24 25  1  0  0  0  0
 24 26  1  0  0  0  0
M  END
$$$$
default_name
  -OEChem-02102213163D

 29 28  0     1  0  0  0  0  0999 V2000
   -3.5781   -3.7296    1.2702 H   0  0  0  0  0  0  0  0  0  0  0  0
   -3.5311   -2.7616    0.7732 C   0  0  0  0  0  0  0  0  0  0  0  0
   -4.2371   -2.0766    1.2382 H   0  0  0  0  0  0  0  0  0  0  0  0
   -3.7681   -2.8816   -0.2818 H   0  0  0  0  0  0  0  0  0  0  0  0
   -2.1321   -2.2086    0.9112 C   0  0  0  0  0  0  0  0  0  0  0  0
   -1.2751   -2.8426    1.5112 O   0  0  0  0  0  0  0  0  0  0  0  0
   -1.9041   -1.0186    0.3602 N   0  0  0  0  0  0  0  0  0  0  0  0
   -2.6671   -0.5416   -0.0988 H   0  0  0  0  0  0  0  0  0  0  0  0
   -0.6131   -0.3236    0.3832 C   0  0  1  0  0  0  0  0  0  0  0  0
    0.0142   -0.7800    1.1506 H   0  0  0  0  0  0  0  0  0  0  0  0
    0.0816   -0.5059   -0.9788 C   0  0  0  0  0  0  0  0  0  0  0  0
   -0.6555   -0.8555   -1.7048 H   0  0  0  0  0  0  0  0  0  0  0  0
    0.4648    0.4573   -1.3190 H   0  0  0  0  0  0  0  0  0  0  0  0
    1.2396   -1.5100   -0.9462 C   0  0  0  0  0  0  0  0  0  0  0  0
    0.8350   -2.5212   -0.9149 H   0  0  0  0  0  0  0  0  0  0  0  0
    1.8281   -1.3957   -1.8572 H   0  0  0  0  0  0  0  0  0  0  0  0
    2.3413   -1.3013    0.4759 S   0  0  0  0  0  0  0  0  0  0  0  0
    3.1125    0.2791    0.0410 C   0  0  0  0  0  0  0  0  0  0  0  0
    2.3475    1.0521   -0.0381 H   0  0  0  0  0  0  0  0  0  0  0  0
    3.8263    0.5585    0.8165 H   0  0  0  0  0  0  0  0  0  0  0  0
    3.6360    0.1834   -0.9107 H   0  0  0  0  0  0  0  0  0  0  0  0
   -0.8064    1.1568    0.7414 C   0  0  0  0  0  0  0  0  0  0  0  0
   -1.6978    1.8100    0.2029 O   0  0  0  0  0  0  0  0  0  0  0  0
    0.0314    1.6872    1.6415 N   0  0  0  0  0  0  0  0  0  0  0  0
    0.7279    1.0858    2.0517 H   0  0  0  0  0  0  0  0  0  0  0  0
   -0.0137    3.0826    2.0755 C   0  0  0  0  0  0  0  0  0  0  0  0
   -0.9991    3.3070    2.4905 H   0  0  0  0  0  0  0  0  0  0  0  0
    0.7468    3.2694    2.8349 H   0  0  0  0  0  0  0  0  0  0  0  0
    0.1592    3.7397    1.2213 H   0  0  0  0  0  0  0  0  0  0  0  0
  5  6  2  0  0  0  0
  5  7  1  0  0  0  0
  2  3  1  0  0  0  0
  2  4  1  0  0  0  0
  2  5  1  0  0  0  0
  1  2  1  0  0  0  0
 22 23  2  0  0  0  0
 22 24  1  0  0  0  0
 18 19  1  0  0  0  0
 18 20  1  0  0  0  0
 18 21  1  0  0  0  0
 17 18  1  0  0  0  0
 14 15  1  0  0  0  0
 14 16  1  0  0  0  0
 14 17  1  0  0  0  0
 11 12  1  0  0  0  0
 11 13  1  0  0  0  0
 11 14  1  0  0  0  0
  9 10  1  0  0  0  0
  9 11  1  0  0  0  0
  9 22  1  0  0  0  0
  7  8  1  0  0  0  0
  7  9  1  0  0  0  0
 26 27  1  0  0  0  0
 26 28  1  0  0  0  0
 26 29  1  0  0  0  0
 24 25  1  0  0  0  0
 24 26  1  0  0  0  0
M  END
$$$$
default_name
  -OEChem-02102213163D

 29 28  0     1  0  0  0  0  0999 V2000
   -3.5781   -3.7296    1.2702 H   0  0  0  0  0  0  0  0  0  0  0  0
   -3.5311   -2.7616    0.7732 C   0  0  0  0  0  0  0  0  0  0  0  0
   -4.2371   -2.0766    1.2382 H   0  0  0  0  0  0  0  0  0  0  0  0
   -3.7681   -2.8816   -0.2818 H   0  0  0  0  0  0  0  0  0  0  0  0
   -2.1321   -2.2086    0.9112 C   0  0  0  0  0  0  0  0  0  0  0  0
   -1.2751   -2.8426    1.5112 O   0  0  0  0  0  0  0  0  0  0  0  0
   -1.9041   -1.0186    0.3602 N   0  0  0  0  0  0  0  0  0  0  0  0
   -2.6671   -0.5416   -0.0988 H   0  0  0  0  0  0  0  0  0  0  0  0
   -0.6131   -0.3236    0.3832 C   0  0  1  0  0  0  0  0  0  0  0  0
    0.0142   -0.7800    1.1506 H   0  0  0  0  0  0  0  0  0  0  0  0
    0.0816   -0.5059   -0.9788 C   0  0  0  0  0  0  0  0  0  0  0  0
   -0.6555   -0.8555   -1.7048 H   0  0  0  0  0  0  0  0  0  0  0  0
    0.4648    0.4573   -1.3190 H   0  0  0  0  0  0  0  0  0  0  0  0
    1.2396   -1.5100   -0.9462 C   0  0  0  0  0  0  0  0  0  0  0  0
    0.8583   -2.5030   -1.1820 H   0  0  0  0  0  0  0  0  0  0  0  0
    1.9708   -1.2261   -1.7038 H   0  0  0  0  0  0  0  0  0  0  0  0
    2.0802   -1.5966    0.6556 S   0  0  0  0  0  0  0  0  0  0  0  0
    2.8783    0.0296    0.6748 C   0  0  0  0  0  0  0  0  0  0  0  0
    2.1205    0.8117    0.6190 H   0  0  0  0  0  0  0  0  0  0  0  0
    3.4443    0.1435    1.5997 H   0  0  0  0  0  0  0  0  0  0  0  0
    3.5570    0.1163   -0.1741 H   0  0  0  0  0  0  0  0  0  0  0  0
   -0.8064    1.1568    0.7414 C   0  0  0  0  0  0  0  0  0  0  0  0
   -1.6978    1.8100    0.2029 O   0  0  0  0  0  0  0  0  0  0  0  0
    0.0314    1.6872    1.6415 N   0  0  0  0  0  0  0  0  0  0  0  0
    0.7279    1.0858    2.0517 H   0  0  0  0  0  0  0  0  0  0  0  0
   -0.0137    3.0826    2.0755 C   0  0  0  0  0  0  0  0  0  0  0  0
   -0.9991    3.3070    2.4905 H   0  0  0  0  0  0  0  0  0  0  0  0
    0.7468    3.2694    2.8349 H   0  0  0  0  0  0  0  0  0  0  0  0
    0.1592    3.7397    1.2213 H   0  0  0  0  0  0  0  0  0  0  0  0
  5  6  2  0  0  0  0
  5  7  1  0  0  0  0
  2  3  1  0  0  0  0
  2  4  1  0  0  0  0
  2  5  1  0  0  0  0
  1  2  1  0  0  0  0
 22 23  2  0  0  0  0
 22 24  1  0  0  0  0
 18 19  1  0  0  0  0
 18 20  1  0  0  0  0
 18 21  1  0  0  0  0
 17 18  1  0  0  0  0
 14 15  1  0  0  0  0
 14 16  1  0  0  0  0
 14 17  1  0  0  0  0
 11 12  1  0  0  0  0
 11 13  1  0  0  0  0
 11 14  1  0  0  0  0
  9 10  1  0  0  0  0
  9 11  1  0  0  0  0
  9 22  1  0  0  0  0
  7  8  1  0  0  0  0
  7  9  1  0  0  0  0
 26 27  1  0  0  0  0
 26 28  1  0  0  0  0
 26 29  1  0  0  0  0
 24 25  1  0  0  0  0
 24 26  1  0  0  0  0
M  END
$$$$
default_name
  -OEChem-02102213163D

 29 28  0     1  0  0  0  0  0999 V2000
   -3.5781   -3.7296    1.2702 H   0  0  0  0  0  0  0  0  0  0  0  0
   -3.5311   -2.7616    0.7732 C   0  0  0  0  0  0  0  0  0  0  0  0
   -4.2371   -2.0766    1.2382 H   0  0  0  0  0  0  0  0  0  0  0  0
   -3.7681   -2.8816   -0.2818 H   0  0  0  0  0  0  0  0  0  0  0  0
   -2.1321   -2.2086    0.9112 C   0  0  0  0  0  0  0  0  0  0  0  0
   -1.2751   -2.8426    1.5112 O   0  0  0  0  0  0  0  0  0  0  0  0
   -1.9041   -1.0186    0.3602 N   0  0  0  0  0  0  0  0  0  0  0  0
   -2.6671   -0.5416   -0.0988 H   0  0  0  0  0  0  0  0  0  0  0  0
   -0.6131   -0.3236    0.3832 C   0  0  1  0  0  0  0  0  0  0  0  0
    0.0142   -0.7800    1.1506 H   0  0  0  0  0  0  0  0  0  0  0  0
    0.0816   -0.5059   -0.9788 C   0  0  0  0  0  0  0  0  0  0  0  0
   -0.6555   -0.8555   -1.7048 H   0  0  0  0  0  0  0  0  0  0  0  0
    0.4648    0.4573   -1.3190 H   0  0  0  0  0  0  0  0  0  0  0  0
    1.2396   -1.5100   -0.9462 C   0  0  0  0  0  0  0  0  0  0  0  0
    0.9259   -2.4331   -1.4325 H   0  0  0  0  0  0  0  0  0  0  0  0
    2.0818   -1.0914   -1.4983 H   0  0  0  0  0  0  0  0  0  0  0  0
    1.7992   -1.9183    0.7271 S   0  0  0  0  0  0  0  0  0  0  0  0
    2.5459   -0.3366    1.1986 C   0  0  0  0  0  0  0  0  0  0  0  0
    1.7912    0.4498    1.1683 H   0  0  0  0  0  0  0  0  0  0  0  0
    2.9449   -0.4126    2.2105 H   0  0  0  0  0  0  0  0  0  0  0  0
    3.3563   -0.0929    0.5109 H   0  0  0  0  0  0  0  0  0  0  0  0
   -0.8064    1.1568    0.7414 C   0  0  0  0  0  0  0  0  0  0  0  0
   -1.6978    1.8100    0.2029 O   0  0  0  0  0  0  0  0  0  0  0  0
    0.0314    1.6872    1.6415 N   0  0  0  0  0  0  0  0  0  0  0  0
    0.7279    1.0858    2.0517 H   0  0  0  0  0  0  0  0  0  0  0  0
   -0.0137    3.0826    2.0755 C   0  0  0  0  0  0  0  0  0  0  0  0
   -0.9991    3.3070    2.4905 H   0  0  0  0  0  0  0  0  0  0  0  0
    0.7468    3.2694    2.8349 H   0  0  0  0  0  0  0  0  0  0  0  0
    0.1592    3.7397    1.2213 H   0  0  0  0  0  0  0  0  0  0  0  0
  5  6  2  0  0  0  0
  5  7  1  0  0  0  0
  2  3  1  0  0  0  0
  2  4  1  0  0  0  0
  2  5  1  0  0  0  0
  1  2  1  0  0  0  0
 22 23  2  0  0  0  0
 22 24  1  0  0  0  0
 18 19  1  0  0  0  0
 18 20  1  0  0  0  0
 18 21  1  0  0  0  0
 17 18  1  0  0  0  0
 14 15  1  0  0  0  0
 14 16  1  0  0  0  0
 14 17  1  0  0  0  0
 11 12  1  0  0  0  0
 11 13  1  0  0  0  0
 11 14  1  0  0  0  0
  9 10  1  0  0  0  0
  9 11  1  0  0  0  0
  9 22  1  0  0  0  0
  7  8  1  0  0  0  0
  7  9  1  0  0  0  0
 26 27  1  0  0  0  0
 26 28  1  0  0  0  0
 26 29  1  0  0  0  0
 24 25  1  0  0  0  0
 24 26  1  0  0  0  0
M  END
$$$$
default_name
  -OEChem-02102213163D

 29 28  0     1  0  0  0  0  0999 V2000
   -3.5781   -3.7296    1.2702 H   0  0  0  0  0  0  0  0  0  0  0  0
   -3.5311   -2.7616    0.7732 C   0  0  0  0  0  0  0  0  0  0  0  0
   -4.2371   -2.0766    1.2382 H   0  0  0  0  0  0  0  0  0  0  0  0
   -3.7681   -2.8816   -0.2818 H   0  0  0  0  0  0  0  0  0  0  0  0
   -2.1321   -2.2086    0.9112 C   0  0  0  0  0  0  0  0  0  0  0  0
   -1.2751   -2.8426    1.5112 O   0  0  0  0  0  0  0  0  0  0  0  0
   -1.9041   -1.0186    0.3602 N   0  0  0  0  0  0  0  0  0  0  0  0
   -2.6671   -0.5416   -0.0988 H   0  0  0  0  0  0  0  0  0  0  0  0
   -0.6131   -0.3236    0.3832 C   0  0  1  0  0  0  0  0  0  0  0  0
    0.0142   -0.7800    1.1506 H   0  0  0  0  0  0  0  0  0  0  0  0
    0.0816   -0.5059   -0.9788 C   0  0  0  0  0  0  0  0  0  0  0  0
   -0.6555   -0.8555   -1.7048 H   0  0  0  0  0  0  0  0  0  0  0  0
    0.4648    0.4573   -1.3190 H   0  0  0  0  0  0  0  0  0  0  0  0
    1.2396   -1.5100   -0.9462 C   0  0  0  0  0  0  0  0  0  0  0  0
    1.0334   -2.3163   -1.6493 H   0  0  0  0  0  0  0  0  0  0  0  0
    2.1534   -1.0009   -1.2546 H   0  0  0  0  0  0  0  0  0  0  0  0
    1.5174   -2.2446    0.6856 S   0  0  0  0  0  0  0  0  0  0  0  0
    2.1382   -0.7946    1.5765 C   0  0  0  0  0  0  0  0  0  0  0  0
    1.3820   -0.0090    1.5723 H   0  0  0  0  0  0  0  0  0  0  0  0
    2.3620   -1.0719    2.6070 H   0  0  0  0  0  0  0  0  0  0  0  0
    3.0474   -0.4300    1.0976 H   0  0  0  0  0  0  0  0  0  0  0  0
   -0.8064    1.1568    0.7414 C   0  0  0  0  0  0  0  0  0  0  0  0
   -1.6978    1.8100    0.2029 O   0  0  0  0  0  0  0  0  0  0  0  0
    0.0314    1.6872    1.6415 N   0  0  0  0  0  0  0  0  0  0  0  0
    0.7279    1.0858    2.0517 H   0  0  0  0  0  0  0  0  0  0  0  0
   -0.0137    3.0826    2.0755 C   0  0  0  0  0  0  0  0  0  0  0  0
   -0.9991    3.3070    2.4905 H   0  0  0  0  0  0  0  0  0  0  0  0
    0.7468    3.2694    2.8349 H   0  0  0  0  0  0  0  0  0  0  0  0
    0.1592    3.7397    1.2213 H   0  0  0  0  0  0  0  0  0  0  0  0
  5  6  2  0  0  0  0
  5  7  1  0  0  0  0
  2  3  1  0  0  0  0
  2  4  1  0  0  0  0
  2  5  1  0  0  0  0
  1  2  1  0  0  0  0
 22 23  2  0  0  0  0
 22 24  1  0  0  0  0
 18 19  1  0  0  0  0
 18 20  1  0  0  0  0
 18 21  1  0  0  0  0
 17 18  1  0  0  0  0
 14 15  1  0  0  0  0
 14 16  1  0  0  0  0
 14 17  1  0  0  0  0
 11 12  1  0  0  0  0
 11 13  1  0  0  0  0
 11 14  1  0  0  0  0
  9 10  1  0  0  0  0
  9 11  1  0  0  0  0
  9 22  1  0  0  0  0
  7  8  1  0  0  0  0
  7  9  1  0  0  0  0
 26 27  1  0  0  0  0
 26 28  1  0  0  0  0
 26 29  1  0  0  0  0
 24 25  1  0  0  0  0
 24 26  1  0  0  0  0
M  END
$$$$
default_name
  -OEChem-02102213163D

 29 28  0     1  0  0  0  0  0999 V2000
   -3.5781   -3.7296    1.2702 H   0  0  0  0  0  0  0  0  0  0  0  0
   -3.5311   -2.7616    0.7732 C   0  0  0  0  0  0  0  0  0  0  0  0
   -4.2371   -2.0766    1.2382 H   0  0  0  0  0  0  0  0  0  0  0  0
   -3.7681   -2.8816   -0.2818 H   0  0  0  0  0  0  0  0  0  0  0  0
   -2.1321   -2.2086    0.9112 C   0  0  0  0  0  0  0  0  0  0  0  0
   -1.2751   -2.8426    1.5112 O   0  0  0  0  0  0  0  0  0  0  0  0
   -1.9041   -1.0186    0.3602 N   0  0  0  0  0  0  0  0  0  0  0  0
   -2.6671   -0.5416   -0.0988 H   0  0  0  0  0  0  0  0  0  0  0  0
   -0.6131   -0.3236    0.3832 C   0  0  1  0  0  0  0  0  0  0  0  0
    0.0142   -0.7800    1.1506 H   0  0  0  0  0  0  0  0  0  0  0  0
    0.0816   -0.5059   -0.9788 C   0  0  0  0  0  0  0  0  0  0  0  0
   -0.6555   -0.8555   -1.7048 H   0  0  0  0  0  0  0  0  0  0  0  0
    0.4648    0.4573   -1.3190 H   0  0  0  0  0  0  0  0  0  0  0  0
    1.2396   -1.5100   -0.9462 C   0  0  0  0  0  0  0  0  0  0  0  0
    1.1732   -2.1605   -1.8177 H   0  0  0  0  0  0  0  0  0  0  0  0
    2.1808   -0.9607   -0.9894 H   0  0  0  0  0  0  0  0  0  0  0  0
    1.2541   -2.5533    0.5340 S   0  0  0  0  0  0  0  0  0  0  0  0
    1.6828   -1.3130    1.7829 C   0  0  0  0  0  0  0  0  0  0  0  0
    0.9208   -0.5333    1.8035 H   0  0  0  0  0  0  0  0  0  0  0  0
    1.7354   -1.7895    2.7623 H   0  0  0  0  0  0  0  0  0  0  0  0
    2.6514   -0.8721    1.5461 H   0  0  0  0  0  0  0  0  0  0  0  0
   -0.8064    1.1568    0.7414 C   0  0  0  0  0  0  0  0  0  0  0  0
   -1.6978    1.8100    0.2029 O   0  0  0  0  0  0  0  0  0  0  0  0
    0.0314    1.6872    1.6415 N   0  0  0  0  0  0  0  0  0  0  0  0
    0.7279    1.0858    2.0517 H   0  0  0  0  0  0  0  0  0  0  0  0
   -0.0137    3.0826    2.0755 C   0  0  0  0  0  0  0  0  0  0  0  0
   -0.9991    3.3070    2.4905 H   0  0  0  0  0  0  0  0  0  0  0  0
    0.7468    3.2694    2.8349 H   0  0  0  0  0  0  0  0  0  0  0  0
    0.1592    3.7397    1.2213 H   0  0  0  0  0  0  0  0  0  0  0  0
  5  6  2  0  0  0  0
  5  7  1  0  0  0  0
  2  3  1  0  0  0  0
  2  4  1  0  0  0  0
  2  5  1  0  0  0  0
  1  2  1  0  0  0  0
 22 23  2  0  0  0  0
 22 24  1  0  0  0  0
 18 19  1  0  0  0  0
 18 20  1  0  0  0  0
 18 21  1  0  0  0  0
 17 18  1  0  0  0  0
 14 15  1  0  0  0  0
 14 16  1  0  0  0  0
 14 17  1  0  0  0  0
 11 12  1  0  0  0  0
 11 13  1  0  0  0  0
 11 14  1  0  0  0  0
  9 10  1  0  0  0  0
  9 11  1  0  0  0  0
  9 22  1  0  0  0  0
  7  8  1  0  0  0  0
  7  9  1  0  0  0  0
 26 27  1  0  0  0  0
 26 28  1  0  0  0  0
 26 29  1  0  0  0  0
 24 25  1  0  0  0  0
 24 26  1  0  0  0  0
M  END
$$$$
default_name
  -OEChem-02102213163D

 29 28  0     1  0  0  0  0  0999 V2000
   -3.5781   -3.7296    1.2702 H   0  0  0  0  0  0  0  0  0  0  0  0
   -3.5311   -2.7616    0.7732 C   0  0  0  0  0  0  0  0  0  0  0  0
   -4.2371   -2.0766    1.2382 H   0  0  0  0  0  0  0  0  0  0  0  0
   -3.7681   -2.8816   -0.2818 H   0  0  0  0  0  0  0  0  0  0  0  0
   -2.1321   -2.2086    0.9112 C   0  0  0  0  0  0  0  0  0  0  0  0
   -1.2751   -2.8426    1.5112 O   0  0  0  0  0  0  0  0  0  0  0  0
   -1.9041   -1.0186    0.3602 N   0  0  0  0  0  0  0  0  0  0  0  0
   -2.6671   -0.5416   -0.0988 H   0  0  0  0  0  0  0  0  0  0  0  0
   -0.6131   -0.3236    0.3832 C   0  0  1  0  0  0  0  0  0  0  0  0
    0.0142   -0.7800    1.1506 H   0  0  0  0  0  0  0  0  0  0  0  0
    0.0816   -0.5059   -0.9788 C   0  0  0  0  0  0  0  0  0  0  0  0
   -0.6555   -0.8555   -1.7048 H   0  0  0  0  0  0  0  0  0  0  0  0
    0.4648    0.4573   -1.3190 H   0  0  0  0  0  0  0  0  0  0  0  0
    1.2396   -1.5100   -0.9462 C   0  0  0  0  0  0  0  0  0  0  0  0
    1.3360   -1.9763   -1.9261 H   0  0  0  0  0  0  0  0  0  0  0  0
    2.1620   -0.9736   -0.7207 H   0  0  0  0  0  0  0  0  0  0  0  0
    1.0271   -2.8232    0.2826 S   0  0  0  0  0  0  0  0  0  0  0  0
    1.2107   -1.8567    1.8038 C   0  0  0  0  0  0  0  0  0  0  0  0
    0.4390   -1.0876    1.8461 H   0  0  0  0  0  0  0  0  0  0  0  0
    1.1077   -2.5164    2.6658 H   0  0  0  0  0  0  0  0  0  0  0  0
    2.1954   -1.3889    1.8257 H   0  0  0  0  0  0  0  0  0  0  0  0
   -0.8064    1.1568    0.7414 C   0  0  0  0  0  0  0  0  0  0  0  0
   -1.6978    1.8100    0.2029 O   0  0  0  0  0  0  0  0  0  0  0  0
    0.0314    1.6872    1.6415 N   0  0  0  0  0  0  0  0  0  0  0  0
    0.7279    1.0858    2.0517 H   0  0  0  0  0  0  0  0  0  0  0  0
   -0.0137    3.0826    2.0755 C   0  0  0  0  0  0  0  0  0  0  0  0
   -0.9991    3.3070    2.4905 H   0  0  0  0  0  0  0  0  0  0  0  0
    0.7468    3.2694    2.8349 H   0  0  0  0  0  0  0  0  0  0  0  0
    0.1592    3.7397    1.2213 H   0  0  0  0  0  0  0  0  0  0  0  0
  5  6  2  0  0  0  0
  5  7  1  0  0  0  0
  2  3  1  0  0  0  0
  2  4  1  0  0  0  0
  2  5  1  0  0  0  0
  1  2  1  0  0  0  0
 22 23  2  0  0  0  0
 22 24  1  0  0  0  0
 18 19  1  0  0  0  0
 18 20  1  0  0  0  0
 18 21  1  0  0  0  0
 17 18  1  0  0  0  0
 14 15  1  0  0  0  0
 14 16  1  0  0  0  0
 14 17  1  0  0  0  0
 11 12  1  0  0  0  0
 11 13  1  0  0  0  0
 11 14  1  0  0  0  0
  9 10  1  0  0  0  0
  9 11  1  0  0  0  0
  9 22  1  0  0  0  0
  7  8  1  0  0  0  0
  7  9  1  0  0  0  0
 26 27  1  0  0  0  0
 26 28  1  0  0  0  0
 26 29  1  0  0  0  0
 24 25  1  0  0  0  0
 24 26  1  0  0  0  0
M  END
$$$$
default_name
  -OEChem-02102213163D

 29 28  0     1  0  0  0  0  0999 V2000
   -3.5781   -3.7296    1.2702 H   0  0  0  0  0  0  0  0  0  0  0  0
   -3.5311   -2.7616    0.7732 C   0  0  0  0  0  0  0  0  0  0  0  0
   -4.2371   -2.0766    1.2382 H   0  0  0  0  0  0  0  0  0  0  0  0
   -3.7681   -2.8816   -0.2818 H   0  0  0  0  0  0  0  0  0  0  0  0
   -2.1321   -2.2086    0.9112 C   0  0  0  0  0  0  0  0  0  0  0  0
   -1.2751   -2.8426    1.5112 O   0  0  0  0  0  0  0  0  0  0  0  0
   -1.9041   -1.0186    0.3602 N   0  0  0  0  0  0  0  0  0  0  0  0
   -2.6671   -0.5416   -0.0988 H   0  0  0  0  0  0  0  0  0  0  0  0
   -0.6131   -0.3236    0.3832 C   0  0  1  0  0  0  0  0  0  0  0  0
    0.0142   -0.7800    1.1506 H   0  0  0  0  0  0  0  0  0  0  0  0
    0.0816   -0.5059   -0.9788 C   0  0  0  0  0  0  0  0  0  0  0  0
   -0.6555   -0.8555   -1.7048 H   0  0  0  0  0  0  0  0  0  0  0  0
    0.4648    0.4573   -1.3190 H   0  0  0  0  0  0  0  0  0  0  0  0
    1.2396   -1.5100   -0.9462 C   0  0  0  0  0  0  0  0  0  0  0  0
    1.5106   -1.7763   -1.9673 H   0  0  0  0  0  0  0  0  0  0  0  0
    2.0984   -1.0387   -0.4669 H   0  0  0  0  0  0  0  0  0  0  0  0
    0.8520   -3.0361   -0.0515 S   0  0  0  0  0  0  0  0  0  0  0  0
    0.7542   -2.3886    1.6376 C   0  0  0  0  0  0  0  0  0  0  0  0
   -0.0306   -1.6339    1.6972 H   0  0  0  0  0  0  0  0  0  0  0  0
    0.5219   -3.2032    2.3240 H   0  0  0  0  0  0  0  0  0  0  0  0
    1.7103   -1.9453    1.9175 H   0  0  0  0  0  0  0  0  0  0  0  0
   -0.8064    1.1568    0.7414 C   0  0  0  0  0  0  0  0  0  0  0  0
   -1.6978    1.8100    0.2029 O   0  0  0  0  0  0  0  0  0  0  0  0
    0.0314    1.6872    1.6415 N   0  0  0  0  0  0  0  0  0  0  0  0
    0.7279    1.0858    2.0517 H   0  0  0  0  0  0  0  0  0  0  0  0
   -0.0137    3.0826    2.0755 C   0  0  0  0  0  0  0  0  0  0  0  0
   -0.9991    3.3070    2.4905 H   0  0  0  0  0  0  0  0  0  0  0  0
    0.7468    3.2694    2.8349 H   0  0  0  0  0  0  0  0  0  0  0  0
    0.1592    3.7397    1.2213 H   0  0  0  0  0  0  0  0  0  0  0  0
  5  6  2  0  0  0  0
  5  7  1  0  0  0  0
  2  3  1  0  0  0  0
  2  4  1  0  0  0  0
  2  5  1  0  0  0  0
  1  2  1  0  0  0  0
 22 23  2  0  0  0  0
 22 24  1  0  0  0  0
 18 19  1  0  0  0  0
 18 20  1  0  0  0  0
 18 21  1  0  0  0  0
 17 18  1  0  0  0  0
 14 15  1  0  0  0  0
 14 16  1  0  0  0  0
 14 17  1  0  0  0  0
 11 12  1  0  0  0  0
 11 13  1  0  0  0  0
 11 14  1  0  0  0  0
  9 10  1  0  0  0  0
  9 11  1  0  0  0  0
  9 22  1  0  0  0  0
  7  8  1  0  0  0  0
  7  9  1  0  0  0  0
 26 27  1  0  0  0  0
 26 28  1  0  0  0  0
 26 29  1  0  0  0  0
 24 25  1  0  0  0  0
 24 26  1  0  0  0  0
M  END
$$$$
default_name
  -OEChem-02102213163D

 29 28  0     1  0  0  0  0  0999 V2000
   -3.5781   -3.7296    1.2702 H   0  0  0  0  0  0  0  0  0  0  0  0
   -3.5311   -2.7616    0.7732 C   0  0  0  0  0  0  0  0  0  0  0  0
   -4.2371   -2.0766    1.2382 H   0  0  0  0  0  0  0  0  0  0  0  0
   -3.7681   -2.8816   -0.2818 H   0  0  0  0  0  0  0  0  0  0  0  0
   -2.1321   -2.2086    0.9112 C   0  0  0  0  0  0  0  0  0  0  0  0
   -1.2751   -2.8426    1.5112 O   0  0  0  0  0  0  0  0  0  0  0  0
   -1.9041   -1.0186    0.3602 N   0  0  0  0  0  0  0  0  0  0  0  0
   -2.6671   -0.5416   -0.0988 H   0  0  0  0  0  0  0  0  0  0  0  0
   -0.6131   -0.3236    0.3832 C   0  0  1  0  0  0  0  0  0  0  0  0
    0.0142   -0.7800    1.1506 H   0  0  0  0  0  0  0  0  0  0  0  0
    0.0816   -0.5059   -0.9788 C   0  0  0  0  0  0  0  0  0  0  0  0
   -0.6555   -0.8555   -1.7048 H   0  0  0  0  0  0  0  0  0  0  0  0
    0.4648    0.4573   -1.3190 H   0  0  0  0  0  0  0  0  0  0  0  0
    1.2396   -1.5100   -0.9462 C   0  0  0  0  0  0  0  0  0  0  0  0
    1.6852   -1.5740   -1.9384 H   0  0  0  0  0  0  0  0  0  0  0  0
    1.9943   -1.1515   -0.2453 H   0  0  0  0  0  0  0  0  0  0  0  0
    0.7406   -3.1773   -0.4455 S   0  0  0  0  0  0  0  0  0  0  0  0
    0.3444   -2.8723    1.2957 C   0  0  0  0  0  0  0  0  0  0  0  0
   -0.4559   -2.1351    1.3670 H   0  0  0  0  0  0  0  0  0  0  0  0
    0.0177   -3.8030    1.7604 H   0  0  0  0  0  0  0  0  0  0  0  0
    1.2293   -2.5034    1.8151 H   0  0  0  0  0  0  0  0  0  0  0  0
   -0.8064    1.1568    0.7414 C   0  0  0  0  0  0  0  0  0  0  0  0
   -1.6978    1.8100    0.2029 O   0  0  0  0  0  0  0  0  0  0  0  0
    0.0314    1.6872    1.6415 N   0  0  0  0  0  0  0  0  0  0  0  0
    0.7279    1.0858    2.0517 H   0  0  0  0  0  0  0  0  0  0  0  0
   -0.0137    3.0826    2.0755 C   0  0  0  0  0  0  0  0  0  0  0  0
   -0.9991    3.3070    2.4905 H   0  0  0  0  0  0  0  0  0  0  0  0
    0.7468    3.2694    2.8349 H   0  0  0  0  0  0  0  0  0  0  0  0
    0.1592    3.7397    1.2213 H   0  0  0  0  0  0  0  0  0  0  0  0
  5  6  2  0  0  0  0
  5  7  1  0  0  0  0
  2  3  1  0  0  0  0
  2  4  1  0  0  0  0
  2  5  1  0  0  0  0
  1  2  1  0  0  0  0
 22 23  2  0  0  0  0
 22 24  1  0  0  0  0
 18 19  1  0  0  0  0
 18 20  1  0  0  0  0
 18 21  1  0  0  0  0
 17 18  1  0  0  0  0
 14 15  1  0  0  0  0
 14 16  1  0  0  0  0
 14 17  1  0  0  0  0
 11 12  1  0  0  0  0
 11 13  1  0  0  0  0
 11 14  1  0  0  0  0
  9 10  1  0  0  0  0
  9 11  1  0  0  0  0
  9 22  1  0  0  0  0
  7  8  1  0  0  0  0
  7  9  1  0  0  0  0
 26 27  1  0  0  0  0
 26 28  1  0  0  0  0
 26 29  1  0  0  0  0
 24 25  1  0  0  0  0
 24 26  1  0  0  0  0
M  END
$$$$
default_name
  -OEChem-02102213163D

 29 28  0     1  0  0  0  0  0999 V2000
   -3.5781   -3.7296    1.2702 H   0  0  0  0  0  0  0  0  0  0  0  0
   -3.5311   -2.7616    0.7732 C   0  0  0  0  0  0  0  0  0  0  0  0
   -4.2371   -2.0766    1.2382 H   0  0  0  0  0  0  0  0  0  0  0  0
   -3.7681   -2.8816   -0.2818 H   0  0  0  0  0  0  0  0  0  0  0  0
   -2.1321   -2.2086    0.9112 C   0  0  0  0  0  0  0  0  0  0  0  0
   -1.2751   -2.8426    1.5112 O   0  0  0  0  0  0  0  0  0  0  0  0
   -1.9041   -1.0186    0.3602 N   0  0  0  0  0  0  0  0  0  0  0  0
   -2.6671   -0.5416   -0.0988 H   0  0  0  0  0  0  0  0  0  0  0  0
   -0.6131   -0.3236    0.3832 C   0  0  1  0  0  0  0  0  0  0  0  0
    0.0142   -0.7800    1.1506 H   0  0  0  0  0  0  0  0  0  0  0  0
    0.0816   -0.5059   -0.9788 C   0  0  0  0  0  0  0  0  0  0  0  0
   -0.6555   -0.8555   -1.7048 H   0  0  0  0  0  0  0  0  0  0  0  0
    0.4648    0.4573   -1.3190 H   0  0  0  0  0  0  0  0  0  0  0  0
    1.2396   -1.5100   -0.9462 C   0  0  0  0  0  0  0  0  0  0  0  0
    1.8477   -1.3834   -1.8413 H   0  0  0  0  0  0  0  0  0  0  0  0
    1.8568   -1.3044   -0.0709 H   0  0  0  0  0  0  0  0  0  0  0  0
    0.7006   -3.2373   -0.8726 S   0  0  0  0  0  0  0  0  0  0  0  0
    0.0092   -3.2750    0.8014 C   0  0  0  0  0  0  0  0  0  0  0  0
   -0.8079   -2.5571    0.8779 H   0  0  0  0  0  0  0  0  0  0  0  0
   -0.3705   -4.2749    1.0132 H   0  0  0  0  0  0  0  0  0  0  0  0
    0.7851   -3.0251    1.5256 H   0  0  0  0  0  0  0  0  0  0  0  0
   -0.8064    1.1568    0.7414 C   0  0  0  0  0  0  0  0  0  0  0  0
   -1.6978    1.8100    0.2029 O   0  0  0  0  0  0  0  0  0  0  0  0
    0.0314    1.6872    1.6415 N   0  0  0  0  0  0  0  0  0  0  0  0
    0.7279    1.0858    2.0517 H   0  0  0  0  0  0  0  0  0  0  0  0
   -0.0137    3.0826    2.0755 C   0  0  0  0  0  0  0  0  0  0  0  0
   -0.9991    3.3070    2.4905 H   0  0  0  0  0  0  0  0  0  0  0  0
    0.7468    3.2694    2.8349 H   0  0  0  0  0  0  0  0  0  0  0  0
    0.1592    3.7397    1.2213 H   0  0  0  0  0  0  0  0  0  0  0  0
  5  6  2  0  0  0  0
  5  7  1  0  0  0  0
  2  3  1  0  0  0  0
  2  4  1  0  0  0  0
  2  5  1  0  0  0  0
  1  2  1  0  0  0  0
 22 23  2  0  0  0  0
 22 24  1  0  0  0  0
 18 19  1  0  0  0  0
 18 20  1  0  0  0  0
 18 21  1  0  0  0  0
 17 18  1  0  0  0  0
 14 15  1  0  0  0  0
 14 16  1  0  0  0  0
 14 17  1  0  0  0  0
 11 12  1  0  0  0  0
 11 13  1  0  0  0  0
 11 14  1  0  0  0  0
  9 10  1  0  0  0  0
  9 11  1  0  0  0  0
  9 22  1  0  0  0  0
  7  8  1  0  0  0  0
  7  9  1  0  0  0  0
 26 27  1  0  0  0  0
 26 28  1  0  0  0  0
 26 29  1  0  0  0  0
 24 25  1  0  0  0  0
 24 26  1  0  0  0  0
M  END
$$$$
default_name
  -OEChem-02102213163D

 29 28  0     1  0  0  0  0  0999 V2000
   -3.5781   -3.7296    1.2702 H   0  0  0  0  0  0  0  0  0  0  0  0
   -3.5311   -2.7616    0.7732 C   0  0  0  0  0  0  0  0  0  0  0  0
   -4.2371   -2.0766    1.2382 H   0  0  0  0  0  0  0  0  0  0  0  0
   -3.7681   -2.8816   -0.2818 H   0  0  0  0  0  0  0  0  0  0  0  0
   -2.1321   -2.2086    0.9112 C   0  0  0  0  0  0  0  0  0  0  0  0
   -1.2751   -2.8426    1.5112 O   0  0  0  0  0  0  0  0  0  0  0  0
   -1.9041   -1.0186    0.3602 N   0  0  0  0  0  0  0  0  0  0  0  0
   -2.6671   -0.5416   -0.0988 H   0  0  0  0  0  0  0  0  0  0  0  0
   -0.6131   -0.3236    0.3832 C   0  0  1  0  0  0  0  0  0  0  0  0
    0.0142   -0.7800    1.1506 H   0  0  0  0  0  0  0  0  0  0  0  0
    0.0816   -0.5059   -0.9788 C   0  0  0  0  0  0  0  0  0  0  0  0
   -0.6555   -0.8555   -1.7048 H   0  0  0  0  0  0  0  0  0  0  0  0
    0.4648    0.4573   -1.3190 H   0  0  0  0  0  0  0  0  0  0  0  0
    1.2396   -1.5100   -0.9462 C   0  0  0  0  0  0  0  0  0  0  0  0
    1.9873   -1.2173   -1.6827 H   0  0  0  0  0  0  0  0  0  0  0  0
    1.6953   -1.4869    0.0444 H   0  0  0  0  0  0  0  0  0  0  0  0
    0.7347   -3.2120   -1.3036 S   0  0  0  0  0  0  0  0  0  0  0  0
   -0.2286   -3.5692    0.1884 C   0  0  0  0  0  0  0  0  0  0  0  0
   -1.0628   -2.8710    0.2634 H   0  0  0  0  0  0  0  0  0  0  0  0
   -0.6161   -4.5869    0.1334 H   0  0  0  0  0  0  0  0  0  0  0  0
    0.4080   -3.4749    1.0686 H   0  0  0  0  0  0  0  0  0  0  0  0
   -0.8064    1.1568    0.7414 C   0  0  0  0  0  0  0  0  0  0  0  0
   -1.6978    1.8100    0.2029 O   0  0  0  0  0  0  0  0  0  0  0  0
    0.0314    1.6872    1.6415 N   0  0  0  0  0  0  0  0  0  0  0  0
    0.7279    1.0858    2.0517 H   0  0  0  0  0  0  0  0  0  0  0  0
   -0.0137    3.0826    2.0755 C   0  0  0  0  0  0  0  0  0  0  0  0
   -0.9991    3.3070    2.4905 H   0  0  0  0  0  0  0  0  0  0  0  0
    0.7468    3.2694    2.8349 H   0  0  0  0  0  0  0  0  0  0  0  0
    0.1592    3.7397    1.2213 H   0  0  0  0  0  0  0  0  0  0  0  0
  5  6  2  0  0  0  0
  5  7  1  0  0  0  0
  2  3  1  0  0  0  0
  2  4  1  0  0  0  0
  2  5  1  0  0  0  0
  1  2  1  0  0  0  0
 22 23  2  0  0  0  0
 22 24  1  0  0  0  0
 18 19  1  0  0  0  0
 18 20  1  0  0  0  0
 18 21  1  0  0  0  0
 17 18  1  0  0  0  0
 14 15  1  0  0  0  0
 14 16  1  0  0  0  0
 14 17  1  0  0  0  0
 11 12  1  0  0  0  0
 11 13  1  0  0  0  0
 11 14  1  0  0  0  0
  9 10  1  0  0  0  0
  9 11  1  0  0  0  0
  9 22  1  0  0  0  0
  7  8  1  0  0  0  0
  7  9  1  0  0  0  0
 26 27  1  0  0  0  0
 26 28  1  0  0  0  0
 26 29  1  0  0  0  0
 24 25  1  0  0  0  0
 24 26  1  0  0  0  0
M  END
$$$$
default_name
  -OEChem-02102213163D

 29 28  0     1  0  0  0  0  0999 V2000
   -3.5781   -3.7296    1.2702 H   0  0  0  0  0  0  0  0  0  0  0  0
   -3.5311   -2.7616    0.7732 C   0  0  0  0  0  0  0  0  0  0  0  0
   -4.2371   -2.0766    1.2382 H   0  0  0  0  0  0  0  0  0  0  0  0
   -3.7681   -2.8816   -0.2818 H   0  0  0  0  0  0  0  0  0  0  0  0
   -2.1321   -2.2086    0.9112 C   0  0  0  0  0  0  0  0  0  0  0  0
   -1.2751   -2.8426    1.5112 O   0  0  0  0  0  0  0  0  0  0  0  0
   -1.9041   -1.0186    0.3602 N   0  0  0  0  0  0  0  0  0  0  0  0
   -2.6671   -0.5416   -0.0988 H   0  0  0  0  0  0  0  0  0  0  0  0
   -0.6131   -0.3236    0.3832 C   0  0  1  0  0  0  0  0  0  0  0  0
    0.0142   -0.7800    1.1506 H   0  0  0  0  0  0  0  0  0  0  0  0
    0.0816   -0.5059   -0.9788 C   0  0  0  0  0  0  0  0  0  0  0  0
   -0.6555   -0.8555   -1.7048 H   0  0  0  0  0  0  0  0  0  0  0  0
    0.4648    0.4573   -1.3190 H   0  0  0  0  0  0  0  0  0  0  0  0
    1.2396   -1.5100   -0.9462 C   0  0  0  0  0  0  0  0  0  0  0  0
    2.0942   -1.0872   -1.4734 H   0  0  0  0  0  0  0  0  0  0  0  0
    1.5207   -1.6866    0.0926 H   0  0  0  0  0  0  0  0  0  0  0  0
    0.8406   -3.1031   -1.7093 S   0  0  0  0  0  0  0  0  0  0  0  0
   -0.3528   -3.7348   -0.5015 C   0  0  0  0  0  0  0  0  0  0  0  0
   -1.2030   -3.0554   -0.4348 H   0  0  0  0  0  0  0  0  0  0  0  0
   -0.7025   -4.7175   -0.8190 H   0  0  0  0  0  0  0  0  0  0  0  0
    0.1237   -3.8220    0.4753 H   0  0  0  0  0  0  0  0  0  0  0  0
   -0.8064    1.1568    0.7414 C   0  0  0  0  0  0  0  0  0  0  0  0
   -1.6978    1.8100    0.2029 O   0  0  0  0  0  0  0  0  0  0  0  0
    0.0314    1.6872    1.6415 N   0  0  0  0  0  0  0  0  0  0  0  0
    0.7279    1.0858    2.0517 H   0  0  0  0  0  0  0  0  0  0  0  0
   -0.0137    3.0826    2.0755 C   0  0  0  0  0  0  0  0  0  0  0  0
   -0.9991    3.3070    2.4905 H   0  0  0  0  0  0  0  0  0  0  0  0
    0.7468    3.2694    2.8349 H   0  0  0  0  0  0  0  0  0  0  0  0
    0.1592    3.7397    1.2213 H   0  0  0  0  0  0  0  0  0  0  0  0
  5  6  2  0  0  0  0
  5  7  1  0  0  0  0
  2  3  1  0  0  0  0
  2  4  1  0  0  0  0
  2  5  1  0  0  0  0
  1  2  1  0  0  0  0
 22 23  2  0  0  0  0
 22 24  1  0  0  0  0
 18 19  1  0  0  0  0
 18 20  1  0  0  0  0
 18 21  1  0  0  0  0
 17 18  1  0  0  0  0
 14 15  1  0  0  0  0
 14 16  1  0  0  0  0
 14 17  1  0  0  0  0
 11 12  1  0  0  0  0
 11 13  1  0  0  0  0
 11 14  1  0  0  0  0
  9 10  1  0  0  0  0
  9 11  1  0  0  0  0
  9 22  1  0  0  0  0
  7  8  1  0  0  0  0
  7  9  1  0  0  0  0
 26 27  1  0  0  0  0
 26 28  1  0  0  0  0
 26 29  1  0  0  0  0
 24 25  1  0  0  0  0
 24 26  1  0  0  0  0
M  END
$$$$
default_name
  -OEChem-02102213163D

 29 28  0     1  0  0  0  0  0999 V2000
   -3.5781   -3.7296    1.2702 H   0  0  0  0  0  0  0  0  0  0  0  0
   -3.5311   -2.7616    0.7732 C   0  0  0  0  0  0  0  0  0  0  0  0
   -4.2371   -2.0766    1.2382 H   0  0  0  0  0  0  0  0  0  0  0  0
   -3.7681   -2.8816   -0.2818 H   0  0  0  0  0  0  0  0  0  0  0  0
   -2.1321   -2.2086    0.9112 C   0  0  0  0  0  0  0  0  0  0  0  0
   -1.2751   -2.8426    1.5112 O   0  0  0  0  0  0  0  0  0  0  0  0
   -1.9041   -1.0186    0.3602 N   0  0  0  0  0  0  0  0  0  0  0  0
   -2.6671   -0.5416   -0.0988 H   0  0  0  0  0  0  0  0  0  0  0  0
   -0.6131   -0.3236    0.3832 C   0  0  1  0  0  0  0  0  0  0  0  0
    0.0142   -0.7800    1.1506 H   0  0  0  0  0  0  0  0  0  0  0  0
    0.0816   -0.5059   -0.9788 C   0  0  0  0  0  0  0  0  0  0  0  0
   -0.6555   -0.8555   -1.7048 H   0  0  0  0  0  0  0  0  0  0  0  0
    0.4648    0.4573   -1.3190 H   0  0  0  0  0  0  0  0  0  0  0  0
    1.2396   -1.5100   -0.9462 C   0  0  0  0  0  0  0  0  0  0  0  0
    2.1613   -1.0018   -1.2276 H   0  0  0  0  0  0  0  0  0  0  0  0
    1.3451   -1.8900    0.0706 H   0  0  0  0  0  0  0  0  0  0  0  0
    1.0110   -2.9180   -2.0618 S   0  0  0  0  0  0  0  0  0  0  0  0
   -0.3548   -3.7606   -1.2214 C   0  0  0  0  0  0  0  0  0  0  0  0
   -1.2191   -3.0979   -1.1690 H   0  0  0  0  0  0  0  0  0  0  0  0
   -0.6238   -4.6580   -1.7792 H   0  0  0  0  0  0  0  0  0  0  0  0
   -0.0485   -4.0430   -0.2138 H   0  0  0  0  0  0  0  0  0  0  0  0
   -0.8064    1.1568    0.7414 C   0  0  0  0  0  0  0  0  0  0  0  0
   -1.6978    1.8100    0.2029 O   0  0  0  0  0  0  0  0  0  0  0  0
    0.0314    1.6872    1.6415 N   0  0  0  0  0  0  0  0  0  0  0  0
    0.7279    1.0858    2.0517 H   0  0  0  0  0  0  0  0  0  0  0  0
   -0.0137    3.0826    2.0755 C   0  0  0  0  0  0  0  0  0  0  0  0
   -0.9991    3.3070    2.4905 H   0  0  0  0  0  0  0  0  0  0  0  0
    0.7468    3.2694    2.8349 H   0  0  0  0  0  0  0  0  0  0  0  0
    0.1592    3.7397    1.2213 H   0  0  0  0  0  0  0  0  0  0  0  0
  5  6  2  0  0  0  0
  5  7  1  0  0  0  0
  2  3  1  0  0  0  0
  2  4  1  0  0  0  0
  2  5  1  0  0  0  0
  1  2  1  0  0  0  0
 22 23  2  0  0  0  0
 22 24  1  0  0  0  0
 18 19  1  0  0  0  0
 18 20  1  0  0  0  0
 18 21  1  0  0  0  0
 17 18  1  0  0  0  0
 14 15  1  0  0  0  0
 14 16  1  0  0  0  0
 14 17  1  0  0  0  0
 11 12  1  0  0  0  0
 11 13  1  0  0  0  0
 11 14  1  0  0  0  0
  9 10  1  0  0  0  0
  9 11  1  0  0  0  0
  9 22  1  0  0  0  0
  7  8  1  0  0  0  0
  7  9  1  0  0  0  0
 26 27  1  0  0  0  0
 26 28  1  0  0  0  0
 26 29  1  0  0  0  0
 24 25  1  0  0  0  0
 24 26  1  0  0  0  0
M  END
$$$$
default_name
  -OEChem-02102213163D

 29 28  0     1  0  0  0  0  0999 V2000
   -3.5781   -3.7296    1.2702 H   0  0  0  0  0  0  0  0  0  0  0  0
   -3.5311   -2.7616    0.7732 C   0  0  0  0  0  0  0  0  0  0  0  0
   -4.2371   -2.0766    1.2382 H   0  0  0  0  0  0  0  0  0  0  0  0
   -3.7681   -2.8816   -0.2818 H   0  0  0  0  0  0  0  0  0  0  0  0
   -2.1321   -2.2086    0.9112 C   0  0  0  0  0  0  0  0  0  0  0  0
   -1.2751   -2.8426    1.5112 O   0  0  0  0  0  0  0  0  0  0  0  0
   -1.9041   -1.0186    0.3602 N   0  0  0  0  0  0  0  0  0  0  0  0
   -2.6671   -0.5416   -0.0988 H   0  0  0  0  0  0  0  0  0  0  0  0
   -0.6131   -0.3236    0.3832 C   0  0  1  0  0  0  0  0  0  0  0  0
    0.0142   -0.7800    1.1506 H   0  0  0  0  0  0  0  0  0  0  0  0
    0.0816   -0.5059   -0.9788 C   0  0  0  0  0  0  0  0  0  0  0  0
   -0.6555   -0.8555   -1.7048 H   0  0  0  0  0  0  0  0  0  0  0  0
    0.4648    0.4573   -1.3190 H   0  0  0  0  0  0  0  0  0  0  0  0
    1.2396   -1.5100   -0.9462 C   0  0  0  0  0  0  0  0  0  0  0  0
    2.1840   -0.9669   -0.9622 H   0  0  0  0  0  0  0  0  0  0  0  0
    1.1802   -2.0830   -0.0202 H   0  0  0  0  0  0  0  0  0  0  0  0
    1.2344   -2.6694   -2.3373 S   0  0  0  0  0  0  0  0  0  0  0  0
   -0.2346   -3.6448   -1.9221 C   0  0  0  0  0  0  0  0  0  0  0  0
   -1.1099   -2.9954   -1.8892 H   0  0  0  0  0  0  0  0  0  0  0  0
   -0.3854   -4.4124   -2.6817 H   0  0  0  0  0  0  0  0  0  0  0  0
   -0.0967   -4.1226   -0.9517 H   0  0  0  0  0  0  0  0  0  0  0  0
   -0.8064    1.1568    0.7414 C   0  0  0  0  0  0  0  0  0  0  0  0
   -1.6978    1.8100    0.2029 O   0  0  0  0  0  0  0  0  0  0  0  0
    0.0314    1.6872    1.6415 N   0  0  0  0  0  0  0  0  0  0  0  0
    0.7279    1.0858    2.0517 H   0  0  0  0  0  0  0  0  0  0  0  0
   -0.0137    3.0826    2.0755 C   0  0  0  0  0  0  0  0  0  0  0  0
   -0.9991    3.3070    2.4905 H   0  0  0  0  0  0  0  0  0  0  0  0
    0.7468    3.2694    2.8349 H   0  0  0  0  0  0  0  0  0  0  0  0
    0.1592    3.7397    1.2213 H   0  0  0  0  0  0  0  0  0  0  0  0
  5  6  2  0  0  0  0
  5  7  1  0  0  0  0
  2  3  1  0  0  0  0
  2  4  1  0  0  0  0
  2  5  1  0  0  0  0
  1  2  1  0  0  0  0
 22 23  2  0  0  0  0
 22 24  1  0  0  0  0
 18 19  1  0  0  0  0
 18 20  1  0  0  0  0
 18 21  1  0  0  0  0
 17 18  1  0  0  0  0
 14 15  1  0  0  0  0
 14 16  1  0  0  0  0
 14 17  1  0  0  0  0
 11 12  1  0  0  0  0
 11 13  1  0  0  0  0
 11 14  1  0  0  0  0
  9 10  1  0  0  0  0
  9 11  1  0  0  0  0
  9 22  1  0  0  0  0
  7  8  1  0  0  0  0
  7  9  1  0  0  0  0
 26 27  1  0  0  0  0
 26 28  1  0  0  0  0
 26 29  1  0  0  0  0
 24 25  1  0  0  0  0
 24 26  1  0  0  0  0
M  END
$$$$
default_name
  -OEChem-02102213163D

 29 28  0     1  0  0  0  0  0999 V2000
   -3.5781   -3.7296    1.2702 H   0  0  0  0  0  0  0  0  0  0  0  0
   -3.5311   -2.7616    0.7732 C   0  0  0  0  0  0  0  0  0  0  0  0
   -4.2371   -2.0766    1.2382 H   0  0  0  0  0  0  0  0  0  0  0  0
   -3.7681   -2.8816   -0.2818 H   0  0  0  0  0  0  0  0  0  0  0  0
   -2.1321   -2.2086    0.9112 C   0  0  0  0  0  0  0  0  0  0  0  0
   -1.2751   -2.8426    1.5112 O   0  0  0  0  0  0  0  0  0  0  0  0
   -1.9041   -1.0186    0.3602 N   0  0  0  0  0  0  0  0  0  0  0  0
   -2.6671   -0.5416   -0.0988 H   0  0  0  0  0  0  0  0  0  0  0  0
   -0.6131   -0.3236    0.3832 C   0  0  1  0  0  0  0  0  0  0  0  0
    0.0142   -0.7800    1.1506 H   0  0  0  0  0  0  0  0  0  0  0  0
    0.0816   -0.5059   -0.9788 C   0  0  0  0  0  0  0  0  0  0  0  0
   -0.6555   -0.8555   -1.7048 H   0  0  0  0  0  0  0  0  0  0  0  0
    0.4648    0.4573   -1.3190 H   0  0  0  0  0  0  0  0  0  0  0  0
    1.2396   -1.5100   -0.9462 C   0  0  0  0  0  0  0  0  0  0  0  0
    2.1608   -0.9851   -0.6951 H   0  0  0  0  0  0  0  0  0  0  0  0
    1.0374   -2.2527   -0.1736 H   0  0  0  0  0  0  0  0  0  0  0  0
    1.4955   -2.3742   -2.5169 S   0  0  0  0  0  0  0  0  0  0  0  0
   -0.0004   -3.3953   -2.5559 C   0  0  0  0  0  0  0  0  0  0  0  0
   -0.8830   -2.7550   -2.5464 H   0  0  0  0  0  0  0  0  0  0  0  0
   -0.0034   -3.9974   -3.4649 H   0  0  0  0  0  0  0  0  0  0  0  0
   -0.0177   -4.0555   -1.6883 H   0  0  0  0  0  0  0  0  0  0  0  0
   -0.8064    1.1568    0.7414 C   0  0  0  0  0  0  0  0  0  0  0  0
   -1.6978    1.8100    0.2029 O   0  0  0  0  0  0  0  0  0  0  0  0
    0.0314    1.6872    1.6415 N   0  0  0  0  0  0  0  0  0  0  0  0
    0.7279    1.0858    2.0517 H   0  0  0  0  0  0  0  0  0  0  0  0
   -0.0137    3.0826    2.0755 C   0  0  0  0  0  0  0  0  0  0  0  0
   -0.9991    3.3070    2.4905 H   0  0  0  0  0  0  0  0  0  0  0  0
    0.7468    3.2694    2.8349 H   0  0  0  0  0  0  0  0  0  0  0  0
    0.1592    3.7397    1.2213 H   0  0  0  0  0  0  0  0  0  0  0  0
  5  6  2  0  0  0  0
  5  7  1  0  0  0  0
  2  3  1  0  0  0  0
  2  4  1  0  0  0  0
  2  5  1  0  0  0  0
  1  2  1  0  0  0  0
 22 23  2  0  0  0  0
 22 24  1  0  0  0  0
 18 19  1  0  0  0  0
 18 20  1  0  0  0  0
 18 21  1  0  0  0  0
 17 18  1  0  0  0  0
 14 15  1  0  0  0  0
 14 16  1  0  0  0  0
 14 17  1  0  0  0  0
 11 12  1  0  0  0  0
 11 13  1  0  0  0  0
 11 14  1  0  0  0  0
  9 10  1  0  0  0  0
  9 11  1  0  0  0  0
  9 22  1  0  0  0  0
  7  8  1  0  0  0  0
  7  9  1  0  0  0  0
 26 27  1  0  0  0  0
 26 28  1  0  0  0  0
 26 29  1  0  0  0  0
 24 25  1  0  0  0  0
 24 26  1  0  0  0  0
M  END
$$$$
default_name
  -OEChem-02102213163D

 29 28  0     1  0  0  0  0  0999 V2000
   -3.5781   -3.7296    1.2702 H   0  0  0  0  0  0  0  0  0  0  0  0
   -3.5311   -2.7616    0.7732 C   0  0  0  0  0  0  0  0  0  0  0  0
   -4.2371   -2.0766    1.2382 H   0  0  0  0  0  0  0  0  0  0  0  0
   -3.7681   -2.8816   -0.2818 H   0  0  0  0  0  0  0  0  0  0  0  0
   -2.1321   -2.2086    0.9112 C   0  0  0  0  0  0  0  0  0  0  0  0
   -1.2751   -2.8426    1.5112 O   0  0  0  0  0  0  0  0  0  0  0  0
   -1.9041   -1.0186    0.3602 N   0  0  0  0  0  0  0  0  0  0  0  0
   -2.6671   -0.5416   -0.0988 H   0  0  0  0  0  0  0  0  0  0  0  0
   -0.6131   -0.3236    0.3832 C   0  0  1  0  0  0  0  0  0  0  0  0
    0.0142   -0.7800    1.1506 H   0  0  0  0  0  0  0  0  0  0  0  0
    0.0816   -0.5059   -0.9788 C   0  0  0  0  0  0  0  0  0  0  0  0
   -0.6555   -0.8555   -1.7048 H   0  0  0  0  0  0  0  0  0  0  0  0
    0.4648    0.4573   -1.3190 H   0  0  0  0  0  0  0  0  0  0  0  0
    1.2396   -1.5100   -0.9462 C   0  0  0  0  0  0  0  0  0  0  0  0
    2.0931   -1.0550   -0.4446 H   0  0  0  0  0  0  0  0  0  0  0  0
    0.9265   -2.3874   -0.3791 H   0  0  0  0  0  0  0  0  0  0  0  0
    1.7765   -2.0524   -2.5885 S   0  0  0  0  0  0  0  0  0  0  0  0
    0.3320   -3.0291   -3.0796 C   0  0  0  0  0  0  0  0  0  0  0  0
   -0.5536   -2.3932   -3.0957 H   0  0  0  0  0  0  0  0  0  0  0  0
    0.4960   -3.4413   -4.0756 H   0  0  0  0  0  0  0  0  0  0  0  0
    0.1830   -3.8463   -2.3733 H   0  0  0  0  0  0  0  0  0  0  0  0
   -0.8064    1.1568    0.7414 C   0  0  0  0  0  0  0  0  0  0  0  0
   -1.6978    1.8100    0.2029 O   0  0  0  0  0  0  0  0  0  0  0  0
    0.0314    1.6872    1.6415 N   0  0  0  0  0  0  0  0  0  0  0  0
    0.7279    1.0858    2.0517 H   0  0  0  0  0  0  0  0  0  0  0  0
   -0.0137    3.0826    2.0755 C   0  0  0  0  0  0  0  0  0  0  0  0
   -0.9991    3.3070    2.4905 H   0  0  0  0  0  0  0  0  0  0  0  0
    0.7468    3.2694    2.8349 H   0  0  0  0  0  0  0  0  0  0  0  0
    0.1592    3.7397    1.2213 H   0  0  0  0  0  0  0  0  0  0  0  0
  5  6  2  0  0  0  0
  5  7  1  0  0  0  0
  2  3  1  0  0  0  0
  2  4  1  0  0  0  0
  2  5  1  0  0  0  0
  1  2  1  0  0  0  0
 22 23  2  0  0  0  0
 22 24  1  0  0  0  0
 18 19  1  0  0  0  0
 18 20  1  0  0  0  0
 18 21  1  0  0  0  0
 17 18  1  0  0  0  0
 14 15  1  0  0  0  0
 14 16  1  0  0  0  0
 14 17  1  0  0  0  0
 11 12  1  0  0  0  0
 11 13  1  0  0  0  0
 11 14  1  0  0  0  0
  9 10  1  0  0  0  0
  9 11  1  0  0  0  0
  9 22  1  0  0  0  0
  7  8  1  0  0  0  0
  7  9  1  0  0  0  0
 26 27  1  0  0  0  0
 26 28  1  0  0  0  0
 26 29  1  0  0  0  0
 24 25  1  0  0  0  0
 24 26  1  0  0  0  0
M  END
$$$$
default_name
  -OEChem-02102213163D

 29 28  0     1  0  0  0  0  0999 V2000
   -3.5781   -3.7296    1.2702 H   0  0  0  0  0  0  0  0  0  0  0  0
   -3.5311   -2.7616    0.7732 C   0  0  0  0  0  0  0  0  0  0  0  0
   -4.2371   -2.0766    1.2382 H   0  0  0  0  0  0  0  0  0  0  0  0
   -3.7681   -2.8816   -0.2818 H   0  0  0  0  0  0  0  0  0  0  0  0
   -2.1321   -2.2086    0.9112 C   0  0  0  0  0  0  0  0  0  0  0  0
   -1.2751   -2.8426    1.5112 O   0  0  0  0  0  0  0  0  0  0  0  0
   -1.9041   -1.0186    0.3602 N   0  0  0  0  0  0  0  0  0  0  0  0
   -2.6671   -0.5416   -0.0988 H   0  0  0  0  0  0  0  0  0  0  0  0
   -0.6131   -0.3236    0.3832 C   0  0  1  0  0  0  0  0  0  0  0  0
    0.0142   -0.7800    1.1506 H   0  0  0  0  0  0  0  0  0  0  0  0
    0.0816   -0.5059   -0.9788 C   0  0  0  0  0  0  0  0  0  0  0  0
   -0.6828   -0.5915   -1.7541 H   0  0  0  0  0  0  0  0  0  0  0  0
    0.6882    0.3750   -1.1941 H   0  0  0  0  0  0  0  0  0  0  0  0
    0.9786   -1.7471   -1.0475 C   0  0  0  0  0  0  0  0  0  0  0  0
    1.7496   -1.6738   -0.2810 H   0  0  0  0  0  0  0  0  0  0  0  0
    0.3702   -2.6303   -0.8495 H   0  0  0  0  0  0  0  0  0  0  0  0
    1.7968   -1.9638   -2.6485 S   0  0  0  0  0  0  0  0  0  0  0  0
    0.3624   -2.3730   -3.6765 C   0  0  0  0  0  0  0  0  0  0  0  0
   -0.3512   -1.5489   -3.6568 H   0  0  0  0  0  0  0  0  0  0  0  0
    0.6894   -2.5402   -4.7032 H   0  0  0  0  0  0  0  0  0  0  0  0
   -0.1137   -3.2787   -3.2998 H   0  0  0  0  0  0  0  0  0  0  0  0
   -0.8064    1.1568    0.7414 C   0  0  0  0  0  0  0  0  0  0  0  0
   -1.6978    1.8100    0.2029 O   0  0  0  0  0  0  0  0  0  0  0  0
    0.0314    1.6872    1.6415 N   0  0  0  0  0  0  0  0  0  0  0  0
    0.7279    1.0858    2.0517 H   0  0  0  0  0  0  0  0  0  0  0  0
   -0.0137    3.0826    2.0755 C   0  0  0  0  0  0  0  0  0  0  0  0
   -0.9991    3.3070    2.4905 H   0  0  0  0  0  0  0  0  0  0  0  0
    0.7468    3.2694    2.8349 H   0  0  0  0  0  0  0  0  0  0  0  0
    0.1592    3.7397    1.2213 H   0  0  0  0  0  0  0  0  0  0  0  0
  5  6  2  0  0  0  0
  5  7  1  0  0  0  0
  2  3  1  0  0  0  0
  2  4  1  0  0  0  0
  2  5  1  0  0  0  0
  1  2  1  0  0  0  0
 22 23  2  0  0  0  0
 22 24  1  0  0  0  0
 18 19  1  0  0  0  0
 18 20  1  0  0  0  0
 18 21  1  0  0  0  0
 17 18  1  0  0  0  0
 14 15  1  0  0  0  0
 14 16  1  0  0  0  0
 14 17  1  0  0  0  0
 11 12  1  0  0  0  0
 11 13  1  0  0  0  0
 11 14  1  0  0  0  0
  9 10  1  0  0  0  0
  9 11  1  0  0  0  0
  9 22  1  0  0  0  0
  7  8  1  0  0  0  0
  7  9  1  0  0  0  0
 26 27  1  0  0  0  0
 26 28  1  0  0  0  0
 26 29  1  0  0  0  0
 24 25  1  0  0  0  0
 24 26  1  0  0  0  0
M  END
$$$$
default_name
  -OEChem-02102213163D

 29 28  0     1  0  0  0  0  0999 V2000
   -3.5781   -3.7296    1.2702 H   0  0  0  0  0  0  0  0  0  0  0  0
   -3.5311   -2.7616    0.7732 C   0  0  0  0  0  0  0  0  0  0  0  0
   -4.2371   -2.0766    1.2382 H   0  0  0  0  0  0  0  0  0  0  0  0
   -3.7681   -2.8816   -0.2818 H   0  0  0  0  0  0  0  0  0  0  0  0
   -2.1321   -2.2086    0.9112 C   0  0  0  0  0  0  0  0  0  0  0  0
   -1.2751   -2.8426    1.5112 O   0  0  0  0  0  0  0  0  0  0  0  0
   -1.9041   -1.0186    0.3602 N   0  0  0  0  0  0  0  0  0  0  0  0
   -2.6671   -0.5416   -0.0988 H   0  0  0  0  0  0  0  0  0  0  0  0
   -0.6131   -0.3236    0.3832 C   0  0  1  0  0  0  0  0  0  0  0  0
    0.0142   -0.7800    1.1506 H   0  0  0  0  0  0  0  0  0  0  0  0
    0.0816   -0.5059   -0.9788 C   0  0  0  0  0  0  0  0  0  0  0  0
   -0.6828   -0.5915   -1.7541 H   0  0  0  0  0  0  0  0  0  0  0  0
    0.6882    0.3750   -1.1941 H   0  0  0  0  0  0  0  0  0  0  0  0
    0.9786   -1.7471   -1.0475 C   0  0  0  0  0  0  0  0  0  0  0  0
    1.5706   -1.8112   -0.1350 H   0  0  0  0  0  0  0  0  0  0  0  0
    0.3462   -2.6328   -1.1181 H   0  0  0  0  0  0  0  0  0  0  0  0
    2.1164   -1.7434   -2.4564 S   0  0  0  0  0  0  0  0  0  0  0  0
    0.9324   -1.9537   -3.8113 C   0  0  0  0  0  0  0  0  0  0  0  0
    0.2268   -1.1224   -3.8153 H   0  0  0  0  0  0  0  0  0  0  0  0
    1.4689   -1.9738   -4.7603 H   0  0  0  0  0  0  0  0  0  0  0  0
    0.3917   -2.8921   -3.6850 H   0  0  0  0  0  0  0  0  0  0  0  0
   -0.8064    1.1568    0.7414 C   0  0  0  0  0  0  0  0  0  0  0  0
   -1.6978    1.8100    0.2029 O   0  0  0  0  0  0  0  0  0  0  0  0
    0.0314    1.6872    1.6415 N   0  0  0  0  0  0  0  0  0  0  0  0
    0.7279    1.0858    2.0517 H   0  0  0  0  0  0  0  0  0  0  0  0
   -0.0137    3.0826    2.0755 C   0  0  0  0  0  0  0  0  0  0  0  0
   -0.9991    3.3070    2.4905 H   0  0  0  0  0  0  0  0  0  0  0  0
    0.7468    3.2694    2.8349 H   0  0  0  0  0  0  0  0  0  0  0  0
    0.1592    3.7397    1.2213 H   0  0  0  0  0  0  0  0  0  0  0  0
  5  6  2  0  0  0  0
  5  7  1  0  0  0  0
  2  3  1  0  0  0  0
  2  4  1  0  0  0  0
  2  5  1  0  0  0  0
  1  2  1  0  0  0  0
 22 23  2  0  0  0  0
 22 24  1  0  0  0  0
 18 19  1  0  0  0  0
 18 20  1  0  0  0  0
 18 21  1  0  0  0  0
 17 18  1  0  0  0  0
 14 15  1  0  0  0  0
 14 16  1  0  0  0  0
 14 17  1  0  0  0  0
 11 12  1  0  0  0  0
 11 13  1  0  0  0  0
 11 14  1  0  0  0  0
  9 10  1  0  0  0  0
  9 11  1  0  0  0  0
  9 22  1  0  0  0  0
  7  8  1  0  0  0  0
  7  9  1  0  0  0  0
 26 27  1  0  0  0  0
 26 28  1  0  0  0  0
 26 29  1  0  0  0  0
 24 25  1  0  0  0  0
 24 26  1  0  0  0  0
M  END
$$$$
default_name
  -OEChem-02102213163D

 29 28  0     1  0  0  0  0  0999 V2000
   -3.5781   -3.7296    1.2702 H   0  0  0  0  0  0  0  0  0  0  0  0
   -3.5311   -2.7616    0.7732 C   0  0  0  0  0  0  0  0  0  0  0  0
   -4.2371   -2.0766    1.2382 H   0  0  0  0  0  0  0  0  0  0  0  0
   -3.7681   -2.8816   -0.2818 H   0  0  0  0  0  0  0  0  0  0  0  0
   -2.1321   -2.2086    0.9112 C   0  0  0  0  0  0  0  0  0  0  0  0
   -1.2751   -2.8426    1.5112 O   0  0  0  0  0  0  0  0  0  0  0  0
   -1.9041   -1.0186    0.3602 N   0  0  0  0  0  0  0  0  0  0  0  0
   -2.6671   -0.5416   -0.0988 H   0  0  0  0  0  0  0  0  0  0  0  0
   -0.6131   -0.3236    0.3832 C   0  0  1  0  0  0  0  0  0  0  0  0
    0.0142   -0.7800    1.1506 H   0  0  0  0  0  0  0  0  0  0  0  0
    0.0816   -0.5059   -0.9788 C   0  0  0  0  0  0  0  0  0  0  0  0
   -0.6828   -0.5915   -1.7541 H   0  0  0  0  0  0  0  0  0  0  0  0
    0.6882    0.3750   -1.1941 H   0  0  0  0  0  0  0  0  0  0  0  0
    0.9786   -1.7471   -1.0475 C   0  0  0  0  0  0  0  0  0  0  0  0
    1.3656   -1.9639   -0.0523 H   0  0  0  0  0  0  0  0  0  0  0  0
    0.3793   -2.5943   -1.3829 H   0  0  0  0  0  0  0  0  0  0  0  0
    2.3874   -1.5634   -2.1705 S   0  0  0  0  0  0  0  0  0  0  0  0
    1.5160   -1.5348   -3.7585 C   0  0  0  0  0  0  0  0  0  0  0  0
    0.8233   -0.6931   -3.7826 H   0  0  0  0  0  0  0  0  0  0  0  0
    2.2403   -1.4270   -4.5663 H   0  0  0  0  0  0  0  0  0  0  0  0
    0.9652   -2.4662   -3.8926 H   0  0  0  0  0  0  0  0  0  0  0  0
   -0.8064    1.1568    0.7414 C   0  0  0  0  0  0  0  0  0  0  0  0
   -1.6978    1.8100    0.2029 O   0  0  0  0  0  0  0  0  0  0  0  0
    0.0314    1.6872    1.6415 N   0  0  0  0  0  0  0  0  0  0  0  0
    0.7279    1.0858    2.0517 H   0  0  0  0  0  0  0  0  0  0  0  0
   -0.0137    3.0826    2.0755 C   0  0  0  0  0  0  0  0  0  0  0  0
   -0.9991    3.3070    2.4905 H   0  0  0  0  0  0  0  0  0  0  0  0
    0.7468    3.2694    2.8349 H   0  0  0  0  0  0  0  0  0  0  0  0
    0.1592    3.7397    1.2213 H   0  0  0  0  0  0  0  0  0  0  0  0
  5  6  2  0  0  0  0
  5  7  1  0  0  0  0
  2  3  1  0  0  0  0
  2  4  1  0  0  0  0
  2  5  1  0  0  0  0
  1  2  1  0  0  0  0
 22 23  2  0  0  0  0
 22 24  1  0  0  0  0
 18 19  1  0  0  0  0
 18 20  1  0  0  0  0
 18 21  1  0  0  0  0
 17 18  1  0  0  0  0
 14 15  1  0  0  0  0
 14 16  1  0  0  0  0
 14 17  1  0  0  0  0
 11 12  1  0  0  0  0
 11 13  1  0  0  0  0
 11 14  1  0  0  0  0
  9 10  1  0  0  0  0
  9 11  1  0  0  0  0
  9 22  1  0  0  0  0
  7  8  1  0  0  0  0
  7  9  1  0  0  0  0
 26 27  1  0  0  0  0
 26 28  1  0  0  0  0
 26 29  1  0  0  0  0
 24 25  1  0  0  0  0
 24 26  1  0  0  0  0
M  END
$$$$
default_name
  -OEChem-02102213163D

 29 28  0     1  0  0  0  0  0999 V2000
   -3.5781   -3.7296    1.2702 H   0  0  0  0  0  0  0  0  0  0  0  0
   -3.5311   -2.7616    0.7732 C   0  0  0  0  0  0  0  0  0  0  0  0
   -4.2371   -2.0766    1.2382 H   0  0  0  0  0  0  0  0  0  0  0  0
   -3.7681   -2.8816   -0.2818 H   0  0  0  0  0  0  0  0  0  0  0  0
   -2.1321   -2.2086    0.9112 C   0  0  0  0  0  0  0  0  0  0  0  0
   -1.2751   -2.8426    1.5112 O   0  0  0  0  0  0  0  0  0  0  0  0
   -1.9041   -1.0186    0.3602 N   0  0  0  0  0  0  0  0  0  0  0  0
   -2.6671   -0.5416   -0.0988 H   0  0  0  0  0  0  0  0  0  0  0  0
   -0.6131   -0.3236    0.3832 C   0  0  1  0  0  0  0  0  0  0  0  0
    0.0142   -0.7800    1.1506 H   0  0  0  0  0  0  0  0  0  0  0  0
    0.0816   -0.5059   -0.9788 C   0  0  0  0  0  0  0  0  0  0  0  0
   -0.6828   -0.5915   -1.7541 H   0  0  0  0  0  0  0  0  0  0  0  0
    0.6882    0.3750   -1.1941 H   0  0  0  0  0  0  0  0  0  0  0  0
    0.9786   -1.7471   -1.0475 C   0  0  0  0  0  0  0  0  0  0  0  0
    1.1485   -2.1216   -0.0385 H   0  0  0  0  0  0  0  0  0  0  0  0
    0.4672   -2.5174   -1.6259 H   0  0  0  0  0  0  0  0  0  0  0  0
    2.5914   -1.4359   -1.8103 S   0  0  0  0  0  0  0  0  0  0  0  0
    2.0736   -1.1450   -3.5217 C   0  0  0  0  0  0  0  0  0  0  0  0
    1.3976   -0.2903   -3.5611 H   0  0  0  0  0  0  0  0  0  0  0  0
    2.9511   -0.9372   -4.1345 H   0  0  0  0  0  0  0  0  0  0  0  0
    1.5675   -2.0301   -3.9084 H   0  0  0  0  0  0  0  0  0  0  0  0
   -0.8064    1.1568    0.7414 C   0  0  0  0  0  0  0  0  0  0  0  0
   -1.6978    1.8100    0.2029 O   0  0  0  0  0  0  0  0  0  0  0  0
    0.0314    1.6872    1.6415 N   0  0  0  0  0  0  0  0  0  0  0  0
    0.7279    1.0858    2.0517 H   0  0  0  0  0  0  0  0  0  0  0  0
   -0.0137    3.0826    2.0755 C   0  0  0  0  0  0  0  0  0  0  0  0
   -0.9991    3.3070    2.4905 H   0  0  0  0  0  0  0  0  0  0  0  0
    0.7468    3.2694    2.8349 H   0  0  0  0  0  0  0  0  0  0  0  0
    0.1592    3.7397    1.2213 H   0  0  0  0  0  0  0  0  0  0  0  0
  5  6  2  0  0  0  0
  5  7  1  0  0  0  0
  2  3  1  0  0  0  0
  2  4  1  0  0  0  0
  2  5  1  0  0  0  0
  1  2  1  0  0  0  0
 22 23  2  0  0  0  0
 22 24  1  0  0  0  0
 18 19  1  0  0  0  0
 18 20  1  0  0  0  0
 18 21  1  0  0  0  0
 17 18  1  0  0  0  0
 14 15  1  0  0  0  0
 14 16  1  0  0  0  0
 14 17  1  0  0  0  0
 11 12  1  0  0  0  0
 11 13  1  0  0  0  0
 11 14  1  0  0  0  0
  9 10  1  0  0  0  0
  9 11  1  0  0  0  0
  9 22  1  0  0  0  0
  7  8  1  0  0  0  0
  7  9  1  0  0  0  0
 26 27  1  0  0  0  0
 26 28  1  0  0  0  0
 26 29  1  0  0  0  0
 24 25  1  0  0  0  0
 24 26  1  0  0  0  0
M  END
$$$$
default_name
  -OEChem-02102213163D

 29 28  0     1  0  0  0  0  0999 V2000
   -3.5781   -3.7296    1.2702 H   0  0  0  0  0  0  0  0  0  0  0  0
   -3.5311   -2.7616    0.7732 C   0  0  0  0  0  0  0  0  0  0  0  0
   -4.2371   -2.0766    1.2382 H   0  0  0  0  0  0  0  0  0  0  0  0
   -3.7681   -2.8816   -0.2818 H   0  0  0  0  0  0  0  0  0  0  0  0
   -2.1321   -2.2086    0.9112 C   0  0  0  0  0  0  0  0  0  0  0  0
   -1.2751   -2.8426    1.5112 O   0  0  0  0  0  0  0  0  0  0  0  0
   -1.9041   -1.0186    0.3602 N   0  0  0  0  0  0  0  0  0  0  0  0
   -2.6671   -0.5416   -0.0988 H   0  0  0  0  0  0  0  0  0  0  0  0
   -0.6131   -0.3236    0.3832 C   0  0  1  0  0  0  0  0  0  0  0  0
    0.0142   -0.7800    1.1506 H   0  0  0  0  0  0  0  0  0  0  0  0
    0.0816   -0.5059   -0.9788 C   0  0  0  0  0  0  0  0  0  0  0  0
   -0.6828   -0.5915   -1.7541 H   0  0  0  0  0  0  0  0  0  0  0  0
    0.6882    0.3750   -1.1941 H   0  0  0  0  0  0  0  0  0  0  0  0
    0.9786   -1.7471   -1.0475 C   0  0  0  0  0  0  0  0  0  0  0  0
    0.9341   -2.2735   -0.0945 H   0  0  0  0  0  0  0  0  0  0  0  0
    0.6038   -2.4073   -1.8306 H   0  0  0  0  0  0  0  0  0  0  0  0
    2.7144   -1.3697   -1.4003 S   0  0  0  0  0  0  0  0  0  0  0  0
    2.5670   -0.8108   -3.1172 C   0  0  0  0  0  0  0  0  0  0  0  0
    1.9106    0.0585   -3.1658 H   0  0  0  0  0  0  0  0  0  0  0  0
    3.5529   -0.5377   -3.4943 H   0  0  0  0  0  0  0  0  0  0  0  0
    2.1577   -1.6133   -3.7314 H   0  0  0  0  0  0  0  0  0  0  0  0
   -0.8064    1.1568    0.7414 C   0  0  0  0  0  0  0  0  0  0  0  0
   -1.6978    1.8100    0.2029 O   0  0  0  0  0  0  0  0  0  0  0  0
    0.0314    1.6872    1.6415 N   0  0  0  0  0  0  0  0  0  0  0  0
    0.7279    1.0858    2.0517 H   0  0  0  0  0  0  0  0  0  0  0  0
   -0.0137    3.0826    2.0755 C   0  0  0  0  0  0  0  0  0  0  0  0
   -0.9991    3.3070    2.4905 H   0  0  0  0  0  0  0  0  0  0  0  0
    0.7468    3.2694    2.8349 H   0  0  0  0  0  0  0  0  0  0  0  0
    0.1592    3.7397    1.2213 H   0  0  0  0  0  0  0  0  0  0  0  0
  5  6  2  0  0  0  0
  5  7  1  0  0  0  0
  2  3  1  0  0  0  0
  2  4  1  0  0  0  0
  2  5  1  0  0  0  0
  1  2  1  0  0  0  0
 22 23  2  0  0  0  0
 22 24  1  0  0  0  0
 18 19  1  0  0  0  0
 18 20  1  0  0  0  0
 18 21  1  0  0  0  0
 17 18  1  0  0  0  0
 14 15  1  0  0  0  0
 14 16  1  0  0  0  0
 14 17  1  0  0  0  0
 11 12  1  0  0  0  0
 11 13  1  0  0  0  0
 11 14  1  0  0  0  0
  9 10  1  0  0  0  0
  9 11  1  0  0  0  0
  9 22  1  0  0  0  0
  7  8  1  0  0  0  0
  7  9  1  0  0  0  0
 26 27  1  0  0  0  0
 26 28  1  0  0  0  0
 26 29  1  0  0  0  0
 24 25  1  0  0  0  0
 24 26  1  0  0  0  0
M  END
$$$$
default_name
  -OEChem-02102213163D

 29 28  0     1  0  0  0  0  0999 V2000
   -3.5781   -3.7296    1.2702 H   0  0  0  0  0  0  0  0  0  0  0  0
   -3.5311   -2.7616    0.7732 C   0  0  0  0  0  0  0  0  0  0  0  0
   -4.2371   -2.0766    1.2382 H   0  0  0  0  0  0  0  0  0  0  0  0
   -3.7681   -2.8816   -0.2818 H   0  0  0  0  0  0  0  0  0  0  0  0
   -2.1321   -2.2086    0.9112 C   0  0  0  0  0  0  0  0  0  0  0  0
   -1.2751   -2.8426    1.5112 O   0  0  0  0  0  0  0  0  0  0  0  0
   -1.9041   -1.0186    0.3602 N   0  0  0  0  0  0  0  0  0  0  0  0
   -2.6671   -0.5416   -0.0988 H   0  0  0  0  0  0  0  0  0  0  0  0
   -0.6131   -0.3236    0.3832 C   0  0  1  0  0  0  0  0  0  0  0  0
    0.0142   -0.7800    1.1506 H   0  0  0  0  0  0  0  0  0  0  0  0
    0.0816   -0.5059   -0.9788 C   0  0  0  0  0  0  0  0  0  0  0  0
   -0.6828   -0.5915   -1.7541 H   0  0  0  0  0  0  0  0  0  0  0  0
    0.6882    0.3750   -1.1941 H   0  0  0  0  0  0  0  0  0  0  0  0
    0.9786   -1.7471   -1.0475 C   0  0  0  0  0  0  0  0  0  0  0  0
    0.7369   -2.4092   -0.2166 H   0  0  0  0  0  0  0  0  0  0  0  0
    0.7801   -2.2715   -1.9829 H   0  0  0  0  0  0  0  0  0  0  0  0
    2.7480   -1.3693   -0.9685 S   0  0  0  0  0  0  0  0  0  0  0  0
    2.9627   -0.5550   -2.5724 C   0  0  0  0  0  0  0  0  0  0  0  0
    2.3273    0.3297   -2.6236 H   0  0  0  0  0  0  0  0  0  0  0  0
    4.0047   -0.2558   -2.6892 H   0  0  0  0  0  0  0  0  0  0  0  0
    2.6955   -1.2444   -3.3737 H   0  0  0  0  0  0  0  0  0  0  0  0
   -0.8064    1.1568    0.7414 C   0  0  0  0  0  0  0  0  0  0  0  0
   -1.6978    1.8100    0.2029 O   0  0  0  0  0  0  0  0  0  0  0  0
    0.0314    1.6872    1.6415 N   0  0  0  0  0  0  0  0  0  0  0  0
    0.7279    1.0858    2.0517 H   0  0  0  0  0  0  0  0  0  0  0  0
   -0.0137    3.0826    2.0755 C   0  0  0  0  0  0  0  0  0  0  0  0
   -0.9991    3.3070    2.4905 H   0  0  0  0  0  0  0  0  0  0  0  0
    0.7468    3.2694    2.8349 H   0  0  0  0  0  0  0  0  0  0  0  0
    0.1592    3.7397    1.2213 H   0  0  0  0  0  0  0  0  0  0  0  0
  5  6  2  0  0  0  0
  5  7  1  0  0  0  0
  2  3  1  0  0  0  0
  2  4  1  0  0  0  0
  2  5  1  0  0  0  0
  1  2  1  0  0  0  0
 22 23  2  0  0  0  0
 22 24  1  0  0  0  0
 18 19  1  0  0  0  0
 18 20  1  0  0  0  0
 18 21  1  0  0  0  0
 17 18  1  0  0  0  0
 14 15  1  0  0  0  0
 14 16  1  0  0  0  0
 14 17  1  0  0  0  0
 11 12  1  0  0  0  0
 11 13  1  0  0  0  0
 11 14  1  0  0  0  0
  9 10  1  0  0  0  0
  9 11  1  0  0  0  0
  9 22  1  0  0  0  0
  7  8  1  0  0  0  0
  7  9  1  0  0  0  0
 26 27  1  0  0  0  0
 26 28  1  0  0  0  0
 26 29  1  0  0  0  0
 24 25  1  0  0  0  0
 24 26  1  0  0  0  0
M  END
$$$$
default_name
  -OEChem-02102213163D

 29 28  0     1  0  0  0  0  0999 V2000
   -3.5781   -3.7296    1.2702 H   0  0  0  0  0  0  0  0  0  0  0  0
   -3.5311   -2.7616    0.7732 C   0  0  0  0  0  0  0  0  0  0  0  0
   -4.2371   -2.0766    1.2382 H   0  0  0  0  0  0  0  0  0  0  0  0
   -3.7681   -2.8816   -0.2818 H   0  0  0  0  0  0  0  0  0  0  0  0
   -2.1321   -2.2086    0.9112 C   0  0  0  0  0  0  0  0  0  0  0  0
   -1.2751   -2.8426    1.5112 O   0  0  0  0  0  0  0  0  0  0  0  0
   -1.9041   -1.0186    0.3602 N   0  0  0  0  0  0  0  0  0  0  0  0
   -2.6671   -0.5416   -0.0988 H   0  0  0  0  0  0  0  0  0  0  0  0
   -0.6131   -0.3236    0.3832 C   0  0  1  0  0  0  0  0  0  0  0  0
    0.0142   -0.7800    1.1506 H   0  0  0  0  0  0  0  0  0  0  0  0
    0.0816   -0.5059   -0.9788 C   0  0  0  0  0  0  0  0  0  0  0  0
   -0.6828   -0.5915   -1.7541 H   0  0  0  0  0  0  0  0  0  0  0  0
    0.6882    0.3750   -1.1941 H   0  0  0  0  0  0  0  0  0  0  0  0
    0.9786   -1.7471   -1.0475 C   0  0  0  0  0  0  0  0  0  0  0  0
    0.5705   -2.5195   -0.3964 H   0  0  0  0  0  0  0  0  0  0  0  0
    0.9838   -2.1193   -2.0726 H   0  0  0  0  0  0  0  0  0  0  0  0
    2.6900   -1.4347   -0.5443 S   0  0  0  0  0  0  0  0  0  0  0  0
    3.2338   -0.3949   -1.9245 C   0  0  0  0  0  0  0  0  0  0  0  0
    2.6193    0.5047   -1.9715 H   0  0  0  0  0  0  0  0  0  0  0  0
    4.2756   -0.1106   -1.7742 H   0  0  0  0  0  0  0  0  0  0  0  0
    3.1443   -0.9485   -2.8596 H   0  0  0  0  0  0  0  0  0  0  0  0
   -0.8064    1.1568    0.7414 C   0  0  0  0  0  0  0  0  0  0  0  0
   -1.6978    1.8100    0.2029 O   0  0  0  0  0  0  0  0  0  0  0  0
    0.0314    1.6872    1.6415 N   0  0  0  0  0  0  0  0  0  0  0  0
    0.7279    1.0858    2.0517 H   0  0  0  0  0  0  0  0  0  0  0  0
   -0.0137    3.0826    2.0755 C   0  0  0  0  0  0  0  0  0  0  0  0
   -0.9991    3.3070    2.4905 H   0  0  0  0  0  0  0  0  0  0  0  0
    0.7468    3.2694    2.8349 H   0  0  0  0  0  0  0  0  0  0  0  0
    0.1592    3.7397    1.2213 H   0  0  0  0  0  0  0  0  0  0  0  0
  5  6  2  0  0  0  0
  5  7  1  0  0  0  0
  2  3  1  0  0  0  0
  2  4  1  0  0  0  0
  2  5  1  0  0  0  0
  1  2  1  0  0  0  0
 22 23  2  0  0  0  0
 22 24  1  0  0  0  0
 18 19  1  0  0  0  0
 18 20  1  0  0  0  0
 18 21  1  0  0  0  0
 17 18  1  0  0  0  0
 14 15  1  0  0  0  0
 14 16  1  0  0  0  0
 14 17  1  0  0  0  0
 11 12  1  0  0  0  0
 11 13  1  0  0  0  0
 11 14  1  0  0  0  0
  9 10  1  0  0  0  0
  9 11  1  0  0  0  0
  9 22  1  0  0  0  0
  7  8  1  0  0  0  0
  7  9  1  0  0  0  0
 26 27  1  0  0  0  0
 26 28  1  0  0  0  0
 26 29  1  0  0  0  0
 24 25  1  0  0  0  0
 24 26  1  0  0  0  0
M  END
$$$$
default_name
  -OEChem-02102213163D

 29 28  0     1  0  0  0  0  0999 V2000
   -3.5781   -3.7296    1.2702 H   0  0  0  0  0  0  0  0  0  0  0  0
   -3.5311   -2.7616    0.7732 C   0  0  0  0  0  0  0  0  0  0  0  0
   -4.2371   -2.0766    1.2382 H   0  0  0  0  0  0  0  0  0  0  0  0
   -3.7681   -2.8816   -0.2818 H   0  0  0  0  0  0  0  0  0  0  0  0
   -2.1321   -2.2086    0.9112 C   0  0  0  0  0  0  0  0  0  0  0  0
   -1.2751   -2.8426    1.5112 O   0  0  0  0  0  0  0  0  0  0  0  0
   -1.9041   -1.0186    0.3602 N   0  0  0  0  0  0  0  0  0  0  0  0
   -2.6671   -0.5416   -0.0988 H   0  0  0  0  0  0  0  0  0  0  0  0
   -0.6131   -0.3236    0.3832 C   0  0  1  0  0  0  0  0  0  0  0  0
    0.0142   -0.7800    1.1506 H   0  0  0  0  0  0  0  0  0  0  0  0
    0.0816   -0.5059   -0.9788 C   0  0  0  0  0  0  0  0  0  0  0  0
   -0.6828   -0.5915   -1.7541 H   0  0  0  0  0  0  0  0  0  0  0  0
    0.6882    0.3750   -1.1941 H   0  0  0  0  0  0  0  0  0  0  0  0
    0.9786   -1.7471   -1.0475 C   0  0  0  0  0  0  0  0  0  0  0  0
    0.4461   -2.5970   -0.6216 H   0  0  0  0  0  0  0  0  0  0  0  0
    1.2011   -1.9611   -2.0935 H   0  0  0  0  0  0  0  0  0  0  0  0
    2.5443   -1.5614   -0.1566 S   0  0  0  0  0  0  0  0  0  0  0  0
    3.3616   -0.3416   -1.2176 C   0  0  0  0  0  0  0  0  0  0  0  0
    2.7668    0.5715   -1.2539 H   0  0  0  0  0  0  0  0  0  0  0  0
    4.3472   -0.1121   -0.8117 H   0  0  0  0  0  0  0  0  0  0  0  0
    3.4735   -0.7458   -2.2241 H   0  0  0  0  0  0  0  0  0  0  0  0
   -0.8064    1.1568    0.7414 C   0  0  0  0  0  0  0  0  0  0  0  0
   -1.6978    1.8100    0.2029 O   0  0  0  0  0  0  0  0  0  0  0  0
    0.0314    1.6872    1.6415 N   0  0  0  0  0  0  0  0  0  0  0  0
    0.7279    1.0858    2.0517 H   0  0  0  0  0  0  0  0  0  0  0  0
   -0.0137    3.0826    2.0755 C   0  0  0  0  0  0  0  0  0  0  0  0
   -0.9991    3.3070    2.4905 H   0  0  0  0  0  0  0  0  0  0  0  0
    0.7468    3.2694    2.8349 H   0  0  0  0  0  0  0  0  0  0  0  0
    0.1592    3.7397    1.2213 H   0  0  0  0  0  0  0  0  0  0  0  0
  5  6  2  0  0  0  0
  5  7  1  0  0  0  0
  2  3  1  0  0  0  0
  2  4  1  0  0  0  0
  2  5  1  0  0  0  0
  1  2  1  0  0  0  0
 22 23  2  0  0  0  0
 22 24  1  0  0  0  0
 18 19  1  0  0  0  0
 18 20  1  0  0  0  0
 18 21  1  0  0  0  0
 17 18  1  0  0  0  0
 14 15  1  0  0  0  0
 14 16  1  0  0  0  0
 14 17  1  0  0  0  0
 11 12  1  0  0  0  0
 11 13  1  0  0  0  0
 11 14  1  0  0  0  0
  9 10  1  0  0  0  0
  9 11  1  0  0  0  0
  9 22  1  0  0  0  0
  7  8  1  0  0  0  0
  7  9  1  0  0  0  0
 26 27  1  0  0  0  0
 26 28  1  0  0  0  0
 26 29  1  0  0  0  0
 24 25  1  0  0  0  0
 24 26  1  0  0  0  0
M  END
$$$$
default_name
  -OEChem-02102213163D

 29 28  0     1  0  0  0  0  0999 V2000
   -3.5781   -3.7296    1.2702 H   0  0  0  0  0  0  0  0  0  0  0  0
   -3.5311   -2.7616    0.7732 C   0  0  0  0  0  0  0  0  0  0  0  0
   -4.2371   -2.0766    1.2382 H   0  0  0  0  0  0  0  0  0  0  0  0
   -3.7681   -2.8816   -0.2818 H   0  0  0  0  0  0  0  0  0  0  0  0
   -2.1321   -2.2086    0.9112 C   0  0  0  0  0  0  0  0  0  0  0  0
   -1.2751   -2.8426    1.5112 O   0  0  0  0  0  0  0  0  0  0  0  0
   -1.9041   -1.0186    0.3602 N   0  0  0  0  0  0  0  0  0  0  0  0
   -2.6671   -0.5416   -0.0988 H   0  0  0  0  0  0  0  0  0  0  0  0
   -0.6131   -0.3236    0.3832 C   0  0  1  0  0  0  0  0  0  0  0  0
    0.0142   -0.7800    1.1506 H   0  0  0  0  0  0  0  0  0  0  0  0
    0.0816   -0.5059   -0.9788 C   0  0  0  0  0  0  0  0  0  0  0  0
   -0.6828   -0.5915   -1.7541 H   0  0  0  0  0  0  0  0  0  0  0  0
    0.6882    0.3750   -1.1941 H   0  0  0  0  0  0  0  0  0  0  0  0
    0.9786   -1.7471   -1.0475 C   0  0  0  0  0  0  0  0  0  0  0  0
    0.3723   -2.6362   -0.8770 H   0  0  0  0  0  0  0  0  0  0  0  0
    1.4172   -1.8077   -2.0442 H   0  0  0  0  0  0  0  0  0  0  0  0
    2.3209   -1.7408    0.1682 S   0  0  0  0  0  0  0  0  0  0  0  0
    3.3377   -0.3986   -0.5000 C   0  0  0  0  0  0  0  0  0  0  0  0
    2.7596    0.5257   -0.5197 H   0  0  0  0  0  0  0  0  0  0  0  0
    4.2147   -0.2601    0.1329 H   0  0  0  0  0  0  0  0  0  0  0  0
    3.6607   -0.6500   -1.5106 H   0  0  0  0  0  0  0  0  0  0  0  0
   -0.8064    1.1568    0.7414 C   0  0  0  0  0  0  0  0  0  0  0  0
   -1.6978    1.8100    0.2029 O   0  0  0  0  0  0  0  0  0  0  0  0
    0.0314    1.6872    1.6415 N   0  0  0  0  0  0  0  0  0  0  0  0
    0.7279    1.0858    2.0517 H   0  0  0  0  0  0  0  0  0  0  0  0
   -0.0137    3.0826    2.0755 C   0  0  0  0  0  0  0  0  0  0  0  0
   -0.9991    3.3070    2.4905 H   0  0  0  0  0  0  0  0  0  0  0  0
    0.7468    3.2694    2.8349 H   0  0  0  0  0  0  0  0  0  0  0  0
    0.1592    3.7397    1.2213 H   0  0  0  0  0  0  0  0  0  0  0  0
  5  6  2  0  0  0  0
  5  7  1  0  0  0  0
  2  3  1  0  0  0  0
  2  4  1  0  0  0  0
  2  5  1  0  0  0  0
  1  2  1  0  0  0  0
 22 23  2  0  0  0  0
 22 24  1  0  0  0  0
 18 19  1  0  0  0  0
 18 20  1  0  0  0  0
 18 21  1  0  0  0  0
 17 18  1  0  0  0  0
 14 15  1  0  0  0  0
 14 16  1  0  0  0  0
 14 17  1  0  0  0  0
 11 12  1  0  0  0  0
 11 13  1  0  0  0  0
 11 14  1  0  0  0  0
  9 10  1  0  0  0  0
  9 11  1  0  0  0  0
  9 22  1  0  0  0  0
  7  8  1  0  0  0  0
  7  9  1  0  0  0  0
 26 27  1  0  0  0  0
 26 28  1  0  0  0  0
 26 29  1  0  0  0  0
 24 25  1  0  0  0  0
 24 26  1  0  0  0  0
M  END
$$$$
default_name
  -OEChem-02102213163D

 29 28  0     1  0  0  0  0  0999 V2000
   -3.5781   -3.7296    1.2702 H   0  0  0  0  0  0  0  0  0  0  0  0
   -3.5311   -2.7616    0.7732 C   0  0  0  0  0  0  0  0  0  0  0  0
   -4.2371   -2.0766    1.2382 H   0  0  0  0  0  0  0  0  0  0  0  0
   -3.7681   -2.8816   -0.2818 H   0  0  0  0  0  0  0  0  0  0  0  0
   -2.1321   -2.2086    0.9112 C   0  0  0  0  0  0  0  0  0  0  0  0
   -1.2751   -2.8426    1.5112 O   0  0  0  0  0  0  0  0  0  0  0  0
   -1.9041   -1.0186    0.3602 N   0  0  0  0  0  0  0  0  0  0  0  0
   -2.6671   -0.5416   -0.0988 H   0  0  0  0  0  0  0  0  0  0  0  0
   -0.6131   -0.3236    0.3832 C   0  0  1  0  0  0  0  0  0  0  0  0
    0.0142   -0.7800    1.1506 H   0  0  0  0  0  0  0  0  0  0  0  0
    0.0816   -0.5059   -0.9788 C   0  0  0  0  0  0  0  0  0  0  0  0
   -0.6828   -0.5915   -1.7541 H   0  0  0  0  0  0  0  0  0  0  0  0
    0.6882    0.3750   -1.1941 H   0  0  0  0  0  0  0  0  0  0  0  0
    0.9786   -1.7471   -1.0475 C   0  0  0  0  0  0  0  0  0  0  0  0
    0.3540   -2.6345   -1.1451 H   0  0  0  0  0  0  0  0  0  0  0  0
    1.6174   -1.6694   -1.9280 H   0  0  0  0  0  0  0  0  0  0  0  0
    2.0349   -1.9607    0.4079 S   0  0  0  0  0  0  0  0  0  0  0  0
    3.1634   -0.5621    0.1795 C   0  0  0  0  0  0  0  0  0  0  0  0
    2.5982    0.3704    0.1810 H   0  0  0  0  0  0  0  0  0  0  0  0
    3.8870   -0.5446    0.9950 H   0  0  0  0  0  0  0  0  0  0  0  0
    3.6931   -0.6677   -0.7677 H   0  0  0  0  0  0  0  0  0  0  0  0
   -0.8064    1.1568    0.7414 C   0  0  0  0  0  0  0  0  0  0  0  0
   -1.6978    1.8100    0.2029 O   0  0  0  0  0  0  0  0  0  0  0  0
    0.0314    1.6872    1.6415 N   0  0  0  0  0  0  0  0  0  0  0  0
    0.7279    1.0858    2.0517 H   0  0  0  0  0  0  0  0  0  0  0  0
   -0.0137    3.0826    2.0755 C   0  0  0  0  0  0  0  0  0  0  0  0
   -0.9991    3.3070    2.4905 H   0  0  0  0  0  0  0  0  0  0  0  0
    0.7468    3.2694    2.8349 H   0  0  0  0  0  0  0  0  0  0  0  0
    0.1592    3.7397    1.2213 H   0  0  0  0  0  0  0  0  0  0  0  0
  5  6  2  0  0  0  0
  5  7  1  0  0  0  0
  2  3  1  0  0  0  0
  2  4  1  0  0  0  0
  2  5  1  0  0  0  0
  1  2  1  0  0  0  0
 22 23  2  0  0  0  0
 22 24  1  0  0  0  0
 18 19  1  0  0  0  0
 18 20  1  0  0  0  0
 18 21  1  0  0  0  0
 17 18  1  0  0  0  0
 14 15  1  0  0  0  0
 14 16  1  0  0  0  0
 14 17  1  0  0  0  0
 11 12  1  0  0  0  0
 11 13  1  0  0  0  0
 11 14  1  0  0  0  0
  9 10  1  0  0  0  0
  9 11  1  0  0  0  0
  9 22  1  0  0  0  0
  7  8  1  0  0  0  0
  7  9  1  0  0  0  0
 26 27  1  0  0  0  0
 26 28  1  0  0  0  0
 26 29  1  0  0  0  0
 24 25  1  0  0  0  0
 24 26  1  0  0  0  0
M  END
$$$$
default_name
  -OEChem-02102213163D

 29 28  0     1  0  0  0  0  0999 V2000
   -3.5781   -3.7296    1.2702 H   0  0  0  0  0  0  0  0  0  0  0  0
   -3.5311   -2.7616    0.7732 C   0  0  0  0  0  0  0  0  0  0  0  0
   -4.2371   -2.0766    1.2382 H   0  0  0  0  0  0  0  0  0  0  0  0
   -3.7681   -2.8816   -0.2818 H   0  0  0  0  0  0  0  0  0  0  0  0
   -2.1321   -2.2086    0.9112 C   0  0  0  0  0  0  0  0  0  0  0  0
   -1.2751   -2.8426    1.5112 O   0  0  0  0  0  0  0  0  0  0  0  0
   -1.9041   -1.0186    0.3602 N   0  0  0  0  0  0  0  0  0  0  0  0
   -2.6671   -0.5416   -0.0988 H   0  0  0  0  0  0  0  0  0  0  0  0
   -0.6131   -0.3236    0.3832 C   0  0  1  0  0  0  0  0  0  0  0  0
    0.0142   -0.7800    1.1506 H   0  0  0  0  0  0  0  0  0  0  0  0
    0.0816   -0.5059   -0.9788 C   0  0  0  0  0  0  0  0  0  0  0  0
   -0.6828   -0.5915   -1.7541 H   0  0  0  0  0  0  0  0  0  0  0  0
    0.6882    0.3750   -1.1941 H   0  0  0  0  0  0  0  0  0  0  0  0
    0.9786   -1.7471   -1.0475 C   0  0  0  0  0  0  0  0  0  0  0  0
    0.3926   -2.5922   -1.4076 H   0  0  0  0  0  0  0  0  0  0  0  0
    1.7881   -1.5558   -1.7529 H   0  0  0  0  0  0  0  0  0  0  0  0
    1.7059   -2.2062    0.5462 S   0  0  0  0  0  0  0  0  0  0  0  0
    2.8508   -0.8209    0.7746 C   0  0  0  0  0  0  0  0  0  0  0  0
    2.2938    0.1161    0.8005 H   0  0  0  0  0  0  0  0  0  0  0  0
    3.3865   -0.9462    1.7161 H   0  0  0  0  0  0  0  0  0  0  0  0
    3.5684   -0.7977   -0.0460 H   0  0  0  0  0  0  0  0  0  0  0  0
   -0.8064    1.1568    0.7414 C   0  0  0  0  0  0  0  0  0  0  0  0
   -1.6978    1.8100    0.2029 O   0  0  0  0  0  0  0  0  0  0  0  0
    0.0314    1.6872    1.6415 N   0  0  0  0  0  0  0  0  0  0  0  0
    0.7279    1.0858    2.0517 H   0  0  0  0  0  0  0  0  0  0  0  0
   -0.0137    3.0826    2.0755 C   0  0  0  0  0  0  0  0  0  0  0  0
   -0.9991    3.3070    2.4905 H   0  0  0  0  0  0  0  0  0  0  0  0
    0.7468    3.2694    2.8349 H   0  0  0  0  0  0  0  0  0  0  0  0
    0.1592    3.7397    1.2213 H   0  0  0  0  0  0  0  0  0  0  0  0
  5  6  2  0  0  0  0
  5  7  1  0  0  0  0
  2  3  1  0  0  0  0
  2  4  1  0  0  0  0
  2  5  1  0  0  0  0
  1  2  1  0  0  0  0
 22 23  2  0  0  0  0
 22 24  1  0  0  0  0
 18 19  1  0  0  0  0
 18 20  1  0  0  0  0
 18 21  1  0  0  0  0
 17 18  1  0  0  0  0
 14 15  1  0  0  0  0
 14 16  1  0  0  0  0
 14 17  1  0  0  0  0
 11 12  1  0  0  0  0
 11 13  1  0  0  0  0
 11 14  1  0  0  0  0
  9 10  1  0  0  0  0
  9 11  1  0  0  0  0
  9 22  1  0  0  0  0
  7  8  1  0  0  0  0
  7  9  1  0  0  0  0
 26 27  1  0  0  0  0
 26 28  1  0  0  0  0
 26 29  1  0  0  0  0
 24 25  1  0  0  0  0
 24 26  1  0  0  0  0
M  END
$$$$
default_name
  -OEChem-02102213163D

 29 28  0     1  0  0  0  0  0999 V2000
   -3.5781   -3.7296    1.2702 H   0  0  0  0  0  0  0  0  0  0  0  0
   -3.5311   -2.7616    0.7732 C   0  0  0  0  0  0  0  0  0  0  0  0
   -4.2371   -2.0766    1.2382 H   0  0  0  0  0  0  0  0  0  0  0  0
   -3.7681   -2.8816   -0.2818 H   0  0  0  0  0  0  0  0  0  0  0  0
   -2.1321   -2.2086    0.9112 C   0  0  0  0  0  0  0  0  0  0  0  0
   -1.2751   -2.8426    1.5112 O   0  0  0  0  0  0  0  0  0  0  0  0
   -1.9041   -1.0186    0.3602 N   0  0  0  0  0  0  0  0  0  0  0  0
   -2.6671   -0.5416   -0.0988 H   0  0  0  0  0  0  0  0  0  0  0  0
   -0.6131   -0.3236    0.3832 C   0  0  1  0  0  0  0  0  0  0  0  0
    0.0142   -0.7800    1.1506 H   0  0  0  0  0  0  0  0  0  0  0  0
    0.0816   -0.5059   -0.9788 C   0  0  0  0  0  0  0  0  0  0  0  0
   -0.6828   -0.5915   -1.7541 H   0  0  0  0  0  0  0  0  0  0  0  0
    0.6882    0.3750   -1.1941 H   0  0  0  0  0  0  0  0  0  0  0  0
    0.9786   -1.7471   -1.0475 C   0  0  0  0  0  0  0  0  0  0  0  0
    0.4854   -2.5119   -1.6466 H   0  0  0  0  0  0  0  0  0  0  0  0
    1.9175   -1.4745   -1.5308 H   0  0  0  0  0  0  0  0  0  0  0  0
    1.3563   -2.4603    0.5737 S   0  0  0  0  0  0  0  0  0  0  0  0
    2.4212   -1.1574    1.2448 C   0  0  0  0  0  0  0  0  0  0  0  0
    1.8669   -0.2199    1.2965 H   0  0  0  0  0  0  0  0  0  0  0  0
    2.7472   -1.4375    2.2468 H   0  0  0  0  0  0  0  0  0  0  0  0
    3.2953   -1.0311    0.6054 H   0  0  0  0  0  0  0  0  0  0  0  0
   -0.8064    1.1568    0.7414 C   0  0  0  0  0  0  0  0  0  0  0  0
   -1.6978    1.8100    0.2029 O   0  0  0  0  0  0  0  0  0  0  0  0
    0.0314    1.6872    1.6415 N   0  0  0  0  0  0  0  0  0  0  0  0
    0.7279    1.0858    2.0517 H   0  0  0  0  0  0  0  0  0  0  0  0
   -0.0137    3.0826    2.0755 C   0  0  0  0  0  0  0  0  0  0  0  0
   -0.9991    3.3070    2.4905 H   0  0  0  0  0  0  0  0  0  0  0  0
    0.7468    3.2694    2.8349 H   0  0  0  0  0  0  0  0  0  0  0  0
    0.1592    3.7397    1.2213 H   0  0  0  0  0  0  0  0  0  0  0  0
  5  6  2  0  0  0  0
  5  7  1  0  0  0  0
  2  3  1  0  0  0  0
  2  4  1  0  0  0  0
  2  5  1  0  0  0  0
  1  2  1  0  0  0  0
 22 23  2  0  0  0  0
 22 24  1  0  0  0  0
 18 19  1  0  0  0  0
 18 20  1  0  0  0  0
 18 21  1  0  0  0  0
 17 18  1  0  0  0  0
 14 15  1  0  0  0  0
 14 16  1  0  0  0  0
 14 17  1  0  0  0  0
 11 12  1  0  0  0  0
 11 13  1  0  0  0  0
 11 14  1  0  0  0  0
  9 10  1  0  0  0  0
  9 11  1  0  0  0  0
  9 22  1  0  0  0  0
  7  8  1  0  0  0  0
  7  9  1  0  0  0  0
 26 27  1  0  0  0  0
 26 28  1  0  0  0  0
 26 29  1  0  0  0  0
 24 25  1  0  0  0  0
 24 26  1  0  0  0  0
M  END
$$$$
default_name
  -OEChem-02102213163D

 29 28  0     1  0  0  0  0  0999 V2000
   -3.5781   -3.7296    1.2702 H   0  0  0  0  0  0  0  0  0  0  0  0
   -3.5311   -2.7616    0.7732 C   0  0  0  0  0  0  0  0  0  0  0  0
   -4.2371   -2.0766    1.2382 H   0  0  0  0  0  0  0  0  0  0  0  0
   -3.7681   -2.8816   -0.2818 H   0  0  0  0  0  0  0  0  0  0  0  0
   -2.1321   -2.2086    0.9112 C   0  0  0  0  0  0  0  0  0  0  0  0
   -1.2751   -2.8426    1.5112 O   0  0  0  0  0  0  0  0  0  0  0  0
   -1.9041   -1.0186    0.3602 N   0  0  0  0  0  0  0  0  0  0  0  0
   -2.6671   -0.5416   -0.0988 H   0  0  0  0  0  0  0  0  0  0  0  0
   -0.6131   -0.3236    0.3832 C   0  0  1  0  0  0  0  0  0  0  0  0
    0.0142   -0.7800    1.1506 H   0  0  0  0  0  0  0  0  0  0  0  0
    0.0816   -0.5059   -0.9788 C   0  0  0  0  0  0  0  0  0  0  0  0
   -0.6828   -0.5915   -1.7541 H   0  0  0  0  0  0  0  0  0  0  0  0
    0.6882    0.3750   -1.1941 H   0  0  0  0  0  0  0  0  0  0  0  0
    0.9786   -1.7471   -1.0475 C   0  0  0  0  0  0  0  0  0  0  0  0
    0.6260   -2.3992   -1.8460 H   0  0  0  0  0  0  0  0  0  0  0  0
    1.9969   -1.4311   -1.2768 H   0  0  0  0  0  0  0  0  0  0  0  0
    1.0099   -2.7060    0.4885 S   0  0  0  0  0  0  0  0  0  0  0  0
    1.9038   -1.5487    1.5579 C   0  0  0  0  0  0  0  0  0  0  0  0
    1.3467   -0.6145    1.6354 H   0  0  0  0  0  0  0  0  0  0  0  0
    2.0129   -1.9850    2.5511 H   0  0  0  0  0  0  0  0  0  0  0  0
    2.8923   -1.3520    1.1419 H   0  0  0  0  0  0  0  0  0  0  0  0
   -0.8064    1.1568    0.7414 C   0  0  0  0  0  0  0  0  0  0  0  0
   -1.6978    1.8100    0.2029 O   0  0  0  0  0  0  0  0  0  0  0  0
    0.0314    1.6872    1.6415 N   0  0  0  0  0  0  0  0  0  0  0  0
    0.7279    1.0858    2.0517 H   0  0  0  0  0  0  0  0  0  0  0  0
   -0.0137    3.0826    2.0755 C   0  0  0  0  0  0  0  0  0  0  0  0
   -0.9991    3.3070    2.4905 H   0  0  0  0  0  0  0  0  0  0  0  0
    0.7468    3.2694    2.8349 H   0  0  0  0  0  0  0  0  0  0  0  0
    0.1592    3.7397    1.2213 H   0  0  0  0  0  0  0  0  0  0  0  0
  5  6  2  0  0  0  0
  5  7  1  0  0  0  0
  2  3  1  0  0  0  0
  2  4  1  0  0  0  0
  2  5  1  0  0  0  0
  1  2  1  0  0  0  0
 22 23  2  0  0  0  0
 22 24  1  0  0  0  0
 18 19  1  0  0  0  0
 18 20  1  0  0  0  0
 18 21  1  0  0  0  0
 17 18  1  0  0  0  0
 14 15  1  0  0  0  0
 14 16  1  0  0  0  0
 14 17  1  0  0  0  0
 11 12  1  0  0  0  0
 11 13  1  0  0  0  0
 11 14  1  0  0  0  0
  9 10  1  0  0  0  0
  9 11  1  0  0  0  0
  9 22  1  0  0  0  0
  7  8  1  0  0  0  0
  7  9  1  0  0  0  0
 26 27  1  0  0  0  0
 26 28  1  0  0  0  0
 26 29  1  0  0  0  0
 24 25  1  0  0  0  0
 24 26  1  0  0  0  0
M  END
$$$$
default_name
  -OEChem-02102213163D

 29 28  0     1  0  0  0  0  0999 V2000
   -3.5781   -3.7296    1.2702 H   0  0  0  0  0  0  0  0  0  0  0  0
   -3.5311   -2.7616    0.7732 C   0  0  0  0  0  0  0  0  0  0  0  0
   -4.2371   -2.0766    1.2382 H   0  0  0  0  0  0  0  0  0  0  0  0
   -3.7681   -2.8816   -0.2818 H   0  0  0  0  0  0  0  0  0  0  0  0
   -2.1321   -2.2086    0.9112 C   0  0  0  0  0  0  0  0  0  0  0  0
   -1.2751   -2.8426    1.5112 O   0  0  0  0  0  0  0  0  0  0  0  0
   -1.9041   -1.0186    0.3602 N   0  0  0  0  0  0  0  0  0  0  0  0
   -2.6671   -0.5416   -0.0988 H   0  0  0  0  0  0  0  0  0  0  0  0
   -0.6131   -0.3236    0.3832 C   0  0  1  0  0  0  0  0  0  0  0  0
    0.0142   -0.7800    1.1506 H   0  0  0  0  0  0  0  0  0  0  0  0
    0.0816   -0.5059   -0.9788 C   0  0  0  0  0  0  0  0  0  0  0  0
   -0.6828   -0.5915   -1.7541 H   0  0  0  0  0  0  0  0  0  0  0  0
    0.6882    0.3750   -1.1941 H   0  0  0  0  0  0  0  0  0  0  0  0
    0.9786   -1.7471   -1.0475 C   0  0  0  0  0  0  0  0  0  0  0  0
    0.8049   -2.2619   -1.9920 H   0  0  0  0  0  0  0  0  0  0  0  0
    2.0210   -1.4286   -1.0083 H   0  0  0  0  0  0  0  0  0  0  0  0
    0.6903   -2.9263    0.2964 S   0  0  0  0  0  0  0  0  0  0  0  0
    1.3338   -1.9680    1.6926 C   0  0  0  0  0  0  0  0  0  0  0  0
    0.7687   -1.0410    1.7939 H   0  0  0  0  0  0  0  0  0  0  0  0
    1.2335   -2.5515    2.6082 H   0  0  0  0  0  0  0  0  0  0  0  0
    2.3868   -1.7386    1.5271 H   0  0  0  0  0  0  0  0  0  0  0  0
   -0.8064    1.1568    0.7414 C   0  0  0  0  0  0  0  0  0  0  0  0
   -1.6978    1.8100    0.2029 O   0  0  0  0  0  0  0  0  0  0  0  0
    0.0314    1.6872    1.6415 N   0  0  0  0  0  0  0  0  0  0  0  0
    0.7279    1.0858    2.0517 H   0  0  0  0  0  0  0  0  0  0  0  0
   -0.0137    3.0826    2.0755 C   0  0  0  0  0  0  0  0  0  0  0  0
   -0.9991    3.3070    2.4905 H   0  0  0  0  0  0  0  0  0  0  0  0
    0.7468    3.2694    2.8349 H   0  0  0  0  0  0  0  0  0  0  0  0
    0.1592    3.7397    1.2213 H   0  0  0  0  0  0  0  0  0  0  0  0
  5  6  2  0  0  0  0
  5  7  1  0  0  0  0
  2  3  1  0  0  0  0
  2  4  1  0  0  0  0
  2  5  1  0  0  0  0
  1  2  1  0  0  0  0
 22 23  2  0  0  0  0
 22 24  1  0  0  0  0
 18 19  1  0  0  0  0
 18 20  1  0  0  0  0
 18 21  1  0  0  0  0
 17 18  1  0  0  0  0
 14 15  1  0  0  0  0
 14 16  1  0  0  0  0
 14 17  1  0  0  0  0
 11 12  1  0  0  0  0
 11 13  1  0  0  0  0
 11 14  1  0  0  0  0
  9 10  1  0  0  0  0
  9 11  1  0  0  0  0
  9 22  1  0  0  0  0
  7  8  1  0  0  0  0
  7  9  1  0  0  0  0
 26 27  1  0  0  0  0
 26 28  1  0  0  0  0
 26 29  1  0  0  0  0
 24 25  1  0  0  0  0
 24 26  1  0  0  0  0
M  END
$$$$
default_name
  -OEChem-02102213163D

 29 28  0     1  0  0  0  0  0999 V2000
   -3.5781   -3.7296    1.2702 H   0  0  0  0  0  0  0  0  0  0  0  0
   -3.5311   -2.7616    0.7732 C   0  0  0  0  0  0  0  0  0  0  0  0
   -4.2371   -2.0766    1.2382 H   0  0  0  0  0  0  0  0  0  0  0  0
   -3.7681   -2.8816   -0.2818 H   0  0  0  0  0  0  0  0  0  0  0  0
   -2.1321   -2.2086    0.9112 C   0  0  0  0  0  0  0  0  0  0  0  0
   -1.2751   -2.8426    1.5112 O   0  0  0  0  0  0  0  0  0  0  0  0
   -1.9041   -1.0186    0.3602 N   0  0  0  0  0  0  0  0  0  0  0  0
   -2.6671   -0.5416   -0.0988 H   0  0  0  0  0  0  0  0  0  0  0  0
   -0.6131   -0.3236    0.3832 C   0  0  1  0  0  0  0  0  0  0  0  0
    0.0142   -0.7800    1.1506 H   0  0  0  0  0  0  0  0  0  0  0  0
    0.0816   -0.5059   -0.9788 C   0  0  0  0  0  0  0  0  0  0  0  0
   -0.6828   -0.5915   -1.7541 H   0  0  0  0  0  0  0  0  0  0  0  0
    0.6882    0.3750   -1.1941 H   0  0  0  0  0  0  0  0  0  0  0  0
    0.9786   -1.7471   -1.0475 C   0  0  0  0  0  0  0  0  0  0  0  0
    1.0099   -2.1091   -2.0747 H   0  0  0  0  0  0  0  0  0  0  0  0
    1.9879   -1.4672   -0.7435 H   0  0  0  0  0  0  0  0  0  0  0  0
    0.4193   -3.1063    0.0105 S   0  0  0  0  0  0  0  0  0  0  0  0
    0.7502   -2.3869    1.6398 C   0  0  0  0  0  0  0  0  0  0  0  0
    0.1722   -1.4703    1.7613 H   0  0  0  0  0  0  0  0  0  0  0  0
    0.4620   -3.0982    2.4143 H   0  0  0  0  0  0  0  0  0  0  0  0
    1.8134   -2.1645    1.7347 H   0  0  0  0  0  0  0  0  0  0  0  0
   -0.8064    1.1568    0.7414 C   0  0  0  0  0  0  0  0  0  0  0  0
   -1.6978    1.8100    0.2029 O   0  0  0  0  0  0  0  0  0  0  0  0
    0.0314    1.6872    1.6415 N   0  0  0  0  0  0  0  0  0  0  0  0
    0.7279    1.0858    2.0517 H   0  0  0  0  0  0  0  0  0  0  0  0
   -0.0137    3.0826    2.0755 C   0  0  0  0  0  0  0  0  0  0  0  0
   -0.9991    3.3070    2.4905 H   0  0  0  0  0  0  0  0  0  0  0  0
    0.7468    3.2694    2.8349 H   0  0  0  0  0  0  0  0  0  0  0  0
    0.1592    3.7397    1.2213 H   0  0  0  0  0  0  0  0  0  0  0  0
  5  6  2  0  0  0  0
  5  7  1  0  0  0  0
  2  3  1  0  0  0  0
  2  4  1  0  0  0  0
  2  5  1  0  0  0  0
  1  2  1  0  0  0  0
 22 23  2  0  0  0  0
 22 24  1  0  0  0  0
 18 19  1  0  0  0  0
 18 20  1  0  0  0  0
 18 21  1  0  0  0  0
 17 18  1  0  0  0  0
 14 15  1  0  0  0  0
 14 16  1  0  0  0  0
 14 17  1  0  0  0  0
 11 12  1  0  0  0  0
 11 13  1  0  0  0  0
 11 14  1  0  0  0  0
  9 10  1  0  0  0  0
  9 11  1  0  0  0  0
  9 22  1  0  0  0  0
  7  8  1  0  0  0  0
  7  9  1  0  0  0  0
 26 27  1  0  0  0  0
 26 28  1  0  0  0  0
 26 29  1  0  0  0  0
 24 25  1  0  0  0  0
 24 26  1  0  0  0  0
M  END
$$$$
default_name
  -OEChem-02102213163D

 29 28  0     1  0  0  0  0  0999 V2000
   -3.5781   -3.7296    1.2702 H   0  0  0  0  0  0  0  0  0  0  0  0
   -3.5311   -2.7616    0.7732 C   0  0  0  0  0  0  0  0  0  0  0  0
   -4.2371   -2.0766    1.2382 H   0  0  0  0  0  0  0  0  0  0  0  0
   -3.7681   -2.8816   -0.2818 H   0  0  0  0  0  0  0  0  0  0  0  0
   -2.1321   -2.2086    0.9112 C   0  0  0  0  0  0  0  0  0  0  0  0
   -1.2751   -2.8426    1.5112 O   0  0  0  0  0  0  0  0  0  0  0  0
   -1.9041   -1.0186    0.3602 N   0  0  0  0  0  0  0  0  0  0  0  0
   -2.6671   -0.5416   -0.0988 H   0  0  0  0  0  0  0  0  0  0  0  0
   -0.6131   -0.3236    0.3832 C   0  0  1  0  0  0  0  0  0  0  0  0
    0.0142   -0.7800    1.1506 H   0  0  0  0  0  0  0  0  0  0  0  0
    0.0816   -0.5059   -0.9788 C   0  0  0  0  0  0  0  0  0  0  0  0
   -0.6828   -0.5915   -1.7541 H   0  0  0  0  0  0  0  0  0  0  0  0
    0.6882    0.3750   -1.1941 H   0  0  0  0  0  0  0  0  0  0  0  0
    0.9786   -1.7471   -1.0475 C   0  0  0  0  0  0  0  0  0  0  0  0
    1.2270   -1.9515   -2.0885 H   0  0  0  0  0  0  0  0  0  0  0  0
    1.9000   -1.5441   -0.5005 H   0  0  0  0  0  0  0  0  0  0  0  0
    0.2154   -3.2338   -0.3497 S   0  0  0  0  0  0  0  0  0  0  0  0
    0.1926   -2.7767    1.4031 C   0  0  0  0  0  0  0  0  0  0  0  0
   -0.4021   -1.8731    1.5397 H   0  0  0  0  0  0  0  0  0  0  0  0
   -0.2488   -3.5880    1.9825 H   0  0  0  0  0  0  0  0  0  0  0  0
    1.2110   -2.6007    1.7505 H   0  0  0  0  0  0  0  0  0  0  0  0
   -0.8064    1.1568    0.7414 C   0  0  0  0  0  0  0  0  0  0  0  0
   -1.6978    1.8100    0.2029 O   0  0  0  0  0  0  0  0  0  0  0  0
    0.0314    1.6872    1.6415 N   0  0  0  0  0  0  0  0  0  0  0  0
    0.7279    1.0858    2.0517 H   0  0  0  0  0  0  0  0  0  0  0  0
   -0.0137    3.0826    2.0755 C   0  0  0  0  0  0  0  0  0  0  0  0
   -0.9991    3.3070    2.4905 H   0  0  0  0  0  0  0  0  0  0  0  0
    0.7468    3.2694    2.8349 H   0  0  0  0  0  0  0  0  0  0  0  0
    0.1592    3.7397    1.2213 H   0  0  0  0  0  0  0  0  0  0  0  0
  5  6  2  0  0  0  0
  5  7  1  0  0  0  0
  2  3  1  0  0  0  0
  2  4  1  0  0  0  0
  2  5  1  0  0  0  0
  1  2  1  0  0  0  0
 22 23  2  0  0  0  0
 22 24  1  0  0  0  0
 18 19  1  0  0  0  0
 18 20  1  0  0  0  0
 18 21  1  0  0  0  0
 17 18  1  0  0  0  0
 14 15  1  0  0  0  0
 14 16  1  0  0  0  0
 14 17  1  0  0  0  0
 11 12  1  0  0  0  0
 11 13  1  0  0  0  0
 11 14  1  0  0  0  0
  9 10  1  0  0  0  0
  9 11  1  0  0  0  0
  9 22  1  0  0  0  0
  7  8  1  0  0  0  0
  7  9  1  0  0  0  0
 26 27  1  0  0  0  0
 26 28  1  0  0  0  0
 26 29  1  0  0  0  0
 24 25  1  0  0  0  0
 24 26  1  0  0  0  0
M  END
$$$$
default_name
  -OEChem-02102213163D

 29 28  0     1  0  0  0  0  0999 V2000
   -3.5781   -3.7296    1.2702 H   0  0  0  0  0  0  0  0  0  0  0  0
   -3.5311   -2.7616    0.7732 C   0  0  0  0  0  0  0  0  0  0  0  0
   -4.2371   -2.0766    1.2382 H   0  0  0  0  0  0  0  0  0  0  0  0
   -3.7681   -2.8816   -0.2818 H   0  0  0  0  0  0  0  0  0  0  0  0
   -2.1321   -2.2086    0.9112 C   0  0  0  0  0  0  0  0  0  0  0  0
   -1.2751   -2.8426    1.5112 O   0  0  0  0  0  0  0  0  0  0  0  0
   -1.9041   -1.0186    0.3602 N   0  0  0  0  0  0  0  0  0  0  0  0
   -2.6671   -0.5416   -0.0988 H   0  0  0  0  0  0  0  0  0  0  0  0
   -0.6131   -0.3236    0.3832 C   0  0  1  0  0  0  0  0  0  0  0  0
    0.0142   -0.7800    1.1506 H   0  0  0  0  0  0  0  0  0  0  0  0
    0.0816   -0.5059   -0.9788 C   0  0  0  0  0  0  0  0  0  0  0  0
   -0.6828   -0.5915   -1.7541 H   0  0  0  0  0  0  0  0  0  0  0  0
    0.6882    0.3750   -1.1941 H   0  0  0  0  0  0  0  0  0  0  0  0
    0.9786   -1.7471   -1.0475 C   0  0  0  0  0  0  0  0  0  0  0  0
    1.4415   -1.7996   -2.0325 H   0  0  0  0  0  0  0  0  0  0  0  0
    1.7633   -1.6542   -0.2958 H   0  0  0  0  0  0  0  0  0  0  0  0
    0.0924   -3.3000   -0.7597 S   0  0  0  0  0  0  0  0  0  0  0  0
   -0.3008   -3.1109    0.9985 C   0  0  0  0  0  0  0  0  0  0  0  0
   -0.9151   -2.2219    1.1444 H   0  0  0  0  0  0  0  0  0  0  0  0
   -0.8506   -3.9875    1.3422 H   0  0  0  0  0  0  0  0  0  0  0  0
    0.6209   -3.0174    1.5736 H   0  0  0  0  0  0  0  0  0  0  0  0
   -0.8064    1.1568    0.7414 C   0  0  0  0  0  0  0  0  0  0  0  0
   -1.6978    1.8100    0.2029 O   0  0  0  0  0  0  0  0  0  0  0  0
    0.0314    1.6872    1.6415 N   0  0  0  0  0  0  0  0  0  0  0  0
    0.7279    1.0858    2.0517 H   0  0  0  0  0  0  0  0  0  0  0  0
   -0.0137    3.0826    2.0755 C   0  0  0  0  0  0  0  0  0  0  0  0
   -0.9991    3.3070    2.4905 H   0  0  0  0  0  0  0  0  0  0  0  0
    0.7468    3.2694    2.8349 H   0  0  0  0  0  0  0  0  0  0  0  0
    0.1592    3.7397    1.2213 H   0  0  0  0  0  0  0  0  0  0  0  0
  5  6  2  0  0  0  0
  5  7  1  0  0  0  0
  2  3  1  0  0  0  0
  2  4  1  0  0  0  0
  2  5  1  0  0  0  0
  1  2  1  0  0  0  0
 22 23  2  0  0  0  0
 22 24  1  0  0  0  0
 18 19  1  0  0  0  0
 18 20  1  0  0  0  0
 18 21  1  0  0  0  0
 17 18  1  0  0  0  0
 14 15  1  0  0  0  0
 14 16  1  0  0  0  0
 14 17  1  0  0  0  0
 11 12  1  0  0  0  0
 11 13  1  0  0  0  0
 11 14  1  0  0  0  0
  9 10  1  0  0  0  0
  9 11  1  0  0  0  0
  9 22  1  0  0  0  0
  7  8  1  0  0  0  0
  7  9  1  0  0  0  0
 26 27  1  0  0  0  0
 26 28  1  0  0  0  0
 26 29  1  0  0  0  0
 24 25  1  0  0  0  0
 24 26  1  0  0  0  0
M  END
$$$$
default_name
  -OEChem-02102213163D

 29 28  0     1  0  0  0  0  0999 V2000
   -3.5781   -3.7296    1.2702 H   0  0  0  0  0  0  0  0  0  0  0  0
   -3.5311   -2.7616    0.7732 C   0  0  0  0  0  0  0  0  0  0  0  0
   -4.2371   -2.0766    1.2382 H   0  0  0  0  0  0  0  0  0  0  0  0
   -3.7681   -2.8816   -0.2818 H   0  0  0  0  0  0  0  0  0  0  0  0
   -2.1321   -2.2086    0.9112 C   0  0  0  0  0  0  0  0  0  0  0  0
   -1.2751   -2.8426    1.5112 O   0  0  0  0  0  0  0  0  0  0  0  0
   -1.9041   -1.0186    0.3602 N   0  0  0  0  0  0  0  0  0  0  0  0
   -2.6671   -0.5416   -0.0988 H   0  0  0  0  0  0  0  0  0  0  0  0
   -0.6131   -0.3236    0.3832 C   0  0  1  0  0  0  0  0  0  0  0  0
    0.0142   -0.7800    1.1506 H   0  0  0  0  0  0  0  0  0  0  0  0
    0.0816   -0.5059   -0.9788 C   0  0  0  0  0  0  0  0  0  0  0  0
   -0.6828   -0.5915   -1.7541 H   0  0  0  0  0  0  0  0  0  0  0  0
    0.6882    0.3750   -1.1941 H   0  0  0  0  0  0  0  0  0  0  0  0
    0.9786   -1.7471   -1.0475 C   0  0  0  0  0  0  0  0  0  0  0  0
    1.6386   -1.6639   -1.9104 H   0  0  0  0  0  0  0  0  0  0  0  0
    1.5871   -1.7900   -0.1435 H   0  0  0  0  0  0  0  0  0  0  0  0
    0.0587   -3.3004   -1.1915 S   0  0  0  0  0  0  0  0  0  0  0  0
   -0.6965   -3.3668    0.4538 C   0  0  0  0  0  0  0  0  0  0  0  0
   -1.3318   -2.4931    0.6022 H   0  0  0  0  0  0  0  0  0  0  0  0
   -1.3024   -4.2695    0.5372 H   0  0  0  0  0  0  0  0  0  0  0  0
    0.0830   -3.3863    1.2158 H   0  0  0  0  0  0  0  0  0  0  0  0
   -0.8064    1.1568    0.7414 C   0  0  0  0  0  0  0  0  0  0  0  0
   -1.6978    1.8100    0.2029 O   0  0  0  0  0  0  0  0  0  0  0  0
    0.0314    1.6872    1.6415 N   0  0  0  0  0  0  0  0  0  0  0  0
    0.7279    1.0858    2.0517 H   0  0  0  0  0  0  0  0  0  0  0  0
   -0.0137    3.0826    2.0755 C   0  0  0  0  0  0  0  0  0  0  0  0
   -0.9991    3.3070    2.4905 H   0  0  0  0  0  0  0  0  0  0  0  0
    0.7468    3.2694    2.8349 H   0  0  0  0  0  0  0  0  0  0  0  0
    0.1592    3.7397    1.2213 H   0  0  0  0  0  0  0  0  0  0  0  0
  5  6  2  0  0  0  0
  5  7  1  0  0  0  0
  2  3  1  0  0  0  0
  2  4  1  0  0  0  0
  2  5  1  0  0  0  0
  1  2  1  0  0  0  0
 22 23  2  0  0  0  0
 22 24  1  0  0  0  0
 18 19  1  0  0  0  0
 18 20  1  0  0  0  0
 18 21  1  0  0  0  0
 17 18  1  0  0  0  0
 14 15  1  0  0  0  0
 14 16  1  0  0  0  0
 14 17  1  0  0  0  0
 11 12  1  0  0  0  0
 11 13  1  0  0  0  0
 11 14  1  0  0  0  0
  9 10  1  0  0  0  0
  9 11  1  0  0  0  0
  9 22  1  0  0  0  0
  7  8  1  0  0  0  0
  7  9  1  0  0  0  0
 26 27  1  0  0  0  0
 26 28  1  0  0  0  0
 26 29  1  0  0  0  0
 24 25  1  0  0  0  0
 24 26  1  0  0  0  0
M  END
$$$$
default_name
  -OEChem-02102213163D

 29 28  0     1  0  0  0  0  0999 V2000
   -3.5781   -3.7296    1.2702 H   0  0  0  0  0  0  0  0  0  0  0  0
   -3.5311   -2.7616    0.7732 C   0  0  0  0  0  0  0  0  0  0  0  0
   -4.2371   -2.0766    1.2382 H   0  0  0  0  0  0  0  0  0  0  0  0
   -3.7681   -2.8816   -0.2818 H   0  0  0  0  0  0  0  0  0  0  0  0
   -2.1321   -2.2086    0.9112 C   0  0  0  0  0  0  0  0  0  0  0  0
   -1.2751   -2.8426    1.5112 O   0  0  0  0  0  0  0  0  0  0  0  0
   -1.9041   -1.0186    0.3602 N   0  0  0  0  0  0  0  0  0  0  0  0
   -2.6671   -0.5416   -0.0988 H   0  0  0  0  0  0  0  0  0  0  0  0
   -0.6131   -0.3236    0.3832 C   0  0  1  0  0  0  0  0  0  0  0  0
    0.0142   -0.7800    1.1506 H   0  0  0  0  0  0  0  0  0  0  0  0
    0.0816   -0.5059   -0.9788 C   0  0  0  0  0  0  0  0  0  0  0  0
   -0.6828   -0.5915   -1.7541 H   0  0  0  0  0  0  0  0  0  0  0  0
    0.6882    0.3750   -1.1941 H   0  0  0  0  0  0  0  0  0  0  0  0
    0.9786   -1.7471   -1.0475 C   0  0  0  0  0  0  0  0  0  0  0  0
    1.8051   -1.5535   -1.7306 H   0  0  0  0  0  0  0  0  0  0  0  0
    1.3834   -1.9422   -0.0538 H   0  0  0  0  0  0  0  0  0  0  0  0
    0.1167   -3.2350   -1.6157 S   0  0  0  0  0  0  0  0  0  0  0  0
   -0.9676   -3.5268   -0.1941 C   0  0  0  0  0  0  0  0  0  0  0  0
   -1.6238   -2.6680   -0.0499 H   0  0  0  0  0  0  0  0  0  0  0  0
   -1.5733   -4.4147   -0.3778 H   0  0  0  0  0  0  0  0  0  0  0  0
   -0.3658   -3.6822    0.7017 H   0  0  0  0  0  0  0  0  0  0  0  0
   -0.8064    1.1568    0.7414 C   0  0  0  0  0  0  0  0  0  0  0  0
   -1.6978    1.8100    0.2029 O   0  0  0  0  0  0  0  0  0  0  0  0
    0.0314    1.6872    1.6415 N   0  0  0  0  0  0  0  0  0  0  0  0
    0.7279    1.0858    2.0517 H   0  0  0  0  0  0  0  0  0  0  0  0
   -0.0137    3.0826    2.0755 C   0  0  0  0  0  0  0  0  0  0  0  0
   -0.9991    3.3070    2.4905 H   0  0  0  0  0  0  0  0  0  0  0  0
    0.7468    3.2694    2.8349 H   0  0  0  0  0  0  0  0  0  0  0  0
    0.1592    3.7397    1.2213 H   0  0  0  0  0  0  0  0  0  0  0  0
  5  6  2  0  0  0  0
  5  7  1  0  0  0  0
  2  3  1  0  0  0  0
  2  4  1  0  0  0  0
  2  5  1  0  0  0  0
  1  2  1  0  0  0  0
 22 23  2  0  0  0  0
 22 24  1  0  0  0  0
 18 19  1  0  0  0  0
 18 20  1  0  0  0  0
 18 21  1  0  0  0  0
 17 18  1  0  0  0  0
 14 15  1  0  0  0  0
 14 16  1  0  0  0  0
 14 17  1  0  0  0  0
 11 12  1  0  0  0  0
 11 13  1  0  0  0  0
 11 14  1  0  0  0  0
  9 10  1  0  0  0  0
  9 11  1  0  0  0  0
  9 22  1  0  0  0  0
  7  8  1  0  0  0  0
  7  9  1  0  0  0  0
 26 27  1  0  0  0  0
 26 28  1  0  0  0  0
 26 29  1  0  0  0  0
 24 25  1  0  0  0  0
 24 26  1  0  0  0  0
M  END
$$$$
default_name
  -OEChem-02102213163D

 29 28  0     1  0  0  0  0  0999 V2000
   -3.5781   -3.7296    1.2702 H   0  0  0  0  0  0  0  0  0  0  0  0
   -3.5311   -2.7616    0.7732 C   0  0  0  0  0  0  0  0  0  0  0  0
   -4.2371   -2.0766    1.2382 H   0  0  0  0  0  0  0  0  0  0  0  0
   -3.7681   -2.8816   -0.2818 H   0  0  0  0  0  0  0  0  0  0  0  0
   -2.1321   -2.2086    0.9112 C   0  0  0  0  0  0  0  0  0  0  0  0
   -1.2751   -2.8426    1.5112 O   0  0  0  0  0  0  0  0  0  0  0  0
   -1.9041   -1.0186    0.3602 N   0  0  0  0  0  0  0  0  0  0  0  0
   -2.6671   -0.5416   -0.0988 H   0  0  0  0  0  0  0  0  0  0  0  0
   -0.6131   -0.3236    0.3832 C   0  0  1  0  0  0  0  0  0  0  0  0
    0.0142   -0.7800    1.1506 H   0  0  0  0  0  0  0  0  0  0  0  0
    0.0816   -0.5059   -0.9788 C   0  0  0  0  0  0  0  0  0  0  0  0
   -0.6828   -0.5915   -1.7541 H   0  0  0  0  0  0  0  0  0  0  0  0
    0.6882    0.3750   -1.1941 H   0  0  0  0  0  0  0  0  0  0  0  0
    0.9786   -1.7471   -1.0475 C   0  0  0  0  0  0  0  0  0  0  0  0
    1.9294   -1.4761   -1.5054 H   0  0  0  0  0  0  0  0  0  0  0  0
    1.1661   -2.1004   -0.0329 H   0  0  0  0  0  0  0  0  0  0  0  0
    0.2624   -3.1083   -2.0035 S   0  0  0  0  0  0  0  0  0  0  0  0
   -1.0955   -3.5801   -0.9010 C   0  0  0  0  0  0  0  0  0  0  0  0
   -1.7713   -2.7349   -0.7675 H   0  0  0  0  0  0  0  0  0  0  0  0
   -1.6449   -4.4132   -1.3403 H   0  0  0  0  0  0  0  0  0  0  0  0
   -0.6950   -3.8849    0.0662 H   0  0  0  0  0  0  0  0  0  0  0  0
   -0.8064    1.1568    0.7414 C   0  0  0  0  0  0  0  0  0  0  0  0
   -1.6978    1.8100    0.2029 O   0  0  0  0  0  0  0  0  0  0  0  0
    0.0314    1.6872    1.6415 N   0  0  0  0  0  0  0  0  0  0  0  0
    0.7279    1.0858    2.0517 H   0  0  0  0  0  0  0  0  0  0  0  0
   -0.0137    3.0826    2.0755 C   0  0  0  0  0  0  0  0  0  0  0  0
   -0.9991    3.3070    2.4905 H   0  0  0  0  0  0  0  0  0  0  0  0
    0.7468    3.2694    2.8349 H   0  0  0  0  0  0  0  0  0  0  0  0
    0.1592    3.7397    1.2213 H   0  0  0  0  0  0  0  0  0  0  0  0
  5  6  2  0  0  0  0
  5  7  1  0  0  0  0
  2  3  1  0  0  0  0
  2  4  1  0  0  0  0
  2  5  1  0  0  0  0
  1  2  1  0  0  0  0
 22 23  2  0  0  0  0
 22 24  1  0  0  0  0
 18 19  1  0  0  0  0
 18 20  1  0  0  0  0
 18 21  1  0  0  0  0
 17 18  1  0  0  0  0
 14 15  1  0  0  0  0
 14 16  1  0  0  0  0
 14 17  1  0  0  0  0
 11 12  1  0  0  0  0
 11 13  1  0  0  0  0
 11 14  1  0  0  0  0
  9 10  1  0  0  0  0
  9 11  1  0  0  0  0
  9 22  1  0  0  0  0
  7  8  1  0  0  0  0
  7  9  1  0  0  0  0
 26 27  1  0  0  0  0
 26 28  1  0  0  0  0
 26 29  1  0  0  0  0
 24 25  1  0  0  0  0
 24 26  1  0  0  0  0
M  END
$$$$
default_name
  -OEChem-02102213163D

 29 28  0     1  0  0  0  0  0999 V2000
   -3.5781   -3.7296    1.2702 H   0  0  0  0  0  0  0  0  0  0  0  0
   -3.5311   -2.7616    0.7732 C   0  0  0  0  0  0  0  0  0  0  0  0
   -4.2371   -2.0766    1.2382 H   0  0  0  0  0  0  0  0  0  0  0  0
   -3.7681   -2.8816   -0.2818 H   0  0  0  0  0  0  0  0  0  0  0  0
   -2.1321   -2.2086    0.9112 C   0  0  0  0  0  0  0  0  0  0  0  0
   -1.2751   -2.8426    1.5112 O   0  0  0  0  0  0  0  0  0  0  0  0
   -1.9041   -1.0186    0.3602 N   0  0  0  0  0  0  0  0  0  0  0  0
   -2.6671   -0.5416   -0.0988 H   0  0  0  0  0  0  0  0  0  0  0  0
   -0.6131   -0.3236    0.3832 C   0  0  1  0  0  0  0  0  0  0  0  0
    0.0142   -0.7800    1.1506 H   0  0  0  0  0  0  0  0  0  0  0  0
    0.0816   -0.5059   -0.9788 C   0  0  0  0  0  0  0  0  0  0  0  0
   -0.6828   -0.5915   -1.7541 H   0  0  0  0  0  0  0  0  0  0  0  0
    0.6882    0.3750   -1.1941 H   0  0  0  0  0  0  0  0  0  0  0  0
    0.9786   -1.7471   -1.0475 C   0  0  0  0  0  0  0  0  0  0  0  0
    2.0033   -1.4369   -1.2500 H   0  0  0  0  0  0  0  0  0  0  0  0
    0.9500   -2.2538   -0.0822 H   0  0  0  0  0  0  0  0  0  0  0  0
    0.4858   -2.9289   -2.3282 S   0  0  0  0  0  0  0  0  0  0  0  0
   -1.0715   -3.5231   -1.6187 C   0  0  0  0  0  0  0  0  0  0  0  0
   -1.7641   -2.6891   -1.5017 H   0  0  0  0  0  0  0  0  0  0  0  0
   -1.5123   -4.2651   -2.2849 H   0  0  0  0  0  0  0  0  0  0  0  0
   -0.8821   -3.9807   -0.6473 H   0  0  0  0  0  0  0  0  0  0  0  0
   -0.8064    1.1568    0.7414 C   0  0  0  0  0  0  0  0  0  0  0  0
   -1.6978    1.8100    0.2029 O   0  0  0  0  0  0  0  0  0  0  0  0
    0.0314    1.6872    1.6415 N   0  0  0  0  0  0  0  0  0  0  0  0
    0.7279    1.0858    2.0517 H   0  0  0  0  0  0  0  0  0  0  0  0
   -0.0137    3.0826    2.0755 C   0  0  0  0  0  0  0  0  0  0  0  0
   -0.9991    3.3070    2.4905 H   0  0  0  0  0  0  0  0  0  0  0  0
    0.7468    3.2694    2.8349 H   0  0  0  0  0  0  0  0  0  0  0  0
    0.1592    3.7397    1.2213 H   0  0  0  0  0  0  0  0  0  0  0  0
  5  6  2  0  0  0  0
  5  7  1  0  0  0  0
  2  3  1  0  0  0  0
  2  4  1  0  0  0  0
  2  5  1  0  0  0  0
  1  2  1  0  0  0  0
 22 23  2  0  0  0  0
 22 24  1  0  0  0  0
 18 19  1  0  0  0  0
 18 20  1  0  0  0  0
 18 21  1  0  0  0  0
 17 18  1  0  0  0  0
 14 15  1  0  0  0  0
 14 16  1  0  0  0  0
 14 17  1  0  0  0  0
 11 12  1  0  0  0  0
 11 13  1  0  0  0  0
 11 14  1  0  0  0  0
  9 10  1  0  0  0  0
  9 11  1  0  0  0  0
  9 22  1  0  0  0  0
  7  8  1  0  0  0  0
  7  9  1  0  0  0  0
 26 27  1  0  0  0  0
 26 28  1  0  0  0  0
 26 29  1  0  0  0  0
 24 25  1  0  0  0  0
 24 26  1  0  0  0  0
M  END
$$$$
default_name
  -OEChem-02102213163D

 29 28  0     1  0  0  0  0  0999 V2000
   -3.5781   -3.7296    1.2702 H   0  0  0  0  0  0  0  0  0  0  0  0
   -3.5311   -2.7616    0.7732 C   0  0  0  0  0  0  0  0  0  0  0  0
   -4.2371   -2.0766    1.2382 H   0  0  0  0  0  0  0  0  0  0  0  0
   -3.7681   -2.8816   -0.2818 H   0  0  0  0  0  0  0  0  0  0  0  0
   -2.1321   -2.2086    0.9112 C   0  0  0  0  0  0  0  0  0  0  0  0
   -1.2751   -2.8426    1.5112 O   0  0  0  0  0  0  0  0  0  0  0  0
   -1.9041   -1.0186    0.3602 N   0  0  0  0  0  0  0  0  0  0  0  0
   -2.6671   -0.5416   -0.0988 H   0  0  0  0  0  0  0  0  0  0  0  0
   -0.6131   -0.3236    0.3832 C   0  0  1  0  0  0  0  0  0  0  0  0
    0.0142   -0.7800    1.1506 H   0  0  0  0  0  0  0  0  0  0  0  0
    0.0816   -0.5059   -0.9788 C   0  0  0  0  0  0  0  0  0  0  0  0
   -0.6828   -0.5915   -1.7541 H   0  0  0  0  0  0  0  0  0  0  0  0
    0.6882    0.3750   -1.1941 H   0  0  0  0  0  0  0  0  0  0  0  0
    0.9786   -1.7471   -1.0475 C   0  0  0  0  0  0  0  0  0  0  0  0
    2.0215   -1.4385   -0.9819 H   0  0  0  0  0  0  0  0  0  0  0  0
    0.7498   -2.3921   -0.1984 H   0  0  0  0  0  0  0  0  0  0  0  0
    0.7718   -2.7090   -2.5679 S   0  0  0  0  0  0  0  0  0  0  0  0
   -0.8972   -3.3596   -2.2982 C   0  0  0  0  0  0  0  0  0  0  0  0
   -1.6028   -2.5338   -2.2024 H   0  0  0  0  0  0  0  0  0  0  0  0
   -1.1846   -3.9806   -3.1471 H   0  0  0  0  0  0  0  0  0  0  0  0
   -0.9145   -3.9630   -1.3902 H   0  0  0  0  0  0  0  0  0  0  0  0
   -0.8064    1.1568    0.7414 C   0  0  0  0  0  0  0  0  0  0  0  0
   -1.6978    1.8100    0.2029 O   0  0  0  0  0  0  0  0  0  0  0  0
    0.0314    1.6872    1.6415 N   0  0  0  0  0  0  0  0  0  0  0  0
    0.7279    1.0858    2.0517 H   0  0  0  0  0  0  0  0  0  0  0  0
   -0.0137    3.0826    2.0755 C   0  0  0  0  0  0  0  0  0  0  0  0
   -0.9991    3.3070    2.4905 H   0  0  0  0  0  0  0  0  0  0  0  0
    0.7468    3.2694    2.8349 H   0  0  0  0  0  0  0  0  0  0  0  0
    0.1592    3.7397    1.2213 H   0  0  0  0  0  0  0  0  0  0  0  0
  5  6  2  0  0  0  0
  5  7  1  0  0  0  0
  2  3  1  0  0  0  0
  2  4  1  0  0  0  0
  2  5  1  0  0  0  0
  1  2  1  0  0  0  0
 22 23  2  0  0  0  0
 22 24  1  0  0  0  0
 18 19  1  0  0  0  0
 18 20  1  0  0  0  0
 18 21  1  0  0  0  0
 17 18  1  0  0  0  0
 14 15  1  0  0  0  0
 14 16  1  0  0  0  0
 14 17  1  0  0  0  0
 11 12  1  0  0  0  0
 11 13  1  0  0  0  0
 11 14  1  0  0  0  0
  9 10  1  0  0  0  0
  9 11  1  0  0  0  0
  9 22  1  0  0  0  0
  7  8  1  0  0  0  0
  7  9  1  0  0  0  0
 26 27  1  0  0  0  0
 26 28  1  0  0  0  0
 26 29  1  0  0  0  0
 24 25  1  0  0  0  0
 24 26  1  0  0  0  0
M  END
$$$$
default_name
  -OEChem-02102213163D

 29 28  0     1  0  0  0  0  0999 V2000
   -3.5781   -3.7296    1.2702 H   0  0  0  0  0  0  0  0  0  0  0  0
   -3.5311   -2.7616    0.7732 C   0  0  0  0  0  0  0  0  0  0  0  0
   -4.2371   -2.0766    1.2382 H   0  0  0  0  0  0  0  0  0  0  0  0
   -3.7681   -2.8816   -0.2818 H   0  0  0  0  0  0  0  0  0  0  0  0
   -2.1321   -2.2086    0.9112 C   0  0  0  0  0  0  0  0  0  0  0  0
   -1.2751   -2.8426    1.5112 O   0  0  0  0  0  0  0  0  0  0  0  0
   -1.9041   -1.0186    0.3602 N   0  0  0  0  0  0  0  0  0  0  0  0
   -2.6671   -0.5416   -0.0988 H   0  0  0  0  0  0  0  0  0  0  0  0
   -0.6131   -0.3236    0.3832 C   0  0  1  0  0  0  0  0  0  0  0  0
    0.0142   -0.7800    1.1506 H   0  0  0  0  0  0  0  0  0  0  0  0
    0.0816   -0.5059   -0.9788 C   0  0  0  0  0  0  0  0  0  0  0  0
   -0.6828   -0.5915   -1.7541 H   0  0  0  0  0  0  0  0  0  0  0  0
    0.6882    0.3750   -1.1941 H   0  0  0  0  0  0  0  0  0  0  0  0
    0.9786   -1.7471   -1.0475 C   0  0  0  0  0  0  0  0  0  0  0  0
    1.9829   -1.4809   -0.7194 H   0  0  0  0  0  0  0  0  0  0  0  0
    0.5791   -2.5057   -0.3735 H   0  0  0  0  0  0  0  0  0  0  0  0
    1.1008   -2.4636   -2.7063 S   0  0  0  0  0  0  0  0  0  0  0  0
   -0.5846   -3.1008   -2.8933 C   0  0  0  0  0  0  0  0  0  0  0  0
   -1.2983   -2.2795   -2.8219 H   0  0  0  0  0  0  0  0  0  0  0  0
   -0.6841   -3.5790   -3.8681 H   0  0  0  0  0  0  0  0  0  0  0  0
   -0.7899   -3.8330   -2.1119 H   0  0  0  0  0  0  0  0  0  0  0  0
   -0.8064    1.1568    0.7414 C   0  0  0  0  0  0  0  0  0  0  0  0
   -1.6978    1.8100    0.2029 O   0  0  0  0  0  0  0  0  0  0  0  0
    0.0314    1.6872    1.6415 N   0  0  0  0  0  0  0  0  0  0  0  0
    0.7279    1.0858    2.0517 H   0  0  0  0  0  0  0  0  0  0  0  0
   -0.0137    3.0826    2.0755 C   0  0  0  0  0  0  0  0  0  0  0  0
   -0.9991    3.3070    2.4905 H   0  0  0  0  0  0  0  0  0  0  0  0
    0.7468    3.2694    2.8349 H   0  0  0  0  0  0  0  0  0  0  0  0
    0.1592    3.7397    1.2213 H   0  0  0  0  0  0  0  0  0  0  0  0
  5  6  2  0  0  0  0
  5  7  1  0  0  0  0
  2  3  1  0  0  0  0
  2  4  1  0  0  0  0
  2  5  1  0  0  0  0
  1  2  1  0  0  0  0
 22 23  2  0  0  0  0
 22 24  1  0  0  0  0
 18 19  1  0  0  0  0
 18 20  1  0  0  0  0
 18 21  1  0  0  0  0
 17 18  1  0  0  0  0
 14 15  1  0  0  0  0
 14 16  1  0  0  0  0
 14 17  1  0  0  0  0
 11 12  1  0  0  0  0
 11 13  1  0  0  0  0
 11 14  1  0  0  0  0
  9 10  1  0  0  0  0
  9 11  1  0  0  0  0
  9 22  1  0  0  0  0
  7  8  1  0  0  0  0
  7  9  1  0  0  0  0
 26 27  1  0  0  0  0
 26 28  1  0  0  0  0
 26 29  1  0  0  0  0
 24 25  1  0  0  0  0
 24 26  1  0  0  0  0
M  END
$$$$
default_name
  -OEChem-02102213163D

 29 28  0     1  0  0  0  0  0999 V2000
   -3.5781   -3.7296    1.2702 H   0  0  0  0  0  0  0  0  0  0  0  0
   -3.5311   -2.7616    0.7732 C   0  0  0  0  0  0  0  0  0  0  0  0
   -4.2371   -2.0766    1.2382 H   0  0  0  0  0  0  0  0  0  0  0  0
   -3.7681   -2.8816   -0.2818 H   0  0  0  0  0  0  0  0  0  0  0  0
   -2.1321   -2.2086    0.9112 C   0  0  0  0  0  0  0  0  0  0  0  0
   -1.2751   -2.8426    1.5112 O   0  0  0  0  0  0  0  0  0  0  0  0
   -1.9041   -1.0186    0.3602 N   0  0  0  0  0  0  0  0  0  0  0  0
   -2.6671   -0.5416   -0.0988 H   0  0  0  0  0  0  0  0  0  0  0  0
   -0.6131   -0.3236    0.3832 C   0  0  1  0  0  0  0  0  0  0  0  0
    0.0142   -0.7800    1.1506 H   0  0  0  0  0  0  0  0  0  0  0  0
    0.0816   -0.5059   -0.9788 C   0  0  0  0  0  0  0  0  0  0  0  0
   -0.6828   -0.5915   -1.7541 H   0  0  0  0  0  0  0  0  0  0  0  0
    0.6882    0.3750   -1.1941 H   0  0  0  0  0  0  0  0  0  0  0  0
    0.9786   -1.7471   -1.0475 C   0  0  0  0  0  0  0  0  0  0  0  0
    1.8902   -1.5612   -0.4804 H   0  0  0  0  0  0  0  0  0  0  0  0
    0.4497   -2.5870   -0.5956 H   0  0  0  0  0  0  0  0  0  0  0  0
    1.4504   -2.2094   -2.7337 S   0  0  0  0  0  0  0  0  0  0  0  0
   -0.1550   -2.7643   -3.3634 C   0  0  0  0  0  0  0  0  0  0  0  0
   -0.8714   -1.9435   -3.3179 H   0  0  0  0  0  0  0  0  0  0  0  0
   -0.0449   -3.0877   -4.3988 H   0  0  0  0  0  0  0  0  0  0  0  0
   -0.5167   -3.5996   -2.7632 H   0  0  0  0  0  0  0  0  0  0  0  0
   -0.8064    1.1568    0.7414 C   0  0  0  0  0  0  0  0  0  0  0  0
   -1.6978    1.8100    0.2029 O   0  0  0  0  0  0  0  0  0  0  0  0
    0.0314    1.6872    1.6415 N   0  0  0  0  0  0  0  0  0  0  0  0
    0.7279    1.0858    2.0517 H   0  0  0  0  0  0  0  0  0  0  0  0
   -0.0137    3.0826    2.0755 C   0  0  0  0  0  0  0  0  0  0  0  0
   -0.9991    3.3070    2.4905 H   0  0  0  0  0  0  0  0  0  0  0  0
    0.7468    3.2694    2.8349 H   0  0  0  0  0  0  0  0  0  0  0  0
    0.1592    3.7397    1.2213 H   0  0  0  0  0  0  0  0  0  0  0  0
  5  6  2  0  0  0  0
  5  7  1  0  0  0  0
  2  3  1  0  0  0  0
  2  4  1  0  0  0  0
  2  5  1  0  0  0  0
  1  2  1  0  0  0  0
 22 23  2  0  0  0  0
 22 24  1  0  0  0  0
 18 19  1  0  0  0  0
 18 20  1  0  0  0  0
 18 21  1  0  0  0  0
 17 18  1  0  0  0  0
 14 15  1  0  0  0  0
 14 16  1  0  0  0  0
 14 17  1  0  0  0  0
 11 12  1  0  0  0  0
 11 13  1  0  0  0  0
 11 14  1  0  0  0  0
  9 10  1  0  0  0  0
  9 11  1  0  0  0  0
  9 22  1  0  0  0  0
  7  8  1  0  0  0  0
  7  9  1  0  0  0  0
 26 27  1  0  0  0  0
 26 28  1  0  0  0  0
 26 29  1  0  0  0  0
 24 25  1  0  0  0  0
 24 26  1  0  0  0  0
M  END
$$$$
default_name
  -OEChem-02102213163D

 29 28  0     1  0  0  0  0  0999 V2000
   -3.5781   -3.7296    1.2702 H   0  0  0  0  0  0  0  0  0  0  0  0
   -3.5311   -2.7616    0.7732 C   0  0  0  0  0  0  0  0  0  0  0  0
   -4.2371   -2.0766    1.2382 H   0  0  0  0  0  0  0  0  0  0  0  0
   -3.7681   -2.8816   -0.2818 H   0  0  0  0  0  0  0  0  0  0  0  0
   -2.1321   -2.2086    0.9112 C   0  0  0  0  0  0  0  0  0  0  0  0
   -1.2751   -2.8426    1.5112 O   0  0  0  0  0  0  0  0  0  0  0  0
   -1.9041   -1.0186    0.3602 N   0  0  0  0  0  0  0  0  0  0  0  0
   -2.6671   -0.5416   -0.0988 H   0  0  0  0  0  0  0  0  0  0  0  0
   -0.6131   -0.3236    0.3832 C   0  0  1  0  0  0  0  0  0  0  0  0
    0.0142   -0.7800    1.1506 H   0  0  0  0  0  0  0  0  0  0  0  0
    0.0816   -0.5059   -0.9788 C   0  0  0  0  0  0  0  0  0  0  0  0
   -0.6472   -0.3245   -1.7717 H   0  0  0  0  0  0  0  0  0  0  0  0
    0.8813    0.2298   -1.0762 H   0  0  0  0  0  0  0  0  0  0  0  0
    0.6754   -1.9047   -1.1811 C   0  0  0  0  0  0  0  0  0  0  0  0
    1.4082   -2.0985   -0.3983 H   0  0  0  0  0  0  0  0  0  0  0  0
   -0.1258   -2.6402   -1.1012 H   0  0  0  0  0  0  0  0  0  0  0  0
    1.4930   -2.1216   -2.7824 S   0  0  0  0  0  0  0  0  0  0  0  0
    0.0501   -2.0698   -3.8764 C   0  0  0  0  0  0  0  0  0  0  0  0
   -0.4579   -1.1108   -3.7698 H   0  0  0  0  0  0  0  0  0  0  0  0
    0.3756   -2.1906   -4.9100 H   0  0  0  0  0  0  0  0  0  0  0  0
   -0.6355   -2.8778   -3.6196 H   0  0  0  0  0  0  0  0  0  0  0  0
   -0.8064    1.1568    0.7414 C   0  0  0  0  0  0  0  0  0  0  0  0
   -1.6978    1.8100    0.2029 O   0  0  0  0  0  0  0  0  0  0  0  0
    0.0314    1.6872    1.6415 N   0  0  0  0  0  0  0  0  0  0  0  0
    0.7279    1.0858    2.0517 H   0  0  0  0  0  0  0  0  0  0  0  0
   -0.0137    3.0826    2.0755 C   0  0  0  0  0  0  0  0  0  0  0  0
   -0.9991    3.3070    2.4905 H   0  0  0  0  0  0  0  0  0  0  0  0
    0.7468    3.2694    2.8349 H   0  0  0  0  0  0  0  0  0  0  0  0
    0.1592    3.7397    1.2213 H   0  0  0  0  0  0  0  0  0  0  0  0
  5  6  2  0  0  0  0
  5  7  1  0  0  0  0
  2  3  1  0  0  0  0
  2  4  1  0  0  0  0
  2  5  1  0  0  0  0
  1  2  1  0  0  0  0
 22 23  2  0  0  0  0
 22 24  1  0  0  0  0
 18 19  1  0  0  0  0
 18 20  1  0  0  0  0
 18 21  1  0  0  0  0
 17 18  1  0  0  0  0
 14 15  1  0  0  0  0
 14 16  1  0  0  0  0
 14 17  1  0  0  0  0
 11 12  1  0  0  0  0
 11 13  1  0  0  0  0
 11 14  1  0  0  0  0
  9 10  1  0  0  0  0
  9 11  1  0  0  0  0
  9 22  1  0  0  0  0
  7  8  1  0  0  0  0
  7  9  1  0  0  0  0
 26 27  1  0  0  0  0
 26 28  1  0  0  0  0
 26 29  1  0  0  0  0
 24 25  1  0  0  0  0
 24 26  1  0  0  0  0
M  END
$$$$
default_name
  -OEChem-02102213163D

 29 28  0     1  0  0  0  0  0999 V2000
   -3.5781   -3.7296    1.2702 H   0  0  0  0  0  0  0  0  0  0  0  0
   -3.5311   -2.7616    0.7732 C   0  0  0  0  0  0  0  0  0  0  0  0
   -4.2371   -2.0766    1.2382 H   0  0  0  0  0  0  0  0  0  0  0  0
   -3.7681   -2.8816   -0.2818 H   0  0  0  0  0  0  0  0  0  0  0  0
   -2.1321   -2.2086    0.9112 C   0  0  0  0  0  0  0  0  0  0  0  0
   -1.2751   -2.8426    1.5112 O   0  0  0  0  0  0  0  0  0  0  0  0
   -1.9041   -1.0186    0.3602 N   0  0  0  0  0  0  0  0  0  0  0  0
   -2.6671   -0.5416   -0.0988 H   0  0  0  0  0  0  0  0  0  0  0  0
   -0.6131   -0.3236    0.3832 C   0  0  1  0  0  0  0  0  0  0  0  0
    0.0142   -0.7800    1.1506 H   0  0  0  0  0  0  0  0  0  0  0  0
    0.0816   -0.5059   -0.9788 C   0  0  0  0  0  0  0  0  0  0  0  0
   -0.6472   -0.3245   -1.7717 H   0  0  0  0  0  0  0  0  0  0  0  0
    0.8813    0.2298   -1.0762 H   0  0  0  0  0  0  0  0  0  0  0  0
    0.6754   -1.9047   -1.1811 C   0  0  0  0  0  0  0  0  0  0  0  0
    1.1964   -2.2065   -0.2730 H   0  0  0  0  0  0  0  0  0  0  0  0
   -0.1379   -2.6067   -1.3685 H   0  0  0  0  0  0  0  0  0  0  0  0
    1.8455   -2.0041   -2.5597 S   0  0  0  0  0  0  0  0  0  0  0  0
    0.7057   -1.7808   -3.9500 C   0  0  0  0  0  0  0  0  0  0  0  0
    0.2083   -0.8141   -3.8660 H   0  0  0  0  0  0  0  0  0  0  0  0
    1.2651   -1.8165   -4.8852 H   0  0  0  0  0  0  0  0  0  0  0  0
   -0.0389   -2.5772   -3.9468 H   0  0  0  0  0  0  0  0  0  0  0  0
   -0.8064    1.1568    0.7414 C   0  0  0  0  0  0  0  0  0  0  0  0
   -1.6978    1.8100    0.2029 O   0  0  0  0  0  0  0  0  0  0  0  0
    0.0314    1.6872    1.6415 N   0  0  0  0  0  0  0  0  0  0  0  0
    0.7279    1.0858    2.0517 H   0  0  0  0  0  0  0  0  0  0  0  0
   -0.0137    3.0826    2.0755 C   0  0  0  0  0  0  0  0  0  0  0  0
   -0.9991    3.3070    2.4905 H   0  0  0  0  0  0  0  0  0  0  0  0
    0.7468    3.2694    2.8349 H   0  0  0  0  0  0  0  0  0  0  0  0
    0.1592    3.7397    1.2213 H   0  0  0  0  0  0  0  0  0  0  0  0
  5  6  2  0  0  0  0
  5  7  1  0  0  0  0
  2  3  1  0  0  0  0
  2  4  1  0  0  0  0
  2  5  1  0  0  0  0
  1  2  1  0  0  0  0
 22 23  2  0  0  0  0
 22 24  1  0  0  0  0
 18 19  1  0  0  0  0
 18 20  1  0  0  0  0
 18 21  1  0  0  0  0
 17 18  1  0  0  0  0
 14 15  1  0  0  0  0
 14 16  1  0  0  0  0
 14 17  1  0  0  0  0
 11 12  1  0  0  0  0
 11 13  1  0  0  0  0
 11 14  1  0  0  0  0
  9 10  1  0  0  0  0
  9 11  1  0  0  0  0
  9 22  1  0  0  0  0
  7  8  1  0  0  0  0
  7  9  1  0  0  0  0
 26 27  1  0  0  0  0
 26 28  1  0  0  0  0
 26 29  1  0  0  0  0
 24 25  1  0  0  0  0
 24 26  1  0  0  0  0
M  END
$$$$
default_name
  -OEChem-02102213163D

 29 28  0     1  0  0  0  0  0999 V2000
   -3.5781   -3.7296    1.2702 H   0  0  0  0  0  0  0  0  0  0  0  0
   -3.5311   -2.7616    0.7732 C   0  0  0  0  0  0  0  0  0  0  0  0
   -4.2371   -2.0766    1.2382 H   0  0  0  0  0  0  0  0  0  0  0  0
   -3.7681   -2.8816   -0.2818 H   0  0  0  0  0  0  0  0  0  0  0  0
   -2.1321   -2.2086    0.9112 C   0  0  0  0  0  0  0  0  0  0  0  0
   -1.2751   -2.8426    1.5112 O   0  0  0  0  0  0  0  0  0  0  0  0
   -1.9041   -1.0186    0.3602 N   0  0  0  0  0  0  0  0  0  0  0  0
   -2.6671   -0.5416   -0.0988 H   0  0  0  0  0  0  0  0  0  0  0  0
   -0.6131   -0.3236    0.3832 C   0  0  1  0  0  0  0  0  0  0  0  0
    0.0142   -0.7800    1.1506 H   0  0  0  0  0  0  0  0  0  0  0  0
    0.0816   -0.5059   -0.9788 C   0  0  0  0  0  0  0  0  0  0  0  0
   -0.6472   -0.3245   -1.7717 H   0  0  0  0  0  0  0  0  0  0  0  0
    0.8813    0.2298   -1.0762 H   0  0  0  0  0  0  0  0  0  0  0  0
    0.6754   -1.9047   -1.1811 C   0  0  0  0  0  0  0  0  0  0  0  0
    0.9586   -2.3161   -0.2128 H   0  0  0  0  0  0  0  0  0  0  0  0
   -0.0853   -2.5471   -1.6261 H   0  0  0  0  0  0  0  0  0  0  0  0
    2.1374   -1.9251   -2.2497 S   0  0  0  0  0  0  0  0  0  0  0  0
    1.3663   -1.5166   -3.8372 C   0  0  0  0  0  0  0  0  0  0  0  0
    0.8846   -0.5406   -3.7718 H   0  0  0  0  0  0  0  0  0  0  0  0
    2.1312   -1.4881   -4.6138 H   0  0  0  0  0  0  0  0  0  0  0  0
    0.6248   -2.2744   -4.0918 H   0  0  0  0  0  0  0  0  0  0  0  0
   -0.8064    1.1568    0.7414 C   0  0  0  0  0  0  0  0  0  0  0  0
   -1.6978    1.8100    0.2029 O   0  0  0  0  0  0  0  0  0  0  0  0
    0.0314    1.6872    1.6415 N   0  0  0  0  0  0  0  0  0  0  0  0
    0.7279    1.0858    2.0517 H   0  0  0  0  0  0  0  0  0  0  0  0
   -0.0137    3.0826    2.0755 C   0  0  0  0  0  0  0  0  0  0  0  0
   -0.9991    3.3070    2.4905 H   0  0  0  0  0  0  0  0  0  0  0  0
    0.7468    3.2694    2.8349 H   0  0  0  0  0  0  0  0  0  0  0  0
    0.1592    3.7397    1.2213 H   0  0  0  0  0  0  0  0  0  0  0  0
  5  6  2  0  0  0  0
  5  7  1  0  0  0  0
  2  3  1  0  0  0  0
  2  4  1  0  0  0  0
  2  5  1  0  0  0  0
  1  2  1  0  0  0  0
 22 23  2  0  0  0  0
 22 24  1  0  0  0  0
 18 19  1  0  0  0  0
 18 20  1  0  0  0  0
 18 21  1  0  0  0  0
 17 18  1  0  0  0  0
 14 15  1  0  0  0  0
 14 16  1  0  0  0  0
 14 17  1  0  0  0  0
 11 12  1  0  0  0  0
 11 13  1  0  0  0  0
 11 14  1  0  0  0  0
  9 10  1  0  0  0  0
  9 11  1  0  0  0  0
  9 22  1  0  0  0  0
  7  8  1  0  0  0  0
  7  9  1  0  0  0  0
 26 27  1  0  0  0  0
 26 28  1  0  0  0  0
 26 29  1  0  0  0  0
 24 25  1  0  0  0  0
 24 26  1  0  0  0  0
M  END
$$$$
default_name
  -OEChem-02102213163D

 29 28  0     1  0  0  0  0  0999 V2000
   -3.5781   -3.7296    1.2702 H   0  0  0  0  0  0  0  0  0  0  0  0
   -3.5311   -2.7616    0.7732 C   0  0  0  0  0  0  0  0  0  0  0  0
   -4.2371   -2.0766    1.2382 H   0  0  0  0  0  0  0  0  0  0  0  0
   -3.7681   -2.8816   -0.2818 H   0  0  0  0  0  0  0  0  0  0  0  0
   -2.1321   -2.2086    0.9112 C   0  0  0  0  0  0  0  0  0  0  0  0
   -1.2751   -2.8426    1.5112 O   0  0  0  0  0  0  0  0  0  0  0  0
   -1.9041   -1.0186    0.3602 N   0  0  0  0  0  0  0  0  0  0  0  0
   -2.6671   -0.5416   -0.0988 H   0  0  0  0  0  0  0  0  0  0  0  0
   -0.6131   -0.3236    0.3832 C   0  0  1  0  0  0  0  0  0  0  0  0
    0.0142   -0.7800    1.1506 H   0  0  0  0  0  0  0  0  0  0  0  0
    0.0816   -0.5059   -0.9788 C   0  0  0  0  0  0  0  0  0  0  0  0
   -0.6472   -0.3245   -1.7717 H   0  0  0  0  0  0  0  0  0  0  0  0
    0.8813    0.2298   -1.0762 H   0  0  0  0  0  0  0  0  0  0  0  0
    0.6754   -1.9047   -1.1811 C   0  0  0  0  0  0  0  0  0  0  0  0
    0.7110   -2.4200   -0.2217 H   0  0  0  0  0  0  0  0  0  0  0  0
    0.0285   -2.4655   -1.8566 H   0  0  0  0  0  0  0  0  0  0  0  0
    2.3488   -1.8897   -1.8733 S   0  0  0  0  0  0  0  0  0  0  0  0
    1.9868   -1.2954   -3.5459 C   0  0  0  0  0  0  0  0  0  0  0  0
    1.5251   -0.3090   -3.4936 H   0  0  0  0  0  0  0  0  0  0  0  0
    2.9149   -1.2277   -4.1141 H   0  0  0  0  0  0  0  0  0  0  0  0
    1.3106   -1.9901   -4.0448 H   0  0  0  0  0  0  0  0  0  0  0  0
   -0.8064    1.1568    0.7414 C   0  0  0  0  0  0  0  0  0  0  0  0
   -1.6978    1.8100    0.2029 O   0  0  0  0  0  0  0  0  0  0  0  0
    0.0314    1.6872    1.6415 N   0  0  0  0  0  0  0  0  0  0  0  0
    0.7279    1.0858    2.0517 H   0  0  0  0  0  0  0  0  0  0  0  0
   -0.0137    3.0826    2.0755 C   0  0  0  0  0  0  0  0  0  0  0  0
   -0.9991    3.3070    2.4905 H   0  0  0  0  0  0  0  0  0  0  0  0
    0.7468    3.2694    2.8349 H   0  0  0  0  0  0  0  0  0  0  0  0
    0.1592    3.7397    1.2213 H   0  0  0  0  0  0  0  0  0  0  0  0
  5  6  2  0  0  0  0
  5  7  1  0  0  0  0
  2  3  1  0  0  0  0
  2  4  1  0  0  0  0
  2  5  1  0  0  0  0
  1  2  1  0  0  0  0
 22 23  2  0  0  0  0
 22 24  1  0  0  0  0
 18 19  1  0  0  0  0
 18 20  1  0  0  0  0
 18 21  1  0  0  0  0
 17 18  1  0  0  0  0
 14 15  1  0  0  0  0
 14 16  1  0  0  0  0
 14 17  1  0  0  0  0
 11 12  1  0  0  0  0
 11 13  1  0  0  0  0
 11 14  1  0  0  0  0
  9 10  1  0  0  0  0
  9 11  1  0  0  0  0
  9 22  1  0  0  0  0
  7  8  1  0  0  0  0
  7  9  1  0  0  0  0
 26 27  1  0  0  0  0
 26 28  1  0  0  0  0
 26 29  1  0  0  0  0
 24 25  1  0  0  0  0
 24 26  1  0  0  0  0
M  END
$$$$
default_name
  -OEChem-02102213163D

 29 28  0     1  0  0  0  0  0999 V2000
   -3.5781   -3.7296    1.2702 H   0  0  0  0  0  0  0  0  0  0  0  0
   -3.5311   -2.7616    0.7732 C   0  0  0  0  0  0  0  0  0  0  0  0
   -4.2371   -2.0766    1.2382 H   0  0  0  0  0  0  0  0  0  0  0  0
   -3.7681   -2.8816   -0.2818 H   0  0  0  0  0  0  0  0  0  0  0  0
   -2.1321   -2.2086    0.9112 C   0  0  0  0  0  0  0  0  0  0  0  0
   -1.2751   -2.8426    1.5112 O   0  0  0  0  0  0  0  0  0  0  0  0
   -1.9041   -1.0186    0.3602 N   0  0  0  0  0  0  0  0  0  0  0  0
   -2.6671   -0.5416   -0.0988 H   0  0  0  0  0  0  0  0  0  0  0  0
   -0.6131   -0.3236    0.3832 C   0  0  1  0  0  0  0  0  0  0  0  0
    0.0142   -0.7800    1.1506 H   0  0  0  0  0  0  0  0  0  0  0  0
    0.0816   -0.5059   -0.9788 C   0  0  0  0  0  0  0  0  0  0  0  0
   -0.6472   -0.3245   -1.7717 H   0  0  0  0  0  0  0  0  0  0  0  0
    0.8813    0.2298   -1.0762 H   0  0  0  0  0  0  0  0  0  0  0  0
    0.6754   -1.9047   -1.1811 C   0  0  0  0  0  0  0  0  0  0  0  0
    0.4703   -2.5109   -0.2993 H   0  0  0  0  0  0  0  0  0  0  0  0
    0.1955   -2.3675   -2.0441 H   0  0  0  0  0  0  0  0  0  0  0  0
    2.4654   -1.9005   -1.4563 S   0  0  0  0  0  0  0  0  0  0  0  0
    2.5249   -1.1320   -3.0957 C   0  0  0  0  0  0  0  0  0  0  0  0
    2.0859   -0.1349   -3.0505 H   0  0  0  0  0  0  0  0  0  0  0  0
    3.5628   -1.0530   -3.4203 H   0  0  0  0  0  0  0  0  0  0  0  0
    1.9716   -1.7436   -3.8089 H   0  0  0  0  0  0  0  0  0  0  0  0
   -0.8064    1.1568    0.7414 C   0  0  0  0  0  0  0  0  0  0  0  0
   -1.6978    1.8100    0.2029 O   0  0  0  0  0  0  0  0  0  0  0  0
    0.0314    1.6872    1.6415 N   0  0  0  0  0  0  0  0  0  0  0  0
    0.7279    1.0858    2.0517 H   0  0  0  0  0  0  0  0  0  0  0  0
   -0.0137    3.0826    2.0755 C   0  0  0  0  0  0  0  0  0  0  0  0
   -0.9991    3.3070    2.4905 H   0  0  0  0  0  0  0  0  0  0  0  0
    0.7468    3.2694    2.8349 H   0  0  0  0  0  0  0  0  0  0  0  0
    0.1592    3.7397    1.2213 H   0  0  0  0  0  0  0  0  0  0  0  0
  5  6  2  0  0  0  0
  5  7  1  0  0  0  0
  2  3  1  0  0  0  0
  2  4  1  0  0  0  0
  2  5  1  0  0  0  0
  1  2  1  0  0  0  0
 22 23  2  0  0  0  0
 22 24  1  0  0  0  0
 18 19  1  0  0  0  0
 18 20  1  0  0  0  0
 18 21  1  0  0  0  0
 17 18  1  0  0  0  0
 14 15  1  0  0  0  0
 14 16  1  0  0  0  0
 14 17  1  0  0  0  0
 11 12  1  0  0  0  0
 11 13  1  0  0  0  0
 11 14  1  0  0  0  0
  9 10  1  0  0  0  0
  9 11  1  0  0  0  0
  9 22  1  0  0  0  0
  7  8  1  0  0  0  0
  7  9  1  0  0  0  0
 26 27  1  0  0  0  0
 26 28  1  0  0  0  0
 26 29  1  0  0  0  0
 24 25  1  0  0  0  0
 24 26  1  0  0  0  0
M  END
$$$$
default_name
  -OEChem-02102213163D

 29 28  0     1  0  0  0  0  0999 V2000
   -3.5781   -3.7296    1.2702 H   0  0  0  0  0  0  0  0  0  0  0  0
   -3.5311   -2.7616    0.7732 C   0  0  0  0  0  0  0  0  0  0  0  0
   -4.2371   -2.0766    1.2382 H   0  0  0  0  0  0  0  0  0  0  0  0
   -3.7681   -2.8816   -0.2818 H   0  0  0  0  0  0  0  0  0  0  0  0
   -2.1321   -2.2086    0.9112 C   0  0  0  0  0  0  0  0  0  0  0  0
   -1.2751   -2.8426    1.5112 O   0  0  0  0  0  0  0  0  0  0  0  0
   -1.9041   -1.0186    0.3602 N   0  0  0  0  0  0  0  0  0  0  0  0
   -2.6671   -0.5416   -0.0988 H   0  0  0  0  0  0  0  0  0  0  0  0
   -0.6131   -0.3236    0.3832 C   0  0  1  0  0  0  0  0  0  0  0  0
    0.0142   -0.7800    1.1506 H   0  0  0  0  0  0  0  0  0  0  0  0
    0.0816   -0.5059   -0.9788 C   0  0  0  0  0  0  0  0  0  0  0  0
   -0.6472   -0.3245   -1.7717 H   0  0  0  0  0  0  0  0  0  0  0  0
    0.8813    0.2298   -1.0762 H   0  0  0  0  0  0  0  0  0  0  0  0
    0.6754   -1.9047   -1.1811 C   0  0  0  0  0  0  0  0  0  0  0  0
    0.2531   -2.5828   -0.4401 H   0  0  0  0  0  0  0  0  0  0  0  0
    0.4045   -2.2597   -2.1760 H   0  0  0  0  0  0  0  0  0  0  0  0
    2.4791   -1.9568   -1.0270 S   0  0  0  0  0  0  0  0  0  0  0  0
    2.9439   -1.0378   -2.5174 C   0  0  0  0  0  0  0  0  0  0  0  0
    2.5289   -0.0304   -2.4726 H   0  0  0  0  0  0  0  0  0  0  0  0
    4.0307   -0.9759   -2.5796 H   0  0  0  0  0  0  0  0  0  0  0  0
    2.5628   -1.5517   -3.4003 H   0  0  0  0  0  0  0  0  0  0  0  0
   -0.8064    1.1568    0.7414 C   0  0  0  0  0  0  0  0  0  0  0  0
   -1.6978    1.8100    0.2029 O   0  0  0  0  0  0  0  0  0  0  0  0
    0.0314    1.6872    1.6415 N   0  0  0  0  0  0  0  0  0  0  0  0
    0.7279    1.0858    2.0517 H   0  0  0  0  0  0  0  0  0  0  0  0
   -0.0137    3.0826    2.0755 C   0  0  0  0  0  0  0  0  0  0  0  0
   -0.9991    3.3070    2.4905 H   0  0  0  0  0  0  0  0  0  0  0  0
    0.7468    3.2694    2.8349 H   0  0  0  0  0  0  0  0  0  0  0  0
    0.1592    3.7397    1.2213 H   0  0  0  0  0  0  0  0  0  0  0  0
  5  6  2  0  0  0  0
  5  7  1  0  0  0  0
  2  3  1  0  0  0  0
  2  4  1  0  0  0  0
  2  5  1  0  0  0  0
  1  2  1  0  0  0  0
 22 23  2  0  0  0  0
 22 24  1  0  0  0  0
 18 19  1  0  0  0  0
 18 20  1  0  0  0  0
 18 21  1  0  0  0  0
 17 18  1  0  0  0  0
 14 15  1  0  0  0  0
 14 16  1  0  0  0  0
 14 17  1  0  0  0  0
 11 12  1  0  0  0  0
 11 13  1  0  0  0  0
 11 14  1  0  0  0  0
  9 10  1  0  0  0  0
  9 11  1  0  0  0  0
  9 22  1  0  0  0  0
  7  8  1  0  0  0  0
  7  9  1  0  0  0  0
 26 27  1  0  0  0  0
 26 28  1  0  0  0  0
 26 29  1  0  0  0  0
 24 25  1  0  0  0  0
 24 26  1  0  0  0  0
M  END
$$$$
default_name
  -OEChem-02102213163D

 29 28  0     1  0  0  0  0  0999 V2000
   -3.5781   -3.7296    1.2702 H   0  0  0  0  0  0  0  0  0  0  0  0
   -3.5311   -2.7616    0.7732 C   0  0  0  0  0  0  0  0  0  0  0  0
   -4.2371   -2.0766    1.2382 H   0  0  0  0  0  0  0  0  0  0  0  0
   -3.7681   -2.8816   -0.2818 H   0  0  0  0  0  0  0  0  0  0  0  0
   -2.1321   -2.2086    0.9112 C   0  0  0  0  0  0  0  0  0  0  0  0
   -1.2751   -2.8426    1.5112 O   0  0  0  0  0  0  0  0  0  0  0  0
   -1.9041   -1.0186    0.3602 N   0  0  0  0  0  0  0  0  0  0  0  0
   -2.6671   -0.5416   -0.0988 H   0  0  0  0  0  0  0  0  0  0  0  0
   -0.6131   -0.3236    0.3832 C   0  0  1  0  0  0  0  0  0  0  0  0
    0.0142   -0.7800    1.1506 H   0  0  0  0  0  0  0  0  0  0  0  0
    0.0816   -0.5059   -0.9788 C   0  0  0  0  0  0  0  0  0  0  0  0
   -0.6472   -0.3245   -1.7717 H   0  0  0  0  0  0  0  0  0  0  0  0
    0.8813    0.2298   -1.0762 H   0  0  0  0  0  0  0  0  0  0  0  0
    0.6754   -1.9047   -1.1811 C   0  0  0  0  0  0  0  0  0  0  0  0
    0.0741   -2.6306   -0.6347 H   0  0  0  0  0  0  0  0  0  0  0  0
    0.6412   -2.1495   -2.2433 H   0  0  0  0  0  0  0  0  0  0  0  0
    2.3890   -2.0546   -0.6148 S   0  0  0  0  0  0  0  0  0  0  0  0
    3.2152   -1.0190   -1.8504 C   0  0  0  0  0  0  0  0  0  0  0  0
    2.8239   -0.0025   -1.7993 H   0  0  0  0  0  0  0  0  0  0  0  0
    4.2867   -1.0016   -1.6493 H   0  0  0  0  0  0  0  0  0  0  0  0
    3.0439   -1.4275   -2.8467 H   0  0  0  0  0  0  0  0  0  0  0  0
   -0.8064    1.1568    0.7414 C   0  0  0  0  0  0  0  0  0  0  0  0
   -1.6978    1.8100    0.2029 O   0  0  0  0  0  0  0  0  0  0  0  0
    0.0314    1.6872    1.6415 N   0  0  0  0  0  0  0  0  0  0  0  0
    0.7279    1.0858    2.0517 H   0  0  0  0  0  0  0  0  0  0  0  0
   -0.0137    3.0826    2.0755 C   0  0  0  0  0  0  0  0  0  0  0  0
   -0.9991    3.3070    2.4905 H   0  0  0  0  0  0  0  0  0  0  0  0
    0.7468    3.2694    2.8349 H   0  0  0  0  0  0  0  0  0  0  0  0
    0.1592    3.7397    1.2213 H   0  0  0  0  0  0  0  0  0  0  0  0
  5  6  2  0  0  0  0
  5  7  1  0  0  0  0
  2  3  1  0  0  0  0
  2  4  1  0  0  0  0
  2  5  1  0  0  0  0
  1  2  1  0  0  0  0
 22 23  2  0  0  0  0
 22 24  1  0  0  0  0
 18 19  1  0  0  0  0
 18 20  1  0  0  0  0
 18 21  1  0  0  0  0
 17 18  1  0  0  0  0
 14 15  1  0  0  0  0
 14 16  1  0  0  0  0
 14 17  1  0  0  0  0
 11 12  1  0  0  0  0
 11 13  1  0  0  0  0
 11 14  1  0  0  0  0
  9 10  1  0  0  0  0
  9 11  1  0  0  0  0
  9 22  1  0  0  0  0
  7  8  1  0  0  0  0
  7  9  1  0  0  0  0
 26 27  1  0  0  0  0
 26 28  1  0  0  0  0
 26 29  1  0  0  0  0
 24 25  1  0  0  0  0
 24 26  1  0  0  0  0
M  END
$$$$
default_name
  -OEChem-02102213163D

 29 28  0     1  0  0  0  0  0999 V2000
   -3.5781   -3.7296    1.2702 H   0  0  0  0  0  0  0  0  0  0  0  0
   -3.5311   -2.7616    0.7732 C   0  0  0  0  0  0  0  0  0  0  0  0
   -4.2371   -2.0766    1.2382 H   0  0  0  0  0  0  0  0  0  0  0  0
   -3.7681   -2.8816   -0.2818 H   0  0  0  0  0  0  0  0  0  0  0  0
   -2.1321   -2.2086    0.9112 C   0  0  0  0  0  0  0  0  0  0  0  0
   -1.2751   -2.8426    1.5112 O   0  0  0  0  0  0  0  0  0  0  0  0
   -1.9041   -1.0186    0.3602 N   0  0  0  0  0  0  0  0  0  0  0  0
   -2.6671   -0.5416   -0.0988 H   0  0  0  0  0  0  0  0  0  0  0  0
   -0.6131   -0.3236    0.3832 C   0  0  1  0  0  0  0  0  0  0  0  0
    0.0142   -0.7800    1.1506 H   0  0  0  0  0  0  0  0  0  0  0  0
    0.0816   -0.5059   -0.9788 C   0  0  0  0  0  0  0  0  0  0  0  0
   -0.6472   -0.3245   -1.7717 H   0  0  0  0  0  0  0  0  0  0  0  0
    0.8813    0.2298   -1.0762 H   0  0  0  0  0  0  0  0  0  0  0  0
    0.6754   -1.9047   -1.1811 C   0  0  0  0  0  0  0  0  0  0  0  0
   -0.0545   -2.6513   -0.8697 H   0  0  0  0  0  0  0  0  0  0  0  0
    0.8895   -2.0444   -2.2413 H   0  0  0  0  0  0  0  0  0  0  0  0
    2.2014   -2.1873   -0.2477 S   0  0  0  0  0  0  0  0  0  0  0  0
    3.3205   -1.0770   -1.1402 C   0  0  0  0  0  0  0  0  0  0  0  0
    2.9507   -0.0532   -1.0765 H   0  0  0  0  0  0  0  0  0  0  0  0
    4.3135   -1.1286   -0.6929 H   0  0  0  0  0  0  0  0  0  0  0  0
    3.3821   -1.3795   -2.1860 H   0  0  0  0  0  0  0  0  0  0  0  0
   -0.8064    1.1568    0.7414 C   0  0  0  0  0  0  0  0  0  0  0  0
   -1.6978    1.8100    0.2029 O   0  0  0  0  0  0  0  0  0  0  0  0
    0.0314    1.6872    1.6415 N   0  0  0  0  0  0  0  0  0  0  0  0
    0.7279    1.0858    2.0517 H   0  0  0  0  0  0  0  0  0  0  0  0
   -0.0137    3.0826    2.0755 C   0  0  0  0  0  0  0  0  0  0  0  0
   -0.9991    3.3070    2.4905 H   0  0  0  0  0  0  0  0  0  0  0  0
    0.7468    3.2694    2.8349 H   0  0  0  0  0  0  0  0  0  0  0  0
    0.1592    3.7397    1.2213 H   0  0  0  0  0  0  0  0  0  0  0  0
  5  6  2  0  0  0  0
  5  7  1  0  0  0  0
  2  3  1  0  0  0  0
  2  4  1  0  0  0  0
  2  5  1  0  0  0  0
  1  2  1  0  0  0  0
 22 23  2  0  0  0  0
 22 24  1  0  0  0  0
 18 19  1  0  0  0  0
 18 20  1  0  0  0  0
 18 21  1  0  0  0  0
 17 18  1  0  0  0  0
 14 15  1  0  0  0  0
 14 16  1  0  0  0  0
 14 17  1  0  0  0  0
 11 12  1  0  0  0  0
 11 13  1  0  0  0  0
 11 14  1  0  0  0  0
  9 10  1  0  0  0  0
  9 11  1  0  0  0  0
  9 22  1  0  0  0  0
  7  8  1  0  0  0  0
  7  9  1  0  0  0  0
 26 27  1  0  0  0  0
 26 28  1  0  0  0  0
 26 29  1  0  0  0  0
 24 25  1  0  0  0  0
 24 26  1  0  0  0  0
M  END
$$$$
default_name
  -OEChem-02102213163D

 29 28  0     1  0  0  0  0  0999 V2000
   -3.5781   -3.7296    1.2702 H   0  0  0  0  0  0  0  0  0  0  0  0
   -3.5311   -2.7616    0.7732 C   0  0  0  0  0  0  0  0  0  0  0  0
   -4.2371   -2.0766    1.2382 H   0  0  0  0  0  0  0  0  0  0  0  0
   -3.7681   -2.8816   -0.2818 H   0  0  0  0  0  0  0  0  0  0  0  0
   -2.1321   -2.2086    0.9112 C   0  0  0  0  0  0  0  0  0  0  0  0
   -1.2751   -2.8426    1.5112 O   0  0  0  0  0  0  0  0  0  0  0  0
   -1.9041   -1.0186    0.3602 N   0  0  0  0  0  0  0  0  0  0  0  0
   -2.6671   -0.5416   -0.0988 H   0  0  0  0  0  0  0  0  0  0  0  0
   -0.6131   -0.3236    0.3832 C   0  0  1  0  0  0  0  0  0  0  0  0
    0.0142   -0.7800    1.1506 H   0  0  0  0  0  0  0  0  0  0  0  0
    0.0816   -0.5059   -0.9788 C   0  0  0  0  0  0  0  0  0  0  0  0
   -0.6472   -0.3245   -1.7717 H   0  0  0  0  0  0  0  0  0  0  0  0
    0.8813    0.2298   -1.0762 H   0  0  0  0  0  0  0  0  0  0  0  0
    0.6754   -1.9047   -1.1811 C   0  0  0  0  0  0  0  0  0  0  0  0
   -0.1240   -2.6432   -1.1292 H   0  0  0  0  0  0  0  0  0  0  0  0
    1.1324   -1.9515   -2.1702 H   0  0  0  0  0  0  0  0  0  0  0  0
    1.9289   -2.3459    0.0493 S   0  0  0  0  0  0  0  0  0  0  0  0
    3.2525   -1.2078   -0.4352 C   0  0  0  0  0  0  0  0  0  0  0  0
    2.9009   -0.1789   -0.3534 H   0  0  0  0  0  0  0  0  0  0  0  0
    4.1091   -1.3480    0.2246 H   0  0  0  0  0  0  0  0  0  0  0  0
    3.5543   -1.4109   -1.4630 H   0  0  0  0  0  0  0  0  0  0  0  0
   -0.8064    1.1568    0.7414 C   0  0  0  0  0  0  0  0  0  0  0  0
   -1.6978    1.8100    0.2029 O   0  0  0  0  0  0  0  0  0  0  0  0
    0.0314    1.6872    1.6415 N   0  0  0  0  0  0  0  0  0  0  0  0
    0.7279    1.0858    2.0517 H   0  0  0  0  0  0  0  0  0  0  0  0
   -0.0137    3.0826    2.0755 C   0  0  0  0  0  0  0  0  0  0  0  0
   -0.9991    3.3070    2.4905 H   0  0  0  0  0  0  0  0  0  0  0  0
    0.7468    3.2694    2.8349 H   0  0  0  0  0  0  0  0  0  0  0  0
    0.1592    3.7397    1.2213 H   0  0  0  0  0  0  0  0  0  0  0  0
  5  6  2  0  0  0  0
  5  7  1  0  0  0  0
  2  3  1  0  0  0  0
  2  4  1  0  0  0  0
  2  5  1  0  0  0  0
  1  2  1  0  0  0  0
 22 23  2  0  0  0  0
 22 24  1  0  0  0  0
 18 19  1  0  0  0  0
 18 20  1  0  0  0  0
 18 21  1  0  0  0  0
 17 18  1  0  0  0  0
 14 15  1  0  0  0  0
 14 16  1  0  0  0  0
 14 17  1  0  0  0  0
 11 12  1  0  0  0  0
 11 13  1  0  0  0  0
 11 14  1  0  0  0  0
  9 10  1  0  0  0  0
  9 11  1  0  0  0  0
  9 22  1  0  0  0  0
  7  8  1  0  0  0  0
  7  9  1  0  0  0  0
 26 27  1  0  0  0  0
 26 28  1  0  0  0  0
 26 29  1  0  0  0  0
 24 25  1  0  0  0  0
 24 26  1  0  0  0  0
M  END
$$$$
default_name
  -OEChem-02102213163D

 29 28  0     1  0  0  0  0  0999 V2000
   -3.5781   -3.7296    1.2702 H   0  0  0  0  0  0  0  0  0  0  0  0
   -3.5311   -2.7616    0.7732 C   0  0  0  0  0  0  0  0  0  0  0  0
   -4.2371   -2.0766    1.2382 H   0  0  0  0  0  0  0  0  0  0  0  0
   -3.7681   -2.8816   -0.2818 H   0  0  0  0  0  0  0  0  0  0  0  0
   -2.1321   -2.2086    0.9112 C   0  0  0  0  0  0  0  0  0  0  0  0
   -1.2751   -2.8426    1.5112 O   0  0  0  0  0  0  0  0  0  0  0  0
   -1.9041   -1.0186    0.3602 N   0  0  0  0  0  0  0  0  0  0  0  0
   -2.6671   -0.5416   -0.0988 H   0  0  0  0  0  0  0  0  0  0  0  0
   -0.6131   -0.3236    0.3832 C   0  0  1  0  0  0  0  0  0  0  0  0
    0.0142   -0.7800    1.1506 H   0  0  0  0  0  0  0  0  0  0  0  0
    0.0816   -0.5059   -0.9788 C   0  0  0  0  0  0  0  0  0  0  0  0
   -0.6472   -0.3245   -1.7717 H   0  0  0  0  0  0  0  0  0  0  0  0
    0.8813    0.2298   -1.0762 H   0  0  0  0  0  0  0  0  0  0  0  0
    0.6754   -1.9047   -1.1811 C   0  0  0  0  0  0  0  0  0  0  0  0
   -0.1295   -2.6071   -1.3953 H   0  0  0  0  0  0  0  0  0  0  0  0
    1.3535   -1.8773   -2.0348 H   0  0  0  0  0  0  0  0  0  0  0  0
    1.5901   -2.5196    0.2559 S   0  0  0  0  0  0  0  0  0  0  0  0
    3.0158   -1.4025    0.2167 C   0  0  0  0  0  0  0  0  0  0  0  0
    2.6776   -0.3711    0.3207 H   0  0  0  0  0  0  0  0  0  0  0  0
    3.6876   -1.6449    1.0406 H   0  0  0  0  0  0  0  0  0  0  0  0
    3.5490   -1.5196   -0.7272 H   0  0  0  0  0  0  0  0  0  0  0  0
   -0.8064    1.1568    0.7414 C   0  0  0  0  0  0  0  0  0  0  0  0
   -1.6978    1.8100    0.2029 O   0  0  0  0  0  0  0  0  0  0  0  0
    0.0314    1.6872    1.6415 N   0  0  0  0  0  0  0  0  0  0  0  0
    0.7279    1.0858    2.0517 H   0  0  0  0  0  0  0  0  0  0  0  0
   -0.0137    3.0826    2.0755 C   0  0  0  0  0  0  0  0  0  0  0  0
   -0.9991    3.3070    2.4905 H   0  0  0  0  0  0  0  0  0  0  0  0
    0.7468    3.2694    2.8349 H   0  0  0  0  0  0  0  0  0  0  0  0
    0.1592    3.7397    1.2213 H   0  0  0  0  0  0  0  0  0  0  0  0
  5  6  2  0  0  0  0
  5  7  1  0  0  0  0
  2  3  1  0  0  0  0
  2  4  1  0  0  0  0
  2  5  1  0  0  0  0
  1  2  1  0  0  0  0
 22 23  2  0  0  0  0
 22 24  1  0  0  0  0
 18 19  1  0  0  0  0
 18 20  1  0  0  0  0
 18 21  1  0  0  0  0
 17 18  1  0  0  0  0
 14 15  1  0  0  0  0
 14 16  1  0  0  0  0
 14 17  1  0  0  0  0
 11 12  1  0  0  0  0
 11 13  1  0  0  0  0
 11 14  1  0  0  0  0
  9 10  1  0  0  0  0
  9 11  1  0  0  0  0
  9 22  1  0  0  0  0
  7  8  1  0  0  0  0
  7  9  1  0  0  0  0
 26 27  1  0  0  0  0
 26 28  1  0  0  0  0
 26 29  1  0  0  0  0
 24 25  1  0  0  0  0
 24 26  1  0  0  0  0
M  END
$$$$
default_name
  -OEChem-02102213163D

 29 28  0     1  0  0  0  0  0999 V2000
   -3.5781   -3.7296    1.2702 H   0  0  0  0  0  0  0  0  0  0  0  0
   -3.5311   -2.7616    0.7732 C   0  0  0  0  0  0  0  0  0  0  0  0
   -4.2371   -2.0766    1.2382 H   0  0  0  0  0  0  0  0  0  0  0  0
   -3.7681   -2.8816   -0.2818 H   0  0  0  0  0  0  0  0  0  0  0  0
   -2.1321   -2.2086    0.9112 C   0  0  0  0  0  0  0  0  0  0  0  0
   -1.2751   -2.8426    1.5112 O   0  0  0  0  0  0  0  0  0  0  0  0
   -1.9041   -1.0186    0.3602 N   0  0  0  0  0  0  0  0  0  0  0  0
   -2.6671   -0.5416   -0.0988 H   0  0  0  0  0  0  0  0  0  0  0  0
   -0.6131   -0.3236    0.3832 C   0  0  1  0  0  0  0  0  0  0  0  0
    0.0142   -0.7800    1.1506 H   0  0  0  0  0  0  0  0  0  0  0  0
    0.0816   -0.5059   -0.9788 C   0  0  0  0  0  0  0  0  0  0  0  0
   -0.6472   -0.3245   -1.7717 H   0  0  0  0  0  0  0  0  0  0  0  0
    0.8813    0.2298   -1.0762 H   0  0  0  0  0  0  0  0  0  0  0  0
    0.6754   -1.9047   -1.1811 C   0  0  0  0  0  0  0  0  0  0  0  0
   -0.0707   -2.5453   -1.6502 H   0  0  0  0  0  0  0  0  0  0  0  0
    1.5375   -1.8267   -1.8444 H   0  0  0  0  0  0  0  0  0  0  0  0
    1.2082   -2.6965    0.3580 S   0  0  0  0  0  0  0  0  0  0  0  0
    2.6266   -1.6479    0.7709 C   0  0  0  0  0  0  0  0  0  0  0  0
    2.2963   -0.6167    0.8998 H   0  0  0  0  0  0  0  0  0  0  0  0
    3.0775   -1.9991    1.6994 H   0  0  0  0  0  0  0  0  0  0  0  0
    3.3663   -1.6981   -0.0286 H   0  0  0  0  0  0  0  0  0  0  0  0
   -0.8064    1.1568    0.7414 C   0  0  0  0  0  0  0  0  0  0  0  0
   -1.6978    1.8100    0.2029 O   0  0  0  0  0  0  0  0  0  0  0  0
    0.0314    1.6872    1.6415 N   0  0  0  0  0  0  0  0  0  0  0  0
    0.7279    1.0858    2.0517 H   0  0  0  0  0  0  0  0  0  0  0  0
   -0.0137    3.0826    2.0755 C   0  0  0  0  0  0  0  0  0  0  0  0
   -0.9991    3.3070    2.4905 H   0  0  0  0  0  0  0  0  0  0  0  0
    0.7468    3.2694    2.8349 H   0  0  0  0  0  0  0  0  0  0  0  0
    0.1592    3.7397    1.2213 H   0  0  0  0  0  0  0  0  0  0  0  0
  5  6  2  0  0  0  0
  5  7  1  0  0  0  0
  2  3  1  0  0  0  0
  2  4  1  0  0  0  0
  2  5  1  0  0  0  0
  1  2  1  0  0  0  0
 22 23  2  0  0  0  0
 22 24  1  0  0  0  0
 18 19  1  0  0  0  0
 18 20  1  0  0  0  0
 18 21  1  0  0  0  0
 17 18  1  0  0  0  0
 14 15  1  0  0  0  0
 14 16  1  0  0  0  0
 14 17  1  0  0  0  0
 11 12  1  0  0  0  0
 11 13  1  0  0  0  0
 11 14  1  0  0  0  0
  9 10  1  0  0  0  0
  9 11  1  0  0  0  0
  9 22  1  0  0  0  0
  7  8  1  0  0  0  0
  7  9  1  0  0  0  0
 26 27  1  0  0  0  0
 26 28  1  0  0  0  0
 26 29  1  0  0  0  0
 24 25  1  0  0  0  0
 24 26  1  0  0  0  0
M  END
$$$$
default_name
  -OEChem-02102213163D

 29 28  0     1  0  0  0  0  0999 V2000
   -3.5781   -3.7296    1.2702 H   0  0  0  0  0  0  0  0  0  0  0  0
   -3.5311   -2.7616    0.7732 C   0  0  0  0  0  0  0  0  0  0  0  0
   -4.2371   -2.0766    1.2382 H   0  0  0  0  0  0  0  0  0  0  0  0
   -3.7681   -2.8816   -0.2818 H   0  0  0  0  0  0  0  0  0  0  0  0
   -2.1321   -2.2086    0.9112 C   0  0  0  0  0  0  0  0  0  0  0  0
   -1.2751   -2.8426    1.5112 O   0  0  0  0  0  0  0  0  0  0  0  0
   -1.9041   -1.0186    0.3602 N   0  0  0  0  0  0  0  0  0  0  0  0
   -2.6671   -0.5416   -0.0988 H   0  0  0  0  0  0  0  0  0  0  0  0
   -0.6131   -0.3236    0.3832 C   0  0  1  0  0  0  0  0  0  0  0  0
    0.0142   -0.7800    1.1506 H   0  0  0  0  0  0  0  0  0  0  0  0
    0.0816   -0.5059   -0.9788 C   0  0  0  0  0  0  0  0  0  0  0  0
   -0.6472   -0.3245   -1.7717 H   0  0  0  0  0  0  0  0  0  0  0  0
    0.8813    0.2298   -1.0762 H   0  0  0  0  0  0  0  0  0  0  0  0
    0.6754   -1.9047   -1.1811 C   0  0  0  0  0  0  0  0  0  0  0  0
    0.0483   -2.4621   -1.8762 H   0  0  0  0  0  0  0  0  0  0  0  0
    1.6721   -1.8031   -1.6120 H   0  0  0  0  0  0  0  0  0  0  0  0
    0.8091   -2.8646    0.3488 S   0  0  0  0  0  0  0  0  0  0  0  0
    2.1113   -1.9271    1.1897 C   0  0  0  0  0  0  0  0  0  0  0  0
    1.7828   -0.8990    1.3445 H   0  0  0  0  0  0  0  0  0  0  0  0
    2.3206   -2.3865    2.1562 H   0  0  0  0  0  0  0  0  0  0  0  0
    3.0187   -1.9344    0.5852 H   0  0  0  0  0  0  0  0  0  0  0  0
   -0.8064    1.1568    0.7414 C   0  0  0  0  0  0  0  0  0  0  0  0
   -1.6978    1.8100    0.2029 O   0  0  0  0  0  0  0  0  0  0  0  0
    0.0314    1.6872    1.6415 N   0  0  0  0  0  0  0  0  0  0  0  0
    0.7279    1.0858    2.0517 H   0  0  0  0  0  0  0  0  0  0  0  0
   -0.0137    3.0826    2.0755 C   0  0  0  0  0  0  0  0  0  0  0  0
   -0.9991    3.3070    2.4905 H   0  0  0  0  0  0  0  0  0  0  0  0
    0.7468    3.2694    2.8349 H   0  0  0  0  0  0  0  0  0  0  0  0
    0.1592    3.7397    1.2213 H   0  0  0  0  0  0  0  0  0  0  0  0
  5  6  2  0  0  0  0
  5  7  1  0  0  0  0
  2  3  1  0  0  0  0
  2  4  1  0  0  0  0
  2  5  1  0  0  0  0
  1  2  1  0  0  0  0
 22 23  2  0  0  0  0
 22 24  1  0  0  0  0
 18 19  1  0  0  0  0
 18 20  1  0  0  0  0
 18 21  1  0  0  0  0
 17 18  1  0  0  0  0
 14 15  1  0  0  0  0
 14 16  1  0  0  0  0
 14 17  1  0  0  0  0
 11 12  1  0  0  0  0
 11 13  1  0  0  0  0
 11 14  1  0  0  0  0
  9 10  1  0  0  0  0
  9 11  1  0  0  0  0
  9 22  1  0  0  0  0
  7  8  1  0  0  0  0
  7  9  1  0  0  0  0
 26 27  1  0  0  0  0
 26 28  1  0  0  0  0
 26 29  1  0  0  0  0
 24 25  1  0  0  0  0
 24 26  1  0  0  0  0
M  END
$$$$
default_name
  -OEChem-02102213163D

 29 28  0     1  0  0  0  0  0999 V2000
   -3.5781   -3.7296    1.2702 H   0  0  0  0  0  0  0  0  0  0  0  0
   -3.5311   -2.7616    0.7732 C   0  0  0  0  0  0  0  0  0  0  0  0
   -4.2371   -2.0766    1.2382 H   0  0  0  0  0  0  0  0  0  0  0  0
   -3.7681   -2.8816   -0.2818 H   0  0  0  0  0  0  0  0  0  0  0  0
   -2.1321   -2.2086    0.9112 C   0  0  0  0  0  0  0  0  0  0  0  0
   -1.2751   -2.8426    1.5112 O   0  0  0  0  0  0  0  0  0  0  0  0
   -1.9041   -1.0186    0.3602 N   0  0  0  0  0  0  0  0  0  0  0  0
   -2.6671   -0.5416   -0.0988 H   0  0  0  0  0  0  0  0  0  0  0  0
   -0.6131   -0.3236    0.3832 C   0  0  1  0  0  0  0  0  0  0  0  0
    0.0142   -0.7800    1.1506 H   0  0  0  0  0  0  0  0  0  0  0  0
    0.0816   -0.5059   -0.9788 C   0  0  0  0  0  0  0  0  0  0  0  0
   -0.6472   -0.3245   -1.7717 H   0  0  0  0  0  0  0  0  0  0  0  0
    0.8813    0.2298   -1.0762 H   0  0  0  0  0  0  0  0  0  0  0  0
    0.6754   -1.9047   -1.1811 C   0  0  0  0  0  0  0  0  0  0  0  0
    0.2195   -2.3631   -2.0581 H   0  0  0  0  0  0  0  0  0  0  0  0
    1.7480   -1.8083   -1.3533 H   0  0  0  0  0  0  0  0  0  0  0  0
    0.4201   -3.0124    0.2287 S   0  0  0  0  0  0  0  0  0  0  0  0
    1.5052   -2.2213    1.4446 C   0  0  0  0  0  0  0  0  0  0  0  0
    1.1721   -1.1987    1.6245 H   0  0  0  0  0  0  0  0  0  0  0  0
    1.4684   -2.7806    2.3799 H   0  0  0  0  0  0  0  0  0  0  0  0
    2.5300   -2.2123    1.0723 H   0  0  0  0  0  0  0  0  0  0  0  0
   -0.8064    1.1568    0.7414 C   0  0  0  0  0  0  0  0  0  0  0  0
   -1.6978    1.8100    0.2029 O   0  0  0  0  0  0  0  0  0  0  0  0
    0.0314    1.6872    1.6415 N   0  0  0  0  0  0  0  0  0  0  0  0
    0.7279    1.0858    2.0517 H   0  0  0  0  0  0  0  0  0  0  0  0
   -0.0137    3.0826    2.0755 C   0  0  0  0  0  0  0  0  0  0  0  0
   -0.9991    3.3070    2.4905 H   0  0  0  0  0  0  0  0  0  0  0  0
    0.7468    3.2694    2.8349 H   0  0  0  0  0  0  0  0  0  0  0  0
    0.1592    3.7397    1.2213 H   0  0  0  0  0  0  0  0  0  0  0  0
  5  6  2  0  0  0  0
  5  7  1  0  0  0  0
  2  3  1  0  0  0  0
  2  4  1  0  0  0  0
  2  5  1  0  0  0  0
  1  2  1  0  0  0  0
 22 23  2  0  0  0  0
 22 24  1  0  0  0  0
 18 19  1  0  0  0  0
 18 20  1  0  0  0  0
 18 21  1  0  0  0  0
 17 18  1  0  0  0  0
 14 15  1  0  0  0  0
 14 16  1  0  0  0  0
 14 17  1  0  0  0  0
 11 12  1  0  0  0  0
 11 13  1  0  0  0  0
 11 14  1  0  0  0  0
  9 10  1  0  0  0  0
  9 11  1  0  0  0  0
  9 22  1  0  0  0  0
  7  8  1  0  0  0  0
  7  9  1  0  0  0  0
 26 27  1  0  0  0  0
 26 28  1  0  0  0  0
 26 29  1  0  0  0  0
 24 25  1  0  0  0  0
 24 26  1  0  0  0  0
M  END
$$$$
default_name
  -OEChem-02102213163D

 29 28  0     1  0  0  0  0  0999 V2000
   -3.5781   -3.7296    1.2702 H   0  0  0  0  0  0  0  0  0  0  0  0
   -3.5311   -2.7616    0.7732 C   0  0  0  0  0  0  0  0  0  0  0  0
   -4.2371   -2.0766    1.2382 H   0  0  0  0  0  0  0  0  0  0  0  0
   -3.7681   -2.8816   -0.2818 H   0  0  0  0  0  0  0  0  0  0  0  0
   -2.1321   -2.2086    0.9112 C   0  0  0  0  0  0  0  0  0  0  0  0
   -1.2751   -2.8426    1.5112 O   0  0  0  0  0  0  0  0  0  0  0  0
   -1.9041   -1.0186    0.3602 N   0  0  0  0  0  0  0  0  0  0  0  0
   -2.6671   -0.5416   -0.0988 H   0  0  0  0  0  0  0  0  0  0  0  0
   -0.6131   -0.3236    0.3832 C   0  0  1  0  0  0  0  0  0  0  0  0
    0.0142   -0.7800    1.1506 H   0  0  0  0  0  0  0  0  0  0  0  0
    0.0816   -0.5059   -0.9788 C   0  0  0  0  0  0  0  0  0  0  0  0
   -0.6472   -0.3245   -1.7717 H   0  0  0  0  0  0  0  0  0  0  0  0
    0.8813    0.2298   -1.0762 H   0  0  0  0  0  0  0  0  0  0  0  0
    0.6754   -1.9047   -1.1811 C   0  0  0  0  0  0  0  0  0  0  0  0
    0.4313   -2.2551   -2.1834 H   0  0  0  0  0  0  0  0  0  0  0  0
    1.7600   -1.8418   -1.0861 H   0  0  0  0  0  0  0  0  0  0  0  0
    0.0676   -3.1298    0.0061 S   0  0  0  0  0  0  0  0  0  0  0  0
    0.8496   -2.5103    1.5182 C   0  0  0  0  0  0  0  0  0  0  0  0
    0.5058   -1.4954    1.7206 H   0  0  0  0  0  0  0  0  0  0  0  0
    0.5789   -3.1546    2.3551 H   0  0  0  0  0  0  0  0  0  0  0  0
    1.9334   -2.5128    1.3995 H   0  0  0  0  0  0  0  0  0  0  0  0
   -0.8064    1.1568    0.7414 C   0  0  0  0  0  0  0  0  0  0  0  0
   -1.6978    1.8100    0.2029 O   0  0  0  0  0  0  0  0  0  0  0  0
    0.0314    1.6872    1.6415 N   0  0  0  0  0  0  0  0  0  0  0  0
    0.7279    1.0858    2.0517 H   0  0  0  0  0  0  0  0  0  0  0  0
   -0.0137    3.0826    2.0755 C   0  0  0  0  0  0  0  0  0  0  0  0
   -0.9991    3.3070    2.4905 H   0  0  0  0  0  0  0  0  0  0  0  0
    0.7468    3.2694    2.8349 H   0  0  0  0  0  0  0  0  0  0  0  0
    0.1592    3.7397    1.2213 H   0  0  0  0  0  0  0  0  0  0  0  0
  5  6  2  0  0  0  0
  5  7  1  0  0  0  0
  2  3  1  0  0  0  0
  2  4  1  0  0  0  0
  2  5  1  0  0  0  0
  1  2  1  0  0  0  0
 22 23  2  0  0  0  0
 22 24  1  0  0  0  0
 18 19  1  0  0  0  0
 18 20  1  0  0  0  0
 18 21  1  0  0  0  0
 17 18  1  0  0  0  0
 14 15  1  0  0  0  0
 14 16  1  0  0  0  0
 14 17  1  0  0  0  0
 11 12  1  0  0  0  0
 11 13  1  0  0  0  0
 11 14  1  0  0  0  0
  9 10  1  0  0  0  0
  9 11  1  0  0  0  0
  9 22  1  0  0  0  0
  7  8  1  0  0  0  0
  7  9  1  0  0  0  0
 26 27  1  0  0  0  0
 26 28  1  0  0  0  0
 26 29  1  0  0  0  0
 24 25  1  0  0  0  0
 24 26  1  0  0  0  0
M  END
$$$$
default_name
  -OEChem-02102213163D

 29 28  0     1  0  0  0  0  0999 V2000
   -3.5781   -3.7296    1.2702 H   0  0  0  0  0  0  0  0  0  0  0  0
   -3.5311   -2.7616    0.7732 C   0  0  0  0  0  0  0  0  0  0  0  0
   -4.2371   -2.0766    1.2382 H   0  0  0  0  0  0  0  0  0  0  0  0
   -3.7681   -2.8816   -0.2818 H   0  0  0  0  0  0  0  0  0  0  0  0
   -2.1321   -2.2086    0.9112 C   0  0  0  0  0  0  0  0  0  0  0  0
   -1.2751   -2.8426    1.5112 O   0  0  0  0  0  0  0  0  0  0  0  0
   -1.9041   -1.0186    0.3602 N   0  0  0  0  0  0  0  0  0  0  0  0
   -2.6671   -0.5416   -0.0988 H   0  0  0  0  0  0  0  0  0  0  0  0
   -0.6131   -0.3236    0.3832 C   0  0  1  0  0  0  0  0  0  0  0  0
    0.0142   -0.7800    1.1506 H   0  0  0  0  0  0  0  0  0  0  0  0
    0.0816   -0.5059   -0.9788 C   0  0  0  0  0  0  0  0  0  0  0  0
   -0.6472   -0.3245   -1.7717 H   0  0  0  0  0  0  0  0  0  0  0  0
    0.8813    0.2298   -1.0762 H   0  0  0  0  0  0  0  0  0  0  0  0
    0.6754   -1.9047   -1.1811 C   0  0  0  0  0  0  0  0  0  0  0  0
    0.6690   -2.1454   -2.2437 H   0  0  0  0  0  0  0  0  0  0  0  0
    1.7074   -1.9014   -0.8284 H   0  0  0  0  0  0  0  0  0  0  0  0
   -0.2243   -3.2089   -0.3040 S   0  0  0  0  0  0  0  0  0  0  0  0
    0.1890   -2.7744    1.4055 C   0  0  0  0  0  0  0  0  0  0  0  0
   -0.1705   -1.7690    1.6264 H   0  0  0  0  0  0  0  0  0  0  0  0
   -0.2872   -3.4830    2.0837 H   0  0  0  0  0  0  0  0  0  0  0  0
    1.2696   -2.8156    1.5445 H   0  0  0  0  0  0  0  0  0  0  0  0
   -0.8064    1.1568    0.7414 C   0  0  0  0  0  0  0  0  0  0  0  0
   -1.6978    1.8100    0.2029 O   0  0  0  0  0  0  0  0  0  0  0  0
    0.0314    1.6872    1.6415 N   0  0  0  0  0  0  0  0  0  0  0  0
    0.7279    1.0858    2.0517 H   0  0  0  0  0  0  0  0  0  0  0  0
   -0.0137    3.0826    2.0755 C   0  0  0  0  0  0  0  0  0  0  0  0
   -0.9991    3.3070    2.4905 H   0  0  0  0  0  0  0  0  0  0  0  0
    0.7468    3.2694    2.8349 H   0  0  0  0  0  0  0  0  0  0  0  0
    0.1592    3.7397    1.2213 H   0  0  0  0  0  0  0  0  0  0  0  0
  5  6  2  0  0  0  0
  5  7  1  0  0  0  0
  2  3  1  0  0  0  0
  2  4  1  0  0  0  0
  2  5  1  0  0  0  0
  1  2  1  0  0  0  0
 22 23  2  0  0  0  0
 22 24  1  0  0  0  0
 18 19  1  0  0  0  0
 18 20  1  0  0  0  0
 18 21  1  0  0  0  0
 17 18  1  0  0  0  0
 14 15  1  0  0  0  0
 14 16  1  0  0  0  0
 14 17  1  0  0  0  0
 11 12  1  0  0  0  0
 11 13  1  0  0  0  0
 11 14  1  0  0  0  0
  9 10  1  0  0  0  0
  9 11  1  0  0  0  0
  9 22  1  0  0  0  0
  7  8  1  0  0  0  0
  7  9  1  0  0  0  0
 26 27  1  0  0  0  0
 26 28  1  0  0  0  0
 26 29  1  0  0  0  0
 24 25  1  0  0  0  0
 24 26  1  0  0  0  0
M  END
$$$$
default_name
  -OEChem-02102213163D

 29 28  0     1  0  0  0  0  0999 V2000
   -3.5781   -3.7296    1.2702 H   0  0  0  0  0  0  0  0  0  0  0  0
   -3.5311   -2.7616    0.7732 C   0  0  0  0  0  0  0  0  0  0  0  0
   -4.2371   -2.0766    1.2382 H   0  0  0  0  0  0  0  0  0  0  0  0
   -3.7681   -2.8816   -0.2818 H   0  0  0  0  0  0  0  0  0  0  0  0
   -2.1321   -2.2086    0.9112 C   0  0  0  0  0  0  0  0  0  0  0  0
   -1.2751   -2.8426    1.5112 O   0  0  0  0  0  0  0  0  0  0  0  0
   -1.9041   -1.0186    0.3602 N   0  0  0  0  0  0  0  0  0  0  0  0
   -2.6671   -0.5416   -0.0988 H   0  0  0  0  0  0  0  0  0  0  0  0
   -0.6131   -0.3236    0.3832 C   0  0  1  0  0  0  0  0  0  0  0  0
    0.0142   -0.7800    1.1506 H   0  0  0  0  0  0  0  0  0  0  0  0
    0.0816   -0.5059   -0.9788 C   0  0  0  0  0  0  0  0  0  0  0  0
   -0.6472   -0.3245   -1.7717 H   0  0  0  0  0  0  0  0  0  0  0  0
    0.8813    0.2298   -1.0762 H   0  0  0  0  0  0  0  0  0  0  0  0
    0.6754   -1.9047   -1.1811 C   0  0  0  0  0  0  0  0  0  0  0  0
    0.9167   -2.0416   -2.2347 H   0  0  0  0  0  0  0  0  0  0  0  0
    1.5937   -1.9830   -0.5980 H   0  0  0  0  0  0  0  0  0  0  0  0
   -0.4357   -3.2442   -0.6804 S   0  0  0  0  0  0  0  0  0  0  0  0
   -0.4315   -2.9957    1.1141 C   0  0  0  0  0  0  0  0  0  0  0  0
   -0.8109   -2.0006    1.3483 H   0  0  0  0  0  0  0  0  0  0  0  0
   -1.0709   -3.7435    1.5840 H   0  0  0  0  0  0  0  0  0  0  0  0
    0.5839   -3.0999    1.4975 H   0  0  0  0  0  0  0  0  0  0  0  0
   -0.8064    1.1568    0.7414 C   0  0  0  0  0  0  0  0  0  0  0  0
   -1.6978    1.8100    0.2029 O   0  0  0  0  0  0  0  0  0  0  0  0
    0.0314    1.6872    1.6415 N   0  0  0  0  0  0  0  0  0  0  0  0
    0.7279    1.0858    2.0517 H   0  0  0  0  0  0  0  0  0  0  0  0
   -0.0137    3.0826    2.0755 C   0  0  0  0  0  0  0  0  0  0  0  0
   -0.9991    3.3070    2.4905 H   0  0  0  0  0  0  0  0  0  0  0  0
    0.7468    3.2694    2.8349 H   0  0  0  0  0  0  0  0  0  0  0  0
    0.1592    3.7397    1.2213 H   0  0  0  0  0  0  0  0  0  0  0  0
  5  6  2  0  0  0  0
  5  7  1  0  0  0  0
  2  3  1  0  0  0  0
  2  4  1  0  0  0  0
  2  5  1  0  0  0  0
  1  2  1  0  0  0  0
 22 23  2  0  0  0  0
 22 24  1  0  0  0  0
 18 19  1  0  0  0  0
 18 20  1  0  0  0  0
 18 21  1  0  0  0  0
 17 18  1  0  0  0  0
 14 15  1  0  0  0  0
 14 16  1  0  0  0  0
 14 17  1  0  0  0  0
 11 12  1  0  0  0  0
 11 13  1  0  0  0  0
 11 14  1  0  0  0  0
  9 10  1  0  0  0  0
  9 11  1  0  0  0  0
  9 22  1  0  0  0  0
  7  8  1  0  0  0  0
  7  9  1  0  0  0  0
 26 27  1  0  0  0  0
 26 28  1  0  0  0  0
 26 29  1  0  0  0  0
 24 25  1  0  0  0  0
 24 26  1  0  0  0  0
M  END
$$$$
default_name
  -OEChem-02102213163D

 29 28  0     1  0  0  0  0  0999 V2000
   -3.5781   -3.7296    1.2702 H   0  0  0  0  0  0  0  0  0  0  0  0
   -3.5311   -2.7616    0.7732 C   0  0  0  0  0  0  0  0  0  0  0  0
   -4.2371   -2.0766    1.2382 H   0  0  0  0  0  0  0  0  0  0  0  0
   -3.7681   -2.8816   -0.2818 H   0  0  0  0  0  0  0  0  0  0  0  0
   -2.1321   -2.2086    0.9112 C   0  0  0  0  0  0  0  0  0  0  0  0
   -1.2751   -2.8426    1.5112 O   0  0  0  0  0  0  0  0  0  0  0  0
   -1.9041   -1.0186    0.3602 N   0  0  0  0  0  0  0  0  0  0  0  0
   -2.6671   -0.5416   -0.0988 H   0  0  0  0  0  0  0  0  0  0  0  0
   -0.6131   -0.3236    0.3832 C   0  0  1  0  0  0  0  0  0  0  0  0
    0.0142   -0.7800    1.1506 H   0  0  0  0  0  0  0  0  0  0  0  0
    0.0816   -0.5059   -0.9788 C   0  0  0  0  0  0  0  0  0  0  0  0
   -0.6472   -0.3245   -1.7717 H   0  0  0  0  0  0  0  0  0  0  0  0
    0.8813    0.2298   -1.0762 H   0  0  0  0  0  0  0  0  0  0  0  0
    0.6754   -1.9047   -1.1811 C   0  0  0  0  0  0  0  0  0  0  0  0
    1.1573   -1.9507   -2.1572 H   0  0  0  0  0  0  0  0  0  0  0  0
    1.4267   -2.0810   -0.4104 H   0  0  0  0  0  0  0  0  0  0  0  0
   -0.5522   -3.2334   -1.0974 S   0  0  0  0  0  0  0  0  0  0  0  0
   -0.9696   -3.1590    0.6639 C   0  0  0  0  0  0  0  0  0  0  0  0
   -1.3717   -2.1746    0.9052 H   0  0  0  0  0  0  0  0  0  0  0  0
   -1.7187   -3.9182    0.8902 H   0  0  0  0  0  0  0  0  0  0  0  0
   -0.0771   -3.3464    1.2616 H   0  0  0  0  0  0  0  0  0  0  0  0
   -0.8064    1.1568    0.7414 C   0  0  0  0  0  0  0  0  0  0  0  0
   -1.6978    1.8100    0.2029 O   0  0  0  0  0  0  0  0  0  0  0  0
    0.0314    1.6872    1.6415 N   0  0  0  0  0  0  0  0  0  0  0  0
    0.7279    1.0858    2.0517 H   0  0  0  0  0  0  0  0  0  0  0  0
   -0.0137    3.0826    2.0755 C   0  0  0  0  0  0  0  0  0  0  0  0
   -0.9991    3.3070    2.4905 H   0  0  0  0  0  0  0  0  0  0  0  0
    0.7468    3.2694    2.8349 H   0  0  0  0  0  0  0  0  0  0  0  0
    0.1592    3.7397    1.2213 H   0  0  0  0  0  0  0  0  0  0  0  0
  5  6  2  0  0  0  0
  5  7  1  0  0  0  0
  2  3  1  0  0  0  0
  2  4  1  0  0  0  0
  2  5  1  0  0  0  0
  1  2  1  0  0  0  0
 22 23  2  0  0  0  0
 22 24  1  0  0  0  0
 18 19  1  0  0  0  0
 18 20  1  0  0  0  0
 18 21  1  0  0  0  0
 17 18  1  0  0  0  0
 14 15  1  0  0  0  0
 14 16  1  0  0  0  0
 14 17  1  0  0  0  0
 11 12  1  0  0  0  0
 11 13  1  0  0  0  0
 11 14  1  0  0  0  0
  9 10  1  0  0  0  0
  9 11  1  0  0  0  0
  9 22  1  0  0  0  0
  7  8  1  0  0  0  0
  7  9  1  0  0  0  0
 26 27  1  0  0  0  0
 26 28  1  0  0  0  0
 26 29  1  0  0  0  0
 24 25  1  0  0  0  0
 24 26  1  0  0  0  0
M  END
$$$$
default_name
  -OEChem-02102213163D

 29 28  0     1  0  0  0  0  0999 V2000
   -3.5781   -3.7296    1.2702 H   0  0  0  0  0  0  0  0  0  0  0  0
   -3.5311   -2.7616    0.7732 C   0  0  0  0  0  0  0  0  0  0  0  0
   -4.2371   -2.0766    1.2382 H   0  0  0  0  0  0  0  0  0  0  0  0
   -3.7681   -2.8816   -0.2818 H   0  0  0  0  0  0  0  0  0  0  0  0
   -2.1321   -2.2086    0.9112 C   0  0  0  0  0  0  0  0  0  0  0  0
   -1.2751   -2.8426    1.5112 O   0  0  0  0  0  0  0  0  0  0  0  0
   -1.9041   -1.0186    0.3602 N   0  0  0  0  0  0  0  0  0  0  0  0
   -2.6671   -0.5416   -0.0988 H   0  0  0  0  0  0  0  0  0  0  0  0
   -0.6131   -0.3236    0.3832 C   0  0  1  0  0  0  0  0  0  0  0  0
    0.0142   -0.7800    1.1506 H   0  0  0  0  0  0  0  0  0  0  0  0
    0.0816   -0.5059   -0.9788 C   0  0  0  0  0  0  0  0  0  0  0  0
   -0.6472   -0.3245   -1.7717 H   0  0  0  0  0  0  0  0  0  0  0  0
    0.8813    0.2298   -1.0762 H   0  0  0  0  0  0  0  0  0  0  0  0
    0.6754   -1.9047   -1.1811 C   0  0  0  0  0  0  0  0  0  0  0  0
    1.3746   -1.8788   -2.0163 H   0  0  0  0  0  0  0  0  0  0  0  0
    1.2177   -2.1888   -0.2785 H   0  0  0  0  0  0  0  0  0  0  0  0
   -0.5660   -3.1772   -1.5266 S   0  0  0  0  0  0  0  0  0  0  0  0
   -1.3886   -3.2533    0.0856 C   0  0  0  0  0  0  0  0  0  0  0  0
   -1.8147   -2.2791    0.3273 H   0  0  0  0  0  0  0  0  0  0  0  0
   -2.1867   -3.9953    0.0495 H   0  0  0  0  0  0  0  0  0  0  0  0
   -0.6683   -3.5383    0.8530 H   0  0  0  0  0  0  0  0  0  0  0  0
   -0.8064    1.1568    0.7414 C   0  0  0  0  0  0  0  0  0  0  0  0
   -1.6978    1.8100    0.2029 O   0  0  0  0  0  0  0  0  0  0  0  0
    0.0314    1.6872    1.6415 N   0  0  0  0  0  0  0  0  0  0  0  0
    0.7279    1.0858    2.0517 H   0  0  0  0  0  0  0  0  0  0  0  0
   -0.0137    3.0826    2.0755 C   0  0  0  0  0  0  0  0  0  0  0  0
   -0.9991    3.3070    2.4905 H   0  0  0  0  0  0  0  0  0  0  0  0
    0.7468    3.2694    2.8349 H   0  0  0  0  0  0  0  0  0  0  0  0
    0.1592    3.7397    1.2213 H   0  0  0  0  0  0  0  0  0  0  0  0
  5  6  2  0  0  0  0
  5  7  1  0  0  0  0
  2  3  1  0  0  0  0
  2  4  1  0  0  0  0
  2  5  1  0  0  0  0
  1  2  1  0  0  0  0
 22 23  2  0  0  0  0
 22 24  1  0  0  0  0
 18 19  1  0  0  0  0
 18 20  1  0  0  0  0
 18 21  1  0  0  0  0
 17 18  1  0  0  0  0
 14 15  1  0  0  0  0
 14 16  1  0  0  0  0
 14 17  1  0  0  0  0
 11 12  1  0  0  0  0
 11 13  1  0  0  0  0
 11 14  1  0  0  0  0
  9 10  1  0  0  0  0
  9 11  1  0  0  0  0
  9 22  1  0  0  0  0
  7  8  1  0  0  0  0
  7  9  1  0  0  0  0
 26 27  1  0  0  0  0
 26 28  1  0  0  0  0
 26 29  1  0  0  0  0
 24 25  1  0  0  0  0
 24 26  1  0  0  0  0
M  END
$$$$
default_name
  -OEChem-02102213163D

 29 28  0     1  0  0  0  0  0999 V2000
   -3.5781   -3.7296    1.2702 H   0  0  0  0  0  0  0  0  0  0  0  0
   -3.5311   -2.7616    0.7732 C   0  0  0  0  0  0  0  0  0  0  0  0
   -4.2371   -2.0766    1.2382 H   0  0  0  0  0  0  0  0  0  0  0  0
   -3.7681   -2.8816   -0.2818 H   0  0  0  0  0  0  0  0  0  0  0  0
   -2.1321   -2.2086    0.9112 C   0  0  0  0  0  0  0  0  0  0  0  0
   -1.2751   -2.8426    1.5112 O   0  0  0  0  0  0  0  0  0  0  0  0
   -1.9041   -1.0186    0.3602 N   0  0  0  0  0  0  0  0  0  0  0  0
   -2.6671   -0.5416   -0.0988 H   0  0  0  0  0  0  0  0  0  0  0  0
   -0.6131   -0.3236    0.3832 C   0  0  1  0  0  0  0  0  0  0  0  0
    0.0142   -0.7800    1.1506 H   0  0  0  0  0  0  0  0  0  0  0  0
    0.0816   -0.5059   -0.9788 C   0  0  0  0  0  0  0  0  0  0  0  0
   -0.6472   -0.3245   -1.7717 H   0  0  0  0  0  0  0  0  0  0  0  0
    0.8813    0.2298   -1.0762 H   0  0  0  0  0  0  0  0  0  0  0  0
    0.6754   -1.9047   -1.1811 C   0  0  0  0  0  0  0  0  0  0  0  0
    1.5536   -1.8309   -1.8217 H   0  0  0  0  0  0  0  0  0  0  0  0
    0.9810   -2.2990   -0.2113 H   0  0  0  0  0  0  0  0  0  0  0  0
   -0.4759   -3.0794   -1.9388 S   0  0  0  0  0  0  0  0  0  0  0  0
   -1.6599   -3.2720   -0.5814 C   0  0  0  0  0  0  0  0  0  0  0  0
   -2.1097   -2.3070   -0.3460 H   0  0  0  0  0  0  0  0  0  0  0  0
   -2.4427   -3.9695   -0.8808 H   0  0  0  0  0  0  0  0  0  0  0  0
   -1.1494   -3.6625    0.2994 H   0  0  0  0  0  0  0  0  0  0  0  0
   -0.8064    1.1568    0.7414 C   0  0  0  0  0  0  0  0  0  0  0  0
   -1.6978    1.8100    0.2029 O   0  0  0  0  0  0  0  0  0  0  0  0
    0.0314    1.6872    1.6415 N   0  0  0  0  0  0  0  0  0  0  0  0
    0.7279    1.0858    2.0517 H   0  0  0  0  0  0  0  0  0  0  0  0
   -0.0137    3.0826    2.0755 C   0  0  0  0  0  0  0  0  0  0  0  0
   -0.9991    3.3070    2.4905 H   0  0  0  0  0  0  0  0  0  0  0  0
    0.7468    3.2694    2.8349 H   0  0  0  0  0  0  0  0  0  0  0  0
    0.1592    3.7397    1.2213 H   0  0  0  0  0  0  0  0  0  0  0  0
  5  6  2  0  0  0  0
  5  7  1  0  0  0  0
  2  3  1  0  0  0  0
  2  4  1  0  0  0  0
  2  5  1  0  0  0  0
  1  2  1  0  0  0  0
 22 23  2  0  0  0  0
 22 24  1  0  0  0  0
 18 19  1  0  0  0  0
 18 20  1  0  0  0  0
 18 21  1  0  0  0  0
 17 18  1  0  0  0  0
 14 15  1  0  0  0  0
 14 16  1  0  0  0  0
 14 17  1  0  0  0  0
 11 12  1  0  0  0  0
 11 13  1  0  0  0  0
 11 14  1  0  0  0  0
  9 10  1  0  0  0  0
  9 11  1  0  0  0  0
  9 22  1  0  0  0  0
  7  8  1  0  0  0  0
  7  9  1  0  0  0  0
 26 27  1  0  0  0  0
 26 28  1  0  0  0  0
 26 29  1  0  0  0  0
 24 25  1  0  0  0  0
 24 26  1  0  0  0  0
M  END
$$$$
default_name
  -OEChem-02102213163D

 29 28  0     1  0  0  0  0  0999 V2000
   -3.5781   -3.7296    1.2702 H   0  0  0  0  0  0  0  0  0  0  0  0
   -3.5311   -2.7616    0.7732 C   0  0  0  0  0  0  0  0  0  0  0  0
   -4.2371   -2.0766    1.2382 H   0  0  0  0  0  0  0  0  0  0  0  0
   -3.7681   -2.8816   -0.2818 H   0  0  0  0  0  0  0  0  0  0  0  0
   -2.1321   -2.2086    0.9112 C   0  0  0  0  0  0  0  0  0  0  0  0
   -1.2751   -2.8426    1.5112 O   0  0  0  0  0  0  0  0  0  0  0  0
   -1.9041   -1.0186    0.3602 N   0  0  0  0  0  0  0  0  0  0  0  0
   -2.6671   -0.5416   -0.0988 H   0  0  0  0  0  0  0  0  0  0  0  0
   -0.6131   -0.3236    0.3832 C   0  0  1  0  0  0  0  0  0  0  0  0
    0.0142   -0.7800    1.1506 H   0  0  0  0  0  0  0  0  0  0  0  0
    0.0816   -0.5059   -0.9788 C   0  0  0  0  0  0  0  0  0  0  0  0
   -0.6472   -0.3245   -1.7717 H   0  0  0  0  0  0  0  0  0  0  0  0
    0.8813    0.2298   -1.0762 H   0  0  0  0  0  0  0  0  0  0  0  0
    0.6754   -1.9047   -1.1811 C   0  0  0  0  0  0  0  0  0  0  0  0
    1.6822   -1.8103   -1.5867 H   0  0  0  0  0  0  0  0  0  0  0  0
    0.7327   -2.4041   -0.2133 H   0  0  0  0  0  0  0  0  0  0  0  0
   -0.2883   -2.9466   -2.3059 S   0  0  0  0  0  0  0  0  0  0  0  0
   -1.7652   -3.2140   -1.2916 C   0  0  0  0  0  0  0  0  0  0  0  0
   -2.2366   -2.2564   -1.0689 H   0  0  0  0  0  0  0  0  0  0  0  0
   -2.4695   -3.8426   -1.8373 H   0  0  0  0  0  0  0  0  0  0  0  0
   -1.4876   -3.7105   -0.3613 H   0  0  0  0  0  0  0  0  0  0  0  0
   -0.8064    1.1568    0.7414 C   0  0  0  0  0  0  0  0  0  0  0  0
   -1.6978    1.8100    0.2029 O   0  0  0  0  0  0  0  0  0  0  0  0
    0.0314    1.6872    1.6415 N   0  0  0  0  0  0  0  0  0  0  0  0
    0.7279    1.0858    2.0517 H   0  0  0  0  0  0  0  0  0  0  0  0
   -0.0137    3.0826    2.0755 C   0  0  0  0  0  0  0  0  0  0  0  0
   -0.9991    3.3070    2.4905 H   0  0  0  0  0  0  0  0  0  0  0  0
    0.7468    3.2694    2.8349 H   0  0  0  0  0  0  0  0  0  0  0  0
    0.1592    3.7397    1.2213 H   0  0  0  0  0  0  0  0  0  0  0  0
  5  6  2  0  0  0  0
  5  7  1  0  0  0  0
  2  3  1  0  0  0  0
  2  4  1  0  0  0  0
  2  5  1  0  0  0  0
  1  2  1  0  0  0  0
 22 23  2  0  0  0  0
 22 24  1  0  0  0  0
 18 19  1  0  0  0  0
 18 20  1  0  0  0  0
 18 21  1  0  0  0  0
 17 18  1  0  0  0  0
 14 15  1  0  0  0  0
 14 16  1  0  0  0  0
 14 17  1  0  0  0  0
 11 12  1  0  0  0  0
 11 13  1  0  0  0  0
 11 14  1  0  0  0  0
  9 10  1  0  0  0  0
  9 11  1  0  0  0  0
  9 22  1  0  0  0  0
  7  8  1  0  0  0  0
  7  9  1  0  0  0  0
 26 27  1  0  0  0  0
 26 28  1  0  0  0  0
 26 29  1  0  0  0  0
 24 25  1  0  0  0  0
 24 26  1  0  0  0  0
M  END
$$$$
default_name
  -OEChem-02102213163D

 29 28  0     1  0  0  0  0  0999 V2000
   -3.5781   -3.7296    1.2702 H   0  0  0  0  0  0  0  0  0  0  0  0
   -3.5311   -2.7616    0.7732 C   0  0  0  0  0  0  0  0  0  0  0  0
   -4.2371   -2.0766    1.2382 H   0  0  0  0  0  0  0  0  0  0  0  0
   -3.7681   -2.8816   -0.2818 H   0  0  0  0  0  0  0  0  0  0  0  0
   -2.1321   -2.2086    0.9112 C   0  0  0  0  0  0  0  0  0  0  0  0
   -1.2751   -2.8426    1.5112 O   0  0  0  0  0  0  0  0  0  0  0  0
   -1.9041   -1.0186    0.3602 N   0  0  0  0  0  0  0  0  0  0  0  0
   -2.6671   -0.5416   -0.0988 H   0  0  0  0  0  0  0  0  0  0  0  0
   -0.6131   -0.3236    0.3832 C   0  0  1  0  0  0  0  0  0  0  0  0
    0.0142   -0.7800    1.1506 H   0  0  0  0  0  0  0  0  0  0  0  0
    0.0816   -0.5059   -0.9788 C   0  0  0  0  0  0  0  0  0  0  0  0
   -0.6472   -0.3245   -1.7717 H   0  0  0  0  0  0  0  0  0  0  0  0
    0.8813    0.2298   -1.0762 H   0  0  0  0  0  0  0  0  0  0  0  0
    0.6754   -1.9047   -1.1811 C   0  0  0  0  0  0  0  0  0  0  0  0
    1.7517   -1.8184   -1.3273 H   0  0  0  0  0  0  0  0  0  0  0  0
    0.4897   -2.4970   -0.2844 H   0  0  0  0  0  0  0  0  0  0  0  0
   -0.0158   -2.7880   -2.6029 S   0  0  0  0  0  0  0  0  0  0  0  0
   -1.6972   -3.0832   -1.9966 C   0  0  0  0  0  0  0  0  0  0  0  0
   -2.1867   -2.1307   -1.7919 H   0  0  0  0  0  0  0  0  0  0  0  0
   -2.2651   -3.6232   -2.7547 H   0  0  0  0  0  0  0  0  0  0  0  0
   -1.6599   -3.6791   -1.0843 H   0  0  0  0  0  0  0  0  0  0  0  0
   -0.8064    1.1568    0.7414 C   0  0  0  0  0  0  0  0  0  0  0  0
   -1.6978    1.8100    0.2029 O   0  0  0  0  0  0  0  0  0  0  0  0
    0.0314    1.6872    1.6415 N   0  0  0  0  0  0  0  0  0  0  0  0
    0.7279    1.0858    2.0517 H   0  0  0  0  0  0  0  0  0  0  0  0
   -0.0137    3.0826    2.0755 C   0  0  0  0  0  0  0  0  0  0  0  0
   -0.9991    3.3070    2.4905 H   0  0  0  0  0  0  0  0  0  0  0  0
    0.7468    3.2694    2.8349 H   0  0  0  0  0  0  0  0  0  0  0  0
    0.1592    3.7397    1.2213 H   0  0  0  0  0  0  0  0  0  0  0  0
  5  6  2  0  0  0  0
  5  7  1  0  0  0  0
  2  3  1  0  0  0  0
  2  4  1  0  0  0  0
  2  5  1  0  0  0  0
  1  2  1  0  0  0  0
 22 23  2  0  0  0  0
 22 24  1  0  0  0  0
 18 19  1  0  0  0  0
 18 20  1  0  0  0  0
 18 21  1  0  0  0  0
 17 18  1  0  0  0  0
 14 15  1  0  0  0  0
 14 16  1  0  0  0  0
 14 17  1  0  0  0  0
 11 12  1  0  0  0  0
 11 13  1  0  0  0  0
 11 14  1  0  0  0  0
  9 10  1  0  0  0  0
  9 11  1  0  0  0  0
  9 22  1  0  0  0  0
  7  8  1  0  0  0  0
  7  9  1  0  0  0  0
 26 27  1  0  0  0  0
 26 28  1  0  0  0  0
 26 29  1  0  0  0  0
 24 25  1  0  0  0  0
 24 26  1  0  0  0  0
M  END
$$$$
default_name
  -OEChem-02102213163D

 29 28  0     1  0  0  0  0  0999 V2000
   -3.5781   -3.7296    1.2702 H   0  0  0  0  0  0  0  0  0  0  0  0
   -3.5311   -2.7616    0.7732 C   0  0  0  0  0  0  0  0  0  0  0  0
   -4.2371   -2.0766    1.2382 H   0  0  0  0  0  0  0  0  0  0  0  0
   -3.7681   -2.8816   -0.2818 H   0  0  0  0  0  0  0  0  0  0  0  0
   -2.1321   -2.2086    0.9112 C   0  0  0  0  0  0  0  0  0  0  0  0
   -1.2751   -2.8426    1.5112 O   0  0  0  0  0  0  0  0  0  0  0  0
   -1.9041   -1.0186    0.3602 N   0  0  0  0  0  0  0  0  0  0  0  0
   -2.6671   -0.5416   -0.0988 H   0  0  0  0  0  0  0  0  0  0  0  0
   -0.6131   -0.3236    0.3832 C   0  0  1  0  0  0  0  0  0  0  0  0
    0.0142   -0.7800    1.1506 H   0  0  0  0  0  0  0  0  0  0  0  0
    0.0816   -0.5059   -0.9788 C   0  0  0  0  0  0  0  0  0  0  0  0
   -0.6472   -0.3245   -1.7717 H   0  0  0  0  0  0  0  0  0  0  0  0
    0.8813    0.2298   -1.0762 H   0  0  0  0  0  0  0  0  0  0  0  0
    0.6754   -1.9047   -1.1811 C   0  0  0  0  0  0  0  0  0  0  0  0
    1.7572   -1.8545   -1.0611 H   0  0  0  0  0  0  0  0  0  0  0  0
    0.2687   -2.5713   -0.4197 H   0  0  0  0  0  0  0  0  0  0  0  0
    0.3230   -2.6144   -2.8095 S   0  0  0  0  0  0  0  0  0  0  0  0
   -1.4605   -2.8885   -2.6485 C   0  0  0  0  0  0  0  0  0  0  0  0
   -1.9635   -1.9384   -2.4660 H   0  0  0  0  0  0  0  0  0  0  0  0
   -1.8436   -3.3263   -3.5707 H   0  0  0  0  0  0  0  0  0  0  0  0
   -1.6545   -3.5705   -1.8201 H   0  0  0  0  0  0  0  0  0  0  0  0
   -0.8064    1.1568    0.7414 C   0  0  0  0  0  0  0  0  0  0  0  0
   -1.6978    1.8100    0.2029 O   0  0  0  0  0  0  0  0  0  0  0  0
    0.0314    1.6872    1.6415 N   0  0  0  0  0  0  0  0  0  0  0  0
    0.7279    1.0858    2.0517 H   0  0  0  0  0  0  0  0  0  0  0  0
   -0.0137    3.0826    2.0755 C   0  0  0  0  0  0  0  0  0  0  0  0
   -0.9991    3.3070    2.4905 H   0  0  0  0  0  0  0  0  0  0  0  0
    0.7468    3.2694    2.8349 H   0  0  0  0  0  0  0  0  0  0  0  0
    0.1592    3.7397    1.2213 H   0  0  0  0  0  0  0  0  0  0  0  0
  5  6  2  0  0  0  0
  5  7  1  0  0  0  0
  2  3  1  0  0  0  0
  2  4  1  0  0  0  0
  2  5  1  0  0  0  0
  1  2  1  0  0  0  0
 22 23  2  0  0  0  0
 22 24  1  0  0  0  0
 18 19  1  0  0  0  0
 18 20  1  0  0  0  0
 18 21  1  0  0  0  0
 17 18  1  0  0  0  0
 14 15  1  0  0  0  0
 14 16  1  0  0  0  0
 14 17  1  0  0  0  0
 11 12  1  0  0  0  0
 11 13  1  0  0  0  0
 11 14  1  0  0  0  0
  9 10  1  0  0  0  0
  9 11  1  0  0  0  0
  9 22  1  0  0  0  0
  7  8  1  0  0  0  0
  7  9  1  0  0  0  0
 26 27  1  0  0  0  0
 26 28  1  0  0  0  0
 26 29  1  0  0  0  0
 24 25  1  0  0  0  0
 24 26  1  0  0  0  0
M  END
$$$$
default_name
  -OEChem-02102213163D

 29 28  0     1  0  0  0  0  0999 V2000
   -3.5781   -3.7296    1.2702 H   0  0  0  0  0  0  0  0  0  0  0  0
   -3.5311   -2.7616    0.7732 C   0  0  0  0  0  0  0  0  0  0  0  0
   -4.2371   -2.0766    1.2382 H   0  0  0  0  0  0  0  0  0  0  0  0
   -3.7681   -2.8816   -0.2818 H   0  0  0  0  0  0  0  0  0  0  0  0
   -2.1321   -2.2086    0.9112 C   0  0  0  0  0  0  0  0  0  0  0  0
   -1.2751   -2.8426    1.5112 O   0  0  0  0  0  0  0  0  0  0  0  0
   -1.9041   -1.0186    0.3602 N   0  0  0  0  0  0  0  0  0  0  0  0
   -2.6671   -0.5416   -0.0988 H   0  0  0  0  0  0  0  0  0  0  0  0
   -0.6131   -0.3236    0.3832 C   0  0  1  0  0  0  0  0  0  0  0  0
    0.0142   -0.7800    1.1506 H   0  0  0  0  0  0  0  0  0  0  0  0
    0.0816   -0.5059   -0.9788 C   0  0  0  0  0  0  0  0  0  0  0  0
   -0.6472   -0.3245   -1.7717 H   0  0  0  0  0  0  0  0  0  0  0  0
    0.8813    0.2298   -1.0762 H   0  0  0  0  0  0  0  0  0  0  0  0
    0.6754   -1.9047   -1.1811 C   0  0  0  0  0  0  0  0  0  0  0  0
    1.6984   -1.9163   -0.8063 H   0  0  0  0  0  0  0  0  0  0  0  0
    0.0846   -2.6219   -0.6101 H   0  0  0  0  0  0  0  0  0  0  0  0
    0.7049   -2.4375   -2.9117 S   0  0  0  0  0  0  0  0  0  0  0  0
   -1.0713   -2.6432   -3.2027 C   0  0  0  0  0  0  0  0  0  0  0  0
   -1.5821   -1.6928   -3.0451 H   0  0  0  0  0  0  0  0  0  0  0  0
   -1.2335   -2.9720   -4.2295 H   0  0  0  0  0  0  0  0  0  0  0  0
   -1.4718   -3.3919   -2.5187 H   0  0  0  0  0  0  0  0  0  0  0  0
   -0.8064    1.1568    0.7414 C   0  0  0  0  0  0  0  0  0  0  0  0
   -1.6978    1.8100    0.2029 O   0  0  0  0  0  0  0  0  0  0  0  0
    0.0314    1.6872    1.6415 N   0  0  0  0  0  0  0  0  0  0  0  0
    0.7279    1.0858    2.0517 H   0  0  0  0  0  0  0  0  0  0  0  0
   -0.0137    3.0826    2.0755 C   0  0  0  0  0  0  0  0  0  0  0  0
   -0.9991    3.3070    2.4905 H   0  0  0  0  0  0  0  0  0  0  0  0
    0.7468    3.2694    2.8349 H   0  0  0  0  0  0  0  0  0  0  0  0
    0.1592    3.7397    1.2213 H   0  0  0  0  0  0  0  0  0  0  0  0
  5  6  2  0  0  0  0
  5  7  1  0  0  0  0
  2  3  1  0  0  0  0
  2  4  1  0  0  0  0
  2  5  1  0  0  0  0
  1  2  1  0  0  0  0
 22 23  2  0  0  0  0
 22 24  1  0  0  0  0
 18 19  1  0  0  0  0
 18 20  1  0  0  0  0
 18 21  1  0  0  0  0
 17 18  1  0  0  0  0
 14 15  1  0  0  0  0
 14 16  1  0  0  0  0
 14 17  1  0  0  0  0
 11 12  1  0  0  0  0
 11 13  1  0  0  0  0
 11 14  1  0  0  0  0
  9 10  1  0  0  0  0
  9 11  1  0  0  0  0
  9 22  1  0  0  0  0
  7  8  1  0  0  0  0
  7  9  1  0  0  0  0
 26 27  1  0  0  0  0
 26 28  1  0  0  0  0
 26 29  1  0  0  0  0
 24 25  1  0  0  0  0
 24 26  1  0  0  0  0
M  END
$$$$
default_name
  -OEChem-02102213163D

 29 28  0     1  0  0  0  0  0999 V2000
   -3.5781   -3.7296    1.2702 H   0  0  0  0  0  0  0  0  0  0  0  0
   -3.5311   -2.7616    0.7732 C   0  0  0  0  0  0  0  0  0  0  0  0
   -4.2371   -2.0766    1.2382 H   0  0  0  0  0  0  0  0  0  0  0  0
   -3.7681   -2.8816   -0.2818 H   0  0  0  0  0  0  0  0  0  0  0  0
   -2.1321   -2.2086    0.9112 C   0  0  0  0  0  0  0  0  0  0  0  0
   -1.2751   -2.8426    1.5112 O   0  0  0  0  0  0  0  0  0  0  0  0
   -1.9041   -1.0186    0.3602 N   0  0  0  0  0  0  0  0  0  0  0  0
   -2.6671   -0.5416   -0.0988 H   0  0  0  0  0  0  0  0  0  0  0  0
   -0.6131   -0.3236    0.3832 C   0  0  1  0  0  0  0  0  0  0  0  0
    0.0142   -0.7800    1.1506 H   0  0  0  0  0  0  0  0  0  0  0  0
    0.0816   -0.5059   -0.9788 C   0  0  0  0  0  0  0  0  0  0  0  0
   -0.6472   -0.3245   -1.7717 H   0  0  0  0  0  0  0  0  0  0  0  0
    0.8813    0.2298   -1.0762 H   0  0  0  0  0  0  0  0  0  0  0  0
    0.6754   -1.9047   -1.1811 C   0  0  0  0  0  0  0  0  0  0  0  0
    1.5794   -1.9995   -0.5802 H   0  0  0  0  0  0  0  0  0  0  0  0
   -0.0499   -2.6454   -0.8426 H   0  0  0  0  0  0  0  0  0  0  0  0
    1.1040   -2.2694   -2.9024 S   0  0  0  0  0  0  0  0  0  0  0  0
   -0.5560   -2.3639   -3.6215 C   0  0  0  0  0  0  0  0  0  0  0  0
   -1.0686   -1.4105   -3.4898 H   0  0  0  0  0  0  0  0  0  0  0  0
   -0.4766   -2.5847   -4.6863 H   0  0  0  0  0  0  0  0  0  0  0  0
   -1.1242   -3.1556   -3.1325 H   0  0  0  0  0  0  0  0  0  0  0  0
   -0.8064    1.1568    0.7414 C   0  0  0  0  0  0  0  0  0  0  0  0
   -1.6978    1.8100    0.2029 O   0  0  0  0  0  0  0  0  0  0  0  0
    0.0314    1.6872    1.6415 N   0  0  0  0  0  0  0  0  0  0  0  0
    0.7279    1.0858    2.0517 H   0  0  0  0  0  0  0  0  0  0  0  0
   -0.0137    3.0826    2.0755 C   0  0  0  0  0  0  0  0  0  0  0  0
   -0.9991    3.3070    2.4905 H   0  0  0  0  0  0  0  0  0  0  0  0
    0.7468    3.2694    2.8349 H   0  0  0  0  0  0  0  0  0  0  0  0
    0.1592    3.7397    1.2213 H   0  0  0  0  0  0  0  0  0  0  0  0
  5  6  2  0  0  0  0
  5  7  1  0  0  0  0
  2  3  1  0  0  0  0
  2  4  1  0  0  0  0
  2  5  1  0  0  0  0
  1  2  1  0  0  0  0
 22 23  2  0  0  0  0
 22 24  1  0  0  0  0
 18 19  1  0  0  0  0
 18 20  1  0  0  0  0
 18 21  1  0  0  0  0
 17 18  1  0  0  0  0
 14 15  1  0  0  0  0
 14 16  1  0  0  0  0
 14 17  1  0  0  0  0
 11 12  1  0  0  0  0
 11 13  1  0  0  0  0
 11 14  1  0  0  0  0
  9 10  1  0  0  0  0
  9 11  1  0  0  0  0
  9 22  1  0  0  0  0
  7  8  1  0  0  0  0
  7  9  1  0  0  0  0
 26 27  1  0  0  0  0
 26 28  1  0  0  0  0
 26 29  1  0  0  0  0
 24 25  1  0  0  0  0
 24 26  1  0  0  0  0
M  END
$$$$
default_name
  -OEChem-02102213163D

 29 28  0     1  0  0  0  0  0999 V2000
   -3.5781   -3.7296    1.2702 H   0  0  0  0  0  0  0  0  0  0  0  0
   -3.5311   -2.7616    0.7732 C   0  0  0  0  0  0  0  0  0  0  0  0
   -4.2371   -2.0766    1.2382 H   0  0  0  0  0  0  0  0  0  0  0  0
   -3.7681   -2.8816   -0.2818 H   0  0  0  0  0  0  0  0  0  0  0  0
   -2.1321   -2.2086    0.9112 C   0  0  0  0  0  0  0  0  0  0  0  0
   -1.2751   -2.8426    1.5112 O   0  0  0  0  0  0  0  0  0  0  0  0
   -1.9041   -1.0186    0.3602 N   0  0  0  0  0  0  0  0  0  0  0  0
   -2.6671   -0.5416   -0.0988 H   0  0  0  0  0  0  0  0  0  0  0  0
   -0.6131   -0.3236    0.3832 C   0  0  1  0  0  0  0  0  0  0  0  0
    0.0142   -0.7800    1.1506 H   0  0  0  0  0  0  0  0  0  0  0  0
    0.0816   -0.5059   -0.9788 C   0  0  0  0  0  0  0  0  0  0  0  0
   -0.5512   -0.0727   -1.7564 H   0  0  0  0  0  0  0  0  0  0  0  0
    1.0310    0.0315   -0.9733 H   0  0  0  0  0  0  0  0  0  0  0  0
    0.3505   -1.9718   -1.3378 C   0  0  0  0  0  0  0  0  0  0  0  0
    0.9848   -2.4168   -0.5717 H   0  0  0  0  0  0  0  0  0  0  0  0
   -0.5996   -2.5068   -1.3607 H   0  0  0  0  0  0  0  0  0  0  0  0
    1.1675   -2.1889   -2.9394 S   0  0  0  0  0  0  0  0  0  0  0  0
   -0.1761   -1.6819   -4.0437 C   0  0  0  0  0  0  0  0  0  0  0  0
   -0.4572   -0.6501   -3.8311 H   0  0  0  0  0  0  0  0  0  0  0  0
    0.1589   -1.7568   -5.0786 H   0  0  0  0  0  0  0  0  0  0  0  0
   -1.0380   -2.3337   -3.8976 H   0  0  0  0  0  0  0  0  0  0  0  0
   -0.8064    1.1568    0.7414 C   0  0  0  0  0  0  0  0  0  0  0  0
   -1.6978    1.8100    0.2029 O   0  0  0  0  0  0  0  0  0  0  0  0
    0.0314    1.6872    1.6415 N   0  0  0  0  0  0  0  0  0  0  0  0
    0.7279    1.0858    2.0517 H   0  0  0  0  0  0  0  0  0  0  0  0
   -0.0137    3.0826    2.0755 C   0  0  0  0  0  0  0  0  0  0  0  0
   -0.9991    3.3070    2.4905 H   0  0  0  0  0  0  0  0  0  0  0  0
    0.7468    3.2694    2.8349 H   0  0  0  0  0  0  0  0  0  0  0  0
    0.1592    3.7397    1.2213 H   0  0  0  0  0  0  0  0  0  0  0  0
  5  6  2  0  0  0  0
  5  7  1  0  0  0  0
  2  3  1  0  0  0  0
  2  4  1  0  0  0  0
  2  5  1  0  0  0  0
  1  2  1  0  0  0  0
 22 23  2  0  0  0  0
 22 24  1  0  0  0  0
 18 19  1  0  0  0  0
 18 20  1  0  0  0  0
 18 21  1  0  0  0  0
 17 18  1  0  0  0  0
 14 15  1  0  0  0  0
 14 16  1  0  0  0  0
 14 17  1  0  0  0  0
 11 12  1  0  0  0  0
 11 13  1  0  0  0  0
 11 14  1  0  0  0  0
  9 10  1  0  0  0  0
  9 11  1  0  0  0  0
  9 22  1  0  0  0  0
  7  8  1  0  0  0  0
  7  9  1  0  0  0  0
 26 27  1  0  0  0  0
 26 28  1  0  0  0  0
 26 29  1  0  0  0  0
 24 25  1  0  0  0  0
 24 26  1  0  0  0  0
M  END
$$$$
default_name
  -OEChem-02102213163D

 29 28  0     1  0  0  0  0  0999 V2000
   -3.5781   -3.7296    1.2702 H   0  0  0  0  0  0  0  0  0  0  0  0
   -3.5311   -2.7616    0.7732 C   0  0  0  0  0  0  0  0  0  0  0  0
   -4.2371   -2.0766    1.2382 H   0  0  0  0  0  0  0  0  0  0  0  0
   -3.7681   -2.8816   -0.2818 H   0  0  0  0  0  0  0  0  0  0  0  0
   -2.1321   -2.2086    0.9112 C   0  0  0  0  0  0  0  0  0  0  0  0
   -1.2751   -2.8426    1.5112 O   0  0  0  0  0  0  0  0  0  0  0  0
   -1.9041   -1.0186    0.3602 N   0  0  0  0  0  0  0  0  0  0  0  0
   -2.6671   -0.5416   -0.0988 H   0  0  0  0  0  0  0  0  0  0  0  0
   -0.6131   -0.3236    0.3832 C   0  0  1  0  0  0  0  0  0  0  0  0
    0.0142   -0.7800    1.1506 H   0  0  0  0  0  0  0  0  0  0  0  0
    0.0816   -0.5059   -0.9788 C   0  0  0  0  0  0  0  0  0  0  0  0
   -0.5512   -0.0727   -1.7564 H   0  0  0  0  0  0  0  0  0  0  0  0
    1.0310    0.0315   -0.9733 H   0  0  0  0  0  0  0  0  0  0  0  0
    0.3505   -1.9718   -1.3378 C   0  0  0  0  0  0  0  0  0  0  0  0
    0.7487   -2.4865   -0.4639 H   0  0  0  0  0  0  0  0  0  0  0  0
   -0.5918   -2.4414   -1.6221 H   0  0  0  0  0  0  0  0  0  0  0  0
    1.5273   -2.1819   -2.6982 S   0  0  0  0  0  0  0  0  0  0  0  0
    0.5307   -1.5456   -4.0708 C   0  0  0  0  0  0  0  0  0  0  0  0
    0.2625   -0.5062   -3.8795 H   0  0  0  0  0  0  0  0  0  0  0  0
    1.1081   -1.6034   -4.9938 H   0  0  0  0  0  0  0  0  0  0  0  0
   -0.3748   -2.1438   -4.1761 H   0  0  0  0  0  0  0  0  0  0  0  0
   -0.8064    1.1568    0.7414 C   0  0  0  0  0  0  0  0  0  0  0  0
   -1.6978    1.8100    0.2029 O   0  0  0  0  0  0  0  0  0  0  0  0
    0.0314    1.6872    1.6415 N   0  0  0  0  0  0  0  0  0  0  0  0
    0.7279    1.0858    2.0517 H   0  0  0  0  0  0  0  0  0  0  0  0
   -0.0137    3.0826    2.0755 C   0  0  0  0  0  0  0  0  0  0  0  0
   -0.9991    3.3070    2.4905 H   0  0  0  0  0  0  0  0  0  0  0  0
    0.7468    3.2694    2.8349 H   0  0  0  0  0  0  0  0  0  0  0  0
    0.1592    3.7397    1.2213 H   0  0  0  0  0  0  0  0  0  0  0  0
  5  6  2  0  0  0  0
  5  7  1  0  0  0  0
  2  3  1  0  0  0  0
  2  4  1  0  0  0  0
  2  5  1  0  0  0  0
  1  2  1  0  0  0  0
 22 23  2  0  0  0  0
 22 24  1  0  0  0  0
 18 19  1  0  0  0  0
 18 20  1  0  0  0  0
 18 21  1  0  0  0  0
 17 18  1  0  0  0  0
 14 15  1  0  0  0  0
 14 16  1  0  0  0  0
 14 17  1  0  0  0  0
 11 12  1  0  0  0  0
 11 13  1  0  0  0  0
 11 14  1  0  0  0  0
  9 10  1  0  0  0  0
  9 11  1  0  0  0  0
  9 22  1  0  0  0  0
  7  8  1  0  0  0  0
  7  9  1  0  0  0  0
 26 27  1  0  0  0  0
 26 28  1  0  0  0  0
 26 29  1  0  0  0  0
 24 25  1  0  0  0  0
 24 26  1  0  0  0  0
M  END
$$$$
default_name
  -OEChem-02102213163D

 29 28  0     1  0  0  0  0  0999 V2000
   -3.5781   -3.7296    1.2702 H   0  0  0  0  0  0  0  0  0  0  0  0
   -3.5311   -2.7616    0.7732 C   0  0  0  0  0  0  0  0  0  0  0  0
   -4.2371   -2.0766    1.2382 H   0  0  0  0  0  0  0  0  0  0  0  0
   -3.7681   -2.8816   -0.2818 H   0  0  0  0  0  0  0  0  0  0  0  0
   -2.1321   -2.2086    0.9112 C   0  0  0  0  0  0  0  0  0  0  0  0
   -1.2751   -2.8426    1.5112 O   0  0  0  0  0  0  0  0  0  0  0  0
   -1.9041   -1.0186    0.3602 N   0  0  0  0  0  0  0  0  0  0  0  0
   -2.6671   -0.5416   -0.0988 H   0  0  0  0  0  0  0  0  0  0  0  0
   -0.6131   -0.3236    0.3832 C   0  0  1  0  0  0  0  0  0  0  0  0
    0.0142   -0.7800    1.1506 H   0  0  0  0  0  0  0  0  0  0  0  0
    0.0816   -0.5059   -0.9788 C   0  0  0  0  0  0  0  0  0  0  0  0
   -0.5512   -0.0727   -1.7564 H   0  0  0  0  0  0  0  0  0  0  0  0
    1.0310    0.0315   -0.9733 H   0  0  0  0  0  0  0  0  0  0  0  0
    0.3505   -1.9718   -1.3378 C   0  0  0  0  0  0  0  0  0  0  0  0
    0.4898   -2.5444   -0.4213 H   0  0  0  0  0  0  0  0  0  0  0  0
   -0.5157   -2.3668   -1.8698 H   0  0  0  0  0  0  0  0  0  0  0  0
    1.8155   -2.2079   -2.3760 S   0  0  0  0  0  0  0  0  0  0  0  0
    1.2283   -1.4556   -3.9158 C   0  0  0  0  0  0  0  0  0  0  0  0
    0.9785   -0.4086   -3.7416 H   0  0  0  0  0  0  0  0  0  0  0  0
    2.0133   -1.5166   -4.6701 H   0  0  0  0  0  0  0  0  0  0  0  0
    0.3461   -1.9880   -4.2723 H   0  0  0  0  0  0  0  0  0  0  0  0
   -0.8064    1.1568    0.7414 C   0  0  0  0  0  0  0  0  0  0  0  0
   -1.6978    1.8100    0.2029 O   0  0  0  0  0  0  0  0  0  0  0  0
    0.0314    1.6872    1.6415 N   0  0  0  0  0  0  0  0  0  0  0  0
    0.7279    1.0858    2.0517 H   0  0  0  0  0  0  0  0  0  0  0  0
   -0.0137    3.0826    2.0755 C   0  0  0  0  0  0  0  0  0  0  0  0
   -0.9991    3.3070    2.4905 H   0  0  0  0  0  0  0  0  0  0  0  0
    0.7468    3.2694    2.8349 H   0  0  0  0  0  0  0  0  0  0  0  0
    0.1592    3.7397    1.2213 H   0  0  0  0  0  0  0  0  0  0  0  0
  5  6  2  0  0  0  0
  5  7  1  0  0  0  0
  2  3  1  0  0  0  0
  2  4  1  0  0  0  0
  2  5  1  0  0  0  0
  1  2  1  0  0  0  0
 22 23  2  0  0  0  0
 22 24  1  0  0  0  0
 18 19  1  0  0  0  0
 18 20  1  0  0  0  0
 18 21  1  0  0  0  0
 17 18  1  0  0  0  0
 14 15  1  0  0  0  0
 14 16  1  0  0  0  0
 14 17  1  0  0  0  0
 11 12  1  0  0  0  0
 11 13  1  0  0  0  0
 11 14  1  0  0  0  0
  9 10  1  0  0  0  0
  9 11  1  0  0  0  0
  9 22  1  0  0  0  0
  7  8  1  0  0  0  0
  7  9  1  0  0  0  0
 26 27  1  0  0  0  0
 26 28  1  0  0  0  0
 26 29  1  0  0  0  0
 24 25  1  0  0  0  0
 24 26  1  0  0  0  0
M  END
$$$$
default_name
  -OEChem-02102213163D

 29 28  0     1  0  0  0  0  0999 V2000
   -3.5781   -3.7296    1.2702 H   0  0  0  0  0  0  0  0  0  0  0  0
   -3.5311   -2.7616    0.7732 C   0  0  0  0  0  0  0  0  0  0  0  0
   -4.2371   -2.0766    1.2382 H   0  0  0  0  0  0  0  0  0  0  0  0
   -3.7681   -2.8816   -0.2818 H   0  0  0  0  0  0  0  0  0  0  0  0
   -2.1321   -2.2086    0.9112 C   0  0  0  0  0  0  0  0  0  0  0  0
   -1.2751   -2.8426    1.5112 O   0  0  0  0  0  0  0  0  0  0  0  0
   -1.9041   -1.0186    0.3602 N   0  0  0  0  0  0  0  0  0  0  0  0
   -2.6671   -0.5416   -0.0988 H   0  0  0  0  0  0  0  0  0  0  0  0
   -0.6131   -0.3236    0.3832 C   0  0  1  0  0  0  0  0  0  0  0  0
    0.0142   -0.7800    1.1506 H   0  0  0  0  0  0  0  0  0  0  0  0
    0.0816   -0.5059   -0.9788 C   0  0  0  0  0  0  0  0  0  0  0  0
   -0.5512   -0.0727   -1.7564 H   0  0  0  0  0  0  0  0  0  0  0  0
    1.0310    0.0315   -0.9733 H   0  0  0  0  0  0  0  0  0  0  0  0
    0.3505   -1.9718   -1.3378 C   0  0  0  0  0  0  0  0  0  0  0  0
    0.2257   -2.5866   -0.4469 H   0  0  0  0  0  0  0  0  0  0  0  0
   -0.3764   -2.2881   -2.0868 H   0  0  0  0  0  0  0  0  0  0  0  0
    2.0125   -2.2652   -1.9945 S   0  0  0  0  0  0  0  0  0  0  0  0
    1.8693   -1.4179   -3.5894 C   0  0  0  0  0  0  0  0  0  0  0  0
    1.6418   -0.3640   -3.4267 H   0  0  0  0  0  0  0  0  0  0  0  0
    2.8127   -1.5023   -4.1295 H   0  0  0  0  0  0  0  0  0  0  0  0
    1.0757   -1.8768   -4.1797 H   0  0  0  0  0  0  0  0  0  0  0  0
   -0.8064    1.1568    0.7414 C   0  0  0  0  0  0  0  0  0  0  0  0
   -1.6978    1.8100    0.2029 O   0  0  0  0  0  0  0  0  0  0  0  0
    0.0314    1.6872    1.6415 N   0  0  0  0  0  0  0  0  0  0  0  0
    0.7279    1.0858    2.0517 H   0  0  0  0  0  0  0  0  0  0  0  0
   -0.0137    3.0826    2.0755 C   0  0  0  0  0  0  0  0  0  0  0  0
   -0.9991    3.3070    2.4905 H   0  0  0  0  0  0  0  0  0  0  0  0
    0.7468    3.2694    2.8349 H   0  0  0  0  0  0  0  0  0  0  0  0
    0.1592    3.7397    1.2213 H   0  0  0  0  0  0  0  0  0  0  0  0
  5  6  2  0  0  0  0
  5  7  1  0  0  0  0
  2  3  1  0  0  0  0
  2  4  1  0  0  0  0
  2  5  1  0  0  0  0
  1  2  1  0  0  0  0
 22 23  2  0  0  0  0
 22 24  1  0  0  0  0
 18 19  1  0  0  0  0
 18 20  1  0  0  0  0
 18 21  1  0  0  0  0
 17 18  1  0  0  0  0
 14 15  1  0  0  0  0
 14 16  1  0  0  0  0
 14 17  1  0  0  0  0
 11 12  1  0  0  0  0
 11 13  1  0  0  0  0
 11 14  1  0  0  0  0
  9 10  1  0  0  0  0
  9 11  1  0  0  0  0
  9 22  1  0  0  0  0
  7  8  1  0  0  0  0
  7  9  1  0  0  0  0
 26 27  1  0  0  0  0
 26 28  1  0  0  0  0
 26 29  1  0  0  0  0
 24 25  1  0  0  0  0
 24 26  1  0  0  0  0
M  END
$$$$
default_name
  -OEChem-02102213163D

 29 28  0     1  0  0  0  0  0999 V2000
   -3.5781   -3.7296    1.2702 H   0  0  0  0  0  0  0  0  0  0  0  0
   -3.5311   -2.7616    0.7732 C   0  0  0  0  0  0  0  0  0  0  0  0
   -4.2371   -2.0766    1.2382 H   0  0  0  0  0  0  0  0  0  0  0  0
   -3.7681   -2.8816   -0.2818 H   0  0  0  0  0  0  0  0  0  0  0  0
   -2.1321   -2.2086    0.9112 C   0  0  0  0  0  0  0  0  0  0  0  0
   -1.2751   -2.8426    1.5112 O   0  0  0  0  0  0  0  0  0  0  0  0
   -1.9041   -1.0186    0.3602 N   0  0  0  0  0  0  0  0  0  0  0  0
   -2.6671   -0.5416   -0.0988 H   0  0  0  0  0  0  0  0  0  0  0  0
   -0.6131   -0.3236    0.3832 C   0  0  1  0  0  0  0  0  0  0  0  0
    0.0142   -0.7800    1.1506 H   0  0  0  0  0  0  0  0  0  0  0  0
    0.0816   -0.5059   -0.9788 C   0  0  0  0  0  0  0  0  0  0  0  0
   -0.5512   -0.0727   -1.7564 H   0  0  0  0  0  0  0  0  0  0  0  0
    1.0310    0.0315   -0.9733 H   0  0  0  0  0  0  0  0  0  0  0  0
    0.3505   -1.9718   -1.3378 C   0  0  0  0  0  0  0  0  0  0  0  0
   -0.0257   -2.6102   -0.5390 H   0  0  0  0  0  0  0  0  0  0  0  0
   -0.1833   -2.2106   -2.2583 H   0  0  0  0  0  0  0  0  0  0  0  0
    2.1050   -2.3497   -1.5799 S   0  0  0  0  0  0  0  0  0  0  0  0
    2.4100   -1.4352   -3.1137 C   0  0  0  0  0  0  0  0  0  0  0  0
    2.2074   -0.3754   -2.9564 H   0  0  0  0  0  0  0  0  0  0  0  0
    3.4520   -1.5615   -3.4087 H   0  0  0  0  0  0  0  0  0  0  0  0
    1.7644   -1.8178   -3.9047 H   0  0  0  0  0  0  0  0  0  0  0  0
   -0.8064    1.1568    0.7414 C   0  0  0  0  0  0  0  0  0  0  0  0
   -1.6978    1.8100    0.2029 O   0  0  0  0  0  0  0  0  0  0  0  0
    0.0314    1.6872    1.6415 N   0  0  0  0  0  0  0  0  0  0  0  0
    0.7279    1.0858    2.0517 H   0  0  0  0  0  0  0  0  0  0  0  0
   -0.0137    3.0826    2.0755 C   0  0  0  0  0  0  0  0  0  0  0  0
   -0.9991    3.3070    2.4905 H   0  0  0  0  0  0  0  0  0  0  0  0
    0.7468    3.2694    2.8349 H   0  0  0  0  0  0  0  0  0  0  0  0
    0.1592    3.7397    1.2213 H   0  0  0  0  0  0  0  0  0  0  0  0
  5  6  2  0  0  0  0
  5  7  1  0  0  0  0
  2  3  1  0  0  0  0
  2  4  1  0  0  0  0
  2  5  1  0  0  0  0
  1  2  1  0  0  0  0
 22 23  2  0  0  0  0
 22 24  1  0  0  0  0
 18 19  1  0  0  0  0
 18 20  1  0  0  0  0
 18 21  1  0  0  0  0
 17 18  1  0  0  0  0
 14 15  1  0  0  0  0
 14 16  1  0  0  0  0
 14 17  1  0  0  0  0
 11 12  1  0  0  0  0
 11 13  1  0  0  0  0
 11 14  1  0  0  0  0
  9 10  1  0  0  0  0
  9 11  1  0  0  0  0
  9 22  1  0  0  0  0
  7  8  1  0  0  0  0
  7  9  1  0  0  0  0
 26 27  1  0  0  0  0
 26 28  1  0  0  0  0
 26 29  1  0  0  0  0
 24 25  1  0  0  0  0
 24 26  1  0  0  0  0
M  END
$$$$
default_name
  -OEChem-02102213163D

 29 28  0     1  0  0  0  0  0999 V2000
   -3.5781   -3.7296    1.2702 H   0  0  0  0  0  0  0  0  0  0  0  0
   -3.5311   -2.7616    0.7732 C   0  0  0  0  0  0  0  0  0  0  0  0
   -4.2371   -2.0766    1.2382 H   0  0  0  0  0  0  0  0  0  0  0  0
   -3.7681   -2.8816   -0.2818 H   0  0  0  0  0  0  0  0  0  0  0  0
   -2.1321   -2.2086    0.9112 C   0  0  0  0  0  0  0  0  0  0  0  0
   -1.2751   -2.8426    1.5112 O   0  0  0  0  0  0  0  0  0  0  0  0
   -1.9041   -1.0186    0.3602 N   0  0  0  0  0  0  0  0  0  0  0  0
   -2.6671   -0.5416   -0.0988 H   0  0  0  0  0  0  0  0  0  0  0  0
   -0.6131   -0.3236    0.3832 C   0  0  1  0  0  0  0  0  0  0  0  0
    0.0142   -0.7800    1.1506 H   0  0  0  0  0  0  0  0  0  0  0  0
    0.0816   -0.5059   -0.9788 C   0  0  0  0  0  0  0  0  0  0  0  0
   -0.5512   -0.0727   -1.7564 H   0  0  0  0  0  0  0  0  0  0  0  0
    1.0310    0.0315   -0.9733 H   0  0  0  0  0  0  0  0  0  0  0  0
    0.3505   -1.9718   -1.3378 C   0  0  0  0  0  0  0  0  0  0  0  0
   -0.2471   -2.6135   -0.6911 H   0  0  0  0  0  0  0  0  0  0  0  0
    0.0503   -2.1398   -2.3727 H   0  0  0  0  0  0  0  0  0  0  0  0
    2.0866   -2.4558   -1.1604 S   0  0  0  0  0  0  0  0  0  0  0  0
    2.8134   -1.5063   -2.5212 C   0  0  0  0  0  0  0  0  0  0  0  0
    2.6365   -0.4421   -2.3626 H   0  0  0  0  0  0  0  0  0  0  0  0
    3.8876   -1.6902   -2.5570 H   0  0  0  0  0  0  0  0  0  0  0  0
    2.3650   -1.8151   -3.4659 H   0  0  0  0  0  0  0  0  0  0  0  0
   -0.8064    1.1568    0.7414 C   0  0  0  0  0  0  0  0  0  0  0  0
   -1.6978    1.8100    0.2029 O   0  0  0  0  0  0  0  0  0  0  0  0
    0.0314    1.6872    1.6415 N   0  0  0  0  0  0  0  0  0  0  0  0
    0.7279    1.0858    2.0517 H   0  0  0  0  0  0  0  0  0  0  0  0
   -0.0137    3.0826    2.0755 C   0  0  0  0  0  0  0  0  0  0  0  0
   -0.9991    3.3070    2.4905 H   0  0  0  0  0  0  0  0  0  0  0  0
    0.7468    3.2694    2.8349 H   0  0  0  0  0  0  0  0  0  0  0  0
    0.1592    3.7397    1.2213 H   0  0  0  0  0  0  0  0  0  0  0  0
  5  6  2  0  0  0  0
  5  7  1  0  0  0  0
  2  3  1  0  0  0  0
  2  4  1  0  0  0  0
  2  5  1  0  0  0  0
  1  2  1  0  0  0  0
 22 23  2  0  0  0  0
 22 24  1  0  0  0  0
 18 19  1  0  0  0  0
 18 20  1  0  0  0  0
 18 21  1  0  0  0  0
 17 18  1  0  0  0  0
 14 15  1  0  0  0  0
 14 16  1  0  0  0  0
 14 17  1  0  0  0  0
 11 12  1  0  0  0  0
 11 13  1  0  0  0  0
 11 14  1  0  0  0  0
  9 10  1  0  0  0  0
  9 11  1  0  0  0  0
  9 22  1  0  0  0  0
  7  8  1  0  0  0  0
  7  9  1  0  0  0  0
 26 27  1  0  0  0  0
 26 28  1  0  0  0  0
 26 29  1  0  0  0  0
 24 25  1  0  0  0  0
 24 26  1  0  0  0  0
M  END
$$$$
default_name
  -OEChem-02102213163D

 29 28  0     1  0  0  0  0  0999 V2000
   -3.5781   -3.7296    1.2702 H   0  0  0  0  0  0  0  0  0  0  0  0
   -3.5311   -2.7616    0.7732 C   0  0  0  0  0  0  0  0  0  0  0  0
   -4.2371   -2.0766    1.2382 H   0  0  0  0  0  0  0  0  0  0  0  0
   -3.7681   -2.8816   -0.2818 H   0  0  0  0  0  0  0  0  0  0  0  0
   -2.1321   -2.2086    0.9112 C   0  0  0  0  0  0  0  0  0  0  0  0
   -1.2751   -2.8426    1.5112 O   0  0  0  0  0  0  0  0  0  0  0  0
   -1.9041   -1.0186    0.3602 N   0  0  0  0  0  0  0  0  0  0  0  0
   -2.6671   -0.5416   -0.0988 H   0  0  0  0  0  0  0  0  0  0  0  0
   -0.6131   -0.3236    0.3832 C   0  0  1  0  0  0  0  0  0  0  0  0
    0.0142   -0.7800    1.1506 H   0  0  0  0  0  0  0  0  0  0  0  0
    0.0816   -0.5059   -0.9788 C   0  0  0  0  0  0  0  0  0  0  0  0
   -0.5512   -0.0727   -1.7564 H   0  0  0  0  0  0  0  0  0  0  0  0
    1.0310    0.0315   -0.9733 H   0  0  0  0  0  0  0  0  0  0  0  0
    0.3505   -1.9718   -1.3378 C   0  0  0  0  0  0  0  0  0  0  0  0
   -0.4235   -2.5965   -0.8931 H   0  0  0  0  0  0  0  0  0  0  0  0
    0.3086   -2.0803   -2.4222 H   0  0  0  0  0  0  0  0  0  0  0  0
    1.9586   -2.5762   -0.7646 S   0  0  0  0  0  0  0  0  0  0  0  0
    3.0522   -1.6262   -1.8523 C   0  0  0  0  0  0  0  0  0  0  0  0
    2.9000   -0.5594   -1.6859 H   0  0  0  0  0  0  0  0  0  0  0  0
    4.0897   -1.8795   -1.6324 H   0  0  0  0  0  0  0  0  0  0  0  0
    2.8368   -1.8687   -2.8933 H   0  0  0  0  0  0  0  0  0  0  0  0
   -0.8064    1.1568    0.7414 C   0  0  0  0  0  0  0  0  0  0  0  0
   -1.6978    1.8100    0.2029 O   0  0  0  0  0  0  0  0  0  0  0  0
    0.0314    1.6872    1.6415 N   0  0  0  0  0  0  0  0  0  0  0  0
    0.7279    1.0858    2.0517 H   0  0  0  0  0  0  0  0  0  0  0  0
   -0.0137    3.0826    2.0755 C   0  0  0  0  0  0  0  0  0  0  0  0
   -0.9991    3.3070    2.4905 H   0  0  0  0  0  0  0  0  0  0  0  0
    0.7468    3.2694    2.8349 H   0  0  0  0  0  0  0  0  0  0  0  0
    0.1592    3.7397    1.2213 H   0  0  0  0  0  0  0  0  0  0  0  0
  5  6  2  0  0  0  0
  5  7  1  0  0  0  0
  2  3  1  0  0  0  0
  2  4  1  0  0  0  0
  2  5  1  0  0  0  0
  1  2  1  0  0  0  0
 22 23  2  0  0  0  0
 22 24  1  0  0  0  0
 18 19  1  0  0  0  0
 18 20  1  0  0  0  0
 18 21  1  0  0  0  0
 17 18  1  0  0  0  0
 14 15  1  0  0  0  0
 14 16  1  0  0  0  0
 14 17  1  0  0  0  0
 11 12  1  0  0  0  0
 11 13  1  0  0  0  0
 11 14  1  0  0  0  0
  9 10  1  0  0  0  0
  9 11  1  0  0  0  0
  9 22  1  0  0  0  0
  7  8  1  0  0  0  0
  7  9  1  0  0  0  0
 26 27  1  0  0  0  0
 26 28  1  0  0  0  0
 26 29  1  0  0  0  0
 24 25  1  0  0  0  0
 24 26  1  0  0  0  0
M  END
$$$$
default_name
  -OEChem-02102213163D

 29 28  0     1  0  0  0  0  0999 V2000
   -3.5781   -3.7296    1.2702 H   0  0  0  0  0  0  0  0  0  0  0  0
   -3.5311   -2.7616    0.7732 C   0  0  0  0  0  0  0  0  0  0  0  0
   -4.2371   -2.0766    1.2382 H   0  0  0  0  0  0  0  0  0  0  0  0
   -3.7681   -2.8816   -0.2818 H   0  0  0  0  0  0  0  0  0  0  0  0
   -2.1321   -2.2086    0.9112 C   0  0  0  0  0  0  0  0  0  0  0  0
   -1.2751   -2.8426    1.5112 O   0  0  0  0  0  0  0  0  0  0  0  0
   -1.9041   -1.0186    0.3602 N   0  0  0  0  0  0  0  0  0  0  0  0
   -2.6671   -0.5416   -0.0988 H   0  0  0  0  0  0  0  0  0  0  0  0
   -0.6131   -0.3236    0.3832 C   0  0  1  0  0  0  0  0  0  0  0  0
    0.0142   -0.7800    1.1506 H   0  0  0  0  0  0  0  0  0  0  0  0
    0.0816   -0.5059   -0.9788 C   0  0  0  0  0  0  0  0  0  0  0  0
   -0.5512   -0.0727   -1.7564 H   0  0  0  0  0  0  0  0  0  0  0  0
    1.0310    0.0315   -0.9733 H   0  0  0  0  0  0  0  0  0  0  0  0
    0.3505   -1.9718   -1.3378 C   0  0  0  0  0  0  0  0  0  0  0  0
   -0.5429   -2.5601   -1.1310 H   0  0  0  0  0  0  0  0  0  0  0  0
    0.5740   -2.0362   -2.4033 H   0  0  0  0  0  0  0  0  0  0  0  0
    1.7296   -2.7028   -0.4193 S   0  0  0  0  0  0  0  0  0  0  0  0
    3.1100   -1.7870   -1.1526 C   0  0  0  0  0  0  0  0  0  0  0  0
    2.9800   -0.7194   -0.9724 H   0  0  0  0  0  0  0  0  0  0  0  0
    4.0446   -2.1166   -0.6978 H   0  0  0  0  0  0  0  0  0  0  0  0
    3.1475   -1.9751   -2.2259 H   0  0  0  0  0  0  0  0  0  0  0  0
   -0.8064    1.1568    0.7414 C   0  0  0  0  0  0  0  0  0  0  0  0
   -1.6978    1.8100    0.2029 O   0  0  0  0  0  0  0  0  0  0  0  0
    0.0314    1.6872    1.6415 N   0  0  0  0  0  0  0  0  0  0  0  0
    0.7279    1.0858    2.0517 H   0  0  0  0  0  0  0  0  0  0  0  0
   -0.0137    3.0826    2.0755 C   0  0  0  0  0  0  0  0  0  0  0  0
   -0.9991    3.3070    2.4905 H   0  0  0  0  0  0  0  0  0  0  0  0
    0.7468    3.2694    2.8349 H   0  0  0  0  0  0  0  0  0  0  0  0
    0.1592    3.7397    1.2213 H   0  0  0  0  0  0  0  0  0  0  0  0
  5  6  2  0  0  0  0
  5  7  1  0  0  0  0
  2  3  1  0  0  0  0
  2  4  1  0  0  0  0
  2  5  1  0  0  0  0
  1  2  1  0  0  0  0
 22 23  2  0  0  0  0
 22 24  1  0  0  0  0
 18 19  1  0  0  0  0
 18 20  1  0  0  0  0
 18 21  1  0  0  0  0
 17 18  1  0  0  0  0
 14 15  1  0  0  0  0
 14 16  1  0  0  0  0
 14 17  1  0  0  0  0
 11 12  1  0  0  0  0
 11 13  1  0  0  0  0
 11 14  1  0  0  0  0
  9 10  1  0  0  0  0
  9 11  1  0  0  0  0
  9 22  1  0  0  0  0
  7  8  1  0  0  0  0
  7  9  1  0  0  0  0
 26 27  1  0  0  0  0
 26 28  1  0  0  0  0
 26 29  1  0  0  0  0
 24 25  1  0  0  0  0
 24 26  1  0  0  0  0
M  END
$$$$
default_name
  -OEChem-02102213163D

 29 28  0     1  0  0  0  0  0999 V2000
   -3.5781   -3.7296    1.2702 H   0  0  0  0  0  0  0  0  0  0  0  0
   -3.5311   -2.7616    0.7732 C   0  0  0  0  0  0  0  0  0  0  0  0
   -4.2371   -2.0766    1.2382 H   0  0  0  0  0  0  0  0  0  0  0  0
   -3.7681   -2.8816   -0.2818 H   0  0  0  0  0  0  0  0  0  0  0  0
   -2.1321   -2.2086    0.9112 C   0  0  0  0  0  0  0  0  0  0  0  0
   -1.2751   -2.8426    1.5112 O   0  0  0  0  0  0  0  0  0  0  0  0
   -1.9041   -1.0186    0.3602 N   0  0  0  0  0  0  0  0  0  0  0  0
   -2.6671   -0.5416   -0.0988 H   0  0  0  0  0  0  0  0  0  0  0  0
   -0.6131   -0.3236    0.3832 C   0  0  1  0  0  0  0  0  0  0  0  0
    0.0142   -0.7800    1.1506 H   0  0  0  0  0  0  0  0  0  0  0  0
    0.0816   -0.5059   -0.9788 C   0  0  0  0  0  0  0  0  0  0  0  0
   -0.5512   -0.0727   -1.7564 H   0  0  0  0  0  0  0  0  0  0  0  0
    1.0310    0.0315   -0.9733 H   0  0  0  0  0  0  0  0  0  0  0  0
    0.3505   -1.9718   -1.3378 C   0  0  0  0  0  0  0  0  0  0  0  0
   -0.5972   -2.5070   -1.3887 H   0  0  0  0  0  0  0  0  0  0  0  0
    0.8282   -2.0106   -2.3174 H   0  0  0  0  0  0  0  0  0  0  0  0
    1.4154   -2.8268   -0.1483 S   0  0  0  0  0  0  0  0  0  0  0  0
    2.9829   -1.9775   -0.4696 C   0  0  0  0  0  0  0  0  0  0  0  0
    2.8710   -0.9113   -0.2706 H   0  0  0  0  0  0  0  0  0  0  0  0
    3.7553   -2.3853    0.1830 H   0  0  0  0  0  0  0  0  0  0  0  0
    3.2760   -2.1271   -1.5092 H   0  0  0  0  0  0  0  0  0  0  0  0
   -0.8064    1.1568    0.7414 C   0  0  0  0  0  0  0  0  0  0  0  0
   -1.6978    1.8100    0.2029 O   0  0  0  0  0  0  0  0  0  0  0  0
    0.0314    1.6872    1.6415 N   0  0  0  0  0  0  0  0  0  0  0  0
    0.7279    1.0858    2.0517 H   0  0  0  0  0  0  0  0  0  0  0  0
   -0.0137    3.0826    2.0755 C   0  0  0  0  0  0  0  0  0  0  0  0
   -0.9991    3.3070    2.4905 H   0  0  0  0  0  0  0  0  0  0  0  0
    0.7468    3.2694    2.8349 H   0  0  0  0  0  0  0  0  0  0  0  0
    0.1592    3.7397    1.2213 H   0  0  0  0  0  0  0  0  0  0  0  0
  5  6  2  0  0  0  0
  5  7  1  0  0  0  0
  2  3  1  0  0  0  0
  2  4  1  0  0  0  0
  2  5  1  0  0  0  0
  1  2  1  0  0  0  0
 22 23  2  0  0  0  0
 22 24  1  0  0  0  0
 18 19  1  0  0  0  0
 18 20  1  0  0  0  0
 18 21  1  0  0  0  0
 17 18  1  0  0  0  0
 14 15  1  0  0  0  0
 14 16  1  0  0  0  0
 14 17  1  0  0  0  0
 11 12  1  0  0  0  0
 11 13  1  0  0  0  0
 11 14  1  0  0  0  0
  9 10  1  0  0  0  0
  9 11  1  0  0  0  0
  9 22  1  0  0  0  0
  7  8  1  0  0  0  0
  7  9  1  0  0  0  0
 26 27  1  0  0  0  0
 26 28  1  0  0  0  0
 26 29  1  0  0  0  0
 24 25  1  0  0  0  0
 24 26  1  0  0  0  0
M  END
$$$$
default_name
  -OEChem-02102213163D

 29 28  0     1  0  0  0  0  0999 V2000
   -3.5781   -3.7296    1.2702 H   0  0  0  0  0  0  0  0  0  0  0  0
   -3.5311   -2.7616    0.7732 C   0  0  0  0  0  0  0  0  0  0  0  0
   -4.2371   -2.0766    1.2382 H   0  0  0  0  0  0  0  0  0  0  0  0
   -3.7681   -2.8816   -0.2818 H   0  0  0  0  0  0  0  0  0  0  0  0
   -2.1321   -2.2086    0.9112 C   0  0  0  0  0  0  0  0  0  0  0  0
   -1.2751   -2.8426    1.5112 O   0  0  0  0  0  0  0  0  0  0  0  0
   -1.9041   -1.0186    0.3602 N   0  0  0  0  0  0  0  0  0  0  0  0
   -2.6671   -0.5416   -0.0988 H   0  0  0  0  0  0  0  0  0  0  0  0
   -0.6131   -0.3236    0.3832 C   0  0  1  0  0  0  0  0  0  0  0  0
    0.0142   -0.7800    1.1506 H   0  0  0  0  0  0  0  0  0  0  0  0
    0.0816   -0.5059   -0.9788 C   0  0  0  0  0  0  0  0  0  0  0  0
   -0.5512   -0.0727   -1.7564 H   0  0  0  0  0  0  0  0  0  0  0  0
    1.0310    0.0315   -0.9733 H   0  0  0  0  0  0  0  0  0  0  0  0
    0.3505   -1.9718   -1.3378 C   0  0  0  0  0  0  0  0  0  0  0  0
   -0.5826   -2.4406   -1.6487 H   0  0  0  0  0  0  0  0  0  0  0  0
    1.0542   -2.0052   -2.1704 H   0  0  0  0  0  0  0  0  0  0  0  0
    1.0372   -2.9398    0.0301 S   0  0  0  0  0  0  0  0  0  0  0  0
    2.6796   -2.1848    0.1499 C   0  0  0  0  0  0  0  0  0  0  0  0
    2.5803   -1.1218    0.3715 H   0  0  0  0  0  0  0  0  0  0  0  0
    3.2417   -2.6673    0.9500 H   0  0  0  0  0  0  0  0  0  0  0  0
    3.2135   -2.3141   -0.7919 H   0  0  0  0  0  0  0  0  0  0  0  0
   -0.8064    1.1568    0.7414 C   0  0  0  0  0  0  0  0  0  0  0  0
   -1.6978    1.8100    0.2029 O   0  0  0  0  0  0  0  0  0  0  0  0
    0.0314    1.6872    1.6415 N   0  0  0  0  0  0  0  0  0  0  0  0
    0.7279    1.0858    2.0517 H   0  0  0  0  0  0  0  0  0  0  0  0
   -0.0137    3.0826    2.0755 C   0  0  0  0  0  0  0  0  0  0  0  0
   -0.9991    3.3070    2.4905 H   0  0  0  0  0  0  0  0  0  0  0  0
    0.7468    3.2694    2.8349 H   0  0  0  0  0  0  0  0  0  0  0  0
    0.1592    3.7397    1.2213 H   0  0  0  0  0  0  0  0  0  0  0  0
  5  6  2  0  0  0  0
  5  7  1  0  0  0  0
  2  3  1  0  0  0  0
  2  4  1  0  0  0  0
  2  5  1  0  0  0  0
  1  2  1  0  0  0  0
 22 23  2  0  0  0  0
 22 24  1  0  0  0  0
 18 19  1  0  0  0  0
 18 20  1  0  0  0  0
 18 21  1  0  0  0  0
 17 18  1  0  0  0  0
 14 15  1  0  0  0  0
 14 16  1  0  0  0  0
 14 17  1  0  0  0  0
 11 12  1  0  0  0  0
 11 13  1  0  0  0  0
 11 14  1  0  0  0  0
  9 10  1  0  0  0  0
  9 11  1  0  0  0  0
  9 22  1  0  0  0  0
  7  8  1  0  0  0  0
  7  9  1  0  0  0  0
 26 27  1  0  0  0  0
 26 28  1  0  0  0  0
 26 29  1  0  0  0  0
 24 25  1  0  0  0  0
 24 26  1  0  0  0  0
M  END
$$$$
default_name
  -OEChem-02102213163D

 29 28  0     1  0  0  0  0  0999 V2000
   -3.5781   -3.7296    1.2702 H   0  0  0  0  0  0  0  0  0  0  0  0
   -3.5311   -2.7616    0.7732 C   0  0  0  0  0  0  0  0  0  0  0  0
   -4.2371   -2.0766    1.2382 H   0  0  0  0  0  0  0  0  0  0  0  0
   -3.7681   -2.8816   -0.2818 H   0  0  0  0  0  0  0  0  0  0  0  0
   -2.1321   -2.2086    0.9112 C   0  0  0  0  0  0  0  0  0  0  0  0
   -1.2751   -2.8426    1.5112 O   0  0  0  0  0  0  0  0  0  0  0  0
   -1.9041   -1.0186    0.3602 N   0  0  0  0  0  0  0  0  0  0  0  0
   -2.6671   -0.5416   -0.0988 H   0  0  0  0  0  0  0  0  0  0  0  0
   -0.6131   -0.3236    0.3832 C   0  0  1  0  0  0  0  0  0  0  0  0
    0.0142   -0.7800    1.1506 H   0  0  0  0  0  0  0  0  0  0  0  0
    0.0816   -0.5059   -0.9788 C   0  0  0  0  0  0  0  0  0  0  0  0
   -0.5512   -0.0727   -1.7564 H   0  0  0  0  0  0  0  0  0  0  0  0
    1.0310    0.0315   -0.9733 H   0  0  0  0  0  0  0  0  0  0  0  0
    0.3505   -1.9718   -1.3378 C   0  0  0  0  0  0  0  0  0  0  0  0
   -0.5001   -2.3656   -1.8932 H   0  0  0  0  0  0  0  0  0  0  0  0
    1.2363   -2.0203   -1.9722 H   0  0  0  0  0  0  0  0  0  0  0  0
    0.6210   -3.0342    0.1037 S   0  0  0  0  0  0  0  0  0  0  0  0
    2.2207   -2.3949    0.6639 C   0  0  0  0  0  0  0  0  0  0  0  0
    2.1279   -1.3367    0.9103 H   0  0  0  0  0  0  0  0  0  0  0  0
    2.5386   -2.9434    1.5509 H   0  0  0  0  0  0  0  0  0  0  0  0
    2.9643   -2.5236   -0.1231 H   0  0  0  0  0  0  0  0  0  0  0  0
   -0.8064    1.1568    0.7414 C   0  0  0  0  0  0  0  0  0  0  0  0
   -1.6978    1.8100    0.2029 O   0  0  0  0  0  0  0  0  0  0  0  0
    0.0314    1.6872    1.6415 N   0  0  0  0  0  0  0  0  0  0  0  0
    0.7279    1.0858    2.0517 H   0  0  0  0  0  0  0  0  0  0  0  0
   -0.0137    3.0826    2.0755 C   0  0  0  0  0  0  0  0  0  0  0  0
   -0.9991    3.3070    2.4905 H   0  0  0  0  0  0  0  0  0  0  0  0
    0.7468    3.2694    2.8349 H   0  0  0  0  0  0  0  0  0  0  0  0
    0.1592    3.7397    1.2213 H   0  0  0  0  0  0  0  0  0  0  0  0
  5  6  2  0  0  0  0
  5  7  1  0  0  0  0
  2  3  1  0  0  0  0
  2  4  1  0  0  0  0
  2  5  1  0  0  0  0
  1  2  1  0  0  0  0
 22 23  2  0  0  0  0
 22 24  1  0  0  0  0
 18 19  1  0  0  0  0
 18 20  1  0  0  0  0
 18 21  1  0  0  0  0
 17 18  1  0  0  0  0
 14 15  1  0  0  0  0
 14 16  1  0  0  0  0
 14 17  1  0  0  0  0
 11 12  1  0  0  0  0
 11 13  1  0  0  0  0
 11 14  1  0  0  0  0
  9 10  1  0  0  0  0
  9 11  1  0  0  0  0
  9 22  1  0  0  0  0
  7  8  1  0  0  0  0
  7  9  1  0  0  0  0
 26 27  1  0  0  0  0
 26 28  1  0  0  0  0
 26 29  1  0  0  0  0
 24 25  1  0  0  0  0
 24 26  1  0  0  0  0
M  END
$$$$
default_name
  -OEChem-02102213163D

 29 28  0     1  0  0  0  0  0999 V2000
   -3.5781   -3.7296    1.2702 H   0  0  0  0  0  0  0  0  0  0  0  0
   -3.5311   -2.7616    0.7732 C   0  0  0  0  0  0  0  0  0  0  0  0
   -4.2371   -2.0766    1.2382 H   0  0  0  0  0  0  0  0  0  0  0  0
   -3.7681   -2.8816   -0.2818 H   0  0  0  0  0  0  0  0  0  0  0  0
   -2.1321   -2.2086    0.9112 C   0  0  0  0  0  0  0  0  0  0  0  0
   -1.2751   -2.8426    1.5112 O   0  0  0  0  0  0  0  0  0  0  0  0
   -1.9041   -1.0186    0.3602 N   0  0  0  0  0  0  0  0  0  0  0  0
   -2.6671   -0.5416   -0.0988 H   0  0  0  0  0  0  0  0  0  0  0  0
   -0.6131   -0.3236    0.3832 C   0  0  1  0  0  0  0  0  0  0  0  0
    0.0142   -0.7800    1.1506 H   0  0  0  0  0  0  0  0  0  0  0  0
    0.0816   -0.5059   -0.9788 C   0  0  0  0  0  0  0  0  0  0  0  0
   -0.5512   -0.0727   -1.7564 H   0  0  0  0  0  0  0  0  0  0  0  0
    1.0310    0.0315   -0.9733 H   0  0  0  0  0  0  0  0  0  0  0  0
    0.3505   -1.9718   -1.3378 C   0  0  0  0  0  0  0  0  0  0  0  0
   -0.3554   -2.2871   -2.1055 H   0  0  0  0  0  0  0  0  0  0  0  0
    1.3623   -2.0549   -1.7363 H   0  0  0  0  0  0  0  0  0  0  0  0
    0.1949   -3.1035    0.0675 S   0  0  0  0  0  0  0  0  0  0  0  0
    1.6375   -2.5933    1.0372 C   0  0  0  0  0  0  0  0  0  0  0  0
    1.5445   -1.5414    1.3090 H   0  0  0  0  0  0  0  0  0  0  0  0
    1.6940   -3.1948    1.9448 H   0  0  0  0  0  0  0  0  0  0  0  0
    2.5454   -2.7412    0.4517 H   0  0  0  0  0  0  0  0  0  0  0  0
   -0.8064    1.1568    0.7414 C   0  0  0  0  0  0  0  0  0  0  0  0
   -1.6978    1.8100    0.2029 O   0  0  0  0  0  0  0  0  0  0  0  0
    0.0314    1.6872    1.6415 N   0  0  0  0  0  0  0  0  0  0  0  0
    0.7279    1.0858    2.0517 H   0  0  0  0  0  0  0  0  0  0  0  0
   -0.0137    3.0826    2.0755 C   0  0  0  0  0  0  0  0  0  0  0  0
   -0.9991    3.3070    2.4905 H   0  0  0  0  0  0  0  0  0  0  0  0
    0.7468    3.2694    2.8349 H   0  0  0  0  0  0  0  0  0  0  0  0
    0.1592    3.7397    1.2213 H   0  0  0  0  0  0  0  0  0  0  0  0
  5  6  2  0  0  0  0
  5  7  1  0  0  0  0
  2  3  1  0  0  0  0
  2  4  1  0  0  0  0
  2  5  1  0  0  0  0
  1  2  1  0  0  0  0
 22 23  2  0  0  0  0
 22 24  1  0  0  0  0
 18 19  1  0  0  0  0
 18 20  1  0  0  0  0
 18 21  1  0  0  0  0
 17 18  1  0  0  0  0
 14 15  1  0  0  0  0
 14 16  1  0  0  0  0
 14 17  1  0  0  0  0
 11 12  1  0  0  0  0
 11 13  1  0  0  0  0
 11 14  1  0  0  0  0
  9 10  1  0  0  0  0
  9 11  1  0  0  0  0
  9 22  1  0  0  0  0
  7  8  1  0  0  0  0
  7  9  1  0  0  0  0
 26 27  1  0  0  0  0
 26 28  1  0  0  0  0
 26 29  1  0  0  0  0
 24 25  1  0  0  0  0
 24 26  1  0  0  0  0
M  END
$$$$
default_name
  -OEChem-02102213163D

 29 28  0     1  0  0  0  0  0999 V2000
   -3.5781   -3.7296    1.2702 H   0  0  0  0  0  0  0  0  0  0  0  0
   -3.5311   -2.7616    0.7732 C   0  0  0  0  0  0  0  0  0  0  0  0
   -4.2371   -2.0766    1.2382 H   0  0  0  0  0  0  0  0  0  0  0  0
   -3.7681   -2.8816   -0.2818 H   0  0  0  0  0  0  0  0  0  0  0  0
   -2.1321   -2.2086    0.9112 C   0  0  0  0  0  0  0  0  0  0  0  0
   -1.2751   -2.8426    1.5112 O   0  0  0  0  0  0  0  0  0  0  0  0
   -1.9041   -1.0186    0.3602 N   0  0  0  0  0  0  0  0  0  0  0  0
   -2.6671   -0.5416   -0.0988 H   0  0  0  0  0  0  0  0  0  0  0  0
   -0.6131   -0.3236    0.3832 C   0  0  1  0  0  0  0  0  0  0  0  0
    0.0142   -0.7800    1.1506 H   0  0  0  0  0  0  0  0  0  0  0  0
    0.0816   -0.5059   -0.9788 C   0  0  0  0  0  0  0  0  0  0  0  0
   -0.5512   -0.0727   -1.7564 H   0  0  0  0  0  0  0  0  0  0  0  0
    1.0310    0.0315   -0.9733 H   0  0  0  0  0  0  0  0  0  0  0  0
    0.3505   -1.9718   -1.3378 C   0  0  0  0  0  0  0  0  0  0  0  0
   -0.1583   -2.2104   -2.2712 H   0  0  0  0  0  0  0  0  0  0  0  0
    1.4235   -2.1067   -1.4789 H   0  0  0  0  0  0  0  0  0  0  0  0
   -0.2118   -3.1430   -0.0761 S   0  0  0  0  0  0  0  0  0  0  0  0
    0.9698   -2.7665    1.2445 C   0  0  0  0  0  0  0  0  0  0  0  0
    0.8700   -1.7218    1.5404 H   0  0  0  0  0  0  0  0  0  0  0  0
    0.7655   -3.4044    2.1049 H   0  0  0  0  0  0  0  0  0  0  0  0
    1.9853   -2.9521    0.8934 H   0  0  0  0  0  0  0  0  0  0  0  0
   -0.8064    1.1568    0.7414 C   0  0  0  0  0  0  0  0  0  0  0  0
   -1.6978    1.8100    0.2029 O   0  0  0  0  0  0  0  0  0  0  0  0
    0.0314    1.6872    1.6415 N   0  0  0  0  0  0  0  0  0  0  0  0
    0.7279    1.0858    2.0517 H   0  0  0  0  0  0  0  0  0  0  0  0
   -0.0137    3.0826    2.0755 C   0  0  0  0  0  0  0  0  0  0  0  0
   -0.9991    3.3070    2.4905 H   0  0  0  0  0  0  0  0  0  0  0  0
    0.7468    3.2694    2.8349 H   0  0  0  0  0  0  0  0  0  0  0  0
    0.1592    3.7397    1.2213 H   0  0  0  0  0  0  0  0  0  0  0  0
  5  6  2  0  0  0  0
  5  7  1  0  0  0  0
  2  3  1  0  0  0  0
  2  4  1  0  0  0  0
  2  5  1  0  0  0  0
  1  2  1  0  0  0  0
 22 23  2  0  0  0  0
 22 24  1  0  0  0  0
 18 19  1  0  0  0  0
 18 20  1  0  0  0  0
 18 21  1  0  0  0  0
 17 18  1  0  0  0  0
 14 15  1  0  0  0  0
 14 16  1  0  0  0  0
 14 17  1  0  0  0  0
 11 12  1  0  0  0  0
 11 13  1  0  0  0  0
 11 14  1  0  0  0  0
  9 10  1  0  0  0  0
  9 11  1  0  0  0  0
  9 22  1  0  0  0  0
  7  8  1  0  0  0  0
  7  9  1  0  0  0  0
 26 27  1  0  0  0  0
 26 28  1  0  0  0  0
 26 29  1  0  0  0  0
 24 25  1  0  0  0  0
 24 26  1  0  0  0  0
M  END
$$$$
default_name
  -OEChem-02102213163D

 29 28  0     1  0  0  0  0  0999 V2000
   -3.5781   -3.7296    1.2702 H   0  0  0  0  0  0  0  0  0  0  0  0
   -3.5311   -2.7616    0.7732 C   0  0  0  0  0  0  0  0  0  0  0  0
   -4.2371   -2.0766    1.2382 H   0  0  0  0  0  0  0  0  0  0  0  0
   -3.7681   -2.8816   -0.2818 H   0  0  0  0  0  0  0  0  0  0  0  0
   -2.1321   -2.2086    0.9112 C   0  0  0  0  0  0  0  0  0  0  0  0
   -1.2751   -2.8426    1.5112 O   0  0  0  0  0  0  0  0  0  0  0  0
   -1.9041   -1.0186    0.3602 N   0  0  0  0  0  0  0  0  0  0  0  0
   -2.6671   -0.5416   -0.0988 H   0  0  0  0  0  0  0  0  0  0  0  0
   -0.6131   -0.3236    0.3832 C   0  0  1  0  0  0  0  0  0  0  0  0
    0.0142   -0.7800    1.1506 H   0  0  0  0  0  0  0  0  0  0  0  0
    0.0816   -0.5059   -0.9788 C   0  0  0  0  0  0  0  0  0  0  0  0
   -0.5512   -0.0727   -1.7564 H   0  0  0  0  0  0  0  0  0  0  0  0
    1.0310    0.0315   -0.9733 H   0  0  0  0  0  0  0  0  0  0  0  0
    0.3505   -1.9718   -1.3378 C   0  0  0  0  0  0  0  0  0  0  0  0
    0.0778   -2.1407   -2.3790 H   0  0  0  0  0  0  0  0  0  0  0  0
    1.4158   -2.1721   -1.2174 H   0  0  0  0  0  0  0  0  0  0  0  0
   -0.5715   -3.1499   -0.3172 S   0  0  0  0  0  0  0  0  0  0  0  0
    0.2630   -2.9028    1.2716 C   0  0  0  0  0  0  0  0  0  0  0  0
    0.1502   -1.8657    1.5888 H   0  0  0  0  0  0  0  0  0  0  0  0
   -0.1837   -3.5578    2.0202 H   0  0  0  0  0  0  0  0  0  0  0  0
    1.3221   -3.1419    1.1719 H   0  0  0  0  0  0  0  0  0  0  0  0
   -0.8064    1.1568    0.7414 C   0  0  0  0  0  0  0  0  0  0  0  0
   -1.6978    1.8100    0.2029 O   0  0  0  0  0  0  0  0  0  0  0  0
    0.0314    1.6872    1.6415 N   0  0  0  0  0  0  0  0  0  0  0  0
    0.7279    1.0858    2.0517 H   0  0  0  0  0  0  0  0  0  0  0  0
   -0.0137    3.0826    2.0755 C   0  0  0  0  0  0  0  0  0  0  0  0
   -0.9991    3.3070    2.4905 H   0  0  0  0  0  0  0  0  0  0  0  0
    0.7468    3.2694    2.8349 H   0  0  0  0  0  0  0  0  0  0  0  0
    0.1592    3.7397    1.2213 H   0  0  0  0  0  0  0  0  0  0  0  0
  5  6  2  0  0  0  0
  5  7  1  0  0  0  0
  2  3  1  0  0  0  0
  2  4  1  0  0  0  0
  2  5  1  0  0  0  0
  1  2  1  0  0  0  0
 22 23  2  0  0  0  0
 22 24  1  0  0  0  0
 18 19  1  0  0  0  0
 18 20  1  0  0  0  0
 18 21  1  0  0  0  0
 17 18  1  0  0  0  0
 14 15  1  0  0  0  0
 14 16  1  0  0  0  0
 14 17  1  0  0  0  0
 11 12  1  0  0  0  0
 11 13  1  0  0  0  0
 11 14  1  0  0  0  0
  9 10  1  0  0  0  0
  9 11  1  0  0  0  0
  9 22  1  0  0  0  0
  7  8  1  0  0  0  0
  7  9  1  0  0  0  0
 26 27  1  0  0  0  0
 26 28  1  0  0  0  0
 26 29  1  0  0  0  0
 24 25  1  0  0  0  0
 24 26  1  0  0  0  0
M  END
$$$$
default_name
  -OEChem-02102213163D

 29 28  0     1  0  0  0  0  0999 V2000
   -3.5781   -3.7296    1.2702 H   0  0  0  0  0  0  0  0  0  0  0  0
   -3.5311   -2.7616    0.7732 C   0  0  0  0  0  0  0  0  0  0  0  0
   -4.2371   -2.0766    1.2382 H   0  0  0  0  0  0  0  0  0  0  0  0
   -3.7681   -2.8816   -0.2818 H   0  0  0  0  0  0  0  0  0  0  0  0
   -2.1321   -2.2086    0.9112 C   0  0  0  0  0  0  0  0  0  0  0  0
   -1.2751   -2.8426    1.5112 O   0  0  0  0  0  0  0  0  0  0  0  0
   -1.9041   -1.0186    0.3602 N   0  0  0  0  0  0  0  0  0  0  0  0
   -2.6671   -0.5416   -0.0988 H   0  0  0  0  0  0  0  0  0  0  0  0
   -0.6131   -0.3236    0.3832 C   0  0  1  0  0  0  0  0  0  0  0  0
    0.0142   -0.7800    1.1506 H   0  0  0  0  0  0  0  0  0  0  0  0
    0.0816   -0.5059   -0.9788 C   0  0  0  0  0  0  0  0  0  0  0  0
   -0.5512   -0.0727   -1.7564 H   0  0  0  0  0  0  0  0  0  0  0  0
    1.0310    0.0315   -0.9733 H   0  0  0  0  0  0  0  0  0  0  0  0
    0.3505   -1.9718   -1.3378 C   0  0  0  0  0  0  0  0  0  0  0  0
    0.3367   -2.0828   -2.4216 H   0  0  0  0  0  0  0  0  0  0  0  0
    1.3397   -2.2467   -0.9698 H   0  0  0  0  0  0  0  0  0  0  0  0
   -0.8597   -3.1239   -0.6395 S   0  0  0  0  0  0  0  0  0  0  0  0
   -0.4347   -2.9929    1.1166 C   0  0  0  0  0  0  0  0  0  0  0  0
   -0.5658   -1.9632    1.4508 H   0  0  0  0  0  0  0  0  0  0  0  0
   -1.0888   -3.6446    1.6965 H   0  0  0  0  0  0  0  0  0  0  0  0
    0.6012   -3.2978    1.2681 H   0  0  0  0  0  0  0  0  0  0  0  0
   -0.8064    1.1568    0.7414 C   0  0  0  0  0  0  0  0  0  0  0  0
   -1.6978    1.8100    0.2029 O   0  0  0  0  0  0  0  0  0  0  0  0
    0.0314    1.6872    1.6415 N   0  0  0  0  0  0  0  0  0  0  0  0
    0.7279    1.0858    2.0517 H   0  0  0  0  0  0  0  0  0  0  0  0
   -0.0137    3.0826    2.0755 C   0  0  0  0  0  0  0  0  0  0  0  0
   -0.9991    3.3070    2.4905 H   0  0  0  0  0  0  0  0  0  0  0  0
    0.7468    3.2694    2.8349 H   0  0  0  0  0  0  0  0  0  0  0  0
    0.1592    3.7397    1.2213 H   0  0  0  0  0  0  0  0  0  0  0  0
  5  6  2  0  0  0  0
  5  7  1  0  0  0  0
  2  3  1  0  0  0  0
  2  4  1  0  0  0  0
  2  5  1  0  0  0  0
  1  2  1  0  0  0  0
 22 23  2  0  0  0  0
 22 24  1  0  0  0  0
 18 19  1  0  0  0  0
 18 20  1  0  0  0  0
 18 21  1  0  0  0  0
 17 18  1  0  0  0  0
 14 15  1  0  0  0  0
 14 16  1  0  0  0  0
 14 17  1  0  0  0  0
 11 12  1  0  0  0  0
 11 13  1  0  0  0  0
 11 14  1  0  0  0  0
  9 10  1  0  0  0  0
  9 11  1  0  0  0  0
  9 22  1  0  0  0  0
  7  8  1  0  0  0  0
  7  9  1  0  0  0  0
 26 27  1  0  0  0  0
 26 28  1  0  0  0  0
 26 29  1  0  0  0  0
 24 25  1  0  0  0  0
 24 26  1  0  0  0  0
M  END
$$$$
default_name
  -OEChem-02102213163D

 29 28  0     1  0  0  0  0  0999 V2000
   -3.5781   -3.7296    1.2702 H   0  0  0  0  0  0  0  0  0  0  0  0
   -3.5311   -2.7616    0.7732 C   0  0  0  0  0  0  0  0  0  0  0  0
   -4.2371   -2.0766    1.2382 H   0  0  0  0  0  0  0  0  0  0  0  0
   -3.7681   -2.8816   -0.2818 H   0  0  0  0  0  0  0  0  0  0  0  0
   -2.1321   -2.2086    0.9112 C   0  0  0  0  0  0  0  0  0  0  0  0
   -1.2751   -2.8426    1.5112 O   0  0  0  0  0  0  0  0  0  0  0  0
   -1.9041   -1.0186    0.3602 N   0  0  0  0  0  0  0  0  0  0  0  0
   -2.6671   -0.5416   -0.0988 H   0  0  0  0  0  0  0  0  0  0  0  0
   -0.6131   -0.3236    0.3832 C   0  0  1  0  0  0  0  0  0  0  0  0
    0.0142   -0.7800    1.1506 H   0  0  0  0  0  0  0  0  0  0  0  0
    0.0816   -0.5059   -0.9788 C   0  0  0  0  0  0  0  0  0  0  0  0
   -0.5512   -0.0727   -1.7564 H   0  0  0  0  0  0  0  0  0  0  0  0
    1.0310    0.0315   -0.9733 H   0  0  0  0  0  0  0  0  0  0  0  0
    0.3505   -1.9718   -1.3378 C   0  0  0  0  0  0  0  0  0  0  0  0
    0.6008   -2.0406   -2.3960 H   0  0  0  0  0  0  0  0  0  0  0  0
    1.2003   -2.3254   -0.7528 H   0  0  0  0  0  0  0  0  0  0  0  0
   -1.0568   -3.0666   -1.0209 S   0  0  0  0  0  0  0  0  0  0  0  0
   -1.0757   -3.0305    0.7902 C   0  0  0  0  0  0  0  0  0  0  0  0
   -1.2291   -2.0078    1.1360 H   0  0  0  0  0  0  0  0  0  0  0  0
   -1.8883   -3.6588    1.1558 H   0  0  0  0  0  0  0  0  0  0  0  0
   -0.1285   -3.4090    1.1755 H   0  0  0  0  0  0  0  0  0  0  0  0
   -0.8064    1.1568    0.7414 C   0  0  0  0  0  0  0  0  0  0  0  0
   -1.6978    1.8100    0.2029 O   0  0  0  0  0  0  0  0  0  0  0  0
    0.0314    1.6872    1.6415 N   0  0  0  0  0  0  0  0  0  0  0  0
    0.7279    1.0858    2.0517 H   0  0  0  0  0  0  0  0  0  0  0  0
   -0.0137    3.0826    2.0755 C   0  0  0  0  0  0  0  0  0  0  0  0
   -0.9991    3.3070    2.4905 H   0  0  0  0  0  0  0  0  0  0  0  0
    0.7468    3.2694    2.8349 H   0  0  0  0  0  0  0  0  0  0  0  0
    0.1592    3.7397    1.2213 H   0  0  0  0  0  0  0  0  0  0  0  0
  5  6  2  0  0  0  0
  5  7  1  0  0  0  0
  2  3  1  0  0  0  0
  2  4  1  0  0  0  0
  2  5  1  0  0  0  0
  1  2  1  0  0  0  0
 22 23  2  0  0  0  0
 22 24  1  0  0  0  0
 18 19  1  0  0  0  0
 18 20  1  0  0  0  0
 18 21  1  0  0  0  0
 17 18  1  0  0  0  0
 14 15  1  0  0  0  0
 14 16  1  0  0  0  0
 14 17  1  0  0  0  0
 11 12  1  0  0  0  0
 11 13  1  0  0  0  0
 11 14  1  0  0  0  0
  9 10  1  0  0  0  0
  9 11  1  0  0  0  0
  9 22  1  0  0  0  0
  7  8  1  0  0  0  0
  7  9  1  0  0  0  0
 26 27  1  0  0  0  0
 26 28  1  0  0  0  0
 26 29  1  0  0  0  0
 24 25  1  0  0  0  0
 24 26  1  0  0  0  0
M  END
$$$$
default_name
  -OEChem-02102213163D

 29 28  0     1  0  0  0  0  0999 V2000
   -3.5781   -3.7296    1.2702 H   0  0  0  0  0  0  0  0  0  0  0  0
   -3.5311   -2.7616    0.7732 C   0  0  0  0  0  0  0  0  0  0  0  0
   -4.2371   -2.0766    1.2382 H   0  0  0  0  0  0  0  0  0  0  0  0
   -3.7681   -2.8816   -0.2818 H   0  0  0  0  0  0  0  0  0  0  0  0
   -2.1321   -2.2086    0.9112 C   0  0  0  0  0  0  0  0  0  0  0  0
   -1.2751   -2.8426    1.5112 O   0  0  0  0  0  0  0  0  0  0  0  0
   -1.9041   -1.0186    0.3602 N   0  0  0  0  0  0  0  0  0  0  0  0
   -2.6671   -0.5416   -0.0988 H   0  0  0  0  0  0  0  0  0  0  0  0
   -0.6131   -0.3236    0.3832 C   0  0  1  0  0  0  0  0  0  0  0  0
    0.0142   -0.7800    1.1506 H   0  0  0  0  0  0  0  0  0  0  0  0
    0.0816   -0.5059   -0.9788 C   0  0  0  0  0  0  0  0  0  0  0  0
   -0.5512   -0.0727   -1.7564 H   0  0  0  0  0  0  0  0  0  0  0  0
    1.0310    0.0315   -0.9733 H   0  0  0  0  0  0  0  0  0  0  0  0
    0.3505   -1.9718   -1.3378 C   0  0  0  0  0  0  0  0  0  0  0  0
    0.8521   -2.0170   -2.3040 H   0  0  0  0  0  0  0  0  0  0  0  0
    1.0072   -2.4028   -0.5813 H   0  0  0  0  0  0  0  0  0  0  0  0
   -1.1493   -2.9821   -1.4355 S   0  0  0  0  0  0  0  0  0  0  0  0
   -1.6163   -3.0132    0.3146 C   0  0  0  0  0  0  0  0  0  0  0  0
   -1.7946   -1.9964    0.6656 H   0  0  0  0  0  0  0  0  0  0  0  0
   -2.5276   -3.5997    0.4351 H   0  0  0  0  0  0  0  0  0  0  0  0
   -0.8171   -3.4679    0.9005 H   0  0  0  0  0  0  0  0  0  0  0  0
   -0.8064    1.1568    0.7414 C   0  0  0  0  0  0  0  0  0  0  0  0
   -1.6978    1.8100    0.2029 O   0  0  0  0  0  0  0  0  0  0  0  0
    0.0314    1.6872    1.6415 N   0  0  0  0  0  0  0  0  0  0  0  0
    0.7279    1.0858    2.0517 H   0  0  0  0  0  0  0  0  0  0  0  0
   -0.0137    3.0826    2.0755 C   0  0  0  0  0  0  0  0  0  0  0  0
   -0.9991    3.3070    2.4905 H   0  0  0  0  0  0  0  0  0  0  0  0
    0.7468    3.2694    2.8349 H   0  0  0  0  0  0  0  0  0  0  0  0
    0.1592    3.7397    1.2213 H   0  0  0  0  0  0  0  0  0  0  0  0
  5  6  2  0  0  0  0
  5  7  1  0  0  0  0
  2  3  1  0  0  0  0
  2  4  1  0  0  0  0
  2  5  1  0  0  0  0
  1  2  1  0  0  0  0
 22 23  2  0  0  0  0
 22 24  1  0  0  0  0
 18 19  1  0  0  0  0
 18 20  1  0  0  0  0
 18 21  1  0  0  0  0
 17 18  1  0  0  0  0
 14 15  1  0  0  0  0
 14 16  1  0  0  0  0
 14 17  1  0  0  0  0
 11 12  1  0  0  0  0
 11 13  1  0  0  0  0
 11 14  1  0  0  0  0
  9 10  1  0  0  0  0
  9 11  1  0  0  0  0
  9 22  1  0  0  0  0
  7  8  1  0  0  0  0
  7  9  1  0  0  0  0
 26 27  1  0  0  0  0
 26 28  1  0  0  0  0
 26 29  1  0  0  0  0
 24 25  1  0  0  0  0
 24 26  1  0  0  0  0
M  END
$$$$
default_name
  -OEChem-02102213163D

 29 28  0     1  0  0  0  0  0999 V2000
   -3.5781   -3.7296    1.2702 H   0  0  0  0  0  0  0  0  0  0  0  0
   -3.5311   -2.7616    0.7732 C   0  0  0  0  0  0  0  0  0  0  0  0
   -4.2371   -2.0766    1.2382 H   0  0  0  0  0  0  0  0  0  0  0  0
   -3.7681   -2.8816   -0.2818 H   0  0  0  0  0  0  0  0  0  0  0  0
   -2.1321   -2.2086    0.9112 C   0  0  0  0  0  0  0  0  0  0  0  0
   -1.2751   -2.8426    1.5112 O   0  0  0  0  0  0  0  0  0  0  0  0
   -1.9041   -1.0186    0.3602 N   0  0  0  0  0  0  0  0  0  0  0  0
   -2.6671   -0.5416   -0.0988 H   0  0  0  0  0  0  0  0  0  0  0  0
   -0.6131   -0.3236    0.3832 C   0  0  1  0  0  0  0  0  0  0  0  0
    0.0142   -0.7800    1.1506 H   0  0  0  0  0  0  0  0  0  0  0  0
    0.0816   -0.5059   -0.9788 C   0  0  0  0  0  0  0  0  0  0  0  0
   -0.5512   -0.0727   -1.7564 H   0  0  0  0  0  0  0  0  0  0  0  0
    1.0310    0.0315   -0.9733 H   0  0  0  0  0  0  0  0  0  0  0  0
    0.3505   -1.9718   -1.3378 C   0  0  0  0  0  0  0  0  0  0  0  0
    1.0736   -2.0136   -2.1518 H   0  0  0  0  0  0  0  0  0  0  0  0
    0.7736   -2.4737   -0.4669 H   0  0  0  0  0  0  0  0  0  0  0  0
   -1.1309   -2.8760   -1.8550 S   0  0  0  0  0  0  0  0  0  0  0  0
   -2.0198   -2.9422   -0.2779 C   0  0  0  0  0  0  0  0  0  0  0  0
   -2.2238   -1.9298    0.0719 H   0  0  0  0  0  0  0  0  0  0  0  0
   -2.9631   -3.4710   -0.4167 H   0  0  0  0  0  0  0  0  0  0  0  0
   -1.4177   -3.4707    0.4617 H   0  0  0  0  0  0  0  0  0  0  0  0
   -0.8064    1.1568    0.7414 C   0  0  0  0  0  0  0  0  0  0  0  0
   -1.6978    1.8100    0.2029 O   0  0  0  0  0  0  0  0  0  0  0  0
    0.0314    1.6872    1.6415 N   0  0  0  0  0  0  0  0  0  0  0  0
    0.7279    1.0858    2.0517 H   0  0  0  0  0  0  0  0  0  0  0  0
   -0.0137    3.0826    2.0755 C   0  0  0  0  0  0  0  0  0  0  0  0
   -0.9991    3.3070    2.4905 H   0  0  0  0  0  0  0  0  0  0  0  0
    0.7468    3.2694    2.8349 H   0  0  0  0  0  0  0  0  0  0  0  0
    0.1592    3.7397    1.2213 H   0  0  0  0  0  0  0  0  0  0  0  0
  5  6  2  0  0  0  0
  5  7  1  0  0  0  0
  2  3  1  0  0  0  0
  2  4  1  0  0  0  0
  2  5  1  0  0  0  0
  1  2  1  0  0  0  0
 22 23  2  0  0  0  0
 22 24  1  0  0  0  0
 18 19  1  0  0  0  0
 18 20  1  0  0  0  0
 18 21  1  0  0  0  0
 17 18  1  0  0  0  0
 14 15  1  0  0  0  0
 14 16  1  0  0  0  0
 14 17  1  0  0  0  0
 11 12  1  0  0  0  0
 11 13  1  0  0  0  0
 11 14  1  0  0  0  0
  9 10  1  0  0  0  0
  9 11  1  0  0  0  0
  9 22  1  0  0  0  0
  7  8  1  0  0  0  0
  7  9  1  0  0  0  0
 26 27  1  0  0  0  0
 26 28  1  0  0  0  0
 26 29  1  0  0  0  0
 24 25  1  0  0  0  0
 24 26  1  0  0  0  0
M  END
$$$$
default_name
  -OEChem-02102213163D

 29 28  0     1  0  0  0  0  0999 V2000
   -3.5781   -3.7296    1.2702 H   0  0  0  0  0  0  0  0  0  0  0  0
   -3.5311   -2.7616    0.7732 C   0  0  0  0  0  0  0  0  0  0  0  0
   -4.2371   -2.0766    1.2382 H   0  0  0  0  0  0  0  0  0  0  0  0
   -3.7681   -2.8816   -0.2818 H   0  0  0  0  0  0  0  0  0  0  0  0
   -2.1321   -2.2086    0.9112 C   0  0  0  0  0  0  0  0  0  0  0  0
   -1.2751   -2.8426    1.5112 O   0  0  0  0  0  0  0  0  0  0  0  0
   -1.9041   -1.0186    0.3602 N   0  0  0  0  0  0  0  0  0  0  0  0
   -2.6671   -0.5416   -0.0988 H   0  0  0  0  0  0  0  0  0  0  0  0
   -0.6131   -0.3236    0.3832 C   0  0  1  0  0  0  0  0  0  0  0  0
    0.0142   -0.7800    1.1506 H   0  0  0  0  0  0  0  0  0  0  0  0
    0.0816   -0.5059   -0.9788 C   0  0  0  0  0  0  0  0  0  0  0  0
   -0.5512   -0.0727   -1.7564 H   0  0  0  0  0  0  0  0  0  0  0  0
    1.0310    0.0315   -0.9733 H   0  0  0  0  0  0  0  0  0  0  0  0
    0.3505   -1.9718   -1.3378 C   0  0  0  0  0  0  0  0  0  0  0  0
    1.2500   -2.0307   -1.9499 H   0  0  0  0  0  0  0  0  0  0  0  0
    0.5153   -2.5332   -0.4174 H   0  0  0  0  0  0  0  0  0  0  0  0
   -1.0028   -2.7556   -2.2509 S   0  0  0  0  0  0  0  0  0  0  0  0
   -2.2585   -2.8222   -0.9468 C   0  0  0  0  0  0  0  0  0  0  0  0
   -2.4873   -1.8124   -0.6048 H   0  0  0  0  0  0  0  0  0  0  0  0
   -3.1652   -3.2817   -1.3413 H   0  0  0  0  0  0  0  0  0  0  0  0
   -1.8895   -3.4170   -0.1109 H   0  0  0  0  0  0  0  0  0  0  0  0
   -0.8064    1.1568    0.7414 C   0  0  0  0  0  0  0  0  0  0  0  0
   -1.6978    1.8100    0.2029 O   0  0  0  0  0  0  0  0  0  0  0  0
    0.0314    1.6872    1.6415 N   0  0  0  0  0  0  0  0  0  0  0  0
    0.7279    1.0858    2.0517 H   0  0  0  0  0  0  0  0  0  0  0  0
   -0.0137    3.0826    2.0755 C   0  0  0  0  0  0  0  0  0  0  0  0
   -0.9991    3.3070    2.4905 H   0  0  0  0  0  0  0  0  0  0  0  0
    0.7468    3.2694    2.8349 H   0  0  0  0  0  0  0  0  0  0  0  0
    0.1592    3.7397    1.2213 H   0  0  0  0  0  0  0  0  0  0  0  0
  5  6  2  0  0  0  0
  5  7  1  0  0  0  0
  2  3  1  0  0  0  0
  2  4  1  0  0  0  0
  2  5  1  0  0  0  0
  1  2  1  0  0  0  0
 22 23  2  0  0  0  0
 22 24  1  0  0  0  0
 18 19  1  0  0  0  0
 18 20  1  0  0  0  0
 18 21  1  0  0  0  0
 17 18  1  0  0  0  0
 14 15  1  0  0  0  0
 14 16  1  0  0  0  0
 14 17  1  0  0  0  0
 11 12  1  0  0  0  0
 11 13  1  0  0  0  0
 11 14  1  0  0  0  0
  9 10  1  0  0  0  0
  9 11  1  0  0  0  0
  9 22  1  0  0  0  0
  7  8  1  0  0  0  0
  7  9  1  0  0  0  0
 26 27  1  0  0  0  0
 26 28  1  0  0  0  0
 26 29  1  0  0  0  0
 24 25  1  0  0  0  0
 24 26  1  0  0  0  0
M  END
$$$$
default_name
  -OEChem-02102213163D

 29 28  0     1  0  0  0  0  0999 V2000
   -3.5781   -3.7296    1.2702 H   0  0  0  0  0  0  0  0  0  0  0  0
   -3.5311   -2.7616    0.7732 C   0  0  0  0  0  0  0  0  0  0  0  0
   -4.2371   -2.0766    1.2382 H   0  0  0  0  0  0  0  0  0  0  0  0
   -3.7681   -2.8816   -0.2818 H   0  0  0  0  0  0  0  0  0  0  0  0
   -2.1321   -2.2086    0.9112 C   0  0  0  0  0  0  0  0  0  0  0  0
   -1.2751   -2.8426    1.5112 O   0  0  0  0  0  0  0  0  0  0  0  0
   -1.9041   -1.0186    0.3602 N   0  0  0  0  0  0  0  0  0  0  0  0
   -2.6671   -0.5416   -0.0988 H   0  0  0  0  0  0  0  0  0  0  0  0
   -0.6131   -0.3236    0.3832 C   0  0  1  0  0  0  0  0  0  0  0  0
    0.0142   -0.7800    1.1506 H   0  0  0  0  0  0  0  0  0  0  0  0
    0.0816   -0.5059   -0.9788 C   0  0  0  0  0  0  0  0  0  0  0  0
   -0.5512   -0.0727   -1.7564 H   0  0  0  0  0  0  0  0  0  0  0  0
    1.0310    0.0315   -0.9733 H   0  0  0  0  0  0  0  0  0  0  0  0
    0.3505   -1.9718   -1.3378 C   0  0  0  0  0  0  0  0  0  0  0  0
    1.3694   -2.0670   -1.7119 H   0  0  0  0  0  0  0  0  0  0  0  0
    0.2500   -2.5773   -0.4363 H   0  0  0  0  0  0  0  0  0  0  0  0
   -0.7739   -2.6291   -2.5961 S   0  0  0  0  0  0  0  0  0  0  0  0
   -2.3163   -2.6615   -1.6466 C   0  0  0  0  0  0  0  0  0  0  0  0
   -2.5673   -1.6524   -1.3183 H   0  0  0  0  0  0  0  0  0  0  0  0
   -3.1201   -3.0446   -2.2759 H   0  0  0  0  0  0  0  0  0  0  0  0
   -2.2002   -3.3106   -0.7783 H   0  0  0  0  0  0  0  0  0  0  0  0
   -0.8064    1.1568    0.7414 C   0  0  0  0  0  0  0  0  0  0  0  0
   -1.6978    1.8100    0.2029 O   0  0  0  0  0  0  0  0  0  0  0  0
    0.0314    1.6872    1.6415 N   0  0  0  0  0  0  0  0  0  0  0  0
    0.7279    1.0858    2.0517 H   0  0  0  0  0  0  0  0  0  0  0  0
   -0.0137    3.0826    2.0755 C   0  0  0  0  0  0  0  0  0  0  0  0
   -0.9991    3.3070    2.4905 H   0  0  0  0  0  0  0  0  0  0  0  0
    0.7468    3.2694    2.8349 H   0  0  0  0  0  0  0  0  0  0  0  0
    0.1592    3.7397    1.2213 H   0  0  0  0  0  0  0  0  0  0  0  0
  5  6  2  0  0  0  0
  5  7  1  0  0  0  0
  2  3  1  0  0  0  0
  2  4  1  0  0  0  0
  2  5  1  0  0  0  0
  1  2  1  0  0  0  0
 22 23  2  0  0  0  0
 22 24  1  0  0  0  0
 18 19  1  0  0  0  0
 18 20  1  0  0  0  0
 18 21  1  0  0  0  0
 17 18  1  0  0  0  0
 14 15  1  0  0  0  0
 14 16  1  0  0  0  0
 14 17  1  0  0  0  0
 11 12  1  0  0  0  0
 11 13  1  0  0  0  0
 11 14  1  0  0  0  0
  9 10  1  0  0  0  0
  9 11  1  0  0  0  0
  9 22  1  0  0  0  0
  7  8  1  0  0  0  0
  7  9  1  0  0  0  0
 26 27  1  0  0  0  0
 26 28  1  0  0  0  0
 26 29  1  0  0  0  0
 24 25  1  0  0  0  0
 24 26  1  0  0  0  0
M  END
$$$$
default_name
  -OEChem-02102213163D

 29 28  0     1  0  0  0  0  0999 V2000
   -3.5781   -3.7296    1.2702 H   0  0  0  0  0  0  0  0  0  0  0  0
   -3.5311   -2.7616    0.7732 C   0  0  0  0  0  0  0  0  0  0  0  0
   -4.2371   -2.0766    1.2382 H   0  0  0  0  0  0  0  0  0  0  0  0
   -3.7681   -2.8816   -0.2818 H   0  0  0  0  0  0  0  0  0  0  0  0
   -2.1321   -2.2086    0.9112 C   0  0  0  0  0  0  0  0  0  0  0  0
   -1.2751   -2.8426    1.5112 O   0  0  0  0  0  0  0  0  0  0  0  0
   -1.9041   -1.0186    0.3602 N   0  0  0  0  0  0  0  0  0  0  0  0
   -2.6671   -0.5416   -0.0988 H   0  0  0  0  0  0  0  0  0  0  0  0
   -0.6131   -0.3236    0.3832 C   0  0  1  0  0  0  0  0  0  0  0  0
    0.0142   -0.7800    1.1506 H   0  0  0  0  0  0  0  0  0  0  0  0
    0.0816   -0.5059   -0.9788 C   0  0  0  0  0  0  0  0  0  0  0  0
   -0.5512   -0.0727   -1.7564 H   0  0  0  0  0  0  0  0  0  0  0  0
    1.0310    0.0315   -0.9733 H   0  0  0  0  0  0  0  0  0  0  0  0
    0.3505   -1.9718   -1.3378 C   0  0  0  0  0  0  0  0  0  0  0  0
    1.4236   -2.1202   -1.4542 H   0  0  0  0  0  0  0  0  0  0  0  0
   -0.0043   -2.6029   -0.5222 H   0  0  0  0  0  0  0  0  0  0  0  0
   -0.4596   -2.5050   -2.8672 S   0  0  0  0  0  0  0  0  0  0  0  0
   -2.1892   -2.4710   -2.3295 C   0  0  0  0  0  0  0  0  0  0  0  0
   -2.4582   -1.4606   -2.0201 H   0  0  0  0  0  0  0  0  0  0  0  0
   -2.8309   -2.7759   -3.1567 H   0  0  0  0  0  0  0  0  0  0  0  0
   -2.3287   -3.1587   -1.4950 H   0  0  0  0  0  0  0  0  0  0  0  0
   -0.8064    1.1568    0.7414 C   0  0  0  0  0  0  0  0  0  0  0  0
   -1.6978    1.8100    0.2029 O   0  0  0  0  0  0  0  0  0  0  0  0
    0.0314    1.6872    1.6415 N   0  0  0  0  0  0  0  0  0  0  0  0
    0.7279    1.0858    2.0517 H   0  0  0  0  0  0  0  0  0  0  0  0
   -0.0137    3.0826    2.0755 C   0  0  0  0  0  0  0  0  0  0  0  0
   -0.9991    3.3070    2.4905 H   0  0  0  0  0  0  0  0  0  0  0  0
    0.7468    3.2694    2.8349 H   0  0  0  0  0  0  0  0  0  0  0  0
    0.1592    3.7397    1.2213 H   0  0  0  0  0  0  0  0  0  0  0  0
  5  6  2  0  0  0  0
  5  7  1  0  0  0  0
  2  3  1  0  0  0  0
  2  4  1  0  0  0  0
  2  5  1  0  0  0  0
  1  2  1  0  0  0  0
 22 23  2  0  0  0  0
 22 24  1  0  0  0  0
 18 19  1  0  0  0  0
 18 20  1  0  0  0  0
 18 21  1  0  0  0  0
 17 18  1  0  0  0  0
 14 15  1  0  0  0  0
 14 16  1  0  0  0  0
 14 17  1  0  0  0  0
 11 12  1  0  0  0  0
 11 13  1  0  0  0  0
 11 14  1  0  0  0  0
  9 10  1  0  0  0  0
  9 11  1  0  0  0  0
  9 22  1  0  0  0  0
  7  8  1  0  0  0  0
  7  9  1  0  0  0  0
 26 27  1  0  0  0  0
 26 28  1  0  0  0  0
 26 29  1  0  0  0  0
 24 25  1  0  0  0  0
 24 26  1  0  0  0  0
M  END
$$$$
default_name
  -OEChem-02102213163D

 29 28  0     1  0  0  0  0  0999 V2000
   -3.5781   -3.7296    1.2702 H   0  0  0  0  0  0  0  0  0  0  0  0
   -3.5311   -2.7616    0.7732 C   0  0  0  0  0  0  0  0  0  0  0  0
   -4.2371   -2.0766    1.2382 H   0  0  0  0  0  0  0  0  0  0  0  0
   -3.7681   -2.8816   -0.2818 H   0  0  0  0  0  0  0  0  0  0  0  0
   -2.1321   -2.2086    0.9112 C   0  0  0  0  0  0  0  0  0  0  0  0
   -1.2751   -2.8426    1.5112 O   0  0  0  0  0  0  0  0  0  0  0  0
   -1.9041   -1.0186    0.3602 N   0  0  0  0  0  0  0  0  0  0  0  0
   -2.6671   -0.5416   -0.0988 H   0  0  0  0  0  0  0  0  0  0  0  0
   -0.6131   -0.3236    0.3832 C   0  0  1  0  0  0  0  0  0  0  0  0
    0.0142   -0.7800    1.1506 H   0  0  0  0  0  0  0  0  0  0  0  0
    0.0816   -0.5059   -0.9788 C   0  0  0  0  0  0  0  0  0  0  0  0
   -0.5512   -0.0727   -1.7564 H   0  0  0  0  0  0  0  0  0  0  0  0
    1.0310    0.0315   -0.9733 H   0  0  0  0  0  0  0  0  0  0  0  0
    0.3505   -1.9718   -1.3378 C   0  0  0  0  0  0  0  0  0  0  0  0
    1.4090   -2.1865   -1.1942 H   0  0  0  0  0  0  0  0  0  0  0  0
   -0.2302   -2.6083   -0.6692 H   0  0  0  0  0  0  0  0  0  0  0  0
   -0.0815   -2.3920   -3.0455 S   0  0  0  0  0  0  0  0  0  0  0  0
   -1.8859   -2.2636   -2.9491 C   0  0  0  0  0  0  0  0  0  0  0  0
   -2.1676   -1.2500   -2.6622 H   0  0  0  0  0  0  0  0  0  0  0  0
   -2.3173   -2.4939   -3.9237 H   0  0  0  0  0  0  0  0  0  0  0  0
   -2.2662   -2.9717   -2.2122 H   0  0  0  0  0  0  0  0  0  0  0  0
   -0.8064    1.1568    0.7414 C   0  0  0  0  0  0  0  0  0  0  0  0
   -1.6978    1.8100    0.2029 O   0  0  0  0  0  0  0  0  0  0  0  0
    0.0314    1.6872    1.6415 N   0  0  0  0  0  0  0  0  0  0  0  0
    0.7279    1.0858    2.0517 H   0  0  0  0  0  0  0  0  0  0  0  0
   -0.0137    3.0826    2.0755 C   0  0  0  0  0  0  0  0  0  0  0  0
   -0.9991    3.3070    2.4905 H   0  0  0  0  0  0  0  0  0  0  0  0
    0.7468    3.2694    2.8349 H   0  0  0  0  0  0  0  0  0  0  0  0
    0.1592    3.7397    1.2213 H   0  0  0  0  0  0  0  0  0  0  0  0
  5  6  2  0  0  0  0
  5  7  1  0  0  0  0
  2  3  1  0  0  0  0
  2  4  1  0  0  0  0
  2  5  1  0  0  0  0
  1  2  1  0  0  0  0
 22 23  2  0  0  0  0
 22 24  1  0  0  0  0
 18 19  1  0  0  0  0
 18 20  1  0  0  0  0
 18 21  1  0  0  0  0
 17 18  1  0  0  0  0
 14 15  1  0  0  0  0
 14 16  1  0  0  0  0
 14 17  1  0  0  0  0
 11 12  1  0  0  0  0
 11 13  1  0  0  0  0
 11 14  1  0  0  0  0
  9 10  1  0  0  0  0
  9 11  1  0  0  0  0
  9 22  1  0  0  0  0
  7  8  1  0  0  0  0
  7  9  1  0  0  0  0
 26 27  1  0  0  0  0
 26 28  1  0  0  0  0
 26 29  1  0  0  0  0
 24 25  1  0  0  0  0
 24 26  1  0  0  0  0
M  END
$$$$
default_name
  -OEChem-02102213163D

 29 28  0     1  0  0  0  0  0999 V2000
   -3.5781   -3.7296    1.2702 H   0  0  0  0  0  0  0  0  0  0  0  0
   -3.5311   -2.7616    0.7732 C   0  0  0  0  0  0  0  0  0  0  0  0
   -4.2371   -2.0766    1.2382 H   0  0  0  0  0  0  0  0  0  0  0  0
   -3.7681   -2.8816   -0.2818 H   0  0  0  0  0  0  0  0  0  0  0  0
   -2.1321   -2.2086    0.9112 C   0  0  0  0  0  0  0  0  0  0  0  0
   -1.2751   -2.8426    1.5112 O   0  0  0  0  0  0  0  0  0  0  0  0
   -1.9041   -1.0186    0.3602 N   0  0  0  0  0  0  0  0  0  0  0  0
   -2.6671   -0.5416   -0.0988 H   0  0  0  0  0  0  0  0  0  0  0  0
   -0.6131   -0.3236    0.3832 C   0  0  1  0  0  0  0  0  0  0  0  0
    0.0142   -0.7800    1.1506 H   0  0  0  0  0  0  0  0  0  0  0  0
    0.0816   -0.5059   -0.9788 C   0  0  0  0  0  0  0  0  0  0  0  0
   -0.5512   -0.0727   -1.7564 H   0  0  0  0  0  0  0  0  0  0  0  0
    1.0310    0.0315   -0.9733 H   0  0  0  0  0  0  0  0  0  0  0  0
    0.3505   -1.9718   -1.3378 C   0  0  0  0  0  0  0  0  0  0  0  0
    1.3266   -2.2615   -0.9497 H   0  0  0  0  0  0  0  0  0  0  0  0
   -0.4124   -2.5932   -0.8674 H   0  0  0  0  0  0  0  0  0  0  0  0
    0.3348   -2.2976   -3.1191 S   0  0  0  0  0  0  0  0  0  0  0  0
   -1.4270   -2.0536   -3.4631 C   0  0  0  0  0  0  0  0  0  0  0  0
   -1.7152   -1.0351   -3.2010 H   0  0  0  0  0  0  0  0  0  0  0  0
   -1.6142   -2.2177   -4.5246 H   0  0  0  0  0  0  0  0  0  0  0  0
   -2.0170   -2.7622   -2.8811 H   0  0  0  0  0  0  0  0  0  0  0  0
   -0.8064    1.1568    0.7414 C   0  0  0  0  0  0  0  0  0  0  0  0
   -1.6978    1.8100    0.2029 O   0  0  0  0  0  0  0  0  0  0  0  0
    0.0314    1.6872    1.6415 N   0  0  0  0  0  0  0  0  0  0  0  0
    0.7279    1.0858    2.0517 H   0  0  0  0  0  0  0  0  0  0  0  0
   -0.0137    3.0826    2.0755 C   0  0  0  0  0  0  0  0  0  0  0  0
   -0.9991    3.3070    2.4905 H   0  0  0  0  0  0  0  0  0  0  0  0
    0.7468    3.2694    2.8349 H   0  0  0  0  0  0  0  0  0  0  0  0
    0.1592    3.7397    1.2213 H   0  0  0  0  0  0  0  0  0  0  0  0
  5  6  2  0  0  0  0
  5  7  1  0  0  0  0
  2  3  1  0  0  0  0
  2  4  1  0  0  0  0
  2  5  1  0  0  0  0
  1  2  1  0  0  0  0
 22 23  2  0  0  0  0
 22 24  1  0  0  0  0
 18 19  1  0  0  0  0
 18 20  1  0  0  0  0
 18 21  1  0  0  0  0
 17 18  1  0  0  0  0
 14 15  1  0  0  0  0
 14 16  1  0  0  0  0
 14 17  1  0  0  0  0
 11 12  1  0  0  0  0
 11 13  1  0  0  0  0
 11 14  1  0  0  0  0
  9 10  1  0  0  0  0
  9 11  1  0  0  0  0
  9 22  1  0  0  0  0
  7  8  1  0  0  0  0
  7  9  1  0  0  0  0
 26 27  1  0  0  0  0
 26 28  1  0  0  0  0
 26 29  1  0  0  0  0
 24 25  1  0  0  0  0
 24 26  1  0  0  0  0
M  END
$$$$
default_name
  -OEChem-02102213163D

 29 28  0     1  0  0  0  0  0999 V2000
   -3.5781   -3.7296    1.2702 H   0  0  0  0  0  0  0  0  0  0  0  0
   -3.5311   -2.7616    0.7732 C   0  0  0  0  0  0  0  0  0  0  0  0
   -4.2371   -2.0766    1.2382 H   0  0  0  0  0  0  0  0  0  0  0  0
   -3.7681   -2.8816   -0.2818 H   0  0  0  0  0  0  0  0  0  0  0  0
   -2.1321   -2.2086    0.9112 C   0  0  0  0  0  0  0  0  0  0  0  0
   -1.2751   -2.8426    1.5112 O   0  0  0  0  0  0  0  0  0  0  0  0
   -1.9041   -1.0186    0.3602 N   0  0  0  0  0  0  0  0  0  0  0  0
   -2.6671   -0.5416   -0.0988 H   0  0  0  0  0  0  0  0  0  0  0  0
   -0.6131   -0.3236    0.3832 C   0  0  1  0  0  0  0  0  0  0  0  0
    0.0142   -0.7800    1.1506 H   0  0  0  0  0  0  0  0  0  0  0  0
    0.0816   -0.5059   -0.9788 C   0  0  0  0  0  0  0  0  0  0  0  0
   -0.5512   -0.0727   -1.7564 H   0  0  0  0  0  0  0  0  0  0  0  0
    1.0310    0.0315   -0.9733 H   0  0  0  0  0  0  0  0  0  0  0  0
    0.3505   -1.9718   -1.3378 C   0  0  0  0  0  0  0  0  0  0  0  0
    1.1818   -2.3401   -0.7374 H   0  0  0  0  0  0  0  0  0  0  0  0
   -0.5383   -2.5586   -1.1033 H   0  0  0  0  0  0  0  0  0  0  0  0
    0.7608   -2.2283   -3.0829 S   0  0  0  0  0  0  0  0  0  0  0  0
   -0.8438   -1.8552   -3.8364 C   0  0  0  0  0  0  0  0  0  0  0  0
   -1.1318   -0.8305   -3.5997 H   0  0  0  0  0  0  0  0  0  0  0  0
   -0.7696   -1.9664   -4.9185 H   0  0  0  0  0  0  0  0  0  0  0  0
   -1.5981   -2.5446   -3.4559 H   0  0  0  0  0  0  0  0  0  0  0  0
   -0.8064    1.1568    0.7414 C   0  0  0  0  0  0  0  0  0  0  0  0
   -1.6978    1.8100    0.2029 O   0  0  0  0  0  0  0  0  0  0  0  0
    0.0314    1.6872    1.6415 N   0  0  0  0  0  0  0  0  0  0  0  0
    0.7279    1.0858    2.0517 H   0  0  0  0  0  0  0  0  0  0  0  0
   -0.0137    3.0826    2.0755 C   0  0  0  0  0  0  0  0  0  0  0  0
   -0.9991    3.3070    2.4905 H   0  0  0  0  0  0  0  0  0  0  0  0
    0.7468    3.2694    2.8349 H   0  0  0  0  0  0  0  0  0  0  0  0
    0.1592    3.7397    1.2213 H   0  0  0  0  0  0  0  0  0  0  0  0
  5  6  2  0  0  0  0
  5  7  1  0  0  0  0
  2  3  1  0  0  0  0
  2  4  1  0  0  0  0
  2  5  1  0  0  0  0
  1  2  1  0  0  0  0
 22 23  2  0  0  0  0
 22 24  1  0  0  0  0
 18 19  1  0  0  0  0
 18 20  1  0  0  0  0
 18 21  1  0  0  0  0
 17 18  1  0  0  0  0
 14 15  1  0  0  0  0
 14 16  1  0  0  0  0
 14 17  1  0  0  0  0
 11 12  1  0  0  0  0
 11 13  1  0  0  0  0
 11 14  1  0  0  0  0
  9 10  1  0  0  0  0
  9 11  1  0  0  0  0
  9 22  1  0  0  0  0
  7  8  1  0  0  0  0
  7  9  1  0  0  0  0
 26 27  1  0  0  0  0
 26 28  1  0  0  0  0
 26 29  1  0  0  0  0
 24 25  1  0  0  0  0
 24 26  1  0  0  0  0
M  END
$$$$
default_name
  -OEChem-02102213163D

 29 28  0     1  0  0  0  0  0999 V2000
   -3.5781   -3.7296    1.2702 H   0  0  0  0  0  0  0  0  0  0  0  0
   -3.5311   -2.7616    0.7732 C   0  0  0  0  0  0  0  0  0  0  0  0
   -4.2371   -2.0766    1.2382 H   0  0  0  0  0  0  0  0  0  0  0  0
   -3.7681   -2.8816   -0.2818 H   0  0  0  0  0  0  0  0  0  0  0  0
   -2.1321   -2.2086    0.9112 C   0  0  0  0  0  0  0  0  0  0  0  0
   -1.2751   -2.8426    1.5112 O   0  0  0  0  0  0  0  0  0  0  0  0
   -1.9041   -1.0186    0.3602 N   0  0  0  0  0  0  0  0  0  0  0  0
   -2.6671   -0.5416   -0.0988 H   0  0  0  0  0  0  0  0  0  0  0  0
   -0.6131   -0.3236    0.3832 C   0  0  1  0  0  0  0  0  0  0  0  0
    0.0142   -0.7800    1.1506 H   0  0  0  0  0  0  0  0  0  0  0  0
    0.0816   -0.5059   -0.9788 C   0  0  0  0  0  0  0  0  0  0  0  0
   -0.4012    0.1468   -1.7093 H   0  0  0  0  0  0  0  0  0  0  0  0
    1.1270   -0.2063   -0.8925 H   0  0  0  0  0  0  0  0  0  0  0  0
    0.0262   -1.9440   -1.5069 C   0  0  0  0  0  0  0  0  0  0  0  0
    0.5082   -2.6071   -0.7893 H   0  0  0  0  0  0  0  0  0  0  0  0
   -1.0186   -2.2392   -1.6102 H   0  0  0  0  0  0  0  0  0  0  0  0
    0.8425   -2.1610   -3.1088 S   0  0  0  0  0  0  0  0  0  0  0  0
   -0.3007   -1.2360   -4.1669 C   0  0  0  0  0  0  0  0  0  0  0  0
   -0.3492   -0.1980   -3.8365 H   0  0  0  0  0  0  0  0  0  0  0  0
    0.0540   -1.2686   -5.1974 H   0  0  0  0  0  0  0  0  0  0  0  0
   -1.2936   -1.6835   -4.1150 H   0  0  0  0  0  0  0  0  0  0  0  0
   -0.8064    1.1568    0.7414 C   0  0  0  0  0  0  0  0  0  0  0  0
   -1.6978    1.8100    0.2029 O   0  0  0  0  0  0  0  0  0  0  0  0
    0.0314    1.6872    1.6415 N   0  0  0  0  0  0  0  0  0  0  0  0
    0.7279    1.0858    2.0517 H   0  0  0  0  0  0  0  0  0  0  0  0
   -0.0137    3.0826    2.0755 C   0  0  0  0  0  0  0  0  0  0  0  0
   -0.9991    3.3070    2.4905 H   0  0  0  0  0  0  0  0  0  0  0  0
    0.7468    3.2694    2.8349 H   0  0  0  0  0  0  0  0  0  0  0  0
    0.1592    3.7397    1.2213 H   0  0  0  0  0  0  0  0  0  0  0  0
  5  6  2  0  0  0  0
  5  7  1  0  0  0  0
  2  3  1  0  0  0  0
  2  4  1  0  0  0  0
  2  5  1  0  0  0  0
  1  2  1  0  0  0  0
 22 23  2  0  0  0  0
 22 24  1  0  0  0  0
 18 19  1  0  0  0  0
 18 20  1  0  0  0  0
 18 21  1  0  0  0  0
 17 18  1  0  0  0  0
 14 15  1  0  0  0  0
 14 16  1  0  0  0  0
 14 17  1  0  0  0  0
 11 12  1  0  0  0  0
 11 13  1  0  0  0  0
 11 14  1  0  0  0  0
  9 10  1  0  0  0  0
  9 11  1  0  0  0  0
  9 22  1  0  0  0  0
  7  8  1  0  0  0  0
  7  9  1  0  0  0  0
 26 27  1  0  0  0  0
 26 28  1  0  0  0  0
 26 29  1  0  0  0  0
 24 25  1  0  0  0  0
 24 26  1  0  0  0  0
M  END
$$$$
default_name
  -OEChem-02102213163D

 29 28  0     1  0  0  0  0  0999 V2000
   -3.5781   -3.7296    1.2702 H   0  0  0  0  0  0  0  0  0  0  0  0
   -3.5311   -2.7616    0.7732 C   0  0  0  0  0  0  0  0  0  0  0  0
   -4.2371   -2.0766    1.2382 H   0  0  0  0  0  0  0  0  0  0  0  0
   -3.7681   -2.8816   -0.2818 H   0  0  0  0  0  0  0  0  0  0  0  0
   -2.1321   -2.2086    0.9112 C   0  0  0  0  0  0  0  0  0  0  0  0
   -1.2751   -2.8426    1.5112 O   0  0  0  0  0  0  0  0  0  0  0  0
   -1.9041   -1.0186    0.3602 N   0  0  0  0  0  0  0  0  0  0  0  0
   -2.6671   -0.5416   -0.0988 H   0  0  0  0  0  0  0  0  0  0  0  0
   -0.6131   -0.3236    0.3832 C   0  0  1  0  0  0  0  0  0  0  0  0
    0.0142   -0.7800    1.1506 H   0  0  0  0  0  0  0  0  0  0  0  0
    0.0816   -0.5059   -0.9788 C   0  0  0  0  0  0  0  0  0  0  0  0
   -0.4012    0.1468   -1.7093 H   0  0  0  0  0  0  0  0  0  0  0  0
    1.1270   -0.2063   -0.8925 H   0  0  0  0  0  0  0  0  0  0  0  0
    0.0262   -1.9440   -1.5069 C   0  0  0  0  0  0  0  0  0  0  0  0
    0.2580   -2.6322   -0.6947 H   0  0  0  0  0  0  0  0  0  0  0  0
   -0.9847   -2.1481   -1.8617 H   0  0  0  0  0  0  0  0  0  0  0  0
    1.1834   -2.2646   -2.8625 S   0  0  0  0  0  0  0  0  0  0  0  0
    0.4191   -1.2644   -4.1653 C   0  0  0  0  0  0  0  0  0  0  0  0
    0.3859   -0.2196   -3.8549 H   0  0  0  0  0  0  0  0  0  0  0  0
    1.0085   -1.3490   -5.0787 H   0  0  0  0  0  0  0  0  0  0  0  0
   -0.5931   -1.6216   -4.3572 H   0  0  0  0  0  0  0  0  0  0  0  0
   -0.8064    1.1568    0.7414 C   0  0  0  0  0  0  0  0  0  0  0  0
   -1.6978    1.8100    0.2029 O   0  0  0  0  0  0  0  0  0  0  0  0
    0.0314    1.6872    1.6415 N   0  0  0  0  0  0  0  0  0  0  0  0
    0.7279    1.0858    2.0517 H   0  0  0  0  0  0  0  0  0  0  0  0
   -0.0137    3.0826    2.0755 C   0  0  0  0  0  0  0  0  0  0  0  0
   -0.9991    3.3070    2.4905 H   0  0  0  0  0  0  0  0  0  0  0  0
    0.7468    3.2694    2.8349 H   0  0  0  0  0  0  0  0  0  0  0  0
    0.1592    3.7397    1.2213 H   0  0  0  0  0  0  0  0  0  0  0  0
  5  6  2  0  0  0  0
  5  7  1  0  0  0  0
  2  3  1  0  0  0  0
  2  4  1  0  0  0  0
  2  5  1  0  0  0  0
  1  2  1  0  0  0  0
 22 23  2  0  0  0  0
 22 24  1  0  0  0  0
 18 19  1  0  0  0  0
 18 20  1  0  0  0  0
 18 21  1  0  0  0  0
 17 18  1  0  0  0  0
 14 15  1  0  0  0  0
 14 16  1  0  0  0  0
 14 17  1  0  0  0  0
 11 12  1  0  0  0  0
 11 13  1  0  0  0  0
 11 14  1  0  0  0  0
  9 10  1  0  0  0  0
  9 11  1  0  0  0  0
  9 22  1  0  0  0  0
  7  8  1  0  0  0  0
  7  9  1  0  0  0  0
 26 27  1  0  0  0  0
 26 28  1  0  0  0  0
 26 29  1  0  0  0  0
 24 25  1  0  0  0  0
 24 26  1  0  0  0  0
M  END
$$$$
default_name
  -OEChem-02102213163D

 29 28  0     1  0  0  0  0  0999 V2000
   -3.5781   -3.7296    1.2702 H   0  0  0  0  0  0  0  0  0  0  0  0
   -3.5311   -2.7616    0.7732 C   0  0  0  0  0  0  0  0  0  0  0  0
   -4.2371   -2.0766    1.2382 H   0  0  0  0  0  0  0  0  0  0  0  0
   -3.7681   -2.8816   -0.2818 H   0  0  0  0  0  0  0  0  0  0  0  0
   -2.1321   -2.2086    0.9112 C   0  0  0  0  0  0  0  0  0  0  0  0
   -1.2751   -2.8426    1.5112 O   0  0  0  0  0  0  0  0  0  0  0  0
   -1.9041   -1.0186    0.3602 N   0  0  0  0  0  0  0  0  0  0  0  0
   -2.6671   -0.5416   -0.0988 H   0  0  0  0  0  0  0  0  0  0  0  0
   -0.6131   -0.3236    0.3832 C   0  0  1  0  0  0  0  0  0  0  0  0
    0.0142   -0.7800    1.1506 H   0  0  0  0  0  0  0  0  0  0  0  0
    0.0816   -0.5059   -0.9788 C   0  0  0  0  0  0  0  0  0  0  0  0
   -0.4012    0.1468   -1.7093 H   0  0  0  0  0  0  0  0  0  0  0  0
    1.1270   -0.2063   -0.8925 H   0  0  0  0  0  0  0  0  0  0  0  0
    0.0262   -1.9440   -1.5069 C   0  0  0  0  0  0  0  0  0  0  0  0
   -0.0089   -2.6332   -0.6638 H   0  0  0  0  0  0  0  0  0  0  0  0
   -0.8827   -2.0655   -2.0973 H   0  0  0  0  0  0  0  0  0  0  0  0
    1.4436   -2.3927   -2.5409 S   0  0  0  0  0  0  0  0  0  0  0  0
    1.1114   -1.3559   -3.9888 C   0  0  0  0  0  0  0  0  0  0  0  0
    1.0985   -0.3061   -3.6941 H   0  0  0  0  0  0  0  0  0  0  0  0
    1.8945   -1.5106   -4.7315 H   0  0  0  0  0  0  0  0  0  0  0  0
    0.1480   -1.6265   -4.4217 H   0  0  0  0  0  0  0  0  0  0  0  0
   -0.8064    1.1568    0.7414 C   0  0  0  0  0  0  0  0  0  0  0  0
   -1.6978    1.8100    0.2029 O   0  0  0  0  0  0  0  0  0  0  0  0
    0.0314    1.6872    1.6415 N   0  0  0  0  0  0  0  0  0  0  0  0
    0.7279    1.0858    2.0517 H   0  0  0  0  0  0  0  0  0  0  0  0
   -0.0137    3.0826    2.0755 C   0  0  0  0  0  0  0  0  0  0  0  0
   -0.9991    3.3070    2.4905 H   0  0  0  0  0  0  0  0  0  0  0  0
    0.7468    3.2694    2.8349 H   0  0  0  0  0  0  0  0  0  0  0  0
    0.1592    3.7397    1.2213 H   0  0  0  0  0  0  0  0  0  0  0  0
  5  6  2  0  0  0  0
  5  7  1  0  0  0  0
  2  3  1  0  0  0  0
  2  4  1  0  0  0  0
  2  5  1  0  0  0  0
  1  2  1  0  0  0  0
 22 23  2  0  0  0  0
 22 24  1  0  0  0  0
 18 19  1  0  0  0  0
 18 20  1  0  0  0  0
 18 21  1  0  0  0  0
 17 18  1  0  0  0  0
 14 15  1  0  0  0  0
 14 16  1  0  0  0  0
 14 17  1  0  0  0  0
 11 12  1  0  0  0  0
 11 13  1  0  0  0  0
 11 14  1  0  0  0  0
  9 10  1  0  0  0  0
  9 11  1  0  0  0  0
  9 22  1  0  0  0  0
  7  8  1  0  0  0  0
  7  9  1  0  0  0  0
 26 27  1  0  0  0  0
 26 28  1  0  0  0  0
 26 29  1  0  0  0  0
 24 25  1  0  0  0  0
 24 26  1  0  0  0  0
M  END
$$$$
default_name
  -OEChem-02102213163D

 29 28  0     1  0  0  0  0  0999 V2000
   -3.5781   -3.7296    1.2702 H   0  0  0  0  0  0  0  0  0  0  0  0
   -3.5311   -2.7616    0.7732 C   0  0  0  0  0  0  0  0  0  0  0  0
   -4.2371   -2.0766    1.2382 H   0  0  0  0  0  0  0  0  0  0  0  0
   -3.7681   -2.8816   -0.2818 H   0  0  0  0  0  0  0  0  0  0  0  0
   -2.1321   -2.2086    0.9112 C   0  0  0  0  0  0  0  0  0  0  0  0
   -1.2751   -2.8426    1.5112 O   0  0  0  0  0  0  0  0  0  0  0  0
   -1.9041   -1.0186    0.3602 N   0  0  0  0  0  0  0  0  0  0  0  0
   -2.6671   -0.5416   -0.0988 H   0  0  0  0  0  0  0  0  0  0  0  0
   -0.6131   -0.3236    0.3832 C   0  0  1  0  0  0  0  0  0  0  0  0
    0.0142   -0.7800    1.1506 H   0  0  0  0  0  0  0  0  0  0  0  0
    0.0816   -0.5059   -0.9788 C   0  0  0  0  0  0  0  0  0  0  0  0
   -0.4012    0.1468   -1.7093 H   0  0  0  0  0  0  0  0  0  0  0  0
    1.1270   -0.2063   -0.8925 H   0  0  0  0  0  0  0  0  0  0  0  0
    0.0262   -1.9440   -1.5069 C   0  0  0  0  0  0  0  0  0  0  0  0
   -0.2743   -2.6102   -0.6988 H   0  0  0  0  0  0  0  0  0  0  0  0
   -0.7197   -1.9971   -2.3008 H   0  0  0  0  0  0  0  0  0  0  0  0
    1.6055   -2.5367   -2.1658 S   0  0  0  0  0  0  0  0  0  0  0  0
    1.7291   -1.5043   -3.6493 C   0  0  0  0  0  0  0  0  0  0  0  0
    1.7400   -0.4517   -3.3649 H   0  0  0  0  0  0  0  0  0  0  0  0
    2.6516   -1.7425   -4.1795 H   0  0  0  0  0  0  0  0  0  0  0  0
    0.8790   -1.6979   -4.3040 H   0  0  0  0  0  0  0  0  0  0  0  0
   -0.8064    1.1568    0.7414 C   0  0  0  0  0  0  0  0  0  0  0  0
   -1.6978    1.8100    0.2029 O   0  0  0  0  0  0  0  0  0  0  0  0
    0.0314    1.6872    1.6415 N   0  0  0  0  0  0  0  0  0  0  0  0
    0.7279    1.0858    2.0517 H   0  0  0  0  0  0  0  0  0  0  0  0
   -0.0137    3.0826    2.0755 C   0  0  0  0  0  0  0  0  0  0  0  0
   -0.9991    3.3070    2.4905 H   0  0  0  0  0  0  0  0  0  0  0  0
    0.7468    3.2694    2.8349 H   0  0  0  0  0  0  0  0  0  0  0  0
    0.1592    3.7397    1.2213 H   0  0  0  0  0  0  0  0  0  0  0  0
  5  6  2  0  0  0  0
  5  7  1  0  0  0  0
  2  3  1  0  0  0  0
  2  4  1  0  0  0  0
  2  5  1  0  0  0  0
  1  2  1  0  0  0  0
 22 23  2  0  0  0  0
 22 24  1  0  0  0  0
 18 19  1  0  0  0  0
 18 20  1  0  0  0  0
 18 21  1  0  0  0  0
 17 18  1  0  0  0  0
 14 15  1  0  0  0  0
 14 16  1  0  0  0  0
 14 17  1  0  0  0  0
 11 12  1  0  0  0  0
 11 13  1  0  0  0  0
 11 14  1  0  0  0  0
  9 10  1  0  0  0  0
  9 11  1  0  0  0  0
  9 22  1  0  0  0  0
  7  8  1  0  0  0  0
  7  9  1  0  0  0  0
 26 27  1  0  0  0  0
 26 28  1  0  0  0  0
 26 29  1  0  0  0  0
 24 25  1  0  0  0  0
 24 26  1  0  0  0  0
M  END
$$$$
default_name
  -OEChem-02102213163D

 29 28  0     1  0  0  0  0  0999 V2000
   -3.5781   -3.7296    1.2702 H   0  0  0  0  0  0  0  0  0  0  0  0
   -3.5311   -2.7616    0.7732 C   0  0  0  0  0  0  0  0  0  0  0  0
   -4.2371   -2.0766    1.2382 H   0  0  0  0  0  0  0  0  0  0  0  0
   -3.7681   -2.8816   -0.2818 H   0  0  0  0  0  0  0  0  0  0  0  0
   -2.1321   -2.2086    0.9112 C   0  0  0  0  0  0  0  0  0  0  0  0
   -1.2751   -2.8426    1.5112 O   0  0  0  0  0  0  0  0  0  0  0  0
   -1.9041   -1.0186    0.3602 N   0  0  0  0  0  0  0  0  0  0  0  0
   -2.6671   -0.5416   -0.0988 H   0  0  0  0  0  0  0  0  0  0  0  0
   -0.6131   -0.3236    0.3832 C   0  0  1  0  0  0  0  0  0  0  0  0
    0.0142   -0.7800    1.1506 H   0  0  0  0  0  0  0  0  0  0  0  0
    0.0816   -0.5059   -0.9788 C   0  0  0  0  0  0  0  0  0  0  0  0
   -0.4012    0.1468   -1.7093 H   0  0  0  0  0  0  0  0  0  0  0  0
    1.1270   -0.2063   -0.8925 H   0  0  0  0  0  0  0  0  0  0  0  0
    0.0262   -1.9440   -1.5069 C   0  0  0  0  0  0  0  0  0  0  0  0
   -0.5202   -2.5645   -0.7973 H   0  0  0  0  0  0  0  0  0  0  0  0
   -0.5067   -1.9474   -2.4585 H   0  0  0  0  0  0  0  0  0  0  0  0
    1.6579   -2.6867   -1.7629 S   0  0  0  0  0  0  0  0  0  0  0  0
    2.2301   -1.6996   -3.1700 C   0  0  0  0  0  0  0  0  0  0  0  0
    2.2668   -0.6465   -2.8898 H   0  0  0  0  0  0  0  0  0  0  0  0
    3.2283   -2.0288   -3.4603 H   0  0  0  0  0  0  0  0  0  0  0  0
    1.5501   -1.8309   -4.0122 H   0  0  0  0  0  0  0  0  0  0  0  0
   -0.8064    1.1568    0.7414 C   0  0  0  0  0  0  0  0  0  0  0  0
   -1.6978    1.8100    0.2029 O   0  0  0  0  0  0  0  0  0  0  0  0
    0.0314    1.6872    1.6415 N   0  0  0  0  0  0  0  0  0  0  0  0
    0.7279    1.0858    2.0517 H   0  0  0  0  0  0  0  0  0  0  0  0
   -0.0137    3.0826    2.0755 C   0  0  0  0  0  0  0  0  0  0  0  0
   -0.9991    3.3070    2.4905 H   0  0  0  0  0  0  0  0  0  0  0  0
    0.7468    3.2694    2.8349 H   0  0  0  0  0  0  0  0  0  0  0  0
    0.1592    3.7397    1.2213 H   0  0  0  0  0  0  0  0  0  0  0  0
  5  6  2  0  0  0  0
  5  7  1  0  0  0  0
  2  3  1  0  0  0  0
  2  4  1  0  0  0  0
  2  5  1  0  0  0  0
  1  2  1  0  0  0  0
 22 23  2  0  0  0  0
 22 24  1  0  0  0  0
 18 19  1  0  0  0  0
 18 20  1  0  0  0  0
 18 21  1  0  0  0  0
 17 18  1  0  0  0  0
 14 15  1  0  0  0  0
 14 16  1  0  0  0  0
 14 17  1  0  0  0  0
 11 12  1  0  0  0  0
 11 13  1  0  0  0  0
 11 14  1  0  0  0  0
  9 10  1  0  0  0  0
  9 11  1  0  0  0  0
  9 22  1  0  0  0  0
  7  8  1  0  0  0  0
  7  9  1  0  0  0  0
 26 27  1  0  0  0  0
 26 28  1  0  0  0  0
 26 29  1  0  0  0  0
 24 25  1  0  0  0  0
 24 26  1  0  0  0  0
M  END
$$$$
default_name
  -OEChem-02102213163D

 29 28  0     1  0  0  0  0  0999 V2000
   -3.5781   -3.7296    1.2702 H   0  0  0  0  0  0  0  0  0  0  0  0
   -3.5311   -2.7616    0.7732 C   0  0  0  0  0  0  0  0  0  0  0  0
   -4.2371   -2.0766    1.2382 H   0  0  0  0  0  0  0  0  0  0  0  0
   -3.7681   -2.8816   -0.2818 H   0  0  0  0  0  0  0  0  0  0  0  0
   -2.1321   -2.2086    0.9112 C   0  0  0  0  0  0  0  0  0  0  0  0
   -1.2751   -2.8426    1.5112 O   0  0  0  0  0  0  0  0  0  0  0  0
   -1.9041   -1.0186    0.3602 N   0  0  0  0  0  0  0  0  0  0  0  0
   -2.6671   -0.5416   -0.0988 H   0  0  0  0  0  0  0  0  0  0  0  0
   -0.6131   -0.3236    0.3832 C   0  0  1  0  0  0  0  0  0  0  0  0
    0.0142   -0.7800    1.1506 H   0  0  0  0  0  0  0  0  0  0  0  0
    0.0816   -0.5059   -0.9788 C   0  0  0  0  0  0  0  0  0  0  0  0
   -0.4012    0.1468   -1.7093 H   0  0  0  0  0  0  0  0  0  0  0  0
    1.1270   -0.2063   -0.8925 H   0  0  0  0  0  0  0  0  0  0  0  0
    0.0262   -1.9440   -1.5069 C   0  0  0  0  0  0  0  0  0  0  0  0
   -0.7296   -2.4995   -0.9525 H   0  0  0  0  0  0  0  0  0  0  0  0
   -0.2583   -1.9199   -2.5595 H   0  0  0  0  0  0  0  0  0  0  0  0
    1.5973   -2.8324   -1.3595 S   0  0  0  0  0  0  0  0  0  0  0  0
    2.5803   -1.9285   -2.5836 C   0  0  0  0  0  0  0  0  0  0  0  0
    2.6429   -0.8771   -2.3012 H   0  0  0  0  0  0  0  0  0  0  0  0
    3.5851   -2.3500   -2.6230 H   0  0  0  0  0  0  0  0  0  0  0  0
    2.1157   -2.0165   -3.5661 H   0  0  0  0  0  0  0  0  0  0  0  0
   -0.8064    1.1568    0.7414 C   0  0  0  0  0  0  0  0  0  0  0  0
   -1.6978    1.8100    0.2029 O   0  0  0  0  0  0  0  0  0  0  0  0
    0.0314    1.6872    1.6415 N   0  0  0  0  0  0  0  0  0  0  0  0
    0.7279    1.0858    2.0517 H   0  0  0  0  0  0  0  0  0  0  0  0
   -0.0137    3.0826    2.0755 C   0  0  0  0  0  0  0  0  0  0  0  0
   -0.9991    3.3070    2.4905 H   0  0  0  0  0  0  0  0  0  0  0  0
    0.7468    3.2694    2.8349 H   0  0  0  0  0  0  0  0  0  0  0  0
    0.1592    3.7397    1.2213 H   0  0  0  0  0  0  0  0  0  0  0  0
  5  6  2  0  0  0  0
  5  7  1  0  0  0  0
  2  3  1  0  0  0  0
  2  4  1  0  0  0  0
  2  5  1  0  0  0  0
  1  2  1  0  0  0  0
 22 23  2  0  0  0  0
 22 24  1  0  0  0  0
 18 19  1  0  0  0  0
 18 20  1  0  0  0  0
 18 21  1  0  0  0  0
 17 18  1  0  0  0  0
 14 15  1  0  0  0  0
 14 16  1  0  0  0  0
 14 17  1  0  0  0  0
 11 12  1  0  0  0  0
 11 13  1  0  0  0  0
 11 14  1  0  0  0  0
  9 10  1  0  0  0  0
  9 11  1  0  0  0  0
  9 22  1  0  0  0  0
  7  8  1  0  0  0  0
  7  9  1  0  0  0  0
 26 27  1  0  0  0  0
 26 28  1  0  0  0  0
 26 29  1  0  0  0  0
 24 25  1  0  0  0  0
 24 26  1  0  0  0  0
M  END
$$$$
default_name
  -OEChem-02102213163D

 29 28  0     1  0  0  0  0  0999 V2000
   -3.5781   -3.7296    1.2702 H   0  0  0  0  0  0  0  0  0  0  0  0
   -3.5311   -2.7616    0.7732 C   0  0  0  0  0  0  0  0  0  0  0  0
   -4.2371   -2.0766    1.2382 H   0  0  0  0  0  0  0  0  0  0  0  0
   -3.7681   -2.8816   -0.2818 H   0  0  0  0  0  0  0  0  0  0  0  0
   -2.1321   -2.2086    0.9112 C   0  0  0  0  0  0  0  0  0  0  0  0
   -1.2751   -2.8426    1.5112 O   0  0  0  0  0  0  0  0  0  0  0  0
   -1.9041   -1.0186    0.3602 N   0  0  0  0  0  0  0  0  0  0  0  0
   -2.6671   -0.5416   -0.0988 H   0  0  0  0  0  0  0  0  0  0  0  0
   -0.6131   -0.3236    0.3832 C   0  0  1  0  0  0  0  0  0  0  0  0
    0.0142   -0.7800    1.1506 H   0  0  0  0  0  0  0  0  0  0  0  0
    0.0816   -0.5059   -0.9788 C   0  0  0  0  0  0  0  0  0  0  0  0
   -0.4012    0.1468   -1.7093 H   0  0  0  0  0  0  0  0  0  0  0  0
    1.1270   -0.2063   -0.8925 H   0  0  0  0  0  0  0  0  0  0  0  0
    0.0262   -1.9440   -1.5069 C   0  0  0  0  0  0  0  0  0  0  0  0
   -0.8884   -2.4194   -1.1539 H   0  0  0  0  0  0  0  0  0  0  0  0
    0.0087   -1.9164   -2.5970 H   0  0  0  0  0  0  0  0  0  0  0  0
    1.4279   -2.9641   -0.9833 S   0  0  0  0  0  0  0  0  0  0  0  0
    2.7558   -2.1752   -1.9301 C   0  0  0  0  0  0  0  0  0  0  0  0
    2.8427   -1.1280   -1.6391 H   0  0  0  0  0  0  0  0  0  0  0  0
    3.6978   -2.6843   -1.7245 H   0  0  0  0  0  0  0  0  0  0  0  0
    2.5371   -2.2420   -2.9962 H   0  0  0  0  0  0  0  0  0  0  0  0
   -0.8064    1.1568    0.7414 C   0  0  0  0  0  0  0  0  0  0  0  0
   -1.6978    1.8100    0.2029 O   0  0  0  0  0  0  0  0  0  0  0  0
    0.0314    1.6872    1.6415 N   0  0  0  0  0  0  0  0  0  0  0  0
    0.7279    1.0858    2.0517 H   0  0  0  0  0  0  0  0  0  0  0  0
   -0.0137    3.0826    2.0755 C   0  0  0  0  0  0  0  0  0  0  0  0
   -0.9991    3.3070    2.4905 H   0  0  0  0  0  0  0  0  0  0  0  0
    0.7468    3.2694    2.8349 H   0  0  0  0  0  0  0  0  0  0  0  0
    0.1592    3.7397    1.2213 H   0  0  0  0  0  0  0  0  0  0  0  0
  5  6  2  0  0  0  0
  5  7  1  0  0  0  0
  2  3  1  0  0  0  0
  2  4  1  0  0  0  0
  2  5  1  0  0  0  0
  1  2  1  0  0  0  0
 22 23  2  0  0  0  0
 22 24  1  0  0  0  0
 18 19  1  0  0  0  0
 18 20  1  0  0  0  0
 18 21  1  0  0  0  0
 17 18  1  0  0  0  0
 14 15  1  0  0  0  0
 14 16  1  0  0  0  0
 14 17  1  0  0  0  0
 11 12  1  0  0  0  0
 11 13  1  0  0  0  0
 11 14  1  0  0  0  0
  9 10  1  0  0  0  0
  9 11  1  0  0  0  0
  9 22  1  0  0  0  0
  7  8  1  0  0  0  0
  7  9  1  0  0  0  0
 26 27  1  0  0  0  0
 26 28  1  0  0  0  0
 26 29  1  0  0  0  0
 24 25  1  0  0  0  0
 24 26  1  0  0  0  0
M  END
$$$$
default_name
  -OEChem-02102213163D

 29 28  0     1  0  0  0  0  0999 V2000
   -3.5781   -3.7296    1.2702 H   0  0  0  0  0  0  0  0  0  0  0  0
   -3.5311   -2.7616    0.7732 C   0  0  0  0  0  0  0  0  0  0  0  0
   -4.2371   -2.0766    1.2382 H   0  0  0  0  0  0  0  0  0  0  0  0
   -3.7681   -2.8816   -0.2818 H   0  0  0  0  0  0  0  0  0  0  0  0
   -2.1321   -2.2086    0.9112 C   0  0  0  0  0  0  0  0  0  0  0  0
   -1.2751   -2.8426    1.5112 O   0  0  0  0  0  0  0  0  0  0  0  0
   -1.9041   -1.0186    0.3602 N   0  0  0  0  0  0  0  0  0  0  0  0
   -2.6671   -0.5416   -0.0988 H   0  0  0  0  0  0  0  0  0  0  0  0
   -0.6131   -0.3236    0.3832 C   0  0  1  0  0  0  0  0  0  0  0  0
    0.0142   -0.7800    1.1506 H   0  0  0  0  0  0  0  0  0  0  0  0
    0.0816   -0.5059   -0.9788 C   0  0  0  0  0  0  0  0  0  0  0  0
   -0.4012    0.1468   -1.7093 H   0  0  0  0  0  0  0  0  0  0  0  0
    1.1270   -0.2063   -0.8925 H   0  0  0  0  0  0  0  0  0  0  0  0
    0.0262   -1.9440   -1.5069 C   0  0  0  0  0  0  0  0  0  0  0  0
   -0.9858   -2.3298   -1.3877 H   0  0  0  0  0  0  0  0  0  0  0  0
    0.2760   -1.9372   -2.5685 H   0  0  0  0  0  0  0  0  0  0  0  0
    1.1612   -3.0726   -0.6598 S   0  0  0  0  0  0  0  0  0  0  0  0
    2.7445   -2.4231   -1.2538 C   0  0  0  0  0  0  0  0  0  0  0  0
    2.8525   -1.3818   -0.9487 H   0  0  0  0  0  0  0  0  0  0  0  0
    3.5587   -3.0088   -0.8262 H   0  0  0  0  0  0  0  0  0  0  0  0
    2.7857   -2.4921   -2.3412 H   0  0  0  0  0  0  0  0  0  0  0  0
   -0.8064    1.1568    0.7414 C   0  0  0  0  0  0  0  0  0  0  0  0
   -1.6978    1.8100    0.2029 O   0  0  0  0  0  0  0  0  0  0  0  0
    0.0314    1.6872    1.6415 N   0  0  0  0  0  0  0  0  0  0  0  0
    0.7279    1.0858    2.0517 H   0  0  0  0  0  0  0  0  0  0  0  0
   -0.0137    3.0826    2.0755 C   0  0  0  0  0  0  0  0  0  0  0  0
   -0.9991    3.3070    2.4905 H   0  0  0  0  0  0  0  0  0  0  0  0
    0.7468    3.2694    2.8349 H   0  0  0  0  0  0  0  0  0  0  0  0
    0.1592    3.7397    1.2213 H   0  0  0  0  0  0  0  0  0  0  0  0
  5  6  2  0  0  0  0
  5  7  1  0  0  0  0
  2  3  1  0  0  0  0
  2  4  1  0  0  0  0
  2  5  1  0  0  0  0
  1  2  1  0  0  0  0
 22 23  2  0  0  0  0
 22 24  1  0  0  0  0
 18 19  1  0  0  0  0
 18 20  1  0  0  0  0
 18 21  1  0  0  0  0
 17 18  1  0  0  0  0
 14 15  1  0  0  0  0
 14 16  1  0  0  0  0
 14 17  1  0  0  0  0
 11 12  1  0  0  0  0
 11 13  1  0  0  0  0
 11 14  1  0  0  0  0
  9 10  1  0  0  0  0
  9 11  1  0  0  0  0
  9 22  1  0  0  0  0
  7  8  1  0  0  0  0
  7  9  1  0  0  0  0
 26 27  1  0  0  0  0
 26 28  1  0  0  0  0
 26 29  1  0  0  0  0
 24 25  1  0  0  0  0
 24 26  1  0  0  0  0
M  END
$$$$
default_name
  -OEChem-02102213163D

 29 28  0     1  0  0  0  0  0999 V2000
   -3.5781   -3.7296    1.2702 H   0  0  0  0  0  0  0  0  0  0  0  0
   -3.5311   -2.7616    0.7732 C   0  0  0  0  0  0  0  0  0  0  0  0
   -4.2371   -2.0766    1.2382 H   0  0  0  0  0  0  0  0  0  0  0  0
   -3.7681   -2.8816   -0.2818 H   0  0  0  0  0  0  0  0  0  0  0  0
   -2.1321   -2.2086    0.9112 C   0  0  0  0  0  0  0  0  0  0  0  0
   -1.2751   -2.8426    1.5112 O   0  0  0  0  0  0  0  0  0  0  0  0
   -1.9041   -1.0186    0.3602 N   0  0  0  0  0  0  0  0  0  0  0  0
   -2.6671   -0.5416   -0.0988 H   0  0  0  0  0  0  0  0  0  0  0  0
   -0.6131   -0.3236    0.3832 C   0  0  1  0  0  0  0  0  0  0  0  0
    0.0142   -0.7800    1.1506 H   0  0  0  0  0  0  0  0  0  0  0  0
    0.0816   -0.5059   -0.9788 C   0  0  0  0  0  0  0  0  0  0  0  0
   -0.4012    0.1468   -1.7093 H   0  0  0  0  0  0  0  0  0  0  0  0
    1.1270   -0.2063   -0.8925 H   0  0  0  0  0  0  0  0  0  0  0  0
    0.0262   -1.9440   -1.5069 C   0  0  0  0  0  0  0  0  0  0  0  0
   -1.0151   -2.2367   -1.6381 H   0  0  0  0  0  0  0  0  0  0  0  0
    0.5254   -1.9808   -2.4758 H   0  0  0  0  0  0  0  0  0  0  0  0
    0.8153   -3.1506   -0.4110 S   0  0  0  0  0  0  0  0  0  0  0  0
    2.5474   -2.6552   -0.6011 C   0  0  0  0  0  0  0  0  0  0  0  0
    2.6718   -1.6215   -0.2771 H   0  0  0  0  0  0  0  0  0  0  0  0
    3.1774   -3.3014    0.0108 H   0  0  0  0  0  0  0  0  0  0  0  0
    2.8445   -2.7497   -1.6459 H   0  0  0  0  0  0  0  0  0  0  0  0
   -0.8064    1.1568    0.7414 C   0  0  0  0  0  0  0  0  0  0  0  0
   -1.6978    1.8100    0.2029 O   0  0  0  0  0  0  0  0  0  0  0  0
    0.0314    1.6872    1.6415 N   0  0  0  0  0  0  0  0  0  0  0  0
    0.7279    1.0858    2.0517 H   0  0  0  0  0  0  0  0  0  0  0  0
   -0.0137    3.0826    2.0755 C   0  0  0  0  0  0  0  0  0  0  0  0
   -0.9991    3.3070    2.4905 H   0  0  0  0  0  0  0  0  0  0  0  0
    0.7468    3.2694    2.8349 H   0  0  0  0  0  0  0  0  0  0  0  0
    0.1592    3.7397    1.2213 H   0  0  0  0  0  0  0  0  0  0  0  0
  5  6  2  0  0  0  0
  5  7  1  0  0  0  0
  2  3  1  0  0  0  0
  2  4  1  0  0  0  0
  2  5  1  0  0  0  0
  1  2  1  0  0  0  0
 22 23  2  0  0  0  0
 22 24  1  0  0  0  0
 18 19  1  0  0  0  0
 18 20  1  0  0  0  0
 18 21  1  0  0  0  0
 17 18  1  0  0  0  0
 14 15  1  0  0  0  0
 14 16  1  0  0  0  0
 14 17  1  0  0  0  0
 11 12  1  0  0  0  0
 11 13  1  0  0  0  0
 11 14  1  0  0  0  0
  9 10  1  0  0  0  0
  9 11  1  0  0  0  0
  9 22  1  0  0  0  0
  7  8  1  0  0  0  0
  7  9  1  0  0  0  0
 26 27  1  0  0  0  0
 26 28  1  0  0  0  0
 26 29  1  0  0  0  0
 24 25  1  0  0  0  0
 24 26  1  0  0  0  0
M  END
$$$$
default_name
  -OEChem-02102213163D

 29 28  0     1  0  0  0  0  0999 V2000
   -3.5781   -3.7296    1.2702 H   0  0  0  0  0  0  0  0  0  0  0  0
   -3.5311   -2.7616    0.7732 C   0  0  0  0  0  0  0  0  0  0  0  0
   -4.2371   -2.0766    1.2382 H   0  0  0  0  0  0  0  0  0  0  0  0
   -3.7681   -2.8816   -0.2818 H   0  0  0  0  0  0  0  0  0  0  0  0
   -2.1321   -2.2086    0.9112 C   0  0  0  0  0  0  0  0  0  0  0  0
   -1.2751   -2.8426    1.5112 O   0  0  0  0  0  0  0  0  0  0  0  0
   -1.9041   -1.0186    0.3602 N   0  0  0  0  0  0  0  0  0  0  0  0
   -2.6671   -0.5416   -0.0988 H   0  0  0  0  0  0  0  0  0  0  0  0
   -0.6131   -0.3236    0.3832 C   0  0  1  0  0  0  0  0  0  0  0  0
    0.0142   -0.7800    1.1506 H   0  0  0  0  0  0  0  0  0  0  0  0
    0.0816   -0.5059   -0.9788 C   0  0  0  0  0  0  0  0  0  0  0  0
   -0.4012    0.1468   -1.7093 H   0  0  0  0  0  0  0  0  0  0  0  0
    1.1270   -0.2063   -0.8925 H   0  0  0  0  0  0  0  0  0  0  0  0
    0.0262   -1.9440   -1.5069 C   0  0  0  0  0  0  0  0  0  0  0  0
   -0.9744   -2.1465   -1.8879 H   0  0  0  0  0  0  0  0  0  0  0  0
    0.7399   -2.0443   -2.3254 H   0  0  0  0  0  0  0  0  0  0  0  0
    0.4138   -3.1928   -0.2540 S   0  0  0  0  0  0  0  0  0  0  0  0
    2.1778   -2.8557   -0.0162 C   0  0  0  0  0  0  0  0  0  0  0  0
    2.3129   -1.8306    0.3300 H   0  0  0  0  0  0  0  0  0  0  0  0
    2.5797   -3.5423    0.7294 H   0  0  0  0  0  0  0  0  0  0  0  0
    2.7095   -2.9973   -0.9576 H   0  0  0  0  0  0  0  0  0  0  0  0
   -0.8064    1.1568    0.7414 C   0  0  0  0  0  0  0  0  0  0  0  0
   -1.6978    1.8100    0.2029 O   0  0  0  0  0  0  0  0  0  0  0  0
    0.0314    1.6872    1.6415 N   0  0  0  0  0  0  0  0  0  0  0  0
    0.7279    1.0858    2.0517 H   0  0  0  0  0  0  0  0  0  0  0  0
   -0.0137    3.0826    2.0755 C   0  0  0  0  0  0  0  0  0  0  0  0
   -0.9991    3.3070    2.4905 H   0  0  0  0  0  0  0  0  0  0  0  0
    0.7468    3.2694    2.8349 H   0  0  0  0  0  0  0  0  0  0  0  0
    0.1592    3.7397    1.2213 H   0  0  0  0  0  0  0  0  0  0  0  0
  5  6  2  0  0  0  0
  5  7  1  0  0  0  0
  2  3  1  0  0  0  0
  2  4  1  0  0  0  0
  2  5  1  0  0  0  0
  1  2  1  0  0  0  0
 22 23  2  0  0  0  0
 22 24  1  0  0  0  0
 18 19  1  0  0  0  0
 18 20  1  0  0  0  0
 18 21  1  0  0  0  0
 17 18  1  0  0  0  0
 14 15  1  0  0  0  0
 14 16  1  0  0  0  0
 14 17  1  0  0  0  0
 11 12  1  0  0  0  0
 11 13  1  0  0  0  0
 11 14  1  0  0  0  0
  9 10  1  0  0  0  0
  9 11  1  0  0  0  0
  9 22  1  0  0  0  0
  7  8  1  0  0  0  0
  7  9  1  0  0  0  0
 26 27  1  0  0  0  0
 26 28  1  0  0  0  0
 26 29  1  0  0  0  0
 24 25  1  0  0  0  0
 24 26  1  0  0  0  0
M  END
$$$$
default_name
  -OEChem-02102213163D

 29 28  0     1  0  0  0  0  0999 V2000
   -3.5781   -3.7296    1.2702 H   0  0  0  0  0  0  0  0  0  0  0  0
   -3.5311   -2.7616    0.7732 C   0  0  0  0  0  0  0  0  0  0  0  0
   -4.2371   -2.0766    1.2382 H   0  0  0  0  0  0  0  0  0  0  0  0
   -3.7681   -2.8816   -0.2818 H   0  0  0  0  0  0  0  0  0  0  0  0
   -2.1321   -2.2086    0.9112 C   0  0  0  0  0  0  0  0  0  0  0  0
   -1.2751   -2.8426    1.5112 O   0  0  0  0  0  0  0  0  0  0  0  0
   -1.9041   -1.0186    0.3602 N   0  0  0  0  0  0  0  0  0  0  0  0
   -2.6671   -0.5416   -0.0988 H   0  0  0  0  0  0  0  0  0  0  0  0
   -0.6131   -0.3236    0.3832 C   0  0  1  0  0  0  0  0  0  0  0  0
    0.0142   -0.7800    1.1506 H   0  0  0  0  0  0  0  0  0  0  0  0
    0.0816   -0.5059   -0.9788 C   0  0  0  0  0  0  0  0  0  0  0  0
   -0.4012    0.1468   -1.7093 H   0  0  0  0  0  0  0  0  0  0  0  0
    1.1270   -0.2063   -0.8925 H   0  0  0  0  0  0  0  0  0  0  0  0
    0.0262   -1.9440   -1.5069 C   0  0  0  0  0  0  0  0  0  0  0  0
   -0.8663   -2.0654   -2.1201 H   0  0  0  0  0  0  0  0  0  0  0  0
    0.9050   -2.1234   -2.1273 H   0  0  0  0  0  0  0  0  0  0  0  0
   -0.0158   -3.1963   -0.1994 S   0  0  0  0  0  0  0  0  0  0  0  0
    1.6610   -3.0110    0.4609 C   0  0  0  0  0  0  0  0  0  0  0  0
    1.8001   -1.9949    0.8312 H   0  0  0  0  0  0  0  0  0  0  0  0
    1.8064   -3.7149    1.2807 H   0  0  0  0  0  0  0  0  0  0  0  0
    2.3899   -3.2179   -0.3231 H   0  0  0  0  0  0  0  0  0  0  0  0
   -0.8064    1.1568    0.7414 C   0  0  0  0  0  0  0  0  0  0  0  0
   -1.6978    1.8100    0.2029 O   0  0  0  0  0  0  0  0  0  0  0  0
    0.0314    1.6872    1.6415 N   0  0  0  0  0  0  0  0  0  0  0  0
    0.7279    1.0858    2.0517 H   0  0  0  0  0  0  0  0  0  0  0  0
   -0.0137    3.0826    2.0755 C   0  0  0  0  0  0  0  0  0  0  0  0
   -0.9991    3.3070    2.4905 H   0  0  0  0  0  0  0  0  0  0  0  0
    0.7468    3.2694    2.8349 H   0  0  0  0  0  0  0  0  0  0  0  0
    0.1592    3.7397    1.2213 H   0  0  0  0  0  0  0  0  0  0  0  0
  5  6  2  0  0  0  0
  5  7  1  0  0  0  0
  2  3  1  0  0  0  0
  2  4  1  0  0  0  0
  2  5  1  0  0  0  0
  1  2  1  0  0  0  0
 22 23  2  0  0  0  0
 22 24  1  0  0  0  0
 18 19  1  0  0  0  0
 18 20  1  0  0  0  0
 18 21  1  0  0  0  0
 17 18  1  0  0  0  0
 14 15  1  0  0  0  0
 14 16  1  0  0  0  0
 14 17  1  0  0  0  0
 11 12  1  0  0  0  0
 11 13  1  0  0  0  0
 11 14  1  0  0  0  0
  9 10  1  0  0  0  0
  9 11  1  0  0  0  0
  9 22  1  0  0  0  0
  7  8  1  0  0  0  0
  7  9  1  0  0  0  0
 26 27  1  0  0  0  0
 26 28  1  0  0  0  0
 26 29  1  0  0  0  0
 24 25  1  0  0  0  0
 24 26  1  0  0  0  0
M  END
$$$$
default_name
  -OEChem-02102213163D

 29 28  0     1  0  0  0  0  0999 V2000
   -3.5781   -3.7296    1.2702 H   0  0  0  0  0  0  0  0  0  0  0  0
   -3.5311   -2.7616    0.7732 C   0  0  0  0  0  0  0  0  0  0  0  0
   -4.2371   -2.0766    1.2382 H   0  0  0  0  0  0  0  0  0  0  0  0
   -3.7681   -2.8816   -0.2818 H   0  0  0  0  0  0  0  0  0  0  0  0
   -2.1321   -2.2086    0.9112 C   0  0  0  0  0  0  0  0  0  0  0  0
   -1.2751   -2.8426    1.5112 O   0  0  0  0  0  0  0  0  0  0  0  0
   -1.9041   -1.0186    0.3602 N   0  0  0  0  0  0  0  0  0  0  0  0
   -2.6671   -0.5416   -0.0988 H   0  0  0  0  0  0  0  0  0  0  0  0
   -0.6131   -0.3236    0.3832 C   0  0  1  0  0  0  0  0  0  0  0  0
    0.0142   -0.7800    1.1506 H   0  0  0  0  0  0  0  0  0  0  0  0
    0.0816   -0.5059   -0.9788 C   0  0  0  0  0  0  0  0  0  0  0  0
   -0.4012    0.1468   -1.7093 H   0  0  0  0  0  0  0  0  0  0  0  0
    1.1270   -0.2063   -0.8925 H   0  0  0  0  0  0  0  0  0  0  0  0
    0.0262   -1.9440   -1.5069 C   0  0  0  0  0  0  0  0  0  0  0  0
   -0.6983   -1.9989   -2.3190 H   0  0  0  0  0  0  0  0  0  0  0  0
    1.0092   -2.2127   -1.8953 H   0  0  0  0  0  0  0  0  0  0  0  0
   -0.4444   -3.1608   -0.2509 S   0  0  0  0  0  0  0  0  0  0  0  0
    1.0320   -3.1104    0.7976 C   0  0  0  0  0  0  0  0  0  0  0  0
    1.1684   -2.1031    1.1923 H   0  0  0  0  0  0  0  0  0  0  0  0
    0.9102   -3.8075    1.6271 H   0  0  0  0  0  0  0  0  0  0  0  0
    1.9075   -3.3966    0.2141 H   0  0  0  0  0  0  0  0  0  0  0  0
   -0.8064    1.1568    0.7414 C   0  0  0  0  0  0  0  0  0  0  0  0
   -1.6978    1.8100    0.2029 O   0  0  0  0  0  0  0  0  0  0  0  0
    0.0314    1.6872    1.6415 N   0  0  0  0  0  0  0  0  0  0  0  0
    0.7279    1.0858    2.0517 H   0  0  0  0  0  0  0  0  0  0  0  0
   -0.0137    3.0826    2.0755 C   0  0  0  0  0  0  0  0  0  0  0  0
   -0.9991    3.3070    2.4905 H   0  0  0  0  0  0  0  0  0  0  0  0
    0.7468    3.2694    2.8349 H   0  0  0  0  0  0  0  0  0  0  0  0
    0.1592    3.7397    1.2213 H   0  0  0  0  0  0  0  0  0  0  0  0
  5  6  2  0  0  0  0
  5  7  1  0  0  0  0
  2  3  1  0  0  0  0
  2  4  1  0  0  0  0
  2  5  1  0  0  0  0
  1  2  1  0  0  0  0
 22 23  2  0  0  0  0
 22 24  1  0  0  0  0
 18 19  1  0  0  0  0
 18 20  1  0  0  0  0
 18 21  1  0  0  0  0
 17 18  1  0  0  0  0
 14 15  1  0  0  0  0
 14 16  1  0  0  0  0
 14 17  1  0  0  0  0
 11 12  1  0  0  0  0
 11 13  1  0  0  0  0
 11 14  1  0  0  0  0
  9 10  1  0  0  0  0
  9 11  1  0  0  0  0
  9 22  1  0  0  0  0
  7  8  1  0  0  0  0
  7  9  1  0  0  0  0
 26 27  1  0  0  0  0
 26 28  1  0  0  0  0
 26 29  1  0  0  0  0
 24 25  1  0  0  0  0
 24 26  1  0  0  0  0
M  END
$$$$
default_name
  -OEChem-02102213163D

 29 28  0     1  0  0  0  0  0999 V2000
   -3.5781   -3.7296    1.2702 H   0  0  0  0  0  0  0  0  0  0  0  0
   -3.5311   -2.7616    0.7732 C   0  0  0  0  0  0  0  0  0  0  0  0
   -4.2371   -2.0766    1.2382 H   0  0  0  0  0  0  0  0  0  0  0  0
   -3.7681   -2.8816   -0.2818 H   0  0  0  0  0  0  0  0  0  0  0  0
   -2.1321   -2.2086    0.9112 C   0  0  0  0  0  0  0  0  0  0  0  0
   -1.2751   -2.8426    1.5112 O   0  0  0  0  0  0  0  0  0  0  0  0
   -1.9041   -1.0186    0.3602 N   0  0  0  0  0  0  0  0  0  0  0  0
   -2.6671   -0.5416   -0.0988 H   0  0  0  0  0  0  0  0  0  0  0  0
   -0.6131   -0.3236    0.3832 C   0  0  1  0  0  0  0  0  0  0  0  0
    0.0142   -0.7800    1.1506 H   0  0  0  0  0  0  0  0  0  0  0  0
    0.0816   -0.5059   -0.9788 C   0  0  0  0  0  0  0  0  0  0  0  0
   -0.4012    0.1468   -1.7093 H   0  0  0  0  0  0  0  0  0  0  0  0
    1.1270   -0.2063   -0.8925 H   0  0  0  0  0  0  0  0  0  0  0  0
    0.0262   -1.9440   -1.5069 C   0  0  0  0  0  0  0  0  0  0  0  0
   -0.4817   -1.9515   -2.4708 H   0  0  0  0  0  0  0  0  0  0  0  0
    1.0456   -2.3060   -1.6449 H   0  0  0  0  0  0  0  0  0  0  0  0
   -0.8427   -3.0888   -0.4051 S   0  0  0  0  0  0  0  0  0  0  0  0
    0.3339   -3.1472    0.9711 C   0  0  0  0  0  0  0  0  0  0  0  0
    0.4610   -2.1480    1.3888 H   0  0  0  0  0  0  0  0  0  0  0  0
   -0.0478   -3.8139    1.7449 H   0  0  0  0  0  0  0  0  0  0  0  0
    1.2952   -3.5211    0.6176 H   0  0  0  0  0  0  0  0  0  0  0  0
   -0.8064    1.1568    0.7414 C   0  0  0  0  0  0  0  0  0  0  0  0
   -1.6978    1.8100    0.2029 O   0  0  0  0  0  0  0  0  0  0  0  0
    0.0314    1.6872    1.6415 N   0  0  0  0  0  0  0  0  0  0  0  0
    0.7279    1.0858    2.0517 H   0  0  0  0  0  0  0  0  0  0  0  0
   -0.0137    3.0826    2.0755 C   0  0  0  0  0  0  0  0  0  0  0  0
   -0.9991    3.3070    2.4905 H   0  0  0  0  0  0  0  0  0  0  0  0
    0.7468    3.2694    2.8349 H   0  0  0  0  0  0  0  0  0  0  0  0
    0.1592    3.7397    1.2213 H   0  0  0  0  0  0  0  0  0  0  0  0
  5  6  2  0  0  0  0
  5  7  1  0  0  0  0
  2  3  1  0  0  0  0
  2  4  1  0  0  0  0
  2  5  1  0  0  0  0
  1  2  1  0  0  0  0
 22 23  2  0  0  0  0
 22 24  1  0  0  0  0
 18 19  1  0  0  0  0
 18 20  1  0  0  0  0
 18 21  1  0  0  0  0
 17 18  1  0  0  0  0
 14 15  1  0  0  0  0
 14 16  1  0  0  0  0
 14 17  1  0  0  0  0
 11 12  1  0  0  0  0
 11 13  1  0  0  0  0
 11 14  1  0  0  0  0
  9 10  1  0  0  0  0
  9 11  1  0  0  0  0
  9 22  1  0  0  0  0
  7  8  1  0  0  0  0
  7  9  1  0  0  0  0
 26 27  1  0  0  0  0
 26 28  1  0  0  0  0
 26 29  1  0  0  0  0
 24 25  1  0  0  0  0
 24 26  1  0  0  0  0
M  END
$$$$
default_name
  -OEChem-02102213163D

 29 28  0     1  0  0  0  0  0999 V2000
   -3.5781   -3.7296    1.2702 H   0  0  0  0  0  0  0  0  0  0  0  0
   -3.5311   -2.7616    0.7732 C   0  0  0  0  0  0  0  0  0  0  0  0
   -4.2371   -2.0766    1.2382 H   0  0  0  0  0  0  0  0  0  0  0  0
   -3.7681   -2.8816   -0.2818 H   0  0  0  0  0  0  0  0  0  0  0  0
   -2.1321   -2.2086    0.9112 C   0  0  0  0  0  0  0  0  0  0  0  0
   -1.2751   -2.8426    1.5112 O   0  0  0  0  0  0  0  0  0  0  0  0
   -1.9041   -1.0186    0.3602 N   0  0  0  0  0  0  0  0  0  0  0  0
   -2.6671   -0.5416   -0.0988 H   0  0  0  0  0  0  0  0  0  0  0  0
   -0.6131   -0.3236    0.3832 C   0  0  1  0  0  0  0  0  0  0  0  0
    0.0142   -0.7800    1.1506 H   0  0  0  0  0  0  0  0  0  0  0  0
    0.0816   -0.5059   -0.9788 C   0  0  0  0  0  0  0  0  0  0  0  0
   -0.4012    0.1468   -1.7093 H   0  0  0  0  0  0  0  0  0  0  0  0
    1.1270   -0.2063   -0.8925 H   0  0  0  0  0  0  0  0  0  0  0  0
    0.0262   -1.9440   -1.5069 C   0  0  0  0  0  0  0  0  0  0  0  0
   -0.2315   -1.9264   -2.5654 H   0  0  0  0  0  0  0  0  0  0  0  0
    1.0117   -2.3970   -1.3934 H   0  0  0  0  0  0  0  0  0  0  0  0
   -1.1836   -2.9853   -0.6514 S   0  0  0  0  0  0  0  0  0  0  0  0
   -0.3859   -3.1189    0.9696 C   0  0  0  0  0  0  0  0  0  0  0  0
   -0.2741   -2.1265    1.4073 H   0  0  0  0  0  0  0  0  0  0  0  0
   -1.0023   -3.7335    1.6262 H   0  0  0  0  0  0  0  0  0  0  0  0
    0.5946   -3.5831    0.8599 H   0  0  0  0  0  0  0  0  0  0  0  0
   -0.8064    1.1568    0.7414 C   0  0  0  0  0  0  0  0  0  0  0  0
   -1.6978    1.8100    0.2029 O   0  0  0  0  0  0  0  0  0  0  0  0
    0.0314    1.6872    1.6415 N   0  0  0  0  0  0  0  0  0  0  0  0
    0.7279    1.0858    2.0517 H   0  0  0  0  0  0  0  0  0  0  0  0
   -0.0137    3.0826    2.0755 C   0  0  0  0  0  0  0  0  0  0  0  0
   -0.9991    3.3070    2.4905 H   0  0  0  0  0  0  0  0  0  0  0  0
    0.7468    3.2694    2.8349 H   0  0  0  0  0  0  0  0  0  0  0  0
    0.1592    3.7397    1.2213 H   0  0  0  0  0  0  0  0  0  0  0  0
  5  6  2  0  0  0  0
  5  7  1  0  0  0  0
  2  3  1  0  0  0  0
  2  4  1  0  0  0  0
  2  5  1  0  0  0  0
  1  2  1  0  0  0  0
 22 23  2  0  0  0  0
 22 24  1  0  0  0  0
 18 19  1  0  0  0  0
 18 20  1  0  0  0  0
 18 21  1  0  0  0  0
 17 18  1  0  0  0  0
 14 15  1  0  0  0  0
 14 16  1  0  0  0  0
 14 17  1  0  0  0  0
 11 12  1  0  0  0  0
 11 13  1  0  0  0  0
 11 14  1  0  0  0  0
  9 10  1  0  0  0  0
  9 11  1  0  0  0  0
  9 22  1  0  0  0  0
  7  8  1  0  0  0  0
  7  9  1  0  0  0  0
 26 27  1  0  0  0  0
 26 28  1  0  0  0  0
 26 29  1  0  0  0  0
 24 25  1  0  0  0  0
 24 26  1  0  0  0  0
M  END
$$$$
default_name
  -OEChem-02102213163D

 29 28  0     1  0  0  0  0  0999 V2000
   -3.5781   -3.7296    1.2702 H   0  0  0  0  0  0  0  0  0  0  0  0
   -3.5311   -2.7616    0.7732 C   0  0  0  0  0  0  0  0  0  0  0  0
   -4.2371   -2.0766    1.2382 H   0  0  0  0  0  0  0  0  0  0  0  0
   -3.7681   -2.8816   -0.2818 H   0  0  0  0  0  0  0  0  0  0  0  0
   -2.1321   -2.2086    0.9112 C   0  0  0  0  0  0  0  0  0  0  0  0
   -1.2751   -2.8426    1.5112 O   0  0  0  0  0  0  0  0  0  0  0  0
   -1.9041   -1.0186    0.3602 N   0  0  0  0  0  0  0  0  0  0  0  0
   -2.6671   -0.5416   -0.0988 H   0  0  0  0  0  0  0  0  0  0  0  0
   -0.6131   -0.3236    0.3832 C   0  0  1  0  0  0  0  0  0  0  0  0
    0.0142   -0.7800    1.1506 H   0  0  0  0  0  0  0  0  0  0  0  0
    0.0816   -0.5059   -0.9788 C   0  0  0  0  0  0  0  0  0  0  0  0
   -0.4012    0.1468   -1.7093 H   0  0  0  0  0  0  0  0  0  0  0  0
    1.1270   -0.2063   -0.8925 H   0  0  0  0  0  0  0  0  0  0  0  0
    0.0262   -1.9440   -1.5069 C   0  0  0  0  0  0  0  0  0  0  0  0
    0.0354   -1.9253   -2.5963 H   0  0  0  0  0  0  0  0  0  0  0  0
    0.9097   -2.4796   -1.1579 H   0  0  0  0  0  0  0  0  0  0  0  0
   -1.4438   -2.8571   -0.9731 S   0  0  0  0  0  0  0  0  0  0  0  0
   -1.0782   -3.0274    0.7930 C   0  0  0  0  0  0  0  0  0  0  0  0
   -0.9867   -2.0399    1.2464 H   0  0  0  0  0  0  0  0  0  0  0  0
   -1.8883   -3.5719    1.2790 H   0  0  0  0  0  0  0  0  0  0  0  0
   -0.1464   -3.5782    0.9243 H   0  0  0  0  0  0  0  0  0  0  0  0
   -0.8064    1.1568    0.7414 C   0  0  0  0  0  0  0  0  0  0  0  0
   -1.6978    1.8100    0.2029 O   0  0  0  0  0  0  0  0  0  0  0  0
    0.0314    1.6872    1.6415 N   0  0  0  0  0  0  0  0  0  0  0  0
    0.7279    1.0858    2.0517 H   0  0  0  0  0  0  0  0  0  0  0  0
   -0.0137    3.0826    2.0755 C   0  0  0  0  0  0  0  0  0  0  0  0
   -0.9991    3.3070    2.4905 H   0  0  0  0  0  0  0  0  0  0  0  0
    0.7468    3.2694    2.8349 H   0  0  0  0  0  0  0  0  0  0  0  0
    0.1592    3.7397    1.2213 H   0  0  0  0  0  0  0  0  0  0  0  0
  5  6  2  0  0  0  0
  5  7  1  0  0  0  0
  2  3  1  0  0  0  0
  2  4  1  0  0  0  0
  2  5  1  0  0  0  0
  1  2  1  0  0  0  0
 22 23  2  0  0  0  0
 22 24  1  0  0  0  0
 18 19  1  0  0  0  0
 18 20  1  0  0  0  0
 18 21  1  0  0  0  0
 17 18  1  0  0  0  0
 14 15  1  0  0  0  0
 14 16  1  0  0  0  0
 14 17  1  0  0  0  0
 11 12  1  0  0  0  0
 11 13  1  0  0  0  0
 11 14  1  0  0  0  0
  9 10  1  0  0  0  0
  9 11  1  0  0  0  0
  9 22  1  0  0  0  0
  7  8  1  0  0  0  0
  7  9  1  0  0  0  0
 26 27  1  0  0  0  0
 26 28  1  0  0  0  0
 26 29  1  0  0  0  0
 24 25  1  0  0  0  0
 24 26  1  0  0  0  0
M  END
$$$$
default_name
  -OEChem-02102213163D

 29 28  0     1  0  0  0  0  0999 V2000
   -3.5781   -3.7296    1.2702 H   0  0  0  0  0  0  0  0  0  0  0  0
   -3.5311   -2.7616    0.7732 C   0  0  0  0  0  0  0  0  0  0  0  0
   -4.2371   -2.0766    1.2382 H   0  0  0  0  0  0  0  0  0  0  0  0
   -3.7681   -2.8816   -0.2818 H   0  0  0  0  0  0  0  0  0  0  0  0
   -2.1321   -2.2086    0.9112 C   0  0  0  0  0  0  0  0  0  0  0  0
   -1.2751   -2.8426    1.5112 O   0  0  0  0  0  0  0  0  0  0  0  0
   -1.9041   -1.0186    0.3602 N   0  0  0  0  0  0  0  0  0  0  0  0
   -2.6671   -0.5416   -0.0988 H   0  0  0  0  0  0  0  0  0  0  0  0
   -0.6131   -0.3236    0.3832 C   0  0  1  0  0  0  0  0  0  0  0  0
    0.0142   -0.7800    1.1506 H   0  0  0  0  0  0  0  0  0  0  0  0
    0.0816   -0.5059   -0.9788 C   0  0  0  0  0  0  0  0  0  0  0  0
   -0.4012    0.1468   -1.7093 H   0  0  0  0  0  0  0  0  0  0  0  0
    1.1270   -0.2063   -0.8925 H   0  0  0  0  0  0  0  0  0  0  0  0
    0.0262   -1.9440   -1.5069 C   0  0  0  0  0  0  0  0  0  0  0  0
    0.3008   -1.9484   -2.5613 H   0  0  0  0  0  0  0  0  0  0  0  0
    0.7467   -2.5480   -0.9544 H   0  0  0  0  0  0  0  0  0  0  0  0
   -1.6057   -2.7132   -1.3481 S   0  0  0  0  0  0  0  0  0  0  0  0
   -1.6959   -2.8789    0.4536 C   0  0  0  0  0  0  0  0  0  0  0  0
   -1.6282   -1.8943    0.9172 H   0  0  0  0  0  0  0  0  0  0  0  0
   -2.6454   -3.3400    0.7270 H   0  0  0  0  0  0  0  0  0  0  0  0
   -0.8774   -3.5068    0.8067 H   0  0  0  0  0  0  0  0  0  0  0  0
   -0.8064    1.1568    0.7414 C   0  0  0  0  0  0  0  0  0  0  0  0
   -1.6978    1.8100    0.2029 O   0  0  0  0  0  0  0  0  0  0  0  0
    0.0314    1.6872    1.6415 N   0  0  0  0  0  0  0  0  0  0  0  0
    0.7279    1.0858    2.0517 H   0  0  0  0  0  0  0  0  0  0  0  0
   -0.0137    3.0826    2.0755 C   0  0  0  0  0  0  0  0  0  0  0  0
   -0.9991    3.3070    2.4905 H   0  0  0  0  0  0  0  0  0  0  0  0
    0.7468    3.2694    2.8349 H   0  0  0  0  0  0  0  0  0  0  0  0
    0.1592    3.7397    1.2213 H   0  0  0  0  0  0  0  0  0  0  0  0
  5  6  2  0  0  0  0
  5  7  1  0  0  0  0
  2  3  1  0  0  0  0
  2  4  1  0  0  0  0
  2  5  1  0  0  0  0
  1  2  1  0  0  0  0
 22 23  2  0  0  0  0
 22 24  1  0  0  0  0
 18 19  1  0  0  0  0
 18 20  1  0  0  0  0
 18 21  1  0  0  0  0
 17 18  1  0  0  0  0
 14 15  1  0  0  0  0
 14 16  1  0  0  0  0
 14 17  1  0  0  0  0
 11 12  1  0  0  0  0
 11 13  1  0  0  0  0
 11 14  1  0  0  0  0
  9 10  1  0  0  0  0
  9 11  1  0  0  0  0
  9 22  1  0  0  0  0
  7  8  1  0  0  0  0
  7  9  1  0  0  0  0
 26 27  1  0  0  0  0
 26 28  1  0  0  0  0
 26 29  1  0  0  0  0
 24 25  1  0  0  0  0
 24 26  1  0  0  0  0
M  END
$$$$
default_name
  -OEChem-02102213163D

 29 28  0     1  0  0  0  0  0999 V2000
   -3.5781   -3.7296    1.2702 H   0  0  0  0  0  0  0  0  0  0  0  0
   -3.5311   -2.7616    0.7732 C   0  0  0  0  0  0  0  0  0  0  0  0
   -4.2371   -2.0766    1.2382 H   0  0  0  0  0  0  0  0  0  0  0  0
   -3.7681   -2.8816   -0.2818 H   0  0  0  0  0  0  0  0  0  0  0  0
   -2.1321   -2.2086    0.9112 C   0  0  0  0  0  0  0  0  0  0  0  0
   -1.2751   -2.8426    1.5112 O   0  0  0  0  0  0  0  0  0  0  0  0
   -1.9041   -1.0186    0.3602 N   0  0  0  0  0  0  0  0  0  0  0  0
   -2.6671   -0.5416   -0.0988 H   0  0  0  0  0  0  0  0  0  0  0  0
   -0.6131   -0.3236    0.3832 C   0  0  1  0  0  0  0  0  0  0  0  0
    0.0142   -0.7800    1.1506 H   0  0  0  0  0  0  0  0  0  0  0  0
    0.0816   -0.5059   -0.9788 C   0  0  0  0  0  0  0  0  0  0  0  0
   -0.4012    0.1468   -1.7093 H   0  0  0  0  0  0  0  0  0  0  0  0
    1.1270   -0.2063   -0.8925 H   0  0  0  0  0  0  0  0  0  0  0  0
    0.0262   -1.9440   -1.5069 C   0  0  0  0  0  0  0  0  0  0  0  0
    0.5466   -1.9940   -2.4628 H   0  0  0  0  0  0  0  0  0  0  0  0
    0.5337   -2.5977   -0.7967 H   0  0  0  0  0  0  0  0  0  0  0  0
   -1.6581   -2.5632   -1.7511 S   0  0  0  0  0  0  0  0  0  0  0  0
   -2.1969   -2.6836   -0.0257 C   0  0  0  0  0  0  0  0  0  0  0  0
   -2.1550   -1.6995    0.4421 H   0  0  0  0  0  0  0  0  0  0  0  0
   -3.2220   -3.0537    0.0078 H   0  0  0  0  0  0  0  0  0  0  0  0
   -1.5486   -3.3738    0.5148 H   0  0  0  0  0  0  0  0  0  0  0  0
   -0.8064    1.1568    0.7414 C   0  0  0  0  0  0  0  0  0  0  0  0
   -1.6978    1.8100    0.2029 O   0  0  0  0  0  0  0  0  0  0  0  0
    0.0314    1.6872    1.6415 N   0  0  0  0  0  0  0  0  0  0  0  0
    0.7279    1.0858    2.0517 H   0  0  0  0  0  0  0  0  0  0  0  0
   -0.0137    3.0826    2.0755 C   0  0  0  0  0  0  0  0  0  0  0  0
   -0.9991    3.3070    2.4905 H   0  0  0  0  0  0  0  0  0  0  0  0
    0.7468    3.2694    2.8349 H   0  0  0  0  0  0  0  0  0  0  0  0
    0.1592    3.7397    1.2213 H   0  0  0  0  0  0  0  0  0  0  0  0
  5  6  2  0  0  0  0
  5  7  1  0  0  0  0
  2  3  1  0  0  0  0
  2  4  1  0  0  0  0
  2  5  1  0  0  0  0
  1  2  1  0  0  0  0
 22 23  2  0  0  0  0
 22 24  1  0  0  0  0
 18 19  1  0  0  0  0
 18 20  1  0  0  0  0
 18 21  1  0  0  0  0
 17 18  1  0  0  0  0
 14 15  1  0  0  0  0
 14 16  1  0  0  0  0
 14 17  1  0  0  0  0
 11 12  1  0  0  0  0
 11 13  1  0  0  0  0
 11 14  1  0  0  0  0
  9 10  1  0  0  0  0
  9 11  1  0  0  0  0
  9 22  1  0  0  0  0
  7  8  1  0  0  0  0
  7  9  1  0  0  0  0
 26 27  1  0  0  0  0
 26 28  1  0  0  0  0
 26 29  1  0  0  0  0
 24 25  1  0  0  0  0
 24 26  1  0  0  0  0
M  END
$$$$
default_name
  -OEChem-02102213163D

 29 28  0     1  0  0  0  0  0999 V2000
   -3.5781   -3.7296    1.2702 H   0  0  0  0  0  0  0  0  0  0  0  0
   -3.5311   -2.7616    0.7732 C   0  0  0  0  0  0  0  0  0  0  0  0
   -4.2371   -2.0766    1.2382 H   0  0  0  0  0  0  0  0  0  0  0  0
   -3.7681   -2.8816   -0.2818 H   0  0  0  0  0  0  0  0  0  0  0  0
   -2.1321   -2.2086    0.9112 C   0  0  0  0  0  0  0  0  0  0  0  0
   -1.2751   -2.8426    1.5112 O   0  0  0  0  0  0  0  0  0  0  0  0
   -1.9041   -1.0186    0.3602 N   0  0  0  0  0  0  0  0  0  0  0  0
   -2.6671   -0.5416   -0.0988 H   0  0  0  0  0  0  0  0  0  0  0  0
   -0.6131   -0.3236    0.3832 C   0  0  1  0  0  0  0  0  0  0  0  0
    0.0142   -0.7800    1.1506 H   0  0  0  0  0  0  0  0  0  0  0  0
    0.0816   -0.5059   -0.9788 C   0  0  0  0  0  0  0  0  0  0  0  0
   -0.4012    0.1468   -1.7093 H   0  0  0  0  0  0  0  0  0  0  0  0
    1.1270   -0.2063   -0.8925 H   0  0  0  0  0  0  0  0  0  0  0  0
    0.0262   -1.9440   -1.5069 C   0  0  0  0  0  0  0  0  0  0  0  0
    0.7561   -2.0591   -2.3076 H   0  0  0  0  0  0  0  0  0  0  0  0
    0.2852   -2.6253   -0.6957 H   0  0  0  0  0  0  0  0  0  0  0  0
   -1.5975   -2.4174   -2.1544 S   0  0  0  0  0  0  0  0  0  0  0  0
   -2.5471   -2.4548   -0.6121 C   0  0  0  0  0  0  0  0  0  0  0  0
   -2.5311   -1.4689   -0.1465 H   0  0  0  0  0  0  0  0  0  0  0  0
   -3.5788   -2.7324   -0.8295 H   0  0  0  0  0  0  0  0  0  0  0  0
   -2.1141   -3.1882    0.0687 H   0  0  0  0  0  0  0  0  0  0  0  0
   -0.8064    1.1568    0.7414 C   0  0  0  0  0  0  0  0  0  0  0  0
   -1.6978    1.8100    0.2029 O   0  0  0  0  0  0  0  0  0  0  0  0
    0.0314    1.6872    1.6415 N   0  0  0  0  0  0  0  0  0  0  0  0
    0.7279    1.0858    2.0517 H   0  0  0  0  0  0  0  0  0  0  0  0
   -0.0137    3.0826    2.0755 C   0  0  0  0  0  0  0  0  0  0  0  0
   -0.9991    3.3070    2.4905 H   0  0  0  0  0  0  0  0  0  0  0  0
    0.7468    3.2694    2.8349 H   0  0  0  0  0  0  0  0  0  0  0  0
    0.1592    3.7397    1.2213 H   0  0  0  0  0  0  0  0  0  0  0  0
  5  6  2  0  0  0  0
  5  7  1  0  0  0  0
  2  3  1  0  0  0  0
  2  4  1  0  0  0  0
  2  5  1  0  0  0  0
  1  2  1  0  0  0  0
 22 23  2  0  0  0  0
 22 24  1  0  0  0  0
 18 19  1  0  0  0  0
 18 20  1  0  0  0  0
 18 21  1  0  0  0  0
 17 18  1  0  0  0  0
 14 15  1  0  0  0  0
 14 16  1  0  0  0  0
 14 17  1  0  0  0  0
 11 12  1  0  0  0  0
 11 13  1  0  0  0  0
 11 14  1  0  0  0  0
  9 10  1  0  0  0  0
  9 11  1  0  0  0  0
  9 22  1  0  0  0  0
  7  8  1  0  0  0  0
  7  9  1  0  0  0  0
 26 27  1  0  0  0  0
 26 28  1  0  0  0  0
 26 29  1  0  0  0  0
 24 25  1  0  0  0  0
 24 26  1  0  0  0  0
M  END
$$$$
default_name
  -OEChem-02102213163D

 29 28  0     1  0  0  0  0  0999 V2000
   -3.5781   -3.7296    1.2702 H   0  0  0  0  0  0  0  0  0  0  0  0
   -3.5311   -2.7616    0.7732 C   0  0  0  0  0  0  0  0  0  0  0  0
   -4.2371   -2.0766    1.2382 H   0  0  0  0  0  0  0  0  0  0  0  0
   -3.7681   -2.8816   -0.2818 H   0  0  0  0  0  0  0  0  0  0  0  0
   -2.1321   -2.2086    0.9112 C   0  0  0  0  0  0  0  0  0  0  0  0
   -1.2751   -2.8426    1.5112 O   0  0  0  0  0  0  0  0  0  0  0  0
   -1.9041   -1.0186    0.3602 N   0  0  0  0  0  0  0  0  0  0  0  0
   -2.6671   -0.5416   -0.0988 H   0  0  0  0  0  0  0  0  0  0  0  0
   -0.6131   -0.3236    0.3832 C   0  0  1  0  0  0  0  0  0  0  0  0
    0.0142   -0.7800    1.1506 H   0  0  0  0  0  0  0  0  0  0  0  0
    0.0816   -0.5059   -0.9788 C   0  0  0  0  0  0  0  0  0  0  0  0
   -0.4012    0.1468   -1.7093 H   0  0  0  0  0  0  0  0  0  0  0  0
    1.1270   -0.2063   -0.8925 H   0  0  0  0  0  0  0  0  0  0  0  0
    0.0262   -1.9440   -1.5069 C   0  0  0  0  0  0  0  0  0  0  0  0
    0.9149   -2.1392   -2.1063 H   0  0  0  0  0  0  0  0  0  0  0  0
    0.0183   -2.6287   -0.6581 H   0  0  0  0  0  0  0  0  0  0  0  0
   -1.4281   -2.2858   -2.5307 S   0  0  0  0  0  0  0  0  0  0  0  0
   -2.7225   -2.2080   -1.2657 C   0  0  0  0  0  0  0  0  0  0  0  0
   -2.7309   -1.2181   -0.8086 H   0  0  0  0  0  0  0  0  0  0  0  0
   -3.6915   -2.3982   -1.7280 H   0  0  0  0  0  0  0  0  0  0  0  0
   -2.5356   -2.9626   -0.5012 H   0  0  0  0  0  0  0  0  0  0  0  0
   -0.8064    1.1568    0.7414 C   0  0  0  0  0  0  0  0  0  0  0  0
   -1.6978    1.8100    0.2029 O   0  0  0  0  0  0  0  0  0  0  0  0
    0.0314    1.6872    1.6415 N   0  0  0  0  0  0  0  0  0  0  0  0
    0.7279    1.0858    2.0517 H   0  0  0  0  0  0  0  0  0  0  0  0
   -0.0137    3.0826    2.0755 C   0  0  0  0  0  0  0  0  0  0  0  0
   -0.9991    3.3070    2.4905 H   0  0  0  0  0  0  0  0  0  0  0  0
    0.7468    3.2694    2.8349 H   0  0  0  0  0  0  0  0  0  0  0  0
    0.1592    3.7397    1.2213 H   0  0  0  0  0  0  0  0  0  0  0  0
  5  6  2  0  0  0  0
  5  7  1  0  0  0  0
  2  3  1  0  0  0  0
  2  4  1  0  0  0  0
  2  5  1  0  0  0  0
  1  2  1  0  0  0  0
 22 23  2  0  0  0  0
 22 24  1  0  0  0  0
 18 19  1  0  0  0  0
 18 20  1  0  0  0  0
 18 21  1  0  0  0  0
 17 18  1  0  0  0  0
 14 15  1  0  0  0  0
 14 16  1  0  0  0  0
 14 17  1  0  0  0  0
 11 12  1  0  0  0  0
 11 13  1  0  0  0  0
 11 14  1  0  0  0  0
  9 10  1  0  0  0  0
  9 11  1  0  0  0  0
  9 22  1  0  0  0  0
  7  8  1  0  0  0  0
  7  9  1  0  0  0  0
 26 27  1  0  0  0  0
 26 28  1  0  0  0  0
 26 29  1  0  0  0  0
 24 25  1  0  0  0  0
 24 26  1  0  0  0  0
M  END
$$$$
default_name
  -OEChem-02102213163D

 29 28  0     1  0  0  0  0  0999 V2000
   -3.5781   -3.7296    1.2702 H   0  0  0  0  0  0  0  0  0  0  0  0
   -3.5311   -2.7616    0.7732 C   0  0  0  0  0  0  0  0  0  0  0  0
   -4.2371   -2.0766    1.2382 H   0  0  0  0  0  0  0  0  0  0  0  0
   -3.7681   -2.8816   -0.2818 H   0  0  0  0  0  0  0  0  0  0  0  0
   -2.1321   -2.2086    0.9112 C   0  0  0  0  0  0  0  0  0  0  0  0
   -1.2751   -2.8426    1.5112 O   0  0  0  0  0  0  0  0  0  0  0  0
   -1.9041   -1.0186    0.3602 N   0  0  0  0  0  0  0  0  0  0  0  0
   -2.6671   -0.5416   -0.0988 H   0  0  0  0  0  0  0  0  0  0  0  0
   -0.6131   -0.3236    0.3832 C   0  0  1  0  0  0  0  0  0  0  0  0
    0.0142   -0.7800    1.1506 H   0  0  0  0  0  0  0  0  0  0  0  0
    0.0816   -0.5059   -0.9788 C   0  0  0  0  0  0  0  0  0  0  0  0
   -0.4012    0.1468   -1.7093 H   0  0  0  0  0  0  0  0  0  0  0  0
    1.1270   -0.2063   -0.8925 H   0  0  0  0  0  0  0  0  0  0  0  0
    0.0262   -1.9440   -1.5069 C   0  0  0  0  0  0  0  0  0  0  0  0
    1.0123   -2.2288   -1.8724 H   0  0  0  0  0  0  0  0  0  0  0  0
   -0.2490   -2.6080   -0.6867 H   0  0  0  0  0  0  0  0  0  0  0  0
   -1.1614   -2.1773   -2.8542 S   0  0  0  0  0  0  0  0  0  0  0  0
   -2.7113   -1.9601   -1.9419 C   0  0  0  0  0  0  0  0  0  0  0  0
   -2.7408   -0.9642   -1.4989 H   0  0  0  0  0  0  0  0  0  0  0  0
   -3.5525   -2.0737   -2.6263 H   0  0  0  0  0  0  0  0  0  0  0  0
   -2.7842   -2.7126   -1.1561 H   0  0  0  0  0  0  0  0  0  0  0  0
   -0.8064    1.1568    0.7414 C   0  0  0  0  0  0  0  0  0  0  0  0
   -1.6978    1.8100    0.2029 O   0  0  0  0  0  0  0  0  0  0  0  0
    0.0314    1.6872    1.6415 N   0  0  0  0  0  0  0  0  0  0  0  0
    0.7279    1.0858    2.0517 H   0  0  0  0  0  0  0  0  0  0  0  0
   -0.0137    3.0826    2.0755 C   0  0  0  0  0  0  0  0  0  0  0  0
   -0.9991    3.3070    2.4905 H   0  0  0  0  0  0  0  0  0  0  0  0
    0.7468    3.2694    2.8349 H   0  0  0  0  0  0  0  0  0  0  0  0
    0.1592    3.7397    1.2213 H   0  0  0  0  0  0  0  0  0  0  0  0
  5  6  2  0  0  0  0
  5  7  1  0  0  0  0
  2  3  1  0  0  0  0
  2  4  1  0  0  0  0
  2  5  1  0  0  0  0
  1  2  1  0  0  0  0
 22 23  2  0  0  0  0
 22 24  1  0  0  0  0
 18 19  1  0  0  0  0
 18 20  1  0  0  0  0
 18 21  1  0  0  0  0
 17 18  1  0  0  0  0
 14 15  1  0  0  0  0
 14 16  1  0  0  0  0
 14 17  1  0  0  0  0
 11 12  1  0  0  0  0
 11 13  1  0  0  0  0
 11 14  1  0  0  0  0
  9 10  1  0  0  0  0
  9 11  1  0  0  0  0
  9 22  1  0  0  0  0
  7  8  1  0  0  0  0
  7  9  1  0  0  0  0
 26 27  1  0  0  0  0
 26 28  1  0  0  0  0
 26 29  1  0  0  0  0
 24 25  1  0  0  0  0
 24 26  1  0  0  0  0
M  END
$$$$
default_name
  -OEChem-02102213163D

 29 28  0     1  0  0  0  0  0999 V2000
   -3.5781   -3.7296    1.2702 H   0  0  0  0  0  0  0  0  0  0  0  0
   -3.5311   -2.7616    0.7732 C   0  0  0  0  0  0  0  0  0  0  0  0
   -4.2371   -2.0766    1.2382 H   0  0  0  0  0  0  0  0  0  0  0  0
   -3.7681   -2.8816   -0.2818 H   0  0  0  0  0  0  0  0  0  0  0  0
   -2.1321   -2.2086    0.9112 C   0  0  0  0  0  0  0  0  0  0  0  0
   -1.2751   -2.8426    1.5112 O   0  0  0  0  0  0  0  0  0  0  0  0
   -1.9041   -1.0186    0.3602 N   0  0  0  0  0  0  0  0  0  0  0  0
   -2.6671   -0.5416   -0.0988 H   0  0  0  0  0  0  0  0  0  0  0  0
   -0.6131   -0.3236    0.3832 C   0  0  1  0  0  0  0  0  0  0  0  0
    0.0142   -0.7800    1.1506 H   0  0  0  0  0  0  0  0  0  0  0  0
    0.0816   -0.5059   -0.9788 C   0  0  0  0  0  0  0  0  0  0  0  0
   -0.4012    0.1468   -1.7093 H   0  0  0  0  0  0  0  0  0  0  0  0
    1.1270   -0.2063   -0.8925 H   0  0  0  0  0  0  0  0  0  0  0  0
    0.0262   -1.9440   -1.5069 C   0  0  0  0  0  0  0  0  0  0  0  0
    1.0416   -2.3219   -1.6221 H   0  0  0  0  0  0  0  0  0  0  0  0
   -0.4984   -2.5643   -0.7793 H   0  0  0  0  0  0  0  0  0  0  0  0
   -0.8155   -2.0992   -3.1029 S   0  0  0  0  0  0  0  0  0  0  0  0
   -2.5142   -1.7280   -2.5947 C   0  0  0  0  0  0  0  0  0  0  0  0
   -2.5601   -0.7245   -2.1705 H   0  0  0  0  0  0  0  0  0  0  0  0
   -3.1711   -1.7810   -3.4633 H   0  0  0  0  0  0  0  0  0  0  0  0
   -2.8430   -2.4550   -1.8515 H   0  0  0  0  0  0  0  0  0  0  0  0
   -0.8064    1.1568    0.7414 C   0  0  0  0  0  0  0  0  0  0  0  0
   -1.6978    1.8100    0.2029 O   0  0  0  0  0  0  0  0  0  0  0  0
    0.0314    1.6872    1.6415 N   0  0  0  0  0  0  0  0  0  0  0  0
    0.7279    1.0858    2.0517 H   0  0  0  0  0  0  0  0  0  0  0  0
   -0.0137    3.0826    2.0755 C   0  0  0  0  0  0  0  0  0  0  0  0
   -0.9991    3.3070    2.4905 H   0  0  0  0  0  0  0  0  0  0  0  0
    0.7468    3.2694    2.8349 H   0  0  0  0  0  0  0  0  0  0  0  0
    0.1592    3.7397    1.2213 H   0  0  0  0  0  0  0  0  0  0  0  0
  5  6  2  0  0  0  0
  5  7  1  0  0  0  0
  2  3  1  0  0  0  0
  2  4  1  0  0  0  0
  2  5  1  0  0  0  0
  1  2  1  0  0  0  0
 22 23  2  0  0  0  0
 22 24  1  0  0  0  0
 18 19  1  0  0  0  0
 18 20  1  0  0  0  0
 18 21  1  0  0  0  0
 17 18  1  0  0  0  0
 14 15  1  0  0  0  0
 14 16  1  0  0  0  0
 14 17  1  0  0  0  0
 11 12  1  0  0  0  0
 11 13  1  0  0  0  0
 11 14  1  0  0  0  0
  9 10  1  0  0  0  0
  9 11  1  0  0  0  0
  9 22  1  0  0  0  0
  7  8  1  0  0  0  0
  7  9  1  0  0  0  0
 26 27  1  0  0  0  0
 26 28  1  0  0  0  0
 26 29  1  0  0  0  0
 24 25  1  0  0  0  0
 24 26  1  0  0  0  0
M  END
$$$$
default_name
  -OEChem-02102213163D

 29 28  0     1  0  0  0  0  0999 V2000
   -3.5781   -3.7296    1.2702 H   0  0  0  0  0  0  0  0  0  0  0  0
   -3.5311   -2.7616    0.7732 C   0  0  0  0  0  0  0  0  0  0  0  0
   -4.2371   -2.0766    1.2382 H   0  0  0  0  0  0  0  0  0  0  0  0
   -3.7681   -2.8816   -0.2818 H   0  0  0  0  0  0  0  0  0  0  0  0
   -2.1321   -2.2086    0.9112 C   0  0  0  0  0  0  0  0  0  0  0  0
   -1.2751   -2.8426    1.5112 O   0  0  0  0  0  0  0  0  0  0  0  0
   -1.9041   -1.0186    0.3602 N   0  0  0  0  0  0  0  0  0  0  0  0
   -2.6671   -0.5416   -0.0988 H   0  0  0  0  0  0  0  0  0  0  0  0
   -0.6131   -0.3236    0.3832 C   0  0  1  0  0  0  0  0  0  0  0  0
    0.0142   -0.7800    1.1506 H   0  0  0  0  0  0  0  0  0  0  0  0
    0.0816   -0.5059   -0.9788 C   0  0  0  0  0  0  0  0  0  0  0  0
   -0.4012    0.1468   -1.7093 H   0  0  0  0  0  0  0  0  0  0  0  0
    1.1270   -0.2063   -0.8925 H   0  0  0  0  0  0  0  0  0  0  0  0
    0.0262   -1.9440   -1.5069 C   0  0  0  0  0  0  0  0  0  0  0  0
    1.0008   -2.4120   -1.3722 H   0  0  0  0  0  0  0  0  0  0  0  0
   -0.7130   -2.5008   -0.9298 H   0  0  0  0  0  0  0  0  0  0  0  0
   -0.4140   -2.0571   -3.2600 S   0  0  0  0  0  0  0  0  0  0  0  0
   -2.1446   -1.5275   -3.1795 C   0  0  0  0  0  0  0  0  0  0  0  0
   -2.2011   -0.5155   -2.7776 H   0  0  0  0  0  0  0  0  0  0  0  0
   -2.5734   -1.5402   -4.1819 H   0  0  0  0  0  0  0  0  0  0  0  0
   -2.7080   -2.2074   -2.5398 H   0  0  0  0  0  0  0  0  0  0  0  0
   -0.8064    1.1568    0.7414 C   0  0  0  0  0  0  0  0  0  0  0  0
   -1.6978    1.8100    0.2029 O   0  0  0  0  0  0  0  0  0  0  0  0
    0.0314    1.6872    1.6415 N   0  0  0  0  0  0  0  0  0  0  0  0
    0.7279    1.0858    2.0517 H   0  0  0  0  0  0  0  0  0  0  0  0
   -0.0137    3.0826    2.0755 C   0  0  0  0  0  0  0  0  0  0  0  0
   -0.9991    3.3070    2.4905 H   0  0  0  0  0  0  0  0  0  0  0  0
    0.7468    3.2694    2.8349 H   0  0  0  0  0  0  0  0  0  0  0  0
    0.1592    3.7397    1.2213 H   0  0  0  0  0  0  0  0  0  0  0  0
  5  6  2  0  0  0  0
  5  7  1  0  0  0  0
  2  3  1  0  0  0  0
  2  4  1  0  0  0  0
  2  5  1  0  0  0  0
  1  2  1  0  0  0  0
 22 23  2  0  0  0  0
 22 24  1  0  0  0  0
 18 19  1  0  0  0  0
 18 20  1  0  0  0  0
 18 21  1  0  0  0  0
 17 18  1  0  0  0  0
 14 15  1  0  0  0  0
 14 16  1  0  0  0  0
 14 17  1  0  0  0  0
 11 12  1  0  0  0  0
 11 13  1  0  0  0  0
 11 14  1  0  0  0  0
  9 10  1  0  0  0  0
  9 11  1  0  0  0  0
  9 22  1  0  0  0  0
  7  8  1  0  0  0  0
  7  9  1  0  0  0  0
 26 27  1  0  0  0  0
 26 28  1  0  0  0  0
 26 29  1  0  0  0  0
 24 25  1  0  0  0  0
 24 26  1  0  0  0  0
M  END
$$$$
default_name
  -OEChem-02102213163D

 29 28  0     1  0  0  0  0  0999 V2000
   -3.5781   -3.7296    1.2702 H   0  0  0  0  0  0  0  0  0  0  0  0
   -3.5311   -2.7616    0.7732 C   0  0  0  0  0  0  0  0  0  0  0  0
   -4.2371   -2.0766    1.2382 H   0  0  0  0  0  0  0  0  0  0  0  0
   -3.7681   -2.8816   -0.2818 H   0  0  0  0  0  0  0  0  0  0  0  0
   -2.1321   -2.2086    0.9112 C   0  0  0  0  0  0  0  0  0  0  0  0
   -1.2751   -2.8426    1.5112 O   0  0  0  0  0  0  0  0  0  0  0  0
   -1.9041   -1.0186    0.3602 N   0  0  0  0  0  0  0  0  0  0  0  0
   -2.6671   -0.5416   -0.0988 H   0  0  0  0  0  0  0  0  0  0  0  0
   -0.6131   -0.3236    0.3832 C   0  0  1  0  0  0  0  0  0  0  0  0
    0.0142   -0.7800    1.1506 H   0  0  0  0  0  0  0  0  0  0  0  0
    0.0816   -0.5059   -0.9788 C   0  0  0  0  0  0  0  0  0  0  0  0
   -0.4012    0.1468   -1.7093 H   0  0  0  0  0  0  0  0  0  0  0  0
    1.1270   -0.2063   -0.8925 H   0  0  0  0  0  0  0  0  0  0  0  0
    0.0262   -1.9440   -1.5069 C   0  0  0  0  0  0  0  0  0  0  0  0
    0.8927   -2.4931   -1.1400 H   0  0  0  0  0  0  0  0  0  0  0  0
   -0.8780   -2.4217   -1.1278 H   0  0  0  0  0  0  0  0  0  0  0  0
    0.0156   -2.0536   -3.3146 S   0  0  0  0  0  0  0  0  0  0  0  0
   -1.6277   -1.3723   -3.6566 C   0  0  0  0  0  0  0  0  0  0  0  0
   -1.6883   -0.3512   -3.2788 H   0  0  0  0  0  0  0  0  0  0  0  0
   -1.8001   -1.3675   -4.7332 H   0  0  0  0  0  0  0  0  0  0  0  0
   -2.3884   -1.9868   -3.1742 H   0  0  0  0  0  0  0  0  0  0  0  0
   -0.8064    1.1568    0.7414 C   0  0  0  0  0  0  0  0  0  0  0  0
   -1.6978    1.8100    0.2029 O   0  0  0  0  0  0  0  0  0  0  0  0
    0.0314    1.6872    1.6415 N   0  0  0  0  0  0  0  0  0  0  0  0
    0.7279    1.0858    2.0517 H   0  0  0  0  0  0  0  0  0  0  0  0
   -0.0137    3.0826    2.0755 C   0  0  0  0  0  0  0  0  0  0  0  0
   -0.9991    3.3070    2.4905 H   0  0  0  0  0  0  0  0  0  0  0  0
    0.7468    3.2694    2.8349 H   0  0  0  0  0  0  0  0  0  0  0  0
    0.1592    3.7397    1.2213 H   0  0  0  0  0  0  0  0  0  0  0  0
  5  6  2  0  0  0  0
  5  7  1  0  0  0  0
  2  3  1  0  0  0  0
  2  4  1  0  0  0  0
  2  5  1  0  0  0  0
  1  2  1  0  0  0  0
 22 23  2  0  0  0  0
 22 24  1  0  0  0  0
 18 19  1  0  0  0  0
 18 20  1  0  0  0  0
 18 21  1  0  0  0  0
 17 18  1  0  0  0  0
 14 15  1  0  0  0  0
 14 16  1  0  0  0  0
 14 17  1  0  0  0  0
 11 12  1  0  0  0  0
 11 13  1  0  0  0  0
 11 14  1  0  0  0  0
  9 10  1  0  0  0  0
  9 11  1  0  0  0  0
  9 22  1  0  0  0  0
  7  8  1  0  0  0  0
  7  9  1  0  0  0  0
 26 27  1  0  0  0  0
 26 28  1  0  0  0  0
 26 29  1  0  0  0  0
 24 25  1  0  0  0  0
 24 26  1  0  0  0  0
M  END
$$$$
default_name
  -OEChem-02102213163D

 29 28  0     1  0  0  0  0  0999 V2000
   -3.5781   -3.7296    1.2702 H   0  0  0  0  0  0  0  0  0  0  0  0
   -3.5311   -2.7616    0.7732 C   0  0  0  0  0  0  0  0  0  0  0  0
   -4.2371   -2.0766    1.2382 H   0  0  0  0  0  0  0  0  0  0  0  0
   -3.7681   -2.8816   -0.2818 H   0  0  0  0  0  0  0  0  0  0  0  0
   -2.1321   -2.2086    0.9112 C   0  0  0  0  0  0  0  0  0  0  0  0
   -1.2751   -2.8426    1.5112 O   0  0  0  0  0  0  0  0  0  0  0  0
   -1.9041   -1.0186    0.3602 N   0  0  0  0  0  0  0  0  0  0  0  0
   -2.6671   -0.5416   -0.0988 H   0  0  0  0  0  0  0  0  0  0  0  0
   -0.6131   -0.3236    0.3832 C   0  0  1  0  0  0  0  0  0  0  0  0
    0.0142   -0.7800    1.1506 H   0  0  0  0  0  0  0  0  0  0  0  0
    0.0816   -0.5059   -0.9788 C   0  0  0  0  0  0  0  0  0  0  0  0
   -0.4012    0.1468   -1.7093 H   0  0  0  0  0  0  0  0  0  0  0  0
    1.1270   -0.2063   -0.8925 H   0  0  0  0  0  0  0  0  0  0  0  0
    0.0262   -1.9440   -1.5069 C   0  0  0  0  0  0  0  0  0  0  0  0
    0.7247   -2.5597   -0.9412 H   0  0  0  0  0  0  0  0  0  0  0  0
   -0.9822   -2.3325   -1.3599 H   0  0  0  0  0  0  0  0  0  0  0  0
    0.4442   -2.0890   -3.2630 S   0  0  0  0  0  0  0  0  0  0  0  0
   -0.9988   -1.2728   -3.9933 C   0  0  0  0  0  0  0  0  0  0  0  0
   -1.0567   -0.2429   -3.6400 H   0  0  0  0  0  0  0  0  0  0  0  0
   -0.9040   -1.2749   -5.0796 H   0  0  0  0  0  0  0  0  0  0  0  0
   -1.9060   -1.8081   -3.7115 H   0  0  0  0  0  0  0  0  0  0  0  0
   -0.8064    1.1568    0.7414 C   0  0  0  0  0  0  0  0  0  0  0  0
   -1.6978    1.8100    0.2029 O   0  0  0  0  0  0  0  0  0  0  0  0
    0.0314    1.6872    1.6415 N   0  0  0  0  0  0  0  0  0  0  0  0
    0.7279    1.0858    2.0517 H   0  0  0  0  0  0  0  0  0  0  0  0
   -0.0137    3.0826    2.0755 C   0  0  0  0  0  0  0  0  0  0  0  0
   -0.9991    3.3070    2.4905 H   0  0  0  0  0  0  0  0  0  0  0  0
    0.7468    3.2694    2.8349 H   0  0  0  0  0  0  0  0  0  0  0  0
    0.1592    3.7397    1.2213 H   0  0  0  0  0  0  0  0  0  0  0  0
  5  6  2  0  0  0  0
  5  7  1  0  0  0  0
  2  3  1  0  0  0  0
  2  4  1  0  0  0  0
  2  5  1  0  0  0  0
  1  2  1  0  0  0  0
 22 23  2  0  0  0  0
 22 24  1  0  0  0  0
 18 19  1  0  0  0  0
 18 20  1  0  0  0  0
 18 21  1  0  0  0  0
 17 18  1  0  0  0  0
 14 15  1  0  0  0  0
 14 16  1  0  0  0  0
 14 17  1  0  0  0  0
 11 12  1  0  0  0  0
 11 13  1  0  0  0  0
 11 14  1  0  0  0  0
  9 10  1  0  0  0  0
  9 11  1  0  0  0  0
  9 22  1  0  0  0  0
  7  8  1  0  0  0  0
  7  9  1  0  0  0  0
 26 27  1  0  0  0  0
 26 28  1  0  0  0  0
 26 29  1  0  0  0  0
 24 25  1  0  0  0  0
 24 26  1  0  0  0  0
M  END
$$$$
default_name
  -OEChem-02102213163D

 29 28  0     1  0  0  0  0  0999 V2000
   -3.5781   -3.7296    1.2702 H   0  0  0  0  0  0  0  0  0  0  0  0
   -3.5311   -2.7616    0.7732 C   0  0  0  0  0  0  0  0  0  0  0  0
   -4.2371   -2.0766    1.2382 H   0  0  0  0  0  0  0  0  0  0  0  0
   -3.7681   -2.8816   -0.2818 H   0  0  0  0  0  0  0  0  0  0  0  0
   -2.1321   -2.2086    0.9112 C   0  0  0  0  0  0  0  0  0  0  0  0
   -1.2751   -2.8426    1.5112 O   0  0  0  0  0  0  0  0  0  0  0  0
   -1.9041   -1.0186    0.3602 N   0  0  0  0  0  0  0  0  0  0  0  0
   -2.6671   -0.5416   -0.0988 H   0  0  0  0  0  0  0  0  0  0  0  0
   -0.6131   -0.3236    0.3832 C   0  0  1  0  0  0  0  0  0  0  0  0
    0.0142   -0.7800    1.1506 H   0  0  0  0  0  0  0  0  0  0  0  0
    0.0816   -0.5059   -0.9788 C   0  0  0  0  0  0  0  0  0  0  0  0
   -0.2076    0.3190   -1.6336 H   0  0  0  0  0  0  0  0  0  0  0  0
    1.1629   -0.4673   -0.8393 H   0  0  0  0  0  0  0  0  0  0  0  0
   -0.2756   -1.8231   -1.6770 C   0  0  0  0  0  0  0  0  0  0  0  0
    0.0110   -2.6564   -1.0362 H   0  0  0  0  0  0  0  0  0  0  0  0
   -1.3545   -1.8556   -1.8329 H   0  0  0  0  0  0  0  0  0  0  0  0
    0.5402   -2.0399   -3.2793 S   0  0  0  0  0  0  0  0  0  0  0  0
   -0.3151   -0.7624   -4.2376 C   0  0  0  0  0  0  0  0  0  0  0  0
   -0.1412    0.2145   -3.7856 H   0  0  0  0  0  0  0  0  0  0  0  0
    0.0681   -0.7591   -5.2584 H   0  0  0  0  0  0  0  0  0  0  0  0
   -1.3850   -0.9716   -4.2569 H   0  0  0  0  0  0  0  0  0  0  0  0
   -0.8064    1.1568    0.7414 C   0  0  0  0  0  0  0  0  0  0  0  0
   -1.6978    1.8100    0.2029 O   0  0  0  0  0  0  0  0  0  0  0  0
    0.0314    1.6872    1.6415 N   0  0  0  0  0  0  0  0  0  0  0  0
    0.7279    1.0858    2.0517 H   0  0  0  0  0  0  0  0  0  0  0  0
   -0.0137    3.0826    2.0755 C   0  0  0  0  0  0  0  0  0  0  0  0
   -0.9991    3.3070    2.4905 H   0  0  0  0  0  0  0  0  0  0  0  0
    0.7468    3.2694    2.8349 H   0  0  0  0  0  0  0  0  0  0  0  0
    0.1592    3.7397    1.2213 H   0  0  0  0  0  0  0  0  0  0  0  0
  5  6  2  0  0  0  0
  5  7  1  0  0  0  0
  2  3  1  0  0  0  0
  2  4  1  0  0  0  0
  2  5  1  0  0  0  0
  1  2  1  0  0  0  0
 22 23  2  0  0  0  0
 22 24  1  0  0  0  0
 18 19  1  0  0  0  0
 18 20  1  0  0  0  0
 18 21  1  0  0  0  0
 17 18  1  0  0  0  0
 14 15  1  0  0  0  0
 14 16  1  0  0  0  0
 14 17  1  0  0  0  0
 11 12  1  0  0  0  0
 11 13  1  0  0  0  0
 11 14  1  0  0  0  0
  9 10  1  0  0  0  0
  9 11  1  0  0  0  0
  9 22  1  0  0  0  0
  7  8  1  0  0  0  0
  7  9  1  0  0  0  0
 26 27  1  0  0  0  0
 26 28  1  0  0  0  0
 26 29  1  0  0  0  0
 24 25  1  0  0  0  0
 24 26  1  0  0  0  0
M  END
$$$$
default_name
  -OEChem-02102213163D

 29 28  0     1  0  0  0  0  0999 V2000
   -3.5781   -3.7296    1.2702 H   0  0  0  0  0  0  0  0  0  0  0  0
   -3.5311   -2.7616    0.7732 C   0  0  0  0  0  0  0  0  0  0  0  0
   -4.2371   -2.0766    1.2382 H   0  0  0  0  0  0  0  0  0  0  0  0
   -3.7681   -2.8816   -0.2818 H   0  0  0  0  0  0  0  0  0  0  0  0
   -2.1321   -2.2086    0.9112 C   0  0  0  0  0  0  0  0  0  0  0  0
   -1.2751   -2.8426    1.5112 O   0  0  0  0  0  0  0  0  0  0  0  0
   -1.9041   -1.0186    0.3602 N   0  0  0  0  0  0  0  0  0  0  0  0
   -2.6671   -0.5416   -0.0988 H   0  0  0  0  0  0  0  0  0  0  0  0
   -0.6131   -0.3236    0.3832 C   0  0  1  0  0  0  0  0  0  0  0  0
    0.0142   -0.7800    1.1506 H   0  0  0  0  0  0  0  0  0  0  0  0
    0.0816   -0.5059   -0.9788 C   0  0  0  0  0  0  0  0  0  0  0  0
   -0.2076    0.3190   -1.6336 H   0  0  0  0  0  0  0  0  0  0  0  0
    1.1629   -0.4673   -0.8393 H   0  0  0  0  0  0  0  0  0  0  0  0
   -0.2756   -1.8231   -1.6770 C   0  0  0  0  0  0  0  0  0  0  0  0
   -0.2423   -2.6336   -0.9496 H   0  0  0  0  0  0  0  0  0  0  0  0
   -1.2897   -1.7469   -2.0710 H   0  0  0  0  0  0  0  0  0  0  0  0
    0.8374   -2.2465   -3.0414 S   0  0  0  0  0  0  0  0  0  0  0  0
    0.3786   -0.9561   -4.2272 C   0  0  0  0  0  0  0  0  0  0  0  0
    0.5699    0.0261   -3.7940 H   0  0  0  0  0  0  0  0  0  0  0  0
    0.9733   -1.0705   -5.1339 H   0  0  0  0  0  0  0  0  0  0  0  0
   -0.6787   -1.0460   -4.4779 H   0  0  0  0  0  0  0  0  0  0  0  0
   -0.8064    1.1568    0.7414 C   0  0  0  0  0  0  0  0  0  0  0  0
   -1.6978    1.8100    0.2029 O   0  0  0  0  0  0  0  0  0  0  0  0
    0.0314    1.6872    1.6415 N   0  0  0  0  0  0  0  0  0  0  0  0
    0.7279    1.0858    2.0517 H   0  0  0  0  0  0  0  0  0  0  0  0
   -0.0137    3.0826    2.0755 C   0  0  0  0  0  0  0  0  0  0  0  0
   -0.9991    3.3070    2.4905 H   0  0  0  0  0  0  0  0  0  0  0  0
    0.7468    3.2694    2.8349 H   0  0  0  0  0  0  0  0  0  0  0  0
    0.1592    3.7397    1.2213 H   0  0  0  0  0  0  0  0  0  0  0  0
  5  6  2  0  0  0  0
  5  7  1  0  0  0  0
  2  3  1  0  0  0  0
  2  4  1  0  0  0  0
  2  5  1  0  0  0  0
  1  2  1  0  0  0  0
 22 23  2  0  0  0  0
 22 24  1  0  0  0  0
 18 19  1  0  0  0  0
 18 20  1  0  0  0  0
 18 21  1  0  0  0  0
 17 18  1  0  0  0  0
 14 15  1  0  0  0  0
 14 16  1  0  0  0  0
 14 17  1  0  0  0  0
 11 12  1  0  0  0  0
 11 13  1  0  0  0  0
 11 14  1  0  0  0  0
  9 10  1  0  0  0  0
  9 11  1  0  0  0  0
  9 22  1  0  0  0  0
  7  8  1  0  0  0  0
  7  9  1  0  0  0  0
 26 27  1  0  0  0  0
 26 28  1  0  0  0  0
 26 29  1  0  0  0  0
 24 25  1  0  0  0  0
 24 26  1  0  0  0  0
M  END
$$$$
default_name
  -OEChem-02102213163D

 29 28  0     1  0  0  0  0  0999 V2000
   -3.5781   -3.7296    1.2702 H   0  0  0  0  0  0  0  0  0  0  0  0
   -3.5311   -2.7616    0.7732 C   0  0  0  0  0  0  0  0  0  0  0  0
   -4.2371   -2.0766    1.2382 H   0  0  0  0  0  0  0  0  0  0  0  0
   -3.7681   -2.8816   -0.2818 H   0  0  0  0  0  0  0  0  0  0  0  0
   -2.1321   -2.2086    0.9112 C   0  0  0  0  0  0  0  0  0  0  0  0
   -1.2751   -2.8426    1.5112 O   0  0  0  0  0  0  0  0  0  0  0  0
   -1.9041   -1.0186    0.3602 N   0  0  0  0  0  0  0  0  0  0  0  0
   -2.6671   -0.5416   -0.0988 H   0  0  0  0  0  0  0  0  0  0  0  0
   -0.6131   -0.3236    0.3832 C   0  0  1  0  0  0  0  0  0  0  0  0
    0.0142   -0.7800    1.1506 H   0  0  0  0  0  0  0  0  0  0  0  0
    0.0816   -0.5059   -0.9788 C   0  0  0  0  0  0  0  0  0  0  0  0
   -0.2076    0.3190   -1.6336 H   0  0  0  0  0  0  0  0  0  0  0  0
    1.1629   -0.4673   -0.8393 H   0  0  0  0  0  0  0  0  0  0  0  0
   -0.2756   -1.8231   -1.6770 C   0  0  0  0  0  0  0  0  0  0  0  0
   -0.5036   -2.5765   -0.9237 H   0  0  0  0  0  0  0  0  0  0  0  0
   -1.1613   -1.6640   -2.2931 H   0  0  0  0  0  0  0  0  0  0  0  0
    1.0472   -2.4668   -2.7332 S   0  0  0  0  0  0  0  0  0  0  0  0
    1.0236   -1.2242   -4.0512 C   0  0  0  0  0  0  0  0  0  0  0  0
    1.2363   -0.2401   -3.6326 H   0  0  0  0  0  0  0  0  0  0  0  0
    1.7831   -1.4704   -4.7937 H   0  0  0  0  0  0  0  0  0  0  0  0
    0.0440   -1.2144   -4.5299 H   0  0  0  0  0  0  0  0  0  0  0  0
   -0.8064    1.1568    0.7414 C   0  0  0  0  0  0  0  0  0  0  0  0
   -1.6978    1.8100    0.2029 O   0  0  0  0  0  0  0  0  0  0  0  0
    0.0314    1.6872    1.6415 N   0  0  0  0  0  0  0  0  0  0  0  0
    0.7279    1.0858    2.0517 H   0  0  0  0  0  0  0  0  0  0  0  0
   -0.0137    3.0826    2.0755 C   0  0  0  0  0  0  0  0  0  0  0  0
   -0.9991    3.3070    2.4905 H   0  0  0  0  0  0  0  0  0  0  0  0
    0.7468    3.2694    2.8349 H   0  0  0  0  0  0  0  0  0  0  0  0
    0.1592    3.7397    1.2213 H   0  0  0  0  0  0  0  0  0  0  0  0
  5  6  2  0  0  0  0
  5  7  1  0  0  0  0
  2  3  1  0  0  0  0
  2  4  1  0  0  0  0
  2  5  1  0  0  0  0
  1  2  1  0  0  0  0
 22 23  2  0  0  0  0
 22 24  1  0  0  0  0
 18 19  1  0  0  0  0
 18 20  1  0  0  0  0
 18 21  1  0  0  0  0
 17 18  1  0  0  0  0
 14 15  1  0  0  0  0
 14 16  1  0  0  0  0
 14 17  1  0  0  0  0
 11 12  1  0  0  0  0
 11 13  1  0  0  0  0
 11 14  1  0  0  0  0
  9 10  1  0  0  0  0
  9 11  1  0  0  0  0
  9 22  1  0  0  0  0
  7  8  1  0  0  0  0
  7  9  1  0  0  0  0
 26 27  1  0  0  0  0
 26 28  1  0  0  0  0
 26 29  1  0  0  0  0
 24 25  1  0  0  0  0
 24 26  1  0  0  0  0
M  END
$$$$
default_name
  -OEChem-02102213163D

 29 28  0     1  0  0  0  0  0999 V2000
   -3.5781   -3.7296    1.2702 H   0  0  0  0  0  0  0  0  0  0  0  0
   -3.5311   -2.7616    0.7732 C   0  0  0  0  0  0  0  0  0  0  0  0
   -4.2371   -2.0766    1.2382 H   0  0  0  0  0  0  0  0  0  0  0  0
   -3.7681   -2.8816   -0.2818 H   0  0  0  0  0  0  0  0  0  0  0  0
   -2.1321   -2.2086    0.9112 C   0  0  0  0  0  0  0  0  0  0  0  0
   -1.2751   -2.8426    1.5112 O   0  0  0  0  0  0  0  0  0  0  0  0
   -1.9041   -1.0186    0.3602 N   0  0  0  0  0  0  0  0  0  0  0  0
   -2.6671   -0.5416   -0.0988 H   0  0  0  0  0  0  0  0  0  0  0  0
   -0.6131   -0.3236    0.3832 C   0  0  1  0  0  0  0  0  0  0  0  0
    0.0142   -0.7800    1.1506 H   0  0  0  0  0  0  0  0  0  0  0  0
    0.0816   -0.5059   -0.9788 C   0  0  0  0  0  0  0  0  0  0  0  0
   -0.2076    0.3190   -1.6336 H   0  0  0  0  0  0  0  0  0  0  0  0
    1.1629   -0.4673   -0.8393 H   0  0  0  0  0  0  0  0  0  0  0  0
   -0.2756   -1.8231   -1.6770 C   0  0  0  0  0  0  0  0  0  0  0  0
   -0.7550   -2.4890   -0.9602 H   0  0  0  0  0  0  0  0  0  0  0  0
   -0.9782   -1.6124   -2.4841 H   0  0  0  0  0  0  0  0  0  0  0  0
    1.1554   -2.6857   -2.3754 S   0  0  0  0  0  0  0  0  0  0  0  0
    1.5758   -1.5487   -3.7216 C   0  0  0  0  0  0  0  0  0  0  0  0
    1.8128   -0.5662   -3.3124 H   0  0  0  0  0  0  0  0  0  0  0  0
    2.4426   -1.9317   -4.2608 H   0  0  0  0  0  0  0  0  0  0  0  0
    0.7337   -1.4654   -4.4092 H   0  0  0  0  0  0  0  0  0  0  0  0
   -0.8064    1.1568    0.7414 C   0  0  0  0  0  0  0  0  0  0  0  0
   -1.6978    1.8100    0.2029 O   0  0  0  0  0  0  0  0  0  0  0  0
    0.0314    1.6872    1.6415 N   0  0  0  0  0  0  0  0  0  0  0  0
    0.7279    1.0858    2.0517 H   0  0  0  0  0  0  0  0  0  0  0  0
   -0.0137    3.0826    2.0755 C   0  0  0  0  0  0  0  0  0  0  0  0
   -0.9991    3.3070    2.4905 H   0  0  0  0  0  0  0  0  0  0  0  0
    0.7468    3.2694    2.8349 H   0  0  0  0  0  0  0  0  0  0  0  0
    0.1592    3.7397    1.2213 H   0  0  0  0  0  0  0  0  0  0  0  0
  5  6  2  0  0  0  0
  5  7  1  0  0  0  0
  2  3  1  0  0  0  0
  2  4  1  0  0  0  0
  2  5  1  0  0  0  0
  1  2  1  0  0  0  0
 22 23  2  0  0  0  0
 22 24  1  0  0  0  0
 18 19  1  0  0  0  0
 18 20  1  0  0  0  0
 18 21  1  0  0  0  0
 17 18  1  0  0  0  0
 14 15  1  0  0  0  0
 14 16  1  0  0  0  0
 14 17  1  0  0  0  0
 11 12  1  0  0  0  0
 11 13  1  0  0  0  0
 11 14  1  0  0  0  0
  9 10  1  0  0  0  0
  9 11  1  0  0  0  0
  9 22  1  0  0  0  0
  7  8  1  0  0  0  0
  7  9  1  0  0  0  0
 26 27  1  0  0  0  0
 26 28  1  0  0  0  0
 26 29  1  0  0  0  0
 24 25  1  0  0  0  0
 24 26  1  0  0  0  0
M  END
$$$$
default_name
  -OEChem-02102213163D

 29 28  0     1  0  0  0  0  0999 V2000
   -3.5781   -3.7296    1.2702 H   0  0  0  0  0  0  0  0  0  0  0  0
   -3.5311   -2.7616    0.7732 C   0  0  0  0  0  0  0  0  0  0  0  0
   -4.2371   -2.0766    1.2382 H   0  0  0  0  0  0  0  0  0  0  0  0
   -3.7681   -2.8816   -0.2818 H   0  0  0  0  0  0  0  0  0  0  0  0
   -2.1321   -2.2086    0.9112 C   0  0  0  0  0  0  0  0  0  0  0  0
   -1.2751   -2.8426    1.5112 O   0  0  0  0  0  0  0  0  0  0  0  0
   -1.9041   -1.0186    0.3602 N   0  0  0  0  0  0  0  0  0  0  0  0
   -2.6671   -0.5416   -0.0988 H   0  0  0  0  0  0  0  0  0  0  0  0
   -0.6131   -0.3236    0.3832 C   0  0  1  0  0  0  0  0  0  0  0  0
    0.0142   -0.7800    1.1506 H   0  0  0  0  0  0  0  0  0  0  0  0
    0.0816   -0.5059   -0.9788 C   0  0  0  0  0  0  0  0  0  0  0  0
   -0.2076    0.3190   -1.6336 H   0  0  0  0  0  0  0  0  0  0  0  0
    1.1629   -0.4673   -0.8393 H   0  0  0  0  0  0  0  0  0  0  0  0
   -0.2756   -1.8231   -1.6770 C   0  0  0  0  0  0  0  0  0  0  0  0
   -0.9794   -2.3771   -1.0566 H   0  0  0  0  0  0  0  0  0  0  0  0
   -0.7527   -1.5957   -2.6310 H   0  0  0  0  0  0  0  0  0  0  0  0
    1.1545   -2.8884   -1.9926 S   0  0  0  0  0  0  0  0  0  0  0  0
    1.9976   -1.9073   -3.2608 C   0  0  0  0  0  0  0  0  0  0  0  0
    2.2600   -0.9297   -2.8553 H   0  0  0  0  0  0  0  0  0  0  0  0
    2.9067   -2.4229   -3.5716 H   0  0  0  0  0  0  0  0  0  0  0  0
    1.3435   -1.7819   -4.1241 H   0  0  0  0  0  0  0  0  0  0  0  0
   -0.8064    1.1568    0.7414 C   0  0  0  0  0  0  0  0  0  0  0  0
   -1.6978    1.8100    0.2029 O   0  0  0  0  0  0  0  0  0  0  0  0
    0.0314    1.6872    1.6415 N   0  0  0  0  0  0  0  0  0  0  0  0
    0.7279    1.0858    2.0517 H   0  0  0  0  0  0  0  0  0  0  0  0
   -0.0137    3.0826    2.0755 C   0  0  0  0  0  0  0  0  0  0  0  0
   -0.9991    3.3070    2.4905 H   0  0  0  0  0  0  0  0  0  0  0  0
    0.7468    3.2694    2.8349 H   0  0  0  0  0  0  0  0  0  0  0  0
    0.1592    3.7397    1.2213 H   0  0  0  0  0  0  0  0  0  0  0  0
  5  6  2  0  0  0  0
  5  7  1  0  0  0  0
  2  3  1  0  0  0  0
  2  4  1  0  0  0  0
  2  5  1  0  0  0  0
  1  2  1  0  0  0  0
 22 23  2  0  0  0  0
 22 24  1  0  0  0  0
 18 19  1  0  0  0  0
 18 20  1  0  0  0  0
 18 21  1  0  0  0  0
 17 18  1  0  0  0  0
 14 15  1  0  0  0  0
 14 16  1  0  0  0  0
 14 17  1  0  0  0  0
 11 12  1  0  0  0  0
 11 13  1  0  0  0  0
 11 14  1  0  0  0  0
  9 10  1  0  0  0  0
  9 11  1  0  0  0  0
  9 22  1  0  0  0  0
  7  8  1  0  0  0  0
  7  9  1  0  0  0  0
 26 27  1  0  0  0  0
 26 28  1  0  0  0  0
 26 29  1  0  0  0  0
 24 25  1  0  0  0  0
 24 26  1  0  0  0  0
M  END
$$$$
default_name
  -OEChem-02102213163D

 29 28  0     1  0  0  0  0  0999 V2000
   -3.5781   -3.7296    1.2702 H   0  0  0  0  0  0  0  0  0  0  0  0
   -3.5311   -2.7616    0.7732 C   0  0  0  0  0  0  0  0  0  0  0  0
   -4.2371   -2.0766    1.2382 H   0  0  0  0  0  0  0  0  0  0  0  0
   -3.7681   -2.8816   -0.2818 H   0  0  0  0  0  0  0  0  0  0  0  0
   -2.1321   -2.2086    0.9112 C   0  0  0  0  0  0  0  0  0  0  0  0
   -1.2751   -2.8426    1.5112 O   0  0  0  0  0  0  0  0  0  0  0  0
   -1.9041   -1.0186    0.3602 N   0  0  0  0  0  0  0  0  0  0  0  0
   -2.6671   -0.5416   -0.0988 H   0  0  0  0  0  0  0  0  0  0  0  0
   -0.6131   -0.3236    0.3832 C   0  0  1  0  0  0  0  0  0  0  0  0
    0.0142   -0.7800    1.1506 H   0  0  0  0  0  0  0  0  0  0  0  0
    0.0816   -0.5059   -0.9788 C   0  0  0  0  0  0  0  0  0  0  0  0
   -0.2076    0.3190   -1.6336 H   0  0  0  0  0  0  0  0  0  0  0  0
    1.1629   -0.4673   -0.8393 H   0  0  0  0  0  0  0  0  0  0  0  0
   -0.2756   -1.8231   -1.6770 C   0  0  0  0  0  0  0  0  0  0  0  0
   -1.1616   -2.2483   -1.2064 H   0  0  0  0  0  0  0  0  0  0  0  0
   -0.5003   -1.6150   -2.7237 H   0  0  0  0  0  0  0  0  0  0  0  0
    1.0446   -3.0609   -1.6109 S   0  0  0  0  0  0  0  0  0  0  0  0
    2.2604   -2.2756   -2.7004 C   0  0  0  0  0  0  0  0  0  0  0  0
    2.5475   -1.3060   -2.2924 H   0  0  0  0  0  0  0  0  0  0  0  0
    3.1439   -2.9104   -2.7730 H   0  0  0  0  0  0  0  0  0  0  0  0
    1.8318   -2.1423   -3.6941 H   0  0  0  0  0  0  0  0  0  0  0  0
   -0.8064    1.1568    0.7414 C   0  0  0  0  0  0  0  0  0  0  0  0
   -1.6978    1.8100    0.2029 O   0  0  0  0  0  0  0  0  0  0  0  0
    0.0314    1.6872    1.6415 N   0  0  0  0  0  0  0  0  0  0  0  0
    0.7279    1.0858    2.0517 H   0  0  0  0  0  0  0  0  0  0  0  0
   -0.0137    3.0826    2.0755 C   0  0  0  0  0  0  0  0  0  0  0  0
   -0.9991    3.3070    2.4905 H   0  0  0  0  0  0  0  0  0  0  0  0
    0.7468    3.2694    2.8349 H   0  0  0  0  0  0  0  0  0  0  0  0
    0.1592    3.7397    1.2213 H   0  0  0  0  0  0  0  0  0  0  0  0
  5  6  2  0  0  0  0
  5  7  1  0  0  0  0
  2  3  1  0  0  0  0
  2  4  1  0  0  0  0
  2  5  1  0  0  0  0
  1  2  1  0  0  0  0
 22 23  2  0  0  0  0
 22 24  1  0  0  0  0
 18 19  1  0  0  0  0
 18 20  1  0  0  0  0
 18 21  1  0  0  0  0
 17 18  1  0  0  0  0
 14 15  1  0  0  0  0
 14 16  1  0  0  0  0
 14 17  1  0  0  0  0
 11 12  1  0  0  0  0
 11 13  1  0  0  0  0
 11 14  1  0  0  0  0
  9 10  1  0  0  0  0
  9 11  1  0  0  0  0
  9 22  1  0  0  0  0
  7  8  1  0  0  0  0
  7  9  1  0  0  0  0
 26 27  1  0  0  0  0
 26 28  1  0  0  0  0
 26 29  1  0  0  0  0
 24 25  1  0  0  0  0
 24 26  1  0  0  0  0
M  END
$$$$
default_name
  -OEChem-02102213163D

 29 28  0     1  0  0  0  0  0999 V2000
   -3.5781   -3.7296    1.2702 H   0  0  0  0  0  0  0  0  0  0  0  0
   -3.5311   -2.7616    0.7732 C   0  0  0  0  0  0  0  0  0  0  0  0
   -4.2371   -2.0766    1.2382 H   0  0  0  0  0  0  0  0  0  0  0  0
   -3.7681   -2.8816   -0.2818 H   0  0  0  0  0  0  0  0  0  0  0  0
   -2.1321   -2.2086    0.9112 C   0  0  0  0  0  0  0  0  0  0  0  0
   -1.2751   -2.8426    1.5112 O   0  0  0  0  0  0  0  0  0  0  0  0
   -1.9041   -1.0186    0.3602 N   0  0  0  0  0  0  0  0  0  0  0  0
   -2.6671   -0.5416   -0.0988 H   0  0  0  0  0  0  0  0  0  0  0  0
   -0.6131   -0.3236    0.3832 C   0  0  1  0  0  0  0  0  0  0  0  0
    0.0142   -0.7800    1.1506 H   0  0  0  0  0  0  0  0  0  0  0  0
    0.0816   -0.5059   -0.9788 C   0  0  0  0  0  0  0  0  0  0  0  0
   -0.2076    0.3190   -1.6336 H   0  0  0  0  0  0  0  0  0  0  0  0
    1.1629   -0.4673   -0.8393 H   0  0  0  0  0  0  0  0  0  0  0  0
   -0.2756   -1.8231   -1.6770 C   0  0  0  0  0  0  0  0  0  0  0  0
   -1.2890   -2.1114   -1.3993 H   0  0  0  0  0  0  0  0  0  0  0  0
   -0.2381   -1.6690   -2.7560 H   0  0  0  0  0  0  0  0  0  0  0  0
    0.8333   -3.1917   -1.2561 S   0  0  0  0  0  0  0  0  0  0  0  0
    2.3461   -2.6286   -2.0783 C   0  0  0  0  0  0  0  0  0  0  0  0
    2.6556   -1.6695   -1.6620 H   0  0  0  0  0  0  0  0  0  0  0  0
    3.1379   -3.3612   -1.9195 H   0  0  0  0  0  0  0  0  0  0  0  0
    2.1654   -2.5220   -3.1483 H   0  0  0  0  0  0  0  0  0  0  0  0
   -0.8064    1.1568    0.7414 C   0  0  0  0  0  0  0  0  0  0  0  0
   -1.6978    1.8100    0.2029 O   0  0  0  0  0  0  0  0  0  0  0  0
    0.0314    1.6872    1.6415 N   0  0  0  0  0  0  0  0  0  0  0  0
    0.7279    1.0858    2.0517 H   0  0  0  0  0  0  0  0  0  0  0  0
   -0.0137    3.0826    2.0755 C   0  0  0  0  0  0  0  0  0  0  0  0
   -0.9991    3.3070    2.4905 H   0  0  0  0  0  0  0  0  0  0  0  0
    0.7468    3.2694    2.8349 H   0  0  0  0  0  0  0  0  0  0  0  0
    0.1592    3.7397    1.2213 H   0  0  0  0  0  0  0  0  0  0  0  0
  5  6  2  0  0  0  0
  5  7  1  0  0  0  0
  2  3  1  0  0  0  0
  2  4  1  0  0  0  0
  2  5  1  0  0  0  0
  1  2  1  0  0  0  0
 22 23  2  0  0  0  0
 22 24  1  0  0  0  0
 18 19  1  0  0  0  0
 18 20  1  0  0  0  0
 18 21  1  0  0  0  0
 17 18  1  0  0  0  0
 14 15  1  0  0  0  0
 14 16  1  0  0  0  0
 14 17  1  0  0  0  0
 11 12  1  0  0  0  0
 11 13  1  0  0  0  0
 11 14  1  0  0  0  0
  9 10  1  0  0  0  0
  9 11  1  0  0  0  0
  9 22  1  0  0  0  0
  7  8  1  0  0  0  0
  7  9  1  0  0  0  0
 26 27  1  0  0  0  0
 26 28  1  0  0  0  0
 26 29  1  0  0  0  0
 24 25  1  0  0  0  0
 24 26  1  0  0  0  0
M  END
$$$$
default_name
  -OEChem-02102213163D

 29 28  0     1  0  0  0  0  0999 V2000
   -3.5781   -3.7296    1.2702 H   0  0  0  0  0  0  0  0  0  0  0  0
   -3.5311   -2.7616    0.7732 C   0  0  0  0  0  0  0  0  0  0  0  0
   -4.2371   -2.0766    1.2382 H   0  0  0  0  0  0  0  0  0  0  0  0
   -3.7681   -2.8816   -0.2818 H   0  0  0  0  0  0  0  0  0  0  0  0
   -2.1321   -2.2086    0.9112 C   0  0  0  0  0  0  0  0  0  0  0  0
   -1.2751   -2.8426    1.5112 O   0  0  0  0  0  0  0  0  0  0  0  0
   -1.9041   -1.0186    0.3602 N   0  0  0  0  0  0  0  0  0  0  0  0
   -2.6671   -0.5416   -0.0988 H   0  0  0  0  0  0  0  0  0  0  0  0
   -0.6131   -0.3236    0.3832 C   0  0  1  0  0  0  0  0  0  0  0  0
    0.0142   -0.7800    1.1506 H   0  0  0  0  0  0  0  0  0  0  0  0
    0.0816   -0.5059   -0.9788 C   0  0  0  0  0  0  0  0  0  0  0  0
   -0.2076    0.3190   -1.6336 H   0  0  0  0  0  0  0  0  0  0  0  0
    1.1629   -0.4673   -0.8393 H   0  0  0  0  0  0  0  0  0  0  0  0
   -0.2756   -1.8231   -1.6770 C   0  0  0  0  0  0  0  0  0  0  0  0
   -1.3530   -1.9759   -1.6223 H   0  0  0  0  0  0  0  0  0  0  0  0
    0.0160   -1.7540   -2.7256 H   0  0  0  0  0  0  0  0  0  0  0  0
    0.5348   -3.2716   -0.9526 S   0  0  0  0  0  0  0  0  0  0  0  0
    2.2490   -2.9421   -1.4371 C   0  0  0  0  0  0  0  0  0  0  0  0
    2.5771   -1.9952   -1.0072 H   0  0  0  0  0  0  0  0  0  0  0  0
    2.8891   -3.7444   -1.0692 H   0  0  0  0  0  0  0  0  0  0  0  0
    2.3215   -2.8952   -2.5241 H   0  0  0  0  0  0  0  0  0  0  0  0
   -0.8064    1.1568    0.7414 C   0  0  0  0  0  0  0  0  0  0  0  0
   -1.6978    1.8100    0.2029 O   0  0  0  0  0  0  0  0  0  0  0  0
    0.0314    1.6872    1.6415 N   0  0  0  0  0  0  0  0  0  0  0  0
    0.7279    1.0858    2.0517 H   0  0  0  0  0  0  0  0  0  0  0  0
   -0.0137    3.0826    2.0755 C   0  0  0  0  0  0  0  0  0  0  0  0
   -0.9991    3.3070    2.4905 H   0  0  0  0  0  0  0  0  0  0  0  0
    0.7468    3.2694    2.8349 H   0  0  0  0  0  0  0  0  0  0  0  0
    0.1592    3.7397    1.2213 H   0  0  0  0  0  0  0  0  0  0  0  0
  5  6  2  0  0  0  0
  5  7  1  0  0  0  0
  2  3  1  0  0  0  0
  2  4  1  0  0  0  0
  2  5  1  0  0  0  0
  1  2  1  0  0  0  0
 22 23  2  0  0  0  0
 22 24  1  0  0  0  0
 18 19  1  0  0  0  0
 18 20  1  0  0  0  0
 18 21  1  0  0  0  0
 17 18  1  0  0  0  0
 14 15  1  0  0  0  0
 14 16  1  0  0  0  0
 14 17  1  0  0  0  0
 11 12  1  0  0  0  0
 11 13  1  0  0  0  0
 11 14  1  0  0  0  0
  9 10  1  0  0  0  0
  9 11  1  0  0  0  0
  9 22  1  0  0  0  0
  7  8  1  0  0  0  0
  7  9  1  0  0  0  0
 26 27  1  0  0  0  0
 26 28  1  0  0  0  0
 26 29  1  0  0  0  0
 24 25  1  0  0  0  0
 24 26  1  0  0  0  0
M  END
$$$$
default_name
  -OEChem-02102213163D

 29 28  0     1  0  0  0  0  0999 V2000
   -3.5781   -3.7296    1.2702 H   0  0  0  0  0  0  0  0  0  0  0  0
   -3.5311   -2.7616    0.7732 C   0  0  0  0  0  0  0  0  0  0  0  0
   -4.2371   -2.0766    1.2382 H   0  0  0  0  0  0  0  0  0  0  0  0
   -3.7681   -2.8816   -0.2818 H   0  0  0  0  0  0  0  0  0  0  0  0
   -2.1321   -2.2086    0.9112 C   0  0  0  0  0  0  0  0  0  0  0  0
   -1.2751   -2.8426    1.5112 O   0  0  0  0  0  0  0  0  0  0  0  0
   -1.9041   -1.0186    0.3602 N   0  0  0  0  0  0  0  0  0  0  0  0
   -2.6671   -0.5416   -0.0988 H   0  0  0  0  0  0  0  0  0  0  0  0
   -0.6131   -0.3236    0.3832 C   0  0  1  0  0  0  0  0  0  0  0  0
    0.0142   -0.7800    1.1506 H   0  0  0  0  0  0  0  0  0  0  0  0
    0.0816   -0.5059   -0.9788 C   0  0  0  0  0  0  0  0  0  0  0  0
   -0.2076    0.3190   -1.6336 H   0  0  0  0  0  0  0  0  0  0  0  0
    1.1629   -0.4673   -0.8393 H   0  0  0  0  0  0  0  0  0  0  0  0
   -0.2756   -1.8231   -1.6770 C   0  0  0  0  0  0  0  0  0  0  0  0
   -1.3493   -1.8508   -1.8601 H   0  0  0  0  0  0  0  0  0  0  0  0
    0.2446   -1.8642   -2.6347 H   0  0  0  0  0  0  0  0  0  0  0  0
    0.1696   -3.2953   -0.7210 S   0  0  0  0  0  0  0  0  0  0  0  0
    1.9756   -3.1948   -0.8205 C   0  0  0  0  0  0  0  0  0  0  0  0
    2.3171   -2.2612   -0.3724 H   0  0  0  0  0  0  0  0  0  0  0  0
    2.4146   -4.0339   -0.2802 H   0  0  0  0  0  0  0  0  0  0  0  0
    2.2894   -3.2364   -1.8639 H   0  0  0  0  0  0  0  0  0  0  0  0
   -0.8064    1.1568    0.7414 C   0  0  0  0  0  0  0  0  0  0  0  0
   -1.6978    1.8100    0.2029 O   0  0  0  0  0  0  0  0  0  0  0  0
    0.0314    1.6872    1.6415 N   0  0  0  0  0  0  0  0  0  0  0  0
    0.7279    1.0858    2.0517 H   0  0  0  0  0  0  0  0  0  0  0  0
   -0.0137    3.0826    2.0755 C   0  0  0  0  0  0  0  0  0  0  0  0
   -0.9991    3.3070    2.4905 H   0  0  0  0  0  0  0  0  0  0  0  0
    0.7468    3.2694    2.8349 H   0  0  0  0  0  0  0  0  0  0  0  0
    0.1592    3.7397    1.2213 H   0  0  0  0  0  0  0  0  0  0  0  0
  5  6  2  0  0  0  0
  5  7  1  0  0  0  0
  2  3  1  0  0  0  0
  2  4  1  0  0  0  0
  2  5  1  0  0  0  0
  1  2  1  0  0  0  0
 22 23  2  0  0  0  0
 22 24  1  0  0  0  0
 18 19  1  0  0  0  0
 18 20  1  0  0  0  0
 18 21  1  0  0  0  0
 17 18  1  0  0  0  0
 14 15  1  0  0  0  0
 14 16  1  0  0  0  0
 14 17  1  0  0  0  0
 11 12  1  0  0  0  0
 11 13  1  0  0  0  0
 11 14  1  0  0  0  0
  9 10  1  0  0  0  0
  9 11  1  0  0  0  0
  9 22  1  0  0  0  0
  7  8  1  0  0  0  0
  7  9  1  0  0  0  0
 26 27  1  0  0  0  0
 26 28  1  0  0  0  0
 26 29  1  0  0  0  0
 24 25  1  0  0  0  0
 24 26  1  0  0  0  0
M  END
$$$$
default_name
  -OEChem-02102213163D

 29 28  0     1  0  0  0  0  0999 V2000
   -3.5781   -3.7296    1.2702 H   0  0  0  0  0  0  0  0  0  0  0  0
   -3.5311   -2.7616    0.7732 C   0  0  0  0  0  0  0  0  0  0  0  0
   -4.2371   -2.0766    1.2382 H   0  0  0  0  0  0  0  0  0  0  0  0
   -3.7681   -2.8816   -0.2818 H   0  0  0  0  0  0  0  0  0  0  0  0
   -2.1321   -2.2086    0.9112 C   0  0  0  0  0  0  0  0  0  0  0  0
   -1.2751   -2.8426    1.5112 O   0  0  0  0  0  0  0  0  0  0  0  0
   -1.9041   -1.0186    0.3602 N   0  0  0  0  0  0  0  0  0  0  0  0
   -2.6671   -0.5416   -0.0988 H   0  0  0  0  0  0  0  0  0  0  0  0
   -0.6131   -0.3236    0.3832 C   0  0  1  0  0  0  0  0  0  0  0  0
    0.0142   -0.7800    1.1506 H   0  0  0  0  0  0  0  0  0  0  0  0
    0.0816   -0.5059   -0.9788 C   0  0  0  0  0  0  0  0  0  0  0  0
   -0.2076    0.3190   -1.6336 H   0  0  0  0  0  0  0  0  0  0  0  0
    1.1629   -0.4673   -0.8393 H   0  0  0  0  0  0  0  0  0  0  0  0
   -0.2756   -1.8231   -1.6770 C   0  0  0  0  0  0  0  0  0  0  0  0
   -1.2781   -1.7448   -2.0965 H   0  0  0  0  0  0  0  0  0  0  0  0
    0.4322   -1.9922   -2.4893 H   0  0  0  0  0  0  0  0  0  0  0  0
   -0.2375   -3.2612   -0.5770 S   0  0  0  0  0  0  0  0  0  0  0  0
    1.5446   -3.3695   -0.2704 C   0  0  0  0  0  0  0  0  0  0  0  0
    1.8935   -2.4491    0.1989 H   0  0  0  0  0  0  0  0  0  0  0  0
    1.7467   -4.2101    0.3940 H   0  0  0  0  0  0  0  0  0  0  0  0
    2.0714   -3.5224   -1.2127 H   0  0  0  0  0  0  0  0  0  0  0  0
   -0.8064    1.1568    0.7414 C   0  0  0  0  0  0  0  0  0  0  0  0
   -1.6978    1.8100    0.2029 O   0  0  0  0  0  0  0  0  0  0  0  0
    0.0314    1.6872    1.6415 N   0  0  0  0  0  0  0  0  0  0  0  0
    0.7279    1.0858    2.0517 H   0  0  0  0  0  0  0  0  0  0  0  0
   -0.0137    3.0826    2.0755 C   0  0  0  0  0  0  0  0  0  0  0  0
   -0.9991    3.3070    2.4905 H   0  0  0  0  0  0  0  0  0  0  0  0
    0.7468    3.2694    2.8349 H   0  0  0  0  0  0  0  0  0  0  0  0
    0.1592    3.7397    1.2213 H   0  0  0  0  0  0  0  0  0  0  0  0
  5  6  2  0  0  0  0
  5  7  1  0  0  0  0
  2  3  1  0  0  0  0
  2  4  1  0  0  0  0
  2  5  1  0  0  0  0
  1  2  1  0  0  0  0
 22 23  2  0  0  0  0
 22 24  1  0  0  0  0
 18 19  1  0  0  0  0
 18 20  1  0  0  0  0
 18 21  1  0  0  0  0
 17 18  1  0  0  0  0
 14 15  1  0  0  0  0
 14 16  1  0  0  0  0
 14 17  1  0  0  0  0
 11 12  1  0  0  0  0
 11 13  1  0  0  0  0
 11 14  1  0  0  0  0
  9 10  1  0  0  0  0
  9 11  1  0  0  0  0
  9 22  1  0  0  0  0
  7  8  1  0  0  0  0
  7  9  1  0  0  0  0
 26 27  1  0  0  0  0
 26 28  1  0  0  0  0
 26 29  1  0  0  0  0
 24 25  1  0  0  0  0
 24 26  1  0  0  0  0
M  END
$$$$
default_name
  -OEChem-02102213163D

 29 28  0     1  0  0  0  0  0999 V2000
   -3.5781   -3.7296    1.2702 H   0  0  0  0  0  0  0  0  0  0  0  0
   -3.5311   -2.7616    0.7732 C   0  0  0  0  0  0  0  0  0  0  0  0
   -4.2371   -2.0766    1.2382 H   0  0  0  0  0  0  0  0  0  0  0  0
   -3.7681   -2.8816   -0.2818 H   0  0  0  0  0  0  0  0  0  0  0  0
   -2.1321   -2.2086    0.9112 C   0  0  0  0  0  0  0  0  0  0  0  0
   -1.2751   -2.8426    1.5112 O   0  0  0  0  0  0  0  0  0  0  0  0
   -1.9041   -1.0186    0.3602 N   0  0  0  0  0  0  0  0  0  0  0  0
   -2.6671   -0.5416   -0.0988 H   0  0  0  0  0  0  0  0  0  0  0  0
   -0.6131   -0.3236    0.3832 C   0  0  1  0  0  0  0  0  0  0  0  0
    0.0142   -0.7800    1.1506 H   0  0  0  0  0  0  0  0  0  0  0  0
    0.0816   -0.5059   -0.9788 C   0  0  0  0  0  0  0  0  0  0  0  0
   -0.2076    0.3190   -1.6336 H   0  0  0  0  0  0  0  0  0  0  0  0
    1.1629   -0.4673   -0.8393 H   0  0  0  0  0  0  0  0  0  0  0  0
   -0.2756   -1.8231   -1.6770 C   0  0  0  0  0  0  0  0  0  0  0  0
   -1.1443   -1.6651   -2.3155 H   0  0  0  0  0  0  0  0  0  0  0  0
    0.5660   -2.1291   -2.2994 H   0  0  0  0  0  0  0  0  0  0  0  0
   -0.6587   -3.1716   -0.5306 S   0  0  0  0  0  0  0  0  0  0  0  0
    0.9854   -3.4542    0.1757 C   0  0  0  0  0  0  0  0  0  0  0  0
    1.3352   -2.5463    0.6679 H   0  0  0  0  0  0  0  0  0  0  0  0
    0.9308   -4.2609    0.9072 H   0  0  0  0  0  0  0  0  0  0  0  0
    1.6823   -3.7337   -0.6150 H   0  0  0  0  0  0  0  0  0  0  0  0
   -0.8064    1.1568    0.7414 C   0  0  0  0  0  0  0  0  0  0  0  0
   -1.6978    1.8100    0.2029 O   0  0  0  0  0  0  0  0  0  0  0  0
    0.0314    1.6872    1.6415 N   0  0  0  0  0  0  0  0  0  0  0  0
    0.7279    1.0858    2.0517 H   0  0  0  0  0  0  0  0  0  0  0  0
   -0.0137    3.0826    2.0755 C   0  0  0  0  0  0  0  0  0  0  0  0
   -0.9991    3.3070    2.4905 H   0  0  0  0  0  0  0  0  0  0  0  0
    0.7468    3.2694    2.8349 H   0  0  0  0  0  0  0  0  0  0  0  0
    0.1592    3.7397    1.2213 H   0  0  0  0  0  0  0  0  0  0  0  0
  5  6  2  0  0  0  0
  5  7  1  0  0  0  0
  2  3  1  0  0  0  0
  2  4  1  0  0  0  0
  2  5  1  0  0  0  0
  1  2  1  0  0  0  0
 22 23  2  0  0  0  0
 22 24  1  0  0  0  0
 18 19  1  0  0  0  0
 18 20  1  0  0  0  0
 18 21  1  0  0  0  0
 17 18  1  0  0  0  0
 14 15  1  0  0  0  0
 14 16  1  0  0  0  0
 14 17  1  0  0  0  0
 11 12  1  0  0  0  0
 11 13  1  0  0  0  0
 11 14  1  0  0  0  0
  9 10  1  0  0  0  0
  9 11  1  0  0  0  0
  9 22  1  0  0  0  0
  7  8  1  0  0  0  0
  7  9  1  0  0  0  0
 26 27  1  0  0  0  0
 26 28  1  0  0  0  0
 26 29  1  0  0  0  0
 24 25  1  0  0  0  0
 24 26  1  0  0  0  0
M  END
$$$$
default_name
  -OEChem-02102213163D

 29 28  0     1  0  0  0  0  0999 V2000
   -3.5781   -3.7296    1.2702 H   0  0  0  0  0  0  0  0  0  0  0  0
   -3.5311   -2.7616    0.7732 C   0  0  0  0  0  0  0  0  0  0  0  0
   -4.2371   -2.0766    1.2382 H   0  0  0  0  0  0  0  0  0  0  0  0
   -3.7681   -2.8816   -0.2818 H   0  0  0  0  0  0  0  0  0  0  0  0
   -2.1321   -2.2086    0.9112 C   0  0  0  0  0  0  0  0  0  0  0  0
   -1.2751   -2.8426    1.5112 O   0  0  0  0  0  0  0  0  0  0  0  0
   -1.9041   -1.0186    0.3602 N   0  0  0  0  0  0  0  0  0  0  0  0
   -2.6671   -0.5416   -0.0988 H   0  0  0  0  0  0  0  0  0  0  0  0
   -0.6131   -0.3236    0.3832 C   0  0  1  0  0  0  0  0  0  0  0  0
    0.0142   -0.7800    1.1506 H   0  0  0  0  0  0  0  0  0  0  0  0
    0.0816   -0.5059   -0.9788 C   0  0  0  0  0  0  0  0  0  0  0  0
   -0.2076    0.3190   -1.6336 H   0  0  0  0  0  0  0  0  0  0  0  0
    1.1629   -0.4673   -0.8393 H   0  0  0  0  0  0  0  0  0  0  0  0
   -0.2756   -1.8231   -1.6770 C   0  0  0  0  0  0  0  0  0  0  0  0
   -0.9569   -1.6171   -2.5020 H   0  0  0  0  0  0  0  0  0  0  0  0
    0.6369   -2.2656   -2.0781 H   0  0  0  0  0  0  0  0  0  0  0  0
   -1.0653   -3.0326   -0.5848 S   0  0  0  0  0  0  0  0  0  0  0  0
    0.3361   -3.4433    0.4872 C   0  0  0  0  0  0  0  0  0  0  0  0
    0.6801   -2.5460    1.0025 H   0  0  0  0  0  0  0  0  0  0  0  0
    0.0226   -4.1828    1.2246 H   0  0  0  0  0  0  0  0  0  0  0  0
    1.1486   -3.8559   -0.1115 H   0  0  0  0  0  0  0  0  0  0  0  0
   -0.8064    1.1568    0.7414 C   0  0  0  0  0  0  0  0  0  0  0  0
   -1.6978    1.8100    0.2029 O   0  0  0  0  0  0  0  0  0  0  0  0
    0.0314    1.6872    1.6415 N   0  0  0  0  0  0  0  0  0  0  0  0
    0.7279    1.0858    2.0517 H   0  0  0  0  0  0  0  0  0  0  0  0
   -0.0137    3.0826    2.0755 C   0  0  0  0  0  0  0  0  0  0  0  0
   -0.9991    3.3070    2.4905 H   0  0  0  0  0  0  0  0  0  0  0  0
    0.7468    3.2694    2.8349 H   0  0  0  0  0  0  0  0  0  0  0  0
    0.1592    3.7397    1.2213 H   0  0  0  0  0  0  0  0  0  0  0  0
  5  6  2  0  0  0  0
  5  7  1  0  0  0  0
  2  3  1  0  0  0  0
  2  4  1  0  0  0  0
  2  5  1  0  0  0  0
  1  2  1  0  0  0  0
 22 23  2  0  0  0  0
 22 24  1  0  0  0  0
 18 19  1  0  0  0  0
 18 20  1  0  0  0  0
 18 21  1  0  0  0  0
 17 18  1  0  0  0  0
 14 15  1  0  0  0  0
 14 16  1  0  0  0  0
 14 17  1  0  0  0  0
 11 12  1  0  0  0  0
 11 13  1  0  0  0  0
 11 14  1  0  0  0  0
  9 10  1  0  0  0  0
  9 11  1  0  0  0  0
  9 22  1  0  0  0  0
  7  8  1  0  0  0  0
  7  9  1  0  0  0  0
 26 27  1  0  0  0  0
 26 28  1  0  0  0  0
 26 29  1  0  0  0  0
 24 25  1  0  0  0  0
 24 26  1  0  0  0  0
M  END
$$$$
default_name
  -OEChem-02102213163D

 29 28  0     1  0  0  0  0  0999 V2000
   -3.5781   -3.7296    1.2702 H   0  0  0  0  0  0  0  0  0  0  0  0
   -3.5311   -2.7616    0.7732 C   0  0  0  0  0  0  0  0  0  0  0  0
   -4.2371   -2.0766    1.2382 H   0  0  0  0  0  0  0  0  0  0  0  0
   -3.7681   -2.8816   -0.2818 H   0  0  0  0  0  0  0  0  0  0  0  0
   -2.1321   -2.2086    0.9112 C   0  0  0  0  0  0  0  0  0  0  0  0
   -1.2751   -2.8426    1.5112 O   0  0  0  0  0  0  0  0  0  0  0  0
   -1.9041   -1.0186    0.3602 N   0  0  0  0  0  0  0  0  0  0  0  0
   -2.6671   -0.5416   -0.0988 H   0  0  0  0  0  0  0  0  0  0  0  0
   -0.6131   -0.3236    0.3832 C   0  0  1  0  0  0  0  0  0  0  0  0
    0.0142   -0.7800    1.1506 H   0  0  0  0  0  0  0  0  0  0  0  0
    0.0816   -0.5059   -0.9788 C   0  0  0  0  0  0  0  0  0  0  0  0
   -0.2076    0.3190   -1.6336 H   0  0  0  0  0  0  0  0  0  0  0  0
    1.1629   -0.4673   -0.8393 H   0  0  0  0  0  0  0  0  0  0  0  0
   -0.2756   -1.8231   -1.6770 C   0  0  0  0  0  0  0  0  0  0  0  0
   -0.7288   -1.6040   -2.6433 H   0  0  0  0  0  0  0  0  0  0  0  0
    0.6401   -2.3926   -1.8402 H   0  0  0  0  0  0  0  0  0  0  0  0
   -1.4297   -2.8537   -0.7359 S   0  0  0  0  0  0  0  0  0  0  0  0
   -0.3591   -3.3374    0.6431 C   0  0  0  0  0  0  0  0  0  0  0  0
   -0.0270   -2.4484    1.1801 H   0  0  0  0  0  0  0  0  0  0  0  0
   -0.9161   -3.9812    1.3244 H   0  0  0  0  0  0  0  0  0  0  0  0
    0.5068   -3.8806    0.2636 H   0  0  0  0  0  0  0  0  0  0  0  0
   -0.8064    1.1568    0.7414 C   0  0  0  0  0  0  0  0  0  0  0  0
   -1.6978    1.8100    0.2029 O   0  0  0  0  0  0  0  0  0  0  0  0
    0.0314    1.6872    1.6415 N   0  0  0  0  0  0  0  0  0  0  0  0
    0.7279    1.0858    2.0517 H   0  0  0  0  0  0  0  0  0  0  0  0
   -0.0137    3.0826    2.0755 C   0  0  0  0  0  0  0  0  0  0  0  0
   -0.9991    3.3070    2.4905 H   0  0  0  0  0  0  0  0  0  0  0  0
    0.7468    3.2694    2.8349 H   0  0  0  0  0  0  0  0  0  0  0  0
    0.1592    3.7397    1.2213 H   0  0  0  0  0  0  0  0  0  0  0  0
  5  6  2  0  0  0  0
  5  7  1  0  0  0  0
  2  3  1  0  0  0  0
  2  4  1  0  0  0  0
  2  5  1  0  0  0  0
  1  2  1  0  0  0  0
 22 23  2  0  0  0  0
 22 24  1  0  0  0  0
 18 19  1  0  0  0  0
 18 20  1  0  0  0  0
 18 21  1  0  0  0  0
 17 18  1  0  0  0  0
 14 15  1  0  0  0  0
 14 16  1  0  0  0  0
 14 17  1  0  0  0  0
 11 12  1  0  0  0  0
 11 13  1  0  0  0  0
 11 14  1  0  0  0  0
  9 10  1  0  0  0  0
  9 11  1  0  0  0  0
  9 22  1  0  0  0  0
  7  8  1  0  0  0  0
  7  9  1  0  0  0  0
 26 27  1  0  0  0  0
 26 28  1  0  0  0  0
 26 29  1  0  0  0  0
 24 25  1  0  0  0  0
 24 26  1  0  0  0  0
M  END
$$$$
default_name
  -OEChem-02102213163D

 29 28  0     1  0  0  0  0  0999 V2000
   -3.5781   -3.7296    1.2702 H   0  0  0  0  0  0  0  0  0  0  0  0
   -3.5311   -2.7616    0.7732 C   0  0  0  0  0  0  0  0  0  0  0  0
   -4.2371   -2.0766    1.2382 H   0  0  0  0  0  0  0  0  0  0  0  0
   -3.7681   -2.8816   -0.2818 H   0  0  0  0  0  0  0  0  0  0  0  0
   -2.1321   -2.2086    0.9112 C   0  0  0  0  0  0  0  0  0  0  0  0
   -1.2751   -2.8426    1.5112 O   0  0  0  0  0  0  0  0  0  0  0  0
   -1.9041   -1.0186    0.3602 N   0  0  0  0  0  0  0  0  0  0  0  0
   -2.6671   -0.5416   -0.0988 H   0  0  0  0  0  0  0  0  0  0  0  0
   -0.6131   -0.3236    0.3832 C   0  0  1  0  0  0  0  0  0  0  0  0
    0.0142   -0.7800    1.1506 H   0  0  0  0  0  0  0  0  0  0  0  0
    0.0816   -0.5059   -0.9788 C   0  0  0  0  0  0  0  0  0  0  0  0
   -0.2076    0.3190   -1.6336 H   0  0  0  0  0  0  0  0  0  0  0  0
    1.1629   -0.4673   -0.8393 H   0  0  0  0  0  0  0  0  0  0  0  0
   -0.2756   -1.8231   -1.6770 C   0  0  0  0  0  0  0  0  0  0  0  0
   -0.4755   -1.6268   -2.7300 H   0  0  0  0  0  0  0  0  0  0  0  0
    0.5753   -2.5012   -1.6021 H   0  0  0  0  0  0  0  0  0  0  0  0
   -1.7269   -2.6471   -0.9737 S   0  0  0  0  0  0  0  0  0  0  0  0
   -1.0528   -3.1438    0.6327 C   0  0  0  0  0  0  0  0  0  0  0  0
   -0.7381   -2.2600    1.1885 H   0  0  0  0  0  0  0  0  0  0  0  0
   -1.8212   -3.6698    1.2000 H   0  0  0  0  0  0  0  0  0  0  0  0
   -0.1996   -3.8062    0.4847 H   0  0  0  0  0  0  0  0  0  0  0  0
   -0.8064    1.1568    0.7414 C   0  0  0  0  0  0  0  0  0  0  0  0
   -1.6978    1.8100    0.2029 O   0  0  0  0  0  0  0  0  0  0  0  0
    0.0314    1.6872    1.6415 N   0  0  0  0  0  0  0  0  0  0  0  0
    0.7279    1.0858    2.0517 H   0  0  0  0  0  0  0  0  0  0  0  0
   -0.0137    3.0826    2.0755 C   0  0  0  0  0  0  0  0  0  0  0  0
   -0.9991    3.3070    2.4905 H   0  0  0  0  0  0  0  0  0  0  0  0
    0.7468    3.2694    2.8349 H   0  0  0  0  0  0  0  0  0  0  0  0
    0.1592    3.7397    1.2213 H   0  0  0  0  0  0  0  0  0  0  0  0
  5  6  2  0  0  0  0
  5  7  1  0  0  0  0
  2  3  1  0  0  0  0
  2  4  1  0  0  0  0
  2  5  1  0  0  0  0
  1  2  1  0  0  0  0
 22 23  2  0  0  0  0
 22 24  1  0  0  0  0
 18 19  1  0  0  0  0
 18 20  1  0  0  0  0
 18 21  1  0  0  0  0
 17 18  1  0  0  0  0
 14 15  1  0  0  0  0
 14 16  1  0  0  0  0
 14 17  1  0  0  0  0
 11 12  1  0  0  0  0
 11 13  1  0  0  0  0
 11 14  1  0  0  0  0
  9 10  1  0  0  0  0
  9 11  1  0  0  0  0
  9 22  1  0  0  0  0
  7  8  1  0  0  0  0
  7  9  1  0  0  0  0
 26 27  1  0  0  0  0
 26 28  1  0  0  0  0
 26 29  1  0  0  0  0
 24 25  1  0  0  0  0
 24 26  1  0  0  0  0
M  END
$$$$
default_name
  -OEChem-02102213163D

 29 28  0     1  0  0  0  0  0999 V2000
   -3.5781   -3.7296    1.2702 H   0  0  0  0  0  0  0  0  0  0  0  0
   -3.5311   -2.7616    0.7732 C   0  0  0  0  0  0  0  0  0  0  0  0
   -4.2371   -2.0766    1.2382 H   0  0  0  0  0  0  0  0  0  0  0  0
   -3.7681   -2.8816   -0.2818 H   0  0  0  0  0  0  0  0  0  0  0  0
   -2.1321   -2.2086    0.9112 C   0  0  0  0  0  0  0  0  0  0  0  0
   -1.2751   -2.8426    1.5112 O   0  0  0  0  0  0  0  0  0  0  0  0
   -1.9041   -1.0186    0.3602 N   0  0  0  0  0  0  0  0  0  0  0  0
   -2.6671   -0.5416   -0.0988 H   0  0  0  0  0  0  0  0  0  0  0  0
   -0.6131   -0.3236    0.3832 C   0  0  1  0  0  0  0  0  0  0  0  0
    0.0142   -0.7800    1.1506 H   0  0  0  0  0  0  0  0  0  0  0  0
    0.0816   -0.5059   -0.9788 C   0  0  0  0  0  0  0  0  0  0  0  0
   -0.2076    0.3190   -1.6336 H   0  0  0  0  0  0  0  0  0  0  0  0
    1.1629   -0.4673   -0.8393 H   0  0  0  0  0  0  0  0  0  0  0  0
   -0.2756   -1.8231   -1.6770 C   0  0  0  0  0  0  0  0  0  0  0  0
   -0.2142   -1.6839   -2.7559 H   0  0  0  0  0  0  0  0  0  0  0  0
    0.4469   -2.5841   -1.3800 H   0  0  0  0  0  0  0  0  0  0  0  0
   -1.9367   -2.4268   -1.2820 S   0  0  0  0  0  0  0  0  0  0  0  0
   -1.6978   -2.8756    0.4567 C   0  0  0  0  0  0  0  0  0  0  0  0
   -1.4046   -1.9937    1.0271 H   0  0  0  0  0  0  0  0  0  0  0  0
   -2.6311   -3.2698    0.8598 H   0  0  0  0  0  0  0  0  0  0  0  0
   -0.9222   -3.6378    0.5367 H   0  0  0  0  0  0  0  0  0  0  0  0
   -0.8064    1.1568    0.7414 C   0  0  0  0  0  0  0  0  0  0  0  0
   -1.6978    1.8100    0.2029 O   0  0  0  0  0  0  0  0  0  0  0  0
    0.0314    1.6872    1.6415 N   0  0  0  0  0  0  0  0  0  0  0  0
    0.7279    1.0858    2.0517 H   0  0  0  0  0  0  0  0  0  0  0  0
   -0.0137    3.0826    2.0755 C   0  0  0  0  0  0  0  0  0  0  0  0
   -0.9991    3.3070    2.4905 H   0  0  0  0  0  0  0  0  0  0  0  0
    0.7468    3.2694    2.8349 H   0  0  0  0  0  0  0  0  0  0  0  0
    0.1592    3.7397    1.2213 H   0  0  0  0  0  0  0  0  0  0  0  0
  5  6  2  0  0  0  0
  5  7  1  0  0  0  0
  2  3  1  0  0  0  0
  2  4  1  0  0  0  0
  2  5  1  0  0  0  0
  1  2  1  0  0  0  0
 22 23  2  0  0  0  0
 22 24  1  0  0  0  0
 18 19  1  0  0  0  0
 18 20  1  0  0  0  0
 18 21  1  0  0  0  0
 17 18  1  0  0  0  0
 14 15  1  0  0  0  0
 14 16  1  0  0  0  0
 14 17  1  0  0  0  0
 11 12  1  0  0  0  0
 11 13  1  0  0  0  0
 11 14  1  0  0  0  0
  9 10  1  0  0  0  0
  9 11  1  0  0  0  0
  9 22  1  0  0  0  0
  7  8  1  0  0  0  0
  7  9  1  0  0  0  0
 26 27  1  0  0  0  0
 26 28  1  0  0  0  0
 26 29  1  0  0  0  0
 24 25  1  0  0  0  0
 24 26  1  0  0  0  0
M  END
$$$$
default_name
  -OEChem-02102213163D

 29 28  0     1  0  0  0  0  0999 V2000
   -3.5781   -3.7296    1.2702 H   0  0  0  0  0  0  0  0  0  0  0  0
   -3.5311   -2.7616    0.7732 C   0  0  0  0  0  0  0  0  0  0  0  0
   -4.2371   -2.0766    1.2382 H   0  0  0  0  0  0  0  0  0  0  0  0
   -3.7681   -2.8816   -0.2818 H   0  0  0  0  0  0  0  0  0  0  0  0
   -2.1321   -2.2086    0.9112 C   0  0  0  0  0  0  0  0  0  0  0  0
   -1.2751   -2.8426    1.5112 O   0  0  0  0  0  0  0  0  0  0  0  0
   -1.9041   -1.0186    0.3602 N   0  0  0  0  0  0  0  0  0  0  0  0
   -2.6671   -0.5416   -0.0988 H   0  0  0  0  0  0  0  0  0  0  0  0
   -0.6131   -0.3236    0.3832 C   0  0  1  0  0  0  0  0  0  0  0  0
    0.0142   -0.7800    1.1506 H   0  0  0  0  0  0  0  0  0  0  0  0
    0.0816   -0.5059   -0.9788 C   0  0  0  0  0  0  0  0  0  0  0  0
   -0.2076    0.3190   -1.6336 H   0  0  0  0  0  0  0  0  0  0  0  0
    1.1629   -0.4673   -0.8393 H   0  0  0  0  0  0  0  0  0  0  0  0
   -0.2756   -1.8231   -1.6770 C   0  0  0  0  0  0  0  0  0  0  0  0
    0.0372   -1.7714   -2.7194 H   0  0  0  0  0  0  0  0  0  0  0  0
    0.2637   -2.6357   -1.1889 H   0  0  0  0  0  0  0  0  0  0  0  0
   -2.0449   -2.2078   -1.6398 S   0  0  0  0  0  0  0  0  0  0  0  0
   -2.2500   -2.5511    0.1271 C   0  0  0  0  0  0  0  0  0  0  0  0
   -1.9811   -1.6677    0.7070 H   0  0  0  0  0  0  0  0  0  0  0  0
   -3.2905   -2.8086    0.3269 H   0  0  0  0  0  0  0  0  0  0  0  0
   -1.6120   -3.3868    0.4160 H   0  0  0  0  0  0  0  0  0  0  0  0
   -0.8064    1.1568    0.7414 C   0  0  0  0  0  0  0  0  0  0  0  0
   -1.6978    1.8100    0.2029 O   0  0  0  0  0  0  0  0  0  0  0  0
    0.0314    1.6872    1.6415 N   0  0  0  0  0  0  0  0  0  0  0  0
    0.7279    1.0858    2.0517 H   0  0  0  0  0  0  0  0  0  0  0  0
   -0.0137    3.0826    2.0755 C   0  0  0  0  0  0  0  0  0  0  0  0
   -0.9991    3.3070    2.4905 H   0  0  0  0  0  0  0  0  0  0  0  0
    0.7468    3.2694    2.8349 H   0  0  0  0  0  0  0  0  0  0  0  0
    0.1592    3.7397    1.2213 H   0  0  0  0  0  0  0  0  0  0  0  0
  5  6  2  0  0  0  0
  5  7  1  0  0  0  0
  2  3  1  0  0  0  0
  2  4  1  0  0  0  0
  2  5  1  0  0  0  0
  1  2  1  0  0  0  0
 22 23  2  0  0  0  0
 22 24  1  0  0  0  0
 18 19  1  0  0  0  0
 18 20  1  0  0  0  0
 18 21  1  0  0  0  0
 17 18  1  0  0  0  0
 14 15  1  0  0  0  0
 14 16  1  0  0  0  0
 14 17  1  0  0  0  0
 11 12  1  0  0  0  0
 11 13  1  0  0  0  0
 11 14  1  0  0  0  0
  9 10  1  0  0  0  0
  9 11  1  0  0  0  0
  9 22  1  0  0  0  0
  7  8  1  0  0  0  0
  7  9  1  0  0  0  0
 26 27  1  0  0  0  0
 26 28  1  0  0  0  0
 26 29  1  0  0  0  0
 24 25  1  0  0  0  0
 24 26  1  0  0  0  0
M  END
$$$$
default_name
  -OEChem-02102213163D

 29 28  0     1  0  0  0  0  0999 V2000
   -3.5781   -3.7296    1.2702 H   0  0  0  0  0  0  0  0  0  0  0  0
   -3.5311   -2.7616    0.7732 C   0  0  0  0  0  0  0  0  0  0  0  0
   -4.2371   -2.0766    1.2382 H   0  0  0  0  0  0  0  0  0  0  0  0
   -3.7681   -2.8816   -0.2818 H   0  0  0  0  0  0  0  0  0  0  0  0
   -2.1321   -2.2086    0.9112 C   0  0  0  0  0  0  0  0  0  0  0  0
   -1.2751   -2.8426    1.5112 O   0  0  0  0  0  0  0  0  0  0  0  0
   -1.9041   -1.0186    0.3602 N   0  0  0  0  0  0  0  0  0  0  0  0
   -2.6671   -0.5416   -0.0988 H   0  0  0  0  0  0  0  0  0  0  0  0
   -0.6131   -0.3236    0.3832 C   0  0  1  0  0  0  0  0  0  0  0  0
    0.0142   -0.7800    1.1506 H   0  0  0  0  0  0  0  0  0  0  0  0
    0.0816   -0.5059   -0.9788 C   0  0  0  0  0  0  0  0  0  0  0  0
   -0.2076    0.3190   -1.6336 H   0  0  0  0  0  0  0  0  0  0  0  0
    1.1629   -0.4673   -0.8393 H   0  0  0  0  0  0  0  0  0  0  0  0
   -0.2756   -1.8231   -1.6770 C   0  0  0  0  0  0  0  0  0  0  0  0
    0.2616   -1.8834   -2.6230 H   0  0  0  0  0  0  0  0  0  0  0  0
    0.0382   -2.6524   -1.0421 H   0  0  0  0  0  0  0  0  0  0  0  0
   -2.0440   -2.0052   -2.0225 S   0  0  0  0  0  0  0  0  0  0  0  0
   -2.6719   -2.1925   -0.3336 C   0  0  0  0  0  0  0  0  0  0  0  0
   -2.4283   -1.3042    0.2498 H   0  0  0  0  0  0  0  0  0  0  0  0
   -3.7547   -2.3174   -0.3623 H   0  0  0  0  0  0  0  0  0  0  0  0
   -2.2218   -3.0703    0.1309 H   0  0  0  0  0  0  0  0  0  0  0  0
   -0.8064    1.1568    0.7414 C   0  0  0  0  0  0  0  0  0  0  0  0
   -1.6978    1.8100    0.2029 O   0  0  0  0  0  0  0  0  0  0  0  0
    0.0314    1.6872    1.6415 N   0  0  0  0  0  0  0  0  0  0  0  0
    0.7279    1.0858    2.0517 H   0  0  0  0  0  0  0  0  0  0  0  0
   -0.0137    3.0826    2.0755 C   0  0  0  0  0  0  0  0  0  0  0  0
   -0.9991    3.3070    2.4905 H   0  0  0  0  0  0  0  0  0  0  0  0
    0.7468    3.2694    2.8349 H   0  0  0  0  0  0  0  0  0  0  0  0
    0.1592    3.7397    1.2213 H   0  0  0  0  0  0  0  0  0  0  0  0
  5  6  2  0  0  0  0
  5  7  1  0  0  0  0
  2  3  1  0  0  0  0
  2  4  1  0  0  0  0
  2  5  1  0  0  0  0
  1  2  1  0  0  0  0
 22 23  2  0  0  0  0
 22 24  1  0  0  0  0
 18 19  1  0  0  0  0
 18 20  1  0  0  0  0
 18 21  1  0  0  0  0
 17 18  1  0  0  0  0
 14 15  1  0  0  0  0
 14 16  1  0  0  0  0
 14 17  1  0  0  0  0
 11 12  1  0  0  0  0
 11 13  1  0  0  0  0
 11 14  1  0  0  0  0
  9 10  1  0  0  0  0
  9 11  1  0  0  0  0
  9 22  1  0  0  0  0
  7  8  1  0  0  0  0
  7  9  1  0  0  0  0
 26 27  1  0  0  0  0
 26 28  1  0  0  0  0
 26 29  1  0  0  0  0
 24 25  1  0  0  0  0
 24 26  1  0  0  0  0
M  END
$$$$
default_name
  -OEChem-02102213163D

 29 28  0     1  0  0  0  0  0999 V2000
   -3.5781   -3.7296    1.2702 H   0  0  0  0  0  0  0  0  0  0  0  0
   -3.5311   -2.7616    0.7732 C   0  0  0  0  0  0  0  0  0  0  0  0
   -4.2371   -2.0766    1.2382 H   0  0  0  0  0  0  0  0  0  0  0  0
   -3.7681   -2.8816   -0.2818 H   0  0  0  0  0  0  0  0  0  0  0  0
   -2.1321   -2.2086    0.9112 C   0  0  0  0  0  0  0  0  0  0  0  0
   -1.2751   -2.8426    1.5112 O   0  0  0  0  0  0  0  0  0  0  0  0
   -1.9041   -1.0186    0.3602 N   0  0  0  0  0  0  0  0  0  0  0  0
   -2.6671   -0.5416   -0.0988 H   0  0  0  0  0  0  0  0  0  0  0  0
   -0.6131   -0.3236    0.3832 C   0  0  1  0  0  0  0  0  0  0  0  0
    0.0142   -0.7800    1.1506 H   0  0  0  0  0  0  0  0  0  0  0  0
    0.0816   -0.5059   -0.9788 C   0  0  0  0  0  0  0  0  0  0  0  0
   -0.2076    0.3190   -1.6336 H   0  0  0  0  0  0  0  0  0  0  0  0
    1.1629   -0.4673   -0.8393 H   0  0  0  0  0  0  0  0  0  0  0  0
   -0.2756   -1.8231   -1.6770 C   0  0  0  0  0  0  0  0  0  0  0  0
    0.4438   -2.0121   -2.4732 H   0  0  0  0  0  0  0  0  0  0  0  0
   -0.2142   -2.6331   -0.9493 H   0  0  0  0  0  0  0  0  0  0  0  0
   -1.9341   -1.8326   -2.4043 S   0  0  0  0  0  0  0  0  0  0  0  0
   -2.9346   -1.8242   -0.8941 C   0  0  0  0  0  0  0  0  0  0  0  0
   -2.7158   -0.9278   -0.3131 H   0  0  0  0  0  0  0  0  0  0  0  0
   -3.9918   -1.8298   -1.1609 H   0  0  0  0  0  0  0  0  0  0  0  0
   -2.7101   -2.7100   -0.2992 H   0  0  0  0  0  0  0  0  0  0  0  0
   -0.8064    1.1568    0.7414 C   0  0  0  0  0  0  0  0  0  0  0  0
   -1.6978    1.8100    0.2029 O   0  0  0  0  0  0  0  0  0  0  0  0
    0.0314    1.6872    1.6415 N   0  0  0  0  0  0  0  0  0  0  0  0
    0.7279    1.0858    2.0517 H   0  0  0  0  0  0  0  0  0  0  0  0
   -0.0137    3.0826    2.0755 C   0  0  0  0  0  0  0  0  0  0  0  0
   -0.9991    3.3070    2.4905 H   0  0  0  0  0  0  0  0  0  0  0  0
    0.7468    3.2694    2.8349 H   0  0  0  0  0  0  0  0  0  0  0  0
    0.1592    3.7397    1.2213 H   0  0  0  0  0  0  0  0  0  0  0  0
  5  6  2  0  0  0  0
  5  7  1  0  0  0  0
  2  3  1  0  0  0  0
  2  4  1  0  0  0  0
  2  5  1  0  0  0  0
  1  2  1  0  0  0  0
 22 23  2  0  0  0  0
 22 24  1  0  0  0  0
 18 19  1  0  0  0  0
 18 20  1  0  0  0  0
 18 21  1  0  0  0  0
 17 18  1  0  0  0  0
 14 15  1  0  0  0  0
 14 16  1  0  0  0  0
 14 17  1  0  0  0  0
 11 12  1  0  0  0  0
 11 13  1  0  0  0  0
 11 14  1  0  0  0  0
  9 10  1  0  0  0  0
  9 11  1  0  0  0  0
  9 22  1  0  0  0  0
  7  8  1  0  0  0  0
  7  9  1  0  0  0  0
 26 27  1  0  0  0  0
 26 28  1  0  0  0  0
 26 29  1  0  0  0  0
 24 25  1  0  0  0  0
 24 26  1  0  0  0  0
M  END
$$$$
default_name
  -OEChem-02102213163D

 29 28  0     1  0  0  0  0  0999 V2000
   -3.5781   -3.7296    1.2702 H   0  0  0  0  0  0  0  0  0  0  0  0
   -3.5311   -2.7616    0.7732 C   0  0  0  0  0  0  0  0  0  0  0  0
   -4.2371   -2.0766    1.2382 H   0  0  0  0  0  0  0  0  0  0  0  0
   -3.7681   -2.8816   -0.2818 H   0  0  0  0  0  0  0  0  0  0  0  0
   -2.1321   -2.2086    0.9112 C   0  0  0  0  0  0  0  0  0  0  0  0
   -1.2751   -2.8426    1.5112 O   0  0  0  0  0  0  0  0  0  0  0  0
   -1.9041   -1.0186    0.3602 N   0  0  0  0  0  0  0  0  0  0  0  0
   -2.6671   -0.5416   -0.0988 H   0  0  0  0  0  0  0  0  0  0  0  0
   -0.6131   -0.3236    0.3832 C   0  0  1  0  0  0  0  0  0  0  0  0
    0.0142   -0.7800    1.1506 H   0  0  0  0  0  0  0  0  0  0  0  0
    0.0816   -0.5059   -0.9788 C   0  0  0  0  0  0  0  0  0  0  0  0
   -0.2076    0.3190   -1.6336 H   0  0  0  0  0  0  0  0  0  0  0  0
    1.1629   -0.4673   -0.8393 H   0  0  0  0  0  0  0  0  0  0  0  0
   -0.2756   -1.8231   -1.6770 C   0  0  0  0  0  0  0  0  0  0  0  0
    0.5712   -2.1490   -2.2802 H   0  0  0  0  0  0  0  0  0  0  0  0
   -0.4764   -2.5791   -0.9170 H   0  0  0  0  0  0  0  0  0  0  0  0
   -1.7227   -1.7019   -2.7591 S   0  0  0  0  0  0  0  0  0  0  0  0
   -3.0203   -1.4713   -1.5162 C   0  0  0  0  0  0  0  0  0  0  0  0
   -2.8239   -0.5644   -0.9435 H   0  0  0  0  0  0  0  0  0  0  0  0
   -3.9858   -1.3791   -2.0144 H   0  0  0  0  0  0  0  0  0  0  0  0
   -3.0437   -2.3302   -0.8450 H   0  0  0  0  0  0  0  0  0  0  0  0
   -0.8064    1.1568    0.7414 C   0  0  0  0  0  0  0  0  0  0  0  0
   -1.6978    1.8100    0.2029 O   0  0  0  0  0  0  0  0  0  0  0  0
    0.0314    1.6872    1.6415 N   0  0  0  0  0  0  0  0  0  0  0  0
    0.7279    1.0858    2.0517 H   0  0  0  0  0  0  0  0  0  0  0  0
   -0.0137    3.0826    2.0755 C   0  0  0  0  0  0  0  0  0  0  0  0
   -0.9991    3.3070    2.4905 H   0  0  0  0  0  0  0  0  0  0  0  0
    0.7468    3.2694    2.8349 H   0  0  0  0  0  0  0  0  0  0  0  0
    0.1592    3.7397    1.2213 H   0  0  0  0  0  0  0  0  0  0  0  0
  5  6  2  0  0  0  0
  5  7  1  0  0  0  0
  2  3  1  0  0  0  0
  2  4  1  0  0  0  0
  2  5  1  0  0  0  0
  1  2  1  0  0  0  0
 22 23  2  0  0  0  0
 22 24  1  0  0  0  0
 18 19  1  0  0  0  0
 18 20  1  0  0  0  0
 18 21  1  0  0  0  0
 17 18  1  0  0  0  0
 14 15  1  0  0  0  0
 14 16  1  0  0  0  0
 14 17  1  0  0  0  0
 11 12  1  0  0  0  0
 11 13  1  0  0  0  0
 11 14  1  0  0  0  0
  9 10  1  0  0  0  0
  9 11  1  0  0  0  0
  9 22  1  0  0  0  0
  7  8  1  0  0  0  0
  7  9  1  0  0  0  0
 26 27  1  0  0  0  0
 26 28  1  0  0  0  0
 26 29  1  0  0  0  0
 24 25  1  0  0  0  0
 24 26  1  0  0  0  0
M  END
$$$$
default_name
  -OEChem-02102213163D

 29 28  0     1  0  0  0  0  0999 V2000
   -3.5781   -3.7296    1.2702 H   0  0  0  0  0  0  0  0  0  0  0  0
   -3.5311   -2.7616    0.7732 C   0  0  0  0  0  0  0  0  0  0  0  0
   -4.2371   -2.0766    1.2382 H   0  0  0  0  0  0  0  0  0  0  0  0
   -3.7681   -2.8816   -0.2818 H   0  0  0  0  0  0  0  0  0  0  0  0
   -2.1321   -2.2086    0.9112 C   0  0  0  0  0  0  0  0  0  0  0  0
   -1.2751   -2.8426    1.5112 O   0  0  0  0  0  0  0  0  0  0  0  0
   -1.9041   -1.0186    0.3602 N   0  0  0  0  0  0  0  0  0  0  0  0
   -2.6671   -0.5416   -0.0988 H   0  0  0  0  0  0  0  0  0  0  0  0
   -0.6131   -0.3236    0.3832 C   0  0  1  0  0  0  0  0  0  0  0  0
    0.0142   -0.7800    1.1506 H   0  0  0  0  0  0  0  0  0  0  0  0
    0.0816   -0.5059   -0.9788 C   0  0  0  0  0  0  0  0  0  0  0  0
   -0.2076    0.3190   -1.6336 H   0  0  0  0  0  0  0  0  0  0  0  0
    1.1629   -0.4673   -0.8393 H   0  0  0  0  0  0  0  0  0  0  0  0
   -0.2756   -1.8231   -1.6770 C   0  0  0  0  0  0  0  0  0  0  0  0
    0.6352   -2.2845   -2.0573 H   0  0  0  0  0  0  0  0  0  0  0  0
   -0.7304   -2.4941   -0.9474 H   0  0  0  0  0  0  0  0  0  0  0  0
   -1.4243   -1.6220   -3.0626 S   0  0  0  0  0  0  0  0  0  0  0  0
   -2.9232   -1.1578   -2.1573 C   0  0  0  0  0  0  0  0  0  0  0  0
   -2.7453   -0.2386   -1.5983 H   0  0  0  0  0  0  0  0  0  0  0  0
   -3.7371   -0.9959   -2.8647 H   0  0  0  0  0  0  0  0  0  0  0  0
   -3.1997   -1.9570   -1.4692 H   0  0  0  0  0  0  0  0  0  0  0  0
   -0.8064    1.1568    0.7414 C   0  0  0  0  0  0  0  0  0  0  0  0
   -1.6978    1.8100    0.2029 O   0  0  0  0  0  0  0  0  0  0  0  0
    0.0314    1.6872    1.6415 N   0  0  0  0  0  0  0  0  0  0  0  0
    0.7279    1.0858    2.0517 H   0  0  0  0  0  0  0  0  0  0  0  0
   -0.0137    3.0826    2.0755 C   0  0  0  0  0  0  0  0  0  0  0  0
   -0.9991    3.3070    2.4905 H   0  0  0  0  0  0  0  0  0  0  0  0
    0.7468    3.2694    2.8349 H   0  0  0  0  0  0  0  0  0  0  0  0
    0.1592    3.7397    1.2213 H   0  0  0  0  0  0  0  0  0  0  0  0
  5  6  2  0  0  0  0
  5  7  1  0  0  0  0
  2  3  1  0  0  0  0
  2  4  1  0  0  0  0
  2  5  1  0  0  0  0
  1  2  1  0  0  0  0
 22 23  2  0  0  0  0
 22 24  1  0  0  0  0
 18 19  1  0  0  0  0
 18 20  1  0  0  0  0
 18 21  1  0  0  0  0
 17 18  1  0  0  0  0
 14 15  1  0  0  0  0
 14 16  1  0  0  0  0
 14 17  1  0  0  0  0
 11 12  1  0  0  0  0
 11 13  1  0  0  0  0
 11 14  1  0  0  0  0
  9 10  1  0  0  0  0
  9 11  1  0  0  0  0
  9 22  1  0  0  0  0
  7  8  1  0  0  0  0
  7  9  1  0  0  0  0
 26 27  1  0  0  0  0
 26 28  1  0  0  0  0
 26 29  1  0  0  0  0
 24 25  1  0  0  0  0
 24 26  1  0  0  0  0
M  END
$$$$
default_name
  -OEChem-02102213163D

 29 28  0     1  0  0  0  0  0999 V2000
   -3.5781   -3.7296    1.2702 H   0  0  0  0  0  0  0  0  0  0  0  0
   -3.5311   -2.7616    0.7732 C   0  0  0  0  0  0  0  0  0  0  0  0
   -4.2371   -2.0766    1.2382 H   0  0  0  0  0  0  0  0  0  0  0  0
   -3.7681   -2.8816   -0.2818 H   0  0  0  0  0  0  0  0  0  0  0  0
   -2.1321   -2.2086    0.9112 C   0  0  0  0  0  0  0  0  0  0  0  0
   -1.2751   -2.8426    1.5112 O   0  0  0  0  0  0  0  0  0  0  0  0
   -1.9041   -1.0186    0.3602 N   0  0  0  0  0  0  0  0  0  0  0  0
   -2.6671   -0.5416   -0.0988 H   0  0  0  0  0  0  0  0  0  0  0  0
   -0.6131   -0.3236    0.3832 C   0  0  1  0  0  0  0  0  0  0  0  0
    0.0142   -0.7800    1.1506 H   0  0  0  0  0  0  0  0  0  0  0  0
    0.0816   -0.5059   -0.9788 C   0  0  0  0  0  0  0  0  0  0  0  0
   -0.2076    0.3190   -1.6336 H   0  0  0  0  0  0  0  0  0  0  0  0
    1.1629   -0.4673   -0.8393 H   0  0  0  0  0  0  0  0  0  0  0  0
   -0.2756   -1.8231   -1.6770 C   0  0  0  0  0  0  0  0  0  0  0  0
    0.6315   -2.4096   -1.8195 H   0  0  0  0  0  0  0  0  0  0  0  0
   -0.9591   -2.3839   -1.0384 H   0  0  0  0  0  0  0  0  0  0  0  0
   -1.0591   -1.5983   -3.2942 S   0  0  0  0  0  0  0  0  0  0  0  0
   -2.6499   -0.9050   -2.7740 C   0  0  0  0  0  0  0  0  0  0  0  0
   -2.4854    0.0273   -2.2330 H   0  0  0  0  0  0  0  0  0  0  0  0
   -3.2625   -0.7063   -3.6538 H   0  0  0  0  0  0  0  0  0  0  0  0
   -3.1677   -1.6158   -2.1294 H   0  0  0  0  0  0  0  0  0  0  0  0
   -0.8064    1.1568    0.7414 C   0  0  0  0  0  0  0  0  0  0  0  0
   -1.6978    1.8100    0.2029 O   0  0  0  0  0  0  0  0  0  0  0  0
    0.0314    1.6872    1.6415 N   0  0  0  0  0  0  0  0  0  0  0  0
    0.7279    1.0858    2.0517 H   0  0  0  0  0  0  0  0  0  0  0  0
   -0.0137    3.0826    2.0755 C   0  0  0  0  0  0  0  0  0  0  0  0
   -0.9991    3.3070    2.4905 H   0  0  0  0  0  0  0  0  0  0  0  0
    0.7468    3.2694    2.8349 H   0  0  0  0  0  0  0  0  0  0  0  0
    0.1592    3.7397    1.2213 H   0  0  0  0  0  0  0  0  0  0  0  0
  5  6  2  0  0  0  0
  5  7  1  0  0  0  0
  2  3  1  0  0  0  0
  2  4  1  0  0  0  0
  2  5  1  0  0  0  0
  1  2  1  0  0  0  0
 22 23  2  0  0  0  0
 22 24  1  0  0  0  0
 18 19  1  0  0  0  0
 18 20  1  0  0  0  0
 18 21  1  0  0  0  0
 17 18  1  0  0  0  0
 14 15  1  0  0  0  0
 14 16  1  0  0  0  0
 14 17  1  0  0  0  0
 11 12  1  0  0  0  0
 11 13  1  0  0  0  0
 11 14  1  0  0  0  0
  9 10  1  0  0  0  0
  9 11  1  0  0  0  0
  9 22  1  0  0  0  0
  7  8  1  0  0  0  0
  7  9  1  0  0  0  0
 26 27  1  0  0  0  0
 26 28  1  0  0  0  0
 26 29  1  0  0  0  0
 24 25  1  0  0  0  0
 24 26  1  0  0  0  0
M  END
$$$$
default_name
  -OEChem-02102213163D

 29 28  0     1  0  0  0  0  0999 V2000
   -3.5781   -3.7296    1.2702 H   0  0  0  0  0  0  0  0  0  0  0  0
   -3.5311   -2.7616    0.7732 C   0  0  0  0  0  0  0  0  0  0  0  0
   -4.2371   -2.0766    1.2382 H   0  0  0  0  0  0  0  0  0  0  0  0
   -3.7681   -2.8816   -0.2818 H   0  0  0  0  0  0  0  0  0  0  0  0
   -2.1321   -2.2086    0.9112 C   0  0  0  0  0  0  0  0  0  0  0  0
   -1.2751   -2.8426    1.5112 O   0  0  0  0  0  0  0  0  0  0  0  0
   -1.9041   -1.0186    0.3602 N   0  0  0  0  0  0  0  0  0  0  0  0
   -2.6671   -0.5416   -0.0988 H   0  0  0  0  0  0  0  0  0  0  0  0
   -0.6131   -0.3236    0.3832 C   0  0  1  0  0  0  0  0  0  0  0  0
    0.0142   -0.7800    1.1506 H   0  0  0  0  0  0  0  0  0  0  0  0
    0.0816   -0.5059   -0.9788 C   0  0  0  0  0  0  0  0  0  0  0  0
   -0.2076    0.3190   -1.6336 H   0  0  0  0  0  0  0  0  0  0  0  0
    1.1629   -0.4673   -0.8393 H   0  0  0  0  0  0  0  0  0  0  0  0
   -0.2756   -1.8231   -1.6770 C   0  0  0  0  0  0  0  0  0  0  0  0
    0.5603   -2.5156   -1.5830 H   0  0  0  0  0  0  0  0  0  0  0  0
   -1.1467   -2.2560   -1.1838 H   0  0  0  0  0  0  0  0  0  0  0  0
   -0.6520   -1.6324   -3.4382 S   0  0  0  0  0  0  0  0  0  0  0  0
   -2.2189   -0.7304   -3.3241 C   0  0  0  0  0  0  0  0  0  0  0  0
   -2.0618    0.2152   -2.8043 H   0  0  0  0  0  0  0  0  0  0  0  0
   -2.5946   -0.5302   -4.3279 H   0  0  0  0  0  0  0  0  0  0  0  0
   -2.9497   -1.3298   -2.7805 H   0  0  0  0  0  0  0  0  0  0  0  0
   -0.8064    1.1568    0.7414 C   0  0  0  0  0  0  0  0  0  0  0  0
   -1.6978    1.8100    0.2029 O   0  0  0  0  0  0  0  0  0  0  0  0
    0.0314    1.6872    1.6415 N   0  0  0  0  0  0  0  0  0  0  0  0
    0.7279    1.0858    2.0517 H   0  0  0  0  0  0  0  0  0  0  0  0
   -0.0137    3.0826    2.0755 C   0  0  0  0  0  0  0  0  0  0  0  0
   -0.9991    3.3070    2.4905 H   0  0  0  0  0  0  0  0  0  0  0  0
    0.7468    3.2694    2.8349 H   0  0  0  0  0  0  0  0  0  0  0  0
    0.1592    3.7397    1.2213 H   0  0  0  0  0  0  0  0  0  0  0  0
  5  6  2  0  0  0  0
  5  7  1  0  0  0  0
  2  3  1  0  0  0  0
  2  4  1  0  0  0  0
  2  5  1  0  0  0  0
  1  2  1  0  0  0  0
 22 23  2  0  0  0  0
 22 24  1  0  0  0  0
 18 19  1  0  0  0  0
 18 20  1  0  0  0  0
 18 21  1  0  0  0  0
 17 18  1  0  0  0  0
 14 15  1  0  0  0  0
 14 16  1  0  0  0  0
 14 17  1  0  0  0  0
 11 12  1  0  0  0  0
 11 13  1  0  0  0  0
 11 14  1  0  0  0  0
  9 10  1  0  0  0  0
  9 11  1  0  0  0  0
  9 22  1  0  0  0  0
  7  8  1  0  0  0  0
  7  9  1  0  0  0  0
 26 27  1  0  0  0  0
 26 28  1  0  0  0  0
 26 29  1  0  0  0  0
 24 25  1  0  0  0  0
 24 26  1  0  0  0  0
M  END
$$$$
default_name
  -OEChem-02102213163D

 29 28  0     1  0  0  0  0  0999 V2000
   -3.5781   -3.7296    1.2702 H   0  0  0  0  0  0  0  0  0  0  0  0
   -3.5311   -2.7616    0.7732 C   0  0  0  0  0  0  0  0  0  0  0  0
   -4.2371   -2.0766    1.2382 H   0  0  0  0  0  0  0  0  0  0  0  0
   -3.7681   -2.8816   -0.2818 H   0  0  0  0  0  0  0  0  0  0  0  0
   -2.1321   -2.2086    0.9112 C   0  0  0  0  0  0  0  0  0  0  0  0
   -1.2751   -2.8426    1.5112 O   0  0  0  0  0  0  0  0  0  0  0  0
   -1.9041   -1.0186    0.3602 N   0  0  0  0  0  0  0  0  0  0  0  0
   -2.6671   -0.5416   -0.0988 H   0  0  0  0  0  0  0  0  0  0  0  0
   -0.6131   -0.3236    0.3832 C   0  0  1  0  0  0  0  0  0  0  0  0
    0.0142   -0.7800    1.1506 H   0  0  0  0  0  0  0  0  0  0  0  0
    0.0816   -0.5059   -0.9788 C   0  0  0  0  0  0  0  0  0  0  0  0
   -0.2076    0.3190   -1.6336 H   0  0  0  0  0  0  0  0  0  0  0  0
    1.1629   -0.4673   -0.8393 H   0  0  0  0  0  0  0  0  0  0  0  0
   -0.2756   -1.8231   -1.6770 C   0  0  0  0  0  0  0  0  0  0  0  0
    0.4265   -2.5953   -1.3641 H   0  0  0  0  0  0  0  0  0  0  0  0
   -1.2805   -2.1191   -1.3736 H   0  0  0  0  0  0  0  0  0  0  0  0
   -0.2308   -1.7220   -3.4846 S   0  0  0  0  0  0  0  0  0  0  0  0
   -1.6597   -0.6456   -3.7701 C   0  0  0  0  0  0  0  0  0  0  0  0
   -1.5034    0.3124   -3.2733 H   0  0  0  0  0  0  0  0  0  0  0  0
   -1.7787   -0.4794   -4.8411 H   0  0  0  0  0  0  0  0  0  0  0  0
   -2.5606   -1.1185   -3.3782 H   0  0  0  0  0  0  0  0  0  0  0  0
   -0.8064    1.1568    0.7414 C   0  0  0  0  0  0  0  0  0  0  0  0
   -1.6978    1.8100    0.2029 O   0  0  0  0  0  0  0  0  0  0  0  0
    0.0314    1.6872    1.6415 N   0  0  0  0  0  0  0  0  0  0  0  0
    0.7279    1.0858    2.0517 H   0  0  0  0  0  0  0  0  0  0  0  0
   -0.0137    3.0826    2.0755 C   0  0  0  0  0  0  0  0  0  0  0  0
   -0.9991    3.3070    2.4905 H   0  0  0  0  0  0  0  0  0  0  0  0
    0.7468    3.2694    2.8349 H   0  0  0  0  0  0  0  0  0  0  0  0
    0.1592    3.7397    1.2213 H   0  0  0  0  0  0  0  0  0  0  0  0
  5  6  2  0  0  0  0
  5  7  1  0  0  0  0
  2  3  1  0  0  0  0
  2  4  1  0  0  0  0
  2  5  1  0  0  0  0
  1  2  1  0  0  0  0
 22 23  2  0  0  0  0
 22 24  1  0  0  0  0
 18 19  1  0  0  0  0
 18 20  1  0  0  0  0
 18 21  1  0  0  0  0
 17 18  1  0  0  0  0
 14 15  1  0  0  0  0
 14 16  1  0  0  0  0
 14 17  1  0  0  0  0
 11 12  1  0  0  0  0
 11 13  1  0  0  0  0
 11 14  1  0  0  0  0
  9 10  1  0  0  0  0
  9 11  1  0  0  0  0
  9 22  1  0  0  0  0
  7  8  1  0  0  0  0
  7  9  1  0  0  0  0
 26 27  1  0  0  0  0
 26 28  1  0  0  0  0
 26 29  1  0  0  0  0
 24 25  1  0  0  0  0
 24 26  1  0  0  0  0
M  END
$$$$
default_name
  -OEChem-02102213163D

 29 28  0     1  0  0  0  0  0999 V2000
   -3.5781   -3.7296    1.2702 H   0  0  0  0  0  0  0  0  0  0  0  0
   -3.5311   -2.7616    0.7732 C   0  0  0  0  0  0  0  0  0  0  0  0
   -4.2371   -2.0766    1.2382 H   0  0  0  0  0  0  0  0  0  0  0  0
   -3.7681   -2.8816   -0.2818 H   0  0  0  0  0  0  0  0  0  0  0  0
   -2.1321   -2.2086    0.9112 C   0  0  0  0  0  0  0  0  0  0  0  0
   -1.2751   -2.8426    1.5112 O   0  0  0  0  0  0  0  0  0  0  0  0
   -1.9041   -1.0186    0.3602 N   0  0  0  0  0  0  0  0  0  0  0  0
   -2.6671   -0.5416   -0.0988 H   0  0  0  0  0  0  0  0  0  0  0  0
   -0.6131   -0.3236    0.3832 C   0  0  1  0  0  0  0  0  0  0  0  0
    0.0142   -0.7800    1.1506 H   0  0  0  0  0  0  0  0  0  0  0  0
    0.0816   -0.5059   -0.9788 C   0  0  0  0  0  0  0  0  0  0  0  0
   -0.2076    0.3190   -1.6336 H   0  0  0  0  0  0  0  0  0  0  0  0
    1.1629   -0.4673   -0.8393 H   0  0  0  0  0  0  0  0  0  0  0  0
   -0.2756   -1.8231   -1.6770 C   0  0  0  0  0  0  0  0  0  0  0  0
    0.2391   -2.6433   -1.1776 H   0  0  0  0  0  0  0  0  0  0  0  0
   -1.3514   -1.9825   -1.5950 H   0  0  0  0  0  0  0  0  0  0  0  0
    0.1758   -1.8609   -3.4304 S   0  0  0  0  0  0  0  0  0  0  0  0
   -1.0103   -0.6565   -4.0817 C   0  0  0  0  0  0  0  0  0  0  0  0
   -0.8484    0.3122   -3.6080 H   0  0  0  0  0  0  0  0  0  0  0  0
   -0.8705   -0.5575   -5.1585 H   0  0  0  0  0  0  0  0  0  0  0  0
   -2.0269   -0.9964   -3.8818 H   0  0  0  0  0  0  0  0  0  0  0  0
   -0.8064    1.1568    0.7414 C   0  0  0  0  0  0  0  0  0  0  0  0
   -1.6978    1.8100    0.2029 O   0  0  0  0  0  0  0  0  0  0  0  0
    0.0314    1.6872    1.6415 N   0  0  0  0  0  0  0  0  0  0  0  0
    0.7279    1.0858    2.0517 H   0  0  0  0  0  0  0  0  0  0  0  0
   -0.0137    3.0826    2.0755 C   0  0  0  0  0  0  0  0  0  0  0  0
   -0.9991    3.3070    2.4905 H   0  0  0  0  0  0  0  0  0  0  0  0
    0.7468    3.2694    2.8349 H   0  0  0  0  0  0  0  0  0  0  0  0
    0.1592    3.7397    1.2213 H   0  0  0  0  0  0  0  0  0  0  0  0
  5  6  2  0  0  0  0
  5  7  1  0  0  0  0
  2  3  1  0  0  0  0
  2  4  1  0  0  0  0
  2  5  1  0  0  0  0
  1  2  1  0  0  0  0
 22 23  2  0  0  0  0
 22 24  1  0  0  0  0
 18 19  1  0  0  0  0
 18 20  1  0  0  0  0
 18 21  1  0  0  0  0
 17 18  1  0  0  0  0
 14 15  1  0  0  0  0
 14 16  1  0  0  0  0
 14 17  1  0  0  0  0
 11 12  1  0  0  0  0
 11 13  1  0  0  0  0
 11 14  1  0  0  0  0
  9 10  1  0  0  0  0
  9 11  1  0  0  0  0
  9 22  1  0  0  0  0
  7  8  1  0  0  0  0
  7  9  1  0  0  0  0
 26 27  1  0  0  0  0
 26 28  1  0  0  0  0
 26 29  1  0  0  0  0
 24 25  1  0  0  0  0
 24 26  1  0  0  0  0
M  END
$$$$
default_name
  -OEChem-02102213163D

 29 28  0     1  0  0  0  0  0999 V2000
   -3.5781   -3.7296    1.2702 H   0  0  0  0  0  0  0  0  0  0  0  0
   -3.5311   -2.7616    0.7732 C   0  0  0  0  0  0  0  0  0  0  0  0
   -4.2371   -2.0766    1.2382 H   0  0  0  0  0  0  0  0  0  0  0  0
   -3.7681   -2.8816   -0.2818 H   0  0  0  0  0  0  0  0  0  0  0  0
   -2.1321   -2.2086    0.9112 C   0  0  0  0  0  0  0  0  0  0  0  0
   -1.2751   -2.8426    1.5112 O   0  0  0  0  0  0  0  0  0  0  0  0
   -1.9041   -1.0186    0.3602 N   0  0  0  0  0  0  0  0  0  0  0  0
   -2.6671   -0.5416   -0.0988 H   0  0  0  0  0  0  0  0  0  0  0  0
   -0.6131   -0.3236    0.3832 C   0  0  1  0  0  0  0  0  0  0  0  0
    0.0142   -0.7800    1.1506 H   0  0  0  0  0  0  0  0  0  0  0  0
    0.0816   -0.5059   -0.9788 C   0  0  0  0  0  0  0  0  0  0  0  0
    0.0166    0.4321   -1.5344 H   0  0  0  0  0  0  0  0  0  0  0  0
    1.1361   -0.7340   -0.8173 H   0  0  0  0  0  0  0  0  0  0  0  0
   -0.5342   -1.6174   -1.8364 C   0  0  0  0  0  0  0  0  0  0  0  0
   -0.4730   -2.5614   -1.2958 H   0  0  0  0  0  0  0  0  0  0  0  0
   -1.5843   -1.3821   -2.0134 H   0  0  0  0  0  0  0  0  0  0  0  0
    0.2811   -1.8338   -3.4390 S   0  0  0  0  0  0  0  0  0  0  0  0
   -0.2185   -0.2934   -4.2511 C   0  0  0  0  0  0  0  0  0  0  0  0
    0.1526    0.5594   -3.6819 H   0  0  0  0  0  0  0  0  0  0  0  0
    0.2003   -0.2630   -5.2573 H   0  0  0  0  0  0  0  0  0  0  0  0
   -1.3060   -0.2465   -4.3136 H   0  0  0  0  0  0  0  0  0  0  0  0
   -0.8064    1.1568    0.7414 C   0  0  0  0  0  0  0  0  0  0  0  0
   -1.6978    1.8100    0.2029 O   0  0  0  0  0  0  0  0  0  0  0  0
    0.0314    1.6872    1.6415 N   0  0  0  0  0  0  0  0  0  0  0  0
    0.7279    1.0858    2.0517 H   0  0  0  0  0  0  0  0  0  0  0  0
   -0.0137    3.0826    2.0755 C   0  0  0  0  0  0  0  0  0  0  0  0
   -0.9991    3.3070    2.4905 H   0  0  0  0  0  0  0  0  0  0  0  0
    0.7468    3.2694    2.8349 H   0  0  0  0  0  0  0  0  0  0  0  0
    0.1592    3.7397    1.2213 H   0  0  0  0  0  0  0  0  0  0  0  0
  5  6  2  0  0  0  0
  5  7  1  0  0  0  0
  2  3  1  0  0  0  0
  2  4  1  0  0  0  0
  2  5  1  0  0  0  0
  1  2  1  0  0  0  0
 22 23  2  0  0  0  0
 22 24  1  0  0  0  0
 18 19  1  0  0  0  0
 18 20  1  0  0  0  0
 18 21  1  0  0  0  0
 17 18  1  0  0  0  0
 14 15  1  0  0  0  0
 14 16  1  0  0  0  0
 14 17  1  0  0  0  0
 11 12  1  0  0  0  0
 11 13  1  0  0  0  0
 11 14  1  0  0  0  0
  9 10  1  0  0  0  0
  9 11  1  0  0  0  0
  9 22  1  0  0  0  0
  7  8  1  0  0  0  0
  7  9  1  0  0  0  0
 26 27  1  0  0  0  0
 26 28  1  0  0  0  0
 26 29  1  0  0  0  0
 24 25  1  0  0  0  0
 24 26  1  0  0  0  0
M  END
$$$$
default_name
  -OEChem-02102213163D

 29 28  0     1  0  0  0  0  0999 V2000
   -3.5781   -3.7296    1.2702 H   0  0  0  0  0  0  0  0  0  0  0  0
   -3.5311   -2.7616    0.7732 C   0  0  0  0  0  0  0  0  0  0  0  0
   -4.2371   -2.0766    1.2382 H   0  0  0  0  0  0  0  0  0  0  0  0
   -3.7681   -2.8816   -0.2818 H   0  0  0  0  0  0  0  0  0  0  0  0
   -2.1321   -2.2086    0.9112 C   0  0  0  0  0  0  0  0  0  0  0  0
   -1.2751   -2.8426    1.5112 O   0  0  0  0  0  0  0  0  0  0  0  0
   -1.9041   -1.0186    0.3602 N   0  0  0  0  0  0  0  0  0  0  0  0
   -2.6671   -0.5416   -0.0988 H   0  0  0  0  0  0  0  0  0  0  0  0
   -0.6131   -0.3236    0.3832 C   0  0  1  0  0  0  0  0  0  0  0  0
    0.0142   -0.7800    1.1506 H   0  0  0  0  0  0  0  0  0  0  0  0
    0.0816   -0.5059   -0.9788 C   0  0  0  0  0  0  0  0  0  0  0  0
    0.0166    0.4321   -1.5344 H   0  0  0  0  0  0  0  0  0  0  0  0
    1.1361   -0.7340   -0.8173 H   0  0  0  0  0  0  0  0  0  0  0  0
   -0.5342   -1.6174   -1.8364 C   0  0  0  0  0  0  0  0  0  0  0  0
   -0.7181   -2.4907   -1.2114 H   0  0  0  0  0  0  0  0  0  0  0  0
   -1.4861   -1.2652   -2.2356 H   0  0  0  0  0  0  0  0  0  0  0  0
    0.5128   -2.1290   -3.2227 S   0  0  0  0  0  0  0  0  0  0  0  0
    0.4120   -0.6418   -4.2522 C   0  0  0  0  0  0  0  0  0  0  0  0
    0.8020    0.2143   -3.7008 H   0  0  0  0  0  0  0  0  0  0  0  0
    1.0046   -0.7869   -5.1559 H   0  0  0  0  0  0  0  0  0  0  0  0
   -0.6260   -0.4563   -4.5300 H   0  0  0  0  0  0  0  0  0  0  0  0
   -0.8064    1.1568    0.7414 C   0  0  0  0  0  0  0  0  0  0  0  0
   -1.6978    1.8100    0.2029 O   0  0  0  0  0  0  0  0  0  0  0  0
    0.0314    1.6872    1.6415 N   0  0  0  0  0  0  0  0  0  0  0  0
    0.7279    1.0858    2.0517 H   0  0  0  0  0  0  0  0  0  0  0  0
   -0.0137    3.0826    2.0755 C   0  0  0  0  0  0  0  0  0  0  0  0
   -0.9991    3.3070    2.4905 H   0  0  0  0  0  0  0  0  0  0  0  0
    0.7468    3.2694    2.8349 H   0  0  0  0  0  0  0  0  0  0  0  0
    0.1592    3.7397    1.2213 H   0  0  0  0  0  0  0  0  0  0  0  0
  5  6  2  0  0  0  0
  5  7  1  0  0  0  0
  2  3  1  0  0  0  0
  2  4  1  0  0  0  0
  2  5  1  0  0  0  0
  1  2  1  0  0  0  0
 22 23  2  0  0  0  0
 22 24  1  0  0  0  0
 18 19  1  0  0  0  0
 18 20  1  0  0  0  0
 18 21  1  0  0  0  0
 17 18  1  0  0  0  0
 14 15  1  0  0  0  0
 14 16  1  0  0  0  0
 14 17  1  0  0  0  0
 11 12  1  0  0  0  0
 11 13  1  0  0  0  0
 11 14  1  0  0  0  0
  9 10  1  0  0  0  0
  9 11  1  0  0  0  0
  9 22  1  0  0  0  0
  7  8  1  0  0  0  0
  7  9  1  0  0  0  0
 26 27  1  0  0  0  0
 26 28  1  0  0  0  0
 26 29  1  0  0  0  0
 24 25  1  0  0  0  0
 24 26  1  0  0  0  0
M  END
$$$$
default_name
  -OEChem-02102213163D

 29 28  0     1  0  0  0  0  0999 V2000
   -3.5781   -3.7296    1.2702 H   0  0  0  0  0  0  0  0  0  0  0  0
   -3.5311   -2.7616    0.7732 C   0  0  0  0  0  0  0  0  0  0  0  0
   -4.2371   -2.0766    1.2382 H   0  0  0  0  0  0  0  0  0  0  0  0
   -3.7681   -2.8816   -0.2818 H   0  0  0  0  0  0  0  0  0  0  0  0
   -2.1321   -2.2086    0.9112 C   0  0  0  0  0  0  0  0  0  0  0  0
   -1.2751   -2.8426    1.5112 O   0  0  0  0  0  0  0  0  0  0  0  0
   -1.9041   -1.0186    0.3602 N   0  0  0  0  0  0  0  0  0  0  0  0
   -2.6671   -0.5416   -0.0988 H   0  0  0  0  0  0  0  0  0  0  0  0
   -0.6131   -0.3236    0.3832 C   0  0  1  0  0  0  0  0  0  0  0  0
    0.0142   -0.7800    1.1506 H   0  0  0  0  0  0  0  0  0  0  0  0
    0.0816   -0.5059   -0.9788 C   0  0  0  0  0  0  0  0  0  0  0  0
    0.0166    0.4321   -1.5344 H   0  0  0  0  0  0  0  0  0  0  0  0
    1.1361   -0.7340   -0.8173 H   0  0  0  0  0  0  0  0  0  0  0  0
   -0.5342   -1.6174   -1.8364 C   0  0  0  0  0  0  0  0  0  0  0  0
   -0.9605   -2.3782   -1.1832 H   0  0  0  0  0  0  0  0  0  0  0  0
   -1.3325   -1.1895   -2.4439 H   0  0  0  0  0  0  0  0  0  0  0  0
    0.6532   -2.4252   -2.9397 S   0  0  0  0  0  0  0  0  0  0  0  0
    0.9707   -1.0697   -4.0988 C   0  0  0  0  0  0  0  0  0  0  0  0
    1.3827   -0.2151   -3.5613 H   0  0  0  0  0  0  0  0  0  0  0  0
    1.6866   -1.3988   -4.8525 H   0  0  0  0  0  0  0  0  0  0  0  0
    0.0411   -0.7800   -4.5895 H   0  0  0  0  0  0  0  0  0  0  0  0
   -0.8064    1.1568    0.7414 C   0  0  0  0  0  0  0  0  0  0  0  0
   -1.6978    1.8100    0.2029 O   0  0  0  0  0  0  0  0  0  0  0  0
    0.0314    1.6872    1.6415 N   0  0  0  0  0  0  0  0  0  0  0  0
    0.7279    1.0858    2.0517 H   0  0  0  0  0  0  0  0  0  0  0  0
   -0.0137    3.0826    2.0755 C   0  0  0  0  0  0  0  0  0  0  0  0
   -0.9991    3.3070    2.4905 H   0  0  0  0  0  0  0  0  0  0  0  0
    0.7468    3.2694    2.8349 H   0  0  0  0  0  0  0  0  0  0  0  0
    0.1592    3.7397    1.2213 H   0  0  0  0  0  0  0  0  0  0  0  0
  5  6  2  0  0  0  0
  5  7  1  0  0  0  0
  2  3  1  0  0  0  0
  2  4  1  0  0  0  0
  2  5  1  0  0  0  0
  1  2  1  0  0  0  0
 22 23  2  0  0  0  0
 22 24  1  0  0  0  0
 18 19  1  0  0  0  0
 18 20  1  0  0  0  0
 18 21  1  0  0  0  0
 17 18  1  0  0  0  0
 14 15  1  0  0  0  0
 14 16  1  0  0  0  0
 14 17  1  0  0  0  0
 11 12  1  0  0  0  0
 11 13  1  0  0  0  0
 11 14  1  0  0  0  0
  9 10  1  0  0  0  0
  9 11  1  0  0  0  0
  9 22  1  0  0  0  0
  7  8  1  0  0  0  0
  7  9  1  0  0  0  0
 26 27  1  0  0  0  0
 26 28  1  0  0  0  0
 26 29  1  0  0  0  0
 24 25  1  0  0  0  0
 24 26  1  0  0  0  0
M  END
$$$$
default_name
  -OEChem-02102213163D

 29 28  0     1  0  0  0  0  0999 V2000
   -3.5781   -3.7296    1.2702 H   0  0  0  0  0  0  0  0  0  0  0  0
   -3.5311   -2.7616    0.7732 C   0  0  0  0  0  0  0  0  0  0  0  0
   -4.2371   -2.0766    1.2382 H   0  0  0  0  0  0  0  0  0  0  0  0
   -3.7681   -2.8816   -0.2818 H   0  0  0  0  0  0  0  0  0  0  0  0
   -2.1321   -2.2086    0.9112 C   0  0  0  0  0  0  0  0  0  0  0  0
   -1.2751   -2.8426    1.5112 O   0  0  0  0  0  0  0  0  0  0  0  0
   -1.9041   -1.0186    0.3602 N   0  0  0  0  0  0  0  0  0  0  0  0
   -2.6671   -0.5416   -0.0988 H   0  0  0  0  0  0  0  0  0  0  0  0
   -0.6131   -0.3236    0.3832 C   0  0  1  0  0  0  0  0  0  0  0  0
    0.0142   -0.7800    1.1506 H   0  0  0  0  0  0  0  0  0  0  0  0
    0.0816   -0.5059   -0.9788 C   0  0  0  0  0  0  0  0  0  0  0  0
    0.0166    0.4321   -1.5344 H   0  0  0  0  0  0  0  0  0  0  0  0
    1.1361   -0.7340   -0.8173 H   0  0  0  0  0  0  0  0  0  0  0  0
   -0.5342   -1.6174   -1.8364 C   0  0  0  0  0  0  0  0  0  0  0  0
   -1.1836   -2.2314   -1.2132 H   0  0  0  0  0  0  0  0  0  0  0  0
   -1.1342   -1.1603   -2.6242 H   0  0  0  0  0  0  0  0  0  0  0  0
    0.6929   -2.7022   -2.6091 S   0  0  0  0  0  0  0  0  0  0  0  0
    1.4197   -1.5480   -3.8013 C   0  0  0  0  0  0  0  0  0  0  0  0
    1.8554   -0.6995   -3.2729 H   0  0  0  0  0  0  0  0  0  0  0  0
    2.1999   -2.0571   -4.3678 H   0  0  0  0  0  0  0  0  0  0  0  0
    0.6498   -1.1953   -4.4882 H   0  0  0  0  0  0  0  0  0  0  0  0
   -0.8064    1.1568    0.7414 C   0  0  0  0  0  0  0  0  0  0  0  0
   -1.6978    1.8100    0.2029 O   0  0  0  0  0  0  0  0  0  0  0  0
    0.0314    1.6872    1.6415 N   0  0  0  0  0  0  0  0  0  0  0  0
    0.7279    1.0858    2.0517 H   0  0  0  0  0  0  0  0  0  0  0  0
   -0.0137    3.0826    2.0755 C   0  0  0  0  0  0  0  0  0  0  0  0
   -0.9991    3.3070    2.4905 H   0  0  0  0  0  0  0  0  0  0  0  0
    0.7468    3.2694    2.8349 H   0  0  0  0  0  0  0  0  0  0  0  0
    0.1592    3.7397    1.2213 H   0  0  0  0  0  0  0  0  0  0  0  0
  5  6  2  0  0  0  0
  5  7  1  0  0  0  0
  2  3  1  0  0  0  0
  2  4  1  0  0  0  0
  2  5  1  0  0  0  0
  1  2  1  0  0  0  0
 22 23  2  0  0  0  0
 22 24  1  0  0  0  0
 18 19  1  0  0  0  0
 18 20  1  0  0  0  0
 18 21  1  0  0  0  0
 17 18  1  0  0  0  0
 14 15  1  0  0  0  0
 14 16  1  0  0  0  0
 14 17  1  0  0  0  0
 11 12  1  0  0  0  0
 11 13  1  0  0  0  0
 11 14  1  0  0  0  0
  9 10  1  0  0  0  0
  9 11  1  0  0  0  0
  9 22  1  0  0  0  0
  7  8  1  0  0  0  0
  7  9  1  0  0  0  0
 26 27  1  0  0  0  0
 26 28  1  0  0  0  0
 26 29  1  0  0  0  0
 24 25  1  0  0  0  0
 24 26  1  0  0  0  0
M  END
$$$$
default_name
  -OEChem-02102213163D

 29 28  0     1  0  0  0  0  0999 V2000
   -3.5781   -3.7296    1.2702 H   0  0  0  0  0  0  0  0  0  0  0  0
   -3.5311   -2.7616    0.7732 C   0  0  0  0  0  0  0  0  0  0  0  0
   -4.2371   -2.0766    1.2382 H   0  0  0  0  0  0  0  0  0  0  0  0
   -3.7681   -2.8816   -0.2818 H   0  0  0  0  0  0  0  0  0  0  0  0
   -2.1321   -2.2086    0.9112 C   0  0  0  0  0  0  0  0  0  0  0  0
   -1.2751   -2.8426    1.5112 O   0  0  0  0  0  0  0  0  0  0  0  0
   -1.9041   -1.0186    0.3602 N   0  0  0  0  0  0  0  0  0  0  0  0
   -2.6671   -0.5416   -0.0988 H   0  0  0  0  0  0  0  0  0  0  0  0
   -0.6131   -0.3236    0.3832 C   0  0  1  0  0  0  0  0  0  0  0  0
    0.0142   -0.7800    1.1506 H   0  0  0  0  0  0  0  0  0  0  0  0
    0.0816   -0.5059   -0.9788 C   0  0  0  0  0  0  0  0  0  0  0  0
    0.0166    0.4321   -1.5344 H   0  0  0  0  0  0  0  0  0  0  0  0
    1.1361   -0.7340   -0.8173 H   0  0  0  0  0  0  0  0  0  0  0  0
   -0.5342   -1.6174   -1.8364 C   0  0  0  0  0  0  0  0  0  0  0  0
   -1.3722   -2.0605   -1.2992 H   0  0  0  0  0  0  0  0  0  0  0  0
   -0.9045   -1.1796   -2.7641 H   0  0  0  0  0  0  0  0  0  0  0  0
    0.6291   -2.9412   -2.2535 S   0  0  0  0  0  0  0  0  0  0  0  0
    1.7283   -2.0440   -3.3799 C   0  0  0  0  0  0  0  0  0  0  0  0
    2.1877   -1.2058   -2.8553 H   0  0  0  0  0  0  0  0  0  0  0  0
    2.5094   -2.7169   -3.7349 H   0  0  0  0  0  0  0  0  0  0  0  0
    1.1586   -1.6742   -4.2329 H   0  0  0  0  0  0  0  0  0  0  0  0
   -0.8064    1.1568    0.7414 C   0  0  0  0  0  0  0  0  0  0  0  0
   -1.6978    1.8100    0.2029 O   0  0  0  0  0  0  0  0  0  0  0  0
    0.0314    1.6872    1.6415 N   0  0  0  0  0  0  0  0  0  0  0  0
    0.7279    1.0858    2.0517 H   0  0  0  0  0  0  0  0  0  0  0  0
   -0.0137    3.0826    2.0755 C   0  0  0  0  0  0  0  0  0  0  0  0
   -0.9991    3.3070    2.4905 H   0  0  0  0  0  0  0  0  0  0  0  0
    0.7468    3.2694    2.8349 H   0  0  0  0  0  0  0  0  0  0  0  0
    0.1592    3.7397    1.2213 H   0  0  0  0  0  0  0  0  0  0  0  0
  5  6  2  0  0  0  0
  5  7  1  0  0  0  0
  2  3  1  0  0  0  0
  2  4  1  0  0  0  0
  2  5  1  0  0  0  0
  1  2  1  0  0  0  0
 22 23  2  0  0  0  0
 22 24  1  0  0  0  0
 18 19  1  0  0  0  0
 18 20  1  0  0  0  0
 18 21  1  0  0  0  0
 17 18  1  0  0  0  0
 14 15  1  0  0  0  0
 14 16  1  0  0  0  0
 14 17  1  0  0  0  0
 11 12  1  0  0  0  0
 11 13  1  0  0  0  0
 11 14  1  0  0  0  0
  9 10  1  0  0  0  0
  9 11  1  0  0  0  0
  9 22  1  0  0  0  0
  7  8  1  0  0  0  0
  7  9  1  0  0  0  0
 26 27  1  0  0  0  0
 26 28  1  0  0  0  0
 26 29  1  0  0  0  0
 24 25  1  0  0  0  0
 24 26  1  0  0  0  0
M  END
$$$$
default_name
  -OEChem-02102213163D

 29 28  0     1  0  0  0  0  0999 V2000
   -3.5781   -3.7296    1.2702 H   0  0  0  0  0  0  0  0  0  0  0  0
   -3.5311   -2.7616    0.7732 C   0  0  0  0  0  0  0  0  0  0  0  0
   -4.2371   -2.0766    1.2382 H   0  0  0  0  0  0  0  0  0  0  0  0
   -3.7681   -2.8816   -0.2818 H   0  0  0  0  0  0  0  0  0  0  0  0
   -2.1321   -2.2086    0.9112 C   0  0  0  0  0  0  0  0  0  0  0  0
   -1.2751   -2.8426    1.5112 O   0  0  0  0  0  0  0  0  0  0  0  0
   -1.9041   -1.0186    0.3602 N   0  0  0  0  0  0  0  0  0  0  0  0
   -2.6671   -0.5416   -0.0988 H   0  0  0  0  0  0  0  0  0  0  0  0
   -0.6131   -0.3236    0.3832 C   0  0  1  0  0  0  0  0  0  0  0  0
    0.0142   -0.7800    1.1506 H   0  0  0  0  0  0  0  0  0  0  0  0
    0.0816   -0.5059   -0.9788 C   0  0  0  0  0  0  0  0  0  0  0  0
    0.0166    0.4321   -1.5344 H   0  0  0  0  0  0  0  0  0  0  0  0
    1.1361   -0.7340   -0.8173 H   0  0  0  0  0  0  0  0  0  0  0  0
   -0.5342   -1.6174   -1.8364 C   0  0  0  0  0  0  0  0  0  0  0  0
   -1.5135   -1.8771   -1.4355 H   0  0  0  0  0  0  0  0  0  0  0  0
   -0.6592   -1.2460   -2.8542 H   0  0  0  0  0  0  0  0  0  0  0  0
    0.4661   -3.1258   -1.8972 S   0  0  0  0  0  0  0  0  0  0  0  0
    1.8754   -2.5241   -2.8634 C   0  0  0  0  0  0  0  0  0  0  0  0
    2.3570   -1.6995   -2.3369 H   0  0  0  0  0  0  0  0  0  0  0  0
    2.5940   -3.3332   -2.9969 H   0  0  0  0  0  0  0  0  0  0  0  0
    1.5328   -2.1838   -3.8410 H   0  0  0  0  0  0  0  0  0  0  0  0
   -0.8064    1.1568    0.7414 C   0  0  0  0  0  0  0  0  0  0  0  0
   -1.6978    1.8100    0.2029 O   0  0  0  0  0  0  0  0  0  0  0  0
    0.0314    1.6872    1.6415 N   0  0  0  0  0  0  0  0  0  0  0  0
    0.7279    1.0858    2.0517 H   0  0  0  0  0  0  0  0  0  0  0  0
   -0.0137    3.0826    2.0755 C   0  0  0  0  0  0  0  0  0  0  0  0
   -0.9991    3.3070    2.4905 H   0  0  0  0  0  0  0  0  0  0  0  0
    0.7468    3.2694    2.8349 H   0  0  0  0  0  0  0  0  0  0  0  0
    0.1592    3.7397    1.2213 H   0  0  0  0  0  0  0  0  0  0  0  0
  5  6  2  0  0  0  0
  5  7  1  0  0  0  0
  2  3  1  0  0  0  0
  2  4  1  0  0  0  0
  2  5  1  0  0  0  0
  1  2  1  0  0  0  0
 22 23  2  0  0  0  0
 22 24  1  0  0  0  0
 18 19  1  0  0  0  0
 18 20  1  0  0  0  0
 18 21  1  0  0  0  0
 17 18  1  0  0  0  0
 14 15  1  0  0  0  0
 14 16  1  0  0  0  0
 14 17  1  0  0  0  0
 11 12  1  0  0  0  0
 11 13  1  0  0  0  0
 11 14  1  0  0  0  0
  9 10  1  0  0  0  0
  9 11  1  0  0  0  0
  9 22  1  0  0  0  0
  7  8  1  0  0  0  0
  7  9  1  0  0  0  0
 26 27  1  0  0  0  0
 26 28  1  0  0  0  0
 26 29  1  0  0  0  0
 24 25  1  0  0  0  0
 24 26  1  0  0  0  0
M  END
$$$$
default_name
  -OEChem-02102213163D

 29 28  0     1  0  0  0  0  0999 V2000
   -3.5781   -3.7296    1.2702 H   0  0  0  0  0  0  0  0  0  0  0  0
   -3.5311   -2.7616    0.7732 C   0  0  0  0  0  0  0  0  0  0  0  0
   -4.2371   -2.0766    1.2382 H   0  0  0  0  0  0  0  0  0  0  0  0
   -3.7681   -2.8816   -0.2818 H   0  0  0  0  0  0  0  0  0  0  0  0
   -2.1321   -2.2086    0.9112 C   0  0  0  0  0  0  0  0  0  0  0  0
   -1.2751   -2.8426    1.5112 O   0  0  0  0  0  0  0  0  0  0  0  0
   -1.9041   -1.0186    0.3602 N   0  0  0  0  0  0  0  0  0  0  0  0
   -2.6671   -0.5416   -0.0988 H   0  0  0  0  0  0  0  0  0  0  0  0
   -0.6131   -0.3236    0.3832 C   0  0  1  0  0  0  0  0  0  0  0  0
    0.0142   -0.7800    1.1506 H   0  0  0  0  0  0  0  0  0  0  0  0
    0.0816   -0.5059   -0.9788 C   0  0  0  0  0  0  0  0  0  0  0  0
    0.0166    0.4321   -1.5344 H   0  0  0  0  0  0  0  0  0  0  0  0
    1.1361   -0.7340   -0.8173 H   0  0  0  0  0  0  0  0  0  0  0  0
   -0.5342   -1.6174   -1.8364 C   0  0  0  0  0  0  0  0  0  0  0  0
   -1.5979   -1.6936   -1.6128 H   0  0  0  0  0  0  0  0  0  0  0  0
   -0.4150   -1.3550   -2.8883 H   0  0  0  0  0  0  0  0  0  0  0  0
    0.2151   -3.2435   -1.5644 S   0  0  0  0  0  0  0  0  0  0  0  0
    1.8512   -2.9554   -2.2870 C   0  0  0  0  0  0  0  0  0  0  0  0
    2.3517   -2.1470   -1.7531 H   0  0  0  0  0  0  0  0  0  0  0  0
    2.4480   -3.8640   -2.2040 H   0  0  0  0  0  0  0  0  0  0  0  0
    1.7469   -2.6895   -3.3393 H   0  0  0  0  0  0  0  0  0  0  0  0
   -0.8064    1.1568    0.7414 C   0  0  0  0  0  0  0  0  0  0  0  0
   -1.6978    1.8100    0.2029 O   0  0  0  0  0  0  0  0  0  0  0  0
    0.0314    1.6872    1.6415 N   0  0  0  0  0  0  0  0  0  0  0  0
    0.7279    1.0858    2.0517 H   0  0  0  0  0  0  0  0  0  0  0  0
   -0.0137    3.0826    2.0755 C   0  0  0  0  0  0  0  0  0  0  0  0
   -0.9991    3.3070    2.4905 H   0  0  0  0  0  0  0  0  0  0  0  0
    0.7468    3.2694    2.8349 H   0  0  0  0  0  0  0  0  0  0  0  0
    0.1592    3.7397    1.2213 H   0  0  0  0  0  0  0  0  0  0  0  0
  5  6  2  0  0  0  0
  5  7  1  0  0  0  0
  2  3  1  0  0  0  0
  2  4  1  0  0  0  0
  2  5  1  0  0  0  0
  1  2  1  0  0  0  0
 22 23  2  0  0  0  0
 22 24  1  0  0  0  0
 18 19  1  0  0  0  0
 18 20  1  0  0  0  0
 18 21  1  0  0  0  0
 17 18  1  0  0  0  0
 14 15  1  0  0  0  0
 14 16  1  0  0  0  0
 14 17  1  0  0  0  0
 11 12  1  0  0  0  0
 11 13  1  0  0  0  0
 11 14  1  0  0  0  0
  9 10  1  0  0  0  0
  9 11  1  0  0  0  0
  9 22  1  0  0  0  0
  7  8  1  0  0  0  0
  7  9  1  0  0  0  0
 26 27  1  0  0  0  0
 26 28  1  0  0  0  0
 26 29  1  0  0  0  0
 24 25  1  0  0  0  0
 24 26  1  0  0  0  0
M  END
$$$$
default_name
  -OEChem-02102213163D

 29 28  0     1  0  0  0  0  0999 V2000
   -3.5781   -3.7296    1.2702 H   0  0  0  0  0  0  0  0  0  0  0  0
   -3.5311   -2.7616    0.7732 C   0  0  0  0  0  0  0  0  0  0  0  0
   -4.2371   -2.0766    1.2382 H   0  0  0  0  0  0  0  0  0  0  0  0
   -3.7681   -2.8816   -0.2818 H   0  0  0  0  0  0  0  0  0  0  0  0
   -2.1321   -2.2086    0.9112 C   0  0  0  0  0  0  0  0  0  0  0  0
   -1.2751   -2.8426    1.5112 O   0  0  0  0  0  0  0  0  0  0  0  0
   -1.9041   -1.0186    0.3602 N   0  0  0  0  0  0  0  0  0  0  0  0
   -2.6671   -0.5416   -0.0988 H   0  0  0  0  0  0  0  0  0  0  0  0
   -0.6131   -0.3236    0.3832 C   0  0  1  0  0  0  0  0  0  0  0  0
    0.0142   -0.7800    1.1506 H   0  0  0  0  0  0  0  0  0  0  0  0
    0.0816   -0.5059   -0.9788 C   0  0  0  0  0  0  0  0  0  0  0  0
    0.0166    0.4321   -1.5344 H   0  0  0  0  0  0  0  0  0  0  0  0
    1.1361   -0.7340   -0.8173 H   0  0  0  0  0  0  0  0  0  0  0  0
   -0.5342   -1.6174   -1.8364 C   0  0  0  0  0  0  0  0  0  0  0  0
   -1.6195   -1.5226   -1.8189 H   0  0  0  0  0  0  0  0  0  0  0  0
   -0.1885   -1.4992   -2.8640 H   0  0  0  0  0  0  0  0  0  0  0  0
   -0.1068   -3.2862   -1.2779 S   0  0  0  0  0  0  0  0  0  0  0  0
    1.6571   -3.3085   -1.6900 C   0  0  0  0  0  0  0  0  0  0  0  0
    2.1723   -2.5179   -1.1437 H   0  0  0  0  0  0  0  0  0  0  0  0
    2.0814   -4.2732   -1.4104 H   0  0  0  0  0  0  0  0  0  0  0  0
    1.7864   -3.1569   -2.7619 H   0  0  0  0  0  0  0  0  0  0  0  0
   -0.8064    1.1568    0.7414 C   0  0  0  0  0  0  0  0  0  0  0  0
   -1.6978    1.8100    0.2029 O   0  0  0  0  0  0  0  0  0  0  0  0
    0.0314    1.6872    1.6415 N   0  0  0  0  0  0  0  0  0  0  0  0
    0.7279    1.0858    2.0517 H   0  0  0  0  0  0  0  0  0  0  0  0
   -0.0137    3.0826    2.0755 C   0  0  0  0  0  0  0  0  0  0  0  0
   -0.9991    3.3070    2.4905 H   0  0  0  0  0  0  0  0  0  0  0  0
    0.7468    3.2694    2.8349 H   0  0  0  0  0  0  0  0  0  0  0  0
    0.1592    3.7397    1.2213 H   0  0  0  0  0  0  0  0  0  0  0  0
  5  6  2  0  0  0  0
  5  7  1  0  0  0  0
  2  3  1  0  0  0  0
  2  4  1  0  0  0  0
  2  5  1  0  0  0  0
  1  2  1  0  0  0  0
 22 23  2  0  0  0  0
 22 24  1  0  0  0  0
 18 19  1  0  0  0  0
 18 20  1  0  0  0  0
 18 21  1  0  0  0  0
 17 18  1  0  0  0  0
 14 15  1  0  0  0  0
 14 16  1  0  0  0  0
 14 17  1  0  0  0  0
 11 12  1  0  0  0  0
 11 13  1  0  0  0  0
 11 14  1  0  0  0  0
  9 10  1  0  0  0  0
  9 11  1  0  0  0  0
  9 22  1  0  0  0  0
  7  8  1  0  0  0  0
  7  9  1  0  0  0  0
 26 27  1  0  0  0  0
 26 28  1  0  0  0  0
 26 29  1  0  0  0  0
 24 25  1  0  0  0  0
 24 26  1  0  0  0  0
M  END
$$$$
default_name
  -OEChem-02102213163D

 29 28  0     1  0  0  0  0  0999 V2000
   -3.5781   -3.7296    1.2702 H   0  0  0  0  0  0  0  0  0  0  0  0
   -3.5311   -2.7616    0.7732 C   0  0  0  0  0  0  0  0  0  0  0  0
   -4.2371   -2.0766    1.2382 H   0  0  0  0  0  0  0  0  0  0  0  0
   -3.7681   -2.8816   -0.2818 H   0  0  0  0  0  0  0  0  0  0  0  0
   -2.1321   -2.2086    0.9112 C   0  0  0  0  0  0  0  0  0  0  0  0
   -1.2751   -2.8426    1.5112 O   0  0  0  0  0  0  0  0  0  0  0  0
   -1.9041   -1.0186    0.3602 N   0  0  0  0  0  0  0  0  0  0  0  0
   -2.6671   -0.5416   -0.0988 H   0  0  0  0  0  0  0  0  0  0  0  0
   -0.6131   -0.3236    0.3832 C   0  0  1  0  0  0  0  0  0  0  0  0
    0.0142   -0.7800    1.1506 H   0  0  0  0  0  0  0  0  0  0  0  0
    0.0816   -0.5059   -0.9788 C   0  0  0  0  0  0  0  0  0  0  0  0
    0.0166    0.4321   -1.5344 H   0  0  0  0  0  0  0  0  0  0  0  0
    1.1361   -0.7340   -0.8173 H   0  0  0  0  0  0  0  0  0  0  0  0
   -0.5342   -1.6174   -1.8364 C   0  0  0  0  0  0  0  0  0  0  0  0
   -1.5770   -1.3757   -2.0398 H   0  0  0  0  0  0  0  0  0  0  0  0
    0.0049   -1.6688   -2.7831 H   0  0  0  0  0  0  0  0  0  0  0  0
   -0.4778   -3.2511   -1.0570 S   0  0  0  0  0  0  0  0  0  0  0  0
    1.3065   -3.5594   -1.1129 C   0  0  0  0  0  0  0  0  0  0  0  0
    1.8310   -2.7867   -0.5501 H   0  0  0  0  0  0  0  0  0  0  0  0
    1.5191   -4.5329   -0.6701 H   0  0  0  0  0  0  0  0  0  0  0  0
    1.6485   -3.5539   -2.1483 H   0  0  0  0  0  0  0  0  0  0  0  0
   -0.8064    1.1568    0.7414 C   0  0  0  0  0  0  0  0  0  0  0  0
   -1.6978    1.8100    0.2029 O   0  0  0  0  0  0  0  0  0  0  0  0
    0.0314    1.6872    1.6415 N   0  0  0  0  0  0  0  0  0  0  0  0
    0.7279    1.0858    2.0517 H   0  0  0  0  0  0  0  0  0  0  0  0
   -0.0137    3.0826    2.0755 C   0  0  0  0  0  0  0  0  0  0  0  0
   -0.9991    3.3070    2.4905 H   0  0  0  0  0  0  0  0  0  0  0  0
    0.7468    3.2694    2.8349 H   0  0  0  0  0  0  0  0  0  0  0  0
    0.1592    3.7397    1.2213 H   0  0  0  0  0  0  0  0  0  0  0  0
  5  6  2  0  0  0  0
  5  7  1  0  0  0  0
  2  3  1  0  0  0  0
  2  4  1  0  0  0  0
  2  5  1  0  0  0  0
  1  2  1  0  0  0  0
 22 23  2  0  0  0  0
 22 24  1  0  0  0  0
 18 19  1  0  0  0  0
 18 20  1  0  0  0  0
 18 21  1  0  0  0  0
 17 18  1  0  0  0  0
 14 15  1  0  0  0  0
 14 16  1  0  0  0  0
 14 17  1  0  0  0  0
 11 12  1  0  0  0  0
 11 13  1  0  0  0  0
 11 14  1  0  0  0  0
  9 10  1  0  0  0  0
  9 11  1  0  0  0  0
  9 22  1  0  0  0  0
  7  8  1  0  0  0  0
  7  9  1  0  0  0  0
 26 27  1  0  0  0  0
 26 28  1  0  0  0  0
 26 29  1  0  0  0  0
 24 25  1  0  0  0  0
 24 26  1  0  0  0  0
M  END
$$$$
default_name
  -OEChem-02102213163D

 29 28  0     1  0  0  0  0  0999 V2000
   -3.5781   -3.7296    1.2702 H   0  0  0  0  0  0  0  0  0  0  0  0
   -3.5311   -2.7616    0.7732 C   0  0  0  0  0  0  0  0  0  0  0  0
   -4.2371   -2.0766    1.2382 H   0  0  0  0  0  0  0  0  0  0  0  0
   -3.7681   -2.8816   -0.2818 H   0  0  0  0  0  0  0  0  0  0  0  0
   -2.1321   -2.2086    0.9112 C   0  0  0  0  0  0  0  0  0  0  0  0
   -1.2751   -2.8426    1.5112 O   0  0  0  0  0  0  0  0  0  0  0  0
   -1.9041   -1.0186    0.3602 N   0  0  0  0  0  0  0  0  0  0  0  0
   -2.6671   -0.5416   -0.0988 H   0  0  0  0  0  0  0  0  0  0  0  0
   -0.6131   -0.3236    0.3832 C   0  0  1  0  0  0  0  0  0  0  0  0
    0.0142   -0.7800    1.1506 H   0  0  0  0  0  0  0  0  0  0  0  0
    0.0816   -0.5059   -0.9788 C   0  0  0  0  0  0  0  0  0  0  0  0
    0.0166    0.4321   -1.5344 H   0  0  0  0  0  0  0  0  0  0  0  0
    1.1361   -0.7340   -0.8173 H   0  0  0  0  0  0  0  0  0  0  0  0
   -0.5342   -1.6174   -1.8364 C   0  0  0  0  0  0  0  0  0  0  0  0
   -1.4732   -1.2629   -2.2605 H   0  0  0  0  0  0  0  0  0  0  0  0
    0.1519   -1.8522   -2.6510 H   0  0  0  0  0  0  0  0  0  0  0  0
   -0.8724   -3.1405   -0.9170 S   0  0  0  0  0  0  0  0  0  0  0  0
    0.8232   -3.6911   -0.5953 C   0  0  0  0  0  0  0  0  0  0  0  0
    1.3509   -2.9353   -0.0128 H   0  0  0  0  0  0  0  0  0  0  0  0
    0.7994   -4.6253   -0.0336 H   0  0  0  0  0  0  0  0  0  0  0  0
    1.3426   -3.8537   -1.5401 H   0  0  0  0  0  0  0  0  0  0  0  0
   -0.8064    1.1568    0.7414 C   0  0  0  0  0  0  0  0  0  0  0  0
   -1.6978    1.8100    0.2029 O   0  0  0  0  0  0  0  0  0  0  0  0
    0.0314    1.6872    1.6415 N   0  0  0  0  0  0  0  0  0  0  0  0
    0.7279    1.0858    2.0517 H   0  0  0  0  0  0  0  0  0  0  0  0
   -0.0137    3.0826    2.0755 C   0  0  0  0  0  0  0  0  0  0  0  0
   -0.9991    3.3070    2.4905 H   0  0  0  0  0  0  0  0  0  0  0  0
    0.7468    3.2694    2.8349 H   0  0  0  0  0  0  0  0  0  0  0  0
    0.1592    3.7397    1.2213 H   0  0  0  0  0  0  0  0  0  0  0  0
  5  6  2  0  0  0  0
  5  7  1  0  0  0  0
  2  3  1  0  0  0  0
  2  4  1  0  0  0  0
  2  5  1  0  0  0  0
  1  2  1  0  0  0  0
 22 23  2  0  0  0  0
 22 24  1  0  0  0  0
 18 19  1  0  0  0  0
 18 20  1  0  0  0  0
 18 21  1  0  0  0  0
 17 18  1  0  0  0  0
 14 15  1  0  0  0  0
 14 16  1  0  0  0  0
 14 17  1  0  0  0  0
 11 12  1  0  0  0  0
 11 13  1  0  0  0  0
 11 14  1  0  0  0  0
  9 10  1  0  0  0  0
  9 11  1  0  0  0  0
  9 22  1  0  0  0  0
  7  8  1  0  0  0  0
  7  9  1  0  0  0  0
 26 27  1  0  0  0  0
 26 28  1  0  0  0  0
 26 29  1  0  0  0  0
 24 25  1  0  0  0  0
 24 26  1  0  0  0  0
M  END
$$$$
default_name
  -OEChem-02102213163D

 29 28  0     1  0  0  0  0  0999 V2000
   -3.5781   -3.7296    1.2702 H   0  0  0  0  0  0  0  0  0  0  0  0
   -3.5311   -2.7616    0.7732 C   0  0  0  0  0  0  0  0  0  0  0  0
   -4.2371   -2.0766    1.2382 H   0  0  0  0  0  0  0  0  0  0  0  0
   -3.7681   -2.8816   -0.2818 H   0  0  0  0  0  0  0  0  0  0  0  0
   -2.1321   -2.2086    0.9112 C   0  0  0  0  0  0  0  0  0  0  0  0
   -1.2751   -2.8426    1.5112 O   0  0  0  0  0  0  0  0  0  0  0  0
   -1.9041   -1.0186    0.3602 N   0  0  0  0  0  0  0  0  0  0  0  0
   -2.6671   -0.5416   -0.0988 H   0  0  0  0  0  0  0  0  0  0  0  0
   -0.6131   -0.3236    0.3832 C   0  0  1  0  0  0  0  0  0  0  0  0
    0.0142   -0.7800    1.1506 H   0  0  0  0  0  0  0  0  0  0  0  0
    0.0816   -0.5059   -0.9788 C   0  0  0  0  0  0  0  0  0  0  0  0
    0.0166    0.4321   -1.5344 H   0  0  0  0  0  0  0  0  0  0  0  0
    1.1361   -0.7340   -0.8173 H   0  0  0  0  0  0  0  0  0  0  0  0
   -0.5342   -1.6174   -1.8364 C   0  0  0  0  0  0  0  0  0  0  0  0
   -1.3152   -1.1920   -2.4659 H   0  0  0  0  0  0  0  0  0  0  0  0
    0.2426   -2.0368   -2.4767 H   0  0  0  0  0  0  0  0  0  0  0  0
   -1.2639   -2.9620   -0.8673 S   0  0  0  0  0  0  0  0  0  0  0  0
    0.2402   -3.6944   -0.1723 C   0  0  0  0  0  0  0  0  0  0  0  0
    0.7649   -2.9534    0.4315 H   0  0  0  0  0  0  0  0  0  0  0  0
   -0.0285   -4.5442    0.4558 H   0  0  0  0  0  0  0  0  0  0  0  0
    0.8897   -4.0358   -0.9788 H   0  0  0  0  0  0  0  0  0  0  0  0
   -0.8064    1.1568    0.7414 C   0  0  0  0  0  0  0  0  0  0  0  0
   -1.6978    1.8100    0.2029 O   0  0  0  0  0  0  0  0  0  0  0  0
    0.0314    1.6872    1.6415 N   0  0  0  0  0  0  0  0  0  0  0  0
    0.7279    1.0858    2.0517 H   0  0  0  0  0  0  0  0  0  0  0  0
   -0.0137    3.0826    2.0755 C   0  0  0  0  0  0  0  0  0  0  0  0
   -0.9991    3.3070    2.4905 H   0  0  0  0  0  0  0  0  0  0  0  0
    0.7468    3.2694    2.8349 H   0  0  0  0  0  0  0  0  0  0  0  0
    0.1592    3.7397    1.2213 H   0  0  0  0  0  0  0  0  0  0  0  0
  5  6  2  0  0  0  0
  5  7  1  0  0  0  0
  2  3  1  0  0  0  0
  2  4  1  0  0  0  0
  2  5  1  0  0  0  0
  1  2  1  0  0  0  0
 22 23  2  0  0  0  0
 22 24  1  0  0  0  0
 18 19  1  0  0  0  0
 18 20  1  0  0  0  0
 18 21  1  0  0  0  0
 17 18  1  0  0  0  0
 14 15  1  0  0  0  0
 14 16  1  0  0  0  0
 14 17  1  0  0  0  0
 11 12  1  0  0  0  0
 11 13  1  0  0  0  0
 11 14  1  0  0  0  0
  9 10  1  0  0  0  0
  9 11  1  0  0  0  0
  9 22  1  0  0  0  0
  7  8  1  0  0  0  0
  7  9  1  0  0  0  0
 26 27  1  0  0  0  0
 26 28  1  0  0  0  0
 26 29  1  0  0  0  0
 24 25  1  0  0  0  0
 24 26  1  0  0  0  0
M  END
$$$$
default_name
  -OEChem-02102213163D

 29 28  0     1  0  0  0  0  0999 V2000
   -3.5781   -3.7296    1.2702 H   0  0  0  0  0  0  0  0  0  0  0  0
   -3.5311   -2.7616    0.7732 C   0  0  0  0  0  0  0  0  0  0  0  0
   -4.2371   -2.0766    1.2382 H   0  0  0  0  0  0  0  0  0  0  0  0
   -3.7681   -2.8816   -0.2818 H   0  0  0  0  0  0  0  0  0  0  0  0
   -2.1321   -2.2086    0.9112 C   0  0  0  0  0  0  0  0  0  0  0  0
   -1.2751   -2.8426    1.5112 O   0  0  0  0  0  0  0  0  0  0  0  0
   -1.9041   -1.0186    0.3602 N   0  0  0  0  0  0  0  0  0  0  0  0
   -2.6671   -0.5416   -0.0988 H   0  0  0  0  0  0  0  0  0  0  0  0
   -0.6131   -0.3236    0.3832 C   0  0  1  0  0  0  0  0  0  0  0  0
    0.0142   -0.7800    1.1506 H   0  0  0  0  0  0  0  0  0  0  0  0
    0.0816   -0.5059   -0.9788 C   0  0  0  0  0  0  0  0  0  0  0  0
    0.0166    0.4321   -1.5344 H   0  0  0  0  0  0  0  0  0  0  0  0
    1.1361   -0.7340   -0.8173 H   0  0  0  0  0  0  0  0  0  0  0  0
   -0.5342   -1.6174   -1.8364 C   0  0  0  0  0  0  0  0  0  0  0  0
   -1.1137   -1.1677   -2.6421 H   0  0  0  0  0  0  0  0  0  0  0  0
    0.2708   -2.2102   -2.2722 H   0  0  0  0  0  0  0  0  0  0  0  0
   -1.6255   -2.7277   -0.9113 S   0  0  0  0  0  0  0  0  0  0  0  0
   -0.4028   -3.5693    0.1272 C   0  0  0  0  0  0  0  0  0  0  0  0
    0.1129   -2.8399    0.7526 H   0  0  0  0  0  0  0  0  0  0  0  0
   -0.9084   -4.2951    0.7648 H   0  0  0  0  0  0  0  0  0  0  0  0
    0.3204   -4.0877   -0.5028 H   0  0  0  0  0  0  0  0  0  0  0  0
   -0.8064    1.1568    0.7414 C   0  0  0  0  0  0  0  0  0  0  0  0
   -1.6978    1.8100    0.2029 O   0  0  0  0  0  0  0  0  0  0  0  0
    0.0314    1.6872    1.6415 N   0  0  0  0  0  0  0  0  0  0  0  0
    0.7279    1.0858    2.0517 H   0  0  0  0  0  0  0  0  0  0  0  0
   -0.0137    3.0826    2.0755 C   0  0  0  0  0  0  0  0  0  0  0  0
   -0.9991    3.3070    2.4905 H   0  0  0  0  0  0  0  0  0  0  0  0
    0.7468    3.2694    2.8349 H   0  0  0  0  0  0  0  0  0  0  0  0
    0.1592    3.7397    1.2213 H   0  0  0  0  0  0  0  0  0  0  0  0
  5  6  2  0  0  0  0
  5  7  1  0  0  0  0
  2  3  1  0  0  0  0
  2  4  1  0  0  0  0
  2  5  1  0  0  0  0
  1  2  1  0  0  0  0
 22 23  2  0  0  0  0
 22 24  1  0  0  0  0
 18 19  1  0  0  0  0
 18 20  1  0  0  0  0
 18 21  1  0  0  0  0
 17 18  1  0  0  0  0
 14 15  1  0  0  0  0
 14 16  1  0  0  0  0
 14 17  1  0  0  0  0
 11 12  1  0  0  0  0
 11 13  1  0  0  0  0
 11 14  1  0  0  0  0
  9 10  1  0  0  0  0
  9 11  1  0  0  0  0
  9 22  1  0  0  0  0
  7  8  1  0  0  0  0
  7  9  1  0  0  0  0
 26 27  1  0  0  0  0
 26 28  1  0  0  0  0
 26 29  1  0  0  0  0
 24 25  1  0  0  0  0
 24 26  1  0  0  0  0
M  END
$$$$
default_name
  -OEChem-02102213163D

 29 28  0     1  0  0  0  0  0999 V2000
   -3.5781   -3.7296    1.2702 H   0  0  0  0  0  0  0  0  0  0  0  0
   -3.5311   -2.7616    0.7732 C   0  0  0  0  0  0  0  0  0  0  0  0
   -4.2371   -2.0766    1.2382 H   0  0  0  0  0  0  0  0  0  0  0  0
   -3.7681   -2.8816   -0.2818 H   0  0  0  0  0  0  0  0  0  0  0  0
   -2.1321   -2.2086    0.9112 C   0  0  0  0  0  0  0  0  0  0  0  0
   -1.2751   -2.8426    1.5112 O   0  0  0  0  0  0  0  0  0  0  0  0
   -1.9041   -1.0186    0.3602 N   0  0  0  0  0  0  0  0  0  0  0  0
   -2.6671   -0.5416   -0.0988 H   0  0  0  0  0  0  0  0  0  0  0  0
   -0.6131   -0.3236    0.3832 C   0  0  1  0  0  0  0  0  0  0  0  0
    0.0142   -0.7800    1.1506 H   0  0  0  0  0  0  0  0  0  0  0  0
    0.0816   -0.5059   -0.9788 C   0  0  0  0  0  0  0  0  0  0  0  0
    0.0166    0.4321   -1.5344 H   0  0  0  0  0  0  0  0  0  0  0  0
    1.1361   -0.7340   -0.8173 H   0  0  0  0  0  0  0  0  0  0  0  0
   -0.5342   -1.6174   -1.8364 C   0  0  0  0  0  0  0  0  0  0  0  0
   -0.8826   -1.1917   -2.7769 H   0  0  0  0  0  0  0  0  0  0  0  0
    0.2345   -2.3606   -2.0513 H   0  0  0  0  0  0  0  0  0  0  0  0
   -1.9327   -2.4536   -1.0460 S   0  0  0  0  0  0  0  0  0  0  0  0
   -1.0620   -3.3242    0.2829 C   0  0  0  0  0  0  0  0  0  0  0  0
   -0.5608   -2.6024    0.9285 H   0  0  0  0  0  0  0  0  0  0  0  0
   -1.7802   -3.8949    0.8722 H   0  0  0  0  0  0  0  0  0  0  0  0
   -0.3262   -4.0060   -0.1444 H   0  0  0  0  0  0  0  0  0  0  0  0
   -0.8064    1.1568    0.7414 C   0  0  0  0  0  0  0  0  0  0  0  0
   -1.6978    1.8100    0.2029 O   0  0  0  0  0  0  0  0  0  0  0  0
    0.0314    1.6872    1.6415 N   0  0  0  0  0  0  0  0  0  0  0  0
    0.7279    1.0858    2.0517 H   0  0  0  0  0  0  0  0  0  0  0  0
   -0.0137    3.0826    2.0755 C   0  0  0  0  0  0  0  0  0  0  0  0
   -0.9991    3.3070    2.4905 H   0  0  0  0  0  0  0  0  0  0  0  0
    0.7468    3.2694    2.8349 H   0  0  0  0  0  0  0  0  0  0  0  0
    0.1592    3.7397    1.2213 H   0  0  0  0  0  0  0  0  0  0  0  0
  5  6  2  0  0  0  0
  5  7  1  0  0  0  0
  2  3  1  0  0  0  0
  2  4  1  0  0  0  0
  2  5  1  0  0  0  0
  1  2  1  0  0  0  0
 22 23  2  0  0  0  0
 22 24  1  0  0  0  0
 18 19  1  0  0  0  0
 18 20  1  0  0  0  0
 18 21  1  0  0  0  0
 17 18  1  0  0  0  0
 14 15  1  0  0  0  0
 14 16  1  0  0  0  0
 14 17  1  0  0  0  0
 11 12  1  0  0  0  0
 11 13  1  0  0  0  0
 11 14  1  0  0  0  0
  9 10  1  0  0  0  0
  9 11  1  0  0  0  0
  9 22  1  0  0  0  0
  7  8  1  0  0  0  0
  7  9  1  0  0  0  0
 26 27  1  0  0  0  0
 26 28  1  0  0  0  0
 26 29  1  0  0  0  0
 24 25  1  0  0  0  0
 24 26  1  0  0  0  0
M  END
$$$$
default_name
  -OEChem-02102213163D

 29 28  0     1  0  0  0  0  0999 V2000
   -3.5781   -3.7296    1.2702 H   0  0  0  0  0  0  0  0  0  0  0  0
   -3.5311   -2.7616    0.7732 C   0  0  0  0  0  0  0  0  0  0  0  0
   -4.2371   -2.0766    1.2382 H   0  0  0  0  0  0  0  0  0  0  0  0
   -3.7681   -2.8816   -0.2818 H   0  0  0  0  0  0  0  0  0  0  0  0
   -2.1321   -2.2086    0.9112 C   0  0  0  0  0  0  0  0  0  0  0  0
   -1.2751   -2.8426    1.5112 O   0  0  0  0  0  0  0  0  0  0  0  0
   -1.9041   -1.0186    0.3602 N   0  0  0  0  0  0  0  0  0  0  0  0
   -2.6671   -0.5416   -0.0988 H   0  0  0  0  0  0  0  0  0  0  0  0
   -0.6131   -0.3236    0.3832 C   0  0  1  0  0  0  0  0  0  0  0  0
    0.0142   -0.7800    1.1506 H   0  0  0  0  0  0  0  0  0  0  0  0
    0.0816   -0.5059   -0.9788 C   0  0  0  0  0  0  0  0  0  0  0  0
    0.0166    0.4321   -1.5344 H   0  0  0  0  0  0  0  0  0  0  0  0
    1.1361   -0.7340   -0.8173 H   0  0  0  0  0  0  0  0  0  0  0  0
   -0.5342   -1.6174   -1.8364 C   0  0  0  0  0  0  0  0  0  0  0  0
   -0.6375   -1.2624   -2.8613 H   0  0  0  0  0  0  0  0  0  0  0  0
    0.1362   -2.4775   -1.8292 H   0  0  0  0  0  0  0  0  0  0  0  0
   -2.1643   -2.1584   -1.2623 S   0  0  0  0  0  0  0  0  0  0  0  0
   -1.6925   -2.9758    0.2840 C   0  0  0  0  0  0  0  0  0  0  0  0
   -1.2101   -2.2573    0.9474 H   0  0  0  0  0  0  0  0  0  0  0  0
   -2.5845   -3.3711    0.7707 H   0  0  0  0  0  0  0  0  0  0  0  0
   -1.0063   -3.7961    0.0719 H   0  0  0  0  0  0  0  0  0  0  0  0
   -0.8064    1.1568    0.7414 C   0  0  0  0  0  0  0  0  0  0  0  0
   -1.6978    1.8100    0.2029 O   0  0  0  0  0  0  0  0  0  0  0  0
    0.0314    1.6872    1.6415 N   0  0  0  0  0  0  0  0  0  0  0  0
    0.7279    1.0858    2.0517 H   0  0  0  0  0  0  0  0  0  0  0  0
   -0.0137    3.0826    2.0755 C   0  0  0  0  0  0  0  0  0  0  0  0
   -0.9991    3.3070    2.4905 H   0  0  0  0  0  0  0  0  0  0  0  0
    0.7468    3.2694    2.8349 H   0  0  0  0  0  0  0  0  0  0  0  0
    0.1592    3.7397    1.2213 H   0  0  0  0  0  0  0  0  0  0  0  0
  5  6  2  0  0  0  0
  5  7  1  0  0  0  0
  2  3  1  0  0  0  0
  2  4  1  0  0  0  0
  2  5  1  0  0  0  0
  1  2  1  0  0  0  0
 22 23  2  0  0  0  0
 22 24  1  0  0  0  0
 18 19  1  0  0  0  0
 18 20  1  0  0  0  0
 18 21  1  0  0  0  0
 17 18  1  0  0  0  0
 14 15  1  0  0  0  0
 14 16  1  0  0  0  0
 14 17  1  0  0  0  0
 11 12  1  0  0  0  0
 11 13  1  0  0  0  0
 11 14  1  0  0  0  0
  9 10  1  0  0  0  0
  9 11  1  0  0  0  0
  9 22  1  0  0  0  0
  7  8  1  0  0  0  0
  7  9  1  0  0  0  0
 26 27  1  0  0  0  0
 26 28  1  0  0  0  0
 26 29  1  0  0  0  0
 24 25  1  0  0  0  0
 24 26  1  0  0  0  0
M  END
$$$$
default_name
  -OEChem-02102213163D

 29 28  0     1  0  0  0  0  0999 V2000
   -3.5781   -3.7296    1.2702 H   0  0  0  0  0  0  0  0  0  0  0  0
   -3.5311   -2.7616    0.7732 C   0  0  0  0  0  0  0  0  0  0  0  0
   -4.2371   -2.0766    1.2382 H   0  0  0  0  0  0  0  0  0  0  0  0
   -3.7681   -2.8816   -0.2818 H   0  0  0  0  0  0  0  0  0  0  0  0
   -2.1321   -2.2086    0.9112 C   0  0  0  0  0  0  0  0  0  0  0  0
   -1.2751   -2.8426    1.5112 O   0  0  0  0  0  0  0  0  0  0  0  0
   -1.9041   -1.0186    0.3602 N   0  0  0  0  0  0  0  0  0  0  0  0
   -2.6671   -0.5416   -0.0988 H   0  0  0  0  0  0  0  0  0  0  0  0
   -0.6131   -0.3236    0.3832 C   0  0  1  0  0  0  0  0  0  0  0  0
    0.0142   -0.7800    1.1506 H   0  0  0  0  0  0  0  0  0  0  0  0
    0.0816   -0.5059   -0.9788 C   0  0  0  0  0  0  0  0  0  0  0  0
    0.0166    0.4321   -1.5344 H   0  0  0  0  0  0  0  0  0  0  0  0
    1.1361   -0.7340   -0.8173 H   0  0  0  0  0  0  0  0  0  0  0  0
   -0.5342   -1.6174   -1.8364 C   0  0  0  0  0  0  0  0  0  0  0  0
   -0.3951   -1.3749   -2.8895 H   0  0  0  0  0  0  0  0  0  0  0  0
   -0.0173   -2.5532   -1.6208 H   0  0  0  0  0  0  0  0  0  0  0  0
   -2.3048   -1.8622   -1.5453 S   0  0  0  0  0  0  0  0  0  0  0  0
   -2.2512   -2.5479    0.1306 C   0  0  0  0  0  0  0  0  0  0  0  0
   -1.7909   -1.8279    0.8079 H   0  0  0  0  0  0  0  0  0  0  0  0
   -3.2665   -2.7591    0.4673 H   0  0  0  0  0  0  0  0  0  0  0  0
   -1.6734   -3.4725    0.1314 H   0  0  0  0  0  0  0  0  0  0  0  0
   -0.8064    1.1568    0.7414 C   0  0  0  0  0  0  0  0  0  0  0  0
   -1.6978    1.8100    0.2029 O   0  0  0  0  0  0  0  0  0  0  0  0
    0.0314    1.6872    1.6415 N   0  0  0  0  0  0  0  0  0  0  0  0
    0.7279    1.0858    2.0517 H   0  0  0  0  0  0  0  0  0  0  0  0
   -0.0137    3.0826    2.0755 C   0  0  0  0  0  0  0  0  0  0  0  0
   -0.9991    3.3070    2.4905 H   0  0  0  0  0  0  0  0  0  0  0  0
    0.7468    3.2694    2.8349 H   0  0  0  0  0  0  0  0  0  0  0  0
    0.1592    3.7397    1.2213 H   0  0  0  0  0  0  0  0  0  0  0  0
  5  6  2  0  0  0  0
  5  7  1  0  0  0  0
  2  3  1  0  0  0  0
  2  4  1  0  0  0  0
  2  5  1  0  0  0  0
  1  2  1  0  0  0  0
 22 23  2  0  0  0  0
 22 24  1  0  0  0  0
 18 19  1  0  0  0  0
 18 20  1  0  0  0  0
 18 21  1  0  0  0  0
 17 18  1  0  0  0  0
 14 15  1  0  0  0  0
 14 16  1  0  0  0  0
 14 17  1  0  0  0  0
 11 12  1  0  0  0  0
 11 13  1  0  0  0  0
 11 14  1  0  0  0  0
  9 10  1  0  0  0  0
  9 11  1  0  0  0  0
  9 22  1  0  0  0  0
  7  8  1  0  0  0  0
  7  9  1  0  0  0  0
 26 27  1  0  0  0  0
 26 28  1  0  0  0  0
 26 29  1  0  0  0  0
 24 25  1  0  0  0  0
 24 26  1  0  0  0  0
M  END
$$$$
default_name
  -OEChem-02102213163D

 29 28  0     1  0  0  0  0  0999 V2000
   -3.5781   -3.7296    1.2702 H   0  0  0  0  0  0  0  0  0  0  0  0
   -3.5311   -2.7616    0.7732 C   0  0  0  0  0  0  0  0  0  0  0  0
   -4.2371   -2.0766    1.2382 H   0  0  0  0  0  0  0  0  0  0  0  0
   -3.7681   -2.8816   -0.2818 H   0  0  0  0  0  0  0  0  0  0  0  0
   -2.1321   -2.2086    0.9112 C   0  0  0  0  0  0  0  0  0  0  0  0
   -1.2751   -2.8426    1.5112 O   0  0  0  0  0  0  0  0  0  0  0  0
   -1.9041   -1.0186    0.3602 N   0  0  0  0  0  0  0  0  0  0  0  0
   -2.6671   -0.5416   -0.0988 H   0  0  0  0  0  0  0  0  0  0  0  0
   -0.6131   -0.3236    0.3832 C   0  0  1  0  0  0  0  0  0  0  0  0
    0.0142   -0.7800    1.1506 H   0  0  0  0  0  0  0  0  0  0  0  0
    0.0816   -0.5059   -0.9788 C   0  0  0  0  0  0  0  0  0  0  0  0
    0.0166    0.4321   -1.5344 H   0  0  0  0  0  0  0  0  0  0  0  0
    1.1361   -0.7340   -0.8173 H   0  0  0  0  0  0  0  0  0  0  0  0
   -0.5342   -1.6174   -1.8364 C   0  0  0  0  0  0  0  0  0  0  0  0
   -0.1720   -1.5216   -2.8596 H   0  0  0  0  0  0  0  0  0  0  0  0
   -0.2157   -2.5824   -1.4406 H   0  0  0  0  0  0  0  0  0  0  0  0
   -2.3445   -1.5851   -1.8759 S   0  0  0  0  0  0  0  0  0  0  0  0
   -2.7002   -2.0696   -0.1669 C   0  0  0  0  0  0  0  0  0  0  0  0
   -2.2635   -1.3435    0.5195 H   0  0  0  0  0  0  0  0  0  0  0  0
   -3.7798   -2.1008   -0.0174 H   0  0  0  0  0  0  0  0  0  0  0  0
   -2.2820   -3.0571    0.0301 H   0  0  0  0  0  0  0  0  0  0  0  0
   -0.8064    1.1568    0.7414 C   0  0  0  0  0  0  0  0  0  0  0  0
   -1.6978    1.8100    0.2029 O   0  0  0  0  0  0  0  0  0  0  0  0
    0.0314    1.6872    1.6415 N   0  0  0  0  0  0  0  0  0  0  0  0
    0.7279    1.0858    2.0517 H   0  0  0  0  0  0  0  0  0  0  0  0
   -0.0137    3.0826    2.0755 C   0  0  0  0  0  0  0  0  0  0  0  0
   -0.9991    3.3070    2.4905 H   0  0  0  0  0  0  0  0  0  0  0  0
    0.7468    3.2694    2.8349 H   0  0  0  0  0  0  0  0  0  0  0  0
    0.1592    3.7397    1.2213 H   0  0  0  0  0  0  0  0  0  0  0  0
  5  6  2  0  0  0  0
  5  7  1  0  0  0  0
  2  3  1  0  0  0  0
  2  4  1  0  0  0  0
  2  5  1  0  0  0  0
  1  2  1  0  0  0  0
 22 23  2  0  0  0  0
 22 24  1  0  0  0  0
 18 19  1  0  0  0  0
 18 20  1  0  0  0  0
 18 21  1  0  0  0  0
 17 18  1  0  0  0  0
 14 15  1  0  0  0  0
 14 16  1  0  0  0  0
 14 17  1  0  0  0  0
 11 12  1  0  0  0  0
 11 13  1  0  0  0  0
 11 14  1  0  0  0  0
  9 10  1  0  0  0  0
  9 11  1  0  0  0  0
  9 22  1  0  0  0  0
  7  8  1  0  0  0  0
  7  9  1  0  0  0  0
 26 27  1  0  0  0  0
 26 28  1  0  0  0  0
 26 29  1  0  0  0  0
 24 25  1  0  0  0  0
 24 26  1  0  0  0  0
M  END
$$$$
default_name
  -OEChem-02102213163D

 29 28  0     1  0  0  0  0  0999 V2000
   -3.5781   -3.7296    1.2702 H   0  0  0  0  0  0  0  0  0  0  0  0
   -3.5311   -2.7616    0.7732 C   0  0  0  0  0  0  0  0  0  0  0  0
   -4.2371   -2.0766    1.2382 H   0  0  0  0  0  0  0  0  0  0  0  0
   -3.7681   -2.8816   -0.2818 H   0  0  0  0  0  0  0  0  0  0  0  0
   -2.1321   -2.2086    0.9112 C   0  0  0  0  0  0  0  0  0  0  0  0
   -1.2751   -2.8426    1.5112 O   0  0  0  0  0  0  0  0  0  0  0  0
   -1.9041   -1.0186    0.3602 N   0  0  0  0  0  0  0  0  0  0  0  0
   -2.6671   -0.5416   -0.0988 H   0  0  0  0  0  0  0  0  0  0  0  0
   -0.6131   -0.3236    0.3832 C   0  0  1  0  0  0  0  0  0  0  0  0
    0.0142   -0.7800    1.1506 H   0  0  0  0  0  0  0  0  0  0  0  0
    0.0816   -0.5059   -0.9788 C   0  0  0  0  0  0  0  0  0  0  0  0
    0.0166    0.4321   -1.5344 H   0  0  0  0  0  0  0  0  0  0  0  0
    1.1361   -0.7340   -0.8173 H   0  0  0  0  0  0  0  0  0  0  0  0
   -0.5342   -1.6174   -1.8364 C   0  0  0  0  0  0  0  0  0  0  0  0
    0.0166   -1.6925   -2.7735 H   0  0  0  0  0  0  0  0  0  0  0  0
   -0.4453   -2.5631   -1.3006 H   0  0  0  0  0  0  0  0  0  0  0  0
   -2.2807   -1.3462   -2.2314 S   0  0  0  0  0  0  0  0  0  0  0  0
   -3.0088   -1.5735   -0.5883 C   0  0  0  0  0  0  0  0  0  0  0  0
   -2.5958   -0.8372    0.1019 H   0  0  0  0  0  0  0  0  0  0  0  0
   -4.0893   -1.4411   -0.6503 H   0  0  0  0  0  0  0  0  0  0  0  0
   -2.7908   -2.5783   -0.2252 H   0  0  0  0  0  0  0  0  0  0  0  0
   -0.8064    1.1568    0.7414 C   0  0  0  0  0  0  0  0  0  0  0  0
   -1.6978    1.8100    0.2029 O   0  0  0  0  0  0  0  0  0  0  0  0
    0.0314    1.6872    1.6415 N   0  0  0  0  0  0  0  0  0  0  0  0
    0.7279    1.0858    2.0517 H   0  0  0  0  0  0  0  0  0  0  0  0
   -0.0137    3.0826    2.0755 C   0  0  0  0  0  0  0  0  0  0  0  0
   -0.9991    3.3070    2.4905 H   0  0  0  0  0  0  0  0  0  0  0  0
    0.7468    3.2694    2.8349 H   0  0  0  0  0  0  0  0  0  0  0  0
    0.1592    3.7397    1.2213 H   0  0  0  0  0  0  0  0  0  0  0  0
  5  6  2  0  0  0  0
  5  7  1  0  0  0  0
  2  3  1  0  0  0  0
  2  4  1  0  0  0  0
  2  5  1  0  0  0  0
  1  2  1  0  0  0  0
 22 23  2  0  0  0  0
 22 24  1  0  0  0  0
 18 19  1  0  0  0  0
 18 20  1  0  0  0  0
 18 21  1  0  0  0  0
 17 18  1  0  0  0  0
 14 15  1  0  0  0  0
 14 16  1  0  0  0  0
 14 17  1  0  0  0  0
 11 12  1  0  0  0  0
 11 13  1  0  0  0  0
 11 14  1  0  0  0  0
  9 10  1  0  0  0  0
  9 11  1  0  0  0  0
  9 22  1  0  0  0  0
  7  8  1  0  0  0  0
  7  9  1  0  0  0  0
 26 27  1  0  0  0  0
 26 28  1  0  0  0  0
 26 29  1  0  0  0  0
 24 25  1  0  0  0  0
 24 26  1  0  0  0  0
M  END
$$$$
default_name
  -OEChem-02102213163D

 29 28  0     1  0  0  0  0  0999 V2000
   -3.5781   -3.7296    1.2702 H   0  0  0  0  0  0  0  0  0  0  0  0
   -3.5311   -2.7616    0.7732 C   0  0  0  0  0  0  0  0  0  0  0  0
   -4.2371   -2.0766    1.2382 H   0  0  0  0  0  0  0  0  0  0  0  0
   -3.7681   -2.8816   -0.2818 H   0  0  0  0  0  0  0  0  0  0  0  0
   -2.1321   -2.2086    0.9112 C   0  0  0  0  0  0  0  0  0  0  0  0
   -1.2751   -2.8426    1.5112 O   0  0  0  0  0  0  0  0  0  0  0  0
   -1.9041   -1.0186    0.3602 N   0  0  0  0  0  0  0  0  0  0  0  0
   -2.6671   -0.5416   -0.0988 H   0  0  0  0  0  0  0  0  0  0  0  0
   -0.6131   -0.3236    0.3832 C   0  0  1  0  0  0  0  0  0  0  0  0
    0.0142   -0.7800    1.1506 H   0  0  0  0  0  0  0  0  0  0  0  0
    0.0816   -0.5059   -0.9788 C   0  0  0  0  0  0  0  0  0  0  0  0
    0.0166    0.4321   -1.5344 H   0  0  0  0  0  0  0  0  0  0  0  0
    1.1361   -0.7340   -0.8173 H   0  0  0  0  0  0  0  0  0  0  0  0
   -0.5342   -1.6174   -1.8364 C   0  0  0  0  0  0  0  0  0  0  0  0
    0.1579   -1.8760   -2.6372 H   0  0  0  0  0  0  0  0  0  0  0  0
   -0.6906   -2.4967   -1.2106 H   0  0  0  0  0  0  0  0  0  0  0  0
   -2.1177   -1.1615   -2.5878 S   0  0  0  0  0  0  0  0  0  0  0  0
   -3.1559   -1.0935   -1.1048 C   0  0  0  0  0  0  0  0  0  0  0  0
   -2.7651   -0.3435   -0.4165 H   0  0  0  0  0  0  0  0  0  0  0  0
   -4.1739   -0.8248   -1.3883 H   0  0  0  0  0  0  0  0  0  0  0  0
   -3.1650   -2.0686   -0.6170 H   0  0  0  0  0  0  0  0  0  0  0  0
   -0.8064    1.1568    0.7414 C   0  0  0  0  0  0  0  0  0  0  0  0
   -1.6978    1.8100    0.2029 O   0  0  0  0  0  0  0  0  0  0  0  0
    0.0314    1.6872    1.6415 N   0  0  0  0  0  0  0  0  0  0  0  0
    0.7279    1.0858    2.0517 H   0  0  0  0  0  0  0  0  0  0  0  0
   -0.0137    3.0826    2.0755 C   0  0  0  0  0  0  0  0  0  0  0  0
   -0.9991    3.3070    2.4905 H   0  0  0  0  0  0  0  0  0  0  0  0
    0.7468    3.2694    2.8349 H   0  0  0  0  0  0  0  0  0  0  0  0
    0.1592    3.7397    1.2213 H   0  0  0  0  0  0  0  0  0  0  0  0
  5  6  2  0  0  0  0
  5  7  1  0  0  0  0
  2  3  1  0  0  0  0
  2  4  1  0  0  0  0
  2  5  1  0  0  0  0
  1  2  1  0  0  0  0
 22 23  2  0  0  0  0
 22 24  1  0  0  0  0
 18 19  1  0  0  0  0
 18 20  1  0  0  0  0
 18 21  1  0  0  0  0
 17 18  1  0  0  0  0
 14 15  1  0  0  0  0
 14 16  1  0  0  0  0
 14 17  1  0  0  0  0
 11 12  1  0  0  0  0
 11 13  1  0  0  0  0
 11 14  1  0  0  0  0
  9 10  1  0  0  0  0
  9 11  1  0  0  0  0
  9 22  1  0  0  0  0
  7  8  1  0  0  0  0
  7  9  1  0  0  0  0
 26 27  1  0  0  0  0
 26 28  1  0  0  0  0
 26 29  1  0  0  0  0
 24 25  1  0  0  0  0
 24 26  1  0  0  0  0
M  END
$$$$
default_name
  -OEChem-02102213163D

 29 28  0     1  0  0  0  0  0999 V2000
   -3.5781   -3.7296    1.2702 H   0  0  0  0  0  0  0  0  0  0  0  0
   -3.5311   -2.7616    0.7732 C   0  0  0  0  0  0  0  0  0  0  0  0
   -4.2371   -2.0766    1.2382 H   0  0  0  0  0  0  0  0  0  0  0  0
   -3.7681   -2.8816   -0.2818 H   0  0  0  0  0  0  0  0  0  0  0  0
   -2.1321   -2.2086    0.9112 C   0  0  0  0  0  0  0  0  0  0  0  0
   -1.2751   -2.8426    1.5112 O   0  0  0  0  0  0  0  0  0  0  0  0
   -1.9041   -1.0186    0.3602 N   0  0  0  0  0  0  0  0  0  0  0  0
   -2.6671   -0.5416   -0.0988 H   0  0  0  0  0  0  0  0  0  0  0  0
   -0.6131   -0.3236    0.3832 C   0  0  1  0  0  0  0  0  0  0  0  0
    0.0142   -0.7800    1.1506 H   0  0  0  0  0  0  0  0  0  0  0  0
    0.0816   -0.5059   -0.9788 C   0  0  0  0  0  0  0  0  0  0  0  0
    0.0166    0.4321   -1.5344 H   0  0  0  0  0  0  0  0  0  0  0  0
    1.1361   -0.7340   -0.8173 H   0  0  0  0  0  0  0  0  0  0  0  0
   -0.5342   -1.6174   -1.8364 C   0  0  0  0  0  0  0  0  0  0  0  0
    0.2423   -2.0594   -2.4600 H   0  0  0  0  0  0  0  0  0  0  0  0
   -0.9348   -2.3877   -1.1765 H   0  0  0  0  0  0  0  0  0  0  0  0
   -1.8667   -1.0439   -2.9205 S   0  0  0  0  0  0  0  0  0  0  0  0
   -3.1317   -0.6622   -1.6812 C   0  0  0  0  0  0  0  0  0  0  0  0
   -2.7599    0.1040   -1.0003 H   0  0  0  0  0  0  0  0  0  0  0  0
   -4.0279   -0.2939   -2.1811 H   0  0  0  0  0  0  0  0  0  0  0  0
   -3.3791   -1.5629   -1.1187 H   0  0  0  0  0  0  0  0  0  0  0  0
   -0.8064    1.1568    0.7414 C   0  0  0  0  0  0  0  0  0  0  0  0
   -1.6978    1.8100    0.2029 O   0  0  0  0  0  0  0  0  0  0  0  0
    0.0314    1.6872    1.6415 N   0  0  0  0  0  0  0  0  0  0  0  0
    0.7279    1.0858    2.0517 H   0  0  0  0  0  0  0  0  0  0  0  0
   -0.0137    3.0826    2.0755 C   0  0  0  0  0  0  0  0  0  0  0  0
   -0.9991    3.3070    2.4905 H   0  0  0  0  0  0  0  0  0  0  0  0
    0.7468    3.2694    2.8349 H   0  0  0  0  0  0  0  0  0  0  0  0
    0.1592    3.7397    1.2213 H   0  0  0  0  0  0  0  0  0  0  0  0
  5  6  2  0  0  0  0
  5  7  1  0  0  0  0
  2  3  1  0  0  0  0
  2  4  1  0  0  0  0
  2  5  1  0  0  0  0
  1  2  1  0  0  0  0
 22 23  2  0  0  0  0
 22 24  1  0  0  0  0
 18 19  1  0  0  0  0
 18 20  1  0  0  0  0
 18 21  1  0  0  0  0
 17 18  1  0  0  0  0
 14 15  1  0  0  0  0
 14 16  1  0  0  0  0
 14 17  1  0  0  0  0
 11 12  1  0  0  0  0
 11 13  1  0  0  0  0
 11 14  1  0  0  0  0
  9 10  1  0  0  0  0
  9 11  1  0  0  0  0
  9 22  1  0  0  0  0
  7  8  1  0  0  0  0
  7  9  1  0  0  0  0
 26 27  1  0  0  0  0
 26 28  1  0  0  0  0
 26 29  1  0  0  0  0
 24 25  1  0  0  0  0
 24 26  1  0  0  0  0
M  END
$$$$
default_name
  -OEChem-02102213163D

 29 28  0     1  0  0  0  0  0999 V2000
   -3.5781   -3.7296    1.2702 H   0  0  0  0  0  0  0  0  0  0  0  0
   -3.5311   -2.7616    0.7732 C   0  0  0  0  0  0  0  0  0  0  0  0
   -4.2371   -2.0766    1.2382 H   0  0  0  0  0  0  0  0  0  0  0  0
   -3.7681   -2.8816   -0.2818 H   0  0  0  0  0  0  0  0  0  0  0  0
   -2.1321   -2.2086    0.9112 C   0  0  0  0  0  0  0  0  0  0  0  0
   -1.2751   -2.8426    1.5112 O   0  0  0  0  0  0  0  0  0  0  0  0
   -1.9041   -1.0186    0.3602 N   0  0  0  0  0  0  0  0  0  0  0  0
   -2.6671   -0.5416   -0.0988 H   0  0  0  0  0  0  0  0  0  0  0  0
   -0.6131   -0.3236    0.3832 C   0  0  1  0  0  0  0  0  0  0  0  0
    0.0142   -0.7800    1.1506 H   0  0  0  0  0  0  0  0  0  0  0  0
    0.0816   -0.5059   -0.9788 C   0  0  0  0  0  0  0  0  0  0  0  0
    0.0166    0.4321   -1.5344 H   0  0  0  0  0  0  0  0  0  0  0  0
    1.1361   -0.7340   -0.8173 H   0  0  0  0  0  0  0  0  0  0  0  0
   -0.5342   -1.6174   -1.8364 C   0  0  0  0  0  0  0  0  0  0  0  0
    0.2639   -2.2305   -2.2539 H   0  0  0  0  0  0  0  0  0  0  0  0
   -1.1614   -2.2435   -1.2007 H   0  0  0  0  0  0  0  0  0  0  0  0
   -1.5447   -1.0011   -3.2071 S   0  0  0  0  0  0  0  0  0  0  0  0
   -2.9376   -0.3091   -2.2783 C   0  0  0  0  0  0  0  0  0  0  0  0
   -2.5805    0.4749   -1.6097 H   0  0  0  0  0  0  0  0  0  0  0  0
   -3.6613    0.1152   -2.9747 H   0  0  0  0  0  0  0  0  0  0  0  0
   -3.4186   -1.0956   -1.6961 H   0  0  0  0  0  0  0  0  0  0  0  0
   -0.8064    1.1568    0.7414 C   0  0  0  0  0  0  0  0  0  0  0  0
   -1.6978    1.8100    0.2029 O   0  0  0  0  0  0  0  0  0  0  0  0
    0.0314    1.6872    1.6415 N   0  0  0  0  0  0  0  0  0  0  0  0
    0.7279    1.0858    2.0517 H   0  0  0  0  0  0  0  0  0  0  0  0
   -0.0137    3.0826    2.0755 C   0  0  0  0  0  0  0  0  0  0  0  0
   -0.9991    3.3070    2.4905 H   0  0  0  0  0  0  0  0  0  0  0  0
    0.7468    3.2694    2.8349 H   0  0  0  0  0  0  0  0  0  0  0  0
    0.1592    3.7397    1.2213 H   0  0  0  0  0  0  0  0  0  0  0  0
  5  6  2  0  0  0  0
  5  7  1  0  0  0  0
  2  3  1  0  0  0  0
  2  4  1  0  0  0  0
  2  5  1  0  0  0  0
  1  2  1  0  0  0  0
 22 23  2  0  0  0  0
 22 24  1  0  0  0  0
 18 19  1  0  0  0  0
 18 20  1  0  0  0  0
 18 21  1  0  0  0  0
 17 18  1  0  0  0  0
 14 15  1  0  0  0  0
 14 16  1  0  0  0  0
 14 17  1  0  0  0  0
 11 12  1  0  0  0  0
 11 13  1  0  0  0  0
 11 14  1  0  0  0  0
  9 10  1  0  0  0  0
  9 11  1  0  0  0  0
  9 22  1  0  0  0  0
  7  8  1  0  0  0  0
  7  9  1  0  0  0  0
 26 27  1  0  0  0  0
 26 28  1  0  0  0  0
 26 29  1  0  0  0  0
 24 25  1  0  0  0  0
 24 26  1  0  0  0  0
M  END
$$$$
default_name
  -OEChem-02102213163D

 29 28  0     1  0  0  0  0  0999 V2000
   -3.5781   -3.7296    1.2702 H   0  0  0  0  0  0  0  0  0  0  0  0
   -3.5311   -2.7616    0.7732 C   0  0  0  0  0  0  0  0  0  0  0  0
   -4.2371   -2.0766    1.2382 H   0  0  0  0  0  0  0  0  0  0  0  0
   -3.7681   -2.8816   -0.2818 H   0  0  0  0  0  0  0  0  0  0  0  0
   -2.1321   -2.2086    0.9112 C   0  0  0  0  0  0  0  0  0  0  0  0
   -1.2751   -2.8426    1.5112 O   0  0  0  0  0  0  0  0  0  0  0  0
   -1.9041   -1.0186    0.3602 N   0  0  0  0  0  0  0  0  0  0  0  0
   -2.6671   -0.5416   -0.0988 H   0  0  0  0  0  0  0  0  0  0  0  0
   -0.6131   -0.3236    0.3832 C   0  0  1  0  0  0  0  0  0  0  0  0
    0.0142   -0.7800    1.1506 H   0  0  0  0  0  0  0  0  0  0  0  0
    0.0816   -0.5059   -0.9788 C   0  0  0  0  0  0  0  0  0  0  0  0
    0.0166    0.4321   -1.5344 H   0  0  0  0  0  0  0  0  0  0  0  0
    1.1361   -0.7340   -0.8173 H   0  0  0  0  0  0  0  0  0  0  0  0
   -0.5342   -1.6174   -1.8364 C   0  0  0  0  0  0  0  0  0  0  0  0
    0.2214   -2.3774   -2.0329 H   0  0  0  0  0  0  0  0  0  0  0  0
   -1.3547   -2.0739   -1.2817 H   0  0  0  0  0  0  0  0  0  0  0  0
   -1.1738   -1.0362   -3.4279 S   0  0  0  0  0  0  0  0  0  0  0  0
   -2.5870   -0.0581   -2.8553 C   0  0  0  0  0  0  0  0  0  0  0  0
   -2.2391    0.7437   -2.2033 H   0  0  0  0  0  0  0  0  0  0  0  0
   -3.0990    0.3749   -3.7150 H   0  0  0  0  0  0  0  0  0  0  0  0
   -3.2807   -0.6985   -2.3098 H   0  0  0  0  0  0  0  0  0  0  0  0
   -0.8064    1.1568    0.7414 C   0  0  0  0  0  0  0  0  0  0  0  0
   -1.6978    1.8100    0.2029 O   0  0  0  0  0  0  0  0  0  0  0  0
    0.0314    1.6872    1.6415 N   0  0  0  0  0  0  0  0  0  0  0  0
    0.7279    1.0858    2.0517 H   0  0  0  0  0  0  0  0  0  0  0  0
   -0.0137    3.0826    2.0755 C   0  0  0  0  0  0  0  0  0  0  0  0
   -0.9991    3.3070    2.4905 H   0  0  0  0  0  0  0  0  0  0  0  0
    0.7468    3.2694    2.8349 H   0  0  0  0  0  0  0  0  0  0  0  0
    0.1592    3.7397    1.2213 H   0  0  0  0  0  0  0  0  0  0  0  0
  5  6  2  0  0  0  0
  5  7  1  0  0  0  0
  2  3  1  0  0  0  0
  2  4  1  0  0  0  0
  2  5  1  0  0  0  0
  1  2  1  0  0  0  0
 22 23  2  0  0  0  0
 22 24  1  0  0  0  0
 18 19  1  0  0  0  0
 18 20  1  0  0  0  0
 18 21  1  0  0  0  0
 17 18  1  0  0  0  0
 14 15  1  0  0  0  0
 14 16  1  0  0  0  0
 14 17  1  0  0  0  0
 11 12  1  0  0  0  0
 11 13  1  0  0  0  0
 11 14  1  0  0  0  0
  9 10  1  0  0  0  0
  9 11  1  0  0  0  0
  9 22  1  0  0  0  0
  7  8  1  0  0  0  0
  7  9  1  0  0  0  0
 26 27  1  0  0  0  0
 26 28  1  0  0  0  0
 26 29  1  0  0  0  0
 24 25  1  0  0  0  0
 24 26  1  0  0  0  0
M  END
$$$$
default_name
  -OEChem-02102213163D

 29 28  0     1  0  0  0  0  0999 V2000
   -3.5781   -3.7296    1.2702 H   0  0  0  0  0  0  0  0  0  0  0  0
   -3.5311   -2.7616    0.7732 C   0  0  0  0  0  0  0  0  0  0  0  0
   -4.2371   -2.0766    1.2382 H   0  0  0  0  0  0  0  0  0  0  0  0
   -3.7681   -2.8816   -0.2818 H   0  0  0  0  0  0  0  0  0  0  0  0
   -2.1321   -2.2086    0.9112 C   0  0  0  0  0  0  0  0  0  0  0  0
   -1.2751   -2.8426    1.5112 O   0  0  0  0  0  0  0  0  0  0  0  0
   -1.9041   -1.0186    0.3602 N   0  0  0  0  0  0  0  0  0  0  0  0
   -2.6671   -0.5416   -0.0988 H   0  0  0  0  0  0  0  0  0  0  0  0
   -0.6131   -0.3236    0.3832 C   0  0  1  0  0  0  0  0  0  0  0  0
    0.0142   -0.7800    1.1506 H   0  0  0  0  0  0  0  0  0  0  0  0
    0.0816   -0.5059   -0.9788 C   0  0  0  0  0  0  0  0  0  0  0  0
    0.0166    0.4321   -1.5344 H   0  0  0  0  0  0  0  0  0  0  0  0
    1.1361   -0.7340   -0.8173 H   0  0  0  0  0  0  0  0  0  0  0  0
   -0.5342   -1.6174   -1.8364 C   0  0  0  0  0  0  0  0  0  0  0  0
    0.1176   -2.4901   -1.8122 H   0  0  0  0  0  0  0  0  0  0  0  0
   -1.5018   -1.8905   -1.4138 H   0  0  0  0  0  0  0  0  0  0  0  0
   -0.7791   -1.1468   -3.5680 S   0  0  0  0  0  0  0  0  0  0  0  0
   -2.1037    0.0735   -3.3729 C   0  0  0  0  0  0  0  0  0  0  0  0
   -1.7591    0.8923   -2.7406 H   0  0  0  0  0  0  0  0  0  0  0  0
   -2.3793    0.4673   -4.3516 H   0  0  0  0  0  0  0  0  0  0  0  0
   -2.9749   -0.3987   -2.9180 H   0  0  0  0  0  0  0  0  0  0  0  0
   -0.8064    1.1568    0.7414 C   0  0  0  0  0  0  0  0  0  0  0  0
   -1.6978    1.8100    0.2029 O   0  0  0  0  0  0  0  0  0  0  0  0
    0.0314    1.6872    1.6415 N   0  0  0  0  0  0  0  0  0  0  0  0
    0.7279    1.0858    2.0517 H   0  0  0  0  0  0  0  0  0  0  0  0
   -0.0137    3.0826    2.0755 C   0  0  0  0  0  0  0  0  0  0  0  0
   -0.9991    3.3070    2.4905 H   0  0  0  0  0  0  0  0  0  0  0  0
    0.7468    3.2694    2.8349 H   0  0  0  0  0  0  0  0  0  0  0  0
    0.1592    3.7397    1.2213 H   0  0  0  0  0  0  0  0  0  0  0  0
  5  6  2  0  0  0  0
  5  7  1  0  0  0  0
  2  3  1  0  0  0  0
  2  4  1  0  0  0  0
  2  5  1  0  0  0  0
  1  2  1  0  0  0  0
 22 23  2  0  0  0  0
 22 24  1  0  0  0  0
 18 19  1  0  0  0  0
 18 20  1  0  0  0  0
 18 21  1  0  0  0  0
 17 18  1  0  0  0  0
 14 15  1  0  0  0  0
 14 16  1  0  0  0  0
 14 17  1  0  0  0  0
 11 12  1  0  0  0  0
 11 13  1  0  0  0  0
 11 14  1  0  0  0  0
  9 10  1  0  0  0  0
  9 11  1  0  0  0  0
  9 22  1  0  0  0  0
  7  8  1  0  0  0  0
  7  9  1  0  0  0  0
 26 27  1  0  0  0  0
 26 28  1  0  0  0  0
 26 29  1  0  0  0  0
 24 25  1  0  0  0  0
 24 26  1  0  0  0  0
M  END
$$$$
default_name
  -OEChem-02102213163D

 29 28  0     1  0  0  0  0  0999 V2000
   -3.5781   -3.7296    1.2702 H   0  0  0  0  0  0  0  0  0  0  0  0
   -3.5311   -2.7616    0.7732 C   0  0  0  0  0  0  0  0  0  0  0  0
   -4.2371   -2.0766    1.2382 H   0  0  0  0  0  0  0  0  0  0  0  0
   -3.7681   -2.8816   -0.2818 H   0  0  0  0  0  0  0  0  0  0  0  0
   -2.1321   -2.2086    0.9112 C   0  0  0  0  0  0  0  0  0  0  0  0
   -1.2751   -2.8426    1.5112 O   0  0  0  0  0  0  0  0  0  0  0  0
   -1.9041   -1.0186    0.3602 N   0  0  0  0  0  0  0  0  0  0  0  0
   -2.6671   -0.5416   -0.0988 H   0  0  0  0  0  0  0  0  0  0  0  0
   -0.6131   -0.3236    0.3832 C   0  0  1  0  0  0  0  0  0  0  0  0
    0.0142   -0.7800    1.1506 H   0  0  0  0  0  0  0  0  0  0  0  0
    0.0816   -0.5059   -0.9788 C   0  0  0  0  0  0  0  0  0  0  0  0
    0.0166    0.4321   -1.5344 H   0  0  0  0  0  0  0  0  0  0  0  0
    1.1361   -0.7340   -0.8173 H   0  0  0  0  0  0  0  0  0  0  0  0
   -0.5342   -1.6174   -1.8364 C   0  0  0  0  0  0  0  0  0  0  0  0
   -0.0404   -2.5611   -1.6068 H   0  0  0  0  0  0  0  0  0  0  0  0
   -1.5925   -1.7058   -1.5880 H   0  0  0  0  0  0  0  0  0  0  0  0
   -0.3877   -1.3254   -3.6177 S   0  0  0  0  0  0  0  0  0  0  0  0
   -1.5207    0.0769   -3.7959 C   0  0  0  0  0  0  0  0  0  0  0  0
   -1.1731    0.9104   -3.1849 H   0  0  0  0  0  0  0  0  0  0  0  0
   -1.5514    0.3862   -4.8410 H   0  0  0  0  0  0  0  0  0  0  0  0
   -2.5219   -0.2166   -3.4792 H   0  0  0  0  0  0  0  0  0  0  0  0
   -0.8064    1.1568    0.7414 C   0  0  0  0  0  0  0  0  0  0  0  0
   -1.6978    1.8100    0.2029 O   0  0  0  0  0  0  0  0  0  0  0  0
    0.0314    1.6872    1.6415 N   0  0  0  0  0  0  0  0  0  0  0  0
    0.7279    1.0858    2.0517 H   0  0  0  0  0  0  0  0  0  0  0  0
   -0.0137    3.0826    2.0755 C   0  0  0  0  0  0  0  0  0  0  0  0
   -0.9991    3.3070    2.4905 H   0  0  0  0  0  0  0  0  0  0  0  0
    0.7468    3.2694    2.8349 H   0  0  0  0  0  0  0  0  0  0  0  0
    0.1592    3.7397    1.2213 H   0  0  0  0  0  0  0  0  0  0  0  0
  5  6  2  0  0  0  0
  5  7  1  0  0  0  0
  2  3  1  0  0  0  0
  2  4  1  0  0  0  0
  2  5  1  0  0  0  0
  1  2  1  0  0  0  0
 22 23  2  0  0  0  0
 22 24  1  0  0  0  0
 18 19  1  0  0  0  0
 18 20  1  0  0  0  0
 18 21  1  0  0  0  0
 17 18  1  0  0  0  0
 14 15  1  0  0  0  0
 14 16  1  0  0  0  0
 14 17  1  0  0  0  0
 11 12  1  0  0  0  0
 11 13  1  0  0  0  0
 11 14  1  0  0  0  0
  9 10  1  0  0  0  0
  9 11  1  0  0  0  0
  9 22  1  0  0  0  0
  7  8  1  0  0  0  0
  7  9  1  0  0  0  0
 26 27  1  0  0  0  0
 26 28  1  0  0  0  0
 26 29  1  0  0  0  0
 24 25  1  0  0  0  0
 24 26  1  0  0  0  0
M  END
$$$$
default_name
  -OEChem-02102213163D

 29 28  0     1  0  0  0  0  0999 V2000
   -3.5781   -3.7296    1.2702 H   0  0  0  0  0  0  0  0  0  0  0  0
   -3.5311   -2.7616    0.7732 C   0  0  0  0  0  0  0  0  0  0  0  0
   -4.2371   -2.0766    1.2382 H   0  0  0  0  0  0  0  0  0  0  0  0
   -3.7681   -2.8816   -0.2818 H   0  0  0  0  0  0  0  0  0  0  0  0
   -2.1321   -2.2086    0.9112 C   0  0  0  0  0  0  0  0  0  0  0  0
   -1.2751   -2.8426    1.5112 O   0  0  0  0  0  0  0  0  0  0  0  0
   -1.9041   -1.0186    0.3602 N   0  0  0  0  0  0  0  0  0  0  0  0
   -2.6671   -0.5416   -0.0988 H   0  0  0  0  0  0  0  0  0  0  0  0
   -0.6131   -0.3236    0.3832 C   0  0  1  0  0  0  0  0  0  0  0  0
    0.0142   -0.7800    1.1506 H   0  0  0  0  0  0  0  0  0  0  0  0
    0.0816   -0.5059   -0.9788 C   0  0  0  0  0  0  0  0  0  0  0  0
    0.0166    0.4321   -1.5344 H   0  0  0  0  0  0  0  0  0  0  0  0
    1.1361   -0.7340   -0.8173 H   0  0  0  0  0  0  0  0  0  0  0  0
   -0.5342   -1.6174   -1.8364 C   0  0  0  0  0  0  0  0  0  0  0  0
   -0.2418   -2.5854   -1.4307 H   0  0  0  0  0  0  0  0  0  0  0  0
   -1.6206   -1.5324   -1.7926 H   0  0  0  0  0  0  0  0  0  0  0  0
   -0.0260   -1.5597   -3.5737 S   0  0  0  0  0  0  0  0  0  0  0  0
   -0.8777   -0.0483   -4.0954 C   0  0  0  0  0  0  0  0  0  0  0  0
   -0.5210    0.7969   -3.5059 H   0  0  0  0  0  0  0  0  0  0  0  0
   -0.6715    0.1371   -5.1499 H   0  0  0  0  0  0  0  0  0  0  0  0
   -1.9527   -0.1647   -3.9552 H   0  0  0  0  0  0  0  0  0  0  0  0
   -0.8064    1.1568    0.7414 C   0  0  0  0  0  0  0  0  0  0  0  0
   -1.6978    1.8100    0.2029 O   0  0  0  0  0  0  0  0  0  0  0  0
    0.0314    1.6872    1.6415 N   0  0  0  0  0  0  0  0  0  0  0  0
    0.7279    1.0858    2.0517 H   0  0  0  0  0  0  0  0  0  0  0  0
   -0.0137    3.0826    2.0755 C   0  0  0  0  0  0  0  0  0  0  0  0
   -0.9991    3.3070    2.4905 H   0  0  0  0  0  0  0  0  0  0  0  0
    0.7468    3.2694    2.8349 H   0  0  0  0  0  0  0  0  0  0  0  0
    0.1592    3.7397    1.2213 H   0  0  0  0  0  0  0  0  0  0  0  0
  5  6  2  0  0  0  0
  5  7  1  0  0  0  0
  2  3  1  0  0  0  0
  2  4  1  0  0  0  0
  2  5  1  0  0  0  0
  1  2  1  0  0  0  0
 22 23  2  0  0  0  0
 22 24  1  0  0  0  0
 18 19  1  0  0  0  0
 18 20  1  0  0  0  0
 18 21  1  0  0  0  0
 17 18  1  0  0  0  0
 14 15  1  0  0  0  0
 14 16  1  0  0  0  0
 14 17  1  0  0  0  0
 11 12  1  0  0  0  0
 11 13  1  0  0  0  0
 11 14  1  0  0  0  0
  9 10  1  0  0  0  0
  9 11  1  0  0  0  0
  9 22  1  0  0  0  0
  7  8  1  0  0  0  0
  7  9  1  0  0  0  0
 26 27  1  0  0  0  0
 26 28  1  0  0  0  0
 26 29  1  0  0  0  0
 24 25  1  0  0  0  0
 24 26  1  0  0  0  0
M  END
$$$$
default_name
  -OEChem-02102213163D

 29 28  0     1  0  0  0  0  0999 V2000
   -3.5781   -3.7296    1.2702 H   0  0  0  0  0  0  0  0  0  0  0  0
   -3.5311   -2.7616    0.7732 C   0  0  0  0  0  0  0  0  0  0  0  0
   -4.2371   -2.0766    1.2382 H   0  0  0  0  0  0  0  0  0  0  0  0
   -3.7681   -2.8816   -0.2818 H   0  0  0  0  0  0  0  0  0  0  0  0
   -2.1321   -2.2086    0.9112 C   0  0  0  0  0  0  0  0  0  0  0  0
   -1.2751   -2.8426    1.5112 O   0  0  0  0  0  0  0  0  0  0  0  0
   -1.9041   -1.0186    0.3602 N   0  0  0  0  0  0  0  0  0  0  0  0
   -2.6671   -0.5416   -0.0988 H   0  0  0  0  0  0  0  0  0  0  0  0
   -0.6131   -0.3236    0.3832 C   0  0  1  0  0  0  0  0  0  0  0  0
    0.0142   -0.7800    1.1506 H   0  0  0  0  0  0  0  0  0  0  0  0
    0.0816   -0.5059   -0.9788 C   0  0  0  0  0  0  0  0  0  0  0  0
    0.2560    0.4785   -1.4185 H   0  0  0  0  0  0  0  0  0  0  0  0
    1.0485   -0.9879   -0.8279 H   0  0  0  0  0  0  0  0  0  0  0  0
   -0.7320   -1.3409   -1.9743 C   0  0  0  0  0  0  0  0  0  0  0  0
   -0.9108   -2.3285   -1.5502 H   0  0  0  0  0  0  0  0  0  0  0  0
   -1.6924   -0.8512   -2.1396 H   0  0  0  0  0  0  0  0  0  0  0  0
    0.0829   -1.5567   -3.5771 S   0  0  0  0  0  0  0  0  0  0  0  0
   -0.0173    0.1391   -4.2064 C   0  0  0  0  0  0  0  0  0  0  0  0
    0.5122    0.8132   -3.5325 H   0  0  0  0  0  0  0  0  0  0  0  0
    0.4415    0.1857   -5.1944 H   0  0  0  0  0  0  0  0  0  0  0  0
   -1.0619    0.4425   -4.2813 H   0  0  0  0  0  0  0  0  0  0  0  0
   -0.8064    1.1568    0.7414 C   0  0  0  0  0  0  0  0  0  0  0  0
   -1.6978    1.8100    0.2029 O   0  0  0  0  0  0  0  0  0  0  0  0
    0.0314    1.6872    1.6415 N   0  0  0  0  0  0  0  0  0  0  0  0
    0.7279    1.0858    2.0517 H   0  0  0  0  0  0  0  0  0  0  0  0
   -0.0137    3.0826    2.0755 C   0  0  0  0  0  0  0  0  0  0  0  0
   -0.9991    3.3070    2.4905 H   0  0  0  0  0  0  0  0  0  0  0  0
    0.7468    3.2694    2.8349 H   0  0  0  0  0  0  0  0  0  0  0  0
    0.1592    3.7397    1.2213 H   0  0  0  0  0  0  0  0  0  0  0  0
  5  6  2  0  0  0  0
  5  7  1  0  0  0  0
  2  3  1  0  0  0  0
  2  4  1  0  0  0  0
  2  5  1  0  0  0  0
  1  2  1  0  0  0  0
 22 23  2  0  0  0  0
 22 24  1  0  0  0  0
 18 19  1  0  0  0  0
 18 20  1  0  0  0  0
 18 21  1  0  0  0  0
 17 18  1  0  0  0  0
 14 15  1  0  0  0  0
 14 16  1  0  0  0  0
 14 17  1  0  0  0  0
 11 12  1  0  0  0  0
 11 13  1  0  0  0  0
 11 14  1  0  0  0  0
  9 10  1  0  0  0  0
  9 11  1  0  0  0  0
  9 22  1  0  0  0  0
  7  8  1  0  0  0  0
  7  9  1  0  0  0  0
 26 27  1  0  0  0  0
 26 28  1  0  0  0  0
 26 29  1  0  0  0  0
 24 25  1  0  0  0  0
 24 26  1  0  0  0  0
M  END
$$$$
default_name
  -OEChem-02102213163D

 29 28  0     1  0  0  0  0  0999 V2000
   -3.5781   -3.7296    1.2702 H   0  0  0  0  0  0  0  0  0  0  0  0
   -3.5311   -2.7616    0.7732 C   0  0  0  0  0  0  0  0  0  0  0  0
   -4.2371   -2.0766    1.2382 H   0  0  0  0  0  0  0  0  0  0  0  0
   -3.7681   -2.8816   -0.2818 H   0  0  0  0  0  0  0  0  0  0  0  0
   -2.1321   -2.2086    0.9112 C   0  0  0  0  0  0  0  0  0  0  0  0
   -1.2751   -2.8426    1.5112 O   0  0  0  0  0  0  0  0  0  0  0  0
   -1.9041   -1.0186    0.3602 N   0  0  0  0  0  0  0  0  0  0  0  0
   -2.6671   -0.5416   -0.0988 H   0  0  0  0  0  0  0  0  0  0  0  0
   -0.6131   -0.3236    0.3832 C   0  0  1  0  0  0  0  0  0  0  0  0
    0.0142   -0.7800    1.1506 H   0  0  0  0  0  0  0  0  0  0  0  0
    0.0816   -0.5059   -0.9788 C   0  0  0  0  0  0  0  0  0  0  0  0
    0.2560    0.4785   -1.4185 H   0  0  0  0  0  0  0  0  0  0  0  0
    1.0485   -0.9879   -0.8279 H   0  0  0  0  0  0  0  0  0  0  0  0
   -0.7320   -1.3409   -1.9743 C   0  0  0  0  0  0  0  0  0  0  0  0
   -1.1369   -2.2132   -1.4621 H   0  0  0  0  0  0  0  0  0  0  0  0
   -1.5604   -0.7356   -2.3444 H   0  0  0  0  0  0  0  0  0  0  0  0
    0.2317   -1.9199   -3.3941 S   0  0  0  0  0  0  0  0  0  0  0  0
    0.5169   -0.3429   -4.2387 C   0  0  0  0  0  0  0  0  0  0  0  0
    1.0664    0.3319   -3.5817 H   0  0  0  0  0  0  0  0  0  0  0  0
    1.1005   -0.5176   -5.1430 H   0  0  0  0  0  0  0  0  0  0  0  0
   -0.4384    0.1073   -4.5097 H   0  0  0  0  0  0  0  0  0  0  0  0
   -0.8064    1.1568    0.7414 C   0  0  0  0  0  0  0  0  0  0  0  0
   -1.6978    1.8100    0.2029 O   0  0  0  0  0  0  0  0  0  0  0  0
    0.0314    1.6872    1.6415 N   0  0  0  0  0  0  0  0  0  0  0  0
    0.7279    1.0858    2.0517 H   0  0  0  0  0  0  0  0  0  0  0  0
   -0.0137    3.0826    2.0755 C   0  0  0  0  0  0  0  0  0  0  0  0
   -0.9991    3.3070    2.4905 H   0  0  0  0  0  0  0  0  0  0  0  0
    0.7468    3.2694    2.8349 H   0  0  0  0  0  0  0  0  0  0  0  0
    0.1592    3.7397    1.2213 H   0  0  0  0  0  0  0  0  0  0  0  0
  5  6  2  0  0  0  0
  5  7  1  0  0  0  0
  2  3  1  0  0  0  0
  2  4  1  0  0  0  0
  2  5  1  0  0  0  0
  1  2  1  0  0  0  0
 22 23  2  0  0  0  0
 22 24  1  0  0  0  0
 18 19  1  0  0  0  0
 18 20  1  0  0  0  0
 18 21  1  0  0  0  0
 17 18  1  0  0  0  0
 14 15  1  0  0  0  0
 14 16  1  0  0  0  0
 14 17  1  0  0  0  0
 11 12  1  0  0  0  0
 11 13  1  0  0  0  0
 11 14  1  0  0  0  0
  9 10  1  0  0  0  0
  9 11  1  0  0  0  0
  9 22  1  0  0  0  0
  7  8  1  0  0  0  0
  7  9  1  0  0  0  0
 26 27  1  0  0  0  0
 26 28  1  0  0  0  0
 26 29  1  0  0  0  0
 24 25  1  0  0  0  0
 24 26  1  0  0  0  0
M  END
$$$$
default_name
  -OEChem-02102213163D

 29 28  0     1  0  0  0  0  0999 V2000
   -3.5781   -3.7296    1.2702 H   0  0  0  0  0  0  0  0  0  0  0  0
   -3.5311   -2.7616    0.7732 C   0  0  0  0  0  0  0  0  0  0  0  0
   -4.2371   -2.0766    1.2382 H   0  0  0  0  0  0  0  0  0  0  0  0
   -3.7681   -2.8816   -0.2818 H   0  0  0  0  0  0  0  0  0  0  0  0
   -2.1321   -2.2086    0.9112 C   0  0  0  0  0  0  0  0  0  0  0  0
   -1.2751   -2.8426    1.5112 O   0  0  0  0  0  0  0  0  0  0  0  0
   -1.9041   -1.0186    0.3602 N   0  0  0  0  0  0  0  0  0  0  0  0
   -2.6671   -0.5416   -0.0988 H   0  0  0  0  0  0  0  0  0  0  0  0
   -0.6131   -0.3236    0.3832 C   0  0  1  0  0  0  0  0  0  0  0  0
    0.0142   -0.7800    1.1506 H   0  0  0  0  0  0  0  0  0  0  0  0
    0.0816   -0.5059   -0.9788 C   0  0  0  0  0  0  0  0  0  0  0  0
    0.2560    0.4785   -1.4185 H   0  0  0  0  0  0  0  0  0  0  0  0
    1.0485   -0.9879   -0.8279 H   0  0  0  0  0  0  0  0  0  0  0  0
   -0.7320   -1.3409   -1.9743 C   0  0  0  0  0  0  0  0  0  0  0  0
   -1.3484   -2.0517   -1.4248 H   0  0  0  0  0  0  0  0  0  0  0  0
   -1.3846   -0.6744   -2.5394 H   0  0  0  0  0  0  0  0  0  0  0  0
    0.2885   -2.2707   -3.1463 S   0  0  0  0  0  0  0  0  0  0  0  0
    0.9565   -0.9028   -4.1284 C   0  0  0  0  0  0  0  0  0  0  0  0
    1.5277   -0.2328   -3.4850 H   0  0  0  0  0  0  0  0  0  0  0  0
    1.6116   -1.3007   -4.9039 H   0  0  0  0  0  0  0  0  0  0  0  0
    0.1397   -0.3527   -4.5964 H   0  0  0  0  0  0  0  0  0  0  0  0
   -0.8064    1.1568    0.7414 C   0  0  0  0  0  0  0  0  0  0  0  0
   -1.6978    1.8100    0.2029 O   0  0  0  0  0  0  0  0  0  0  0  0
    0.0314    1.6872    1.6415 N   0  0  0  0  0  0  0  0  0  0  0  0
    0.7279    1.0858    2.0517 H   0  0  0  0  0  0  0  0  0  0  0  0
   -0.0137    3.0826    2.0755 C   0  0  0  0  0  0  0  0  0  0  0  0
   -0.9991    3.3070    2.4905 H   0  0  0  0  0  0  0  0  0  0  0  0
    0.7468    3.2694    2.8349 H   0  0  0  0  0  0  0  0  0  0  0  0
    0.1592    3.7397    1.2213 H   0  0  0  0  0  0  0  0  0  0  0  0
  5  6  2  0  0  0  0
  5  7  1  0  0  0  0
  2  3  1  0  0  0  0
  2  4  1  0  0  0  0
  2  5  1  0  0  0  0
  1  2  1  0  0  0  0
 22 23  2  0  0  0  0
 22 24  1  0  0  0  0
 18 19  1  0  0  0  0
 18 20  1  0  0  0  0
 18 21  1  0  0  0  0
 17 18  1  0  0  0  0
 14 15  1  0  0  0  0
 14 16  1  0  0  0  0
 14 17  1  0  0  0  0
 11 12  1  0  0  0  0
 11 13  1  0  0  0  0
 11 14  1  0  0  0  0
  9 10  1  0  0  0  0
  9 11  1  0  0  0  0
  9 22  1  0  0  0  0
  7  8  1  0  0  0  0
  7  9  1  0  0  0  0
 26 27  1  0  0  0  0
 26 28  1  0  0  0  0
 26 29  1  0  0  0  0
 24 25  1  0  0  0  0
 24 26  1  0  0  0  0
M  END
$$$$
default_name
  -OEChem-02102213163D

 29 28  0     1  0  0  0  0  0999 V2000
   -3.5781   -3.7296    1.2702 H   0  0  0  0  0  0  0  0  0  0  0  0
   -3.5311   -2.7616    0.7732 C   0  0  0  0  0  0  0  0  0  0  0  0
   -4.2371   -2.0766    1.2382 H   0  0  0  0  0  0  0  0  0  0  0  0
   -3.7681   -2.8816   -0.2818 H   0  0  0  0  0  0  0  0  0  0  0  0
   -2.1321   -2.2086    0.9112 C   0  0  0  0  0  0  0  0  0  0  0  0
   -1.2751   -2.8426    1.5112 O   0  0  0  0  0  0  0  0  0  0  0  0
   -1.9041   -1.0186    0.3602 N   0  0  0  0  0  0  0  0  0  0  0  0
   -2.6671   -0.5416   -0.0988 H   0  0  0  0  0  0  0  0  0  0  0  0
   -0.6131   -0.3236    0.3832 C   0  0  1  0  0  0  0  0  0  0  0  0
    0.0142   -0.7800    1.1506 H   0  0  0  0  0  0  0  0  0  0  0  0
    0.0816   -0.5059   -0.9788 C   0  0  0  0  0  0  0  0  0  0  0  0
    0.2560    0.4785   -1.4185 H   0  0  0  0  0  0  0  0  0  0  0  0
    1.0485   -0.9879   -0.8279 H   0  0  0  0  0  0  0  0  0  0  0  0
   -0.7320   -1.3409   -1.9743 C   0  0  0  0  0  0  0  0  0  0  0  0
   -1.5308   -1.8550   -1.4406 H   0  0  0  0  0  0  0  0  0  0  0  0
   -1.1770   -0.6715   -2.7115 H   0  0  0  0  0  0  0  0  0  0  0  0
    0.2496   -2.5850   -2.8509 S   0  0  0  0  0  0  0  0  0  0  0  0
    1.2715   -1.5023   -3.8830 C   0  0  0  0  0  0  0  0  0  0  0  0
    1.8647   -0.8426   -3.2490 H   0  0  0  0  0  0  0  0  0  0  0  0
    1.9400   -2.1102   -4.4933 H   0  0  0  0  0  0  0  0  0  0  0  0
    0.6330   -0.9061   -4.5354 H   0  0  0  0  0  0  0  0  0  0  0  0
   -0.8064    1.1568    0.7414 C   0  0  0  0  0  0  0  0  0  0  0  0
   -1.6978    1.8100    0.2029 O   0  0  0  0  0  0  0  0  0  0  0  0
    0.0314    1.6872    1.6415 N   0  0  0  0  0  0  0  0  0  0  0  0
    0.7279    1.0858    2.0517 H   0  0  0  0  0  0  0  0  0  0  0  0
   -0.0137    3.0826    2.0755 C   0  0  0  0  0  0  0  0  0  0  0  0
   -0.9991    3.3070    2.4905 H   0  0  0  0  0  0  0  0  0  0  0  0
    0.7468    3.2694    2.8349 H   0  0  0  0  0  0  0  0  0  0  0  0
    0.1592    3.7397    1.2213 H   0  0  0  0  0  0  0  0  0  0  0  0
  5  6  2  0  0  0  0
  5  7  1  0  0  0  0
  2  3  1  0  0  0  0
  2  4  1  0  0  0  0
  2  5  1  0  0  0  0
  1  2  1  0  0  0  0
 22 23  2  0  0  0  0
 22 24  1  0  0  0  0
 18 19  1  0  0  0  0
 18 20  1  0  0  0  0
 18 21  1  0  0  0  0
 17 18  1  0  0  0  0
 14 15  1  0  0  0  0
 14 16  1  0  0  0  0
 14 17  1  0  0  0  0
 11 12  1  0  0  0  0
 11 13  1  0  0  0  0
 11 14  1  0  0  0  0
  9 10  1  0  0  0  0
  9 11  1  0  0  0  0
  9 22  1  0  0  0  0
  7  8  1  0  0  0  0
  7  9  1  0  0  0  0
 26 27  1  0  0  0  0
 26 28  1  0  0  0  0
 26 29  1  0  0  0  0
 24 25  1  0  0  0  0
 24 26  1  0  0  0  0
M  END
$$$$
default_name
  -OEChem-02102213163D

 29 28  0     1  0  0  0  0  0999 V2000
   -3.5781   -3.7296    1.2702 H   0  0  0  0  0  0  0  0  0  0  0  0
   -3.5311   -2.7616    0.7732 C   0  0  0  0  0  0  0  0  0  0  0  0
   -4.2371   -2.0766    1.2382 H   0  0  0  0  0  0  0  0  0  0  0  0
   -3.7681   -2.8816   -0.2818 H   0  0  0  0  0  0  0  0  0  0  0  0
   -2.1321   -2.2086    0.9112 C   0  0  0  0  0  0  0  0  0  0  0  0
   -1.2751   -2.8426    1.5112 O   0  0  0  0  0  0  0  0  0  0  0  0
   -1.9041   -1.0186    0.3602 N   0  0  0  0  0  0  0  0  0  0  0  0
   -2.6671   -0.5416   -0.0988 H   0  0  0  0  0  0  0  0  0  0  0  0
   -0.6131   -0.3236    0.3832 C   0  0  1  0  0  0  0  0  0  0  0  0
    0.0142   -0.7800    1.1506 H   0  0  0  0  0  0  0  0  0  0  0  0
    0.0816   -0.5059   -0.9788 C   0  0  0  0  0  0  0  0  0  0  0  0
    0.2560    0.4785   -1.4185 H   0  0  0  0  0  0  0  0  0  0  0  0
    1.0485   -0.9879   -0.8279 H   0  0  0  0  0  0  0  0  0  0  0  0
   -0.7320   -1.3409   -1.9743 C   0  0  0  0  0  0  0  0  0  0  0  0
   -1.6717   -1.6366   -1.5087 H   0  0  0  0  0  0  0  0  0  0  0  0
   -0.9518   -0.7273   -2.8488 H   0  0  0  0  0  0  0  0  0  0  0  0
    0.1175   -2.8414   -2.5278 S   0  0  0  0  0  0  0  0  0  0  0  0
    1.4404   -2.1006   -3.5192 C   0  0  0  0  0  0  0  0  0  0  0  0
    2.0545   -1.4559   -2.8897 H   0  0  0  0  0  0  0  0  0  0  0  0
    2.0632   -2.8909   -3.9392 H   0  0  0  0  0  0  0  0  0  0  0  0
    1.0079   -1.5151   -4.3310 H   0  0  0  0  0  0  0  0  0  0  0  0
   -0.8064    1.1568    0.7414 C   0  0  0  0  0  0  0  0  0  0  0  0
   -1.6978    1.8100    0.2029 O   0  0  0  0  0  0  0  0  0  0  0  0
    0.0314    1.6872    1.6415 N   0  0  0  0  0  0  0  0  0  0  0  0
    0.7279    1.0858    2.0517 H   0  0  0  0  0  0  0  0  0  0  0  0
   -0.0137    3.0826    2.0755 C   0  0  0  0  0  0  0  0  0  0  0  0
   -0.9991    3.3070    2.4905 H   0  0  0  0  0  0  0  0  0  0  0  0
    0.7468    3.2694    2.8349 H   0  0  0  0  0  0  0  0  0  0  0  0
    0.1592    3.7397    1.2213 H   0  0  0  0  0  0  0  0  0  0  0  0
  5  6  2  0  0  0  0
  5  7  1  0  0  0  0
  2  3  1  0  0  0  0
  2  4  1  0  0  0  0
  2  5  1  0  0  0  0
  1  2  1  0  0  0  0
 22 23  2  0  0  0  0
 22 24  1  0  0  0  0
 18 19  1  0  0  0  0
 18 20  1  0  0  0  0
 18 21  1  0  0  0  0
 17 18  1  0  0  0  0
 14 15  1  0  0  0  0
 14 16  1  0  0  0  0
 14 17  1  0  0  0  0
 11 12  1  0  0  0  0
 11 13  1  0  0  0  0
 11 14  1  0  0  0  0
  9 10  1  0  0  0  0
  9 11  1  0  0  0  0
  9 22  1  0  0  0  0
  7  8  1  0  0  0  0
  7  9  1  0  0  0  0
 26 27  1  0  0  0  0
 26 28  1  0  0  0  0
 26 29  1  0  0  0  0
 24 25  1  0  0  0  0
 24 26  1  0  0  0  0
M  END
$$$$
default_name
  -OEChem-02102213163D

 29 28  0     1  0  0  0  0  0999 V2000
   -3.5781   -3.7296    1.2702 H   0  0  0  0  0  0  0  0  0  0  0  0
   -3.5311   -2.7616    0.7732 C   0  0  0  0  0  0  0  0  0  0  0  0
   -4.2371   -2.0766    1.2382 H   0  0  0  0  0  0  0  0  0  0  0  0
   -3.7681   -2.8816   -0.2818 H   0  0  0  0  0  0  0  0  0  0  0  0
   -2.1321   -2.2086    0.9112 C   0  0  0  0  0  0  0  0  0  0  0  0
   -1.2751   -2.8426    1.5112 O   0  0  0  0  0  0  0  0  0  0  0  0
   -1.9041   -1.0186    0.3602 N   0  0  0  0  0  0  0  0  0  0  0  0
   -2.6671   -0.5416   -0.0988 H   0  0  0  0  0  0  0  0  0  0  0  0
   -0.6131   -0.3236    0.3832 C   0  0  1  0  0  0  0  0  0  0  0  0
    0.0142   -0.7800    1.1506 H   0  0  0  0  0  0  0  0  0  0  0  0
    0.0816   -0.5059   -0.9788 C   0  0  0  0  0  0  0  0  0  0  0  0
    0.2560    0.4785   -1.4185 H   0  0  0  0  0  0  0  0  0  0  0  0
    1.0485   -0.9879   -0.8279 H   0  0  0  0  0  0  0  0  0  0  0  0
   -0.7320   -1.3409   -1.9743 C   0  0  0  0  0  0  0  0  0  0  0  0
   -1.7614   -1.4112   -1.6243 H   0  0  0  0  0  0  0  0  0  0  0  0
   -0.7243   -0.8379   -2.9420 H   0  0  0  0  0  0  0  0  0  0  0  0
   -0.0987   -3.0226   -2.1991 S   0  0  0  0  0  0  0  0  0  0  0  0
    1.4517   -2.6569   -3.0617 C   0  0  0  0  0  0  0  0  0  0  0  0
    2.0842   -2.0307   -2.4317 H   0  0  0  0  0  0  0  0  0  0  0  0
    1.9729   -3.5896   -3.2793 H   0  0  0  0  0  0  0  0  0  0  0  0
    1.2389   -2.1383   -3.9970 H   0  0  0  0  0  0  0  0  0  0  0  0
   -0.8064    1.1568    0.7414 C   0  0  0  0  0  0  0  0  0  0  0  0
   -1.6978    1.8100    0.2029 O   0  0  0  0  0  0  0  0  0  0  0  0
    0.0314    1.6872    1.6415 N   0  0  0  0  0  0  0  0  0  0  0  0
    0.7279    1.0858    2.0517 H   0  0  0  0  0  0  0  0  0  0  0  0
   -0.0137    3.0826    2.0755 C   0  0  0  0  0  0  0  0  0  0  0  0
   -0.9991    3.3070    2.4905 H   0  0  0  0  0  0  0  0  0  0  0  0
    0.7468    3.2694    2.8349 H   0  0  0  0  0  0  0  0  0  0  0  0
    0.1592    3.7397    1.2213 H   0  0  0  0  0  0  0  0  0  0  0  0
  5  6  2  0  0  0  0
  5  7  1  0  0  0  0
  2  3  1  0  0  0  0
  2  4  1  0  0  0  0
  2  5  1  0  0  0  0
  1  2  1  0  0  0  0
 22 23  2  0  0  0  0
 22 24  1  0  0  0  0
 18 19  1  0  0  0  0
 18 20  1  0  0  0  0
 18 21  1  0  0  0  0
 17 18  1  0  0  0  0
 14 15  1  0  0  0  0
 14 16  1  0  0  0  0
 14 17  1  0  0  0  0
 11 12  1  0  0  0  0
 11 13  1  0  0  0  0
 11 14  1  0  0  0  0
  9 10  1  0  0  0  0
  9 11  1  0  0  0  0
  9 22  1  0  0  0  0
  7  8  1  0  0  0  0
  7  9  1  0  0  0  0
 26 27  1  0  0  0  0
 26 28  1  0  0  0  0
 26 29  1  0  0  0  0
 24 25  1  0  0  0  0
 24 26  1  0  0  0  0
M  END
$$$$
default_name
  -OEChem-02102213163D

 29 28  0     1  0  0  0  0  0999 V2000
   -3.5781   -3.7296    1.2702 H   0  0  0  0  0  0  0  0  0  0  0  0
   -3.5311   -2.7616    0.7732 C   0  0  0  0  0  0  0  0  0  0  0  0
   -4.2371   -2.0766    1.2382 H   0  0  0  0  0  0  0  0  0  0  0  0
   -3.7681   -2.8816   -0.2818 H   0  0  0  0  0  0  0  0  0  0  0  0
   -2.1321   -2.2086    0.9112 C   0  0  0  0  0  0  0  0  0  0  0  0
   -1.2751   -2.8426    1.5112 O   0  0  0  0  0  0  0  0  0  0  0  0
   -1.9041   -1.0186    0.3602 N   0  0  0  0  0  0  0  0  0  0  0  0
   -2.6671   -0.5416   -0.0988 H   0  0  0  0  0  0  0  0  0  0  0  0
   -0.6131   -0.3236    0.3832 C   0  0  1  0  0  0  0  0  0  0  0  0
    0.0142   -0.7800    1.1506 H   0  0  0  0  0  0  0  0  0  0  0  0
    0.0816   -0.5059   -0.9788 C   0  0  0  0  0  0  0  0  0  0  0  0
    0.2560    0.4785   -1.4185 H   0  0  0  0  0  0  0  0  0  0  0  0
    1.0485   -0.9879   -0.8279 H   0  0  0  0  0  0  0  0  0  0  0  0
   -0.7320   -1.3409   -1.9743 C   0  0  0  0  0  0  0  0  0  0  0  0
   -1.7940   -1.1944   -1.7796 H   0  0  0  0  0  0  0  0  0  0  0  0
   -0.5099   -0.9957   -2.9847 H   0  0  0  0  0  0  0  0  0  0  0  0
   -0.3844   -3.1160   -1.8873 S   0  0  0  0  0  0  0  0  0  0  0  0
    1.3047   -3.1333   -2.5419 C   0  0  0  0  0  0  0  0  0  0  0  0
    1.9516   -2.5281   -1.9062 H   0  0  0  0  0  0  0  0  0  0  0  0
    1.6753   -4.1586   -2.5587 H   0  0  0  0  0  0  0  0  0  0  0  0
    1.3101   -2.7333   -3.5562 H   0  0  0  0  0  0  0  0  0  0  0  0
   -0.8064    1.1568    0.7414 C   0  0  0  0  0  0  0  0  0  0  0  0
   -1.6978    1.8100    0.2029 O   0  0  0  0  0  0  0  0  0  0  0  0
    0.0314    1.6872    1.6415 N   0  0  0  0  0  0  0  0  0  0  0  0
    0.7279    1.0858    2.0517 H   0  0  0  0  0  0  0  0  0  0  0  0
   -0.0137    3.0826    2.0755 C   0  0  0  0  0  0  0  0  0  0  0  0
   -0.9991    3.3070    2.4905 H   0  0  0  0  0  0  0  0  0  0  0  0
    0.7468    3.2694    2.8349 H   0  0  0  0  0  0  0  0  0  0  0  0
    0.1592    3.7397    1.2213 H   0  0  0  0  0  0  0  0  0  0  0  0
  5  6  2  0  0  0  0
  5  7  1  0  0  0  0
  2  3  1  0  0  0  0
  2  4  1  0  0  0  0
  2  5  1  0  0  0  0
  1  2  1  0  0  0  0
 22 23  2  0  0  0  0
 22 24  1  0  0  0  0
 18 19  1  0  0  0  0
 18 20  1  0  0  0  0
 18 21  1  0  0  0  0
 17 18  1  0  0  0  0
 14 15  1  0  0  0  0
 14 16  1  0  0  0  0
 14 17  1  0  0  0  0
 11 12  1  0  0  0  0
 11 13  1  0  0  0  0
 11 14  1  0  0  0  0
  9 10  1  0  0  0  0
  9 11  1  0  0  0  0
  9 22  1  0  0  0  0
  7  8  1  0  0  0  0
  7  9  1  0  0  0  0
 26 27  1  0  0  0  0
 26 28  1  0  0  0  0
 26 29  1  0  0  0  0
 24 25  1  0  0  0  0
 24 26  1  0  0  0  0
M  END
$$$$
default_name
  -OEChem-02102213163D

 29 28  0     1  0  0  0  0  0999 V2000
   -3.5781   -3.7296    1.2702 H   0  0  0  0  0  0  0  0  0  0  0  0
   -3.5311   -2.7616    0.7732 C   0  0  0  0  0  0  0  0  0  0  0  0
   -4.2371   -2.0766    1.2382 H   0  0  0  0  0  0  0  0  0  0  0  0
   -3.7681   -2.8816   -0.2818 H   0  0  0  0  0  0  0  0  0  0  0  0
   -2.1321   -2.2086    0.9112 C   0  0  0  0  0  0  0  0  0  0  0  0
   -1.2751   -2.8426    1.5112 O   0  0  0  0  0  0  0  0  0  0  0  0
   -1.9041   -1.0186    0.3602 N   0  0  0  0  0  0  0  0  0  0  0  0
   -2.6671   -0.5416   -0.0988 H   0  0  0  0  0  0  0  0  0  0  0  0
   -0.6131   -0.3236    0.3832 C   0  0  1  0  0  0  0  0  0  0  0  0
    0.0142   -0.7800    1.1506 H   0  0  0  0  0  0  0  0  0  0  0  0
    0.0816   -0.5059   -0.9788 C   0  0  0  0  0  0  0  0  0  0  0  0
    0.2560    0.4785   -1.4185 H   0  0  0  0  0  0  0  0  0  0  0  0
    1.0485   -0.9879   -0.8279 H   0  0  0  0  0  0  0  0  0  0  0  0
   -0.7320   -1.3409   -1.9743 C   0  0  0  0  0  0  0  0  0  0  0  0
   -1.7671   -1.0008   -1.9640 H   0  0  0  0  0  0  0  0  0  0  0  0
   -0.3234   -1.1901   -2.9742 H   0  0  0  0  0  0  0  0  0  0  0  0
   -0.7200   -3.1155   -1.6134 S   0  0  0  0  0  0  0  0  0  0  0  0
    1.0093   -3.4974   -1.9951 C   0  0  0  0  0  0  0  0  0  0  0  0
    1.6659   -2.9141   -1.3489 H   0  0  0  0  0  0  0  0  0  0  0  0
    1.1906   -4.5593   -1.8265 H   0  0  0  0  0  0  0  0  0  0  0  0
    1.2169   -3.2594   -3.0387 H   0  0  0  0  0  0  0  0  0  0  0  0
   -0.8064    1.1568    0.7414 C   0  0  0  0  0  0  0  0  0  0  0  0
   -1.6978    1.8100    0.2029 O   0  0  0  0  0  0  0  0  0  0  0  0
    0.0314    1.6872    1.6415 N   0  0  0  0  0  0  0  0  0  0  0  0
    0.7279    1.0858    2.0517 H   0  0  0  0  0  0  0  0  0  0  0  0
   -0.0137    3.0826    2.0755 C   0  0  0  0  0  0  0  0  0  0  0  0
   -0.9991    3.3070    2.4905 H   0  0  0  0  0  0  0  0  0  0  0  0
    0.7468    3.2694    2.8349 H   0  0  0  0  0  0  0  0  0  0  0  0
    0.1592    3.7397    1.2213 H   0  0  0  0  0  0  0  0  0  0  0  0
  5  6  2  0  0  0  0
  5  7  1  0  0  0  0
  2  3  1  0  0  0  0
  2  4  1  0  0  0  0
  2  5  1  0  0  0  0
  1  2  1  0  0  0  0
 22 23  2  0  0  0  0
 22 24  1  0  0  0  0
 18 19  1  0  0  0  0
 18 20  1  0  0  0  0
 18 21  1  0  0  0  0
 17 18  1  0  0  0  0
 14 15  1  0  0  0  0
 14 16  1  0  0  0  0
 14 17  1  0  0  0  0
 11 12  1  0  0  0  0
 11 13  1  0  0  0  0
 11 14  1  0  0  0  0
  9 10  1  0  0  0  0
  9 11  1  0  0  0  0
  9 22  1  0  0  0  0
  7  8  1  0  0  0  0
  7  9  1  0  0  0  0
 26 27  1  0  0  0  0
 26 28  1  0  0  0  0
 26 29  1  0  0  0  0
 24 25  1  0  0  0  0
 24 26  1  0  0  0  0
M  END
$$$$
default_name
  -OEChem-02102213163D

 29 28  0     1  0  0  0  0  0999 V2000
   -3.5781   -3.7296    1.2702 H   0  0  0  0  0  0  0  0  0  0  0  0
   -3.5311   -2.7616    0.7732 C   0  0  0  0  0  0  0  0  0  0  0  0
   -4.2371   -2.0766    1.2382 H   0  0  0  0  0  0  0  0  0  0  0  0
   -3.7681   -2.8816   -0.2818 H   0  0  0  0  0  0  0  0  0  0  0  0
   -2.1321   -2.2086    0.9112 C   0  0  0  0  0  0  0  0  0  0  0  0
   -1.2751   -2.8426    1.5112 O   0  0  0  0  0  0  0  0  0  0  0  0
   -1.9041   -1.0186    0.3602 N   0  0  0  0  0  0  0  0  0  0  0  0
   -2.6671   -0.5416   -0.0988 H   0  0  0  0  0  0  0  0  0  0  0  0
   -0.6131   -0.3236    0.3832 C   0  0  1  0  0  0  0  0  0  0  0  0
    0.0142   -0.7800    1.1506 H   0  0  0  0  0  0  0  0  0  0  0  0
    0.0816   -0.5059   -0.9788 C   0  0  0  0  0  0  0  0  0  0  0  0
    0.2560    0.4785   -1.4185 H   0  0  0  0  0  0  0  0  0  0  0  0
    1.0485   -0.9879   -0.8279 H   0  0  0  0  0  0  0  0  0  0  0  0
   -0.7320   -1.3409   -1.9743 C   0  0  0  0  0  0  0  0  0  0  0  0
   -1.6826   -0.8436   -2.1649 H   0  0  0  0  0  0  0  0  0  0  0  0
   -0.1773   -1.4078   -2.9109 H   0  0  0  0  0  0  0  0  0  0  0  0
   -1.0826   -3.0209   -1.3963 S   0  0  0  0  0  0  0  0  0  0  0  0
    0.5856   -3.7243   -1.4585 C   0  0  0  0  0  0  0  0  0  0  0  0
    1.2465   -3.1623   -0.7979 H   0  0  0  0  0  0  0  0  0  0  0  0
    0.5518   -4.7642   -1.1325 H   0  0  0  0  0  0  0  0  0  0  0  0
    0.9654   -3.6807   -2.4797 H   0  0  0  0  0  0  0  0  0  0  0  0
   -0.8064    1.1568    0.7414 C   0  0  0  0  0  0  0  0  0  0  0  0
   -1.6978    1.8100    0.2029 O   0  0  0  0  0  0  0  0  0  0  0  0
    0.0314    1.6872    1.6415 N   0  0  0  0  0  0  0  0  0  0  0  0
    0.7279    1.0858    2.0517 H   0  0  0  0  0  0  0  0  0  0  0  0
   -0.0137    3.0826    2.0755 C   0  0  0  0  0  0  0  0  0  0  0  0
   -0.9991    3.3070    2.4905 H   0  0  0  0  0  0  0  0  0  0  0  0
    0.7468    3.2694    2.8349 H   0  0  0  0  0  0  0  0  0  0  0  0
    0.1592    3.7397    1.2213 H   0  0  0  0  0  0  0  0  0  0  0  0
  5  6  2  0  0  0  0
  5  7  1  0  0  0  0
  2  3  1  0  0  0  0
  2  4  1  0  0  0  0
  2  5  1  0  0  0  0
  1  2  1  0  0  0  0
 22 23  2  0  0  0  0
 22 24  1  0  0  0  0
 18 19  1  0  0  0  0
 18 20  1  0  0  0  0
 18 21  1  0  0  0  0
 17 18  1  0  0  0  0
 14 15  1  0  0  0  0
 14 16  1  0  0  0  0
 14 17  1  0  0  0  0
 11 12  1  0  0  0  0
 11 13  1  0  0  0  0
 11 14  1  0  0  0  0
  9 10  1  0  0  0  0
  9 11  1  0  0  0  0
  9 22  1  0  0  0  0
  7  8  1  0  0  0  0
  7  9  1  0  0  0  0
 26 27  1  0  0  0  0
 26 28  1  0  0  0  0
 26 29  1  0  0  0  0
 24 25  1  0  0  0  0
 24 26  1  0  0  0  0
M  END
$$$$
default_name
  -OEChem-02102213163D

 29 28  0     1  0  0  0  0  0999 V2000
   -3.5781   -3.7296    1.2702 H   0  0  0  0  0  0  0  0  0  0  0  0
   -3.5311   -2.7616    0.7732 C   0  0  0  0  0  0  0  0  0  0  0  0
   -4.2371   -2.0766    1.2382 H   0  0  0  0  0  0  0  0  0  0  0  0
   -3.7681   -2.8816   -0.2818 H   0  0  0  0  0  0  0  0  0  0  0  0
   -2.1321   -2.2086    0.9112 C   0  0  0  0  0  0  0  0  0  0  0  0
   -1.2751   -2.8426    1.5112 O   0  0  0  0  0  0  0  0  0  0  0  0
   -1.9041   -1.0186    0.3602 N   0  0  0  0  0  0  0  0  0  0  0  0
   -2.6671   -0.5416   -0.0988 H   0  0  0  0  0  0  0  0  0  0  0  0
   -0.6131   -0.3236    0.3832 C   0  0  1  0  0  0  0  0  0  0  0  0
    0.0142   -0.7800    1.1506 H   0  0  0  0  0  0  0  0  0  0  0  0
    0.0816   -0.5059   -0.9788 C   0  0  0  0  0  0  0  0  0  0  0  0
    0.2560    0.4785   -1.4185 H   0  0  0  0  0  0  0  0  0  0  0  0
    1.0485   -0.9879   -0.8279 H   0  0  0  0  0  0  0  0  0  0  0  0
   -0.7320   -1.3409   -1.9743 C   0  0  0  0  0  0  0  0  0  0  0  0
   -1.5462   -0.7336   -2.3686 H   0  0  0  0  0  0  0  0  0  0  0  0
   -0.0818   -1.6339   -2.7994 H   0  0  0  0  0  0  0  0  0  0  0  0
   -1.4477   -2.8388   -1.2507 S   0  0  0  0  0  0  0  0  0  0  0  0
    0.0627   -3.7986   -0.9688 C   0  0  0  0  0  0  0  0  0  0  0  0
    0.7220   -3.2559   -0.2907 H   0  0  0  0  0  0  0  0  0  0  0  0
   -0.1975   -4.7595   -0.5240 H   0  0  0  0  0  0  0  0  0  0  0  0
    0.5728   -3.9687   -1.9173 H   0  0  0  0  0  0  0  0  0  0  0  0
   -0.8064    1.1568    0.7414 C   0  0  0  0  0  0  0  0  0  0  0  0
   -1.6978    1.8100    0.2029 O   0  0  0  0  0  0  0  0  0  0  0  0
    0.0314    1.6872    1.6415 N   0  0  0  0  0  0  0  0  0  0  0  0
    0.7279    1.0858    2.0517 H   0  0  0  0  0  0  0  0  0  0  0  0
   -0.0137    3.0826    2.0755 C   0  0  0  0  0  0  0  0  0  0  0  0
   -0.9991    3.3070    2.4905 H   0  0  0  0  0  0  0  0  0  0  0  0
    0.7468    3.2694    2.8349 H   0  0  0  0  0  0  0  0  0  0  0  0
    0.1592    3.7397    1.2213 H   0  0  0  0  0  0  0  0  0  0  0  0
  5  6  2  0  0  0  0
  5  7  1  0  0  0  0
  2  3  1  0  0  0  0
  2  4  1  0  0  0  0
  2  5  1  0  0  0  0
  1  2  1  0  0  0  0
 22 23  2  0  0  0  0
 22 24  1  0  0  0  0
 18 19  1  0  0  0  0
 18 20  1  0  0  0  0
 18 21  1  0  0  0  0
 17 18  1  0  0  0  0
 14 15  1  0  0  0  0
 14 16  1  0  0  0  0
 14 17  1  0  0  0  0
 11 12  1  0  0  0  0
 11 13  1  0  0  0  0
 11 14  1  0  0  0  0
  9 10  1  0  0  0  0
  9 11  1  0  0  0  0
  9 22  1  0  0  0  0
  7  8  1  0  0  0  0
  7  9  1  0  0  0  0
 26 27  1  0  0  0  0
 26 28  1  0  0  0  0
 26 29  1  0  0  0  0
 24 25  1  0  0  0  0
 24 26  1  0  0  0  0
M  END
$$$$
default_name
  -OEChem-02102213163D

 29 28  0     1  0  0  0  0  0999 V2000
   -3.5781   -3.7296    1.2702 H   0  0  0  0  0  0  0  0  0  0  0  0
   -3.5311   -2.7616    0.7732 C   0  0  0  0  0  0  0  0  0  0  0  0
   -4.2371   -2.0766    1.2382 H   0  0  0  0  0  0  0  0  0  0  0  0
   -3.7681   -2.8816   -0.2818 H   0  0  0  0  0  0  0  0  0  0  0  0
   -2.1321   -2.2086    0.9112 C   0  0  0  0  0  0  0  0  0  0  0  0
   -1.2751   -2.8426    1.5112 O   0  0  0  0  0  0  0  0  0  0  0  0
   -1.9041   -1.0186    0.3602 N   0  0  0  0  0  0  0  0  0  0  0  0
   -2.6671   -0.5416   -0.0988 H   0  0  0  0  0  0  0  0  0  0  0  0
   -0.6131   -0.3236    0.3832 C   0  0  1  0  0  0  0  0  0  0  0  0
    0.0142   -0.7800    1.1506 H   0  0  0  0  0  0  0  0  0  0  0  0
    0.0816   -0.5059   -0.9788 C   0  0  0  0  0  0  0  0  0  0  0  0
    0.2560    0.4785   -1.4185 H   0  0  0  0  0  0  0  0  0  0  0  0
    1.0485   -0.9879   -0.8279 H   0  0  0  0  0  0  0  0  0  0  0  0
   -0.7320   -1.3409   -1.9743 C   0  0  0  0  0  0  0  0  0  0  0  0
   -1.3673   -0.6783   -2.5613 H   0  0  0  0  0  0  0  0  0  0  0  0
   -0.0432   -1.8530   -2.6471 H   0  0  0  0  0  0  0  0  0  0  0  0
   -1.7902   -2.5816   -1.1866 S   0  0  0  0  0  0  0  0  0  0  0  0
   -0.5240   -3.7152   -0.5593 C   0  0  0  0  0  0  0  0  0  0  0  0
    0.1281   -3.1885    0.1381 H   0  0  0  0  0  0  0  0  0  0  0  0
   -1.0062   -4.5455   -0.0426 H   0  0  0  0  0  0  0  0  0  0  0  0
    0.0660   -4.1037   -1.3898 H   0  0  0  0  0  0  0  0  0  0  0  0
   -0.8064    1.1568    0.7414 C   0  0  0  0  0  0  0  0  0  0  0  0
   -1.6978    1.8100    0.2029 O   0  0  0  0  0  0  0  0  0  0  0  0
    0.0314    1.6872    1.6415 N   0  0  0  0  0  0  0  0  0  0  0  0
    0.7279    1.0858    2.0517 H   0  0  0  0  0  0  0  0  0  0  0  0
   -0.0137    3.0826    2.0755 C   0  0  0  0  0  0  0  0  0  0  0  0
   -0.9991    3.3070    2.4905 H   0  0  0  0  0  0  0  0  0  0  0  0
    0.7468    3.2694    2.8349 H   0  0  0  0  0  0  0  0  0  0  0  0
    0.1592    3.7397    1.2213 H   0  0  0  0  0  0  0  0  0  0  0  0
  5  6  2  0  0  0  0
  5  7  1  0  0  0  0
  2  3  1  0  0  0  0
  2  4  1  0  0  0  0
  2  5  1  0  0  0  0
  1  2  1  0  0  0  0
 22 23  2  0  0  0  0
 22 24  1  0  0  0  0
 18 19  1  0  0  0  0
 18 20  1  0  0  0  0
 18 21  1  0  0  0  0
 17 18  1  0  0  0  0
 14 15  1  0  0  0  0
 14 16  1  0  0  0  0
 14 17  1  0  0  0  0
 11 12  1  0  0  0  0
 11 13  1  0  0  0  0
 11 14  1  0  0  0  0
  9 10  1  0  0  0  0
  9 11  1  0  0  0  0
  9 22  1  0  0  0  0
  7  8  1  0  0  0  0
  7  9  1  0  0  0  0
 26 27  1  0  0  0  0
 26 28  1  0  0  0  0
 26 29  1  0  0  0  0
 24 25  1  0  0  0  0
 24 26  1  0  0  0  0
M  END
$$$$
default_name
  -OEChem-02102213163D

 29 28  0     1  0  0  0  0  0999 V2000
   -3.5781   -3.7296    1.2702 H   0  0  0  0  0  0  0  0  0  0  0  0
   -3.5311   -2.7616    0.7732 C   0  0  0  0  0  0  0  0  0  0  0  0
   -4.2371   -2.0766    1.2382 H   0  0  0  0  0  0  0  0  0  0  0  0
   -3.7681   -2.8816   -0.2818 H   0  0  0  0  0  0  0  0  0  0  0  0
   -2.1321   -2.2086    0.9112 C   0  0  0  0  0  0  0  0  0  0  0  0
   -1.2751   -2.8426    1.5112 O   0  0  0  0  0  0  0  0  0  0  0  0
   -1.9041   -1.0186    0.3602 N   0  0  0  0  0  0  0  0  0  0  0  0
   -2.6671   -0.5416   -0.0988 H   0  0  0  0  0  0  0  0  0  0  0  0
   -0.6131   -0.3236    0.3832 C   0  0  1  0  0  0  0  0  0  0  0  0
    0.0142   -0.7800    1.1506 H   0  0  0  0  0  0  0  0  0  0  0  0
    0.0816   -0.5059   -0.9788 C   0  0  0  0  0  0  0  0  0  0  0  0
    0.2560    0.4785   -1.4185 H   0  0  0  0  0  0  0  0  0  0  0  0
    1.0485   -0.9879   -0.8279 H   0  0  0  0  0  0  0  0  0  0  0  0
   -0.7320   -1.3409   -1.9743 C   0  0  0  0  0  0  0  0  0  0  0  0
   -1.1580   -0.6813   -2.7298 H   0  0  0  0  0  0  0  0  0  0  0  0
   -0.0642   -2.0502   -2.4645 H   0  0  0  0  0  0  0  0  0  0  0  0
   -2.0868   -2.2667   -1.2082 S   0  0  0  0  0  0  0  0  0  0  0  0
   -1.1344   -3.4798   -0.2578 C   0  0  0  0  0  0  0  0  0  0  0  0
   -0.4947   -2.9647    0.4594 H   0  0  0  0  0  0  0  0  0  0  0  0
   -1.8193   -4.1367    0.2790 H   0  0  0  0  0  0  0  0  0  0  0  0
   -0.5206   -4.0764   -0.9333 H   0  0  0  0  0  0  0  0  0  0  0  0
   -0.8064    1.1568    0.7414 C   0  0  0  0  0  0  0  0  0  0  0  0
   -1.6978    1.8100    0.2029 O   0  0  0  0  0  0  0  0  0  0  0  0
    0.0314    1.6872    1.6415 N   0  0  0  0  0  0  0  0  0  0  0  0
    0.7279    1.0858    2.0517 H   0  0  0  0  0  0  0  0  0  0  0  0
   -0.0137    3.0826    2.0755 C   0  0  0  0  0  0  0  0  0  0  0  0
   -0.9991    3.3070    2.4905 H   0  0  0  0  0  0  0  0  0  0  0  0
    0.7468    3.2694    2.8349 H   0  0  0  0  0  0  0  0  0  0  0  0
    0.1592    3.7397    1.2213 H   0  0  0  0  0  0  0  0  0  0  0  0
  5  6  2  0  0  0  0
  5  7  1  0  0  0  0
  2  3  1  0  0  0  0
  2  4  1  0  0  0  0
  2  5  1  0  0  0  0
  1  2  1  0  0  0  0
 22 23  2  0  0  0  0
 22 24  1  0  0  0  0
 18 19  1  0  0  0  0
 18 20  1  0  0  0  0
 18 21  1  0  0  0  0
 17 18  1  0  0  0  0
 14 15  1  0  0  0  0
 14 16  1  0  0  0  0
 14 17  1  0  0  0  0
 11 12  1  0  0  0  0
 11 13  1  0  0  0  0
 11 14  1  0  0  0  0
  9 10  1  0  0  0  0
  9 11  1  0  0  0  0
  9 22  1  0  0  0  0
  7  8  1  0  0  0  0
  7  9  1  0  0  0  0
 26 27  1  0  0  0  0
 26 28  1  0  0  0  0
 26 29  1  0  0  0  0
 24 25  1  0  0  0  0
 24 26  1  0  0  0  0
M  END
$$$$
default_name
  -OEChem-02102213163D

 29 28  0     1  0  0  0  0  0999 V2000
   -3.5781   -3.7296    1.2702 H   0  0  0  0  0  0  0  0  0  0  0  0
   -3.5311   -2.7616    0.7732 C   0  0  0  0  0  0  0  0  0  0  0  0
   -4.2371   -2.0766    1.2382 H   0  0  0  0  0  0  0  0  0  0  0  0
   -3.7681   -2.8816   -0.2818 H   0  0  0  0  0  0  0  0  0  0  0  0
   -2.1321   -2.2086    0.9112 C   0  0  0  0  0  0  0  0  0  0  0  0
   -1.2751   -2.8426    1.5112 O   0  0  0  0  0  0  0  0  0  0  0  0
   -1.9041   -1.0186    0.3602 N   0  0  0  0  0  0  0  0  0  0  0  0
   -2.6671   -0.5416   -0.0988 H   0  0  0  0  0  0  0  0  0  0  0  0
   -0.6131   -0.3236    0.3832 C   0  0  1  0  0  0  0  0  0  0  0  0
    0.0142   -0.7800    1.1506 H   0  0  0  0  0  0  0  0  0  0  0  0
    0.0816   -0.5059   -0.9788 C   0  0  0  0  0  0  0  0  0  0  0  0
    0.2560    0.4785   -1.4185 H   0  0  0  0  0  0  0  0  0  0  0  0
    1.0485   -0.9879   -0.8279 H   0  0  0  0  0  0  0  0  0  0  0  0
   -0.7320   -1.3409   -1.9743 C   0  0  0  0  0  0  0  0  0  0  0  0
   -0.9327   -0.7426   -2.8626 H   0  0  0  0  0  0  0  0  0  0  0  0
   -0.1435   -2.2121   -2.2639 H   0  0  0  0  0  0  0  0  0  0  0  0
   -2.3174   -1.9157   -1.3142 S   0  0  0  0  0  0  0  0  0  0  0  0
   -1.7269   -3.1084   -0.0851 C   0  0  0  0  0  0  0  0  0  0  0  0
   -1.1039   -2.5997    0.6512 H   0  0  0  0  0  0  0  0  0  0  0  0
   -2.5813   -3.5610    0.4189 H   0  0  0  0  0  0  0  0  0  0  0  0
   -1.1470   -3.8887   -0.5787 H   0  0  0  0  0  0  0  0  0  0  0  0
   -0.8064    1.1568    0.7414 C   0  0  0  0  0  0  0  0  0  0  0  0
   -1.6978    1.8100    0.2029 O   0  0  0  0  0  0  0  0  0  0  0  0
    0.0314    1.6872    1.6415 N   0  0  0  0  0  0  0  0  0  0  0  0
    0.7279    1.0858    2.0517 H   0  0  0  0  0  0  0  0  0  0  0  0
   -0.0137    3.0826    2.0755 C   0  0  0  0  0  0  0  0  0  0  0  0
   -0.9991    3.3070    2.4905 H   0  0  0  0  0  0  0  0  0  0  0  0
    0.7468    3.2694    2.8349 H   0  0  0  0  0  0  0  0  0  0  0  0
    0.1592    3.7397    1.2213 H   0  0  0  0  0  0  0  0  0  0  0  0
  5  6  2  0  0  0  0
  5  7  1  0  0  0  0
  2  3  1  0  0  0  0
  2  4  1  0  0  0  0
  2  5  1  0  0  0  0
  1  2  1  0  0  0  0
 22 23  2  0  0  0  0
 22 24  1  0  0  0  0
 18 19  1  0  0  0  0
 18 20  1  0  0  0  0
 18 21  1  0  0  0  0
 17 18  1  0  0  0  0
 14 15  1  0  0  0  0
 14 16  1  0  0  0  0
 14 17  1  0  0  0  0
 11 12  1  0  0  0  0
 11 13  1  0  0  0  0
 11 14  1  0  0  0  0
  9 10  1  0  0  0  0
  9 11  1  0  0  0  0
  9 22  1  0  0  0  0
  7  8  1  0  0  0  0
  7  9  1  0  0  0  0
 26 27  1  0  0  0  0
 26 28  1  0  0  0  0
 26 29  1  0  0  0  0
 24 25  1  0  0  0  0
 24 26  1  0  0  0  0
M  END
$$$$
default_name
  -OEChem-02102213163D

 29 28  0     1  0  0  0  0  0999 V2000
   -3.5781   -3.7296    1.2702 H   0  0  0  0  0  0  0  0  0  0  0  0
   -3.5311   -2.7616    0.7732 C   0  0  0  0  0  0  0  0  0  0  0  0
   -4.2371   -2.0766    1.2382 H   0  0  0  0  0  0  0  0  0  0  0  0
   -3.7681   -2.8816   -0.2818 H   0  0  0  0  0  0  0  0  0  0  0  0
   -2.1321   -2.2086    0.9112 C   0  0  0  0  0  0  0  0  0  0  0  0
   -1.2751   -2.8426    1.5112 O   0  0  0  0  0  0  0  0  0  0  0  0
   -1.9041   -1.0186    0.3602 N   0  0  0  0  0  0  0  0  0  0  0  0
   -2.6671   -0.5416   -0.0988 H   0  0  0  0  0  0  0  0  0  0  0  0
   -0.6131   -0.3236    0.3832 C   0  0  1  0  0  0  0  0  0  0  0  0
    0.0142   -0.7800    1.1506 H   0  0  0  0  0  0  0  0  0  0  0  0
    0.0816   -0.5059   -0.9788 C   0  0  0  0  0  0  0  0  0  0  0  0
    0.2560    0.4785   -1.4185 H   0  0  0  0  0  0  0  0  0  0  0  0
    1.0485   -0.9879   -0.8279 H   0  0  0  0  0  0  0  0  0  0  0  0
   -0.7320   -1.3409   -1.9743 C   0  0  0  0  0  0  0  0  0  0  0  0
   -0.7065   -0.8579   -2.9507 H   0  0  0  0  0  0  0  0  0  0  0  0
   -0.2754   -2.3276   -2.0592 H   0  0  0  0  0  0  0  0  0  0  0  0
   -2.4662   -1.5525   -1.4973 S   0  0  0  0  0  0  0  0  0  0  0  0
   -2.2612   -2.6264   -0.0528 C   0  0  0  0  0  0  0  0  0  0  0  0
   -1.6581   -2.1184    0.7004 H   0  0  0  0  0  0  0  0  0  0  0  0
   -3.2403   -2.8576    0.3676 H   0  0  0  0  0  0  0  0  0  0  0  0
   -1.7705   -3.5535   -0.3503 H   0  0  0  0  0  0  0  0  0  0  0  0
   -0.8064    1.1568    0.7414 C   0  0  0  0  0  0  0  0  0  0  0  0
   -1.6978    1.8100    0.2029 O   0  0  0  0  0  0  0  0  0  0  0  0
    0.0314    1.6872    1.6415 N   0  0  0  0  0  0  0  0  0  0  0  0
    0.7279    1.0858    2.0517 H   0  0  0  0  0  0  0  0  0  0  0  0
   -0.0137    3.0826    2.0755 C   0  0  0  0  0  0  0  0  0  0  0  0
   -0.9991    3.3070    2.4905 H   0  0  0  0  0  0  0  0  0  0  0  0
    0.7468    3.2694    2.8349 H   0  0  0  0  0  0  0  0  0  0  0  0
    0.1592    3.7397    1.2213 H   0  0  0  0  0  0  0  0  0  0  0  0
  5  6  2  0  0  0  0
  5  7  1  0  0  0  0
  2  3  1  0  0  0  0
  2  4  1  0  0  0  0
  2  5  1  0  0  0  0
  1  2  1  0  0  0  0
 22 23  2  0  0  0  0
 22 24  1  0  0  0  0
 18 19  1  0  0  0  0
 18 20  1  0  0  0  0
 18 21  1  0  0  0  0
 17 18  1  0  0  0  0
 14 15  1  0  0  0  0
 14 16  1  0  0  0  0
 14 17  1  0  0  0  0
 11 12  1  0  0  0  0
 11 13  1  0  0  0  0
 11 14  1  0  0  0  0
  9 10  1  0  0  0  0
  9 11  1  0  0  0  0
  9 22  1  0  0  0  0
  7  8  1  0  0  0  0
  7  9  1  0  0  0  0
 26 27  1  0  0  0  0
 26 28  1  0  0  0  0
 26 29  1  0  0  0  0
 24 25  1  0  0  0  0
 24 26  1  0  0  0  0
M  END
$$$$
default_name
  -OEChem-02102213163D

 29 28  0     1  0  0  0  0  0999 V2000
   -3.5781   -3.7296    1.2702 H   0  0  0  0  0  0  0  0  0  0  0  0
   -3.5311   -2.7616    0.7732 C   0  0  0  0  0  0  0  0  0  0  0  0
   -4.2371   -2.0766    1.2382 H   0  0  0  0  0  0  0  0  0  0  0  0
   -3.7681   -2.8816   -0.2818 H   0  0  0  0  0  0  0  0  0  0  0  0
   -2.1321   -2.2086    0.9112 C   0  0  0  0  0  0  0  0  0  0  0  0
   -1.2751   -2.8426    1.5112 O   0  0  0  0  0  0  0  0  0  0  0  0
   -1.9041   -1.0186    0.3602 N   0  0  0  0  0  0  0  0  0  0  0  0
   -2.6671   -0.5416   -0.0988 H   0  0  0  0  0  0  0  0  0  0  0  0
   -0.6131   -0.3236    0.3832 C   0  0  1  0  0  0  0  0  0  0  0  0
    0.0142   -0.7800    1.1506 H   0  0  0  0  0  0  0  0  0  0  0  0
    0.0816   -0.5059   -0.9788 C   0  0  0  0  0  0  0  0  0  0  0  0
    0.2560    0.4785   -1.4185 H   0  0  0  0  0  0  0  0  0  0  0  0
    1.0485   -0.9879   -0.8279 H   0  0  0  0  0  0  0  0  0  0  0  0
   -0.7320   -1.3409   -1.9743 C   0  0  0  0  0  0  0  0  0  0  0  0
   -0.4950   -1.0194   -2.9881 H   0  0  0  0  0  0  0  0  0  0  0  0
   -0.4512   -2.3889   -1.8641 H   0  0  0  0  0  0  0  0  0  0  0  0
   -2.5230   -1.2018   -1.7450 S   0  0  0  0  0  0  0  0  0  0  0  0
   -2.7008   -2.0665   -0.1631 C   0  0  0  0  0  0  0  0  0  0  0  0
   -2.1194   -1.5536    0.6037 H   0  0  0  0  0  0  0  0  0  0  0  0
   -3.7514   -2.0745    0.1284 H   0  0  0  0  0  0  0  0  0  0  0  0
   -2.3486   -3.0935   -0.2637 H   0  0  0  0  0  0  0  0  0  0  0  0
   -0.8064    1.1568    0.7414 C   0  0  0  0  0  0  0  0  0  0  0  0
   -1.6978    1.8100    0.2029 O   0  0  0  0  0  0  0  0  0  0  0  0
    0.0314    1.6872    1.6415 N   0  0  0  0  0  0  0  0  0  0  0  0
    0.7279    1.0858    2.0517 H   0  0  0  0  0  0  0  0  0  0  0  0
   -0.0137    3.0826    2.0755 C   0  0  0  0  0  0  0  0  0  0  0  0
   -0.9991    3.3070    2.4905 H   0  0  0  0  0  0  0  0  0  0  0  0
    0.7468    3.2694    2.8349 H   0  0  0  0  0  0  0  0  0  0  0  0
    0.1592    3.7397    1.2213 H   0  0  0  0  0  0  0  0  0  0  0  0
  5  6  2  0  0  0  0
  5  7  1  0  0  0  0
  2  3  1  0  0  0  0
  2  4  1  0  0  0  0
  2  5  1  0  0  0  0
  1  2  1  0  0  0  0
 22 23  2  0  0  0  0
 22 24  1  0  0  0  0
 18 19  1  0  0  0  0
 18 20  1  0  0  0  0
 18 21  1  0  0  0  0
 17 18  1  0  0  0  0
 14 15  1  0  0  0  0
 14 16  1  0  0  0  0
 14 17  1  0  0  0  0
 11 12  1  0  0  0  0
 11 13  1  0  0  0  0
 11 14  1  0  0  0  0
  9 10  1  0  0  0  0
  9 11  1  0  0  0  0
  9 22  1  0  0  0  0
  7  8  1  0  0  0  0
  7  9  1  0  0  0  0
 26 27  1  0  0  0  0
 26 28  1  0  0  0  0
 26 29  1  0  0  0  0
 24 25  1  0  0  0  0
 24 26  1  0  0  0  0
M  END
$$$$
default_name
  -OEChem-02102213163D

 29 28  0     1  0  0  0  0  0999 V2000
   -3.5781   -3.7296    1.2702 H   0  0  0  0  0  0  0  0  0  0  0  0
   -3.5311   -2.7616    0.7732 C   0  0  0  0  0  0  0  0  0  0  0  0
   -4.2371   -2.0766    1.2382 H   0  0  0  0  0  0  0  0  0  0  0  0
   -3.7681   -2.8816   -0.2818 H   0  0  0  0  0  0  0  0  0  0  0  0
   -2.1321   -2.2086    0.9112 C   0  0  0  0  0  0  0  0  0  0  0  0
   -1.2751   -2.8426    1.5112 O   0  0  0  0  0  0  0  0  0  0  0  0
   -1.9041   -1.0186    0.3602 N   0  0  0  0  0  0  0  0  0  0  0  0
   -2.6671   -0.5416   -0.0988 H   0  0  0  0  0  0  0  0  0  0  0  0
   -0.6131   -0.3236    0.3832 C   0  0  1  0  0  0  0  0  0  0  0  0
    0.0142   -0.7800    1.1506 H   0  0  0  0  0  0  0  0  0  0  0  0
    0.0816   -0.5059   -0.9788 C   0  0  0  0  0  0  0  0  0  0  0  0
    0.2560    0.4785   -1.4185 H   0  0  0  0  0  0  0  0  0  0  0  0
    1.0485   -0.9879   -0.8279 H   0  0  0  0  0  0  0  0  0  0  0  0
   -0.7320   -1.3409   -1.9743 C   0  0  0  0  0  0  0  0  0  0  0  0
   -0.3126   -1.2161   -2.9722 H   0  0  0  0  0  0  0  0  0  0  0  0
   -0.6588   -2.3918   -1.6921 H   0  0  0  0  0  0  0  0  0  0  0  0
   -2.4841   -0.8875   -2.0404 S   0  0  0  0  0  0  0  0  0  0  0  0
   -3.0158   -1.4670   -0.4085 C   0  0  0  0  0  0  0  0  0  0  0  0
   -2.4564   -0.9438    0.3677 H   0  0  0  0  0  0  0  0  0  0  0  0
   -4.0798   -1.2650   -0.2822 H   0  0  0  0  0  0  0  0  0  0  0  0
   -2.8420   -2.5401   -0.3246 H   0  0  0  0  0  0  0  0  0  0  0  0
   -0.8064    1.1568    0.7414 C   0  0  0  0  0  0  0  0  0  0  0  0
   -1.6978    1.8100    0.2029 O   0  0  0  0  0  0  0  0  0  0  0  0
    0.0314    1.6872    1.6415 N   0  0  0  0  0  0  0  0  0  0  0  0
    0.7279    1.0858    2.0517 H   0  0  0  0  0  0  0  0  0  0  0  0
   -0.0137    3.0826    2.0755 C   0  0  0  0  0  0  0  0  0  0  0  0
   -0.9991    3.3070    2.4905 H   0  0  0  0  0  0  0  0  0  0  0  0
    0.7468    3.2694    2.8349 H   0  0  0  0  0  0  0  0  0  0  0  0
    0.1592    3.7397    1.2213 H   0  0  0  0  0  0  0  0  0  0  0  0
  5  6  2  0  0  0  0
  5  7  1  0  0  0  0
  2  3  1  0  0  0  0
  2  4  1  0  0  0  0
  2  5  1  0  0  0  0
  1  2  1  0  0  0  0
 22 23  2  0  0  0  0
 22 24  1  0  0  0  0
 18 19  1  0  0  0  0
 18 20  1  0  0  0  0
 18 21  1  0  0  0  0
 17 18  1  0  0  0  0
 14 15  1  0  0  0  0
 14 16  1  0  0  0  0
 14 17  1  0  0  0  0
 11 12  1  0  0  0  0
 11 13  1  0  0  0  0
 11 14  1  0  0  0  0
  9 10  1  0  0  0  0
  9 11  1  0  0  0  0
  9 22  1  0  0  0  0
  7  8  1  0  0  0  0
  7  9  1  0  0  0  0
 26 27  1  0  0  0  0
 26 28  1  0  0  0  0
 26 29  1  0  0  0  0
 24 25  1  0  0  0  0
 24 26  1  0  0  0  0
M  END
$$$$
default_name
  -OEChem-02102213163D

 29 28  0     1  0  0  0  0  0999 V2000
   -3.5781   -3.7296    1.2702 H   0  0  0  0  0  0  0  0  0  0  0  0
   -3.5311   -2.7616    0.7732 C   0  0  0  0  0  0  0  0  0  0  0  0
   -4.2371   -2.0766    1.2382 H   0  0  0  0  0  0  0  0  0  0  0  0
   -3.7681   -2.8816   -0.2818 H   0  0  0  0  0  0  0  0  0  0  0  0
   -2.1321   -2.2086    0.9112 C   0  0  0  0  0  0  0  0  0  0  0  0
   -1.2751   -2.8426    1.5112 O   0  0  0  0  0  0  0  0  0  0  0  0
   -1.9041   -1.0186    0.3602 N   0  0  0  0  0  0  0  0  0  0  0  0
   -2.6671   -0.5416   -0.0988 H   0  0  0  0  0  0  0  0  0  0  0  0
   -0.6131   -0.3236    0.3832 C   0  0  1  0  0  0  0  0  0  0  0  0
    0.0142   -0.7800    1.1506 H   0  0  0  0  0  0  0  0  0  0  0  0
    0.0816   -0.5059   -0.9788 C   0  0  0  0  0  0  0  0  0  0  0  0
    0.2560    0.4785   -1.4185 H   0  0  0  0  0  0  0  0  0  0  0  0
    1.0485   -0.9879   -0.8279 H   0  0  0  0  0  0  0  0  0  0  0  0
   -0.7320   -1.3409   -1.9743 C   0  0  0  0  0  0  0  0  0  0  0  0
   -0.1718   -1.4345   -2.9041 H   0  0  0  0  0  0  0  0  0  0  0  0
   -0.8840   -2.3360   -1.5548 H   0  0  0  0  0  0  0  0  0  0  0  0
   -2.3520   -0.6310   -2.3635 S   0  0  0  0  0  0  0  0  0  0  0  0
   -3.1847   -0.8687   -0.7723 C   0  0  0  0  0  0  0  0  0  0  0  0
   -2.6462   -0.3306    0.0084 H   0  0  0  0  0  0  0  0  0  0  0  0
   -4.2030   -0.4844   -0.8363 H   0  0  0  0  0  0  0  0  0  0  0  0
   -3.2169   -1.9311   -0.5291 H   0  0  0  0  0  0  0  0  0  0  0  0
   -0.8064    1.1568    0.7414 C   0  0  0  0  0  0  0  0  0  0  0  0
   -1.6978    1.8100    0.2029 O   0  0  0  0  0  0  0  0  0  0  0  0
    0.0314    1.6872    1.6415 N   0  0  0  0  0  0  0  0  0  0  0  0
    0.7279    1.0858    2.0517 H   0  0  0  0  0  0  0  0  0  0  0  0
   -0.0137    3.0826    2.0755 C   0  0  0  0  0  0  0  0  0  0  0  0
   -0.9991    3.3070    2.4905 H   0  0  0  0  0  0  0  0  0  0  0  0
    0.7468    3.2694    2.8349 H   0  0  0  0  0  0  0  0  0  0  0  0
    0.1592    3.7397    1.2213 H   0  0  0  0  0  0  0  0  0  0  0  0
  5  6  2  0  0  0  0
  5  7  1  0  0  0  0
  2  3  1  0  0  0  0
  2  4  1  0  0  0  0
  2  5  1  0  0  0  0
  1  2  1  0  0  0  0
 22 23  2  0  0  0  0
 22 24  1  0  0  0  0
 18 19  1  0  0  0  0
 18 20  1  0  0  0  0
 18 21  1  0  0  0  0
 17 18  1  0  0  0  0
 14 15  1  0  0  0  0
 14 16  1  0  0  0  0
 14 17  1  0  0  0  0
 11 12  1  0  0  0  0
 11 13  1  0  0  0  0
 11 14  1  0  0  0  0
  9 10  1  0  0  0  0
  9 11  1  0  0  0  0
  9 22  1  0  0  0  0
  7  8  1  0  0  0  0
  7  9  1  0  0  0  0
 26 27  1  0  0  0  0
 26 28  1  0  0  0  0
 26 29  1  0  0  0  0
 24 25  1  0  0  0  0
 24 26  1  0  0  0  0
M  END
$$$$
default_name
  -OEChem-02102213163D

 29 28  0     1  0  0  0  0  0999 V2000
   -3.5781   -3.7296    1.2702 H   0  0  0  0  0  0  0  0  0  0  0  0
   -3.5311   -2.7616    0.7732 C   0  0  0  0  0  0  0  0  0  0  0  0
   -4.2371   -2.0766    1.2382 H   0  0  0  0  0  0  0  0  0  0  0  0
   -3.7681   -2.8816   -0.2818 H   0  0  0  0  0  0  0  0  0  0  0  0
   -2.1321   -2.2086    0.9112 C   0  0  0  0  0  0  0  0  0  0  0  0
   -1.2751   -2.8426    1.5112 O   0  0  0  0  0  0  0  0  0  0  0  0
   -1.9041   -1.0186    0.3602 N   0  0  0  0  0  0  0  0  0  0  0  0
   -2.6671   -0.5416   -0.0988 H   0  0  0  0  0  0  0  0  0  0  0  0
   -0.6131   -0.3236    0.3832 C   0  0  1  0  0  0  0  0  0  0  0  0
    0.0142   -0.7800    1.1506 H   0  0  0  0  0  0  0  0  0  0  0  0
    0.0816   -0.5059   -0.9788 C   0  0  0  0  0  0  0  0  0  0  0  0
    0.2560    0.4785   -1.4185 H   0  0  0  0  0  0  0  0  0  0  0  0
    1.0485   -0.9879   -0.8279 H   0  0  0  0  0  0  0  0  0  0  0  0
   -0.7320   -1.3409   -1.9743 C   0  0  0  0  0  0  0  0  0  0  0  0
   -0.0820   -1.6598   -2.7885 H   0  0  0  0  0  0  0  0  0  0  0  0
   -1.1116   -2.2254   -1.4616 H   0  0  0  0  0  0  0  0  0  0  0  0
   -2.1358   -0.4499   -2.6922 S   0  0  0  0  0  0  0  0  0  0  0  0
   -3.1960   -0.3124   -1.2297 C   0  0  0  0  0  0  0  0  0  0  0  0
   -2.6759    0.2443   -0.4496 H   0  0  0  0  0  0  0  0  0  0  0  0
   -4.1127    0.2143   -1.4961 H   0  0  0  0  0  0  0  0  0  0  0  0
   -3.4478   -1.3079   -0.8631 H   0  0  0  0  0  0  0  0  0  0  0  0
   -0.8064    1.1568    0.7414 C   0  0  0  0  0  0  0  0  0  0  0  0
   -1.6978    1.8100    0.2029 O   0  0  0  0  0  0  0  0  0  0  0  0
    0.0314    1.6872    1.6415 N   0  0  0  0  0  0  0  0  0  0  0  0
    0.7279    1.0858    2.0517 H   0  0  0  0  0  0  0  0  0  0  0  0
   -0.0137    3.0826    2.0755 C   0  0  0  0  0  0  0  0  0  0  0  0
   -0.9991    3.3070    2.4905 H   0  0  0  0  0  0  0  0  0  0  0  0
    0.7468    3.2694    2.8349 H   0  0  0  0  0  0  0  0  0  0  0  0
    0.1592    3.7397    1.2213 H   0  0  0  0  0  0  0  0  0  0  0  0
  5  6  2  0  0  0  0
  5  7  1  0  0  0  0
  2  3  1  0  0  0  0
  2  4  1  0  0  0  0
  2  5  1  0  0  0  0
  1  2  1  0  0  0  0
 22 23  2  0  0  0  0
 22 24  1  0  0  0  0
 18 19  1  0  0  0  0
 18 20  1  0  0  0  0
 18 21  1  0  0  0  0
 17 18  1  0  0  0  0
 14 15  1  0  0  0  0
 14 16  1  0  0  0  0
 14 17  1  0  0  0  0
 11 12  1  0  0  0  0
 11 13  1  0  0  0  0
 11 14  1  0  0  0  0
  9 10  1  0  0  0  0
  9 11  1  0  0  0  0
  9 22  1  0  0  0  0
  7  8  1  0  0  0  0
  7  9  1  0  0  0  0
 26 27  1  0  0  0  0
 26 28  1  0  0  0  0
 26 29  1  0  0  0  0
 24 25  1  0  0  0  0
 24 26  1  0  0  0  0
M  END
$$$$
default_name
  -OEChem-02102213163D

 29 28  0     1  0  0  0  0  0999 V2000
   -3.5781   -3.7296    1.2702 H   0  0  0  0  0  0  0  0  0  0  0  0
   -3.5311   -2.7616    0.7732 C   0  0  0  0  0  0  0  0  0  0  0  0
   -4.2371   -2.0766    1.2382 H   0  0  0  0  0  0  0  0  0  0  0  0
   -3.7681   -2.8816   -0.2818 H   0  0  0  0  0  0  0  0  0  0  0  0
   -2.1321   -2.2086    0.9112 C   0  0  0  0  0  0  0  0  0  0  0  0
   -1.2751   -2.8426    1.5112 O   0  0  0  0  0  0  0  0  0  0  0  0
   -1.9041   -1.0186    0.3602 N   0  0  0  0  0  0  0  0  0  0  0  0
   -2.6671   -0.5416   -0.0988 H   0  0  0  0  0  0  0  0  0  0  0  0
   -0.6131   -0.3236    0.3832 C   0  0  1  0  0  0  0  0  0  0  0  0
    0.0142   -0.7800    1.1506 H   0  0  0  0  0  0  0  0  0  0  0  0
    0.0816   -0.5059   -0.9788 C   0  0  0  0  0  0  0  0  0  0  0  0
    0.2560    0.4785   -1.4185 H   0  0  0  0  0  0  0  0  0  0  0  0
    1.0485   -0.9879   -0.8279 H   0  0  0  0  0  0  0  0  0  0  0  0
   -0.7320   -1.3409   -1.9743 C   0  0  0  0  0  0  0  0  0  0  0  0
   -0.0494   -1.8767   -2.6332 H   0  0  0  0  0  0  0  0  0  0  0  0
   -1.3259   -2.0675   -1.4188 H   0  0  0  0  0  0  0  0  0  0  0  0
   -1.8501   -0.3564   -3.0041 S   0  0  0  0  0  0  0  0  0  0  0  0
   -3.0489    0.1641   -1.7495 C   0  0  0  0  0  0  0  0  0  0  0  0
   -2.5433    0.7417   -0.9751 H   0  0  0  0  0  0  0  0  0  0  0  0
   -3.8151    0.7834   -2.2167 H   0  0  0  0  0  0  0  0  0  0  0  0
   -3.5191   -0.7129   -1.3039 H   0  0  0  0  0  0  0  0  0  0  0  0
   -0.8064    1.1568    0.7414 C   0  0  0  0  0  0  0  0  0  0  0  0
   -1.6978    1.8100    0.2029 O   0  0  0  0  0  0  0  0  0  0  0  0
    0.0314    1.6872    1.6415 N   0  0  0  0  0  0  0  0  0  0  0  0
    0.7279    1.0858    2.0517 H   0  0  0  0  0  0  0  0  0  0  0  0
   -0.0137    3.0826    2.0755 C   0  0  0  0  0  0  0  0  0  0  0  0
   -0.9991    3.3070    2.4905 H   0  0  0  0  0  0  0  0  0  0  0  0
    0.7468    3.2694    2.8349 H   0  0  0  0  0  0  0  0  0  0  0  0
    0.1592    3.7397    1.2213 H   0  0  0  0  0  0  0  0  0  0  0  0
  5  6  2  0  0  0  0
  5  7  1  0  0  0  0
  2  3  1  0  0  0  0
  2  4  1  0  0  0  0
  2  5  1  0  0  0  0
  1  2  1  0  0  0  0
 22 23  2  0  0  0  0
 22 24  1  0  0  0  0
 18 19  1  0  0  0  0
 18 20  1  0  0  0  0
 18 21  1  0  0  0  0
 17 18  1  0  0  0  0
 14 15  1  0  0  0  0
 14 16  1  0  0  0  0
 14 17  1  0  0  0  0
 11 12  1  0  0  0  0
 11 13  1  0  0  0  0
 11 14  1  0  0  0  0
  9 10  1  0  0  0  0
  9 11  1  0  0  0  0
  9 22  1  0  0  0  0
  7  8  1  0  0  0  0
  7  9  1  0  0  0  0
 26 27  1  0  0  0  0
 26 28  1  0  0  0  0
 26 29  1  0  0  0  0
 24 25  1  0  0  0  0
 24 26  1  0  0  0  0
M  END
$$$$
default_name
  -OEChem-02102213163D

 29 28  0     1  0  0  0  0  0999 V2000
   -3.5781   -3.7296    1.2702 H   0  0  0  0  0  0  0  0  0  0  0  0
   -3.5311   -2.7616    0.7732 C   0  0  0  0  0  0  0  0  0  0  0  0
   -4.2371   -2.0766    1.2382 H   0  0  0  0  0  0  0  0  0  0  0  0
   -3.7681   -2.8816   -0.2818 H   0  0  0  0  0  0  0  0  0  0  0  0
   -2.1321   -2.2086    0.9112 C   0  0  0  0  0  0  0  0  0  0  0  0
   -1.2751   -2.8426    1.5112 O   0  0  0  0  0  0  0  0  0  0  0  0
   -1.9041   -1.0186    0.3602 N   0  0  0  0  0  0  0  0  0  0  0  0
   -2.6671   -0.5416   -0.0988 H   0  0  0  0  0  0  0  0  0  0  0  0
   -0.6131   -0.3236    0.3832 C   0  0  1  0  0  0  0  0  0  0  0  0
    0.0142   -0.7800    1.1506 H   0  0  0  0  0  0  0  0  0  0  0  0
    0.0816   -0.5059   -0.9788 C   0  0  0  0  0  0  0  0  0  0  0  0
    0.2560    0.4785   -1.4185 H   0  0  0  0  0  0  0  0  0  0  0  0
    1.0485   -0.9879   -0.8279 H   0  0  0  0  0  0  0  0  0  0  0  0
   -0.7320   -1.3409   -1.9743 C   0  0  0  0  0  0  0  0  0  0  0  0
   -0.0763   -2.0703   -2.4488 H   0  0  0  0  0  0  0  0  0  0  0  0
   -1.5125   -1.8732   -1.4294 H   0  0  0  0  0  0  0  0  0  0  0  0
   -1.5145   -0.3570   -3.2779 S   0  0  0  0  0  0  0  0  0  0  0  0
   -2.7535    0.5281   -2.2964 C   0  0  0  0  0  0  0  0  0  0  0  0
   -2.2576    1.1276   -1.5324 H   0  0  0  0  0  0  0  0  0  0  0  0
   -3.3304    1.1840   -2.9490 H   0  0  0  0  0  0  0  0  0  0  0  0
   -3.4258   -0.1869   -1.8214 H   0  0  0  0  0  0  0  0  0  0  0  0
   -0.8064    1.1568    0.7414 C   0  0  0  0  0  0  0  0  0  0  0  0
   -1.6978    1.8100    0.2029 O   0  0  0  0  0  0  0  0  0  0  0  0
    0.0314    1.6872    1.6415 N   0  0  0  0  0  0  0  0  0  0  0  0
    0.7279    1.0858    2.0517 H   0  0  0  0  0  0  0  0  0  0  0  0
   -0.0137    3.0826    2.0755 C   0  0  0  0  0  0  0  0  0  0  0  0
   -0.9991    3.3070    2.4905 H   0  0  0  0  0  0  0  0  0  0  0  0
    0.7468    3.2694    2.8349 H   0  0  0  0  0  0  0  0  0  0  0  0
    0.1592    3.7397    1.2213 H   0  0  0  0  0  0  0  0  0  0  0  0
  5  6  2  0  0  0  0
  5  7  1  0  0  0  0
  2  3  1  0  0  0  0
  2  4  1  0  0  0  0
  2  5  1  0  0  0  0
  1  2  1  0  0  0  0
 22 23  2  0  0  0  0
 22 24  1  0  0  0  0
 18 19  1  0  0  0  0
 18 20  1  0  0  0  0
 18 21  1  0  0  0  0
 17 18  1  0  0  0  0
 14 15  1  0  0  0  0
 14 16  1  0  0  0  0
 14 17  1  0  0  0  0
 11 12  1  0  0  0  0
 11 13  1  0  0  0  0
 11 14  1  0  0  0  0
  9 10  1  0  0  0  0
  9 11  1  0  0  0  0
  9 22  1  0  0  0  0
  7  8  1  0  0  0  0
  7  9  1  0  0  0  0
 26 27  1  0  0  0  0
 26 28  1  0  0  0  0
 26 29  1  0  0  0  0
 24 25  1  0  0  0  0
 24 26  1  0  0  0  0
M  END
$$$$
default_name
  -OEChem-02102213163D

 29 28  0     1  0  0  0  0  0999 V2000
   -3.5781   -3.7296    1.2702 H   0  0  0  0  0  0  0  0  0  0  0  0
   -3.5311   -2.7616    0.7732 C   0  0  0  0  0  0  0  0  0  0  0  0
   -4.2371   -2.0766    1.2382 H   0  0  0  0  0  0  0  0  0  0  0  0
   -3.7681   -2.8816   -0.2818 H   0  0  0  0  0  0  0  0  0  0  0  0
   -2.1321   -2.2086    0.9112 C   0  0  0  0  0  0  0  0  0  0  0  0
   -1.2751   -2.8426    1.5112 O   0  0  0  0  0  0  0  0  0  0  0  0
   -1.9041   -1.0186    0.3602 N   0  0  0  0  0  0  0  0  0  0  0  0
   -2.6671   -0.5416   -0.0988 H   0  0  0  0  0  0  0  0  0  0  0  0
   -0.6131   -0.3236    0.3832 C   0  0  1  0  0  0  0  0  0  0  0  0
    0.0142   -0.7800    1.1506 H   0  0  0  0  0  0  0  0  0  0  0  0
    0.0816   -0.5059   -0.9788 C   0  0  0  0  0  0  0  0  0  0  0  0
    0.2560    0.4785   -1.4185 H   0  0  0  0  0  0  0  0  0  0  0  0
    1.0485   -0.9879   -0.8279 H   0  0  0  0  0  0  0  0  0  0  0  0
   -0.7320   -1.3409   -1.9743 C   0  0  0  0  0  0  0  0  0  0  0  0
   -0.1608   -2.2274   -2.2479 H   0  0  0  0  0  0  0  0  0  0  0  0
   -1.6585   -1.6555   -1.4926 H   0  0  0  0  0  0  0  0  0  0  0  0
   -1.1519   -0.4515   -3.4950 S   0  0  0  0  0  0  0  0  0  0  0  0
   -2.3299    0.7551   -2.8329 C   0  0  0  0  0  0  0  0  0  0  0  0
   -1.8382    1.3759   -2.0834 H   0  0  0  0  0  0  0  0  0  0  0  0
   -2.6916    1.3890   -3.6430 H   0  0  0  0  0  0  0  0  0  0  0  0
   -3.1743    0.2345   -2.3804 H   0  0  0  0  0  0  0  0  0  0  0  0
   -0.8064    1.1568    0.7414 C   0  0  0  0  0  0  0  0  0  0  0  0
   -1.6978    1.8100    0.2029 O   0  0  0  0  0  0  0  0  0  0  0  0
    0.0314    1.6872    1.6415 N   0  0  0  0  0  0  0  0  0  0  0  0
    0.7279    1.0858    2.0517 H   0  0  0  0  0  0  0  0  0  0  0  0
   -0.0137    3.0826    2.0755 C   0  0  0  0  0  0  0  0  0  0  0  0
   -0.9991    3.3070    2.4905 H   0  0  0  0  0  0  0  0  0  0  0  0
    0.7468    3.2694    2.8349 H   0  0  0  0  0  0  0  0  0  0  0  0
    0.1592    3.7397    1.2213 H   0  0  0  0  0  0  0  0  0  0  0  0
  5  6  2  0  0  0  0
  5  7  1  0  0  0  0
  2  3  1  0  0  0  0
  2  4  1  0  0  0  0
  2  5  1  0  0  0  0
  1  2  1  0  0  0  0
 22 23  2  0  0  0  0
 22 24  1  0  0  0  0
 18 19  1  0  0  0  0
 18 20  1  0  0  0  0
 18 21  1  0  0  0  0
 17 18  1  0  0  0  0
 14 15  1  0  0  0  0
 14 16  1  0  0  0  0
 14 17  1  0  0  0  0
 11 12  1  0  0  0  0
 11 13  1  0  0  0  0
 11 14  1  0  0  0  0
  9 10  1  0  0  0  0
  9 11  1  0  0  0  0
  9 22  1  0  0  0  0
  7  8  1  0  0  0  0
  7  9  1  0  0  0  0
 26 27  1  0  0  0  0
 26 28  1  0  0  0  0
 26 29  1  0  0  0  0
 24 25  1  0  0  0  0
 24 26  1  0  0  0  0
M  END
$$$$
default_name
  -OEChem-02102213163D

 29 28  0     1  0  0  0  0  0999 V2000
   -3.5781   -3.7296    1.2702 H   0  0  0  0  0  0  0  0  0  0  0  0
   -3.5311   -2.7616    0.7732 C   0  0  0  0  0  0  0  0  0  0  0  0
   -4.2371   -2.0766    1.2382 H   0  0  0  0  0  0  0  0  0  0  0  0
   -3.7681   -2.8816   -0.2818 H   0  0  0  0  0  0  0  0  0  0  0  0
   -2.1321   -2.2086    0.9112 C   0  0  0  0  0  0  0  0  0  0  0  0
   -1.2751   -2.8426    1.5112 O   0  0  0  0  0  0  0  0  0  0  0  0
   -1.9041   -1.0186    0.3602 N   0  0  0  0  0  0  0  0  0  0  0  0
   -2.6671   -0.5416   -0.0988 H   0  0  0  0  0  0  0  0  0  0  0  0
   -0.6131   -0.3236    0.3832 C   0  0  1  0  0  0  0  0  0  0  0  0
    0.0142   -0.7800    1.1506 H   0  0  0  0  0  0  0  0  0  0  0  0
    0.0816   -0.5059   -0.9788 C   0  0  0  0  0  0  0  0  0  0  0  0
    0.2560    0.4785   -1.4185 H   0  0  0  0  0  0  0  0  0  0  0  0
    1.0485   -0.9879   -0.8279 H   0  0  0  0  0  0  0  0  0  0  0  0
   -0.7320   -1.3409   -1.9743 C   0  0  0  0  0  0  0  0  0  0  0  0
   -0.2972   -2.3374   -2.0442 H   0  0  0  0  0  0  0  0  0  0  0  0
   -1.7540   -1.4294   -1.6041 H   0  0  0  0  0  0  0  0  0  0  0  0
   -0.7868   -0.6336   -3.6406 S   0  0  0  0  0  0  0  0  0  0  0  0
   -1.8069    0.8293   -3.3227 C   0  0  0  0  0  0  0  0  0  0  0  0
   -1.3137    1.4695   -2.5906 H   0  0  0  0  0  0  0  0  0  0  0  0
   -1.9423    1.3843   -4.2514 H   0  0  0  0  0  0  0  0  0  0  0  0
   -2.7818    0.5225   -2.9428 H   0  0  0  0  0  0  0  0  0  0  0  0
   -0.8064    1.1568    0.7414 C   0  0  0  0  0  0  0  0  0  0  0  0
   -1.6978    1.8100    0.2029 O   0  0  0  0  0  0  0  0  0  0  0  0
    0.0314    1.6872    1.6415 N   0  0  0  0  0  0  0  0  0  0  0  0
    0.7279    1.0858    2.0517 H   0  0  0  0  0  0  0  0  0  0  0  0
   -0.0137    3.0826    2.0755 C   0  0  0  0  0  0  0  0  0  0  0  0
   -0.9991    3.3070    2.4905 H   0  0  0  0  0  0  0  0  0  0  0  0
    0.7468    3.2694    2.8349 H   0  0  0  0  0  0  0  0  0  0  0  0
    0.1592    3.7397    1.2213 H   0  0  0  0  0  0  0  0  0  0  0  0
  5  6  2  0  0  0  0
  5  7  1  0  0  0  0
  2  3  1  0  0  0  0
  2  4  1  0  0  0  0
  2  5  1  0  0  0  0
  1  2  1  0  0  0  0
 22 23  2  0  0  0  0
 22 24  1  0  0  0  0
 18 19  1  0  0  0  0
 18 20  1  0  0  0  0
 18 21  1  0  0  0  0
 17 18  1  0  0  0  0
 14 15  1  0  0  0  0
 14 16  1  0  0  0  0
 14 17  1  0  0  0  0
 11 12  1  0  0  0  0
 11 13  1  0  0  0  0
 11 14  1  0  0  0  0
  9 10  1  0  0  0  0
  9 11  1  0  0  0  0
  9 22  1  0  0  0  0
  7  8  1  0  0  0  0
  7  9  1  0  0  0  0
 26 27  1  0  0  0  0
 26 28  1  0  0  0  0
 26 29  1  0  0  0  0
 24 25  1  0  0  0  0
 24 26  1  0  0  0  0
M  END
$$$$
default_name
  -OEChem-02102213163D

 29 28  0     1  0  0  0  0  0999 V2000
   -3.5781   -3.7296    1.2702 H   0  0  0  0  0  0  0  0  0  0  0  0
   -3.5311   -2.7616    0.7732 C   0  0  0  0  0  0  0  0  0  0  0  0
   -4.2371   -2.0766    1.2382 H   0  0  0  0  0  0  0  0  0  0  0  0
   -3.7681   -2.8816   -0.2818 H   0  0  0  0  0  0  0  0  0  0  0  0
   -2.1321   -2.2086    0.9112 C   0  0  0  0  0  0  0  0  0  0  0  0
   -1.2751   -2.8426    1.5112 O   0  0  0  0  0  0  0  0  0  0  0  0
   -1.9041   -1.0186    0.3602 N   0  0  0  0  0  0  0  0  0  0  0  0
   -2.6671   -0.5416   -0.0988 H   0  0  0  0  0  0  0  0  0  0  0  0
   -0.6131   -0.3236    0.3832 C   0  0  1  0  0  0  0  0  0  0  0  0
    0.0142   -0.7800    1.1506 H   0  0  0  0  0  0  0  0  0  0  0  0
    0.0816   -0.5059   -0.9788 C   0  0  0  0  0  0  0  0  0  0  0  0
    0.2560    0.4785   -1.4185 H   0  0  0  0  0  0  0  0  0  0  0  0
    1.0485   -0.9879   -0.8279 H   0  0  0  0  0  0  0  0  0  0  0  0
   -0.7320   -1.3409   -1.9743 C   0  0  0  0  0  0  0  0  0  0  0  0
   -0.4761   -2.3928   -1.8515 H   0  0  0  0  0  0  0  0  0  0  0  0
   -1.7926   -1.2103   -1.7564 H   0  0  0  0  0  0  0  0  0  0  0  0
   -0.4443   -0.8908   -3.7048 S   0  0  0  0  0  0  0  0  0  0  0  0
   -1.2202    0.7459   -3.7322 C   0  0  0  0  0  0  0  0  0  0  0  0
   -0.7198    1.4021   -3.0195 H   0  0  0  0  0  0  0  0  0  0  0  0
   -1.1336    1.1702   -4.7329 H   0  0  0  0  0  0  0  0  0  0  0  0
   -2.2749    0.6575   -3.4702 H   0  0  0  0  0  0  0  0  0  0  0  0
   -0.8064    1.1568    0.7414 C   0  0  0  0  0  0  0  0  0  0  0  0
   -1.6978    1.8100    0.2029 O   0  0  0  0  0  0  0  0  0  0  0  0
    0.0314    1.6872    1.6415 N   0  0  0  0  0  0  0  0  0  0  0  0
    0.7279    1.0858    2.0517 H   0  0  0  0  0  0  0  0  0  0  0  0
   -0.0137    3.0826    2.0755 C   0  0  0  0  0  0  0  0  0  0  0  0
   -0.9991    3.3070    2.4905 H   0  0  0  0  0  0  0  0  0  0  0  0
    0.7468    3.2694    2.8349 H   0  0  0  0  0  0  0  0  0  0  0  0
    0.1592    3.7397    1.2213 H   0  0  0  0  0  0  0  0  0  0  0  0
  5  6  2  0  0  0  0
  5  7  1  0  0  0  0
  2  3  1  0  0  0  0
  2  4  1  0  0  0  0
  2  5  1  0  0  0  0
  1  2  1  0  0  0  0
 22 23  2  0  0  0  0
 22 24  1  0  0  0  0
 18 19  1  0  0  0  0
 18 20  1  0  0  0  0
 18 21  1  0  0  0  0
 17 18  1  0  0  0  0
 14 15  1  0  0  0  0
 14 16  1  0  0  0  0
 14 17  1  0  0  0  0
 11 12  1  0  0  0  0
 11 13  1  0  0  0  0
 11 14  1  0  0  0  0
  9 10  1  0  0  0  0
  9 11  1  0  0  0  0
  9 22  1  0  0  0  0
  7  8  1  0  0  0  0
  7  9  1  0  0  0  0
 26 27  1  0  0  0  0
 26 28  1  0  0  0  0
 26 29  1  0  0  0  0
 24 25  1  0  0  0  0
 24 26  1  0  0  0  0
M  END
$$$$
default_name
  -OEChem-02102213163D

 29 28  0     1  0  0  0  0  0999 V2000
   -3.5781   -3.7296    1.2702 H   0  0  0  0  0  0  0  0  0  0  0  0
   -3.5311   -2.7616    0.7732 C   0  0  0  0  0  0  0  0  0  0  0  0
   -4.2371   -2.0766    1.2382 H   0  0  0  0  0  0  0  0  0  0  0  0
   -3.7681   -2.8816   -0.2818 H   0  0  0  0  0  0  0  0  0  0  0  0
   -2.1321   -2.2086    0.9112 C   0  0  0  0  0  0  0  0  0  0  0  0
   -1.2751   -2.8426    1.5112 O   0  0  0  0  0  0  0  0  0  0  0  0
   -1.9041   -1.0186    0.3602 N   0  0  0  0  0  0  0  0  0  0  0  0
   -2.6671   -0.5416   -0.0988 H   0  0  0  0  0  0  0  0  0  0  0  0
   -0.6131   -0.3236    0.3832 C   0  0  1  0  0  0  0  0  0  0  0  0
    0.0142   -0.7800    1.1506 H   0  0  0  0  0  0  0  0  0  0  0  0
    0.0816   -0.5059   -0.9788 C   0  0  0  0  0  0  0  0  0  0  0  0
    0.2560    0.4785   -1.4185 H   0  0  0  0  0  0  0  0  0  0  0  0
    1.0485   -0.9879   -0.8279 H   0  0  0  0  0  0  0  0  0  0  0  0
   -0.7320   -1.3409   -1.9743 C   0  0  0  0  0  0  0  0  0  0  0  0
   -0.6854   -2.3897   -1.6831 H   0  0  0  0  0  0  0  0  0  0  0  0
   -1.7716   -1.0130   -1.9391 H   0  0  0  0  0  0  0  0  0  0  0  0
   -0.1477   -1.2057   -3.6831 S   0  0  0  0  0  0  0  0  0  0  0  0
   -0.6098    0.5105   -4.0336 C   0  0  0  0  0  0  0  0  0  0  0  0
   -0.0970    1.1782   -3.3407 H   0  0  0  0  0  0  0  0  0  0  0  0
   -0.3205    0.7614   -5.0545 H   0  0  0  0  0  0  0  0  0  0  0  0
   -1.6883    0.6302   -3.9268 H   0  0  0  0  0  0  0  0  0  0  0  0
   -0.8064    1.1568    0.7414 C   0  0  0  0  0  0  0  0  0  0  0  0
   -1.6978    1.8100    0.2029 O   0  0  0  0  0  0  0  0  0  0  0  0
    0.0314    1.6872    1.6415 N   0  0  0  0  0  0  0  0  0  0  0  0
    0.7279    1.0858    2.0517 H   0  0  0  0  0  0  0  0  0  0  0  0
   -0.0137    3.0826    2.0755 C   0  0  0  0  0  0  0  0  0  0  0  0
   -0.9991    3.3070    2.4905 H   0  0  0  0  0  0  0  0  0  0  0  0
    0.7468    3.2694    2.8349 H   0  0  0  0  0  0  0  0  0  0  0  0
    0.1592    3.7397    1.2213 H   0  0  0  0  0  0  0  0  0  0  0  0
  5  6  2  0  0  0  0
  5  7  1  0  0  0  0
  2  3  1  0  0  0  0
  2  4  1  0  0  0  0
  2  5  1  0  0  0  0
  1  2  1  0  0  0  0
 22 23  2  0  0  0  0
 22 24  1  0  0  0  0
 18 19  1  0  0  0  0
 18 20  1  0  0  0  0
 18 21  1  0  0  0  0
 17 18  1  0  0  0  0
 14 15  1  0  0  0  0
 14 16  1  0  0  0  0
 14 17  1  0  0  0  0
 11 12  1  0  0  0  0
 11 13  1  0  0  0  0
 11 14  1  0  0  0  0
  9 10  1  0  0  0  0
  9 11  1  0  0  0  0
  9 22  1  0  0  0  0
  7  8  1  0  0  0  0
  7  9  1  0  0  0  0
 26 27  1  0  0  0  0
 26 28  1  0  0  0  0
 26 29  1  0  0  0  0
 24 25  1  0  0  0  0
 24 26  1  0  0  0  0
M  END
$$$$
default_name
  -OEChem-02102213163D

 29 28  0     1  0  0  0  0  0999 V2000
   -3.5781   -3.7296    1.2702 H   0  0  0  0  0  0  0  0  0  0  0  0
   -3.5311   -2.7616    0.7732 C   0  0  0  0  0  0  0  0  0  0  0  0
   -4.2371   -2.0766    1.2382 H   0  0  0  0  0  0  0  0  0  0  0  0
   -3.7681   -2.8816   -0.2818 H   0  0  0  0  0  0  0  0  0  0  0  0
   -2.1321   -2.2086    0.9112 C   0  0  0  0  0  0  0  0  0  0  0  0
   -1.2751   -2.8426    1.5112 O   0  0  0  0  0  0  0  0  0  0  0  0
   -1.9041   -1.0186    0.3602 N   0  0  0  0  0  0  0  0  0  0  0  0
   -2.6671   -0.5416   -0.0988 H   0  0  0  0  0  0  0  0  0  0  0  0
   -0.6131   -0.3236    0.3832 C   0  0  1  0  0  0  0  0  0  0  0  0
    0.0142   -0.7800    1.1506 H   0  0  0  0  0  0  0  0  0  0  0  0
    0.0816   -0.5059   -0.9788 C   0  0  0  0  0  0  0  0  0  0  0  0
    0.4943    0.4550   -1.2938 H   0  0  0  0  0  0  0  0  0  0  0  0
    0.9061   -1.2120   -0.8706 H   0  0  0  0  0  0  0  0  0  0  0  0
   -0.8556   -1.0124   -2.0813 C   0  0  0  0  0  0  0  0  0  0  0  0
   -1.2725   -1.9735   -1.7822 H   0  0  0  0  0  0  0  0  0  0  0  0
   -1.6713   -0.2988   -2.2028 H   0  0  0  0  0  0  0  0  0  0  0  0
   -0.0409   -1.2276   -3.6843 S   0  0  0  0  0  0  0  0  0  0  0  0
    0.2746    0.5056   -4.1065 C   0  0  0  0  0  0  0  0  0  0  0  0
    0.9131    0.9586   -3.3475 H   0  0  0  0  0  0  0  0  0  0  0  0
    0.7753    0.5566   -5.0738 H   0  0  0  0  0  0  0  0  0  0  0  0
   -0.6694    1.0484   -4.1622 H   0  0  0  0  0  0  0  0  0  0  0  0
   -0.8064    1.1568    0.7414 C   0  0  0  0  0  0  0  0  0  0  0  0
   -1.6978    1.8100    0.2029 O   0  0  0  0  0  0  0  0  0  0  0  0
    0.0314    1.6872    1.6415 N   0  0  0  0  0  0  0  0  0  0  0  0
    0.7279    1.0858    2.0517 H   0  0  0  0  0  0  0  0  0  0  0  0
   -0.0137    3.0826    2.0755 C   0  0  0  0  0  0  0  0  0  0  0  0
   -0.9991    3.3070    2.4905 H   0  0  0  0  0  0  0  0  0  0  0  0
    0.7468    3.2694    2.8349 H   0  0  0  0  0  0  0  0  0  0  0  0
    0.1592    3.7397    1.2213 H   0  0  0  0  0  0  0  0  0  0  0  0
  5  6  2  0  0  0  0
  5  7  1  0  0  0  0
  2  3  1  0  0  0  0
  2  4  1  0  0  0  0
  2  5  1  0  0  0  0
  1  2  1  0  0  0  0
 22 23  2  0  0  0  0
 22 24  1  0  0  0  0
 18 19  1  0  0  0  0
 18 20  1  0  0  0  0
 18 21  1  0  0  0  0
 17 18  1  0  0  0  0
 14 15  1  0  0  0  0
 14 16  1  0  0  0  0
 14 17  1  0  0  0  0
 11 12  1  0  0  0  0
 11 13  1  0  0  0  0
 11 14  1  0  0  0  0
  9 10  1  0  0  0  0
  9 11  1  0  0  0  0
  9 22  1  0  0  0  0
  7  8  1  0  0  0  0
  7  9  1  0  0  0  0
 26 27  1  0  0  0  0
 26 28  1  0  0  0  0
 26 29  1  0  0  0  0
 24 25  1  0  0  0  0
 24 26  1  0  0  0  0
M  END
$$$$
default_name
  -OEChem-02102213163D

 29 28  0     1  0  0  0  0  0999 V2000
   -3.5781   -3.7296    1.2702 H   0  0  0  0  0  0  0  0  0  0  0  0
   -3.5311   -2.7616    0.7732 C   0  0  0  0  0  0  0  0  0  0  0  0
   -4.2371   -2.0766    1.2382 H   0  0  0  0  0  0  0  0  0  0  0  0
   -3.7681   -2.8816   -0.2818 H   0  0  0  0  0  0  0  0  0  0  0  0
   -2.1321   -2.2086    0.9112 C   0  0  0  0  0  0  0  0  0  0  0  0
   -1.2751   -2.8426    1.5112 O   0  0  0  0  0  0  0  0  0  0  0  0
   -1.9041   -1.0186    0.3602 N   0  0  0  0  0  0  0  0  0  0  0  0
   -2.6671   -0.5416   -0.0988 H   0  0  0  0  0  0  0  0  0  0  0  0
   -0.6131   -0.3236    0.3832 C   0  0  1  0  0  0  0  0  0  0  0  0
    0.0142   -0.7800    1.1506 H   0  0  0  0  0  0  0  0  0  0  0  0
    0.0816   -0.5059   -0.9788 C   0  0  0  0  0  0  0  0  0  0  0  0
    0.4943    0.4550   -1.2938 H   0  0  0  0  0  0  0  0  0  0  0  0
    0.9061   -1.2120   -0.8706 H   0  0  0  0  0  0  0  0  0  0  0  0
   -0.8556   -1.0124   -2.0813 C   0  0  0  0  0  0  0  0  0  0  0  0
   -1.4702   -1.8199   -1.6848 H   0  0  0  0  0  0  0  0  0  0  0  0
   -1.5076   -0.1944   -2.3899 H   0  0  0  0  0  0  0  0  0  0  0  0
    0.0133   -1.6337   -3.5438 S   0  0  0  0  0  0  0  0  0  0  0  0
    0.6863   -0.0799   -4.1875 C   0  0  0  0  0  0  0  0  0  0  0  0
    1.3451    0.3712   -3.4448 H   0  0  0  0  0  0  0  0  0  0  0  0
    1.2544   -0.2810   -5.0962 H   0  0  0  0  0  0  0  0  0  0  0  0
   -0.1289    0.6064   -4.4186 H   0  0  0  0  0  0  0  0  0  0  0  0
   -0.8064    1.1568    0.7414 C   0  0  0  0  0  0  0  0  0  0  0  0
   -1.6978    1.8100    0.2029 O   0  0  0  0  0  0  0  0  0  0  0  0
    0.0314    1.6872    1.6415 N   0  0  0  0  0  0  0  0  0  0  0  0
    0.7279    1.0858    2.0517 H   0  0  0  0  0  0  0  0  0  0  0  0
   -0.0137    3.0826    2.0755 C   0  0  0  0  0  0  0  0  0  0  0  0
   -0.9991    3.3070    2.4905 H   0  0  0  0  0  0  0  0  0  0  0  0
    0.7468    3.2694    2.8349 H   0  0  0  0  0  0  0  0  0  0  0  0
    0.1592    3.7397    1.2213 H   0  0  0  0  0  0  0  0  0  0  0  0
  5  6  2  0  0  0  0
  5  7  1  0  0  0  0
  2  3  1  0  0  0  0
  2  4  1  0  0  0  0
  2  5  1  0  0  0  0
  1  2  1  0  0  0  0
 22 23  2  0  0  0  0
 22 24  1  0  0  0  0
 18 19  1  0  0  0  0
 18 20  1  0  0  0  0
 18 21  1  0  0  0  0
 17 18  1  0  0  0  0
 14 15  1  0  0  0  0
 14 16  1  0  0  0  0
 14 17  1  0  0  0  0
 11 12  1  0  0  0  0
 11 13  1  0  0  0  0
 11 14  1  0  0  0  0
  9 10  1  0  0  0  0
  9 11  1  0  0  0  0
  9 22  1  0  0  0  0
  7  8  1  0  0  0  0
  7  9  1  0  0  0  0
 26 27  1  0  0  0  0
 26 28  1  0  0  0  0
 26 29  1  0  0  0  0
 24 25  1  0  0  0  0
 24 26  1  0  0  0  0
M  END
$$$$
default_name
  -OEChem-02102213163D

 29 28  0     1  0  0  0  0  0999 V2000
   -3.5781   -3.7296    1.2702 H   0  0  0  0  0  0  0  0  0  0  0  0
   -3.5311   -2.7616    0.7732 C   0  0  0  0  0  0  0  0  0  0  0  0
   -4.2371   -2.0766    1.2382 H   0  0  0  0  0  0  0  0  0  0  0  0
   -3.7681   -2.8816   -0.2818 H   0  0  0  0  0  0  0  0  0  0  0  0
   -2.1321   -2.2086    0.9112 C   0  0  0  0  0  0  0  0  0  0  0  0
   -1.2751   -2.8426    1.5112 O   0  0  0  0  0  0  0  0  0  0  0  0
   -1.9041   -1.0186    0.3602 N   0  0  0  0  0  0  0  0  0  0  0  0
   -2.6671   -0.5416   -0.0988 H   0  0  0  0  0  0  0  0  0  0  0  0
   -0.6131   -0.3236    0.3832 C   0  0  1  0  0  0  0  0  0  0  0  0
    0.0142   -0.7800    1.1506 H   0  0  0  0  0  0  0  0  0  0  0  0
    0.0816   -0.5059   -0.9788 C   0  0  0  0  0  0  0  0  0  0  0  0
    0.4943    0.4550   -1.2938 H   0  0  0  0  0  0  0  0  0  0  0  0
    0.9061   -1.2120   -0.8706 H   0  0  0  0  0  0  0  0  0  0  0  0
   -0.8556   -1.0124   -2.0813 C   0  0  0  0  0  0  0  0  0  0  0  0
   -1.6409   -1.6193   -1.6318 H   0  0  0  0  0  0  0  0  0  0  0  0
   -1.3141   -0.1537   -2.5731 H   0  0  0  0  0  0  0  0  0  0  0  0
   -0.0220   -2.0138   -3.3391 S   0  0  0  0  0  0  0  0  0  0  0  0
    0.9820   -0.7348   -4.1379 C   0  0  0  0  0  0  0  0  0  0  0  0
    1.6613   -0.2920   -3.4089 H   0  0  0  0  0  0  0  0  0  0  0  0
    1.5632   -1.1828   -4.9444 H   0  0  0  0  0  0  0  0  0  0  0  0
    0.3329    0.0382   -4.5502 H   0  0  0  0  0  0  0  0  0  0  0  0
   -0.8064    1.1568    0.7414 C   0  0  0  0  0  0  0  0  0  0  0  0
   -1.6978    1.8100    0.2029 O   0  0  0  0  0  0  0  0  0  0  0  0
    0.0314    1.6872    1.6415 N   0  0  0  0  0  0  0  0  0  0  0  0
    0.7279    1.0858    2.0517 H   0  0  0  0  0  0  0  0  0  0  0  0
   -0.0137    3.0826    2.0755 C   0  0  0  0  0  0  0  0  0  0  0  0
   -0.9991    3.3070    2.4905 H   0  0  0  0  0  0  0  0  0  0  0  0
    0.7468    3.2694    2.8349 H   0  0  0  0  0  0  0  0  0  0  0  0
    0.1592    3.7397    1.2213 H   0  0  0  0  0  0  0  0  0  0  0  0
  5  6  2  0  0  0  0
  5  7  1  0  0  0  0
  2  3  1  0  0  0  0
  2  4  1  0  0  0  0
  2  5  1  0  0  0  0
  1  2  1  0  0  0  0
 22 23  2  0  0  0  0
 22 24  1  0  0  0  0
 18 19  1  0  0  0  0
 18 20  1  0  0  0  0
 18 21  1  0  0  0  0
 17 18  1  0  0  0  0
 14 15  1  0  0  0  0
 14 16  1  0  0  0  0
 14 17  1  0  0  0  0
 11 12  1  0  0  0  0
 11 13  1  0  0  0  0
 11 14  1  0  0  0  0
  9 10  1  0  0  0  0
  9 11  1  0  0  0  0
  9 22  1  0  0  0  0
  7  8  1  0  0  0  0
  7  9  1  0  0  0  0
 26 27  1  0  0  0  0
 26 28  1  0  0  0  0
 26 29  1  0  0  0  0
 24 25  1  0  0  0  0
 24 26  1  0  0  0  0
M  END
$$$$
default_name
  -OEChem-02102213163D

 29 28  0     1  0  0  0  0  0999 V2000
   -3.5781   -3.7296    1.2702 H   0  0  0  0  0  0  0  0  0  0  0  0
   -3.5311   -2.7616    0.7732 C   0  0  0  0  0  0  0  0  0  0  0  0
   -4.2371   -2.0766    1.2382 H   0  0  0  0  0  0  0  0  0  0  0  0
   -3.7681   -2.8816   -0.2818 H   0  0  0  0  0  0  0  0  0  0  0  0
   -2.1321   -2.2086    0.9112 C   0  0  0  0  0  0  0  0  0  0  0  0
   -1.2751   -2.8426    1.5112 O   0  0  0  0  0  0  0  0  0  0  0  0
   -1.9041   -1.0186    0.3602 N   0  0  0  0  0  0  0  0  0  0  0  0
   -2.6671   -0.5416   -0.0988 H   0  0  0  0  0  0  0  0  0  0  0  0
   -0.6131   -0.3236    0.3832 C   0  0  1  0  0  0  0  0  0  0  0  0
    0.0142   -0.7800    1.1506 H   0  0  0  0  0  0  0  0  0  0  0  0
    0.0816   -0.5059   -0.9788 C   0  0  0  0  0  0  0  0  0  0  0  0
    0.4943    0.4550   -1.2938 H   0  0  0  0  0  0  0  0  0  0  0  0
    0.9061   -1.2120   -0.8706 H   0  0  0  0  0  0  0  0  0  0  0  0
   -0.8556   -1.0124   -2.0813 C   0  0  0  0  0  0  0  0  0  0  0  0
   -1.7730   -1.3853   -1.6270 H   0  0  0  0  0  0  0  0  0  0  0  0
   -1.1039   -0.1794   -2.7400 H   0  0  0  0  0  0  0  0  0  0  0  0
   -0.1444   -2.3420   -3.0843 S   0  0  0  0  0  0  0  0  0  0  0  0
    1.1414   -1.4146   -3.9611 C   0  0  0  0  0  0  0  0  0  0  0  0
    1.8403   -0.9858   -3.2423 H   0  0  0  0  0  0  0  0  0  0  0  0
    1.6806   -2.0873   -4.6286 H   0  0  0  0  0  0  0  0  0  0  0  0
    0.6845   -0.6173   -4.5478 H   0  0  0  0  0  0  0  0  0  0  0  0
   -0.8064    1.1568    0.7414 C   0  0  0  0  0  0  0  0  0  0  0  0
   -1.6978    1.8100    0.2029 O   0  0  0  0  0  0  0  0  0  0  0  0
    0.0314    1.6872    1.6415 N   0  0  0  0  0  0  0  0  0  0  0  0
    0.7279    1.0858    2.0517 H   0  0  0  0  0  0  0  0  0  0  0  0
   -0.0137    3.0826    2.0755 C   0  0  0  0  0  0  0  0  0  0  0  0
   -0.9991    3.3070    2.4905 H   0  0  0  0  0  0  0  0  0  0  0  0
    0.7468    3.2694    2.8349 H   0  0  0  0  0  0  0  0  0  0  0  0
    0.1592    3.7397    1.2213 H   0  0  0  0  0  0  0  0  0  0  0  0
  5  6  2  0  0  0  0
  5  7  1  0  0  0  0
  2  3  1  0  0  0  0
  2  4  1  0  0  0  0
  2  5  1  0  0  0  0
  1  2  1  0  0  0  0
 22 23  2  0  0  0  0
 22 24  1  0  0  0  0
 18 19  1  0  0  0  0
 18 20  1  0  0  0  0
 18 21  1  0  0  0  0
 17 18  1  0  0  0  0
 14 15  1  0  0  0  0
 14 16  1  0  0  0  0
 14 17  1  0  0  0  0
 11 12  1  0  0  0  0
 11 13  1  0  0  0  0
 11 14  1  0  0  0  0
  9 10  1  0  0  0  0
  9 11  1  0  0  0  0
  9 22  1  0  0  0  0
  7  8  1  0  0  0  0
  7  9  1  0  0  0  0
 26 27  1  0  0  0  0
 26 28  1  0  0  0  0
 26 29  1  0  0  0  0
 24 25  1  0  0  0  0
 24 26  1  0  0  0  0
M  END
$$$$
default_name
  -OEChem-02102213163D

 29 28  0     1  0  0  0  0  0999 V2000
   -3.5781   -3.7296    1.2702 H   0  0  0  0  0  0  0  0  0  0  0  0
   -3.5311   -2.7616    0.7732 C   0  0  0  0  0  0  0  0  0  0  0  0
   -4.2371   -2.0766    1.2382 H   0  0  0  0  0  0  0  0  0  0  0  0
   -3.7681   -2.8816   -0.2818 H   0  0  0  0  0  0  0  0  0  0  0  0
   -2.1321   -2.2086    0.9112 C   0  0  0  0  0  0  0  0  0  0  0  0
   -1.2751   -2.8426    1.5112 O   0  0  0  0  0  0  0  0  0  0  0  0
   -1.9041   -1.0186    0.3602 N   0  0  0  0  0  0  0  0  0  0  0  0
   -2.6671   -0.5416   -0.0988 H   0  0  0  0  0  0  0  0  0  0  0  0
   -0.6131   -0.3236    0.3832 C   0  0  1  0  0  0  0  0  0  0  0  0
    0.0142   -0.7800    1.1506 H   0  0  0  0  0  0  0  0  0  0  0  0
    0.0816   -0.5059   -0.9788 C   0  0  0  0  0  0  0  0  0  0  0  0
    0.4943    0.4550   -1.2938 H   0  0  0  0  0  0  0  0  0  0  0  0
    0.9061   -1.2120   -0.8706 H   0  0  0  0  0  0  0  0  0  0  0  0
   -0.8556   -1.0124   -2.0813 C   0  0  0  0  0  0  0  0  0  0  0  0
   -1.8575   -1.1340   -1.6707 H   0  0  0  0  0  0  0  0  0  0  0  0
   -0.8913   -0.2697   -2.8792 H   0  0  0  0  0  0  0  0  0  0  0  0
   -0.3454   -2.5959   -2.7967 S   0  0  0  0  0  0  0  0  0  0  0  0
    1.1537   -2.0730   -3.6691 C   0  0  0  0  0  0  0  0  0  0  0  0
    1.8697   -1.6629   -2.9563 H   0  0  0  0  0  0  0  0  0  0  0  0
    1.5987   -2.9329   -4.1704 H   0  0  0  0  0  0  0  0  0  0  0  0
    0.9018   -1.3155   -4.4118 H   0  0  0  0  0  0  0  0  0  0  0  0
   -0.8064    1.1568    0.7414 C   0  0  0  0  0  0  0  0  0  0  0  0
   -1.6978    1.8100    0.2029 O   0  0  0  0  0  0  0  0  0  0  0  0
    0.0314    1.6872    1.6415 N   0  0  0  0  0  0  0  0  0  0  0  0
    0.7279    1.0858    2.0517 H   0  0  0  0  0  0  0  0  0  0  0  0
   -0.0137    3.0826    2.0755 C   0  0  0  0  0  0  0  0  0  0  0  0
   -0.9991    3.3070    2.4905 H   0  0  0  0  0  0  0  0  0  0  0  0
    0.7468    3.2694    2.8349 H   0  0  0  0  0  0  0  0  0  0  0  0
    0.1592    3.7397    1.2213 H   0  0  0  0  0  0  0  0  0  0  0  0
  5  6  2  0  0  0  0
  5  7  1  0  0  0  0
  2  3  1  0  0  0  0
  2  4  1  0  0  0  0
  2  5  1  0  0  0  0
  1  2  1  0  0  0  0
 22 23  2  0  0  0  0
 22 24  1  0  0  0  0
 18 19  1  0  0  0  0
 18 20  1  0  0  0  0
 18 21  1  0  0  0  0
 17 18  1  0  0  0  0
 14 15  1  0  0  0  0
 14 16  1  0  0  0  0
 14 17  1  0  0  0  0
 11 12  1  0  0  0  0
 11 13  1  0  0  0  0
 11 14  1  0  0  0  0
  9 10  1  0  0  0  0
  9 11  1  0  0  0  0
  9 22  1  0  0  0  0
  7  8  1  0  0  0  0
  7  9  1  0  0  0  0
 26 27  1  0  0  0  0
 26 28  1  0  0  0  0
 26 29  1  0  0  0  0
 24 25  1  0  0  0  0
 24 26  1  0  0  0  0
M  END
$$$$
default_name
  -OEChem-02102213163D

 29 28  0     1  0  0  0  0  0999 V2000
   -3.5781   -3.7296    1.2702 H   0  0  0  0  0  0  0  0  0  0  0  0
   -3.5311   -2.7616    0.7732 C   0  0  0  0  0  0  0  0  0  0  0  0
   -4.2371   -2.0766    1.2382 H   0  0  0  0  0  0  0  0  0  0  0  0
   -3.7681   -2.8816   -0.2818 H   0  0  0  0  0  0  0  0  0  0  0  0
   -2.1321   -2.2086    0.9112 C   0  0  0  0  0  0  0  0  0  0  0  0
   -1.2751   -2.8426    1.5112 O   0  0  0  0  0  0  0  0  0  0  0  0
   -1.9041   -1.0186    0.3602 N   0  0  0  0  0  0  0  0  0  0  0  0
   -2.6671   -0.5416   -0.0988 H   0  0  0  0  0  0  0  0  0  0  0  0
   -0.6131   -0.3236    0.3832 C   0  0  1  0  0  0  0  0  0  0  0  0
    0.0142   -0.7800    1.1506 H   0  0  0  0  0  0  0  0  0  0  0  0
    0.0816   -0.5059   -0.9788 C   0  0  0  0  0  0  0  0  0  0  0  0
    0.4943    0.4550   -1.2938 H   0  0  0  0  0  0  0  0  0  0  0  0
    0.9061   -1.2120   -0.8706 H   0  0  0  0  0  0  0  0  0  0  0  0
   -0.8556   -1.0124   -2.0813 C   0  0  0  0  0  0  0  0  0  0  0  0
   -1.8885   -0.8825   -1.7599 H   0  0  0  0  0  0  0  0  0  0  0  0
   -0.6910   -0.4185   -2.9811 H   0  0  0  0  0  0  0  0  0  0  0  0
   -0.6115   -2.7583   -2.4960 S   0  0  0  0  0  0  0  0  0  0  0  0
    1.0181   -2.6650   -3.2818 C   0  0  0  0  0  0  0  0  0  0  0  0
    1.7477   -2.2772   -2.5703 H   0  0  0  0  0  0  0  0  0  0  0  0
    1.3230   -3.6620   -3.6011 H   0  0  0  0  0  0  0  0  0  0  0  0
    0.9702   -2.0089   -4.1513 H   0  0  0  0  0  0  0  0  0  0  0  0
   -0.8064    1.1568    0.7414 C   0  0  0  0  0  0  0  0  0  0  0  0
   -1.6978    1.8100    0.2029 O   0  0  0  0  0  0  0  0  0  0  0  0
    0.0314    1.6872    1.6415 N   0  0  0  0  0  0  0  0  0  0  0  0
    0.7279    1.0858    2.0517 H   0  0  0  0  0  0  0  0  0  0  0  0
   -0.0137    3.0826    2.0755 C   0  0  0  0  0  0  0  0  0  0  0  0
   -0.9991    3.3070    2.4905 H   0  0  0  0  0  0  0  0  0  0  0  0
    0.7468    3.2694    2.8349 H   0  0  0  0  0  0  0  0  0  0  0  0
    0.1592    3.7397    1.2213 H   0  0  0  0  0  0  0  0  0  0  0  0
  5  6  2  0  0  0  0
  5  7  1  0  0  0  0
  2  3  1  0  0  0  0
  2  4  1  0  0  0  0
  2  5  1  0  0  0  0
  1  2  1  0  0  0  0
 22 23  2  0  0  0  0
 22 24  1  0  0  0  0
 18 19  1  0  0  0  0
 18 20  1  0  0  0  0
 18 21  1  0  0  0  0
 17 18  1  0  0  0  0
 14 15  1  0  0  0  0
 14 16  1  0  0  0  0
 14 17  1  0  0  0  0
 11 12  1  0  0  0  0
 11 13  1  0  0  0  0
 11 14  1  0  0  0  0
  9 10  1  0  0  0  0
  9 11  1  0  0  0  0
  9 22  1  0  0  0  0
  7  8  1  0  0  0  0
  7  9  1  0  0  0  0
 26 27  1  0  0  0  0
 26 28  1  0  0  0  0
 26 29  1  0  0  0  0
 24 25  1  0  0  0  0
 24 26  1  0  0  0  0
M  END
$$$$
default_name
  -OEChem-02102213163D

 29 28  0     1  0  0  0  0  0999 V2000
   -3.5781   -3.7296    1.2702 H   0  0  0  0  0  0  0  0  0  0  0  0
   -3.5311   -2.7616    0.7732 C   0  0  0  0  0  0  0  0  0  0  0  0
   -4.2371   -2.0766    1.2382 H   0  0  0  0  0  0  0  0  0  0  0  0
   -3.7681   -2.8816   -0.2818 H   0  0  0  0  0  0  0  0  0  0  0  0
   -2.1321   -2.2086    0.9112 C   0  0  0  0  0  0  0  0  0  0  0  0
   -1.2751   -2.8426    1.5112 O   0  0  0  0  0  0  0  0  0  0  0  0
   -1.9041   -1.0186    0.3602 N   0  0  0  0  0  0  0  0  0  0  0  0
   -2.6671   -0.5416   -0.0988 H   0  0  0  0  0  0  0  0  0  0  0  0
   -0.6131   -0.3236    0.3832 C   0  0  1  0  0  0  0  0  0  0  0  0
    0.0142   -0.7800    1.1506 H   0  0  0  0  0  0  0  0  0  0  0  0
    0.0816   -0.5059   -0.9788 C   0  0  0  0  0  0  0  0  0  0  0  0
    0.4943    0.4550   -1.2938 H   0  0  0  0  0  0  0  0  0  0  0  0
    0.9061   -1.2120   -0.8706 H   0  0  0  0  0  0  0  0  0  0  0  0
   -0.8556   -1.0124   -2.0813 C   0  0  0  0  0  0  0  0  0  0  0  0
   -1.8641   -0.6478   -1.8885 H   0  0  0  0  0  0  0  0  0  0  0  0
   -0.5164   -0.6157   -3.0389 H   0  0  0  0  0  0  0  0  0  0  0  0
   -0.9244   -2.8180   -2.2025 S   0  0  0  0  0  0  0  0  0  0  0  0
    0.7439   -3.1504   -2.8257 C   0  0  0  0  0  0  0  0  0  0  0  0
    1.4826   -2.7867   -2.1108 H   0  0  0  0  0  0  0  0  0  0  0  0
    0.8723   -4.2248   -2.9594 H   0  0  0  0  0  0  0  0  0  0  0  0
    0.8849   -2.6502   -3.7842 H   0  0  0  0  0  0  0  0  0  0  0  0
   -0.8064    1.1568    0.7414 C   0  0  0  0  0  0  0  0  0  0  0  0
   -1.6978    1.8100    0.2029 O   0  0  0  0  0  0  0  0  0  0  0  0
    0.0314    1.6872    1.6415 N   0  0  0  0  0  0  0  0  0  0  0  0
    0.7279    1.0858    2.0517 H   0  0  0  0  0  0  0  0  0  0  0  0
   -0.0137    3.0826    2.0755 C   0  0  0  0  0  0  0  0  0  0  0  0
   -0.9991    3.3070    2.4905 H   0  0  0  0  0  0  0  0  0  0  0  0
    0.7468    3.2694    2.8349 H   0  0  0  0  0  0  0  0  0  0  0  0
    0.1592    3.7397    1.2213 H   0  0  0  0  0  0  0  0  0  0  0  0
  5  6  2  0  0  0  0
  5  7  1  0  0  0  0
  2  3  1  0  0  0  0
  2  4  1  0  0  0  0
  2  5  1  0  0  0  0
  1  2  1  0  0  0  0
 22 23  2  0  0  0  0
 22 24  1  0  0  0  0
 18 19  1  0  0  0  0
 18 20  1  0  0  0  0
 18 21  1  0  0  0  0
 17 18  1  0  0  0  0
 14 15  1  0  0  0  0
 14 16  1  0  0  0  0
 14 17  1  0  0  0  0
 11 12  1  0  0  0  0
 11 13  1  0  0  0  0
 11 14  1  0  0  0  0
  9 10  1  0  0  0  0
  9 11  1  0  0  0  0
  9 22  1  0  0  0  0
  7  8  1  0  0  0  0
  7  9  1  0  0  0  0
 26 27  1  0  0  0  0
 26 28  1  0  0  0  0
 26 29  1  0  0  0  0
 24 25  1  0  0  0  0
 24 26  1  0  0  0  0
M  END
$$$$
default_name
  -OEChem-02102213163D

 29 28  0     1  0  0  0  0  0999 V2000
   -3.5781   -3.7296    1.2702 H   0  0  0  0  0  0  0  0  0  0  0  0
   -3.5311   -2.7616    0.7732 C   0  0  0  0  0  0  0  0  0  0  0  0
   -4.2371   -2.0766    1.2382 H   0  0  0  0  0  0  0  0  0  0  0  0
   -3.7681   -2.8816   -0.2818 H   0  0  0  0  0  0  0  0  0  0  0  0
   -2.1321   -2.2086    0.9112 C   0  0  0  0  0  0  0  0  0  0  0  0
   -1.2751   -2.8426    1.5112 O   0  0  0  0  0  0  0  0  0  0  0  0
   -1.9041   -1.0186    0.3602 N   0  0  0  0  0  0  0  0  0  0  0  0
   -2.6671   -0.5416   -0.0988 H   0  0  0  0  0  0  0  0  0  0  0  0
   -0.6131   -0.3236    0.3832 C   0  0  1  0  0  0  0  0  0  0  0  0
    0.0142   -0.7800    1.1506 H   0  0  0  0  0  0  0  0  0  0  0  0
    0.0816   -0.5059   -0.9788 C   0  0  0  0  0  0  0  0  0  0  0  0
    0.4943    0.4550   -1.2938 H   0  0  0  0  0  0  0  0  0  0  0  0
    0.9061   -1.2120   -0.8706 H   0  0  0  0  0  0  0  0  0  0  0  0
   -0.8556   -1.0124   -2.0813 C   0  0  0  0  0  0  0  0  0  0  0  0
   -1.7858   -0.4460   -2.0478 H   0  0  0  0  0  0  0  0  0  0  0  0
   -0.3795   -0.8478   -3.0486 H   0  0  0  0  0  0  0  0  0  0  0  0
   -1.2629   -2.7710   -1.9364 S   0  0  0  0  0  0  0  0  0  0  0  0
    0.3496   -3.4959   -2.3317 C   0  0  0  0  0  0  0  0  0  0  0  0
    1.0923   -3.1569   -1.6090 H   0  0  0  0  0  0  0  0  0  0  0  0
    0.2773   -4.5831   -2.2891 H   0  0  0  0  0  0  0  0  0  0  0  0
    0.6518   -3.1957   -3.3354 H   0  0  0  0  0  0  0  0  0  0  0  0
   -0.8064    1.1568    0.7414 C   0  0  0  0  0  0  0  0  0  0  0  0
   -1.6978    1.8100    0.2029 O   0  0  0  0  0  0  0  0  0  0  0  0
    0.0314    1.6872    1.6415 N   0  0  0  0  0  0  0  0  0  0  0  0
    0.7279    1.0858    2.0517 H   0  0  0  0  0  0  0  0  0  0  0  0
   -0.0137    3.0826    2.0755 C   0  0  0  0  0  0  0  0  0  0  0  0
   -0.9991    3.3070    2.4905 H   0  0  0  0  0  0  0  0  0  0  0  0
    0.7468    3.2694    2.8349 H   0  0  0  0  0  0  0  0  0  0  0  0
    0.1592    3.7397    1.2213 H   0  0  0  0  0  0  0  0  0  0  0  0
  5  6  2  0  0  0  0
  5  7  1  0  0  0  0
  2  3  1  0  0  0  0
  2  4  1  0  0  0  0
  2  5  1  0  0  0  0
  1  2  1  0  0  0  0
 22 23  2  0  0  0  0
 22 24  1  0  0  0  0
 18 19  1  0  0  0  0
 18 20  1  0  0  0  0
 18 21  1  0  0  0  0
 17 18  1  0  0  0  0
 14 15  1  0  0  0  0
 14 16  1  0  0  0  0
 14 17  1  0  0  0  0
 11 12  1  0  0  0  0
 11 13  1  0  0  0  0
 11 14  1  0  0  0  0
  9 10  1  0  0  0  0
  9 11  1  0  0  0  0
  9 22  1  0  0  0  0
  7  8  1  0  0  0  0
  7  9  1  0  0  0  0
 26 27  1  0  0  0  0
 26 28  1  0  0  0  0
 26 29  1  0  0  0  0
 24 25  1  0  0  0  0
 24 26  1  0  0  0  0
M  END
$$$$
default_name
  -OEChem-02102213163D

 29 28  0     1  0  0  0  0  0999 V2000
   -3.5781   -3.7296    1.2702 H   0  0  0  0  0  0  0  0  0  0  0  0
   -3.5311   -2.7616    0.7732 C   0  0  0  0  0  0  0  0  0  0  0  0
   -4.2371   -2.0766    1.2382 H   0  0  0  0  0  0  0  0  0  0  0  0
   -3.7681   -2.8816   -0.2818 H   0  0  0  0  0  0  0  0  0  0  0  0
   -2.1321   -2.2086    0.9112 C   0  0  0  0  0  0  0  0  0  0  0  0
   -1.2751   -2.8426    1.5112 O   0  0  0  0  0  0  0  0  0  0  0  0
   -1.9041   -1.0186    0.3602 N   0  0  0  0  0  0  0  0  0  0  0  0
   -2.6671   -0.5416   -0.0988 H   0  0  0  0  0  0  0  0  0  0  0  0
   -0.6131   -0.3236    0.3832 C   0  0  1  0  0  0  0  0  0  0  0  0
    0.0142   -0.7800    1.1506 H   0  0  0  0  0  0  0  0  0  0  0  0
    0.0816   -0.5059   -0.9788 C   0  0  0  0  0  0  0  0  0  0  0  0
    0.4943    0.4550   -1.2938 H   0  0  0  0  0  0  0  0  0  0  0  0
    0.9061   -1.2120   -0.8706 H   0  0  0  0  0  0  0  0  0  0  0  0
   -0.8556   -1.0124   -2.0813 C   0  0  0  0  0  0  0  0  0  0  0  0
   -1.6590   -0.2909   -2.2268 H   0  0  0  0  0  0  0  0  0  0  0  0
   -0.2897   -1.0990   -3.0096 H   0  0  0  0  0  0  0  0  0  0  0  0
   -1.6038   -2.6205   -1.7157 S   0  0  0  0  0  0  0  0  0  0  0  0
   -0.1378   -3.6782   -1.8337 C   0  0  0  0  0  0  0  0  0  0  0  0
    0.6035   -3.3624   -1.0991 H   0  0  0  0  0  0  0  0  0  0  0  0
   -0.4213   -4.7123   -1.6358 H   0  0  0  0  0  0  0  0  0  0  0  0
    0.2867   -3.6081   -2.8355 H   0  0  0  0  0  0  0  0  0  0  0  0
   -0.8064    1.1568    0.7414 C   0  0  0  0  0  0  0  0  0  0  0  0
   -1.6978    1.8100    0.2029 O   0  0  0  0  0  0  0  0  0  0  0  0
    0.0314    1.6872    1.6415 N   0  0  0  0  0  0  0  0  0  0  0  0
    0.7279    1.0858    2.0517 H   0  0  0  0  0  0  0  0  0  0  0  0
   -0.0137    3.0826    2.0755 C   0  0  0  0  0  0  0  0  0  0  0  0
   -0.9991    3.3070    2.4905 H   0  0  0  0  0  0  0  0  0  0  0  0
    0.7468    3.2694    2.8349 H   0  0  0  0  0  0  0  0  0  0  0  0
    0.1592    3.7397    1.2213 H   0  0  0  0  0  0  0  0  0  0  0  0
  5  6  2  0  0  0  0
  5  7  1  0  0  0  0
  2  3  1  0  0  0  0
  2  4  1  0  0  0  0
  2  5  1  0  0  0  0
  1  2  1  0  0  0  0
 22 23  2  0  0  0  0
 22 24  1  0  0  0  0
 18 19  1  0  0  0  0
 18 20  1  0  0  0  0
 18 21  1  0  0  0  0
 17 18  1  0  0  0  0
 14 15  1  0  0  0  0
 14 16  1  0  0  0  0
 14 17  1  0  0  0  0
 11 12  1  0  0  0  0
 11 13  1  0  0  0  0
 11 14  1  0  0  0  0
  9 10  1  0  0  0  0
  9 11  1  0  0  0  0
  9 22  1  0  0  0  0
  7  8  1  0  0  0  0
  7  9  1  0  0  0  0
 26 27  1  0  0  0  0
 26 28  1  0  0  0  0
 26 29  1  0  0  0  0
 24 25  1  0  0  0  0
 24 26  1  0  0  0  0
M  END
$$$$
default_name
  -OEChem-02102213163D

 29 28  0     1  0  0  0  0  0999 V2000
   -3.5781   -3.7296    1.2702 H   0  0  0  0  0  0  0  0  0  0  0  0
   -3.5311   -2.7616    0.7732 C   0  0  0  0  0  0  0  0  0  0  0  0
   -4.2371   -2.0766    1.2382 H   0  0  0  0  0  0  0  0  0  0  0  0
   -3.7681   -2.8816   -0.2818 H   0  0  0  0  0  0  0  0  0  0  0  0
   -2.1321   -2.2086    0.9112 C   0  0  0  0  0  0  0  0  0  0  0  0
   -1.2751   -2.8426    1.5112 O   0  0  0  0  0  0  0  0  0  0  0  0
   -1.9041   -1.0186    0.3602 N   0  0  0  0  0  0  0  0  0  0  0  0
   -2.6671   -0.5416   -0.0988 H   0  0  0  0  0  0  0  0  0  0  0  0
   -0.6131   -0.3236    0.3832 C   0  0  1  0  0  0  0  0  0  0  0  0
    0.0142   -0.7800    1.1506 H   0  0  0  0  0  0  0  0  0  0  0  0
    0.0816   -0.5059   -0.9788 C   0  0  0  0  0  0  0  0  0  0  0  0
    0.4943    0.4550   -1.2938 H   0  0  0  0  0  0  0  0  0  0  0  0
    0.9061   -1.2120   -0.8706 H   0  0  0  0  0  0  0  0  0  0  0  0
   -0.8556   -1.0124   -2.0813 C   0  0  0  0  0  0  0  0  0  0  0  0
   -1.4923   -0.1930   -2.4135 H   0  0  0  0  0  0  0  0  0  0  0  0
   -0.2530   -1.3522   -2.9244 H   0  0  0  0  0  0  0  0  0  0  0  0
   -1.9240   -2.3768   -1.5555 S   0  0  0  0  0  0  0  0  0  0  0  0
   -0.6851   -3.6848   -1.3654 C   0  0  0  0  0  0  0  0  0  0  0  0
    0.0495   -3.3892   -0.6158 H   0  0  0  0  0  0  0  0  0  0  0  0
   -1.1761   -4.6037   -1.0440 H   0  0  0  0  0  0  0  0  0  0  0  0
   -0.1855   -3.8595   -2.3187 H   0  0  0  0  0  0  0  0  0  0  0  0
   -0.8064    1.1568    0.7414 C   0  0  0  0  0  0  0  0  0  0  0  0
   -1.6978    1.8100    0.2029 O   0  0  0  0  0  0  0  0  0  0  0  0
    0.0314    1.6872    1.6415 N   0  0  0  0  0  0  0  0  0  0  0  0
    0.7279    1.0858    2.0517 H   0  0  0  0  0  0  0  0  0  0  0  0
   -0.0137    3.0826    2.0755 C   0  0  0  0  0  0  0  0  0  0  0  0
   -0.9991    3.3070    2.4905 H   0  0  0  0  0  0  0  0  0  0  0  0
    0.7468    3.2694    2.8349 H   0  0  0  0  0  0  0  0  0  0  0  0
    0.1592    3.7397    1.2213 H   0  0  0  0  0  0  0  0  0  0  0  0
  5  6  2  0  0  0  0
  5  7  1  0  0  0  0
  2  3  1  0  0  0  0
  2  4  1  0  0  0  0
  2  5  1  0  0  0  0
  1  2  1  0  0  0  0
 22 23  2  0  0  0  0
 22 24  1  0  0  0  0
 18 19  1  0  0  0  0
 18 20  1  0  0  0  0
 18 21  1  0  0  0  0
 17 18  1  0  0  0  0
 14 15  1  0  0  0  0
 14 16  1  0  0  0  0
 14 17  1  0  0  0  0
 11 12  1  0  0  0  0
 11 13  1  0  0  0  0
 11 14  1  0  0  0  0
  9 10  1  0  0  0  0
  9 11  1  0  0  0  0
  9 22  1  0  0  0  0
  7  8  1  0  0  0  0
  7  9  1  0  0  0  0
 26 27  1  0  0  0  0
 26 28  1  0  0  0  0
 26 29  1  0  0  0  0
 24 25  1  0  0  0  0
 24 26  1  0  0  0  0
M  END
$$$$
default_name
  -OEChem-02102213163D

 29 28  0     1  0  0  0  0  0999 V2000
   -3.5781   -3.7296    1.2702 H   0  0  0  0  0  0  0  0  0  0  0  0
   -3.5311   -2.7616    0.7732 C   0  0  0  0  0  0  0  0  0  0  0  0
   -4.2371   -2.0766    1.2382 H   0  0  0  0  0  0  0  0  0  0  0  0
   -3.7681   -2.8816   -0.2818 H   0  0  0  0  0  0  0  0  0  0  0  0
   -2.1321   -2.2086    0.9112 C   0  0  0  0  0  0  0  0  0  0  0  0
   -1.2751   -2.8426    1.5112 O   0  0  0  0  0  0  0  0  0  0  0  0
   -1.9041   -1.0186    0.3602 N   0  0  0  0  0  0  0  0  0  0  0  0
   -2.6671   -0.5416   -0.0988 H   0  0  0  0  0  0  0  0  0  0  0  0
   -0.6131   -0.3236    0.3832 C   0  0  1  0  0  0  0  0  0  0  0  0
    0.0142   -0.7800    1.1506 H   0  0  0  0  0  0  0  0  0  0  0  0
    0.0816   -0.5059   -0.9788 C   0  0  0  0  0  0  0  0  0  0  0  0
    0.4943    0.4550   -1.2938 H   0  0  0  0  0  0  0  0  0  0  0  0
    0.9061   -1.2120   -0.8706 H   0  0  0  0  0  0  0  0  0  0  0  0
   -0.8556   -1.0124   -2.0813 C   0  0  0  0  0  0  0  0  0  0  0  0
   -1.2972   -0.1590   -2.5950 H   0  0  0  0  0  0  0  0  0  0  0  0
   -0.2720   -1.5901   -2.7990 H   0  0  0  0  0  0  0  0  0  0  0  0
   -2.2016   -2.0564   -1.4667 S   0  0  0  0  0  0  0  0  0  0  0  0
   -1.2550   -3.5151   -0.9589 C   0  0  0  0  0  0  0  0  0  0  0  0
   -0.5319   -3.2355   -0.1921 H   0  0  0  0  0  0  0  0  0  0  0  0
   -1.9356   -4.2647   -0.5542 H   0  0  0  0  0  0  0  0  0  0  0  0
   -0.7326   -3.9327   -1.8200 H   0  0  0  0  0  0  0  0  0  0  0  0
   -0.8064    1.1568    0.7414 C   0  0  0  0  0  0  0  0  0  0  0  0
   -1.6978    1.8100    0.2029 O   0  0  0  0  0  0  0  0  0  0  0  0
    0.0314    1.6872    1.6415 N   0  0  0  0  0  0  0  0  0  0  0  0
    0.7279    1.0858    2.0517 H   0  0  0  0  0  0  0  0  0  0  0  0
   -0.0137    3.0826    2.0755 C   0  0  0  0  0  0  0  0  0  0  0  0
   -0.9991    3.3070    2.4905 H   0  0  0  0  0  0  0  0  0  0  0  0
    0.7468    3.2694    2.8349 H   0  0  0  0  0  0  0  0  0  0  0  0
    0.1592    3.7397    1.2213 H   0  0  0  0  0  0  0  0  0  0  0  0
  5  6  2  0  0  0  0
  5  7  1  0  0  0  0
  2  3  1  0  0  0  0
  2  4  1  0  0  0  0
  2  5  1  0  0  0  0
  1  2  1  0  0  0  0
 22 23  2  0  0  0  0
 22 24  1  0  0  0  0
 18 19  1  0  0  0  0
 18 20  1  0  0  0  0
 18 21  1  0  0  0  0
 17 18  1  0  0  0  0
 14 15  1  0  0  0  0
 14 16  1  0  0  0  0
 14 17  1  0  0  0  0
 11 12  1  0  0  0  0
 11 13  1  0  0  0  0
 11 14  1  0  0  0  0
  9 10  1  0  0  0  0
  9 11  1  0  0  0  0
  9 22  1  0  0  0  0
  7  8  1  0  0  0  0
  7  9  1  0  0  0  0
 26 27  1  0  0  0  0
 26 28  1  0  0  0  0
 26 29  1  0  0  0  0
 24 25  1  0  0  0  0
 24 26  1  0  0  0  0
M  END
$$$$
default_name
  -OEChem-02102213163D

 29 28  0     1  0  0  0  0  0999 V2000
   -3.5781   -3.7296    1.2702 H   0  0  0  0  0  0  0  0  0  0  0  0
   -3.5311   -2.7616    0.7732 C   0  0  0  0  0  0  0  0  0  0  0  0
   -4.2371   -2.0766    1.2382 H   0  0  0  0  0  0  0  0  0  0  0  0
   -3.7681   -2.8816   -0.2818 H   0  0  0  0  0  0  0  0  0  0  0  0
   -2.1321   -2.2086    0.9112 C   0  0  0  0  0  0  0  0  0  0  0  0
   -1.2751   -2.8426    1.5112 O   0  0  0  0  0  0  0  0  0  0  0  0
   -1.9041   -1.0186    0.3602 N   0  0  0  0  0  0  0  0  0  0  0  0
   -2.6671   -0.5416   -0.0988 H   0  0  0  0  0  0  0  0  0  0  0  0
   -0.6131   -0.3236    0.3832 C   0  0  1  0  0  0  0  0  0  0  0  0
    0.0142   -0.7800    1.1506 H   0  0  0  0  0  0  0  0  0  0  0  0
    0.0816   -0.5059   -0.9788 C   0  0  0  0  0  0  0  0  0  0  0  0
    0.4943    0.4550   -1.2938 H   0  0  0  0  0  0  0  0  0  0  0  0
    0.9061   -1.2120   -0.8706 H   0  0  0  0  0  0  0  0  0  0  0  0
   -0.8556   -1.0124   -2.0813 C   0  0  0  0  0  0  0  0  0  0  0  0
   -1.0868   -0.1912   -2.7590 H   0  0  0  0  0  0  0  0  0  0  0  0
   -0.3453   -1.7965   -2.6418 H   0  0  0  0  0  0  0  0  0  0  0  0
   -2.4178   -1.6812   -1.4554 S   0  0  0  0  0  0  0  0  0  0  0  0
   -1.8087   -3.1809   -0.6418 C   0  0  0  0  0  0  0  0  0  0  0  0
   -1.1011   -2.9119    0.1430 H   0  0  0  0  0  0  0  0  0  0  0  0
   -2.6480   -3.7184   -0.1996 H   0  0  0  0  0  0  0  0  0  0  0  0
   -1.3172   -3.8226   -1.3735 H   0  0  0  0  0  0  0  0  0  0  0  0
   -0.8064    1.1568    0.7414 C   0  0  0  0  0  0  0  0  0  0  0  0
   -1.6978    1.8100    0.2029 O   0  0  0  0  0  0  0  0  0  0  0  0
    0.0314    1.6872    1.6415 N   0  0  0  0  0  0  0  0  0  0  0  0
    0.7279    1.0858    2.0517 H   0  0  0  0  0  0  0  0  0  0  0  0
   -0.0137    3.0826    2.0755 C   0  0  0  0  0  0  0  0  0  0  0  0
   -0.9991    3.3070    2.4905 H   0  0  0  0  0  0  0  0  0  0  0  0
    0.7468    3.2694    2.8349 H   0  0  0  0  0  0  0  0  0  0  0  0
    0.1592    3.7397    1.2213 H   0  0  0  0  0  0  0  0  0  0  0  0
  5  6  2  0  0  0  0
  5  7  1  0  0  0  0
  2  3  1  0  0  0  0
  2  4  1  0  0  0  0
  2  5  1  0  0  0  0
  1  2  1  0  0  0  0
 22 23  2  0  0  0  0
 22 24  1  0  0  0  0
 18 19  1  0  0  0  0
 18 20  1  0  0  0  0
 18 21  1  0  0  0  0
 17 18  1  0  0  0  0
 14 15  1  0  0  0  0
 14 16  1  0  0  0  0
 14 17  1  0  0  0  0
 11 12  1  0  0  0  0
 11 13  1  0  0  0  0
 11 14  1  0  0  0  0
  9 10  1  0  0  0  0
  9 11  1  0  0  0  0
  9 22  1  0  0  0  0
  7  8  1  0  0  0  0
  7  9  1  0  0  0  0
 26 27  1  0  0  0  0
 26 28  1  0  0  0  0
 26 29  1  0  0  0  0
 24 25  1  0  0  0  0
 24 26  1  0  0  0  0
M  END
$$$$
default_name
  -OEChem-02102213163D

 29 28  0     1  0  0  0  0  0999 V2000
   -3.5781   -3.7296    1.2702 H   0  0  0  0  0  0  0  0  0  0  0  0
   -3.5311   -2.7616    0.7732 C   0  0  0  0  0  0  0  0  0  0  0  0
   -4.2371   -2.0766    1.2382 H   0  0  0  0  0  0  0  0  0  0  0  0
   -3.7681   -2.8816   -0.2818 H   0  0  0  0  0  0  0  0  0  0  0  0
   -2.1321   -2.2086    0.9112 C   0  0  0  0  0  0  0  0  0  0  0  0
   -1.2751   -2.8426    1.5112 O   0  0  0  0  0  0  0  0  0  0  0  0
   -1.9041   -1.0186    0.3602 N   0  0  0  0  0  0  0  0  0  0  0  0
   -2.6671   -0.5416   -0.0988 H   0  0  0  0  0  0  0  0  0  0  0  0
   -0.6131   -0.3236    0.3832 C   0  0  1  0  0  0  0  0  0  0  0  0
    0.0142   -0.7800    1.1506 H   0  0  0  0  0  0  0  0  0  0  0  0
    0.0816   -0.5059   -0.9788 C   0  0  0  0  0  0  0  0  0  0  0  0
    0.4943    0.4550   -1.2938 H   0  0  0  0  0  0  0  0  0  0  0  0
    0.9061   -1.2120   -0.8706 H   0  0  0  0  0  0  0  0  0  0  0  0
   -0.8556   -1.0124   -2.0813 C   0  0  0  0  0  0  0  0  0  0  0  0
   -0.8756   -0.2874   -2.8944 H   0  0  0  0  0  0  0  0  0  0  0  0
   -0.4680   -1.9574   -2.4636 H   0  0  0  0  0  0  0  0  0  0  0  0
   -2.5577   -1.2768   -1.5222 S   0  0  0  0  0  0  0  0  0  0  0  0
   -2.3085   -2.7048   -0.4357 C   0  0  0  0  0  0  0  0  0  0  0  0
   -1.6194   -2.4403    0.3669 H   0  0  0  0  0  0  0  0  0  0  0  0
   -3.2648   -3.0021   -0.0044 H   0  0  0  0  0  0  0  0  0  0  0  0
   -1.8997   -3.5369   -1.0097 H   0  0  0  0  0  0  0  0  0  0  0  0
   -0.8064    1.1568    0.7414 C   0  0  0  0  0  0  0  0  0  0  0  0
   -1.6978    1.8100    0.2029 O   0  0  0  0  0  0  0  0  0  0  0  0
    0.0314    1.6872    1.6415 N   0  0  0  0  0  0  0  0  0  0  0  0
    0.7279    1.0858    2.0517 H   0  0  0  0  0  0  0  0  0  0  0  0
   -0.0137    3.0826    2.0755 C   0  0  0  0  0  0  0  0  0  0  0  0
   -0.9991    3.3070    2.4905 H   0  0  0  0  0  0  0  0  0  0  0  0
    0.7468    3.2694    2.8349 H   0  0  0  0  0  0  0  0  0  0  0  0
    0.1592    3.7397    1.2213 H   0  0  0  0  0  0  0  0  0  0  0  0
  5  6  2  0  0  0  0
  5  7  1  0  0  0  0
  2  3  1  0  0  0  0
  2  4  1  0  0  0  0
  2  5  1  0  0  0  0
  1  2  1  0  0  0  0
 22 23  2  0  0  0  0
 22 24  1  0  0  0  0
 18 19  1  0  0  0  0
 18 20  1  0  0  0  0
 18 21  1  0  0  0  0
 17 18  1  0  0  0  0
 14 15  1  0  0  0  0
 14 16  1  0  0  0  0
 14 17  1  0  0  0  0
 11 12  1  0  0  0  0
 11 13  1  0  0  0  0
 11 14  1  0  0  0  0
  9 10  1  0  0  0  0
  9 11  1  0  0  0  0
  9 22  1  0  0  0  0
  7  8  1  0  0  0  0
  7  9  1  0  0  0  0
 26 27  1  0  0  0  0
 26 28  1  0  0  0  0
 26 29  1  0  0  0  0
 24 25  1  0  0  0  0
 24 26  1  0  0  0  0
M  END
$$$$
default_name
  -OEChem-02102213163D

 29 28  0     1  0  0  0  0  0999 V2000
   -3.5781   -3.7296    1.2702 H   0  0  0  0  0  0  0  0  0  0  0  0
   -3.5311   -2.7616    0.7732 C   0  0  0  0  0  0  0  0  0  0  0  0
   -4.2371   -2.0766    1.2382 H   0  0  0  0  0  0  0  0  0  0  0  0
   -3.7681   -2.8816   -0.2818 H   0  0  0  0  0  0  0  0  0  0  0  0
   -2.1321   -2.2086    0.9112 C   0  0  0  0  0  0  0  0  0  0  0  0
   -1.2751   -2.8426    1.5112 O   0  0  0  0  0  0  0  0  0  0  0  0
   -1.9041   -1.0186    0.3602 N   0  0  0  0  0  0  0  0  0  0  0  0
   -2.6671   -0.5416   -0.0988 H   0  0  0  0  0  0  0  0  0  0  0  0
   -0.6131   -0.3236    0.3832 C   0  0  1  0  0  0  0  0  0  0  0  0
    0.0142   -0.7800    1.1506 H   0  0  0  0  0  0  0  0  0  0  0  0
    0.0816   -0.5059   -0.9788 C   0  0  0  0  0  0  0  0  0  0  0  0
    0.4943    0.4550   -1.2938 H   0  0  0  0  0  0  0  0  0  0  0  0
    0.9061   -1.2120   -0.8706 H   0  0  0  0  0  0  0  0  0  0  0  0
   -0.8556   -1.0124   -2.0813 C   0  0  0  0  0  0  0  0  0  0  0  0
   -0.6779   -0.4410   -2.9919 H   0  0  0  0  0  0  0  0  0  0  0  0
   -0.6317   -2.0618   -2.2765 H   0  0  0  0  0  0  0  0  0  0  0  0
   -2.6118   -0.8707   -1.6628 S   0  0  0  0  0  0  0  0  0  0  0  0
   -2.7202   -2.1193   -0.3547 C   0  0  0  0  0  0  0  0  0  0  0  0
   -2.0514   -1.8528    0.4642 H   0  0  0  0  0  0  0  0  0  0  0  0
   -3.7439   -2.1644    0.0180 H   0  0  0  0  0  0  0  0  0  0  0  0
   -2.4403   -3.0949   -0.7533 H   0  0  0  0  0  0  0  0  0  0  0  0
   -0.8064    1.1568    0.7414 C   0  0  0  0  0  0  0  0  0  0  0  0
   -1.6978    1.8100    0.2029 O   0  0  0  0  0  0  0  0  0  0  0  0
    0.0314    1.6872    1.6415 N   0  0  0  0  0  0  0  0  0  0  0  0
    0.7279    1.0858    2.0517 H   0  0  0  0  0  0  0  0  0  0  0  0
   -0.0137    3.0826    2.0755 C   0  0  0  0  0  0  0  0  0  0  0  0
   -0.9991    3.3070    2.4905 H   0  0  0  0  0  0  0  0  0  0  0  0
    0.7468    3.2694    2.8349 H   0  0  0  0  0  0  0  0  0  0  0  0
    0.1592    3.7397    1.2213 H   0  0  0  0  0  0  0  0  0  0  0  0
  5  6  2  0  0  0  0
  5  7  1  0  0  0  0
  2  3  1  0  0  0  0
  2  4  1  0  0  0  0
  2  5  1  0  0  0  0
  1  2  1  0  0  0  0
 22 23  2  0  0  0  0
 22 24  1  0  0  0  0
 18 19  1  0  0  0  0
 18 20  1  0  0  0  0
 18 21  1  0  0  0  0
 17 18  1  0  0  0  0
 14 15  1  0  0  0  0
 14 16  1  0  0  0  0
 14 17  1  0  0  0  0
 11 12  1  0  0  0  0
 11 13  1  0  0  0  0
 11 14  1  0  0  0  0
  9 10  1  0  0  0  0
  9 11  1  0  0  0  0
  9 22  1  0  0  0  0
  7  8  1  0  0  0  0
  7  9  1  0  0  0  0
 26 27  1  0  0  0  0
 26 28  1  0  0  0  0
 26 29  1  0  0  0  0
 24 25  1  0  0  0  0
 24 26  1  0  0  0  0
M  END
$$$$
default_name
  -OEChem-02102213163D

 29 28  0     1  0  0  0  0  0999 V2000
   -3.5781   -3.7296    1.2702 H   0  0  0  0  0  0  0  0  0  0  0  0
   -3.5311   -2.7616    0.7732 C   0  0  0  0  0  0  0  0  0  0  0  0
   -4.2371   -2.0766    1.2382 H   0  0  0  0  0  0  0  0  0  0  0  0
   -3.7681   -2.8816   -0.2818 H   0  0  0  0  0  0  0  0  0  0  0  0
   -2.1321   -2.2086    0.9112 C   0  0  0  0  0  0  0  0  0  0  0  0
   -1.2751   -2.8426    1.5112 O   0  0  0  0  0  0  0  0  0  0  0  0
   -1.9041   -1.0186    0.3602 N   0  0  0  0  0  0  0  0  0  0  0  0
   -2.6671   -0.5416   -0.0988 H   0  0  0  0  0  0  0  0  0  0  0  0
   -0.6131   -0.3236    0.3832 C   0  0  1  0  0  0  0  0  0  0  0  0
    0.0142   -0.7800    1.1506 H   0  0  0  0  0  0  0  0  0  0  0  0
    0.0816   -0.5059   -0.9788 C   0  0  0  0  0  0  0  0  0  0  0  0
    0.4943    0.4550   -1.2938 H   0  0  0  0  0  0  0  0  0  0  0  0
    0.9061   -1.2120   -0.8706 H   0  0  0  0  0  0  0  0  0  0  0  0
   -0.8556   -1.0124   -2.0813 C   0  0  0  0  0  0  0  0  0  0  0  0
   -0.5072   -0.6417   -3.0448 H   0  0  0  0  0  0  0  0  0  0  0  0
   -0.8253   -2.1025   -2.0932 H   0  0  0  0  0  0  0  0  0  0  0  0
   -2.5765   -0.4906   -1.8674 S   0  0  0  0  0  0  0  0  0  0  0  0
   -3.0158   -1.4644   -0.4043 C   0  0  0  0  0  0  0  0  0  0  0  0
   -2.3676   -1.1896    0.4284 H   0  0  0  0  0  0  0  0  0  0  0  0
   -4.0526   -1.2626   -0.1339 H   0  0  0  0  0  0  0  0  0  0  0  0
   -2.9020   -2.5267   -0.6218 H   0  0  0  0  0  0  0  0  0  0  0  0
   -0.8064    1.1568    0.7414 C   0  0  0  0  0  0  0  0  0  0  0  0
   -1.6978    1.8100    0.2029 O   0  0  0  0  0  0  0  0  0  0  0  0
    0.0314    1.6872    1.6415 N   0  0  0  0  0  0  0  0  0  0  0  0
    0.7279    1.0858    2.0517 H   0  0  0  0  0  0  0  0  0  0  0  0
   -0.0137    3.0826    2.0755 C   0  0  0  0  0  0  0  0  0  0  0  0
   -0.9991    3.3070    2.4905 H   0  0  0  0  0  0  0  0  0  0  0  0
    0.7468    3.2694    2.8349 H   0  0  0  0  0  0  0  0  0  0  0  0
    0.1592    3.7397    1.2213 H   0  0  0  0  0  0  0  0  0  0  0  0
  5  6  2  0  0  0  0
  5  7  1  0  0  0  0
  2  3  1  0  0  0  0
  2  4  1  0  0  0  0
  2  5  1  0  0  0  0
  1  2  1  0  0  0  0
 22 23  2  0  0  0  0
 22 24  1  0  0  0  0
 18 19  1  0  0  0  0
 18 20  1  0  0  0  0
 18 21  1  0  0  0  0
 17 18  1  0  0  0  0
 14 15  1  0  0  0  0
 14 16  1  0  0  0  0
 14 17  1  0  0  0  0
 11 12  1  0  0  0  0
 11 13  1  0  0  0  0
 11 14  1  0  0  0  0
  9 10  1  0  0  0  0
  9 11  1  0  0  0  0
  9 22  1  0  0  0  0
  7  8  1  0  0  0  0
  7  9  1  0  0  0  0
 26 27  1  0  0  0  0
 26 28  1  0  0  0  0
 26 29  1  0  0  0  0
 24 25  1  0  0  0  0
 24 26  1  0  0  0  0
M  END
$$$$
default_name
  -OEChem-02102213163D

 29 28  0     1  0  0  0  0  0999 V2000
   -3.5781   -3.7296    1.2702 H   0  0  0  0  0  0  0  0  0  0  0  0
   -3.5311   -2.7616    0.7732 C   0  0  0  0  0  0  0  0  0  0  0  0
   -4.2371   -2.0766    1.2382 H   0  0  0  0  0  0  0  0  0  0  0  0
   -3.7681   -2.8816   -0.2818 H   0  0  0  0  0  0  0  0  0  0  0  0
   -2.1321   -2.2086    0.9112 C   0  0  0  0  0  0  0  0  0  0  0  0
   -1.2751   -2.8426    1.5112 O   0  0  0  0  0  0  0  0  0  0  0  0
   -1.9041   -1.0186    0.3602 N   0  0  0  0  0  0  0  0  0  0  0  0
   -2.6671   -0.5416   -0.0988 H   0  0  0  0  0  0  0  0  0  0  0  0
   -0.6131   -0.3236    0.3832 C   0  0  1  0  0  0  0  0  0  0  0  0
    0.0142   -0.7800    1.1506 H   0  0  0  0  0  0  0  0  0  0  0  0
    0.0816   -0.5059   -0.9788 C   0  0  0  0  0  0  0  0  0  0  0  0
    0.4943    0.4550   -1.2938 H   0  0  0  0  0  0  0  0  0  0  0  0
    0.9061   -1.2120   -0.8706 H   0  0  0  0  0  0  0  0  0  0  0  0
   -0.8556   -1.0124   -2.0813 C   0  0  0  0  0  0  0  0  0  0  0  0
   -0.3751   -0.8756   -3.0496 H   0  0  0  0  0  0  0  0  0  0  0  0
   -1.0355   -2.0768   -1.9263 H   0  0  0  0  0  0  0  0  0  0  0  0
   -2.4542   -0.1624   -2.1222 S   0  0  0  0  0  0  0  0  0  0  0  0
   -3.1752   -0.7845   -0.5812 C   0  0  0  0  0  0  0  0  0  0  0  0
   -2.5466   -0.4958    0.2617 H   0  0  0  0  0  0  0  0  0  0  0  0
   -4.1701   -0.3581   -0.4496 H   0  0  0  0  0  0  0  0  0  0  0  0
   -3.2536   -1.8712   -0.6241 H   0  0  0  0  0  0  0  0  0  0  0  0
   -0.8064    1.1568    0.7414 C   0  0  0  0  0  0  0  0  0  0  0  0
   -1.6978    1.8100    0.2029 O   0  0  0  0  0  0  0  0  0  0  0  0
    0.0314    1.6872    1.6415 N   0  0  0  0  0  0  0  0  0  0  0  0
    0.7279    1.0858    2.0517 H   0  0  0  0  0  0  0  0  0  0  0  0
   -0.0137    3.0826    2.0755 C   0  0  0  0  0  0  0  0  0  0  0  0
   -0.9991    3.3070    2.4905 H   0  0  0  0  0  0  0  0  0  0  0  0
    0.7468    3.2694    2.8349 H   0  0  0  0  0  0  0  0  0  0  0  0
    0.1592    3.7397    1.2213 H   0  0  0  0  0  0  0  0  0  0  0  0
  5  6  2  0  0  0  0
  5  7  1  0  0  0  0
  2  3  1  0  0  0  0
  2  4  1  0  0  0  0
  2  5  1  0  0  0  0
  1  2  1  0  0  0  0
 22 23  2  0  0  0  0
 22 24  1  0  0  0  0
 18 19  1  0  0  0  0
 18 20  1  0  0  0  0
 18 21  1  0  0  0  0
 17 18  1  0  0  0  0
 14 15  1  0  0  0  0
 14 16  1  0  0  0  0
 14 17  1  0  0  0  0
 11 12  1  0  0  0  0
 11 13  1  0  0  0  0
 11 14  1  0  0  0  0
  9 10  1  0  0  0  0
  9 11  1  0  0  0  0
  9 22  1  0  0  0  0
  7  8  1  0  0  0  0
  7  9  1  0  0  0  0
 26 27  1  0  0  0  0
 26 28  1  0  0  0  0
 26 29  1  0  0  0  0
 24 25  1  0  0  0  0
 24 26  1  0  0  0  0
M  END
$$$$
default_name
  -OEChem-02102213163D

 29 28  0     1  0  0  0  0  0999 V2000
   -3.5781   -3.7296    1.2702 H   0  0  0  0  0  0  0  0  0  0  0  0
   -3.5311   -2.7616    0.7732 C   0  0  0  0  0  0  0  0  0  0  0  0
   -4.2371   -2.0766    1.2382 H   0  0  0  0  0  0  0  0  0  0  0  0
   -3.7681   -2.8816   -0.2818 H   0  0  0  0  0  0  0  0  0  0  0  0
   -2.1321   -2.2086    0.9112 C   0  0  0  0  0  0  0  0  0  0  0  0
   -1.2751   -2.8426    1.5112 O   0  0  0  0  0  0  0  0  0  0  0  0
   -1.9041   -1.0186    0.3602 N   0  0  0  0  0  0  0  0  0  0  0  0
   -2.6671   -0.5416   -0.0988 H   0  0  0  0  0  0  0  0  0  0  0  0
   -0.6131   -0.3236    0.3832 C   0  0  1  0  0  0  0  0  0  0  0  0
    0.0142   -0.7800    1.1506 H   0  0  0  0  0  0  0  0  0  0  0  0
    0.0816   -0.5059   -0.9788 C   0  0  0  0  0  0  0  0  0  0  0  0
    0.4943    0.4550   -1.2938 H   0  0  0  0  0  0  0  0  0  0  0  0
    0.9061   -1.2120   -0.8706 H   0  0  0  0  0  0  0  0  0  0  0  0
   -0.8556   -1.0124   -2.0813 C   0  0  0  0  0  0  0  0  0  0  0  0
   -0.2906   -1.1269   -3.0059 H   0  0  0  0  0  0  0  0  0  0  0  0
   -1.2480   -1.9865   -1.7872 H   0  0  0  0  0  0  0  0  0  0  0  0
   -2.2531    0.0915   -2.4098 S   0  0  0  0  0  0  0  0  0  0  0  0
   -3.1876   -0.1262   -0.8732 C   0  0  0  0  0  0  0  0  0  0  0  0
   -2.5761    0.1813   -0.0243 H   0  0  0  0  0  0  0  0  0  0  0  0
   -4.0882    0.4875   -0.9078 H   0  0  0  0  0  0  0  0  0  0  0  0
   -3.4710   -1.1730   -0.7601 H   0  0  0  0  0  0  0  0  0  0  0  0
   -0.8064    1.1568    0.7414 C   0  0  0  0  0  0  0  0  0  0  0  0
   -1.6978    1.8100    0.2029 O   0  0  0  0  0  0  0  0  0  0  0  0
    0.0314    1.6872    1.6415 N   0  0  0  0  0  0  0  0  0  0  0  0
    0.7279    1.0858    2.0517 H   0  0  0  0  0  0  0  0  0  0  0  0
   -0.0137    3.0826    2.0755 C   0  0  0  0  0  0  0  0  0  0  0  0
   -0.9991    3.3070    2.4905 H   0  0  0  0  0  0  0  0  0  0  0  0
    0.7468    3.2694    2.8349 H   0  0  0  0  0  0  0  0  0  0  0  0
    0.1592    3.7397    1.2213 H   0  0  0  0  0  0  0  0  0  0  0  0
  5  6  2  0  0  0  0
  5  7  1  0  0  0  0
  2  3  1  0  0  0  0
  2  4  1  0  0  0  0
  2  5  1  0  0  0  0
  1  2  1  0  0  0  0
 22 23  2  0  0  0  0
 22 24  1  0  0  0  0
 18 19  1  0  0  0  0
 18 20  1  0  0  0  0
 18 21  1  0  0  0  0
 17 18  1  0  0  0  0
 14 15  1  0  0  0  0
 14 16  1  0  0  0  0
 14 17  1  0  0  0  0
 11 12  1  0  0  0  0
 11 13  1  0  0  0  0
 11 14  1  0  0  0  0
  9 10  1  0  0  0  0
  9 11  1  0  0  0  0
  9 22  1  0  0  0  0
  7  8  1  0  0  0  0
  7  9  1  0  0  0  0
 26 27  1  0  0  0  0
 26 28  1  0  0  0  0
 26 29  1  0  0  0  0
 24 25  1  0  0  0  0
 24 26  1  0  0  0  0
M  END
$$$$
default_name
  -OEChem-02102213163D

 29 28  0     1  0  0  0  0  0999 V2000
   -3.5781   -3.7296    1.2702 H   0  0  0  0  0  0  0  0  0  0  0  0
   -3.5311   -2.7616    0.7732 C   0  0  0  0  0  0  0  0  0  0  0  0
   -4.2371   -2.0766    1.2382 H   0  0  0  0  0  0  0  0  0  0  0  0
   -3.7681   -2.8816   -0.2818 H   0  0  0  0  0  0  0  0  0  0  0  0
   -2.1321   -2.2086    0.9112 C   0  0  0  0  0  0  0  0  0  0  0  0
   -1.2751   -2.8426    1.5112 O   0  0  0  0  0  0  0  0  0  0  0  0
   -1.9041   -1.0186    0.3602 N   0  0  0  0  0  0  0  0  0  0  0  0
   -2.6671   -0.5416   -0.0988 H   0  0  0  0  0  0  0  0  0  0  0  0
   -0.6131   -0.3236    0.3832 C   0  0  1  0  0  0  0  0  0  0  0  0
    0.0142   -0.7800    1.1506 H   0  0  0  0  0  0  0  0  0  0  0  0
    0.0816   -0.5059   -0.9788 C   0  0  0  0  0  0  0  0  0  0  0  0
    0.4943    0.4550   -1.2938 H   0  0  0  0  0  0  0  0  0  0  0  0
    0.9061   -1.2120   -0.8706 H   0  0  0  0  0  0  0  0  0  0  0  0
   -0.8556   -1.0124   -2.0813 C   0  0  0  0  0  0  0  0  0  0  0  0
   -0.2596   -1.3785   -2.9167 H   0  0  0  0  0  0  0  0  0  0  0  0
   -1.4484   -1.8376   -1.6852 H   0  0  0  0  0  0  0  0  0  0  0  0
   -1.9871    0.2539   -2.7105 S   0  0  0  0  0  0  0  0  0  0  0  0
   -3.0520    0.4659   -1.2604 C   0  0  0  0  0  0  0  0  0  0  0  0
   -2.4541    0.7955   -0.4102 H   0  0  0  0  0  0  0  0  0  0  0  0
   -3.8125    1.2166   -1.4771 H   0  0  0  0  0  0  0  0  0  0  0  0
   -3.5393   -0.4796   -1.0206 H   0  0  0  0  0  0  0  0  0  0  0  0
   -0.8064    1.1568    0.7414 C   0  0  0  0  0  0  0  0  0  0  0  0
   -1.6978    1.8100    0.2029 O   0  0  0  0  0  0  0  0  0  0  0  0
    0.0314    1.6872    1.6415 N   0  0  0  0  0  0  0  0  0  0  0  0
    0.7279    1.0858    2.0517 H   0  0  0  0  0  0  0  0  0  0  0  0
   -0.0137    3.0826    2.0755 C   0  0  0  0  0  0  0  0  0  0  0  0
   -0.9991    3.3070    2.4905 H   0  0  0  0  0  0  0  0  0  0  0  0
    0.7468    3.2694    2.8349 H   0  0  0  0  0  0  0  0  0  0  0  0
    0.1592    3.7397    1.2213 H   0  0  0  0  0  0  0  0  0  0  0  0
  5  6  2  0  0  0  0
  5  7  1  0  0  0  0
  2  3  1  0  0  0  0
  2  4  1  0  0  0  0
  2  5  1  0  0  0  0
  1  2  1  0  0  0  0
 22 23  2  0  0  0  0
 22 24  1  0  0  0  0
 18 19  1  0  0  0  0
 18 20  1  0  0  0  0
 18 21  1  0  0  0  0
 17 18  1  0  0  0  0
 14 15  1  0  0  0  0
 14 16  1  0  0  0  0
 14 17  1  0  0  0  0
 11 12  1  0  0  0  0
 11 13  1  0  0  0  0
 11 14  1  0  0  0  0
  9 10  1  0  0  0  0
  9 11  1  0  0  0  0
  9 22  1  0  0  0  0
  7  8  1  0  0  0  0
  7  9  1  0  0  0  0
 26 27  1  0  0  0  0
 26 28  1  0  0  0  0
 26 29  1  0  0  0  0
 24 25  1  0  0  0  0
 24 26  1  0  0  0  0
M  END
$$$$
default_name
  -OEChem-02102213163D

 29 28  0     1  0  0  0  0  0999 V2000
   -3.5781   -3.7296    1.2702 H   0  0  0  0  0  0  0  0  0  0  0  0
   -3.5311   -2.7616    0.7732 C   0  0  0  0  0  0  0  0  0  0  0  0
   -4.2371   -2.0766    1.2382 H   0  0  0  0  0  0  0  0  0  0  0  0
   -3.7681   -2.8816   -0.2818 H   0  0  0  0  0  0  0  0  0  0  0  0
   -2.1321   -2.2086    0.9112 C   0  0  0  0  0  0  0  0  0  0  0  0
   -1.2751   -2.8426    1.5112 O   0  0  0  0  0  0  0  0  0  0  0  0
   -1.9041   -1.0186    0.3602 N   0  0  0  0  0  0  0  0  0  0  0  0
   -2.6671   -0.5416   -0.0988 H   0  0  0  0  0  0  0  0  0  0  0  0
   -0.6131   -0.3236    0.3832 C   0  0  1  0  0  0  0  0  0  0  0  0
    0.0142   -0.7800    1.1506 H   0  0  0  0  0  0  0  0  0  0  0  0
    0.0816   -0.5059   -0.9788 C   0  0  0  0  0  0  0  0  0  0  0  0
    0.4943    0.4550   -1.2938 H   0  0  0  0  0  0  0  0  0  0  0  0
    0.9061   -1.2120   -0.8706 H   0  0  0  0  0  0  0  0  0  0  0  0
   -0.8556   -1.0124   -2.0813 C   0  0  0  0  0  0  0  0  0  0  0  0
   -0.2840   -1.6131   -2.7881 H   0  0  0  0  0  0  0  0  0  0  0  0
   -1.6230   -1.6405   -1.6274 H   0  0  0  0  0  0  0  0  0  0  0  0
   -1.6742    0.3136   -3.0040 S   0  0  0  0  0  0  0  0  0  0  0  0
   -2.7777    0.9512   -1.7166 C   0  0  0  0  0  0  0  0  0  0  0  0
   -2.1889    1.3051   -0.8698 H   0  0  0  0  0  0  0  0  0  0  0  0
   -3.3618    1.7794   -2.1188 H   0  0  0  0  0  0  0  0  0  0  0  0
   -3.4540    0.1617   -1.3877 H   0  0  0  0  0  0  0  0  0  0  0  0
   -0.8064    1.1568    0.7414 C   0  0  0  0  0  0  0  0  0  0  0  0
   -1.6978    1.8100    0.2029 O   0  0  0  0  0  0  0  0  0  0  0  0
    0.0314    1.6872    1.6415 N   0  0  0  0  0  0  0  0  0  0  0  0
    0.7279    1.0858    2.0517 H   0  0  0  0  0  0  0  0  0  0  0  0
   -0.0137    3.0826    2.0755 C   0  0  0  0  0  0  0  0  0  0  0  0
   -0.9991    3.3070    2.4905 H   0  0  0  0  0  0  0  0  0  0  0  0
    0.7468    3.2694    2.8349 H   0  0  0  0  0  0  0  0  0  0  0  0
    0.1592    3.7397    1.2213 H   0  0  0  0  0  0  0  0  0  0  0  0
  5  6  2  0  0  0  0
  5  7  1  0  0  0  0
  2  3  1  0  0  0  0
  2  4  1  0  0  0  0
  2  5  1  0  0  0  0
  1  2  1  0  0  0  0
 22 23  2  0  0  0  0
 22 24  1  0  0  0  0
 18 19  1  0  0  0  0
 18 20  1  0  0  0  0
 18 21  1  0  0  0  0
 17 18  1  0  0  0  0
 14 15  1  0  0  0  0
 14 16  1  0  0  0  0
 14 17  1  0  0  0  0
 11 12  1  0  0  0  0
 11 13  1  0  0  0  0
 11 14  1  0  0  0  0
  9 10  1  0  0  0  0
  9 11  1  0  0  0  0
  9 22  1  0  0  0  0
  7  8  1  0  0  0  0
  7  9  1  0  0  0  0
 26 27  1  0  0  0  0
 26 28  1  0  0  0  0
 26 29  1  0  0  0  0
 24 25  1  0  0  0  0
 24 26  1  0  0  0  0
M  END
$$$$
default_name
  -OEChem-02102213163D

 29 28  0     1  0  0  0  0  0999 V2000
   -3.5781   -3.7296    1.2702 H   0  0  0  0  0  0  0  0  0  0  0  0
   -3.5311   -2.7616    0.7732 C   0  0  0  0  0  0  0  0  0  0  0  0
   -4.2371   -2.0766    1.2382 H   0  0  0  0  0  0  0  0  0  0  0  0
   -3.7681   -2.8816   -0.2818 H   0  0  0  0  0  0  0  0  0  0  0  0
   -2.1321   -2.2086    0.9112 C   0  0  0  0  0  0  0  0  0  0  0  0
   -1.2751   -2.8426    1.5112 O   0  0  0  0  0  0  0  0  0  0  0  0
   -1.9041   -1.0186    0.3602 N   0  0  0  0  0  0  0  0  0  0  0  0
   -2.6671   -0.5416   -0.0988 H   0  0  0  0  0  0  0  0  0  0  0  0
   -0.6131   -0.3236    0.3832 C   0  0  1  0  0  0  0  0  0  0  0  0
    0.0142   -0.7800    1.1506 H   0  0  0  0  0  0  0  0  0  0  0  0
    0.0816   -0.5059   -0.9788 C   0  0  0  0  0  0  0  0  0  0  0  0
    0.4943    0.4550   -1.2938 H   0  0  0  0  0  0  0  0  0  0  0  0
    0.9061   -1.2120   -0.8706 H   0  0  0  0  0  0  0  0  0  0  0  0
   -0.8556   -1.0124   -2.0813 C   0  0  0  0  0  0  0  0  0  0  0  0
   -0.3623   -1.8149   -2.6289 H   0  0  0  0  0  0  0  0  0  0  0  0
   -1.7598   -1.4084   -1.6177 H   0  0  0  0  0  0  0  0  0  0  0  0
   -1.3357    0.2666   -3.2701 S   0  0  0  0  0  0  0  0  0  0  0  0
   -2.3834    1.2968   -2.2105 C   0  0  0  0  0  0  0  0  0  0  0  0
   -1.7986    1.6752   -1.3716 H   0  0  0  0  0  0  0  0  0  0  0  0
   -2.7668    2.1376   -2.7892 H   0  0  0  0  0  0  0  0  0  0  0  0
   -3.2209    0.7072   -1.8365 H   0  0  0  0  0  0  0  0  0  0  0  0
   -0.8064    1.1568    0.7414 C   0  0  0  0  0  0  0  0  0  0  0  0
   -1.6978    1.8100    0.2029 O   0  0  0  0  0  0  0  0  0  0  0  0
    0.0314    1.6872    1.6415 N   0  0  0  0  0  0  0  0  0  0  0  0
    0.7279    1.0858    2.0517 H   0  0  0  0  0  0  0  0  0  0  0  0
   -0.0137    3.0826    2.0755 C   0  0  0  0  0  0  0  0  0  0  0  0
   -0.9991    3.3070    2.4905 H   0  0  0  0  0  0  0  0  0  0  0  0
    0.7468    3.2694    2.8349 H   0  0  0  0  0  0  0  0  0  0  0  0
    0.1592    3.7397    1.2213 H   0  0  0  0  0  0  0  0  0  0  0  0
  5  6  2  0  0  0  0
  5  7  1  0  0  0  0
  2  3  1  0  0  0  0
  2  4  1  0  0  0  0
  2  5  1  0  0  0  0
  1  2  1  0  0  0  0
 22 23  2  0  0  0  0
 22 24  1  0  0  0  0
 18 19  1  0  0  0  0
 18 20  1  0  0  0  0
 18 21  1  0  0  0  0
 17 18  1  0  0  0  0
 14 15  1  0  0  0  0
 14 16  1  0  0  0  0
 14 17  1  0  0  0  0
 11 12  1  0  0  0  0
 11 13  1  0  0  0  0
 11 14  1  0  0  0  0
  9 10  1  0  0  0  0
  9 11  1  0  0  0  0
  9 22  1  0  0  0  0
  7  8  1  0  0  0  0
  7  9  1  0  0  0  0
 26 27  1  0  0  0  0
 26 28  1  0  0  0  0
 26 29  1  0  0  0  0
 24 25  1  0  0  0  0
 24 26  1  0  0  0  0
M  END
$$$$
default_name
  -OEChem-02102213163D

 29 28  0     1  0  0  0  0  0999 V2000
   -3.5781   -3.7296    1.2702 H   0  0  0  0  0  0  0  0  0  0  0  0
   -3.5311   -2.7616    0.7732 C   0  0  0  0  0  0  0  0  0  0  0  0
   -4.2371   -2.0766    1.2382 H   0  0  0  0  0  0  0  0  0  0  0  0
   -3.7681   -2.8816   -0.2818 H   0  0  0  0  0  0  0  0  0  0  0  0
   -2.1321   -2.2086    0.9112 C   0  0  0  0  0  0  0  0  0  0  0  0
   -1.2751   -2.8426    1.5112 O   0  0  0  0  0  0  0  0  0  0  0  0
   -1.9041   -1.0186    0.3602 N   0  0  0  0  0  0  0  0  0  0  0  0
   -2.6671   -0.5416   -0.0988 H   0  0  0  0  0  0  0  0  0  0  0  0
   -0.6131   -0.3236    0.3832 C   0  0  1  0  0  0  0  0  0  0  0  0
    0.0142   -0.7800    1.1506 H   0  0  0  0  0  0  0  0  0  0  0  0
    0.0816   -0.5059   -0.9788 C   0  0  0  0  0  0  0  0  0  0  0  0
    0.4943    0.4550   -1.2938 H   0  0  0  0  0  0  0  0  0  0  0  0
    0.9061   -1.2120   -0.8706 H   0  0  0  0  0  0  0  0  0  0  0  0
   -0.8556   -1.0124   -2.0813 C   0  0  0  0  0  0  0  0  0  0  0  0
   -0.4891   -1.9700   -2.4498 H   0  0  0  0  0  0  0  0  0  0  0  0
   -1.8497   -1.1572   -1.6568 H   0  0  0  0  0  0  0  0  0  0  0  0
   -0.9947    0.1161   -3.4908 S   0  0  0  0  0  0  0  0  0  0  0  0
   -1.8960    1.4790   -2.7086 C   0  0  0  0  0  0  0  0  0  0  0  0
   -1.3098    1.8807   -1.8815 H   0  0  0  0  0  0  0  0  0  0  0  0
   -2.0681    2.2668   -3.4425 H   0  0  0  0  0  0  0  0  0  0  0  0
   -2.8558    1.1197   -2.3364 H   0  0  0  0  0  0  0  0  0  0  0  0
   -0.8064    1.1568    0.7414 C   0  0  0  0  0  0  0  0  0  0  0  0
   -1.6978    1.8100    0.2029 O   0  0  0  0  0  0  0  0  0  0  0  0
    0.0314    1.6872    1.6415 N   0  0  0  0  0  0  0  0  0  0  0  0
    0.7279    1.0858    2.0517 H   0  0  0  0  0  0  0  0  0  0  0  0
   -0.0137    3.0826    2.0755 C   0  0  0  0  0  0  0  0  0  0  0  0
   -0.9991    3.3070    2.4905 H   0  0  0  0  0  0  0  0  0  0  0  0
    0.7468    3.2694    2.8349 H   0  0  0  0  0  0  0  0  0  0  0  0
    0.1592    3.7397    1.2213 H   0  0  0  0  0  0  0  0  0  0  0  0
  5  6  2  0  0  0  0
  5  7  1  0  0  0  0
  2  3  1  0  0  0  0
  2  4  1  0  0  0  0
  2  5  1  0  0  0  0
  1  2  1  0  0  0  0
 22 23  2  0  0  0  0
 22 24  1  0  0  0  0
 18 19  1  0  0  0  0
 18 20  1  0  0  0  0
 18 21  1  0  0  0  0
 17 18  1  0  0  0  0
 14 15  1  0  0  0  0
 14 16  1  0  0  0  0
 14 17  1  0  0  0  0
 11 12  1  0  0  0  0
 11 13  1  0  0  0  0
 11 14  1  0  0  0  0
  9 10  1  0  0  0  0
  9 11  1  0  0  0  0
  9 22  1  0  0  0  0
  7  8  1  0  0  0  0
  7  9  1  0  0  0  0
 26 27  1  0  0  0  0
 26 28  1  0  0  0  0
 26 29  1  0  0  0  0
 24 25  1  0  0  0  0
 24 26  1  0  0  0  0
M  END
$$$$
default_name
  -OEChem-02102213163D

 29 28  0     1  0  0  0  0  0999 V2000
   -3.5781   -3.7296    1.2702 H   0  0  0  0  0  0  0  0  0  0  0  0
   -3.5311   -2.7616    0.7732 C   0  0  0  0  0  0  0  0  0  0  0  0
   -4.2371   -2.0766    1.2382 H   0  0  0  0  0  0  0  0  0  0  0  0
   -3.7681   -2.8816   -0.2818 H   0  0  0  0  0  0  0  0  0  0  0  0
   -2.1321   -2.2086    0.9112 C   0  0  0  0  0  0  0  0  0  0  0  0
   -1.2751   -2.8426    1.5112 O   0  0  0  0  0  0  0  0  0  0  0  0
   -1.9041   -1.0186    0.3602 N   0  0  0  0  0  0  0  0  0  0  0  0
   -2.6671   -0.5416   -0.0988 H   0  0  0  0  0  0  0  0  0  0  0  0
   -0.6131   -0.3236    0.3832 C   0  0  1  0  0  0  0  0  0  0  0  0
    0.0142   -0.7800    1.1506 H   0  0  0  0  0  0  0  0  0  0  0  0
    0.0816   -0.5059   -0.9788 C   0  0  0  0  0  0  0  0  0  0  0  0
    0.4943    0.4550   -1.2938 H   0  0  0  0  0  0  0  0  0  0  0  0
    0.9061   -1.2120   -0.8706 H   0  0  0  0  0  0  0  0  0  0  0  0
   -0.8556   -1.0124   -2.0813 C   0  0  0  0  0  0  0  0  0  0  0  0
   -0.6558   -2.0679   -2.2632 H   0  0  0  0  0  0  0  0  0  0  0  0
   -1.8863   -0.9040   -1.7419 H   0  0  0  0  0  0  0  0  0  0  0  0
   -0.6745   -0.1276   -3.6510 S   0  0  0  0  0  0  0  0  0  0  0  0
   -1.3487    1.4856   -3.1768 C   0  0  0  0  0  0  0  0  0  0  0  0
   -0.7559    1.9075   -2.3648 H   0  0  0  0  0  0  0  0  0  0  0  0
   -1.3133    2.1583   -4.0342 H   0  0  0  0  0  0  0  0  0  0  0  0
   -2.3836    1.3710   -2.8533 H   0  0  0  0  0  0  0  0  0  0  0  0
   -0.8064    1.1568    0.7414 C   0  0  0  0  0  0  0  0  0  0  0  0
   -1.6978    1.8100    0.2029 O   0  0  0  0  0  0  0  0  0  0  0  0
    0.0314    1.6872    1.6415 N   0  0  0  0  0  0  0  0  0  0  0  0
    0.7279    1.0858    2.0517 H   0  0  0  0  0  0  0  0  0  0  0  0
   -0.0137    3.0826    2.0755 C   0  0  0  0  0  0  0  0  0  0  0  0
   -0.9991    3.3070    2.4905 H   0  0  0  0  0  0  0  0  0  0  0  0
    0.7468    3.2694    2.8349 H   0  0  0  0  0  0  0  0  0  0  0  0
    0.1592    3.7397    1.2213 H   0  0  0  0  0  0  0  0  0  0  0  0
  5  6  2  0  0  0  0
  5  7  1  0  0  0  0
  2  3  1  0  0  0  0
  2  4  1  0  0  0  0
  2  5  1  0  0  0  0
  1  2  1  0  0  0  0
 22 23  2  0  0  0  0
 22 24  1  0  0  0  0
 18 19  1  0  0  0  0
 18 20  1  0  0  0  0
 18 21  1  0  0  0  0
 17 18  1  0  0  0  0
 14 15  1  0  0  0  0
 14 16  1  0  0  0  0
 14 17  1  0  0  0  0
 11 12  1  0  0  0  0
 11 13  1  0  0  0  0
 11 14  1  0  0  0  0
  9 10  1  0  0  0  0
  9 11  1  0  0  0  0
  9 22  1  0  0  0  0
  7  8  1  0  0  0  0
  7  9  1  0  0  0  0
 26 27  1  0  0  0  0
 26 28  1  0  0  0  0
 26 29  1  0  0  0  0
 24 25  1  0  0  0  0
 24 26  1  0  0  0  0
M  END
$$$$
default_name
  -OEChem-02102213163D

 29 28  0     1  0  0  0  0  0999 V2000
   -3.5781   -3.7296    1.2702 H   0  0  0  0  0  0  0  0  0  0  0  0
   -3.5311   -2.7616    0.7732 C   0  0  0  0  0  0  0  0  0  0  0  0
   -4.2371   -2.0766    1.2382 H   0  0  0  0  0  0  0  0  0  0  0  0
   -3.7681   -2.8816   -0.2818 H   0  0  0  0  0  0  0  0  0  0  0  0
   -2.1321   -2.2086    0.9112 C   0  0  0  0  0  0  0  0  0  0  0  0
   -1.2751   -2.8426    1.5112 O   0  0  0  0  0  0  0  0  0  0  0  0
   -1.9041   -1.0186    0.3602 N   0  0  0  0  0  0  0  0  0  0  0  0
   -2.6671   -0.5416   -0.0988 H   0  0  0  0  0  0  0  0  0  0  0  0
   -0.6131   -0.3236    0.3832 C   0  0  1  0  0  0  0  0  0  0  0  0
    0.0142   -0.7800    1.1506 H   0  0  0  0  0  0  0  0  0  0  0  0
    0.0816   -0.5059   -0.9788 C   0  0  0  0  0  0  0  0  0  0  0  0
    0.4943    0.4550   -1.2938 H   0  0  0  0  0  0  0  0  0  0  0  0
    0.9061   -1.2120   -0.8706 H   0  0  0  0  0  0  0  0  0  0  0  0
   -0.8556   -1.0124   -2.0813 C   0  0  0  0  0  0  0  0  0  0  0  0
   -0.8509   -2.1019   -2.0816 H   0  0  0  0  0  0  0  0  0  0  0  0
   -1.8674   -0.6661   -1.8674 H   0  0  0  0  0  0  0  0  0  0  0  0
   -0.3969   -0.4480   -3.7398 S   0  0  0  0  0  0  0  0  0  0  0  0
   -0.7788    1.3160   -3.5834 C   0  0  0  0  0  0  0  0  0  0  0  0
   -0.1744    1.7539   -2.7884 H   0  0  0  0  0  0  0  0  0  0  0  0
   -0.5539    1.8193   -4.5241 H   0  0  0  0  0  0  0  0  0  0  0  0
   -1.8366    1.4442   -3.3519 H   0  0  0  0  0  0  0  0  0  0  0  0
   -0.8064    1.1568    0.7414 C   0  0  0  0  0  0  0  0  0  0  0  0
   -1.6978    1.8100    0.2029 O   0  0  0  0  0  0  0  0  0  0  0  0
    0.0314    1.6872    1.6415 N   0  0  0  0  0  0  0  0  0  0  0  0
    0.7279    1.0858    2.0517 H   0  0  0  0  0  0  0  0  0  0  0  0
   -0.0137    3.0826    2.0755 C   0  0  0  0  0  0  0  0  0  0  0  0
   -0.9991    3.3070    2.4905 H   0  0  0  0  0  0  0  0  0  0  0  0
    0.7468    3.2694    2.8349 H   0  0  0  0  0  0  0  0  0  0  0  0
    0.1592    3.7397    1.2213 H   0  0  0  0  0  0  0  0  0  0  0  0
  5  6  2  0  0  0  0
  5  7  1  0  0  0  0
  2  3  1  0  0  0  0
  2  4  1  0  0  0  0
  2  5  1  0  0  0  0
  1  2  1  0  0  0  0
 22 23  2  0  0  0  0
 22 24  1  0  0  0  0
 18 19  1  0  0  0  0
 18 20  1  0  0  0  0
 18 21  1  0  0  0  0
 17 18  1  0  0  0  0
 14 15  1  0  0  0  0
 14 16  1  0  0  0  0
 14 17  1  0  0  0  0
 11 12  1  0  0  0  0
 11 13  1  0  0  0  0
 11 14  1  0  0  0  0
  9 10  1  0  0  0  0
  9 11  1  0  0  0  0
  9 22  1  0  0  0  0
  7  8  1  0  0  0  0
  7  9  1  0  0  0  0
 26 27  1  0  0  0  0
 26 28  1  0  0  0  0
 26 29  1  0  0  0  0
 24 25  1  0  0  0  0
 24 26  1  0  0  0  0
M  END
$$$$
default_name
  -OEChem-02102213163D

 29 28  0     1  0  0  0  0  0999 V2000
   -3.5781   -3.7296    1.2702 H   0  0  0  0  0  0  0  0  0  0  0  0
   -3.5311   -2.7616    0.7732 C   0  0  0  0  0  0  0  0  0  0  0  0
   -4.2371   -2.0766    1.2382 H   0  0  0  0  0  0  0  0  0  0  0  0
   -3.7681   -2.8816   -0.2818 H   0  0  0  0  0  0  0  0  0  0  0  0
   -2.1321   -2.2086    0.9112 C   0  0  0  0  0  0  0  0  0  0  0  0
   -1.2751   -2.8426    1.5112 O   0  0  0  0  0  0  0  0  0  0  0  0
   -1.9041   -1.0186    0.3602 N   0  0  0  0  0  0  0  0  0  0  0  0
   -2.6671   -0.5416   -0.0988 H   0  0  0  0  0  0  0  0  0  0  0  0
   -0.6131   -0.3236    0.3832 C   0  0  1  0  0  0  0  0  0  0  0  0
    0.0142   -0.7800    1.1506 H   0  0  0  0  0  0  0  0  0  0  0  0
    0.0816   -0.5059   -0.9788 C   0  0  0  0  0  0  0  0  0  0  0  0
    0.4943    0.4550   -1.2938 H   0  0  0  0  0  0  0  0  0  0  0  0
    0.9061   -1.2120   -0.8706 H   0  0  0  0  0  0  0  0  0  0  0  0
   -0.8556   -1.0124   -2.0813 C   0  0  0  0  0  0  0  0  0  0  0  0
   -1.0613   -2.0697   -1.9176 H   0  0  0  0  0  0  0  0  0  0  0  0
   -1.7940   -0.4597   -2.0245 H   0  0  0  0  0  0  0  0  0  0  0  0
   -0.1808   -0.8232   -3.7512 S   0  0  0  0  0  0  0  0  0  0  0  0
   -0.2251    0.9817   -3.9005 C   0  0  0  0  0  0  0  0  0  0  0  0
    0.3948    1.4302   -3.1236 H   0  0  0  0  0  0  0  0  0  0  0  0
    0.1585    1.2730   -4.8786 H   0  0  0  0  0  0  0  0  0  0  0  0
   -1.2519    1.3341   -3.7984 H   0  0  0  0  0  0  0  0  0  0  0  0
   -0.8064    1.1568    0.7414 C   0  0  0  0  0  0  0  0  0  0  0  0
   -1.6978    1.8100    0.2029 O   0  0  0  0  0  0  0  0  0  0  0  0
    0.0314    1.6872    1.6415 N   0  0  0  0  0  0  0  0  0  0  0  0
    0.7279    1.0858    2.0517 H   0  0  0  0  0  0  0  0  0  0  0  0
   -0.0137    3.0826    2.0755 C   0  0  0  0  0  0  0  0  0  0  0  0
   -0.9991    3.3070    2.4905 H   0  0  0  0  0  0  0  0  0  0  0  0
    0.7468    3.2694    2.8349 H   0  0  0  0  0  0  0  0  0  0  0  0
    0.1592    3.7397    1.2213 H   0  0  0  0  0  0  0  0  0  0  0  0
  5  6  2  0  0  0  0
  5  7  1  0  0  0  0
  2  3  1  0  0  0  0
  2  4  1  0  0  0  0
  2  5  1  0  0  0  0
  1  2  1  0  0  0  0
 22 23  2  0  0  0  0
 22 24  1  0  0  0  0
 18 19  1  0  0  0  0
 18 20  1  0  0  0  0
 18 21  1  0  0  0  0
 17 18  1  0  0  0  0
 14 15  1  0  0  0  0
 14 16  1  0  0  0  0
 14 17  1  0  0  0  0
 11 12  1  0  0  0  0
 11 13  1  0  0  0  0
 11 14  1  0  0  0  0
  9 10  1  0  0  0  0
  9 11  1  0  0  0  0
  9 22  1  0  0  0  0
  7  8  1  0  0  0  0
  7  9  1  0  0  0  0
 26 27  1  0  0  0  0
 26 28  1  0  0  0  0
 26 29  1  0  0  0  0
 24 25  1  0  0  0  0
 24 26  1  0  0  0  0
M  END
$$$$
default_name
  -OEChem-02102213163D

 29 28  0     1  0  0  0  0  0999 V2000
   -3.5781   -3.7296    1.2702 H   0  0  0  0  0  0  0  0  0  0  0  0
   -3.5311   -2.7616    0.7732 C   0  0  0  0  0  0  0  0  0  0  0  0
   -4.2371   -2.0766    1.2382 H   0  0  0  0  0  0  0  0  0  0  0  0
   -3.7681   -2.8816   -0.2818 H   0  0  0  0  0  0  0  0  0  0  0  0
   -2.1321   -2.2086    0.9112 C   0  0  0  0  0  0  0  0  0  0  0  0
   -1.2751   -2.8426    1.5112 O   0  0  0  0  0  0  0  0  0  0  0  0
   -1.9041   -1.0186    0.3602 N   0  0  0  0  0  0  0  0  0  0  0  0
   -2.6671   -0.5416   -0.0988 H   0  0  0  0  0  0  0  0  0  0  0  0
   -0.6131   -0.3236    0.3832 C   0  0  1  0  0  0  0  0  0  0  0  0
    0.0142   -0.7800    1.1506 H   0  0  0  0  0  0  0  0  0  0  0  0
    0.0816   -0.5059   -0.9788 C   0  0  0  0  0  0  0  0  0  0  0  0
    0.7152    0.3631   -1.1688 H   0  0  0  0  0  0  0  0  0  0  0  0
    0.7186   -1.3908   -0.9423 H   0  0  0  0  0  0  0  0  0  0  0  0
   -0.8964   -0.6543   -2.1500 C   0  0  0  0  0  0  0  0  0  0  0  0
   -1.5336   -1.5208   -1.9760 H   0  0  0  0  0  0  0  0  0  0  0  0
   -1.5226    0.2373   -2.1986 H   0  0  0  0  0  0  0  0  0  0  0  0
   -0.0818   -0.8688   -3.7532 S   0  0  0  0  0  0  0  0  0  0  0  0
    0.6375    0.7811   -3.9583 C   0  0  0  0  0  0  0  0  0  0  0  0
    1.3279    0.9856   -3.1395 H   0  0  0  0  0  0  0  0  0  0  0  0
    1.1789    0.8244   -4.9038 H   0  0  0  0  0  0  0  0  0  0  0  0
   -0.1552    1.5298   -3.9644 H   0  0  0  0  0  0  0  0  0  0  0  0
   -0.8064    1.1568    0.7414 C   0  0  0  0  0  0  0  0  0  0  0  0
   -1.6978    1.8100    0.2029 O   0  0  0  0  0  0  0  0  0  0  0  0
    0.0314    1.6872    1.6415 N   0  0  0  0  0  0  0  0  0  0  0  0
    0.7279    1.0858    2.0517 H   0  0  0  0  0  0  0  0  0  0  0  0
   -0.0137    3.0826    2.0755 C   0  0  0  0  0  0  0  0  0  0  0  0
   -0.9991    3.3070    2.4905 H   0  0  0  0  0  0  0  0  0  0  0  0
    0.7468    3.2694    2.8349 H   0  0  0  0  0  0  0  0  0  0  0  0
    0.1592    3.7397    1.2213 H   0  0  0  0  0  0  0  0  0  0  0  0
  5  6  2  0  0  0  0
  5  7  1  0  0  0  0
  2  3  1  0  0  0  0
  2  4  1  0  0  0  0
  2  5  1  0  0  0  0
  1  2  1  0  0  0  0
 22 23  2  0  0  0  0
 22 24  1  0  0  0  0
 18 19  1  0  0  0  0
 18 20  1  0  0  0  0
 18 21  1  0  0  0  0
 17 18  1  0  0  0  0
 14 15  1  0  0  0  0
 14 16  1  0  0  0  0
 14 17  1  0  0  0  0
 11 12  1  0  0  0  0
 11 13  1  0  0  0  0
 11 14  1  0  0  0  0
  9 10  1  0  0  0  0
  9 11  1  0  0  0  0
  9 22  1  0  0  0  0
  7  8  1  0  0  0  0
  7  9  1  0  0  0  0
 26 27  1  0  0  0  0
 26 28  1  0  0  0  0
 26 29  1  0  0  0  0
 24 25  1  0  0  0  0
 24 26  1  0  0  0  0
M  END
$$$$
default_name
  -OEChem-02102213163D

 29 28  0     1  0  0  0  0  0999 V2000
   -3.5781   -3.7296    1.2702 H   0  0  0  0  0  0  0  0  0  0  0  0
   -3.5311   -2.7616    0.7732 C   0  0  0  0  0  0  0  0  0  0  0  0
   -4.2371   -2.0766    1.2382 H   0  0  0  0  0  0  0  0  0  0  0  0
   -3.7681   -2.8816   -0.2818 H   0  0  0  0  0  0  0  0  0  0  0  0
   -2.1321   -2.2086    0.9112 C   0  0  0  0  0  0  0  0  0  0  0  0
   -1.2751   -2.8426    1.5112 O   0  0  0  0  0  0  0  0  0  0  0  0
   -1.9041   -1.0186    0.3602 N   0  0  0  0  0  0  0  0  0  0  0  0
   -2.6671   -0.5416   -0.0988 H   0  0  0  0  0  0  0  0  0  0  0  0
   -0.6131   -0.3236    0.3832 C   0  0  1  0  0  0  0  0  0  0  0  0
    0.0142   -0.7800    1.1506 H   0  0  0  0  0  0  0  0  0  0  0  0
    0.0816   -0.5059   -0.9788 C   0  0  0  0  0  0  0  0  0  0  0  0
    0.7152    0.3631   -1.1688 H   0  0  0  0  0  0  0  0  0  0  0  0
    0.7186   -1.3908   -0.9423 H   0  0  0  0  0  0  0  0  0  0  0  0
   -0.8964   -0.6543   -2.1500 C   0  0  0  0  0  0  0  0  0  0  0  0
   -1.6953   -1.3377   -1.8641 H   0  0  0  0  0  0  0  0  0  0  0  0
   -1.3313    0.3215   -2.3690 H   0  0  0  0  0  0  0  0  0  0  0  0
   -0.1276   -1.2897   -3.6616 S   0  0  0  0  0  0  0  0  0  0  0  0
    0.9086    0.1295   -4.1022 C   0  0  0  0  0  0  0  0  0  0  0  0
    1.6190    0.3293   -3.2995 H   0  0  0  0  0  0  0  0  0  0  0  0
    1.4557   -0.0931   -5.0186 H   0  0  0  0  0  0  0  0  0  0  0  0
    0.2816    1.0069   -4.2629 H   0  0  0  0  0  0  0  0  0  0  0  0
   -0.8064    1.1568    0.7414 C   0  0  0  0  0  0  0  0  0  0  0  0
   -1.6978    1.8100    0.2029 O   0  0  0  0  0  0  0  0  0  0  0  0
    0.0314    1.6872    1.6415 N   0  0  0  0  0  0  0  0  0  0  0  0
    0.7279    1.0858    2.0517 H   0  0  0  0  0  0  0  0  0  0  0  0
   -0.0137    3.0826    2.0755 C   0  0  0  0  0  0  0  0  0  0  0  0
   -0.9991    3.3070    2.4905 H   0  0  0  0  0  0  0  0  0  0  0  0
    0.7468    3.2694    2.8349 H   0  0  0  0  0  0  0  0  0  0  0  0
    0.1592    3.7397    1.2213 H   0  0  0  0  0  0  0  0  0  0  0  0
  5  6  2  0  0  0  0
  5  7  1  0  0  0  0
  2  3  1  0  0  0  0
  2  4  1  0  0  0  0
  2  5  1  0  0  0  0
  1  2  1  0  0  0  0
 22 23  2  0  0  0  0
 22 24  1  0  0  0  0
 18 19  1  0  0  0  0
 18 20  1  0  0  0  0
 18 21  1  0  0  0  0
 17 18  1  0  0  0  0
 14 15  1  0  0  0  0
 14 16  1  0  0  0  0
 14 17  1  0  0  0  0
 11 12  1  0  0  0  0
 11 13  1  0  0  0  0
 11 14  1  0  0  0  0
  9 10  1  0  0  0  0
  9 11  1  0  0  0  0
  9 22  1  0  0  0  0
  7  8  1  0  0  0  0
  7  9  1  0  0  0  0
 26 27  1  0  0  0  0
 26 28  1  0  0  0  0
 26 29  1  0  0  0  0
 24 25  1  0  0  0  0
 24 26  1  0  0  0  0
M  END
$$$$
default_name
  -OEChem-02102213163D

 29 28  0     1  0  0  0  0  0999 V2000
   -3.5781   -3.7296    1.2702 H   0  0  0  0  0  0  0  0  0  0  0  0
   -3.5311   -2.7616    0.7732 C   0  0  0  0  0  0  0  0  0  0  0  0
   -4.2371   -2.0766    1.2382 H   0  0  0  0  0  0  0  0  0  0  0  0
   -3.7681   -2.8816   -0.2818 H   0  0  0  0  0  0  0  0  0  0  0  0
   -2.1321   -2.2086    0.9112 C   0  0  0  0  0  0  0  0  0  0  0  0
   -1.2751   -2.8426    1.5112 O   0  0  0  0  0  0  0  0  0  0  0  0
   -1.9041   -1.0186    0.3602 N   0  0  0  0  0  0  0  0  0  0  0  0
   -2.6671   -0.5416   -0.0988 H   0  0  0  0  0  0  0  0  0  0  0  0
   -0.6131   -0.3236    0.3832 C   0  0  1  0  0  0  0  0  0  0  0  0
    0.0142   -0.7800    1.1506 H   0  0  0  0  0  0  0  0  0  0  0  0
    0.0816   -0.5059   -0.9788 C   0  0  0  0  0  0  0  0  0  0  0  0
    0.7152    0.3631   -1.1688 H   0  0  0  0  0  0  0  0  0  0  0  0
    0.7186   -1.3908   -0.9423 H   0  0  0  0  0  0  0  0  0  0  0  0
   -0.8964   -0.6543   -2.1500 C   0  0  0  0  0  0  0  0  0  0  0  0
   -1.8182   -1.1104   -1.7903 H   0  0  0  0  0  0  0  0  0  0  0  0
   -1.1257    0.3370   -2.5427 H   0  0  0  0  0  0  0  0  0  0  0  0
   -0.2573   -1.6720   -3.5048 S   0  0  0  0  0  0  0  0  0  0  0  0
    1.0453   -0.5773   -4.1267 C   0  0  0  0  0  0  0  0  0  0  0  0
    1.7745   -0.3887   -3.3383 H   0  0  0  0  0  0  0  0  0  0  0  0
    1.5446   -1.0531   -4.9712 H   0  0  0  0  0  0  0  0  0  0  0  0
    0.6076    0.3662   -4.4539 H   0  0  0  0  0  0  0  0  0  0  0  0
   -0.8064    1.1568    0.7414 C   0  0  0  0  0  0  0  0  0  0  0  0
   -1.6978    1.8100    0.2029 O   0  0  0  0  0  0  0  0  0  0  0  0
    0.0314    1.6872    1.6415 N   0  0  0  0  0  0  0  0  0  0  0  0
    0.7279    1.0858    2.0517 H   0  0  0  0  0  0  0  0  0  0  0  0
   -0.0137    3.0826    2.0755 C   0  0  0  0  0  0  0  0  0  0  0  0
   -0.9991    3.3070    2.4905 H   0  0  0  0  0  0  0  0  0  0  0  0
    0.7468    3.2694    2.8349 H   0  0  0  0  0  0  0  0  0  0  0  0
    0.1592    3.7397    1.2213 H   0  0  0  0  0  0  0  0  0  0  0  0
  5  6  2  0  0  0  0
  5  7  1  0  0  0  0
  2  3  1  0  0  0  0
  2  4  1  0  0  0  0
  2  5  1  0  0  0  0
  1  2  1  0  0  0  0
 22 23  2  0  0  0  0
 22 24  1  0  0  0  0
 18 19  1  0  0  0  0
 18 20  1  0  0  0  0
 18 21  1  0  0  0  0
 17 18  1  0  0  0  0
 14 15  1  0  0  0  0
 14 16  1  0  0  0  0
 14 17  1  0  0  0  0
 11 12  1  0  0  0  0
 11 13  1  0  0  0  0
 11 14  1  0  0  0  0
  9 10  1  0  0  0  0
  9 11  1  0  0  0  0
  9 22  1  0  0  0  0
  7  8  1  0  0  0  0
  7  9  1  0  0  0  0
 26 27  1  0  0  0  0
 26 28  1  0  0  0  0
 26 29  1  0  0  0  0
 24 25  1  0  0  0  0
 24 26  1  0  0  0  0
M  END
$$$$
default_name
  -OEChem-02102213163D

 29 28  0     1  0  0  0  0  0999 V2000
   -3.5781   -3.7296    1.2702 H   0  0  0  0  0  0  0  0  0  0  0  0
   -3.5311   -2.7616    0.7732 C   0  0  0  0  0  0  0  0  0  0  0  0
   -4.2371   -2.0766    1.2382 H   0  0  0  0  0  0  0  0  0  0  0  0
   -3.7681   -2.8816   -0.2818 H   0  0  0  0  0  0  0  0  0  0  0  0
   -2.1321   -2.2086    0.9112 C   0  0  0  0  0  0  0  0  0  0  0  0
   -1.2751   -2.8426    1.5112 O   0  0  0  0  0  0  0  0  0  0  0  0
   -1.9041   -1.0186    0.3602 N   0  0  0  0  0  0  0  0  0  0  0  0
   -2.6671   -0.5416   -0.0988 H   0  0  0  0  0  0  0  0  0  0  0  0
   -0.6131   -0.3236    0.3832 C   0  0  1  0  0  0  0  0  0  0  0  0
    0.0142   -0.7800    1.1506 H   0  0  0  0  0  0  0  0  0  0  0  0
    0.0816   -0.5059   -0.9788 C   0  0  0  0  0  0  0  0  0  0  0  0
    0.7152    0.3631   -1.1688 H   0  0  0  0  0  0  0  0  0  0  0  0
    0.7186   -1.3908   -0.9423 H   0  0  0  0  0  0  0  0  0  0  0  0
   -0.8964   -0.6543   -2.1500 C   0  0  0  0  0  0  0  0  0  0  0  0
   -1.8938   -0.8544   -1.7597 H   0  0  0  0  0  0  0  0  0  0  0  0
   -0.9196    0.2826   -2.7079 H   0  0  0  0  0  0  0  0  0  0  0  0
   -0.4621   -1.9898   -3.2935 S   0  0  0  0  0  0  0  0  0  0  0  0
    1.0381   -1.2911   -4.0303 C   0  0  0  0  0  0  0  0  0  0  0  0
    1.7836   -1.1193   -3.2533 H   0  0  0  0  0  0  0  0  0  0  0  0
    1.4394   -1.9901   -4.7646 H   0  0  0  0  0  0  0  0  0  0  0  0
    0.8007   -0.3487   -4.5245 H   0  0  0  0  0  0  0  0  0  0  0  0
   -0.8064    1.1568    0.7414 C   0  0  0  0  0  0  0  0  0  0  0  0
   -1.6978    1.8100    0.2029 O   0  0  0  0  0  0  0  0  0  0  0  0
    0.0314    1.6872    1.6415 N   0  0  0  0  0  0  0  0  0  0  0  0
    0.7279    1.0858    2.0517 H   0  0  0  0  0  0  0  0  0  0  0  0
   -0.0137    3.0826    2.0755 C   0  0  0  0  0  0  0  0  0  0  0  0
   -0.9991    3.3070    2.4905 H   0  0  0  0  0  0  0  0  0  0  0  0
    0.7468    3.2694    2.8349 H   0  0  0  0  0  0  0  0  0  0  0  0
    0.1592    3.7397    1.2213 H   0  0  0  0  0  0  0  0  0  0  0  0
  5  6  2  0  0  0  0
  5  7  1  0  0  0  0
  2  3  1  0  0  0  0
  2  4  1  0  0  0  0
  2  5  1  0  0  0  0
  1  2  1  0  0  0  0
 22 23  2  0  0  0  0
 22 24  1  0  0  0  0
 18 19  1  0  0  0  0
 18 20  1  0  0  0  0
 18 21  1  0  0  0  0
 17 18  1  0  0  0  0
 14 15  1  0  0  0  0
 14 16  1  0  0  0  0
 14 17  1  0  0  0  0
 11 12  1  0  0  0  0
 11 13  1  0  0  0  0
 11 14  1  0  0  0  0
  9 10  1  0  0  0  0
  9 11  1  0  0  0  0
  9 22  1  0  0  0  0
  7  8  1  0  0  0  0
  7  9  1  0  0  0  0
 26 27  1  0  0  0  0
 26 28  1  0  0  0  0
 26 29  1  0  0  0  0
 24 25  1  0  0  0  0
 24 26  1  0  0  0  0
M  END
$$$$
default_name
  -OEChem-02102213163D

 29 28  0     1  0  0  0  0  0999 V2000
   -3.5781   -3.7296    1.2702 H   0  0  0  0  0  0  0  0  0  0  0  0
   -3.5311   -2.7616    0.7732 C   0  0  0  0  0  0  0  0  0  0  0  0
   -4.2371   -2.0766    1.2382 H   0  0  0  0  0  0  0  0  0  0  0  0
   -3.7681   -2.8816   -0.2818 H   0  0  0  0  0  0  0  0  0  0  0  0
   -2.1321   -2.2086    0.9112 C   0  0  0  0  0  0  0  0  0  0  0  0
   -1.2751   -2.8426    1.5112 O   0  0  0  0  0  0  0  0  0  0  0  0
   -1.9041   -1.0186    0.3602 N   0  0  0  0  0  0  0  0  0  0  0  0
   -2.6671   -0.5416   -0.0988 H   0  0  0  0  0  0  0  0  0  0  0  0
   -0.6131   -0.3236    0.3832 C   0  0  1  0  0  0  0  0  0  0  0  0
    0.0142   -0.7800    1.1506 H   0  0  0  0  0  0  0  0  0  0  0  0
    0.0816   -0.5059   -0.9788 C   0  0  0  0  0  0  0  0  0  0  0  0
    0.7152    0.3631   -1.1688 H   0  0  0  0  0  0  0  0  0  0  0  0
    0.7186   -1.3908   -0.9423 H   0  0  0  0  0  0  0  0  0  0  0  0
   -0.8964   -0.6543   -2.1500 C   0  0  0  0  0  0  0  0  0  0  0  0
   -1.9169   -0.5871   -1.7742 H   0  0  0  0  0  0  0  0  0  0  0  0
   -0.7272    0.1620   -2.8532 H   0  0  0  0  0  0  0  0  0  0  0  0
   -0.7281   -2.2214   -3.0420 S   0  0  0  0  0  0  0  0  0  0  0  0
    0.8877   -1.9632   -3.8194 C   0  0  0  0  0  0  0  0  0  0  0  0
    1.6459   -1.8128   -3.0504 H   0  0  0  0  0  0  0  0  0  0  0  0
    1.1474   -2.8402   -4.4130 H   0  0  0  0  0  0  0  0  0  0  0  0
    0.8475   -1.0890   -4.4698 H   0  0  0  0  0  0  0  0  0  0  0  0
   -0.8064    1.1568    0.7414 C   0  0  0  0  0  0  0  0  0  0  0  0
   -1.6978    1.8100    0.2029 O   0  0  0  0  0  0  0  0  0  0  0  0
    0.0314    1.6872    1.6415 N   0  0  0  0  0  0  0  0  0  0  0  0
    0.7279    1.0858    2.0517 H   0  0  0  0  0  0  0  0  0  0  0  0
   -0.0137    3.0826    2.0755 C   0  0  0  0  0  0  0  0  0  0  0  0
   -0.9991    3.3070    2.4905 H   0  0  0  0  0  0  0  0  0  0  0  0
    0.7468    3.2694    2.8349 H   0  0  0  0  0  0  0  0  0  0  0  0
    0.1592    3.7397    1.2213 H   0  0  0  0  0  0  0  0  0  0  0  0
  5  6  2  0  0  0  0
  5  7  1  0  0  0  0
  2  3  1  0  0  0  0
  2  4  1  0  0  0  0
  2  5  1  0  0  0  0
  1  2  1  0  0  0  0
 22 23  2  0  0  0  0
 22 24  1  0  0  0  0
 18 19  1  0  0  0  0
 18 20  1  0  0  0  0
 18 21  1  0  0  0  0
 17 18  1  0  0  0  0
 14 15  1  0  0  0  0
 14 16  1  0  0  0  0
 14 17  1  0  0  0  0
 11 12  1  0  0  0  0
 11 13  1  0  0  0  0
 11 14  1  0  0  0  0
  9 10  1  0  0  0  0
  9 11  1  0  0  0  0
  9 22  1  0  0  0  0
  7  8  1  0  0  0  0
  7  9  1  0  0  0  0
 26 27  1  0  0  0  0
 26 28  1  0  0  0  0
 26 29  1  0  0  0  0
 24 25  1  0  0  0  0
 24 26  1  0  0  0  0
M  END
$$$$
default_name
  -OEChem-02102213163D

 29 28  0     1  0  0  0  0  0999 V2000
   -3.5781   -3.7296    1.2702 H   0  0  0  0  0  0  0  0  0  0  0  0
   -3.5311   -2.7616    0.7732 C   0  0  0  0  0  0  0  0  0  0  0  0
   -4.2371   -2.0766    1.2382 H   0  0  0  0  0  0  0  0  0  0  0  0
   -3.7681   -2.8816   -0.2818 H   0  0  0  0  0  0  0  0  0  0  0  0
   -2.1321   -2.2086    0.9112 C   0  0  0  0  0  0  0  0  0  0  0  0
   -1.2751   -2.8426    1.5112 O   0  0  0  0  0  0  0  0  0  0  0  0
   -1.9041   -1.0186    0.3602 N   0  0  0  0  0  0  0  0  0  0  0  0
   -2.6671   -0.5416   -0.0988 H   0  0  0  0  0  0  0  0  0  0  0  0
   -0.6131   -0.3236    0.3832 C   0  0  1  0  0  0  0  0  0  0  0  0
    0.0142   -0.7800    1.1506 H   0  0  0  0  0  0  0  0  0  0  0  0
    0.0816   -0.5059   -0.9788 C   0  0  0  0  0  0  0  0  0  0  0  0
    0.7152    0.3631   -1.1688 H   0  0  0  0  0  0  0  0  0  0  0  0
    0.7186   -1.3908   -0.9423 H   0  0  0  0  0  0  0  0  0  0  0  0
   -0.8964   -0.6543   -2.1500 C   0  0  0  0  0  0  0  0  0  0  0  0
   -1.8860   -0.3268   -1.8330 H   0  0  0  0  0  0  0  0  0  0  0  0
   -0.5616   -0.0166   -2.9689 H   0  0  0  0  0  0  0  0  0  0  0  0
   -1.0371   -2.3509   -2.7676 S   0  0  0  0  0  0  0  0  0  0  0  0
    0.6042   -2.5479   -3.5086 C   0  0  0  0  0  0  0  0  0  0  0  0
    1.3706   -2.4220   -2.7433 H   0  0  0  0  0  0  0  0  0  0  0  0
    0.6884   -3.5456   -3.9403 H   0  0  0  0  0  0  0  0  0  0  0  0
    0.7450   -1.8044   -4.2935 H   0  0  0  0  0  0  0  0  0  0  0  0
   -0.8064    1.1568    0.7414 C   0  0  0  0  0  0  0  0  0  0  0  0
   -1.6978    1.8100    0.2029 O   0  0  0  0  0  0  0  0  0  0  0  0
    0.0314    1.6872    1.6415 N   0  0  0  0  0  0  0  0  0  0  0  0
    0.7279    1.0858    2.0517 H   0  0  0  0  0  0  0  0  0  0  0  0
   -0.0137    3.0826    2.0755 C   0  0  0  0  0  0  0  0  0  0  0  0
   -0.9991    3.3070    2.4905 H   0  0  0  0  0  0  0  0  0  0  0  0
    0.7468    3.2694    2.8349 H   0  0  0  0  0  0  0  0  0  0  0  0
    0.1592    3.7397    1.2213 H   0  0  0  0  0  0  0  0  0  0  0  0
  5  6  2  0  0  0  0
  5  7  1  0  0  0  0
  2  3  1  0  0  0  0
  2  4  1  0  0  0  0
  2  5  1  0  0  0  0
  1  2  1  0  0  0  0
 22 23  2  0  0  0  0
 22 24  1  0  0  0  0
 18 19  1  0  0  0  0
 18 20  1  0  0  0  0
 18 21  1  0  0  0  0
 17 18  1  0  0  0  0
 14 15  1  0  0  0  0
 14 16  1  0  0  0  0
 14 17  1  0  0  0  0
 11 12  1  0  0  0  0
 11 13  1  0  0  0  0
 11 14  1  0  0  0  0
  9 10  1  0  0  0  0
  9 11  1  0  0  0  0
  9 22  1  0  0  0  0
  7  8  1  0  0  0  0
  7  9  1  0  0  0  0
 26 27  1  0  0  0  0
 26 28  1  0  0  0  0
 26 29  1  0  0  0  0
 24 25  1  0  0  0  0
 24 26  1  0  0  0  0
M  END
$$$$
default_name
  -OEChem-02102213163D

 29 28  0     1  0  0  0  0  0999 V2000
   -3.5781   -3.7296    1.2702 H   0  0  0  0  0  0  0  0  0  0  0  0
   -3.5311   -2.7616    0.7732 C   0  0  0  0  0  0  0  0  0  0  0  0
   -4.2371   -2.0766    1.2382 H   0  0  0  0  0  0  0  0  0  0  0  0
   -3.7681   -2.8816   -0.2818 H   0  0  0  0  0  0  0  0  0  0  0  0
   -2.1321   -2.2086    0.9112 C   0  0  0  0  0  0  0  0  0  0  0  0
   -1.2751   -2.8426    1.5112 O   0  0  0  0  0  0  0  0  0  0  0  0
   -1.9041   -1.0186    0.3602 N   0  0  0  0  0  0  0  0  0  0  0  0
   -2.6671   -0.5416   -0.0988 H   0  0  0  0  0  0  0  0  0  0  0  0
   -0.6131   -0.3236    0.3832 C   0  0  1  0  0  0  0  0  0  0  0  0
    0.0142   -0.7800    1.1506 H   0  0  0  0  0  0  0  0  0  0  0  0
    0.0816   -0.5059   -0.9788 C   0  0  0  0  0  0  0  0  0  0  0  0
    0.7152    0.3631   -1.1688 H   0  0  0  0  0  0  0  0  0  0  0  0
    0.7186   -1.3908   -0.9423 H   0  0  0  0  0  0  0  0  0  0  0  0
   -0.8964   -0.6543   -2.1500 C   0  0  0  0  0  0  0  0  0  0  0  0
   -1.8033   -0.0911   -1.9320 H   0  0  0  0  0  0  0  0  0  0  0  0
   -0.4340   -0.2409   -3.0470 H   0  0  0  0  0  0  0  0  0  0  0  0
   -1.3681   -2.3696   -2.4888 S   0  0  0  0  0  0  0  0  0  0  0  0
    0.2069   -3.0053   -3.1189 C   0  0  0  0  0  0  0  0  0  0  0  0
    0.9766   -2.9053   -2.3530 H   0  0  0  0  0  0  0  0  0  0  0  0
    0.0938   -4.0581   -3.3788 H   0  0  0  0  0  0  0  0  0  0  0  0
    0.5002   -2.4460   -4.0077 H   0  0  0  0  0  0  0  0  0  0  0  0
   -0.8064    1.1568    0.7414 C   0  0  0  0  0  0  0  0  0  0  0  0
   -1.6978    1.8100    0.2029 O   0  0  0  0  0  0  0  0  0  0  0  0
    0.0314    1.6872    1.6415 N   0  0  0  0  0  0  0  0  0  0  0  0
    0.7279    1.0858    2.0517 H   0  0  0  0  0  0  0  0  0  0  0  0
   -0.0137    3.0826    2.0755 C   0  0  0  0  0  0  0  0  0  0  0  0
   -0.9991    3.3070    2.4905 H   0  0  0  0  0  0  0  0  0  0  0  0
    0.7468    3.2694    2.8349 H   0  0  0  0  0  0  0  0  0  0  0  0
    0.1592    3.7397    1.2213 H   0  0  0  0  0  0  0  0  0  0  0  0
  5  6  2  0  0  0  0
  5  7  1  0  0  0  0
  2  3  1  0  0  0  0
  2  4  1  0  0  0  0
  2  5  1  0  0  0  0
  1  2  1  0  0  0  0
 22 23  2  0  0  0  0
 22 24  1  0  0  0  0
 18 19  1  0  0  0  0
 18 20  1  0  0  0  0
 18 21  1  0  0  0  0
 17 18  1  0  0  0  0
 14 15  1  0  0  0  0
 14 16  1  0  0  0  0
 14 17  1  0  0  0  0
 11 12  1  0  0  0  0
 11 13  1  0  0  0  0
 11 14  1  0  0  0  0
  9 10  1  0  0  0  0
  9 11  1  0  0  0  0
  9 22  1  0  0  0  0
  7  8  1  0  0  0  0
  7  9  1  0  0  0  0
 26 27  1  0  0  0  0
 26 28  1  0  0  0  0
 26 29  1  0  0  0  0
 24 25  1  0  0  0  0
 24 26  1  0  0  0  0
M  END
$$$$
default_name
  -OEChem-02102213163D

 29 28  0     1  0  0  0  0  0999 V2000
   -3.5781   -3.7296    1.2702 H   0  0  0  0  0  0  0  0  0  0  0  0
   -3.5311   -2.7616    0.7732 C   0  0  0  0  0  0  0  0  0  0  0  0
   -4.2371   -2.0766    1.2382 H   0  0  0  0  0  0  0  0  0  0  0  0
   -3.7681   -2.8816   -0.2818 H   0  0  0  0  0  0  0  0  0  0  0  0
   -2.1321   -2.2086    0.9112 C   0  0  0  0  0  0  0  0  0  0  0  0
   -1.2751   -2.8426    1.5112 O   0  0  0  0  0  0  0  0  0  0  0  0
   -1.9041   -1.0186    0.3602 N   0  0  0  0  0  0  0  0  0  0  0  0
   -2.6671   -0.5416   -0.0988 H   0  0  0  0  0  0  0  0  0  0  0  0
   -0.6131   -0.3236    0.3832 C   0  0  1  0  0  0  0  0  0  0  0  0
    0.0142   -0.7800    1.1506 H   0  0  0  0  0  0  0  0  0  0  0  0
    0.0816   -0.5059   -0.9788 C   0  0  0  0  0  0  0  0  0  0  0  0
    0.7152    0.3631   -1.1688 H   0  0  0  0  0  0  0  0  0  0  0  0
    0.7186   -1.3908   -0.9423 H   0  0  0  0  0  0  0  0  0  0  0  0
   -0.8964   -0.6543   -2.1500 C   0  0  0  0  0  0  0  0  0  0  0  0
   -1.6742    0.1039   -2.0644 H   0  0  0  0  0  0  0  0  0  0  0  0
   -0.3531   -0.4956   -3.0823 H   0  0  0  0  0  0  0  0  0  0  0  0
   -1.6985   -2.2763   -2.2248 S   0  0  0  0  0  0  0  0  0  0  0  0
   -0.2770   -3.3042   -2.6769 C   0  0  0  0  0  0  0  0  0  0  0  0
    0.4906   -3.2297   -1.9061 H   0  0  0  0  0  0  0  0  0  0  0  0
   -0.5960   -4.3429   -2.7666 H   0  0  0  0  0  0  0  0  0  0  0  0
    0.1296   -2.9701   -3.6319 H   0  0  0  0  0  0  0  0  0  0  0  0
   -0.8064    1.1568    0.7414 C   0  0  0  0  0  0  0  0  0  0  0  0
   -1.6978    1.8100    0.2029 O   0  0  0  0  0  0  0  0  0  0  0  0
    0.0314    1.6872    1.6415 N   0  0  0  0  0  0  0  0  0  0  0  0
    0.7279    1.0858    2.0517 H   0  0  0  0  0  0  0  0  0  0  0  0
   -0.0137    3.0826    2.0755 C   0  0  0  0  0  0  0  0  0  0  0  0
   -0.9991    3.3070    2.4905 H   0  0  0  0  0  0  0  0  0  0  0  0
    0.7468    3.2694    2.8349 H   0  0  0  0  0  0  0  0  0  0  0  0
    0.1592    3.7397    1.2213 H   0  0  0  0  0  0  0  0  0  0  0  0
  5  6  2  0  0  0  0
  5  7  1  0  0  0  0
  2  3  1  0  0  0  0
  2  4  1  0  0  0  0
  2  5  1  0  0  0  0
  1  2  1  0  0  0  0
 22 23  2  0  0  0  0
 22 24  1  0  0  0  0
 18 19  1  0  0  0  0
 18 20  1  0  0  0  0
 18 21  1  0  0  0  0
 17 18  1  0  0  0  0
 14 15  1  0  0  0  0
 14 16  1  0  0  0  0
 14 17  1  0  0  0  0
 11 12  1  0  0  0  0
 11 13  1  0  0  0  0
 11 14  1  0  0  0  0
  9 10  1  0  0  0  0
  9 11  1  0  0  0  0
  9 22  1  0  0  0  0
  7  8  1  0  0  0  0
  7  9  1  0  0  0  0
 26 27  1  0  0  0  0
 26 28  1  0  0  0  0
 26 29  1  0  0  0  0
 24 25  1  0  0  0  0
 24 26  1  0  0  0  0
M  END
$$$$
default_name
  -OEChem-02102213163D

 29 28  0     1  0  0  0  0  0999 V2000
   -3.5781   -3.7296    1.2702 H   0  0  0  0  0  0  0  0  0  0  0  0
   -3.5311   -2.7616    0.7732 C   0  0  0  0  0  0  0  0  0  0  0  0
   -4.2371   -2.0766    1.2382 H   0  0  0  0  0  0  0  0  0  0  0  0
   -3.7681   -2.8816   -0.2818 H   0  0  0  0  0  0  0  0  0  0  0  0
   -2.1321   -2.2086    0.9112 C   0  0  0  0  0  0  0  0  0  0  0  0
   -1.2751   -2.8426    1.5112 O   0  0  0  0  0  0  0  0  0  0  0  0
   -1.9041   -1.0186    0.3602 N   0  0  0  0  0  0  0  0  0  0  0  0
   -2.6671   -0.5416   -0.0988 H   0  0  0  0  0  0  0  0  0  0  0  0
   -0.6131   -0.3236    0.3832 C   0  0  1  0  0  0  0  0  0  0  0  0
    0.0142   -0.7800    1.1506 H   0  0  0  0  0  0  0  0  0  0  0  0
    0.0816   -0.5059   -0.9788 C   0  0  0  0  0  0  0  0  0  0  0  0
    0.7152    0.3631   -1.1688 H   0  0  0  0  0  0  0  0  0  0  0  0
    0.7186   -1.3908   -0.9423 H   0  0  0  0  0  0  0  0  0  0  0  0
   -0.8964   -0.6543   -2.1500 C   0  0  0  0  0  0  0  0  0  0  0  0
   -1.5077    0.2448   -2.2213 H   0  0  0  0  0  0  0  0  0  0  0  0
   -0.3245   -0.7635   -3.0722 H   0  0  0  0  0  0  0  0  0  0  0  0
   -2.0058   -2.0771   -1.9934 S   0  0  0  0  0  0  0  0  0  0  0  0
   -0.8146   -3.4242   -2.2128 C   0  0  0  0  0  0  0  0  0  0  0  0
   -0.0541   -3.3732   -1.4330 H   0  0  0  0  0  0  0  0  0  0  0  0
   -1.3340   -4.3805   -2.1456 H   0  0  0  0  0  0  0  0  0  0  0  0
   -0.3414   -3.3411   -3.1916 H   0  0  0  0  0  0  0  0  0  0  0  0
   -0.8064    1.1568    0.7414 C   0  0  0  0  0  0  0  0  0  0  0  0
   -1.6978    1.8100    0.2029 O   0  0  0  0  0  0  0  0  0  0  0  0
    0.0314    1.6872    1.6415 N   0  0  0  0  0  0  0  0  0  0  0  0
    0.7279    1.0858    2.0517 H   0  0  0  0  0  0  0  0  0  0  0  0
   -0.0137    3.0826    2.0755 C   0  0  0  0  0  0  0  0  0  0  0  0
   -0.9991    3.3070    2.4905 H   0  0  0  0  0  0  0  0  0  0  0  0
    0.7468    3.2694    2.8349 H   0  0  0  0  0  0  0  0  0  0  0  0
    0.1592    3.7397    1.2213 H   0  0  0  0  0  0  0  0  0  0  0  0
  5  6  2  0  0  0  0
  5  7  1  0  0  0  0
  2  3  1  0  0  0  0
  2  4  1  0  0  0  0
  2  5  1  0  0  0  0
  1  2  1  0  0  0  0
 22 23  2  0  0  0  0
 22 24  1  0  0  0  0
 18 19  1  0  0  0  0
 18 20  1  0  0  0  0
 18 21  1  0  0  0  0
 17 18  1  0  0  0  0
 14 15  1  0  0  0  0
 14 16  1  0  0  0  0
 14 17  1  0  0  0  0
 11 12  1  0  0  0  0
 11 13  1  0  0  0  0
 11 14  1  0  0  0  0
  9 10  1  0  0  0  0
  9 11  1  0  0  0  0
  9 22  1  0  0  0  0
  7  8  1  0  0  0  0
  7  9  1  0  0  0  0
 26 27  1  0  0  0  0
 26 28  1  0  0  0  0
 26 29  1  0  0  0  0
 24 25  1  0  0  0  0
 24 26  1  0  0  0  0
M  END
$$$$
default_name
  -OEChem-02102213163D

 29 28  0     1  0  0  0  0  0999 V2000
   -3.5781   -3.7296    1.2702 H   0  0  0  0  0  0  0  0  0  0  0  0
   -3.5311   -2.7616    0.7732 C   0  0  0  0  0  0  0  0  0  0  0  0
   -4.2371   -2.0766    1.2382 H   0  0  0  0  0  0  0  0  0  0  0  0
   -3.7681   -2.8816   -0.2818 H   0  0  0  0  0  0  0  0  0  0  0  0
   -2.1321   -2.2086    0.9112 C   0  0  0  0  0  0  0  0  0  0  0  0
   -1.2751   -2.8426    1.5112 O   0  0  0  0  0  0  0  0  0  0  0  0
   -1.9041   -1.0186    0.3602 N   0  0  0  0  0  0  0  0  0  0  0  0
   -2.6671   -0.5416   -0.0988 H   0  0  0  0  0  0  0  0  0  0  0  0
   -0.6131   -0.3236    0.3832 C   0  0  1  0  0  0  0  0  0  0  0  0
    0.0142   -0.7800    1.1506 H   0  0  0  0  0  0  0  0  0  0  0  0
    0.0816   -0.5059   -0.9788 C   0  0  0  0  0  0  0  0  0  0  0  0
    0.7152    0.3631   -1.1688 H   0  0  0  0  0  0  0  0  0  0  0  0
    0.7186   -1.3908   -0.9423 H   0  0  0  0  0  0  0  0  0  0  0  0
   -0.8964   -0.6543   -2.1500 C   0  0  0  0  0  0  0  0  0  0  0  0
   -1.3151    0.3221   -2.3920 H   0  0  0  0  0  0  0  0  0  0  0  0
   -0.3501   -1.0263   -3.0175 H   0  0  0  0  0  0  0  0  0  0  0  0
   -2.2690   -1.7858   -1.8105 S   0  0  0  0  0  0  0  0  0  0  0  0
   -1.3692   -3.3573   -1.7581 C   0  0  0  0  0  0  0  0  0  0  0  0
   -0.6205   -3.3260   -0.9660 H   0  0  0  0  0  0  0  0  0  0  0  0
   -2.0698   -4.1684   -1.5581 H   0  0  0  0  0  0  0  0  0  0  0  0
   -0.8807   -3.5336   -2.7168 H   0  0  0  0  0  0  0  0  0  0  0  0
   -0.8064    1.1568    0.7414 C   0  0  0  0  0  0  0  0  0  0  0  0
   -1.6978    1.8100    0.2029 O   0  0  0  0  0  0  0  0  0  0  0  0
    0.0314    1.6872    1.6415 N   0  0  0  0  0  0  0  0  0  0  0  0
    0.7279    1.0858    2.0517 H   0  0  0  0  0  0  0  0  0  0  0  0
   -0.0137    3.0826    2.0755 C   0  0  0  0  0  0  0  0  0  0  0  0
   -0.9991    3.3070    2.4905 H   0  0  0  0  0  0  0  0  0  0  0  0
    0.7468    3.2694    2.8349 H   0  0  0  0  0  0  0  0  0  0  0  0
    0.1592    3.7397    1.2213 H   0  0  0  0  0  0  0  0  0  0  0  0
  5  6  2  0  0  0  0
  5  7  1  0  0  0  0
  2  3  1  0  0  0  0
  2  4  1  0  0  0  0
  2  5  1  0  0  0  0
  1  2  1  0  0  0  0
 22 23  2  0  0  0  0
 22 24  1  0  0  0  0
 18 19  1  0  0  0  0
 18 20  1  0  0  0  0
 18 21  1  0  0  0  0
 17 18  1  0  0  0  0
 14 15  1  0  0  0  0
 14 16  1  0  0  0  0
 14 17  1  0  0  0  0
 11 12  1  0  0  0  0
 11 13  1  0  0  0  0
 11 14  1  0  0  0  0
  9 10  1  0  0  0  0
  9 11  1  0  0  0  0
  9 22  1  0  0  0  0
  7  8  1  0  0  0  0
  7  9  1  0  0  0  0
 26 27  1  0  0  0  0
 26 28  1  0  0  0  0
 26 29  1  0  0  0  0
 24 25  1  0  0  0  0
 24 26  1  0  0  0  0
M  END
$$$$
default_name
  -OEChem-02102213163D

 29 28  0     1  0  0  0  0  0999 V2000
   -3.5781   -3.7296    1.2702 H   0  0  0  0  0  0  0  0  0  0  0  0
   -3.5311   -2.7616    0.7732 C   0  0  0  0  0  0  0  0  0  0  0  0
   -4.2371   -2.0766    1.2382 H   0  0  0  0  0  0  0  0  0  0  0  0
   -3.7681   -2.8816   -0.2818 H   0  0  0  0  0  0  0  0  0  0  0  0
   -2.1321   -2.2086    0.9112 C   0  0  0  0  0  0  0  0  0  0  0  0
   -1.2751   -2.8426    1.5112 O   0  0  0  0  0  0  0  0  0  0  0  0
   -1.9041   -1.0186    0.3602 N   0  0  0  0  0  0  0  0  0  0  0  0
   -2.6671   -0.5416   -0.0988 H   0  0  0  0  0  0  0  0  0  0  0  0
   -0.6131   -0.3236    0.3832 C   0  0  1  0  0  0  0  0  0  0  0  0
    0.0142   -0.7800    1.1506 H   0  0  0  0  0  0  0  0  0  0  0  0
    0.0816   -0.5059   -0.9788 C   0  0  0  0  0  0  0  0  0  0  0  0
    0.7152    0.3631   -1.1688 H   0  0  0  0  0  0  0  0  0  0  0  0
    0.7186   -1.3908   -0.9423 H   0  0  0  0  0  0  0  0  0  0  0  0
   -0.8964   -0.6543   -2.1500 C   0  0  0  0  0  0  0  0  0  0  0  0
   -1.1095    0.3305   -2.5648 H   0  0  0  0  0  0  0  0  0  0  0  0
   -0.4282   -1.2661   -2.9220 H   0  0  0  0  0  0  0  0  0  0  0  0
   -2.4703   -1.4222   -1.6886 S   0  0  0  0  0  0  0  0  0  0  0  0
   -1.9031   -3.1078   -1.3439 C   0  0  0  0  0  0  0  0  0  0  0  0
   -1.1700   -3.0913   -0.5369 H   0  0  0  0  0  0  0  0  0  0  0  0
   -2.7534   -3.7210   -1.0440 H   0  0  0  0  0  0  0  0  0  0  0  0
   -1.4516   -3.5345   -2.2400 H   0  0  0  0  0  0  0  0  0  0  0  0
   -0.8064    1.1568    0.7414 C   0  0  0  0  0  0  0  0  0  0  0  0
   -1.6978    1.8100    0.2029 O   0  0  0  0  0  0  0  0  0  0  0  0
    0.0314    1.6872    1.6415 N   0  0  0  0  0  0  0  0  0  0  0  0
    0.7279    1.0858    2.0517 H   0  0  0  0  0  0  0  0  0  0  0  0
   -0.0137    3.0826    2.0755 C   0  0  0  0  0  0  0  0  0  0  0  0
   -0.9991    3.3070    2.4905 H   0  0  0  0  0  0  0  0  0  0  0  0
    0.7468    3.2694    2.8349 H   0  0  0  0  0  0  0  0  0  0  0  0
    0.1592    3.7397    1.2213 H   0  0  0  0  0  0  0  0  0  0  0  0
  5  6  2  0  0  0  0
  5  7  1  0  0  0  0
  2  3  1  0  0  0  0
  2  4  1  0  0  0  0
  2  5  1  0  0  0  0
  1  2  1  0  0  0  0
 22 23  2  0  0  0  0
 22 24  1  0  0  0  0
 18 19  1  0  0  0  0
 18 20  1  0  0  0  0
 18 21  1  0  0  0  0
 17 18  1  0  0  0  0
 14 15  1  0  0  0  0
 14 16  1  0  0  0  0
 14 17  1  0  0  0  0
 11 12  1  0  0  0  0
 11 13  1  0  0  0  0
 11 14  1  0  0  0  0
  9 10  1  0  0  0  0
  9 11  1  0  0  0  0
  9 22  1  0  0  0  0
  7  8  1  0  0  0  0
  7  9  1  0  0  0  0
 26 27  1  0  0  0  0
 26 28  1  0  0  0  0
 26 29  1  0  0  0  0
 24 25  1  0  0  0  0
 24 26  1  0  0  0  0
M  END
$$$$
default_name
  -OEChem-02102213163D

 29 28  0     1  0  0  0  0  0999 V2000
   -3.5781   -3.7296    1.2702 H   0  0  0  0  0  0  0  0  0  0  0  0
   -3.5311   -2.7616    0.7732 C   0  0  0  0  0  0  0  0  0  0  0  0
   -4.2371   -2.0766    1.2382 H   0  0  0  0  0  0  0  0  0  0  0  0
   -3.7681   -2.8816   -0.2818 H   0  0  0  0  0  0  0  0  0  0  0  0
   -2.1321   -2.2086    0.9112 C   0  0  0  0  0  0  0  0  0  0  0  0
   -1.2751   -2.8426    1.5112 O   0  0  0  0  0  0  0  0  0  0  0  0
   -1.9041   -1.0186    0.3602 N   0  0  0  0  0  0  0  0  0  0  0  0
   -2.6671   -0.5416   -0.0988 H   0  0  0  0  0  0  0  0  0  0  0  0
   -0.6131   -0.3236    0.3832 C   0  0  1  0  0  0  0  0  0  0  0  0
    0.0142   -0.7800    1.1506 H   0  0  0  0  0  0  0  0  0  0  0  0
    0.0816   -0.5059   -0.9788 C   0  0  0  0  0  0  0  0  0  0  0  0
    0.7152    0.3631   -1.1688 H   0  0  0  0  0  0  0  0  0  0  0  0
    0.7186   -1.3908   -0.9423 H   0  0  0  0  0  0  0  0  0  0  0  0
   -0.8964   -0.6543   -2.1500 C   0  0  0  0  0  0  0  0  0  0  0  0
   -0.9049    0.2694   -2.7279 H   0  0  0  0  0  0  0  0  0  0  0  0
   -0.5533   -1.4664   -2.7920 H   0  0  0  0  0  0  0  0  0  0  0  0
   -2.5958   -1.0110   -1.6358 S   0  0  0  0  0  0  0  0  0  0  0  0
   -2.3799   -2.6929   -0.9984 C   0  0  0  0  0  0  0  0  0  0  0  0
   -1.6651   -2.6851   -0.1749 H   0  0  0  0  0  0  0  0  0  0  0  0
   -3.3380   -3.0688   -0.6384 H   0  0  0  0  0  0  0  0  0  0  0  0
   -2.0151   -3.3437   -1.7935 H   0  0  0  0  0  0  0  0  0  0  0  0
   -0.8064    1.1568    0.7414 C   0  0  0  0  0  0  0  0  0  0  0  0
   -1.6978    1.8100    0.2029 O   0  0  0  0  0  0  0  0  0  0  0  0
    0.0314    1.6872    1.6415 N   0  0  0  0  0  0  0  0  0  0  0  0
    0.7279    1.0858    2.0517 H   0  0  0  0  0  0  0  0  0  0  0  0
   -0.0137    3.0826    2.0755 C   0  0  0  0  0  0  0  0  0  0  0  0
   -0.9991    3.3070    2.4905 H   0  0  0  0  0  0  0  0  0  0  0  0
    0.7468    3.2694    2.8349 H   0  0  0  0  0  0  0  0  0  0  0  0
    0.1592    3.7397    1.2213 H   0  0  0  0  0  0  0  0  0  0  0  0
  5  6  2  0  0  0  0
  5  7  1  0  0  0  0
  2  3  1  0  0  0  0
  2  4  1  0  0  0  0
  2  5  1  0  0  0  0
  1  2  1  0  0  0  0
 22 23  2  0  0  0  0
 22 24  1  0  0  0  0
 18 19  1  0  0  0  0
 18 20  1  0  0  0  0
 18 21  1  0  0  0  0
 17 18  1  0  0  0  0
 14 15  1  0  0  0  0
 14 16  1  0  0  0  0
 14 17  1  0  0  0  0
 11 12  1  0  0  0  0
 11 13  1  0  0  0  0
 11 14  1  0  0  0  0
  9 10  1  0  0  0  0
  9 11  1  0  0  0  0
  9 22  1  0  0  0  0
  7  8  1  0  0  0  0
  7  9  1  0  0  0  0
 26 27  1  0  0  0  0
 26 28  1  0  0  0  0
 26 29  1  0  0  0  0
 24 25  1  0  0  0  0
 24 26  1  0  0  0  0
M  END
$$$$
default_name
  -OEChem-02102213163D

 29 28  0     1  0  0  0  0  0999 V2000
   -3.5781   -3.7296    1.2702 H   0  0  0  0  0  0  0  0  0  0  0  0
   -3.5311   -2.7616    0.7732 C   0  0  0  0  0  0  0  0  0  0  0  0
   -4.2371   -2.0766    1.2382 H   0  0  0  0  0  0  0  0  0  0  0  0
   -3.7681   -2.8816   -0.2818 H   0  0  0  0  0  0  0  0  0  0  0  0
   -2.1321   -2.2086    0.9112 C   0  0  0  0  0  0  0  0  0  0  0  0
   -1.2751   -2.8426    1.5112 O   0  0  0  0  0  0  0  0  0  0  0  0
   -1.9041   -1.0186    0.3602 N   0  0  0  0  0  0  0  0  0  0  0  0
   -2.6671   -0.5416   -0.0988 H   0  0  0  0  0  0  0  0  0  0  0  0
   -0.6131   -0.3236    0.3832 C   0  0  1  0  0  0  0  0  0  0  0  0
    0.0142   -0.7800    1.1506 H   0  0  0  0  0  0  0  0  0  0  0  0
    0.0816   -0.5059   -0.9788 C   0  0  0  0  0  0  0  0  0  0  0  0
    0.7152    0.3631   -1.1688 H   0  0  0  0  0  0  0  0  0  0  0  0
    0.7186   -1.3908   -0.9423 H   0  0  0  0  0  0  0  0  0  0  0  0
   -0.8964   -0.6543   -2.1500 C   0  0  0  0  0  0  0  0  0  0  0  0
   -0.7152    0.1430   -2.8702 H   0  0  0  0  0  0  0  0  0  0  0  0
   -0.7171   -1.6137   -2.6366 H   0  0  0  0  0  0  0  0  0  0  0  0
   -2.6371   -0.5804   -1.6559 S   0  0  0  0  0  0  0  0  0  0  0  0
   -2.7671   -2.1409   -0.7450 C   0  0  0  0  0  0  0  0  0  0  0  0
   -2.0721   -2.1351    0.0952 H   0  0  0  0  0  0  0  0  0  0  0  0
   -3.7840   -2.2563   -0.3690 H   0  0  0  0  0  0  0  0  0  0  0  0
   -2.5330   -2.9743   -1.4079 H   0  0  0  0  0  0  0  0  0  0  0  0
   -0.8064    1.1568    0.7414 C   0  0  0  0  0  0  0  0  0  0  0  0
   -1.6978    1.8100    0.2029 O   0  0  0  0  0  0  0  0  0  0  0  0
    0.0314    1.6872    1.6415 N   0  0  0  0  0  0  0  0  0  0  0  0
    0.7279    1.0858    2.0517 H   0  0  0  0  0  0  0  0  0  0  0  0
   -0.0137    3.0826    2.0755 C   0  0  0  0  0  0  0  0  0  0  0  0
   -0.9991    3.3070    2.4905 H   0  0  0  0  0  0  0  0  0  0  0  0
    0.7468    3.2694    2.8349 H   0  0  0  0  0  0  0  0  0  0  0  0
    0.1592    3.7397    1.2213 H   0  0  0  0  0  0  0  0  0  0  0  0
  5  6  2  0  0  0  0
  5  7  1  0  0  0  0
  2  3  1  0  0  0  0
  2  4  1  0  0  0  0
  2  5  1  0  0  0  0
  1  2  1  0  0  0  0
 22 23  2  0  0  0  0
 22 24  1  0  0  0  0
 18 19  1  0  0  0  0
 18 20  1  0  0  0  0
 18 21  1  0  0  0  0
 17 18  1  0  0  0  0
 14 15  1  0  0  0  0
 14 16  1  0  0  0  0
 14 17  1  0  0  0  0
 11 12  1  0  0  0  0
 11 13  1  0  0  0  0
 11 14  1  0  0  0  0
  9 10  1  0  0  0  0
  9 11  1  0  0  0  0
  9 22  1  0  0  0  0
  7  8  1  0  0  0  0
  7  9  1  0  0  0  0
 26 27  1  0  0  0  0
 26 28  1  0  0  0  0
 26 29  1  0  0  0  0
 24 25  1  0  0  0  0
 24 26  1  0  0  0  0
M  END
$$$$
default_name
  -OEChem-02102213163D

 29 28  0     1  0  0  0  0  0999 V2000
   -3.5781   -3.7296    1.2702 H   0  0  0  0  0  0  0  0  0  0  0  0
   -3.5311   -2.7616    0.7732 C   0  0  0  0  0  0  0  0  0  0  0  0
   -4.2371   -2.0766    1.2382 H   0  0  0  0  0  0  0  0  0  0  0  0
   -3.7681   -2.8816   -0.2818 H   0  0  0  0  0  0  0  0  0  0  0  0
   -2.1321   -2.2086    0.9112 C   0  0  0  0  0  0  0  0  0  0  0  0
   -1.2751   -2.8426    1.5112 O   0  0  0  0  0  0  0  0  0  0  0  0
   -1.9041   -1.0186    0.3602 N   0  0  0  0  0  0  0  0  0  0  0  0
   -2.6671   -0.5416   -0.0988 H   0  0  0  0  0  0  0  0  0  0  0  0
   -0.6131   -0.3236    0.3832 C   0  0  1  0  0  0  0  0  0  0  0  0
    0.0142   -0.7800    1.1506 H   0  0  0  0  0  0  0  0  0  0  0  0
    0.0816   -0.5059   -0.9788 C   0  0  0  0  0  0  0  0  0  0  0  0
    0.7152    0.3631   -1.1688 H   0  0  0  0  0  0  0  0  0  0  0  0
    0.7186   -1.3908   -0.9423 H   0  0  0  0  0  0  0  0  0  0  0  0
   -0.8964   -0.6543   -2.1500 C   0  0  0  0  0  0  0  0  0  0  0  0
   -0.5535   -0.0401   -2.9821 H   0  0  0  0  0  0  0  0  0  0  0  0
   -0.9084   -1.6980   -2.4662 H   0  0  0  0  0  0  0  0  0  0  0  0
   -2.5913   -0.1595   -1.7475 S   0  0  0  0  0  0  0  0  0  0  0  0
   -3.0382   -1.4892   -0.6012 C   0  0  0  0  0  0  0  0  0  0  0  0
   -2.3633   -1.4787    0.2551 H   0  0  0  0  0  0  0  0  0  0  0  0
   -4.0608   -1.3388   -0.2542 H   0  0  0  0  0  0  0  0  0  0  0  0
   -2.9698   -2.4515   -1.1095 H   0  0  0  0  0  0  0  0  0  0  0  0
   -0.8064    1.1568    0.7414 C   0  0  0  0  0  0  0  0  0  0  0  0
   -1.6978    1.8100    0.2029 O   0  0  0  0  0  0  0  0  0  0  0  0
    0.0314    1.6872    1.6415 N   0  0  0  0  0  0  0  0  0  0  0  0
    0.7279    1.0858    2.0517 H   0  0  0  0  0  0  0  0  0  0  0  0
   -0.0137    3.0826    2.0755 C   0  0  0  0  0  0  0  0  0  0  0  0
   -0.9991    3.3070    2.4905 H   0  0  0  0  0  0  0  0  0  0  0  0
    0.7468    3.2694    2.8349 H   0  0  0  0  0  0  0  0  0  0  0  0
    0.1592    3.7397    1.2213 H   0  0  0  0  0  0  0  0  0  0  0  0
  5  6  2  0  0  0  0
  5  7  1  0  0  0  0
  2  3  1  0  0  0  0
  2  4  1  0  0  0  0
  2  5  1  0  0  0  0
  1  2  1  0  0  0  0
 22 23  2  0  0  0  0
 22 24  1  0  0  0  0
 18 19  1  0  0  0  0
 18 20  1  0  0  0  0
 18 21  1  0  0  0  0
 17 18  1  0  0  0  0
 14 15  1  0  0  0  0
 14 16  1  0  0  0  0
 14 17  1  0  0  0  0
 11 12  1  0  0  0  0
 11 13  1  0  0  0  0
 11 14  1  0  0  0  0
  9 10  1  0  0  0  0
  9 11  1  0  0  0  0
  9 22  1  0  0  0  0
  7  8  1  0  0  0  0
  7  9  1  0  0  0  0
 26 27  1  0  0  0  0
 26 28  1  0  0  0  0
 26 29  1  0  0  0  0
 24 25  1  0  0  0  0
 24 26  1  0  0  0  0
M  END
$$$$
default_name
  -OEChem-02102213163D

 29 28  0     1  0  0  0  0  0999 V2000
   -3.5781   -3.7296    1.2702 H   0  0  0  0  0  0  0  0  0  0  0  0
   -3.5311   -2.7616    0.7732 C   0  0  0  0  0  0  0  0  0  0  0  0
   -4.2371   -2.0766    1.2382 H   0  0  0  0  0  0  0  0  0  0  0  0
   -3.7681   -2.8816   -0.2818 H   0  0  0  0  0  0  0  0  0  0  0  0
   -2.1321   -2.2086    0.9112 C   0  0  0  0  0  0  0  0  0  0  0  0
   -1.2751   -2.8426    1.5112 O   0  0  0  0  0  0  0  0  0  0  0  0
   -1.9041   -1.0186    0.3602 N   0  0  0  0  0  0  0  0  0  0  0  0
   -2.6671   -0.5416   -0.0988 H   0  0  0  0  0  0  0  0  0  0  0  0
   -0.6131   -0.3236    0.3832 C   0  0  1  0  0  0  0  0  0  0  0  0
    0.0142   -0.7800    1.1506 H   0  0  0  0  0  0  0  0  0  0  0  0
    0.0816   -0.5059   -0.9788 C   0  0  0  0  0  0  0  0  0  0  0  0
    0.7152    0.3631   -1.1688 H   0  0  0  0  0  0  0  0  0  0  0  0
    0.7186   -1.3908   -0.9423 H   0  0  0  0  0  0  0  0  0  0  0  0
   -0.8964   -0.6543   -2.1500 C   0  0  0  0  0  0  0  0  0  0  0  0
   -0.4306   -0.2674   -3.0558 H   0  0  0  0  0  0  0  0  0  0  0  0
   -1.1140   -1.7134   -2.2925 H   0  0  0  0  0  0  0  0  0  0  0  0
   -2.4616    0.2228   -1.9043 S   0  0  0  0  0  0  0  0  0  0  0  0
   -3.1749   -0.7824   -0.5767 C   0  0  0  0  0  0  0  0  0  0  0  0
   -2.5187   -0.7608    0.2939 H   0  0  0  0  0  0  0  0  0  0  0  0
   -4.1497   -0.3788   -0.3016 H   0  0  0  0  0  0  0  0  0  0  0  0
   -3.2958   -1.8107   -0.9184 H   0  0  0  0  0  0  0  0  0  0  0  0
   -0.8064    1.1568    0.7414 C   0  0  0  0  0  0  0  0  0  0  0  0
   -1.6978    1.8100    0.2029 O   0  0  0  0  0  0  0  0  0  0  0  0
    0.0314    1.6872    1.6415 N   0  0  0  0  0  0  0  0  0  0  0  0
    0.7279    1.0858    2.0517 H   0  0  0  0  0  0  0  0  0  0  0  0
   -0.0137    3.0826    2.0755 C   0  0  0  0  0  0  0  0  0  0  0  0
   -0.9991    3.3070    2.4905 H   0  0  0  0  0  0  0  0  0  0  0  0
    0.7468    3.2694    2.8349 H   0  0  0  0  0  0  0  0  0  0  0  0
    0.1592    3.7397    1.2213 H   0  0  0  0  0  0  0  0  0  0  0  0
  5  6  2  0  0  0  0
  5  7  1  0  0  0  0
  2  3  1  0  0  0  0
  2  4  1  0  0  0  0
  2  5  1  0  0  0  0
  1  2  1  0  0  0  0
 22 23  2  0  0  0  0
 22 24  1  0  0  0  0
 18 19  1  0  0  0  0
 18 20  1  0  0  0  0
 18 21  1  0  0  0  0
 17 18  1  0  0  0  0
 14 15  1  0  0  0  0
 14 16  1  0  0  0  0
 14 17  1  0  0  0  0
 11 12  1  0  0  0  0
 11 13  1  0  0  0  0
 11 14  1  0  0  0  0
  9 10  1  0  0  0  0
  9 11  1  0  0  0  0
  9 22  1  0  0  0  0
  7  8  1  0  0  0  0
  7  9  1  0  0  0  0
 26 27  1  0  0  0  0
 26 28  1  0  0  0  0
 26 29  1  0  0  0  0
 24 25  1  0  0  0  0
 24 26  1  0  0  0  0
M  END
$$$$
default_name
  -OEChem-02102213163D

 29 28  0     1  0  0  0  0  0999 V2000
   -3.5781   -3.7296    1.2702 H   0  0  0  0  0  0  0  0  0  0  0  0
   -3.5311   -2.7616    0.7732 C   0  0  0  0  0  0  0  0  0  0  0  0
   -4.2371   -2.0766    1.2382 H   0  0  0  0  0  0  0  0  0  0  0  0
   -3.7681   -2.8816   -0.2818 H   0  0  0  0  0  0  0  0  0  0  0  0
   -2.1321   -2.2086    0.9112 C   0  0  0  0  0  0  0  0  0  0  0  0
   -1.2751   -2.8426    1.5112 O   0  0  0  0  0  0  0  0  0  0  0  0
   -1.9041   -1.0186    0.3602 N   0  0  0  0  0  0  0  0  0  0  0  0
   -2.6671   -0.5416   -0.0988 H   0  0  0  0  0  0  0  0  0  0  0  0
   -0.6131   -0.3236    0.3832 C   0  0  1  0  0  0  0  0  0  0  0  0
    0.0142   -0.7800    1.1506 H   0  0  0  0  0  0  0  0  0  0  0  0
    0.0816   -0.5059   -0.9788 C   0  0  0  0  0  0  0  0  0  0  0  0
    0.7152    0.3631   -1.1688 H   0  0  0  0  0  0  0  0  0  0  0  0
    0.7186   -1.3908   -0.9423 H   0  0  0  0  0  0  0  0  0  0  0  0
   -0.8964   -0.6543   -2.1500 C   0  0  0  0  0  0  0  0  0  0  0  0
   -0.3551   -0.5234   -3.0865 H   0  0  0  0  0  0  0  0  0  0  0  0
   -1.3201   -1.6590   -2.1274 H   0  0  0  0  0  0  0  0  0  0  0  0
   -2.2568    0.5406   -2.1156 S   0  0  0  0  0  0  0  0  0  0  0  0
   -3.1677   -0.0686   -0.6731 C   0  0  0  0  0  0  0  0  0  0  0  0
   -2.5279   -0.0301    0.2090 H   0  0  0  0  0  0  0  0  0  0  0  0
   -4.0445    0.5582   -0.5082 H   0  0  0  0  0  0  0  0  0  0  0  0
   -3.4889   -1.0959   -0.8478 H   0  0  0  0  0  0  0  0  0  0  0  0
   -0.8064    1.1568    0.7414 C   0  0  0  0  0  0  0  0  0  0  0  0
   -1.6978    1.8100    0.2029 O   0  0  0  0  0  0  0  0  0  0  0  0
    0.0314    1.6872    1.6415 N   0  0  0  0  0  0  0  0  0  0  0  0
    0.7279    1.0858    2.0517 H   0  0  0  0  0  0  0  0  0  0  0  0
   -0.0137    3.0826    2.0755 C   0  0  0  0  0  0  0  0  0  0  0  0
   -0.9991    3.3070    2.4905 H   0  0  0  0  0  0  0  0  0  0  0  0
    0.7468    3.2694    2.8349 H   0  0  0  0  0  0  0  0  0  0  0  0
    0.1592    3.7397    1.2213 H   0  0  0  0  0  0  0  0  0  0  0  0
  5  6  2  0  0  0  0
  5  7  1  0  0  0  0
  2  3  1  0  0  0  0
  2  4  1  0  0  0  0
  2  5  1  0  0  0  0
  1  2  1  0  0  0  0
 22 23  2  0  0  0  0
 22 24  1  0  0  0  0
 18 19  1  0  0  0  0
 18 20  1  0  0  0  0
 18 21  1  0  0  0  0
 17 18  1  0  0  0  0
 14 15  1  0  0  0  0
 14 16  1  0  0  0  0
 14 17  1  0  0  0  0
 11 12  1  0  0  0  0
 11 13  1  0  0  0  0
 11 14  1  0  0  0  0
  9 10  1  0  0  0  0
  9 11  1  0  0  0  0
  9 22  1  0  0  0  0
  7  8  1  0  0  0  0
  7  9  1  0  0  0  0
 26 27  1  0  0  0  0
 26 28  1  0  0  0  0
 26 29  1  0  0  0  0
 24 25  1  0  0  0  0
 24 26  1  0  0  0  0
M  END
$$$$
default_name
  -OEChem-02102213163D

 29 28  0     1  0  0  0  0  0999 V2000
   -3.5781   -3.7296    1.2702 H   0  0  0  0  0  0  0  0  0  0  0  0
   -3.5311   -2.7616    0.7732 C   0  0  0  0  0  0  0  0  0  0  0  0
   -4.2371   -2.0766    1.2382 H   0  0  0  0  0  0  0  0  0  0  0  0
   -3.7681   -2.8816   -0.2818 H   0  0  0  0  0  0  0  0  0  0  0  0
   -2.1321   -2.2086    0.9112 C   0  0  0  0  0  0  0  0  0  0  0  0
   -1.2751   -2.8426    1.5112 O   0  0  0  0  0  0  0  0  0  0  0  0
   -1.9041   -1.0186    0.3602 N   0  0  0  0  0  0  0  0  0  0  0  0
   -2.6671   -0.5416   -0.0988 H   0  0  0  0  0  0  0  0  0  0  0  0
   -0.6131   -0.3236    0.3832 C   0  0  1  0  0  0  0  0  0  0  0  0
    0.0142   -0.7800    1.1506 H   0  0  0  0  0  0  0  0  0  0  0  0
    0.0816   -0.5059   -0.9788 C   0  0  0  0  0  0  0  0  0  0  0  0
    0.7152    0.3631   -1.1688 H   0  0  0  0  0  0  0  0  0  0  0  0
    0.7186   -1.3908   -0.9423 H   0  0  0  0  0  0  0  0  0  0  0  0
   -0.8964   -0.6543   -2.1500 C   0  0  0  0  0  0  0  0  0  0  0  0
   -0.3319   -0.7907   -3.0719 H   0  0  0  0  0  0  0  0  0  0  0  0
   -1.5125   -1.5384   -1.9820 H   0  0  0  0  0  0  0  0  0  0  0  0
   -1.9908    0.7722   -2.3671 S   0  0  0  0  0  0  0  0  0  0  0  0
   -3.0173    0.6035   -0.8839 C   0  0  0  0  0  0  0  0  0  0  0  0
   -2.3901    0.6634    0.0060 H   0  0  0  0  0  0  0  0  0  0  0  0
   -3.7525    1.4083   -0.8598 H   0  0  0  0  0  0  0  0  0  0  0  0
   -3.5357   -0.3555   -0.9025 H   0  0  0  0  0  0  0  0  0  0  0  0
   -0.8064    1.1568    0.7414 C   0  0  0  0  0  0  0  0  0  0  0  0
   -1.6978    1.8100    0.2029 O   0  0  0  0  0  0  0  0  0  0  0  0
    0.0314    1.6872    1.6415 N   0  0  0  0  0  0  0  0  0  0  0  0
    0.7279    1.0858    2.0517 H   0  0  0  0  0  0  0  0  0  0  0  0
   -0.0137    3.0826    2.0755 C   0  0  0  0  0  0  0  0  0  0  0  0
   -0.9991    3.3070    2.4905 H   0  0  0  0  0  0  0  0  0  0  0  0
    0.7468    3.2694    2.8349 H   0  0  0  0  0  0  0  0  0  0  0  0
    0.1592    3.7397    1.2213 H   0  0  0  0  0  0  0  0  0  0  0  0
  5  6  2  0  0  0  0
  5  7  1  0  0  0  0
  2  3  1  0  0  0  0
  2  4  1  0  0  0  0
  2  5  1  0  0  0  0
  1  2  1  0  0  0  0
 22 23  2  0  0  0  0
 22 24  1  0  0  0  0
 18 19  1  0  0  0  0
 18 20  1  0  0  0  0
 18 21  1  0  0  0  0
 17 18  1  0  0  0  0
 14 15  1  0  0  0  0
 14 16  1  0  0  0  0
 14 17  1  0  0  0  0
 11 12  1  0  0  0  0
 11 13  1  0  0  0  0
 11 14  1  0  0  0  0
  9 10  1  0  0  0  0
  9 11  1  0  0  0  0
  9 22  1  0  0  0  0
  7  8  1  0  0  0  0
  7  9  1  0  0  0  0
 26 27  1  0  0  0  0
 26 28  1  0  0  0  0
 26 29  1  0  0  0  0
 24 25  1  0  0  0  0
 24 26  1  0  0  0  0
M  END
$$$$
default_name
  -OEChem-02102213163D

 29 28  0     1  0  0  0  0  0999 V2000
   -3.5781   -3.7296    1.2702 H   0  0  0  0  0  0  0  0  0  0  0  0
   -3.5311   -2.7616    0.7732 C   0  0  0  0  0  0  0  0  0  0  0  0
   -4.2371   -2.0766    1.2382 H   0  0  0  0  0  0  0  0  0  0  0  0
   -3.7681   -2.8816   -0.2818 H   0  0  0  0  0  0  0  0  0  0  0  0
   -2.1321   -2.2086    0.9112 C   0  0  0  0  0  0  0  0  0  0  0  0
   -1.2751   -2.8426    1.5112 O   0  0  0  0  0  0  0  0  0  0  0  0
   -1.9041   -1.0186    0.3602 N   0  0  0  0  0  0  0  0  0  0  0  0
   -2.6671   -0.5416   -0.0988 H   0  0  0  0  0  0  0  0  0  0  0  0
   -0.6131   -0.3236    0.3832 C   0  0  1  0  0  0  0  0  0  0  0  0
    0.0142   -0.7800    1.1506 H   0  0  0  0  0  0  0  0  0  0  0  0
    0.0816   -0.5059   -0.9788 C   0  0  0  0  0  0  0  0  0  0  0  0
    0.7152    0.3631   -1.1688 H   0  0  0  0  0  0  0  0  0  0  0  0
    0.7186   -1.3908   -0.9423 H   0  0  0  0  0  0  0  0  0  0  0  0
   -0.8964   -0.6543   -2.1500 C   0  0  0  0  0  0  0  0  0  0  0  0
   -0.3628   -1.0511   -3.0132 H   0  0  0  0  0  0  0  0  0  0  0  0
   -1.6781   -1.3599   -1.8663 H   0  0  0  0  0  0  0  0  0  0  0  0
   -1.6818    0.9017   -2.6415 S   0  0  0  0  0  0  0  0  0  0  0  0
   -2.7338    1.1882   -1.1948 C   0  0  0  0  0  0  0  0  0  0  0  0
   -2.1148    1.2726   -0.3011 H   0  0  0  0  0  0  0  0  0  0  0  0
   -3.2935    2.1137   -1.3325 H   0  0  0  0  0  0  0  0  0  0  0  0
   -3.4332    0.3598   -1.0788 H   0  0  0  0  0  0  0  0  0  0  0  0
   -0.8064    1.1568    0.7414 C   0  0  0  0  0  0  0  0  0  0  0  0
   -1.6978    1.8100    0.2029 O   0  0  0  0  0  0  0  0  0  0  0  0
    0.0314    1.6872    1.6415 N   0  0  0  0  0  0  0  0  0  0  0  0
    0.7279    1.0858    2.0517 H   0  0  0  0  0  0  0  0  0  0  0  0
   -0.0137    3.0826    2.0755 C   0  0  0  0  0  0  0  0  0  0  0  0
   -0.9991    3.3070    2.4905 H   0  0  0  0  0  0  0  0  0  0  0  0
    0.7468    3.2694    2.8349 H   0  0  0  0  0  0  0  0  0  0  0  0
    0.1592    3.7397    1.2213 H   0  0  0  0  0  0  0  0  0  0  0  0
  5  6  2  0  0  0  0
  5  7  1  0  0  0  0
  2  3  1  0  0  0  0
  2  4  1  0  0  0  0
  2  5  1  0  0  0  0
  1  2  1  0  0  0  0
 22 23  2  0  0  0  0
 22 24  1  0  0  0  0
 18 19  1  0  0  0  0
 18 20  1  0  0  0  0
 18 21  1  0  0  0  0
 17 18  1  0  0  0  0
 14 15  1  0  0  0  0
 14 16  1  0  0  0  0
 14 17  1  0  0  0  0
 11 12  1  0  0  0  0
 11 13  1  0  0  0  0
 11 14  1  0  0  0  0
  9 10  1  0  0  0  0
  9 11  1  0  0  0  0
  9 22  1  0  0  0  0
  7  8  1  0  0  0  0
  7  9  1  0  0  0  0
 26 27  1  0  0  0  0
 26 28  1  0  0  0  0
 26 29  1  0  0  0  0
 24 25  1  0  0  0  0
 24 26  1  0  0  0  0
M  END
$$$$
default_name
  -OEChem-02102213163D

 29 28  0     1  0  0  0  0  0999 V2000
   -3.5781   -3.7296    1.2702 H   0  0  0  0  0  0  0  0  0  0  0  0
   -3.5311   -2.7616    0.7732 C   0  0  0  0  0  0  0  0  0  0  0  0
   -4.2371   -2.0766    1.2382 H   0  0  0  0  0  0  0  0  0  0  0  0
   -3.7681   -2.8816   -0.2818 H   0  0  0  0  0  0  0  0  0  0  0  0
   -2.1321   -2.2086    0.9112 C   0  0  0  0  0  0  0  0  0  0  0  0
   -1.2751   -2.8426    1.5112 O   0  0  0  0  0  0  0  0  0  0  0  0
   -1.9041   -1.0186    0.3602 N   0  0  0  0  0  0  0  0  0  0  0  0
   -2.6671   -0.5416   -0.0988 H   0  0  0  0  0  0  0  0  0  0  0  0
   -0.6131   -0.3236    0.3832 C   0  0  1  0  0  0  0  0  0  0  0  0
    0.0142   -0.7800    1.1506 H   0  0  0  0  0  0  0  0  0  0  0  0
    0.0816   -0.5059   -0.9788 C   0  0  0  0  0  0  0  0  0  0  0  0
    0.7152    0.3631   -1.1688 H   0  0  0  0  0  0  0  0  0  0  0  0
    0.7186   -1.3908   -0.9423 H   0  0  0  0  0  0  0  0  0  0  0  0
   -0.8964   -0.6543   -2.1500 C   0  0  0  0  0  0  0  0  0  0  0  0
   -0.4456   -1.2867   -2.9142 H   0  0  0  0  0  0  0  0  0  0  0  0
   -1.8057   -1.1356   -1.7882 H   0  0  0  0  0  0  0  0  0  0  0  0
   -1.3508    0.9205   -2.9203 S   0  0  0  0  0  0  0  0  0  0  0  0
   -2.3365    1.6456   -1.5845 C   0  0  0  0  0  0  0  0  0  0  0  0
   -1.7208    1.7558   -0.6914 H   0  0  0  0  0  0  0  0  0  0  0  0
   -2.6989    2.6262   -1.8940 H   0  0  0  0  0  0  0  0  0  0  0  0
   -3.1884    1.0015   -1.3646 H   0  0  0  0  0  0  0  0  0  0  0  0
   -0.8064    1.1568    0.7414 C   0  0  0  0  0  0  0  0  0  0  0  0
   -1.6978    1.8100    0.2029 O   0  0  0  0  0  0  0  0  0  0  0  0
    0.0314    1.6872    1.6415 N   0  0  0  0  0  0  0  0  0  0  0  0
    0.7279    1.0858    2.0517 H   0  0  0  0  0  0  0  0  0  0  0  0
   -0.0137    3.0826    2.0755 C   0  0  0  0  0  0  0  0  0  0  0  0
   -0.9991    3.3070    2.4905 H   0  0  0  0  0  0  0  0  0  0  0  0
    0.7468    3.2694    2.8349 H   0  0  0  0  0  0  0  0  0  0  0  0
    0.1592    3.7397    1.2213 H   0  0  0  0  0  0  0  0  0  0  0  0
  5  6  2  0  0  0  0
  5  7  1  0  0  0  0
  2  3  1  0  0  0  0
  2  4  1  0  0  0  0
  2  5  1  0  0  0  0
  1  2  1  0  0  0  0
 22 23  2  0  0  0  0
 22 24  1  0  0  0  0
 18 19  1  0  0  0  0
 18 20  1  0  0  0  0
 18 21  1  0  0  0  0
 17 18  1  0  0  0  0
 14 15  1  0  0  0  0
 14 16  1  0  0  0  0
 14 17  1  0  0  0  0
 11 12  1  0  0  0  0
 11 13  1  0  0  0  0
 11 14  1  0  0  0  0
  9 10  1  0  0  0  0
  9 11  1  0  0  0  0
  9 22  1  0  0  0  0
  7  8  1  0  0  0  0
  7  9  1  0  0  0  0
 26 27  1  0  0  0  0
 26 28  1  0  0  0  0
 26 29  1  0  0  0  0
 24 25  1  0  0  0  0
 24 26  1  0  0  0  0
M  END
$$$$
default_name
  -OEChem-02102213163D

 29 28  0     1  0  0  0  0  0999 V2000
   -3.5781   -3.7296    1.2702 H   0  0  0  0  0  0  0  0  0  0  0  0
   -3.5311   -2.7616    0.7732 C   0  0  0  0  0  0  0  0  0  0  0  0
   -4.2371   -2.0766    1.2382 H   0  0  0  0  0  0  0  0  0  0  0  0
   -3.7681   -2.8816   -0.2818 H   0  0  0  0  0  0  0  0  0  0  0  0
   -2.1321   -2.2086    0.9112 C   0  0  0  0  0  0  0  0  0  0  0  0
   -1.2751   -2.8426    1.5112 O   0  0  0  0  0  0  0  0  0  0  0  0
   -1.9041   -1.0186    0.3602 N   0  0  0  0  0  0  0  0  0  0  0  0
   -2.6671   -0.5416   -0.0988 H   0  0  0  0  0  0  0  0  0  0  0  0
   -0.6131   -0.3236    0.3832 C   0  0  1  0  0  0  0  0  0  0  0  0
    0.0142   -0.7800    1.1506 H   0  0  0  0  0  0  0  0  0  0  0  0
    0.0816   -0.5059   -0.9788 C   0  0  0  0  0  0  0  0  0  0  0  0
    0.7152    0.3631   -1.1688 H   0  0  0  0  0  0  0  0  0  0  0  0
    0.7186   -1.3908   -0.9423 H   0  0  0  0  0  0  0  0  0  0  0  0
   -0.8964   -0.6543   -2.1500 C   0  0  0  0  0  0  0  0  0  0  0  0
   -0.5746   -1.4817   -2.7817 H   0  0  0  0  0  0  0  0  0  0  0  0
   -1.8866   -0.8808   -1.7530 H   0  0  0  0  0  0  0  0  0  0  0  0
   -1.0204    0.8271   -3.1843 S   0  0  0  0  0  0  0  0  0  0  0  0
   -1.8526    1.9445   -2.0265 C   0  0  0  0  0  0  0  0  0  0  0  0
   -1.2348    2.0803   -1.1383 H   0  0  0  0  0  0  0  0  0  0  0  0
   -2.0090    2.9110   -2.5062 H   0  0  0  0  0  0  0  0  0  0  0  0
   -2.8178    1.5256   -1.7405 H   0  0  0  0  0  0  0  0  0  0  0  0
   -0.8064    1.1568    0.7414 C   0  0  0  0  0  0  0  0  0  0  0  0
   -1.6978    1.8100    0.2029 O   0  0  0  0  0  0  0  0  0  0  0  0
    0.0314    1.6872    1.6415 N   0  0  0  0  0  0  0  0  0  0  0  0
    0.7279    1.0858    2.0517 H   0  0  0  0  0  0  0  0  0  0  0  0
   -0.0137    3.0826    2.0755 C   0  0  0  0  0  0  0  0  0  0  0  0
   -0.9991    3.3070    2.4905 H   0  0  0  0  0  0  0  0  0  0  0  0
    0.7468    3.2694    2.8349 H   0  0  0  0  0  0  0  0  0  0  0  0
    0.1592    3.7397    1.2213 H   0  0  0  0  0  0  0  0  0  0  0  0
  5  6  2  0  0  0  0
  5  7  1  0  0  0  0
  2  3  1  0  0  0  0
  2  4  1  0  0  0  0
  2  5  1  0  0  0  0
  1  2  1  0  0  0  0
 22 23  2  0  0  0  0
 22 24  1  0  0  0  0
 18 19  1  0  0  0  0
 18 20  1  0  0  0  0
 18 21  1  0  0  0  0
 17 18  1  0  0  0  0
 14 15  1  0  0  0  0
 14 16  1  0  0  0  0
 14 17  1  0  0  0  0
 11 12  1  0  0  0  0
 11 13  1  0  0  0  0
 11 14  1  0  0  0  0
  9 10  1  0  0  0  0
  9 11  1  0  0  0  0
  9 22  1  0  0  0  0
  7  8  1  0  0  0  0
  7  9  1  0  0  0  0
 26 27  1  0  0  0  0
 26 28  1  0  0  0  0
 26 29  1  0  0  0  0
 24 25  1  0  0  0  0
 24 26  1  0  0  0  0
M  END
$$$$
default_name
  -OEChem-02102213163D

 29 28  0     1  0  0  0  0  0999 V2000
   -3.5781   -3.7296    1.2702 H   0  0  0  0  0  0  0  0  0  0  0  0
   -3.5311   -2.7616    0.7732 C   0  0  0  0  0  0  0  0  0  0  0  0
   -4.2371   -2.0766    1.2382 H   0  0  0  0  0  0  0  0  0  0  0  0
   -3.7681   -2.8816   -0.2818 H   0  0  0  0  0  0  0  0  0  0  0  0
   -2.1321   -2.2086    0.9112 C   0  0  0  0  0  0  0  0  0  0  0  0
   -1.2751   -2.8426    1.5112 O   0  0  0  0  0  0  0  0  0  0  0  0
   -1.9041   -1.0186    0.3602 N   0  0  0  0  0  0  0  0  0  0  0  0
   -2.6671   -0.5416   -0.0988 H   0  0  0  0  0  0  0  0  0  0  0  0
   -0.6131   -0.3236    0.3832 C   0  0  1  0  0  0  0  0  0  0  0  0
    0.0142   -0.7800    1.1506 H   0  0  0  0  0  0  0  0  0  0  0  0
    0.0816   -0.5059   -0.9788 C   0  0  0  0  0  0  0  0  0  0  0  0
    0.7152    0.3631   -1.1688 H   0  0  0  0  0  0  0  0  0  0  0  0
    0.7186   -1.3908   -0.9423 H   0  0  0  0  0  0  0  0  0  0  0  0
   -0.8964   -0.6543   -2.1500 C   0  0  0  0  0  0  0  0  0  0  0  0
   -0.7411   -1.6226   -2.6248 H   0  0  0  0  0  0  0  0  0  0  0  0
   -1.9152   -0.6129   -1.7630 H   0  0  0  0  0  0  0  0  0  0  0  0
   -0.7132    0.6280   -3.4157 S   0  0  0  0  0  0  0  0  0  0  0  0
   -1.3150    2.0645   -2.4906 C   0  0  0  0  0  0  0  0  0  0  0  0
   -0.6901    2.2238   -1.6113 H   0  0  0  0  0  0  0  0  0  0  0  0
   -1.2711    2.9486   -3.1272 H   0  0  0  0  0  0  0  0  0  0  0  0
   -2.3469    1.8965   -2.1808 H   0  0  0  0  0  0  0  0  0  0  0  0
   -0.8064    1.1568    0.7414 C   0  0  0  0  0  0  0  0  0  0  0  0
   -1.6978    1.8100    0.2029 O   0  0  0  0  0  0  0  0  0  0  0  0
    0.0314    1.6872    1.6415 N   0  0  0  0  0  0  0  0  0  0  0  0
    0.7279    1.0858    2.0517 H   0  0  0  0  0  0  0  0  0  0  0  0
   -0.0137    3.0826    2.0755 C   0  0  0  0  0  0  0  0  0  0  0  0
   -0.9991    3.3070    2.4905 H   0  0  0  0  0  0  0  0  0  0  0  0
    0.7468    3.2694    2.8349 H   0  0  0  0  0  0  0  0  0  0  0  0
    0.1592    3.7397    1.2213 H   0  0  0  0  0  0  0  0  0  0  0  0
  5  6  2  0  0  0  0
  5  7  1  0  0  0  0
  2  3  1  0  0  0  0
  2  4  1  0  0  0  0
  2  5  1  0  0  0  0
  1  2  1  0  0  0  0
 22 23  2  0  0  0  0
 22 24  1  0  0  0  0
 18 19  1  0  0  0  0
 18 20  1  0  0  0  0
 18 21  1  0  0  0  0
 17 18  1  0  0  0  0
 14 15  1  0  0  0  0
 14 16  1  0  0  0  0
 14 17  1  0  0  0  0
 11 12  1  0  0  0  0
 11 13  1  0  0  0  0
 11 14  1  0  0  0  0
  9 10  1  0  0  0  0
  9 11  1  0  0  0  0
  9 22  1  0  0  0  0
  7  8  1  0  0  0  0
  7  9  1  0  0  0  0
 26 27  1  0  0  0  0
 26 28  1  0  0  0  0
 26 29  1  0  0  0  0
 24 25  1  0  0  0  0
 24 26  1  0  0  0  0
M  END
$$$$
default_name
  -OEChem-02102213163D

 29 28  0     1  0  0  0  0  0999 V2000
   -3.5781   -3.7296    1.2702 H   0  0  0  0  0  0  0  0  0  0  0  0
   -3.5311   -2.7616    0.7732 C   0  0  0  0  0  0  0  0  0  0  0  0
   -4.2371   -2.0766    1.2382 H   0  0  0  0  0  0  0  0  0  0  0  0
   -3.7681   -2.8816   -0.2818 H   0  0  0  0  0  0  0  0  0  0  0  0
   -2.1321   -2.2086    0.9112 C   0  0  0  0  0  0  0  0  0  0  0  0
   -1.2751   -2.8426    1.5112 O   0  0  0  0  0  0  0  0  0  0  0  0
   -1.9041   -1.0186    0.3602 N   0  0  0  0  0  0  0  0  0  0  0  0
   -2.6671   -0.5416   -0.0988 H   0  0  0  0  0  0  0  0  0  0  0  0
   -0.6131   -0.3236    0.3832 C   0  0  1  0  0  0  0  0  0  0  0  0
    0.0142   -0.7800    1.1506 H   0  0  0  0  0  0  0  0  0  0  0  0
    0.0816   -0.5059   -0.9788 C   0  0  0  0  0  0  0  0  0  0  0  0
    0.7152    0.3631   -1.1688 H   0  0  0  0  0  0  0  0  0  0  0  0
    0.7186   -1.3908   -0.9423 H   0  0  0  0  0  0  0  0  0  0  0  0
   -0.8964   -0.6543   -2.1500 C   0  0  0  0  0  0  0  0  0  0  0  0
   -0.9337   -1.6999   -2.4542 H   0  0  0  0  0  0  0  0  0  0  0  0
   -1.8896   -0.3501   -1.8177 H   0  0  0  0  0  0  0  0  0  0  0  0
   -0.4499    0.3367   -3.5986 S   0  0  0  0  0  0  0  0  0  0  0  0
   -0.7604    1.9975   -2.9453 C   0  0  0  0  0  0  0  0  0  0  0  0
   -0.1237    2.1766   -2.0783 H   0  0  0  0  0  0  0  0  0  0  0  0
   -0.5353    2.7365   -3.7147 H   0  0  0  0  0  0  0  0  0  0  0  0
   -1.8075    2.0890   -2.6555 H   0  0  0  0  0  0  0  0  0  0  0  0
   -0.8064    1.1568    0.7414 C   0  0  0  0  0  0  0  0  0  0  0  0
   -1.6978    1.8100    0.2029 O   0  0  0  0  0  0  0  0  0  0  0  0
    0.0314    1.6872    1.6415 N   0  0  0  0  0  0  0  0  0  0  0  0
    0.7279    1.0858    2.0517 H   0  0  0  0  0  0  0  0  0  0  0  0
   -0.0137    3.0826    2.0755 C   0  0  0  0  0  0  0  0  0  0  0  0
   -0.9991    3.3070    2.4905 H   0  0  0  0  0  0  0  0  0  0  0  0
    0.7468    3.2694    2.8349 H   0  0  0  0  0  0  0  0  0  0  0  0
    0.1592    3.7397    1.2213 H   0  0  0  0  0  0  0  0  0  0  0  0
  5  6  2  0  0  0  0
  5  7  1  0  0  0  0
  2  3  1  0  0  0  0
  2  4  1  0  0  0  0
  2  5  1  0  0  0  0
  1  2  1  0  0  0  0
 22 23  2  0  0  0  0
 22 24  1  0  0  0  0
 18 19  1  0  0  0  0
 18 20  1  0  0  0  0
 18 21  1  0  0  0  0
 17 18  1  0  0  0  0
 14 15  1  0  0  0  0
 14 16  1  0  0  0  0
 14 17  1  0  0  0  0
 11 12  1  0  0  0  0
 11 13  1  0  0  0  0
 11 14  1  0  0  0  0
  9 10  1  0  0  0  0
  9 11  1  0  0  0  0
  9 22  1  0  0  0  0
  7  8  1  0  0  0  0
  7  9  1  0  0  0  0
 26 27  1  0  0  0  0
 26 28  1  0  0  0  0
 26 29  1  0  0  0  0
 24 25  1  0  0  0  0
 24 26  1  0  0  0  0
M  END
$$$$
default_name
  -OEChem-02102213163D

 29 28  0     1  0  0  0  0  0999 V2000
   -3.5781   -3.7296    1.2702 H   0  0  0  0  0  0  0  0  0  0  0  0
   -3.5311   -2.7616    0.7732 C   0  0  0  0  0  0  0  0  0  0  0  0
   -4.2371   -2.0766    1.2382 H   0  0  0  0  0  0  0  0  0  0  0  0
   -3.7681   -2.8816   -0.2818 H   0  0  0  0  0  0  0  0  0  0  0  0
   -2.1321   -2.2086    0.9112 C   0  0  0  0  0  0  0  0  0  0  0  0
   -1.2751   -2.8426    1.5112 O   0  0  0  0  0  0  0  0  0  0  0  0
   -1.9041   -1.0186    0.3602 N   0  0  0  0  0  0  0  0  0  0  0  0
   -2.6671   -0.5416   -0.0988 H   0  0  0  0  0  0  0  0  0  0  0  0
   -0.6131   -0.3236    0.3832 C   0  0  1  0  0  0  0  0  0  0  0  0
    0.0142   -0.7800    1.1506 H   0  0  0  0  0  0  0  0  0  0  0  0
    0.0816   -0.5059   -0.9788 C   0  0  0  0  0  0  0  0  0  0  0  0
    0.7152    0.3631   -1.1688 H   0  0  0  0  0  0  0  0  0  0  0  0
    0.7186   -1.3908   -0.9423 H   0  0  0  0  0  0  0  0  0  0  0  0
   -0.8964   -0.6543   -2.1500 C   0  0  0  0  0  0  0  0  0  0  0  0
   -1.1393   -1.7083   -2.2814 H   0  0  0  0  0  0  0  0  0  0  0  0
   -1.8115   -0.1104   -1.9133 H   0  0  0  0  0  0  0  0  0  0  0  0
   -0.2487   -0.0270   -3.7206 S   0  0  0  0  0  0  0  0  0  0  0  0
   -0.2265    1.7481   -3.3595 C   0  0  0  0  0  0  0  0  0  0  0  0
    0.4258    1.9419   -2.5074 H   0  0  0  0  0  0  0  0  0  0  0  0
    0.1483    2.2891   -4.2288 H   0  0  0  0  0  0  0  0  0  0  0  0
   -1.2366    2.0899   -3.1324 H   0  0  0  0  0  0  0  0  0  0  0  0
   -0.8064    1.1568    0.7414 C   0  0  0  0  0  0  0  0  0  0  0  0
   -1.6978    1.8100    0.2029 O   0  0  0  0  0  0  0  0  0  0  0  0
    0.0314    1.6872    1.6415 N   0  0  0  0  0  0  0  0  0  0  0  0
    0.7279    1.0858    2.0517 H   0  0  0  0  0  0  0  0  0  0  0  0
   -0.0137    3.0826    2.0755 C   0  0  0  0  0  0  0  0  0  0  0  0
   -0.9991    3.3070    2.4905 H   0  0  0  0  0  0  0  0  0  0  0  0
    0.7468    3.2694    2.8349 H   0  0  0  0  0  0  0  0  0  0  0  0
    0.1592    3.7397    1.2213 H   0  0  0  0  0  0  0  0  0  0  0  0
  5  6  2  0  0  0  0
  5  7  1  0  0  0  0
  2  3  1  0  0  0  0
  2  4  1  0  0  0  0
  2  5  1  0  0  0  0
  1  2  1  0  0  0  0
 22 23  2  0  0  0  0
 22 24  1  0  0  0  0
 18 19  1  0  0  0  0
 18 20  1  0  0  0  0
 18 21  1  0  0  0  0
 17 18  1  0  0  0  0
 14 15  1  0  0  0  0
 14 16  1  0  0  0  0
 14 17  1  0  0  0  0
 11 12  1  0  0  0  0
 11 13  1  0  0  0  0
 11 14  1  0  0  0  0
  9 10  1  0  0  0  0
  9 11  1  0  0  0  0
  9 22  1  0  0  0  0
  7  8  1  0  0  0  0
  7  9  1  0  0  0  0
 26 27  1  0  0  0  0
 26 28  1  0  0  0  0
 26 29  1  0  0  0  0
 24 25  1  0  0  0  0
 24 26  1  0  0  0  0
M  END
$$$$
default_name
  -OEChem-02102213163D

 29 28  0     1  0  0  0  0  0999 V2000
   -3.5781   -3.7296    1.2702 H   0  0  0  0  0  0  0  0  0  0  0  0
   -3.5311   -2.7616    0.7732 C   0  0  0  0  0  0  0  0  0  0  0  0
   -4.2371   -2.0766    1.2382 H   0  0  0  0  0  0  0  0  0  0  0  0
   -3.7681   -2.8816   -0.2818 H   0  0  0  0  0  0  0  0  0  0  0  0
   -2.1321   -2.2086    0.9112 C   0  0  0  0  0  0  0  0  0  0  0  0
   -1.2751   -2.8426    1.5112 O   0  0  0  0  0  0  0  0  0  0  0  0
   -1.9041   -1.0186    0.3602 N   0  0  0  0  0  0  0  0  0  0  0  0
   -2.6671   -0.5416   -0.0988 H   0  0  0  0  0  0  0  0  0  0  0  0
   -0.6131   -0.3236    0.3832 C   0  0  1  0  0  0  0  0  0  0  0  0
    0.0142   -0.7800    1.1506 H   0  0  0  0  0  0  0  0  0  0  0  0
    0.0816   -0.5059   -0.9788 C   0  0  0  0  0  0  0  0  0  0  0  0
    0.7152    0.3631   -1.1688 H   0  0  0  0  0  0  0  0  0  0  0  0
    0.7186   -1.3908   -0.9423 H   0  0  0  0  0  0  0  0  0  0  0  0
   -0.8964   -0.6543   -2.1500 C   0  0  0  0  0  0  0  0  0  0  0  0
   -1.3439   -1.6472   -2.1183 H   0  0  0  0  0  0  0  0  0  0  0  0
   -1.6864    0.0900   -2.0432 H   0  0  0  0  0  0  0  0  0  0  0  0
   -0.1231   -0.4381   -3.7733 S   0  0  0  0  0  0  0  0  0  0  0  0
    0.2503    1.3332   -3.7050 C   0  0  0  0  0  0  0  0  0  0  0  0
    0.9209    1.5357   -2.8694 H   0  0  0  0  0  0  0  0  0  0  0  0
    0.7329    1.6369   -4.6344 H   0  0  0  0  0  0  0  0  0  0  0  0
   -0.6731    1.8992   -3.5788 H   0  0  0  0  0  0  0  0  0  0  0  0
   -0.8064    1.1568    0.7414 C   0  0  0  0  0  0  0  0  0  0  0  0
   -1.6978    1.8100    0.2029 O   0  0  0  0  0  0  0  0  0  0  0  0
    0.0314    1.6872    1.6415 N   0  0  0  0  0  0  0  0  0  0  0  0
    0.7279    1.0858    2.0517 H   0  0  0  0  0  0  0  0  0  0  0  0
   -0.0137    3.0826    2.0755 C   0  0  0  0  0  0  0  0  0  0  0  0
   -0.9991    3.3070    2.4905 H   0  0  0  0  0  0  0  0  0  0  0  0
    0.7468    3.2694    2.8349 H   0  0  0  0  0  0  0  0  0  0  0  0
    0.1592    3.7397    1.2213 H   0  0  0  0  0  0  0  0  0  0  0  0
  5  6  2  0  0  0  0
  5  7  1  0  0  0  0
  2  3  1  0  0  0  0
  2  4  1  0  0  0  0
  2  5  1  0  0  0  0
  1  2  1  0  0  0  0
 22 23  2  0  0  0  0
 22 24  1  0  0  0  0
 18 19  1  0  0  0  0
 18 20  1  0  0  0  0
 18 21  1  0  0  0  0
 17 18  1  0  0  0  0
 14 15  1  0  0  0  0
 14 16  1  0  0  0  0
 14 17  1  0  0  0  0
 11 12  1  0  0  0  0
 11 13  1  0  0  0  0
 11 14  1  0  0  0  0
  9 10  1  0  0  0  0
  9 11  1  0  0  0  0
  9 22  1  0  0  0  0
  7  8  1  0  0  0  0
  7  9  1  0  0  0  0
 26 27  1  0  0  0  0
 26 28  1  0  0  0  0
 26 29  1  0  0  0  0
 24 25  1  0  0  0  0
 24 26  1  0  0  0  0
M  END
$$$$
default_name
  -OEChem-02102213163D

 29 28  0     1  0  0  0  0  0999 V2000
   -3.5781   -3.7296    1.2702 H   0  0  0  0  0  0  0  0  0  0  0  0
   -3.5311   -2.7616    0.7732 C   0  0  0  0  0  0  0  0  0  0  0  0
   -4.2371   -2.0766    1.2382 H   0  0  0  0  0  0  0  0  0  0  0  0
   -3.7681   -2.8816   -0.2818 H   0  0  0  0  0  0  0  0  0  0  0  0
   -2.1321   -2.2086    0.9112 C   0  0  0  0  0  0  0  0  0  0  0  0
   -1.2751   -2.8426    1.5112 O   0  0  0  0  0  0  0  0  0  0  0  0
   -1.9041   -1.0186    0.3602 N   0  0  0  0  0  0  0  0  0  0  0  0
   -2.6671   -0.5416   -0.0988 H   0  0  0  0  0  0  0  0  0  0  0  0
   -0.6131   -0.3236    0.3832 C   0  0  1  0  0  0  0  0  0  0  0  0
    0.0142   -0.7800    1.1506 H   0  0  0  0  0  0  0  0  0  0  0  0
    0.0816   -0.5059   -0.9788 C   0  0  0  0  0  0  0  0  0  0  0  0
    0.9038    0.2092   -1.0521 H   0  0  0  0  0  0  0  0  0  0  0  0
    0.4987   -1.5122   -1.0382 H   0  0  0  0  0  0  0  0  0  0  0  0
   -0.8518   -0.2911   -2.1759 C   0  0  0  0  0  0  0  0  0  0  0  0
   -1.6762   -1.0011   -2.1182 H   0  0  0  0  0  0  0  0  0  0  0  0
   -1.2563    0.7206   -2.1275 H   0  0  0  0  0  0  0  0  0  0  0  0
   -0.0371   -0.5049   -3.7791 S   0  0  0  0  0  0  0  0  0  0  0  0
    1.0465    0.9469   -3.7719 C   0  0  0  0  0  0  0  0  0  0  0  0
    1.7284    0.8925   -2.9228 H   0  0  0  0  0  0  0  0  0  0  0  0
    1.6249    0.9708   -4.6959 H   0  0  0  0  0  0  0  0  0  0  0  0
    0.4456    1.8540   -3.7013 H   0  0  0  0  0  0  0  0  0  0  0  0
   -0.8064    1.1568    0.7414 C   0  0  0  0  0  0  0  0  0  0  0  0
   -1.6978    1.8100    0.2029 O   0  0  0  0  0  0  0  0  0  0  0  0
    0.0314    1.6872    1.6415 N   0  0  0  0  0  0  0  0  0  0  0  0
    0.7279    1.0858    2.0517 H   0  0  0  0  0  0  0  0  0  0  0  0
   -0.0137    3.0826    2.0755 C   0  0  0  0  0  0  0  0  0  0  0  0
   -0.9991    3.3070    2.4905 H   0  0  0  0  0  0  0  0  0  0  0  0
    0.7468    3.2694    2.8349 H   0  0  0  0  0  0  0  0  0  0  0  0
    0.1592    3.7397    1.2213 H   0  0  0  0  0  0  0  0  0  0  0  0
  5  6  2  0  0  0  0
  5  7  1  0  0  0  0
  2  3  1  0  0  0  0
  2  4  1  0  0  0  0
  2  5  1  0  0  0  0
  1  2  1  0  0  0  0
 22 23  2  0  0  0  0
 22 24  1  0  0  0  0
 18 19  1  0  0  0  0
 18 20  1  0  0  0  0
 18 21  1  0  0  0  0
 17 18  1  0  0  0  0
 14 15  1  0  0  0  0
 14 16  1  0  0  0  0
 14 17  1  0  0  0  0
 11 12  1  0  0  0  0
 11 13  1  0  0  0  0
 11 14  1  0  0  0  0
  9 10  1  0  0  0  0
  9 11  1  0  0  0  0
  9 22  1  0  0  0  0
  7  8  1  0  0  0  0
  7  9  1  0  0  0  0
 26 27  1  0  0  0  0
 26 28  1  0  0  0  0
 26 29  1  0  0  0  0
 24 25  1  0  0  0  0
 24 26  1  0  0  0  0
M  END
$$$$
default_name
  -OEChem-02102213163D

 29 28  0     1  0  0  0  0  0999 V2000
   -3.5781   -3.7296    1.2702 H   0  0  0  0  0  0  0  0  0  0  0  0
   -3.5311   -2.7616    0.7732 C   0  0  0  0  0  0  0  0  0  0  0  0
   -4.2371   -2.0766    1.2382 H   0  0  0  0  0  0  0  0  0  0  0  0
   -3.7681   -2.8816   -0.2818 H   0  0  0  0  0  0  0  0  0  0  0  0
   -2.1321   -2.2086    0.9112 C   0  0  0  0  0  0  0  0  0  0  0  0
   -1.2751   -2.8426    1.5112 O   0  0  0  0  0  0  0  0  0  0  0  0
   -1.9041   -1.0186    0.3602 N   0  0  0  0  0  0  0  0  0  0  0  0
   -2.6671   -0.5416   -0.0988 H   0  0  0  0  0  0  0  0  0  0  0  0
   -0.6131   -0.3236    0.3832 C   0  0  1  0  0  0  0  0  0  0  0  0
    0.0142   -0.7800    1.1506 H   0  0  0  0  0  0  0  0  0  0  0  0
    0.0816   -0.5059   -0.9788 C   0  0  0  0  0  0  0  0  0  0  0  0
    0.9038    0.2092   -1.0521 H   0  0  0  0  0  0  0  0  0  0  0  0
    0.4987   -1.5122   -1.0382 H   0  0  0  0  0  0  0  0  0  0  0  0
   -0.8518   -0.2911   -2.1759 C   0  0  0  0  0  0  0  0  0  0  0  0
   -1.7969   -0.7995   -1.9879 H   0  0  0  0  0  0  0  0  0  0  0  0
   -1.0436    0.7772   -2.2832 H   0  0  0  0  0  0  0  0  0  0  0  0
   -0.1813   -0.9114   -3.7396 S   0  0  0  0  0  0  0  0  0  0  0  0
    1.1686    0.2709   -3.9885 C   0  0  0  0  0  0  0  0  0  0  0  0
    1.8696    0.2091   -3.1556 H   0  0  0  0  0  0  0  0  0  0  0  0
    1.6909    0.0332   -4.9156 H   0  0  0  0  0  0  0  0  0  0  0  0
    0.7650    1.2817   -4.0531 H   0  0  0  0  0  0  0  0  0  0  0  0
   -0.8064    1.1568    0.7414 C   0  0  0  0  0  0  0  0  0  0  0  0
   -1.6978    1.8100    0.2029 O   0  0  0  0  0  0  0  0  0  0  0  0
    0.0314    1.6872    1.6415 N   0  0  0  0  0  0  0  0  0  0  0  0
    0.7279    1.0858    2.0517 H   0  0  0  0  0  0  0  0  0  0  0  0
   -0.0137    3.0826    2.0755 C   0  0  0  0  0  0  0  0  0  0  0  0
   -0.9991    3.3070    2.4905 H   0  0  0  0  0  0  0  0  0  0  0  0
    0.7468    3.2694    2.8349 H   0  0  0  0  0  0  0  0  0  0  0  0
    0.1592    3.7397    1.2213 H   0  0  0  0  0  0  0  0  0  0  0  0
  5  6  2  0  0  0  0
  5  7  1  0  0  0  0
  2  3  1  0  0  0  0
  2  4  1  0  0  0  0
  2  5  1  0  0  0  0
  1  2  1  0  0  0  0
 22 23  2  0  0  0  0
 22 24  1  0  0  0  0
 18 19  1  0  0  0  0
 18 20  1  0  0  0  0
 18 21  1  0  0  0  0
 17 18  1  0  0  0  0
 14 15  1  0  0  0  0
 14 16  1  0  0  0  0
 14 17  1  0  0  0  0
 11 12  1  0  0  0  0
 11 13  1  0  0  0  0
 11 14  1  0  0  0  0
  9 10  1  0  0  0  0
  9 11  1  0  0  0  0
  9 22  1  0  0  0  0
  7  8  1  0  0  0  0
  7  9  1  0  0  0  0
 26 27  1  0  0  0  0
 26 28  1  0  0  0  0
 26 29  1  0  0  0  0
 24 25  1  0  0  0  0
 24 26  1  0  0  0  0
M  END
$$$$
default_name
  -OEChem-02102213163D

 29 28  0     1  0  0  0  0  0999 V2000
   -3.5781   -3.7296    1.2702 H   0  0  0  0  0  0  0  0  0  0  0  0
   -3.5311   -2.7616    0.7732 C   0  0  0  0  0  0  0  0  0  0  0  0
   -4.2371   -2.0766    1.2382 H   0  0  0  0  0  0  0  0  0  0  0  0
   -3.7681   -2.8816   -0.2818 H   0  0  0  0  0  0  0  0  0  0  0  0
   -2.1321   -2.2086    0.9112 C   0  0  0  0  0  0  0  0  0  0  0  0
   -1.2751   -2.8426    1.5112 O   0  0  0  0  0  0  0  0  0  0  0  0
   -1.9041   -1.0186    0.3602 N   0  0  0  0  0  0  0  0  0  0  0  0
   -2.6671   -0.5416   -0.0988 H   0  0  0  0  0  0  0  0  0  0  0  0
   -0.6131   -0.3236    0.3832 C   0  0  1  0  0  0  0  0  0  0  0  0
    0.0142   -0.7800    1.1506 H   0  0  0  0  0  0  0  0  0  0  0  0
    0.0816   -0.5059   -0.9788 C   0  0  0  0  0  0  0  0  0  0  0  0
    0.9038    0.2092   -1.0521 H   0  0  0  0  0  0  0  0  0  0  0  0
    0.4987   -1.5122   -1.0382 H   0  0  0  0  0  0  0  0  0  0  0  0
   -0.8518   -0.2911   -2.1759 C   0  0  0  0  0  0  0  0  0  0  0  0
   -1.8681   -0.5599   -1.8894 H   0  0  0  0  0  0  0  0  0  0  0  0
   -0.8323    0.7643   -2.4503 H   0  0  0  0  0  0  0  0  0  0  0  0
   -0.4012   -1.2687   -3.6322 S   0  0  0  0  0  0  0  0  0  0  0  0
    1.1421   -0.4410   -4.0955 C   0  0  0  0  0  0  0  0  0  0  0  0
    1.8595   -0.5162   -3.2778 H   0  0  0  0  0  0  0  0  0  0  0  0
    1.5572   -0.9204   -4.9825 H   0  0  0  0  0  0  0  0  0  0  0  0
    0.9452    0.6089   -4.3143 H   0  0  0  0  0  0  0  0  0  0  0  0
   -0.8064    1.1568    0.7414 C   0  0  0  0  0  0  0  0  0  0  0  0
   -1.6978    1.8100    0.2029 O   0  0  0  0  0  0  0  0  0  0  0  0
    0.0314    1.6872    1.6415 N   0  0  0  0  0  0  0  0  0  0  0  0
    0.7279    1.0858    2.0517 H   0  0  0  0  0  0  0  0  0  0  0  0
   -0.0137    3.0826    2.0755 C   0  0  0  0  0  0  0  0  0  0  0  0
   -0.9991    3.3070    2.4905 H   0  0  0  0  0  0  0  0  0  0  0  0
    0.7468    3.2694    2.8349 H   0  0  0  0  0  0  0  0  0  0  0  0
    0.1592    3.7397    1.2213 H   0  0  0  0  0  0  0  0  0  0  0  0
  5  6  2  0  0  0  0
  5  7  1  0  0  0  0
  2  3  1  0  0  0  0
  2  4  1  0  0  0  0
  2  5  1  0  0  0  0
  1  2  1  0  0  0  0
 22 23  2  0  0  0  0
 22 24  1  0  0  0  0
 18 19  1  0  0  0  0
 18 20  1  0  0  0  0
 18 21  1  0  0  0  0
 17 18  1  0  0  0  0
 14 15  1  0  0  0  0
 14 16  1  0  0  0  0
 14 17  1  0  0  0  0
 11 12  1  0  0  0  0
 11 13  1  0  0  0  0
 11 14  1  0  0  0  0
  9 10  1  0  0  0  0
  9 11  1  0  0  0  0
  9 22  1  0  0  0  0
  7  8  1  0  0  0  0
  7  9  1  0  0  0  0
 26 27  1  0  0  0  0
 26 28  1  0  0  0  0
 26 29  1  0  0  0  0
 24 25  1  0  0  0  0
 24 26  1  0  0  0  0
M  END
$$$$
default_name
  -OEChem-02102213163D

 29 28  0     1  0  0  0  0  0999 V2000
   -3.5781   -3.7296    1.2702 H   0  0  0  0  0  0  0  0  0  0  0  0
   -3.5311   -2.7616    0.7732 C   0  0  0  0  0  0  0  0  0  0  0  0
   -4.2371   -2.0766    1.2382 H   0  0  0  0  0  0  0  0  0  0  0  0
   -3.7681   -2.8816   -0.2818 H   0  0  0  0  0  0  0  0  0  0  0  0
   -2.1321   -2.2086    0.9112 C   0  0  0  0  0  0  0  0  0  0  0  0
   -1.2751   -2.8426    1.5112 O   0  0  0  0  0  0  0  0  0  0  0  0
   -1.9041   -1.0186    0.3602 N   0  0  0  0  0  0  0  0  0  0  0  0
   -2.6671   -0.5416   -0.0988 H   0  0  0  0  0  0  0  0  0  0  0  0
   -0.6131   -0.3236    0.3832 C   0  0  1  0  0  0  0  0  0  0  0  0
    0.0142   -0.7800    1.1506 H   0  0  0  0  0  0  0  0  0  0  0  0
    0.0816   -0.5059   -0.9788 C   0  0  0  0  0  0  0  0  0  0  0  0
    0.9038    0.2092   -1.0521 H   0  0  0  0  0  0  0  0  0  0  0  0
    0.4987   -1.5122   -1.0382 H   0  0  0  0  0  0  0  0  0  0  0  0
   -0.8518   -0.2911   -2.1759 C   0  0  0  0  0  0  0  0  0  0  0  0
   -1.8848   -0.2985   -1.8295 H   0  0  0  0  0  0  0  0  0  0  0  0
   -0.6369    0.6828   -2.6172 H   0  0  0  0  0  0  0  0  0  0  0  0
   -0.6820   -1.5525   -3.4642 S   0  0  0  0  0  0  0  0  0  0  0  0
    0.9688   -1.1400   -4.0858 C   0  0  0  0  0  0  0  0  0  0  0  0
    1.6987   -1.2340   -3.2813 H   0  0  0  0  0  0  0  0  0  0  0  0
    1.2330   -1.8250   -4.8920 H   0  0  0  0  0  0  0  0  0  0  0  0
    0.9737   -0.1185   -4.4671 H   0  0  0  0  0  0  0  0  0  0  0  0
   -0.8064    1.1568    0.7414 C   0  0  0  0  0  0  0  0  0  0  0  0
   -1.6978    1.8100    0.2029 O   0  0  0  0  0  0  0  0  0  0  0  0
    0.0314    1.6872    1.6415 N   0  0  0  0  0  0  0  0  0  0  0  0
    0.7279    1.0858    2.0517 H   0  0  0  0  0  0  0  0  0  0  0  0
   -0.0137    3.0826    2.0755 C   0  0  0  0  0  0  0  0  0  0  0  0
   -0.9991    3.3070    2.4905 H   0  0  0  0  0  0  0  0  0  0  0  0
    0.7468    3.2694    2.8349 H   0  0  0  0  0  0  0  0  0  0  0  0
    0.1592    3.7397    1.2213 H   0  0  0  0  0  0  0  0  0  0  0  0
  5  6  2  0  0  0  0
  5  7  1  0  0  0  0
  2  3  1  0  0  0  0
  2  4  1  0  0  0  0
  2  5  1  0  0  0  0
  1  2  1  0  0  0  0
 22 23  2  0  0  0  0
 22 24  1  0  0  0  0
 18 19  1  0  0  0  0
 18 20  1  0  0  0  0
 18 21  1  0  0  0  0
 17 18  1  0  0  0  0
 14 15  1  0  0  0  0
 14 16  1  0  0  0  0
 14 17  1  0  0  0  0
 11 12  1  0  0  0  0
 11 13  1  0  0  0  0
 11 14  1  0  0  0  0
  9 10  1  0  0  0  0
  9 11  1  0  0  0  0
  9 22  1  0  0  0  0
  7  8  1  0  0  0  0
  7  9  1  0  0  0  0
 26 27  1  0  0  0  0
 26 28  1  0  0  0  0
 26 29  1  0  0  0  0
 24 25  1  0  0  0  0
 24 26  1  0  0  0  0
M  END
$$$$
default_name
  -OEChem-02102213163D

 29 28  0     1  0  0  0  0  0999 V2000
   -3.5781   -3.7296    1.2702 H   0  0  0  0  0  0  0  0  0  0  0  0
   -3.5311   -2.7616    0.7732 C   0  0  0  0  0  0  0  0  0  0  0  0
   -4.2371   -2.0766    1.2382 H   0  0  0  0  0  0  0  0  0  0  0  0
   -3.7681   -2.8816   -0.2818 H   0  0  0  0  0  0  0  0  0  0  0  0
   -2.1321   -2.2086    0.9112 C   0  0  0  0  0  0  0  0  0  0  0  0
   -1.2751   -2.8426    1.5112 O   0  0  0  0  0  0  0  0  0  0  0  0
   -1.9041   -1.0186    0.3602 N   0  0  0  0  0  0  0  0  0  0  0  0
   -2.6671   -0.5416   -0.0988 H   0  0  0  0  0  0  0  0  0  0  0  0
   -0.6131   -0.3236    0.3832 C   0  0  1  0  0  0  0  0  0  0  0  0
    0.0142   -0.7800    1.1506 H   0  0  0  0  0  0  0  0  0  0  0  0
    0.0816   -0.5059   -0.9788 C   0  0  0  0  0  0  0  0  0  0  0  0
    0.9038    0.2092   -1.0521 H   0  0  0  0  0  0  0  0  0  0  0  0
    0.4987   -1.5122   -1.0382 H   0  0  0  0  0  0  0  0  0  0  0  0
   -0.8518   -0.2911   -2.1759 C   0  0  0  0  0  0  0  0  0  0  0  0
   -1.8459   -0.0332   -1.8122 H   0  0  0  0  0  0  0  0  0  0  0  0
   -0.4707    0.5384   -2.7728 H   0  0  0  0  0  0  0  0  0  0  0  0
   -1.0045   -1.7433   -3.2470 S   0  0  0  0  0  0  0  0  0  0  0  0
    0.6605   -1.7787   -3.9600 C   0  0  0  0  0  0  0  0  0  0  0  0
    1.3982   -1.8954   -3.1656 H   0  0  0  0  0  0  0  0  0  0  0  0
    0.7402   -2.6190   -4.6503 H   0  0  0  0  0  0  0  0  0  0  0  0
    0.8487   -0.8510   -4.5010 H   0  0  0  0  0  0  0  0  0  0  0  0
   -0.8064    1.1568    0.7414 C   0  0  0  0  0  0  0  0  0  0  0  0
   -1.6978    1.8100    0.2029 O   0  0  0  0  0  0  0  0  0  0  0  0
    0.0314    1.6872    1.6415 N   0  0  0  0  0  0  0  0  0  0  0  0
    0.7279    1.0858    2.0517 H   0  0  0  0  0  0  0  0  0  0  0  0
   -0.0137    3.0826    2.0755 C   0  0  0  0  0  0  0  0  0  0  0  0
   -0.9991    3.3070    2.4905 H   0  0  0  0  0  0  0  0  0  0  0  0
    0.7468    3.2694    2.8349 H   0  0  0  0  0  0  0  0  0  0  0  0
    0.1592    3.7397    1.2213 H   0  0  0  0  0  0  0  0  0  0  0  0
  5  6  2  0  0  0  0
  5  7  1  0  0  0  0
  2  3  1  0  0  0  0
  2  4  1  0  0  0  0
  2  5  1  0  0  0  0
  1  2  1  0  0  0  0
 22 23  2  0  0  0  0
 22 24  1  0  0  0  0
 18 19  1  0  0  0  0
 18 20  1  0  0  0  0
 18 21  1  0  0  0  0
 17 18  1  0  0  0  0
 14 15  1  0  0  0  0
 14 16  1  0  0  0  0
 14 17  1  0  0  0  0
 11 12  1  0  0  0  0
 11 13  1  0  0  0  0
 11 14  1  0  0  0  0
  9 10  1  0  0  0  0
  9 11  1  0  0  0  0
  9 22  1  0  0  0  0
  7  8  1  0  0  0  0
  7  9  1  0  0  0  0
 26 27  1  0  0  0  0
 26 28  1  0  0  0  0
 26 29  1  0  0  0  0
 24 25  1  0  0  0  0
 24 26  1  0  0  0  0
M  END
$$$$
default_name
  -OEChem-02102213163D

 29 28  0     1  0  0  0  0  0999 V2000
   -3.5781   -3.7296    1.2702 H   0  0  0  0  0  0  0  0  0  0  0  0
   -3.5311   -2.7616    0.7732 C   0  0  0  0  0  0  0  0  0  0  0  0
   -4.2371   -2.0766    1.2382 H   0  0  0  0  0  0  0  0  0  0  0  0
   -3.7681   -2.8816   -0.2818 H   0  0  0  0  0  0  0  0  0  0  0  0
   -2.1321   -2.2086    0.9112 C   0  0  0  0  0  0  0  0  0  0  0  0
   -1.2751   -2.8426    1.5112 O   0  0  0  0  0  0  0  0  0  0  0  0
   -1.9041   -1.0186    0.3602 N   0  0  0  0  0  0  0  0  0  0  0  0
   -2.6671   -0.5416   -0.0988 H   0  0  0  0  0  0  0  0  0  0  0  0
   -0.6131   -0.3236    0.3832 C   0  0  1  0  0  0  0  0  0  0  0  0
    0.0142   -0.7800    1.1506 H   0  0  0  0  0  0  0  0  0  0  0  0
    0.0816   -0.5059   -0.9788 C   0  0  0  0  0  0  0  0  0  0  0  0
    0.9038    0.2092   -1.0521 H   0  0  0  0  0  0  0  0  0  0  0  0
    0.4987   -1.5122   -1.0382 H   0  0  0  0  0  0  0  0  0  0  0  0
   -0.8518   -0.2911   -2.1759 C   0  0  0  0  0  0  0  0  0  0  0  0
   -1.7542    0.2180   -1.8386 H   0  0  0  0  0  0  0  0  0  0  0  0
   -0.3450    0.3407   -2.9063 H   0  0  0  0  0  0  0  0  0  0  0  0
   -1.3467   -1.8283   -2.9954 S   0  0  0  0  0  0  0  0  0  0  0  0
    0.2381   -2.3135   -3.7267 C   0  0  0  0  0  0  0  0  0  0  0  0
    0.9785   -2.4554   -2.9388 H   0  0  0  0  0  0  0  0  0  0  0  0
    0.1126   -3.2483   -4.2738 H   0  0  0  0  0  0  0  0  0  0  0  0
    0.5787   -1.5386   -4.4139 H   0  0  0  0  0  0  0  0  0  0  0  0
   -0.8064    1.1568    0.7414 C   0  0  0  0  0  0  0  0  0  0  0  0
   -1.6978    1.8100    0.2029 O   0  0  0  0  0  0  0  0  0  0  0  0
    0.0314    1.6872    1.6415 N   0  0  0  0  0  0  0  0  0  0  0  0
    0.7279    1.0858    2.0517 H   0  0  0  0  0  0  0  0  0  0  0  0
   -0.0137    3.0826    2.0755 C   0  0  0  0  0  0  0  0  0  0  0  0
   -0.9991    3.3070    2.4905 H   0  0  0  0  0  0  0  0  0  0  0  0
    0.7468    3.2694    2.8349 H   0  0  0  0  0  0  0  0  0  0  0  0
    0.1592    3.7397    1.2213 H   0  0  0  0  0  0  0  0  0  0  0  0
  5  6  2  0  0  0  0
  5  7  1  0  0  0  0
  2  3  1  0  0  0  0
  2  4  1  0  0  0  0
  2  5  1  0  0  0  0
  1  2  1  0  0  0  0
 22 23  2  0  0  0  0
 22 24  1  0  0  0  0
 18 19  1  0  0  0  0
 18 20  1  0  0  0  0
 18 21  1  0  0  0  0
 17 18  1  0  0  0  0
 14 15  1  0  0  0  0
 14 16  1  0  0  0  0
 14 17  1  0  0  0  0
 11 12  1  0  0  0  0
 11 13  1  0  0  0  0
 11 14  1  0  0  0  0
  9 10  1  0  0  0  0
  9 11  1  0  0  0  0
  9 22  1  0  0  0  0
  7  8  1  0  0  0  0
  7  9  1  0  0  0  0
 26 27  1  0  0  0  0
 26 28  1  0  0  0  0
 26 29  1  0  0  0  0
 24 25  1  0  0  0  0
 24 26  1  0  0  0  0
M  END
$$$$
default_name
  -OEChem-02102213163D

 29 28  0     1  0  0  0  0  0999 V2000
   -3.5781   -3.7296    1.2702 H   0  0  0  0  0  0  0  0  0  0  0  0
   -3.5311   -2.7616    0.7732 C   0  0  0  0  0  0  0  0  0  0  0  0
   -4.2371   -2.0766    1.2382 H   0  0  0  0  0  0  0  0  0  0  0  0
   -3.7681   -2.8816   -0.2818 H   0  0  0  0  0  0  0  0  0  0  0  0
   -2.1321   -2.2086    0.9112 C   0  0  0  0  0  0  0  0  0  0  0  0
   -1.2751   -2.8426    1.5112 O   0  0  0  0  0  0  0  0  0  0  0  0
   -1.9041   -1.0186    0.3602 N   0  0  0  0  0  0  0  0  0  0  0  0
   -2.6671   -0.5416   -0.0988 H   0  0  0  0  0  0  0  0  0  0  0  0
   -0.6131   -0.3236    0.3832 C   0  0  1  0  0  0  0  0  0  0  0  0
    0.0142   -0.7800    1.1506 H   0  0  0  0  0  0  0  0  0  0  0  0
    0.0816   -0.5059   -0.9788 C   0  0  0  0  0  0  0  0  0  0  0  0
    0.9038    0.2092   -1.0521 H   0  0  0  0  0  0  0  0  0  0  0  0
    0.4987   -1.5122   -1.0382 H   0  0  0  0  0  0  0  0  0  0  0  0
   -0.8518   -0.2911   -2.1759 C   0  0  0  0  0  0  0  0  0  0  0  0
   -1.6157    0.4378   -1.9071 H   0  0  0  0  0  0  0  0  0  0  0  0
   -0.2683    0.1033   -3.0086 H   0  0  0  0  0  0  0  0  0  0  0  0
   -1.6853   -1.8016   -2.7266 S   0  0  0  0  0  0  0  0  0  0  0  0
   -0.2695   -2.7080   -3.4017 C   0  0  0  0  0  0  0  0  0  0  0  0
    0.4681   -2.8756   -2.6163 H   0  0  0  0  0  0  0  0  0  0  0  0
   -0.6072   -3.6700   -3.7882 H   0  0  0  0  0  0  0  0  0  0  0  0
    0.1821   -2.1345   -4.2116 H   0  0  0  0  0  0  0  0  0  0  0  0
   -0.8064    1.1568    0.7414 C   0  0  0  0  0  0  0  0  0  0  0  0
   -1.6978    1.8100    0.2029 O   0  0  0  0  0  0  0  0  0  0  0  0
    0.0314    1.6872    1.6415 N   0  0  0  0  0  0  0  0  0  0  0  0
    0.7279    1.0858    2.0517 H   0  0  0  0  0  0  0  0  0  0  0  0
   -0.0137    3.0826    2.0755 C   0  0  0  0  0  0  0  0  0  0  0  0
   -0.9991    3.3070    2.4905 H   0  0  0  0  0  0  0  0  0  0  0  0
    0.7468    3.2694    2.8349 H   0  0  0  0  0  0  0  0  0  0  0  0
    0.1592    3.7397    1.2213 H   0  0  0  0  0  0  0  0  0  0  0  0
  5  6  2  0  0  0  0
  5  7  1  0  0  0  0
  2  3  1  0  0  0  0
  2  4  1  0  0  0  0
  2  5  1  0  0  0  0
  1  2  1  0  0  0  0
 22 23  2  0  0  0  0
 22 24  1  0  0  0  0
 18 19  1  0  0  0  0
 18 20  1  0  0  0  0
 18 21  1  0  0  0  0
 17 18  1  0  0  0  0
 14 15  1  0  0  0  0
 14 16  1  0  0  0  0
 14 17  1  0  0  0  0
 11 12  1  0  0  0  0
 11 13  1  0  0  0  0
 11 14  1  0  0  0  0
  9 10  1  0  0  0  0
  9 11  1  0  0  0  0
  9 22  1  0  0  0  0
  7  8  1  0  0  0  0
  7  9  1  0  0  0  0
 26 27  1  0  0  0  0
 26 28  1  0  0  0  0
 26 29  1  0  0  0  0
 24 25  1  0  0  0  0
 24 26  1  0  0  0  0
M  END
$$$$
default_name
  -OEChem-02102213163D

 29 28  0     1  0  0  0  0  0999 V2000
   -3.5781   -3.7296    1.2702 H   0  0  0  0  0  0  0  0  0  0  0  0
   -3.5311   -2.7616    0.7732 C   0  0  0  0  0  0  0  0  0  0  0  0
   -4.2371   -2.0766    1.2382 H   0  0  0  0  0  0  0  0  0  0  0  0
   -3.7681   -2.8816   -0.2818 H   0  0  0  0  0  0  0  0  0  0  0  0
   -2.1321   -2.2086    0.9112 C   0  0  0  0  0  0  0  0  0  0  0  0
   -1.2751   -2.8426    1.5112 O   0  0  0  0  0  0  0  0  0  0  0  0
   -1.9041   -1.0186    0.3602 N   0  0  0  0  0  0  0  0  0  0  0  0
   -2.6671   -0.5416   -0.0988 H   0  0  0  0  0  0  0  0  0  0  0  0
   -0.6131   -0.3236    0.3832 C   0  0  1  0  0  0  0  0  0  0  0  0
    0.0142   -0.7800    1.1506 H   0  0  0  0  0  0  0  0  0  0  0  0
    0.0816   -0.5059   -0.9788 C   0  0  0  0  0  0  0  0  0  0  0  0
    0.9038    0.2092   -1.0521 H   0  0  0  0  0  0  0  0  0  0  0  0
    0.4987   -1.5122   -1.0382 H   0  0  0  0  0  0  0  0  0  0  0  0
   -0.8518   -0.2911   -2.1759 C   0  0  0  0  0  0  0  0  0  0  0  0
   -1.4401    0.6114   -2.0130 H   0  0  0  0  0  0  0  0  0  0  0  0
   -0.2460   -0.1576   -3.0729 H   0  0  0  0  0  0  0  0  0  0  0  0
   -1.9972   -1.6650   -2.4589 S   0  0  0  0  0  0  0  0  0  0  0  0
   -0.8277   -2.9352   -3.0072 C   0  0  0  0  0  0  0  0  0  0  0  0
   -0.0981   -3.1276   -2.2200 H   0  0  0  0  0  0  0  0  0  0  0  0
   -1.3701   -3.8553   -3.2267 H   0  0  0  0  0  0  0  0  0  0  0  0
   -0.3140   -2.5981   -3.9079 H   0  0  0  0  0  0  0  0  0  0  0  0
   -0.8064    1.1568    0.7414 C   0  0  0  0  0  0  0  0  0  0  0  0
   -1.6978    1.8100    0.2029 O   0  0  0  0  0  0  0  0  0  0  0  0
    0.0314    1.6872    1.6415 N   0  0  0  0  0  0  0  0  0  0  0  0
    0.7279    1.0858    2.0517 H   0  0  0  0  0  0  0  0  0  0  0  0
   -0.0137    3.0826    2.0755 C   0  0  0  0  0  0  0  0  0  0  0  0
   -0.9991    3.3070    2.4905 H   0  0  0  0  0  0  0  0  0  0  0  0
    0.7468    3.2694    2.8349 H   0  0  0  0  0  0  0  0  0  0  0  0
    0.1592    3.7397    1.2213 H   0  0  0  0  0  0  0  0  0  0  0  0
  5  6  2  0  0  0  0
  5  7  1  0  0  0  0
  2  3  1  0  0  0  0
  2  4  1  0  0  0  0
  2  5  1  0  0  0  0
  1  2  1  0  0  0  0
 22 23  2  0  0  0  0
 22 24  1  0  0  0  0
 18 19  1  0  0  0  0
 18 20  1  0  0  0  0
 18 21  1  0  0  0  0
 17 18  1  0  0  0  0
 14 15  1  0  0  0  0
 14 16  1  0  0  0  0
 14 17  1  0  0  0  0
 11 12  1  0  0  0  0
 11 13  1  0  0  0  0
 11 14  1  0  0  0  0
  9 10  1  0  0  0  0
  9 11  1  0  0  0  0
  9 22  1  0  0  0  0
  7  8  1  0  0  0  0
  7  9  1  0  0  0  0
 26 27  1  0  0  0  0
 26 28  1  0  0  0  0
 26 29  1  0  0  0  0
 24 25  1  0  0  0  0
 24 26  1  0  0  0  0
M  END
$$$$
default_name
  -OEChem-02102213163D

 29 28  0     1  0  0  0  0  0999 V2000
   -3.5781   -3.7296    1.2702 H   0  0  0  0  0  0  0  0  0  0  0  0
   -3.5311   -2.7616    0.7732 C   0  0  0  0  0  0  0  0  0  0  0  0
   -4.2371   -2.0766    1.2382 H   0  0  0  0  0  0  0  0  0  0  0  0
   -3.7681   -2.8816   -0.2818 H   0  0  0  0  0  0  0  0  0  0  0  0
   -2.1321   -2.2086    0.9112 C   0  0  0  0  0  0  0  0  0  0  0  0
   -1.2751   -2.8426    1.5112 O   0  0  0  0  0  0  0  0  0  0  0  0
   -1.9041   -1.0186    0.3602 N   0  0  0  0  0  0  0  0  0  0  0  0
   -2.6671   -0.5416   -0.0988 H   0  0  0  0  0  0  0  0  0  0  0  0
   -0.6131   -0.3236    0.3832 C   0  0  1  0  0  0  0  0  0  0  0  0
    0.0142   -0.7800    1.1506 H   0  0  0  0  0  0  0  0  0  0  0  0
    0.0816   -0.5059   -0.9788 C   0  0  0  0  0  0  0  0  0  0  0  0
    0.9038    0.2092   -1.0521 H   0  0  0  0  0  0  0  0  0  0  0  0
    0.4987   -1.5122   -1.0382 H   0  0  0  0  0  0  0  0  0  0  0  0
   -0.8518   -0.2911   -2.1759 C   0  0  0  0  0  0  0  0  0  0  0  0
   -1.2391    0.7270   -2.1489 H   0  0  0  0  0  0  0  0  0  0  0  0
   -0.2794   -0.4242   -3.0946 H   0  0  0  0  0  0  0  0  0  0  0  0
   -2.2611   -1.4278   -2.2105 S   0  0  0  0  0  0  0  0  0  0  0  0
   -1.3985   -2.9797   -2.5701 C   0  0  0  0  0  0  0  0  0  0  0  0
   -0.6816   -3.1942   -1.7770 H   0  0  0  0  0  0  0  0  0  0  0  0
   -2.1240   -3.7916   -2.6274 H   0  0  0  0  0  0  0  0  0  0  0  0
   -0.8759   -2.8977   -3.5235 H   0  0  0  0  0  0  0  0  0  0  0  0
   -0.8064    1.1568    0.7414 C   0  0  0  0  0  0  0  0  0  0  0  0
   -1.6978    1.8100    0.2029 O   0  0  0  0  0  0  0  0  0  0  0  0
    0.0314    1.6872    1.6415 N   0  0  0  0  0  0  0  0  0  0  0  0
    0.7279    1.0858    2.0517 H   0  0  0  0  0  0  0  0  0  0  0  0
   -0.0137    3.0826    2.0755 C   0  0  0  0  0  0  0  0  0  0  0  0
   -0.9991    3.3070    2.4905 H   0  0  0  0  0  0  0  0  0  0  0  0
    0.7468    3.2694    2.8349 H   0  0  0  0  0  0  0  0  0  0  0  0
    0.1592    3.7397    1.2213 H   0  0  0  0  0  0  0  0  0  0  0  0
  5  6  2  0  0  0  0
  5  7  1  0  0  0  0
  2  3  1  0  0  0  0
  2  4  1  0  0  0  0
  2  5  1  0  0  0  0
  1  2  1  0  0  0  0
 22 23  2  0  0  0  0
 22 24  1  0  0  0  0
 18 19  1  0  0  0  0
 18 20  1  0  0  0  0
 18 21  1  0  0  0  0
 17 18  1  0  0  0  0
 14 15  1  0  0  0  0
 14 16  1  0  0  0  0
 14 17  1  0  0  0  0
 11 12  1  0  0  0  0
 11 13  1  0  0  0  0
 11 14  1  0  0  0  0
  9 10  1  0  0  0  0
  9 11  1  0  0  0  0
  9 22  1  0  0  0  0
  7  8  1  0  0  0  0
  7  9  1  0  0  0  0
 26 27  1  0  0  0  0
 26 28  1  0  0  0  0
 26 29  1  0  0  0  0
 24 25  1  0  0  0  0
 24 26  1  0  0  0  0
M  END
$$$$
default_name
  -OEChem-02102213163D

 29 28  0     1  0  0  0  0  0999 V2000
   -3.5781   -3.7296    1.2702 H   0  0  0  0  0  0  0  0  0  0  0  0
   -3.5311   -2.7616    0.7732 C   0  0  0  0  0  0  0  0  0  0  0  0
   -4.2371   -2.0766    1.2382 H   0  0  0  0  0  0  0  0  0  0  0  0
   -3.7681   -2.8816   -0.2818 H   0  0  0  0  0  0  0  0  0  0  0  0
   -2.1321   -2.2086    0.9112 C   0  0  0  0  0  0  0  0  0  0  0  0
   -1.2751   -2.8426    1.5112 O   0  0  0  0  0  0  0  0  0  0  0  0
   -1.9041   -1.0186    0.3602 N   0  0  0  0  0  0  0  0  0  0  0  0
   -2.6671   -0.5416   -0.0988 H   0  0  0  0  0  0  0  0  0  0  0  0
   -0.6131   -0.3236    0.3832 C   0  0  1  0  0  0  0  0  0  0  0  0
    0.0142   -0.7800    1.1506 H   0  0  0  0  0  0  0  0  0  0  0  0
    0.0816   -0.5059   -0.9788 C   0  0  0  0  0  0  0  0  0  0  0  0
    0.9038    0.2092   -1.0521 H   0  0  0  0  0  0  0  0  0  0  0  0
    0.4987   -1.5122   -1.0382 H   0  0  0  0  0  0  0  0  0  0  0  0
   -0.8518   -0.2911   -2.1759 C   0  0  0  0  0  0  0  0  0  0  0  0
   -1.0266    0.7765   -2.3057 H   0  0  0  0  0  0  0  0  0  0  0  0
   -0.3664   -0.6784   -3.0724 H   0  0  0  0  0  0  0  0  0  0  0  0
   -2.4591   -1.1063   -1.9984 S   0  0  0  0  0  0  0  0  0  0  0  0
   -1.9430   -2.8385   -2.1202 C   0  0  0  0  0  0  0  0  0  0  0  0
   -1.2426   -3.0707   -1.3174 H   0  0  0  0  0  0  0  0  0  0  0  0
   -2.8177   -3.4833   -2.0312 H   0  0  0  0  0  0  0  0  0  0  0  0
   -1.4653   -3.0130   -3.0847 H   0  0  0  0  0  0  0  0  0  0  0  0
   -0.8064    1.1568    0.7414 C   0  0  0  0  0  0  0  0  0  0  0  0
   -1.6978    1.8100    0.2029 O   0  0  0  0  0  0  0  0  0  0  0  0
    0.0314    1.6872    1.6415 N   0  0  0  0  0  0  0  0  0  0  0  0
    0.7279    1.0858    2.0517 H   0  0  0  0  0  0  0  0  0  0  0  0
   -0.0137    3.0826    2.0755 C   0  0  0  0  0  0  0  0  0  0  0  0
   -0.9991    3.3070    2.4905 H   0  0  0  0  0  0  0  0  0  0  0  0
    0.7468    3.2694    2.8349 H   0  0  0  0  0  0  0  0  0  0  0  0
    0.1592    3.7397    1.2213 H   0  0  0  0  0  0  0  0  0  0  0  0
  5  6  2  0  0  0  0
  5  7  1  0  0  0  0
  2  3  1  0  0  0  0
  2  4  1  0  0  0  0
  2  5  1  0  0  0  0
  1  2  1  0  0  0  0
 22 23  2  0  0  0  0
 22 24  1  0  0  0  0
 18 19  1  0  0  0  0
 18 20  1  0  0  0  0
 18 21  1  0  0  0  0
 17 18  1  0  0  0  0
 14 15  1  0  0  0  0
 14 16  1  0  0  0  0
 14 17  1  0  0  0  0
 11 12  1  0  0  0  0
 11 13  1  0  0  0  0
 11 14  1  0  0  0  0
  9 10  1  0  0  0  0
  9 11  1  0  0  0  0
  9 22  1  0  0  0  0
  7  8  1  0  0  0  0
  7  9  1  0  0  0  0
 26 27  1  0  0  0  0
 26 28  1  0  0  0  0
 26 29  1  0  0  0  0
 24 25  1  0  0  0  0
 24 26  1  0  0  0  0
M  END
$$$$
default_name
  -OEChem-02102213163D

 29 28  0     1  0  0  0  0  0999 V2000
   -3.5781   -3.7296    1.2702 H   0  0  0  0  0  0  0  0  0  0  0  0
   -3.5311   -2.7616    0.7732 C   0  0  0  0  0  0  0  0  0  0  0  0
   -4.2371   -2.0766    1.2382 H   0  0  0  0  0  0  0  0  0  0  0  0
   -3.7681   -2.8816   -0.2818 H   0  0  0  0  0  0  0  0  0  0  0  0
   -2.1321   -2.2086    0.9112 C   0  0  0  0  0  0  0  0  0  0  0  0
   -1.2751   -2.8426    1.5112 O   0  0  0  0  0  0  0  0  0  0  0  0
   -1.9041   -1.0186    0.3602 N   0  0  0  0  0  0  0  0  0  0  0  0
   -2.6671   -0.5416   -0.0988 H   0  0  0  0  0  0  0  0  0  0  0  0
   -0.6131   -0.3236    0.3832 C   0  0  1  0  0  0  0  0  0  0  0  0
    0.0142   -0.7800    1.1506 H   0  0  0  0  0  0  0  0  0  0  0  0
    0.0816   -0.5059   -0.9788 C   0  0  0  0  0  0  0  0  0  0  0  0
    0.9038    0.2092   -1.0521 H   0  0  0  0  0  0  0  0  0  0  0  0
    0.4987   -1.5122   -1.0382 H   0  0  0  0  0  0  0  0  0  0  0  0
   -0.8518   -0.2911   -2.1759 C   0  0  0  0  0  0  0  0  0  0  0  0
   -0.8171    0.7567   -2.4727 H   0  0  0  0  0  0  0  0  0  0  0  0
   -0.5010   -0.9029   -3.0077 H   0  0  0  0  0  0  0  0  0  0  0  0
   -2.5777   -0.7222   -1.8371 S   0  0  0  0  0  0  0  0  0  0  0  0
   -2.4241   -2.5211   -1.6881 C   0  0  0  0  0  0  0  0  0  0  0  0
   -1.7428   -2.7657   -0.8726 H   0  0  0  0  0  0  0  0  0  0  0  0
   -3.4038   -2.9514   -1.4787 H   0  0  0  0  0  0  0  0  0  0  0  0
   -2.0420   -2.9362   -2.6212 H   0  0  0  0  0  0  0  0  0  0  0  0
   -0.8064    1.1568    0.7414 C   0  0  0  0  0  0  0  0  0  0  0  0
   -1.6978    1.8100    0.2029 O   0  0  0  0  0  0  0  0  0  0  0  0
    0.0314    1.6872    1.6415 N   0  0  0  0  0  0  0  0  0  0  0  0
    0.7279    1.0858    2.0517 H   0  0  0  0  0  0  0  0  0  0  0  0
   -0.0137    3.0826    2.0755 C   0  0  0  0  0  0  0  0  0  0  0  0
   -0.9991    3.3070    2.4905 H   0  0  0  0  0  0  0  0  0  0  0  0
    0.7468    3.2694    2.8349 H   0  0  0  0  0  0  0  0  0  0  0  0
    0.1592    3.7397    1.2213 H   0  0  0  0  0  0  0  0  0  0  0  0
  5  6  2  0  0  0  0
  5  7  1  0  0  0  0
  2  3  1  0  0  0  0
  2  4  1  0  0  0  0
  2  5  1  0  0  0  0
  1  2  1  0  0  0  0
 22 23  2  0  0  0  0
 22 24  1  0  0  0  0
 18 19  1  0  0  0  0
 18 20  1  0  0  0  0
 18 21  1  0  0  0  0
 17 18  1  0  0  0  0
 14 15  1  0  0  0  0
 14 16  1  0  0  0  0
 14 17  1  0  0  0  0
 11 12  1  0  0  0  0
 11 13  1  0  0  0  0
 11 14  1  0  0  0  0
  9 10  1  0  0  0  0
  9 11  1  0  0  0  0
  9 22  1  0  0  0  0
  7  8  1  0  0  0  0
  7  9  1  0  0  0  0
 26 27  1  0  0  0  0
 26 28  1  0  0  0  0
 26 29  1  0  0  0  0
 24 25  1  0  0  0  0
 24 26  1  0  0  0  0
M  END
$$$$
default_name
  -OEChem-02102213163D

 29 28  0     1  0  0  0  0  0999 V2000
   -3.5781   -3.7296    1.2702 H   0  0  0  0  0  0  0  0  0  0  0  0
   -3.5311   -2.7616    0.7732 C   0  0  0  0  0  0  0  0  0  0  0  0
   -4.2371   -2.0766    1.2382 H   0  0  0  0  0  0  0  0  0  0  0  0
   -3.7681   -2.8816   -0.2818 H   0  0  0  0  0  0  0  0  0  0  0  0
   -2.1321   -2.2086    0.9112 C   0  0  0  0  0  0  0  0  0  0  0  0
   -1.2751   -2.8426    1.5112 O   0  0  0  0  0  0  0  0  0  0  0  0
   -1.9041   -1.0186    0.3602 N   0  0  0  0  0  0  0  0  0  0  0  0
   -2.6671   -0.5416   -0.0988 H   0  0  0  0  0  0  0  0  0  0  0  0
   -0.6131   -0.3236    0.3832 C   0  0  1  0  0  0  0  0  0  0  0  0
    0.0142   -0.7800    1.1506 H   0  0  0  0  0  0  0  0  0  0  0  0
    0.0816   -0.5059   -0.9788 C   0  0  0  0  0  0  0  0  0  0  0  0
    0.9038    0.2092   -1.0521 H   0  0  0  0  0  0  0  0  0  0  0  0
    0.4987   -1.5122   -1.0382 H   0  0  0  0  0  0  0  0  0  0  0  0
   -0.8518   -0.2911   -2.1759 C   0  0  0  0  0  0  0  0  0  0  0  0
   -0.6247    0.6690   -2.6384 H   0  0  0  0  0  0  0  0  0  0  0  0
   -0.6741   -1.0824   -2.9050 H   0  0  0  0  0  0  0  0  0  0  0  0
   -2.6088   -0.3019   -1.7374 S   0  0  0  0  0  0  0  0  0  0  0  0
   -2.8090   -2.0492   -1.3033 C   0  0  0  0  0  0  0  0  0  0  0  0
   -2.1482   -2.2998   -0.4729 H   0  0  0  0  0  0  0  0  0  0  0  0
   -3.8424   -2.2321   -1.0076 H   0  0  0  0  0  0  0  0  0  0  0  0
   -2.5667   -2.6723   -2.1647 H   0  0  0  0  0  0  0  0  0  0  0  0
   -0.8064    1.1568    0.7414 C   0  0  0  0  0  0  0  0  0  0  0  0
   -1.6978    1.8100    0.2029 O   0  0  0  0  0  0  0  0  0  0  0  0
    0.0314    1.6872    1.6415 N   0  0  0  0  0  0  0  0  0  0  0  0
    0.7279    1.0858    2.0517 H   0  0  0  0  0  0  0  0  0  0  0  0
   -0.0137    3.0826    2.0755 C   0  0  0  0  0  0  0  0  0  0  0  0
   -0.9991    3.3070    2.4905 H   0  0  0  0  0  0  0  0  0  0  0  0
    0.7468    3.2694    2.8349 H   0  0  0  0  0  0  0  0  0  0  0  0
    0.1592    3.7397    1.2213 H   0  0  0  0  0  0  0  0  0  0  0  0
  5  6  2  0  0  0  0
  5  7  1  0  0  0  0
  2  3  1  0  0  0  0
  2  4  1  0  0  0  0
  2  5  1  0  0  0  0
  1  2  1  0  0  0  0
 22 23  2  0  0  0  0
 22 24  1  0  0  0  0
 18 19  1  0  0  0  0
 18 20  1  0  0  0  0
 18 21  1  0  0  0  0
 17 18  1  0  0  0  0
 14 15  1  0  0  0  0
 14 16  1  0  0  0  0
 14 17  1  0  0  0  0
 11 12  1  0  0  0  0
 11 13  1  0  0  0  0
 11 14  1  0  0  0  0
  9 10  1  0  0  0  0
  9 11  1  0  0  0  0
  9 22  1  0  0  0  0
  7  8  1  0  0  0  0
  7  9  1  0  0  0  0
 26 27  1  0  0  0  0
 26 28  1  0  0  0  0
 26 29  1  0  0  0  0
 24 25  1  0  0  0  0
 24 26  1  0  0  0  0
M  END
$$$$
default_name
  -OEChem-02102213163D

 29 28  0     1  0  0  0  0  0999 V2000
   -3.5781   -3.7296    1.2702 H   0  0  0  0  0  0  0  0  0  0  0  0
   -3.5311   -2.7616    0.7732 C   0  0  0  0  0  0  0  0  0  0  0  0
   -4.2371   -2.0766    1.2382 H   0  0  0  0  0  0  0  0  0  0  0  0
   -3.7681   -2.8816   -0.2818 H   0  0  0  0  0  0  0  0  0  0  0  0
   -2.1321   -2.2086    0.9112 C   0  0  0  0  0  0  0  0  0  0  0  0
   -1.2751   -2.8426    1.5112 O   0  0  0  0  0  0  0  0  0  0  0  0
   -1.9041   -1.0186    0.3602 N   0  0  0  0  0  0  0  0  0  0  0  0
   -2.6671   -0.5416   -0.0988 H   0  0  0  0  0  0  0  0  0  0  0  0
   -0.6131   -0.3236    0.3832 C   0  0  1  0  0  0  0  0  0  0  0  0
    0.0142   -0.7800    1.1506 H   0  0  0  0  0  0  0  0  0  0  0  0
    0.0816   -0.5059   -0.9788 C   0  0  0  0  0  0  0  0  0  0  0  0
    0.9038    0.2092   -1.0521 H   0  0  0  0  0  0  0  0  0  0  0  0
    0.4987   -1.5122   -1.0382 H   0  0  0  0  0  0  0  0  0  0  0  0
   -0.8518   -0.2911   -2.1759 C   0  0  0  0  0  0  0  0  0  0  0  0
   -0.4626    0.5192   -2.7917 H   0  0  0  0  0  0  0  0  0  0  0  0
   -0.8737   -1.2045   -2.7712 H   0  0  0  0  0  0  0  0  0  0  0  0
   -2.5503    0.1262   -1.7062 S   0  0  0  0  0  0  0  0  0  0  0  0
   -3.0714   -1.4550   -0.9921 C   0  0  0  0  0  0  0  0  0  0  0  0
   -2.4312   -1.7049   -0.1455 H   0  0  0  0  0  0  0  0  0  0  0  0
   -4.1036   -1.3745   -0.6501 H   0  0  0  0  0  0  0  0  0  0  0  0
   -3.0037   -2.2395   -1.7463 H   0  0  0  0  0  0  0  0  0  0  0  0
   -0.8064    1.1568    0.7414 C   0  0  0  0  0  0  0  0  0  0  0  0
   -1.6978    1.8100    0.2029 O   0  0  0  0  0  0  0  0  0  0  0  0
    0.0314    1.6872    1.6415 N   0  0  0  0  0  0  0  0  0  0  0  0
    0.7279    1.0858    2.0517 H   0  0  0  0  0  0  0  0  0  0  0  0
   -0.0137    3.0826    2.0755 C   0  0  0  0  0  0  0  0  0  0  0  0
   -0.9991    3.3070    2.4905 H   0  0  0  0  0  0  0  0  0  0  0  0
    0.7468    3.2694    2.8349 H   0  0  0  0  0  0  0  0  0  0  0  0
    0.1592    3.7397    1.2213 H   0  0  0  0  0  0  0  0  0  0  0  0
  5  6  2  0  0  0  0
  5  7  1  0  0  0  0
  2  3  1  0  0  0  0
  2  4  1  0  0  0  0
  2  5  1  0  0  0  0
  1  2  1  0  0  0  0
 22 23  2  0  0  0  0
 22 24  1  0  0  0  0
 18 19  1  0  0  0  0
 18 20  1  0  0  0  0
 18 21  1  0  0  0  0
 17 18  1  0  0  0  0
 14 15  1  0  0  0  0
 14 16  1  0  0  0  0
 14 17  1  0  0  0  0
 11 12  1  0  0  0  0
 11 13  1  0  0  0  0
 11 14  1  0  0  0  0
  9 10  1  0  0  0  0
  9 11  1  0  0  0  0
  9 22  1  0  0  0  0
  7  8  1  0  0  0  0
  7  9  1  0  0  0  0
 26 27  1  0  0  0  0
 26 28  1  0  0  0  0
 26 29  1  0  0  0  0
 24 25  1  0  0  0  0
 24 26  1  0  0  0  0
M  END
$$$$
default_name
  -OEChem-02102213163D

 29 28  0     1  0  0  0  0  0999 V2000
   -3.5781   -3.7296    1.2702 H   0  0  0  0  0  0  0  0  0  0  0  0
   -3.5311   -2.7616    0.7732 C   0  0  0  0  0  0  0  0  0  0  0  0
   -4.2371   -2.0766    1.2382 H   0  0  0  0  0  0  0  0  0  0  0  0
   -3.7681   -2.8816   -0.2818 H   0  0  0  0  0  0  0  0  0  0  0  0
   -2.1321   -2.2086    0.9112 C   0  0  0  0  0  0  0  0  0  0  0  0
   -1.2751   -2.8426    1.5112 O   0  0  0  0  0  0  0  0  0  0  0  0
   -1.9041   -1.0186    0.3602 N   0  0  0  0  0  0  0  0  0  0  0  0
   -2.6671   -0.5416   -0.0988 H   0  0  0  0  0  0  0  0  0  0  0  0
   -0.6131   -0.3236    0.3832 C   0  0  1  0  0  0  0  0  0  0  0  0
    0.0142   -0.7800    1.1506 H   0  0  0  0  0  0  0  0  0  0  0  0
    0.0816   -0.5059   -0.9788 C   0  0  0  0  0  0  0  0  0  0  0  0
    0.9038    0.2092   -1.0521 H   0  0  0  0  0  0  0  0  0  0  0  0
    0.4987   -1.5122   -1.0382 H   0  0  0  0  0  0  0  0  0  0  0  0
   -0.8518   -0.2911   -2.1759 C   0  0  0  0  0  0  0  0  0  0  0  0
   -0.3419    0.3176   -2.9220 H   0  0  0  0  0  0  0  0  0  0  0  0
   -1.0865   -1.2611   -2.6155 H   0  0  0  0  0  0  0  0  0  0  0  0
   -2.4061    0.5327   -1.7457 S   0  0  0  0  0  0  0  0  0  0  0  0
   -3.1936   -0.7790   -0.7755 C   0  0  0  0  0  0  0  0  0  0  0  0
   -2.5725   -1.0215    0.0872 H   0  0  0  0  0  0  0  0  0  0  0  0
   -4.1696   -0.4369   -0.4303 H   0  0  0  0  0  0  0  0  0  0  0  0
   -3.3231   -1.6672   -1.3946 H   0  0  0  0  0  0  0  0  0  0  0  0
   -0.8064    1.1568    0.7414 C   0  0  0  0  0  0  0  0  0  0  0  0
   -1.6978    1.8100    0.2029 O   0  0  0  0  0  0  0  0  0  0  0  0
    0.0314    1.6872    1.6415 N   0  0  0  0  0  0  0  0  0  0  0  0
    0.7279    1.0858    2.0517 H   0  0  0  0  0  0  0  0  0  0  0  0
   -0.0137    3.0826    2.0755 C   0  0  0  0  0  0  0  0  0  0  0  0
   -0.9991    3.3070    2.4905 H   0  0  0  0  0  0  0  0  0  0  0  0
    0.7468    3.2694    2.8349 H   0  0  0  0  0  0  0  0  0  0  0  0
    0.1592    3.7397    1.2213 H   0  0  0  0  0  0  0  0  0  0  0  0
  5  6  2  0  0  0  0
  5  7  1  0  0  0  0
  2  3  1  0  0  0  0
  2  4  1  0  0  0  0
  2  5  1  0  0  0  0
  1  2  1  0  0  0  0
 22 23  2  0  0  0  0
 22 24  1  0  0  0  0
 18 19  1  0  0  0  0
 18 20  1  0  0  0  0
 18 21  1  0  0  0  0
 17 18  1  0  0  0  0
 14 15  1  0  0  0  0
 14 16  1  0  0  0  0
 14 17  1  0  0  0  0
 11 12  1  0  0  0  0
 11 13  1  0  0  0  0
 11 14  1  0  0  0  0
  9 10  1  0  0  0  0
  9 11  1  0  0  0  0
  9 22  1  0  0  0  0
  7  8  1  0  0  0  0
  7  9  1  0  0  0  0
 26 27  1  0  0  0  0
 26 28  1  0  0  0  0
 26 29  1  0  0  0  0
 24 25  1  0  0  0  0
 24 26  1  0  0  0  0
M  END
$$$$
default_name
  -OEChem-02102213163D

 29 28  0     1  0  0  0  0  0999 V2000
   -3.5781   -3.7296    1.2702 H   0  0  0  0  0  0  0  0  0  0  0  0
   -3.5311   -2.7616    0.7732 C   0  0  0  0  0  0  0  0  0  0  0  0
   -4.2371   -2.0766    1.2382 H   0  0  0  0  0  0  0  0  0  0  0  0
   -3.7681   -2.8816   -0.2818 H   0  0  0  0  0  0  0  0  0  0  0  0
   -2.1321   -2.2086    0.9112 C   0  0  0  0  0  0  0  0  0  0  0  0
   -1.2751   -2.8426    1.5112 O   0  0  0  0  0  0  0  0  0  0  0  0
   -1.9041   -1.0186    0.3602 N   0  0  0  0  0  0  0  0  0  0  0  0
   -2.6671   -0.5416   -0.0988 H   0  0  0  0  0  0  0  0  0  0  0  0
   -0.6131   -0.3236    0.3832 C   0  0  1  0  0  0  0  0  0  0  0  0
    0.0142   -0.7800    1.1506 H   0  0  0  0  0  0  0  0  0  0  0  0
    0.0816   -0.5059   -0.9788 C   0  0  0  0  0  0  0  0  0  0  0  0
    0.9038    0.2092   -1.0521 H   0  0  0  0  0  0  0  0  0  0  0  0
    0.4987   -1.5122   -1.0382 H   0  0  0  0  0  0  0  0  0  0  0  0
   -0.8518   -0.2911   -2.1759 C   0  0  0  0  0  0  0  0  0  0  0  0
   -0.2707    0.0779   -3.0205 H   0  0  0  0  0  0  0  0  0  0  0  0
   -1.2977   -1.2482   -2.4485 H   0  0  0  0  0  0  0  0  0  0  0  0
   -2.1862    0.8900   -1.8531 S   0  0  0  0  0  0  0  0  0  0  0  0
   -3.1671   -0.0672   -0.6684 C   0  0  0  0  0  0  0  0  0  0  0  0
   -2.5623   -0.2962    0.2095 H   0  0  0  0  0  0  0  0  0  0  0  0
   -4.0360    0.5167   -0.3635 H   0  0  0  0  0  0  0  0  0  0  0  0
   -3.5032   -0.9944   -1.1334 H   0  0  0  0  0  0  0  0  0  0  0  0
   -0.8064    1.1568    0.7414 C   0  0  0  0  0  0  0  0  0  0  0  0
   -1.6978    1.8100    0.2029 O   0  0  0  0  0  0  0  0  0  0  0  0
    0.0314    1.6872    1.6415 N   0  0  0  0  0  0  0  0  0  0  0  0
    0.7279    1.0858    2.0517 H   0  0  0  0  0  0  0  0  0  0  0  0
   -0.0137    3.0826    2.0755 C   0  0  0  0  0  0  0  0  0  0  0  0
   -0.9991    3.3070    2.4905 H   0  0  0  0  0  0  0  0  0  0  0  0
    0.7468    3.2694    2.8349 H   0  0  0  0  0  0  0  0  0  0  0  0
    0.1592    3.7397    1.2213 H   0  0  0  0  0  0  0  0  0  0  0  0
  5  6  2  0  0  0  0
  5  7  1  0  0  0  0
  2  3  1  0  0  0  0
  2  4  1  0  0  0  0
  2  5  1  0  0  0  0
  1  2  1  0  0  0  0
 22 23  2  0  0  0  0
 22 24  1  0  0  0  0
 18 19  1  0  0  0  0
 18 20  1  0  0  0  0
 18 21  1  0  0  0  0
 17 18  1  0  0  0  0
 14 15  1  0  0  0  0
 14 16  1  0  0  0  0
 14 17  1  0  0  0  0
 11 12  1  0  0  0  0
 11 13  1  0  0  0  0
 11 14  1  0  0  0  0
  9 10  1  0  0  0  0
  9 11  1  0  0  0  0
  9 22  1  0  0  0  0
  7  8  1  0  0  0  0
  7  9  1  0  0  0  0
 26 27  1  0  0  0  0
 26 28  1  0  0  0  0
 26 29  1  0  0  0  0
 24 25  1  0  0  0  0
 24 26  1  0  0  0  0
M  END
$$$$
default_name
  -OEChem-02102213163D

 29 28  0     1  0  0  0  0  0999 V2000
   -3.5781   -3.7296    1.2702 H   0  0  0  0  0  0  0  0  0  0  0  0
   -3.5311   -2.7616    0.7732 C   0  0  0  0  0  0  0  0  0  0  0  0
   -4.2371   -2.0766    1.2382 H   0  0  0  0  0  0  0  0  0  0  0  0
   -3.7681   -2.8816   -0.2818 H   0  0  0  0  0  0  0  0  0  0  0  0
   -2.1321   -2.2086    0.9112 C   0  0  0  0  0  0  0  0  0  0  0  0
   -1.2751   -2.8426    1.5112 O   0  0  0  0  0  0  0  0  0  0  0  0
   -1.9041   -1.0186    0.3602 N   0  0  0  0  0  0  0  0  0  0  0  0
   -2.6671   -0.5416   -0.0988 H   0  0  0  0  0  0  0  0  0  0  0  0
   -0.6131   -0.3236    0.3832 C   0  0  1  0  0  0  0  0  0  0  0  0
    0.0142   -0.7800    1.1506 H   0  0  0  0  0  0  0  0  0  0  0  0
    0.0816   -0.5059   -0.9788 C   0  0  0  0  0  0  0  0  0  0  0  0
    0.9038    0.2092   -1.0521 H   0  0  0  0  0  0  0  0  0  0  0  0
    0.4987   -1.5122   -1.0382 H   0  0  0  0  0  0  0  0  0  0  0  0
   -0.8518   -0.2911   -2.1759 C   0  0  0  0  0  0  0  0  0  0  0  0
   -0.2540   -0.1835   -3.0804 H   0  0  0  0  0  0  0  0  0  0  0  0
   -1.4931   -1.1668   -2.2815 H   0  0  0  0  0  0  0  0  0  0  0  0
   -1.9054    1.1737   -2.0211 S   0  0  0  0  0  0  0  0  0  0  0  0
   -2.9938    0.6319   -0.6781 C   0  0  0  0  0  0  0  0  0  0  0  0
   -2.4015    0.4216    0.2129 H   0  0  0  0  0  0  0  0  0  0  0  0
   -3.7117    1.4213   -0.4540 H   0  0  0  0  0  0  0  0  0  0  0  0
   -3.5318   -0.2669   -0.9806 H   0  0  0  0  0  0  0  0  0  0  0  0
   -0.8064    1.1568    0.7414 C   0  0  0  0  0  0  0  0  0  0  0  0
   -1.6978    1.8100    0.2029 O   0  0  0  0  0  0  0  0  0  0  0  0
    0.0314    1.6872    1.6415 N   0  0  0  0  0  0  0  0  0  0  0  0
    0.7279    1.0858    2.0517 H   0  0  0  0  0  0  0  0  0  0  0  0
   -0.0137    3.0826    2.0755 C   0  0  0  0  0  0  0  0  0  0  0  0
   -0.9991    3.3070    2.4905 H   0  0  0  0  0  0  0  0  0  0  0  0
    0.7468    3.2694    2.8349 H   0  0  0  0  0  0  0  0  0  0  0  0
    0.1592    3.7397    1.2213 H   0  0  0  0  0  0  0  0  0  0  0  0
  5  6  2  0  0  0  0
  5  7  1  0  0  0  0
  2  3  1  0  0  0  0
  2  4  1  0  0  0  0
  2  5  1  0  0  0  0
  1  2  1  0  0  0  0
 22 23  2  0  0  0  0
 22 24  1  0  0  0  0
 18 19  1  0  0  0  0
 18 20  1  0  0  0  0
 18 21  1  0  0  0  0
 17 18  1  0  0  0  0
 14 15  1  0  0  0  0
 14 16  1  0  0  0  0
 14 17  1  0  0  0  0
 11 12  1  0  0  0  0
 11 13  1  0  0  0  0
 11 14  1  0  0  0  0
  9 10  1  0  0  0  0
  9 11  1  0  0  0  0
  9 22  1  0  0  0  0
  7  8  1  0  0  0  0
  7  9  1  0  0  0  0
 26 27  1  0  0  0  0
 26 28  1  0  0  0  0
 26 29  1  0  0  0  0
 24 25  1  0  0  0  0
 24 26  1  0  0  0  0
M  END
$$$$
default_name
  -OEChem-02102213163D

 29 28  0     1  0  0  0  0  0999 V2000
   -3.5781   -3.7296    1.2702 H   0  0  0  0  0  0  0  0  0  0  0  0
   -3.5311   -2.7616    0.7732 C   0  0  0  0  0  0  0  0  0  0  0  0
   -4.2371   -2.0766    1.2382 H   0  0  0  0  0  0  0  0  0  0  0  0
   -3.7681   -2.8816   -0.2818 H   0  0  0  0  0  0  0  0  0  0  0  0
   -2.1321   -2.2086    0.9112 C   0  0  0  0  0  0  0  0  0  0  0  0
   -1.2751   -2.8426    1.5112 O   0  0  0  0  0  0  0  0  0  0  0  0
   -1.9041   -1.0186    0.3602 N   0  0  0  0  0  0  0  0  0  0  0  0
   -2.6671   -0.5416   -0.0988 H   0  0  0  0  0  0  0  0  0  0  0  0
   -0.6131   -0.3236    0.3832 C   0  0  1  0  0  0  0  0  0  0  0  0
    0.0142   -0.7800    1.1506 H   0  0  0  0  0  0  0  0  0  0  0  0
    0.0816   -0.5059   -0.9788 C   0  0  0  0  0  0  0  0  0  0  0  0
    0.9038    0.2092   -1.0521 H   0  0  0  0  0  0  0  0  0  0  0  0
    0.4987   -1.5122   -1.0382 H   0  0  0  0  0  0  0  0  0  0  0  0
   -0.8518   -0.2911   -2.1759 C   0  0  0  0  0  0  0  0  0  0  0  0
   -0.2928   -0.4488   -3.0977 H   0  0  0  0  0  0  0  0  0  0  0  0
   -1.6593   -1.0223   -2.1260 H   0  0  0  0  0  0  0  0  0  0  0  0
   -1.5829    1.3646   -2.2383 S   0  0  0  0  0  0  0  0  0  0  0  0
   -2.6854    1.2706   -0.8040 C   0  0  0  0  0  0  0  0  0  0  0  0
   -2.1010    1.0830    0.0973 H   0  0  0  0  0  0  0  0  0  0  0  0
   -3.2190    2.2153   -0.6957 H   0  0  0  0  0  0  0  0  0  0  0  0
   -3.4068    0.4655   -0.9467 H   0  0  0  0  0  0  0  0  0  0  0  0
   -0.8064    1.1568    0.7414 C   0  0  0  0  0  0  0  0  0  0  0  0
   -1.6978    1.8100    0.2029 O   0  0  0  0  0  0  0  0  0  0  0  0
    0.0314    1.6872    1.6415 N   0  0  0  0  0  0  0  0  0  0  0  0
    0.7279    1.0858    2.0517 H   0  0  0  0  0  0  0  0  0  0  0  0
   -0.0137    3.0826    2.0755 C   0  0  0  0  0  0  0  0  0  0  0  0
   -0.9991    3.3070    2.4905 H   0  0  0  0  0  0  0  0  0  0  0  0
    0.7468    3.2694    2.8349 H   0  0  0  0  0  0  0  0  0  0  0  0
    0.1592    3.7397    1.2213 H   0  0  0  0  0  0  0  0  0  0  0  0
  5  6  2  0  0  0  0
  5  7  1  0  0  0  0
  2  3  1  0  0  0  0
  2  4  1  0  0  0  0
  2  5  1  0  0  0  0
  1  2  1  0  0  0  0
 22 23  2  0  0  0  0
 22 24  1  0  0  0  0
 18 19  1  0  0  0  0
 18 20  1  0  0  0  0
 18 21  1  0  0  0  0
 17 18  1  0  0  0  0
 14 15  1  0  0  0  0
 14 16  1  0  0  0  0
 14 17  1  0  0  0  0
 11 12  1  0  0  0  0
 11 13  1  0  0  0  0
 11 14  1  0  0  0  0
  9 10  1  0  0  0  0
  9 11  1  0  0  0  0
  9 22  1  0  0  0  0
  7  8  1  0  0  0  0
  7  9  1  0  0  0  0
 26 27  1  0  0  0  0
 26 28  1  0  0  0  0
 26 29  1  0  0  0  0
 24 25  1  0  0  0  0
 24 26  1  0  0  0  0
M  END
$$$$
default_name
  -OEChem-02102213163D

 29 28  0     1  0  0  0  0  0999 V2000
   -3.5781   -3.7296    1.2702 H   0  0  0  0  0  0  0  0  0  0  0  0
   -3.5311   -2.7616    0.7732 C   0  0  0  0  0  0  0  0  0  0  0  0
   -4.2371   -2.0766    1.2382 H   0  0  0  0  0  0  0  0  0  0  0  0
   -3.7681   -2.8816   -0.2818 H   0  0  0  0  0  0  0  0  0  0  0  0
   -2.1321   -2.2086    0.9112 C   0  0  0  0  0  0  0  0  0  0  0  0
   -1.2751   -2.8426    1.5112 O   0  0  0  0  0  0  0  0  0  0  0  0
   -1.9041   -1.0186    0.3602 N   0  0  0  0  0  0  0  0  0  0  0  0
   -2.6671   -0.5416   -0.0988 H   0  0  0  0  0  0  0  0  0  0  0  0
   -0.6131   -0.3236    0.3832 C   0  0  1  0  0  0  0  0  0  0  0  0
    0.0142   -0.7800    1.1506 H   0  0  0  0  0  0  0  0  0  0  0  0
    0.0816   -0.5059   -0.9788 C   0  0  0  0  0  0  0  0  0  0  0  0
    0.9038    0.2092   -1.0521 H   0  0  0  0  0  0  0  0  0  0  0  0
    0.4987   -1.5122   -1.0382 H   0  0  0  0  0  0  0  0  0  0  0  0
   -0.8518   -0.2911   -2.1759 C   0  0  0  0  0  0  0  0  0  0  0  0
   -0.3846   -0.6999   -3.0713 H   0  0  0  0  0  0  0  0  0  0  0  0
   -1.7851   -0.8247   -1.9925 H   0  0  0  0  0  0  0  0  0  0  0  0
   -1.2407    1.4496   -2.4899 S   0  0  0  0  0  0  0  0  0  0  0  0
   -2.2631    1.8054   -1.0373 C   0  0  0  0  0  0  0  0  0  0  0  0
   -1.6813    1.6429   -0.1295 H   0  0  0  0  0  0  0  0  0  0  0  0
   -2.5913    2.8446   -1.0722 H   0  0  0  0  0  0  0  0  0  0  0  0
   -3.1368    1.1532   -1.0338 H   0  0  0  0  0  0  0  0  0  0  0  0
   -0.8064    1.1568    0.7414 C   0  0  0  0  0  0  0  0  0  0  0  0
   -1.6978    1.8100    0.2029 O   0  0  0  0  0  0  0  0  0  0  0  0
    0.0314    1.6872    1.6415 N   0  0  0  0  0  0  0  0  0  0  0  0
    0.7279    1.0858    2.0517 H   0  0  0  0  0  0  0  0  0  0  0  0
   -0.0137    3.0826    2.0755 C   0  0  0  0  0  0  0  0  0  0  0  0
   -0.9991    3.3070    2.4905 H   0  0  0  0  0  0  0  0  0  0  0  0
    0.7468    3.2694    2.8349 H   0  0  0  0  0  0  0  0  0  0  0  0
    0.1592    3.7397    1.2213 H   0  0  0  0  0  0  0  0  0  0  0  0
  5  6  2  0  0  0  0
  5  7  1  0  0  0  0
  2  3  1  0  0  0  0
  2  4  1  0  0  0  0
  2  5  1  0  0  0  0
  1  2  1  0  0  0  0
 22 23  2  0  0  0  0
 22 24  1  0  0  0  0
 18 19  1  0  0  0  0
 18 20  1  0  0  0  0
 18 21  1  0  0  0  0
 17 18  1  0  0  0  0
 14 15  1  0  0  0  0
 14 16  1  0  0  0  0
 14 17  1  0  0  0  0
 11 12  1  0  0  0  0
 11 13  1  0  0  0  0
 11 14  1  0  0  0  0
  9 10  1  0  0  0  0
  9 11  1  0  0  0  0
  9 22  1  0  0  0  0
  7  8  1  0  0  0  0
  7  9  1  0  0  0  0
 26 27  1  0  0  0  0
 26 28  1  0  0  0  0
 26 29  1  0  0  0  0
 24 25  1  0  0  0  0
 24 26  1  0  0  0  0
M  END
$$$$
default_name
  -OEChem-02102213163D

 29 28  0     1  0  0  0  0  0999 V2000
   -3.5781   -3.7296    1.2702 H   0  0  0  0  0  0  0  0  0  0  0  0
   -3.5311   -2.7616    0.7732 C   0  0  0  0  0  0  0  0  0  0  0  0
   -4.2371   -2.0766    1.2382 H   0  0  0  0  0  0  0  0  0  0  0  0
   -3.7681   -2.8816   -0.2818 H   0  0  0  0  0  0  0  0  0  0  0  0
   -2.1321   -2.2086    0.9112 C   0  0  0  0  0  0  0  0  0  0  0  0
   -1.2751   -2.8426    1.5112 O   0  0  0  0  0  0  0  0  0  0  0  0
   -1.9041   -1.0186    0.3602 N   0  0  0  0  0  0  0  0  0  0  0  0
   -2.6671   -0.5416   -0.0988 H   0  0  0  0  0  0  0  0  0  0  0  0
   -0.6131   -0.3236    0.3832 C   0  0  1  0  0  0  0  0  0  0  0  0
    0.0142   -0.7800    1.1506 H   0  0  0  0  0  0  0  0  0  0  0  0
    0.0816   -0.5059   -0.9788 C   0  0  0  0  0  0  0  0  0  0  0  0
    0.9038    0.2092   -1.0521 H   0  0  0  0  0  0  0  0  0  0  0  0
    0.4987   -1.5122   -1.0382 H   0  0  0  0  0  0  0  0  0  0  0  0
   -0.8518   -0.2911   -2.1759 C   0  0  0  0  0  0  0  0  0  0  0  0
   -0.5230   -0.9198   -3.0028 H   0  0  0  0  0  0  0  0  0  0  0  0
   -1.8617   -0.5873   -1.8901 H   0  0  0  0  0  0  0  0  0  0  0  0
   -0.9021    1.4229   -2.7587 S   0  0  0  0  0  0  0  0  0  0  0  0
   -1.7555    2.1999   -1.3623 C   0  0  0  0  0  0  0  0  0  0  0  0
   -1.1709    2.0632   -0.4520 H   0  0  0  0  0  0  0  0  0  0  0  0
   -1.8716    3.2662   -1.5577 H   0  0  0  0  0  0  0  0  0  0  0  0
   -2.7402    1.7491   -1.2361 H   0  0  0  0  0  0  0  0  0  0  0  0
   -0.8064    1.1568    0.7414 C   0  0  0  0  0  0  0  0  0  0  0  0
   -1.6978    1.8100    0.2029 O   0  0  0  0  0  0  0  0  0  0  0  0
    0.0314    1.6872    1.6415 N   0  0  0  0  0  0  0  0  0  0  0  0
    0.7279    1.0858    2.0517 H   0  0  0  0  0  0  0  0  0  0  0  0
   -0.0137    3.0826    2.0755 C   0  0  0  0  0  0  0  0  0  0  0  0
   -0.9991    3.3070    2.4905 H   0  0  0  0  0  0  0  0  0  0  0  0
    0.7468    3.2694    2.8349 H   0  0  0  0  0  0  0  0  0  0  0  0
    0.1592    3.7397    1.2213 H   0  0  0  0  0  0  0  0  0  0  0  0
  5  6  2  0  0  0  0
  5  7  1  0  0  0  0
  2  3  1  0  0  0  0
  2  4  1  0  0  0  0
  2  5  1  0  0  0  0
  1  2  1  0  0  0  0
 22 23  2  0  0  0  0
 22 24  1  0  0  0  0
 18 19  1  0  0  0  0
 18 20  1  0  0  0  0
 18 21  1  0  0  0  0
 17 18  1  0  0  0  0
 14 15  1  0  0  0  0
 14 16  1  0  0  0  0
 14 17  1  0  0  0  0
 11 12  1  0  0  0  0
 11 13  1  0  0  0  0
 11 14  1  0  0  0  0
  9 10  1  0  0  0  0
  9 11  1  0  0  0  0
  9 22  1  0  0  0  0
  7  8  1  0  0  0  0
  7  9  1  0  0  0  0
 26 27  1  0  0  0  0
 26 28  1  0  0  0  0
 26 29  1  0  0  0  0
 24 25  1  0  0  0  0
 24 26  1  0  0  0  0
M  END
$$$$
default_name
  -OEChem-02102213163D

 29 28  0     1  0  0  0  0  0999 V2000
   -3.5781   -3.7296    1.2702 H   0  0  0  0  0  0  0  0  0  0  0  0
   -3.5311   -2.7616    0.7732 C   0  0  0  0  0  0  0  0  0  0  0  0
   -4.2371   -2.0766    1.2382 H   0  0  0  0  0  0  0  0  0  0  0  0
   -3.7681   -2.8816   -0.2818 H   0  0  0  0  0  0  0  0  0  0  0  0
   -2.1321   -2.2086    0.9112 C   0  0  0  0  0  0  0  0  0  0  0  0
   -1.2751   -2.8426    1.5112 O   0  0  0  0  0  0  0  0  0  0  0  0
   -1.9041   -1.0186    0.3602 N   0  0  0  0  0  0  0  0  0  0  0  0
   -2.6671   -0.5416   -0.0988 H   0  0  0  0  0  0  0  0  0  0  0  0
   -0.6131   -0.3236    0.3832 C   0  0  1  0  0  0  0  0  0  0  0  0
    0.0142   -0.7800    1.1506 H   0  0  0  0  0  0  0  0  0  0  0  0
    0.0816   -0.5059   -0.9788 C   0  0  0  0  0  0  0  0  0  0  0  0
    0.9038    0.2092   -1.0521 H   0  0  0  0  0  0  0  0  0  0  0  0
    0.4987   -1.5122   -1.0382 H   0  0  0  0  0  0  0  0  0  0  0  0
   -0.8518   -0.2911   -2.1759 C   0  0  0  0  0  0  0  0  0  0  0  0
   -0.6987   -1.0934   -2.8970 H   0  0  0  0  0  0  0  0  0  0  0  0
   -1.8841   -0.3264   -1.8259 H   0  0  0  0  0  0  0  0  0  0  0  0
   -0.5902    1.2863   -3.0264 S   0  0  0  0  0  0  0  0  0  0  0  0
   -1.1973    2.4271   -1.7568 C   0  0  0  0  0  0  0  0  0  0  0  0
   -0.6047    2.3152   -0.8483 H   0  0  0  0  0  0  0  0  0  0  0  0
   -1.1087    3.4516   -2.1193 H   0  0  0  0  0  0  0  0  0  0  0  0
   -2.2441    2.2126   -1.5398 H   0  0  0  0  0  0  0  0  0  0  0  0
   -0.8064    1.1568    0.7414 C   0  0  0  0  0  0  0  0  0  0  0  0
   -1.6978    1.8100    0.2029 O   0  0  0  0  0  0  0  0  0  0  0  0
    0.0314    1.6872    1.6415 N   0  0  0  0  0  0  0  0  0  0  0  0
    0.7279    1.0858    2.0517 H   0  0  0  0  0  0  0  0  0  0  0  0
   -0.0137    3.0826    2.0755 C   0  0  0  0  0  0  0  0  0  0  0  0
   -0.9991    3.3070    2.4905 H   0  0  0  0  0  0  0  0  0  0  0  0
    0.7468    3.2694    2.8349 H   0  0  0  0  0  0  0  0  0  0  0  0
    0.1592    3.7397    1.2213 H   0  0  0  0  0  0  0  0  0  0  0  0
  5  6  2  0  0  0  0
  5  7  1  0  0  0  0
  2  3  1  0  0  0  0
  2  4  1  0  0  0  0
  2  5  1  0  0  0  0
  1  2  1  0  0  0  0
 22 23  2  0  0  0  0
 22 24  1  0  0  0  0
 18 19  1  0  0  0  0
 18 20  1  0  0  0  0
 18 21  1  0  0  0  0
 17 18  1  0  0  0  0
 14 15  1  0  0  0  0
 14 16  1  0  0  0  0
 14 17  1  0  0  0  0
 11 12  1  0  0  0  0
 11 13  1  0  0  0  0
 11 14  1  0  0  0  0
  9 10  1  0  0  0  0
  9 11  1  0  0  0  0
  9 22  1  0  0  0  0
  7  8  1  0  0  0  0
  7  9  1  0  0  0  0
 26 27  1  0  0  0  0
 26 28  1  0  0  0  0
 26 29  1  0  0  0  0
 24 25  1  0  0  0  0
 24 26  1  0  0  0  0
M  END
$$$$
default_name
  -OEChem-02102213163D

 29 28  0     1  0  0  0  0  0999 V2000
   -3.5781   -3.7296    1.2702 H   0  0  0  0  0  0  0  0  0  0  0  0
   -3.5311   -2.7616    0.7732 C   0  0  0  0  0  0  0  0  0  0  0  0
   -4.2371   -2.0766    1.2382 H   0  0  0  0  0  0  0  0  0  0  0  0
   -3.7681   -2.8816   -0.2818 H   0  0  0  0  0  0  0  0  0  0  0  0
   -2.1321   -2.2086    0.9112 C   0  0  0  0  0  0  0  0  0  0  0  0
   -1.2751   -2.8426    1.5112 O   0  0  0  0  0  0  0  0  0  0  0  0
   -1.9041   -1.0186    0.3602 N   0  0  0  0  0  0  0  0  0  0  0  0
   -2.6671   -0.5416   -0.0988 H   0  0  0  0  0  0  0  0  0  0  0  0
   -0.6131   -0.3236    0.3832 C   0  0  1  0  0  0  0  0  0  0  0  0
    0.0142   -0.7800    1.1506 H   0  0  0  0  0  0  0  0  0  0  0  0
    0.0816   -0.5059   -0.9788 C   0  0  0  0  0  0  0  0  0  0  0  0
    0.9038    0.2092   -1.0521 H   0  0  0  0  0  0  0  0  0  0  0  0
    0.4987   -1.5122   -1.0382 H   0  0  0  0  0  0  0  0  0  0  0  0
   -0.8518   -0.2911   -2.1759 C   0  0  0  0  0  0  0  0  0  0  0  0
   -0.8996   -1.2089   -2.7610 H   0  0  0  0  0  0  0  0  0  0  0  0
   -1.8506   -0.0597   -1.8041 H   0  0  0  0  0  0  0  0  0  0  0  0
   -0.3263    1.0491   -3.2747 S   0  0  0  0  0  0  0  0  0  0  0  0
   -0.6265    2.4716   -2.1939 C   0  0  0  0  0  0  0  0  0  0  0  0
   -0.0212    2.3817   -1.2913 H   0  0  0  0  0  0  0  0  0  0  0  0
   -0.3547    3.3879   -2.7186 H   0  0  0  0  0  0  0  0  0  0  0  0
   -1.6821    2.5123   -1.9242 H   0  0  0  0  0  0  0  0  0  0  0  0
   -0.8064    1.1568    0.7414 C   0  0  0  0  0  0  0  0  0  0  0  0
   -1.6978    1.8100    0.2029 O   0  0  0  0  0  0  0  0  0  0  0  0
    0.0314    1.6872    1.6415 N   0  0  0  0  0  0  0  0  0  0  0  0
    0.7279    1.0858    2.0517 H   0  0  0  0  0  0  0  0  0  0  0  0
   -0.0137    3.0826    2.0755 C   0  0  0  0  0  0  0  0  0  0  0  0
   -0.9991    3.3070    2.4905 H   0  0  0  0  0  0  0  0  0  0  0  0
    0.7468    3.2694    2.8349 H   0  0  0  0  0  0  0  0  0  0  0  0
    0.1592    3.7397    1.2213 H   0  0  0  0  0  0  0  0  0  0  0  0
  5  6  2  0  0  0  0
  5  7  1  0  0  0  0
  2  3  1  0  0  0  0
  2  4  1  0  0  0  0
  2  5  1  0  0  0  0
  1  2  1  0  0  0  0
 22 23  2  0  0  0  0
 22 24  1  0  0  0  0
 18 19  1  0  0  0  0
 18 20  1  0  0  0  0
 18 21  1  0  0  0  0
 17 18  1  0  0  0  0
 14 15  1  0  0  0  0
 14 16  1  0  0  0  0
 14 17  1  0  0  0  0
 11 12  1  0  0  0  0
 11 13  1  0  0  0  0
 11 14  1  0  0  0  0
  9 10  1  0  0  0  0
  9 11  1  0  0  0  0
  9 22  1  0  0  0  0
  7  8  1  0  0  0  0
  7  9  1  0  0  0  0
 26 27  1  0  0  0  0
 26 28  1  0  0  0  0
 26 29  1  0  0  0  0
 24 25  1  0  0  0  0
 24 26  1  0  0  0  0
M  END
$$$$
default_name
  -OEChem-02102213163D

 29 28  0     1  0  0  0  0  0999 V2000
   -3.5781   -3.7296    1.2702 H   0  0  0  0  0  0  0  0  0  0  0  0
   -3.5311   -2.7616    0.7732 C   0  0  0  0  0  0  0  0  0  0  0  0
   -4.2371   -2.0766    1.2382 H   0  0  0  0  0  0  0  0  0  0  0  0
   -3.7681   -2.8816   -0.2818 H   0  0  0  0  0  0  0  0  0  0  0  0
   -2.1321   -2.2086    0.9112 C   0  0  0  0  0  0  0  0  0  0  0  0
   -1.2751   -2.8426    1.5112 O   0  0  0  0  0  0  0  0  0  0  0  0
   -1.9041   -1.0186    0.3602 N   0  0  0  0  0  0  0  0  0  0  0  0
   -2.6671   -0.5416   -0.0988 H   0  0  0  0  0  0  0  0  0  0  0  0
   -0.6131   -0.3236    0.3832 C   0  0  1  0  0  0  0  0  0  0  0  0
    0.0142   -0.7800    1.1506 H   0  0  0  0  0  0  0  0  0  0  0  0
    0.0816   -0.5059   -0.9788 C   0  0  0  0  0  0  0  0  0  0  0  0
    0.9038    0.2092   -1.0521 H   0  0  0  0  0  0  0  0  0  0  0  0
    0.4987   -1.5122   -1.0382 H   0  0  0  0  0  0  0  0  0  0  0  0
   -0.8518   -0.2911   -2.1759 C   0  0  0  0  0  0  0  0  0  0  0  0
   -1.1121   -1.2585   -2.6042 H   0  0  0  0  0  0  0  0  0  0  0  0
   -1.7636    0.1945   -1.8263 H   0  0  0  0  0  0  0  0  0  0  0  0
   -0.1283    0.7275   -3.4868 S   0  0  0  0  0  0  0  0  0  0  0  0
   -0.0820    2.3303   -2.6438 C   0  0  0  0  0  0  0  0  0  0  0  0
    0.5398    2.2583   -1.7509 H   0  0  0  0  0  0  0  0  0  0  0  0
    0.3389    3.0796   -3.3148 H   0  0  0  0  0  0  0  0  0  0  0  0
   -1.0927    2.6276   -2.3630 H   0  0  0  0  0  0  0  0  0  0  0  0
   -0.8064    1.1568    0.7414 C   0  0  0  0  0  0  0  0  0  0  0  0
   -1.6978    1.8100    0.2029 O   0  0  0  0  0  0  0  0  0  0  0  0
    0.0314    1.6872    1.6415 N   0  0  0  0  0  0  0  0  0  0  0  0
    0.7279    1.0858    2.0517 H   0  0  0  0  0  0  0  0  0  0  0  0
   -0.0137    3.0826    2.0755 C   0  0  0  0  0  0  0  0  0  0  0  0
   -0.9991    3.3070    2.4905 H   0  0  0  0  0  0  0  0  0  0  0  0
    0.7468    3.2694    2.8349 H   0  0  0  0  0  0  0  0  0  0  0  0
    0.1592    3.7397    1.2213 H   0  0  0  0  0  0  0  0  0  0  0  0
  5  6  2  0  0  0  0
  5  7  1  0  0  0  0
  2  3  1  0  0  0  0
  2  4  1  0  0  0  0
  2  5  1  0  0  0  0
  1  2  1  0  0  0  0
 22 23  2  0  0  0  0
 22 24  1  0  0  0  0
 18 19  1  0  0  0  0
 18 20  1  0  0  0  0
 18 21  1  0  0  0  0
 17 18  1  0  0  0  0
 14 15  1  0  0  0  0
 14 16  1  0  0  0  0
 14 17  1  0  0  0  0
 11 12  1  0  0  0  0
 11 13  1  0  0  0  0
 11 14  1  0  0  0  0
  9 10  1  0  0  0  0
  9 11  1  0  0  0  0
  9 22  1  0  0  0  0
  7  8  1  0  0  0  0
  7  9  1  0  0  0  0
 26 27  1  0  0  0  0
 26 28  1  0  0  0  0
 26 29  1  0  0  0  0
 24 25  1  0  0  0  0
 24 26  1  0  0  0  0
M  END
$$$$
default_name
  -OEChem-02102213163D

 29 28  0     1  0  0  0  0  0999 V2000
   -3.5781   -3.7296    1.2702 H   0  0  0  0  0  0  0  0  0  0  0  0
   -3.5311   -2.7616    0.7732 C   0  0  0  0  0  0  0  0  0  0  0  0
   -4.2371   -2.0766    1.2382 H   0  0  0  0  0  0  0  0  0  0  0  0
   -3.7681   -2.8816   -0.2818 H   0  0  0  0  0  0  0  0  0  0  0  0
   -2.1321   -2.2086    0.9112 C   0  0  0  0  0  0  0  0  0  0  0  0
   -1.2751   -2.8426    1.5112 O   0  0  0  0  0  0  0  0  0  0  0  0
   -1.9041   -1.0186    0.3602 N   0  0  0  0  0  0  0  0  0  0  0  0
   -2.6671   -0.5416   -0.0988 H   0  0  0  0  0  0  0  0  0  0  0  0
   -0.6131   -0.3236    0.3832 C   0  0  1  0  0  0  0  0  0  0  0  0
    0.0142   -0.7800    1.1506 H   0  0  0  0  0  0  0  0  0  0  0  0
    0.0816   -0.5059   -0.9788 C   0  0  0  0  0  0  0  0  0  0  0  0
    0.9038    0.2092   -1.0521 H   0  0  0  0  0  0  0  0  0  0  0  0
    0.4987   -1.5122   -1.0382 H   0  0  0  0  0  0  0  0  0  0  0  0
   -0.8518   -0.2911   -2.1759 C   0  0  0  0  0  0  0  0  0  0  0  0
   -1.3217   -1.2387   -2.4372 H   0  0  0  0  0  0  0  0  0  0  0  0
   -1.6290    0.4190   -1.8910 H   0  0  0  0  0  0  0  0  0  0  0  0
   -0.0097    0.3435   -3.6482 S   0  0  0  0  0  0  0  0  0  0  0  0
    0.3991    2.0130   -3.0759 C   0  0  0  0  0  0  0  0  0  0  0  0
    1.0400    1.9532   -2.1957 H   0  0  0  0  0  0  0  0  0  0  0  0
    0.9250    2.5477   -3.8673 H   0  0  0  0  0  0  0  0  0  0  0  0
   -0.5160    2.5507   -2.8265 H   0  0  0  0  0  0  0  0  0  0  0  0
   -0.8064    1.1568    0.7414 C   0  0  0  0  0  0  0  0  0  0  0  0
   -1.6978    1.8100    0.2029 O   0  0  0  0  0  0  0  0  0  0  0  0
    0.0314    1.6872    1.6415 N   0  0  0  0  0  0  0  0  0  0  0  0
    0.7279    1.0858    2.0517 H   0  0  0  0  0  0  0  0  0  0  0  0
   -0.0137    3.0826    2.0755 C   0  0  0  0  0  0  0  0  0  0  0  0
   -0.9991    3.3070    2.4905 H   0  0  0  0  0  0  0  0  0  0  0  0
    0.7468    3.2694    2.8349 H   0  0  0  0  0  0  0  0  0  0  0  0
    0.1592    3.7397    1.2213 H   0  0  0  0  0  0  0  0  0  0  0  0
  5  6  2  0  0  0  0
  5  7  1  0  0  0  0
  2  3  1  0  0  0  0
  2  4  1  0  0  0  0
  2  5  1  0  0  0  0
  1  2  1  0  0  0  0
 22 23  2  0  0  0  0
 22 24  1  0  0  0  0
 18 19  1  0  0  0  0
 18 20  1  0  0  0  0
 18 21  1  0  0  0  0
 17 18  1  0  0  0  0
 14 15  1  0  0  0  0
 14 16  1  0  0  0  0
 14 17  1  0  0  0  0
 11 12  1  0  0  0  0
 11 13  1  0  0  0  0
 11 14  1  0  0  0  0
  9 10  1  0  0  0  0
  9 11  1  0  0  0  0
  9 22  1  0  0  0  0
  7  8  1  0  0  0  0
  7  9  1  0  0  0  0
 26 27  1  0  0  0  0
 26 28  1  0  0  0  0
 26 29  1  0  0  0  0
 24 25  1  0  0  0  0
 24 26  1  0  0  0  0
M  END
$$$$
default_name
  -OEChem-02102213163D

 29 28  0     1  0  0  0  0  0999 V2000
   -3.5781   -3.7296    1.2702 H   0  0  0  0  0  0  0  0  0  0  0  0
   -3.5311   -2.7616    0.7732 C   0  0  0  0  0  0  0  0  0  0  0  0
   -4.2371   -2.0766    1.2382 H   0  0  0  0  0  0  0  0  0  0  0  0
   -3.7681   -2.8816   -0.2818 H   0  0  0  0  0  0  0  0  0  0  0  0
   -2.1321   -2.2086    0.9112 C   0  0  0  0  0  0  0  0  0  0  0  0
   -1.2751   -2.8426    1.5112 O   0  0  0  0  0  0  0  0  0  0  0  0
   -1.9041   -1.0186    0.3602 N   0  0  0  0  0  0  0  0  0  0  0  0
   -2.6671   -0.5416   -0.0988 H   0  0  0  0  0  0  0  0  0  0  0  0
   -0.6131   -0.3236    0.3832 C   0  0  1  0  0  0  0  0  0  0  0  0
    0.0142   -0.7800    1.1506 H   0  0  0  0  0  0  0  0  0  0  0  0
    0.0816   -0.5059   -0.9788 C   0  0  0  0  0  0  0  0  0  0  0  0
    0.9038    0.2092   -1.0521 H   0  0  0  0  0  0  0  0  0  0  0  0
    0.4987   -1.5122   -1.0382 H   0  0  0  0  0  0  0  0  0  0  0  0
   -0.8518   -0.2911   -2.1759 C   0  0  0  0  0  0  0  0  0  0  0  0
   -1.5141   -1.1509   -2.2715 H   0  0  0  0  0  0  0  0  0  0  0  0
   -1.4560    0.5984   -1.9937 H   0  0  0  0  0  0  0  0  0  0  0  0
    0.0214   -0.0768   -3.7479 S   0  0  0  0  0  0  0  0  0  0  0  0
    0.7840    1.5411   -3.4606 C   0  0  0  0  0  0  0  0  0  0  0  0
    1.4454    1.4874   -2.5954 H   0  0  0  0  0  0  0  0  0  0  0  0
    1.3636    1.8284   -4.3383 H   0  0  0  0  0  0  0  0  0  0  0  0
    0.0087    2.2868   -3.2830 H   0  0  0  0  0  0  0  0  0  0  0  0
   -0.8064    1.1568    0.7414 C   0  0  0  0  0  0  0  0  0  0  0  0
   -1.6978    1.8100    0.2029 O   0  0  0  0  0  0  0  0  0  0  0  0
    0.0314    1.6872    1.6415 N   0  0  0  0  0  0  0  0  0  0  0  0
    0.7279    1.0858    2.0517 H   0  0  0  0  0  0  0  0  0  0  0  0
   -0.0137    3.0826    2.0755 C   0  0  0  0  0  0  0  0  0  0  0  0
   -0.9991    3.3070    2.4905 H   0  0  0  0  0  0  0  0  0  0  0  0
    0.7468    3.2694    2.8349 H   0  0  0  0  0  0  0  0  0  0  0  0
    0.1592    3.7397    1.2213 H   0  0  0  0  0  0  0  0  0  0  0  0
  5  6  2  0  0  0  0
  5  7  1  0  0  0  0
  2  3  1  0  0  0  0
  2  4  1  0  0  0  0
  2  5  1  0  0  0  0
  1  2  1  0  0  0  0
 22 23  2  0  0  0  0
 22 24  1  0  0  0  0
 18 19  1  0  0  0  0
 18 20  1  0  0  0  0
 18 21  1  0  0  0  0
 17 18  1  0  0  0  0
 14 15  1  0  0  0  0
 14 16  1  0  0  0  0
 14 17  1  0  0  0  0
 11 12  1  0  0  0  0
 11 13  1  0  0  0  0
 11 14  1  0  0  0  0
  9 10  1  0  0  0  0
  9 11  1  0  0  0  0
  9 22  1  0  0  0  0
  7  8  1  0  0  0  0
  7  9  1  0  0  0  0
 26 27  1  0  0  0  0
 26 28  1  0  0  0  0
 26 29  1  0  0  0  0
 24 25  1  0  0  0  0
 24 26  1  0  0  0  0
M  END
$$$$
default_name
  -OEChem-02102213163D

 29 28  0     1  0  0  0  0  0999 V2000
   -3.5781   -3.7296    1.2702 H   0  0  0  0  0  0  0  0  0  0  0  0
   -3.5311   -2.7616    0.7732 C   0  0  0  0  0  0  0  0  0  0  0  0
   -4.2371   -2.0766    1.2382 H   0  0  0  0  0  0  0  0  0  0  0  0
   -3.7681   -2.8816   -0.2818 H   0  0  0  0  0  0  0  0  0  0  0  0
   -2.1321   -2.2086    0.9112 C   0  0  0  0  0  0  0  0  0  0  0  0
   -1.2751   -2.8426    1.5112 O   0  0  0  0  0  0  0  0  0  0  0  0
   -1.9041   -1.0186    0.3602 N   0  0  0  0  0  0  0  0  0  0  0  0
   -2.6671   -0.5416   -0.0988 H   0  0  0  0  0  0  0  0  0  0  0  0
   -0.6131   -0.3236    0.3832 C   0  0  1  0  0  0  0  0  0  0  0  0
    0.0142   -0.7800    1.1506 H   0  0  0  0  0  0  0  0  0  0  0  0
    0.0816   -0.5059   -0.9788 C   0  0  0  0  0  0  0  0  0  0  0  0
    1.0471    0.0037   -0.9515 H   0  0  0  0  0  0  0  0  0  0  0  0
    0.2615   -1.5679   -1.1517 H   0  0  0  0  0  0  0  0  0  0  0  0
   -0.7247    0.0526   -2.1571 C   0  0  0  0  0  0  0  0  0  0  0  0
   -1.6905   -0.4499   -2.1993 H   0  0  0  0  0  0  0  0  0  0  0  0
   -0.8906    1.1181   -1.9942 H   0  0  0  0  0  0  0  0  0  0  0  0
    0.0902   -0.1605   -3.7602 S   0  0  0  0  0  0  0  0  0  0  0  0
    1.4738    0.9916   -3.5600 C   0  0  0  0  0  0  0  0  0  0  0  0
    2.0873    0.6856   -2.7121 H   0  0  0  0  0  0  0  0  0  0  0  0
    2.0828    0.9858   -4.4644 H   0  0  0  0  0  0  0  0  0  0  0  0
    1.0921    1.9989   -3.3910 H   0  0  0  0  0  0  0  0  0  0  0  0
   -0.8064    1.1568    0.7414 C   0  0  0  0  0  0  0  0  0  0  0  0
   -1.6978    1.8100    0.2029 O   0  0  0  0  0  0  0  0  0  0  0  0
    0.0314    1.6872    1.6415 N   0  0  0  0  0  0  0  0  0  0  0  0
    0.7279    1.0858    2.0517 H   0  0  0  0  0  0  0  0  0  0  0  0
   -0.0137    3.0826    2.0755 C   0  0  0  0  0  0  0  0  0  0  0  0
   -0.9991    3.3070    2.4905 H   0  0  0  0  0  0  0  0  0  0  0  0
    0.7468    3.2694    2.8349 H   0  0  0  0  0  0  0  0  0  0  0  0
    0.1592    3.7397    1.2213 H   0  0  0  0  0  0  0  0  0  0  0  0
  5  6  2  0  0  0  0
  5  7  1  0  0  0  0
  2  3  1  0  0  0  0
  2  4  1  0  0  0  0
  2  5  1  0  0  0  0
  1  2  1  0  0  0  0
 22 23  2  0  0  0  0
 22 24  1  0  0  0  0
 18 19  1  0  0  0  0
 18 20  1  0  0  0  0
 18 21  1  0  0  0  0
 17 18  1  0  0  0  0
 14 15  1  0  0  0  0
 14 16  1  0  0  0  0
 14 17  1  0  0  0  0
 11 12  1  0  0  0  0
 11 13  1  0  0  0  0
 11 14  1  0  0  0  0
  9 10  1  0  0  0  0
  9 11  1  0  0  0  0
  9 22  1  0  0  0  0
  7  8  1  0  0  0  0
  7  9  1  0  0  0  0
 26 27  1  0  0  0  0
 26 28  1  0  0  0  0
 26 29  1  0  0  0  0
 24 25  1  0  0  0  0
 24 26  1  0  0  0  0
M  END
$$$$
default_name
  -OEChem-02102213163D

 29 28  0     1  0  0  0  0  0999 V2000
   -3.5781   -3.7296    1.2702 H   0  0  0  0  0  0  0  0  0  0  0  0
   -3.5311   -2.7616    0.7732 C   0  0  0  0  0  0  0  0  0  0  0  0
   -4.2371   -2.0766    1.2382 H   0  0  0  0  0  0  0  0  0  0  0  0
   -3.7681   -2.8816   -0.2818 H   0  0  0  0  0  0  0  0  0  0  0  0
   -2.1321   -2.2086    0.9112 C   0  0  0  0  0  0  0  0  0  0  0  0
   -1.2751   -2.8426    1.5112 O   0  0  0  0  0  0  0  0  0  0  0  0
   -1.9041   -1.0186    0.3602 N   0  0  0  0  0  0  0  0  0  0  0  0
   -2.6671   -0.5416   -0.0988 H   0  0  0  0  0  0  0  0  0  0  0  0
   -0.6131   -0.3236    0.3832 C   0  0  1  0  0  0  0  0  0  0  0  0
    0.0142   -0.7800    1.1506 H   0  0  0  0  0  0  0  0  0  0  0  0
    0.0816   -0.5059   -0.9788 C   0  0  0  0  0  0  0  0  0  0  0  0
    1.0471    0.0037   -0.9515 H   0  0  0  0  0  0  0  0  0  0  0  0
    0.2615   -1.5679   -1.1517 H   0  0  0  0  0  0  0  0  0  0  0  0
   -0.7247    0.0526   -2.1571 C   0  0  0  0  0  0  0  0  0  0  0  0
   -1.7680   -0.2420   -2.0478 H   0  0  0  0  0  0  0  0  0  0  0  0
   -0.6639    1.1414   -2.1383 H   0  0  0  0  0  0  0  0  0  0  0  0
   -0.1441   -0.5246   -3.7724 S   0  0  0  0  0  0  0  0  0  0  0  0
    1.4487    0.3346   -3.8542 C   0  0  0  0  0  0  0  0  0  0  0  0
    2.0798    0.0189   -3.0229 H   0  0  0  0  0  0  0  0  0  0  0  0
    1.9438    0.0893   -4.7942 H   0  0  0  0  0  0  0  0  0  0  0  0
    1.2885    1.4119   -3.8036 H   0  0  0  0  0  0  0  0  0  0  0  0
   -0.8064    1.1568    0.7414 C   0  0  0  0  0  0  0  0  0  0  0  0
   -1.6978    1.8100    0.2029 O   0  0  0  0  0  0  0  0  0  0  0  0
    0.0314    1.6872    1.6415 N   0  0  0  0  0  0  0  0  0  0  0  0
    0.7279    1.0858    2.0517 H   0  0  0  0  0  0  0  0  0  0  0  0
   -0.0137    3.0826    2.0755 C   0  0  0  0  0  0  0  0  0  0  0  0
   -0.9991    3.3070    2.4905 H   0  0  0  0  0  0  0  0  0  0  0  0
    0.7468    3.2694    2.8349 H   0  0  0  0  0  0  0  0  0  0  0  0
    0.1592    3.7397    1.2213 H   0  0  0  0  0  0  0  0  0  0  0  0
  5  6  2  0  0  0  0
  5  7  1  0  0  0  0
  2  3  1  0  0  0  0
  2  4  1  0  0  0  0
  2  5  1  0  0  0  0
  1  2  1  0  0  0  0
 22 23  2  0  0  0  0
 22 24  1  0  0  0  0
 18 19  1  0  0  0  0
 18 20  1  0  0  0  0
 18 21  1  0  0  0  0
 17 18  1  0  0  0  0
 14 15  1  0  0  0  0
 14 16  1  0  0  0  0
 14 17  1  0  0  0  0
 11 12  1  0  0  0  0
 11 13  1  0  0  0  0
 11 14  1  0  0  0  0
  9 10  1  0  0  0  0
  9 11  1  0  0  0  0
  9 22  1  0  0  0  0
  7  8  1  0  0  0  0
  7  9  1  0  0  0  0
 26 27  1  0  0  0  0
 26 28  1  0  0  0  0
 26 29  1  0  0  0  0
 24 25  1  0  0  0  0
 24 26  1  0  0  0  0
M  END
$$$$
default_name
  -OEChem-02102213163D

 29 28  0     1  0  0  0  0  0999 V2000
   -3.5781   -3.7296    1.2702 H   0  0  0  0  0  0  0  0  0  0  0  0
   -3.5311   -2.7616    0.7732 C   0  0  0  0  0  0  0  0  0  0  0  0
   -4.2371   -2.0766    1.2382 H   0  0  0  0  0  0  0  0  0  0  0  0
   -3.7681   -2.8816   -0.2818 H   0  0  0  0  0  0  0  0  0  0  0  0
   -2.1321   -2.2086    0.9112 C   0  0  0  0  0  0  0  0  0  0  0  0
   -1.2751   -2.8426    1.5112 O   0  0  0  0  0  0  0  0  0  0  0  0
   -1.9041   -1.0186    0.3602 N   0  0  0  0  0  0  0  0  0  0  0  0
   -2.6671   -0.5416   -0.0988 H   0  0  0  0  0  0  0  0  0  0  0  0
   -0.6131   -0.3236    0.3832 C   0  0  1  0  0  0  0  0  0  0  0  0
    0.0142   -0.7800    1.1506 H   0  0  0  0  0  0  0  0  0  0  0  0
    0.0816   -0.5059   -0.9788 C   0  0  0  0  0  0  0  0  0  0  0  0
    1.0471    0.0037   -0.9515 H   0  0  0  0  0  0  0  0  0  0  0  0
    0.2615   -1.5679   -1.1517 H   0  0  0  0  0  0  0  0  0  0  0  0
   -0.7247    0.0526   -2.1571 C   0  0  0  0  0  0  0  0  0  0  0  0
   -1.7871   -0.0051   -1.9224 H   0  0  0  0  0  0  0  0  0  0  0  0
   -0.4540    1.0991   -2.3021 H   0  0  0  0  0  0  0  0  0  0  0  0
   -0.4440   -0.8313   -3.7126 S   0  0  0  0  0  0  0  0  0  0  0  0
    1.2659   -0.3351   -4.0466 C   0  0  0  0  0  0  0  0  0  0  0  0
    1.9106   -0.6659   -3.2317 H   0  0  0  0  0  0  0  0  0  0  0  0
    1.6001   -0.7938   -4.9776 H   0  0  0  0  0  0  0  0  0  0  0  0
    1.3224    0.7497   -4.1407 H   0  0  0  0  0  0  0  0  0  0  0  0
   -0.8064    1.1568    0.7414 C   0  0  0  0  0  0  0  0  0  0  0  0
   -1.6978    1.8100    0.2029 O   0  0  0  0  0  0  0  0  0  0  0  0
    0.0314    1.6872    1.6415 N   0  0  0  0  0  0  0  0  0  0  0  0
    0.7279    1.0858    2.0517 H   0  0  0  0  0  0  0  0  0  0  0  0
   -0.0137    3.0826    2.0755 C   0  0  0  0  0  0  0  0  0  0  0  0
   -0.9991    3.3070    2.4905 H   0  0  0  0  0  0  0  0  0  0  0  0
    0.7468    3.2694    2.8349 H   0  0  0  0  0  0  0  0  0  0  0  0
    0.1592    3.7397    1.2213 H   0  0  0  0  0  0  0  0  0  0  0  0
  5  6  2  0  0  0  0
  5  7  1  0  0  0  0
  2  3  1  0  0  0  0
  2  4  1  0  0  0  0
  2  5  1  0  0  0  0
  1  2  1  0  0  0  0
 22 23  2  0  0  0  0
 22 24  1  0  0  0  0
 18 19  1  0  0  0  0
 18 20  1  0  0  0  0
 18 21  1  0  0  0  0
 17 18  1  0  0  0  0
 14 15  1  0  0  0  0
 14 16  1  0  0  0  0
 14 17  1  0  0  0  0
 11 12  1  0  0  0  0
 11 13  1  0  0  0  0
 11 14  1  0  0  0  0
  9 10  1  0  0  0  0
  9 11  1  0  0  0  0
  9 22  1  0  0  0  0
  7  8  1  0  0  0  0
  7  9  1  0  0  0  0
 26 27  1  0  0  0  0
 26 28  1  0  0  0  0
 26 29  1  0  0  0  0
 24 25  1  0  0  0  0
 24 26  1  0  0  0  0
M  END
$$$$
default_name
  -OEChem-02102213163D

 29 28  0     1  0  0  0  0  0999 V2000
   -3.5781   -3.7296    1.2702 H   0  0  0  0  0  0  0  0  0  0  0  0
   -3.5311   -2.7616    0.7732 C   0  0  0  0  0  0  0  0  0  0  0  0
   -4.2371   -2.0766    1.2382 H   0  0  0  0  0  0  0  0  0  0  0  0
   -3.7681   -2.8816   -0.2818 H   0  0  0  0  0  0  0  0  0  0  0  0
   -2.1321   -2.2086    0.9112 C   0  0  0  0  0  0  0  0  0  0  0  0
   -1.2751   -2.8426    1.5112 O   0  0  0  0  0  0  0  0  0  0  0  0
   -1.9041   -1.0186    0.3602 N   0  0  0  0  0  0  0  0  0  0  0  0
   -2.6671   -0.5416   -0.0988 H   0  0  0  0  0  0  0  0  0  0  0  0
   -0.6131   -0.3236    0.3832 C   0  0  1  0  0  0  0  0  0  0  0  0
    0.0142   -0.7800    1.1506 H   0  0  0  0  0  0  0  0  0  0  0  0
    0.0816   -0.5059   -0.9788 C   0  0  0  0  0  0  0  0  0  0  0  0
    1.0471    0.0037   -0.9515 H   0  0  0  0  0  0  0  0  0  0  0  0
    0.2615   -1.5679   -1.1517 H   0  0  0  0  0  0  0  0  0  0  0  0
   -0.7247    0.0526   -2.1571 C   0  0  0  0  0  0  0  0  0  0  0  0
   -1.7467    0.2446   -1.8317 H   0  0  0  0  0  0  0  0  0  0  0  0
   -0.2750    0.9942   -2.4743 H   0  0  0  0  0  0  0  0  0  0  0  0
   -0.7891   -1.0598   -3.5847 S   0  0  0  0  0  0  0  0  0  0  0  0
    0.9381   -0.9718   -4.1240 C   0  0  0  0  0  0  0  0  0  0  0  0
    1.5913   -1.3221   -3.3243 H   0  0  0  0  0  0  0  0  0  0  0  0
    1.0752   -1.6034   -5.0021 H   0  0  0  0  0  0  0  0  0  0  0  0
    1.1918    0.0575   -4.3794 H   0  0  0  0  0  0  0  0  0  0  0  0
   -0.8064    1.1568    0.7414 C   0  0  0  0  0  0  0  0  0  0  0  0
   -1.6978    1.8100    0.2029 O   0  0  0  0  0  0  0  0  0  0  0  0
    0.0314    1.6872    1.6415 N   0  0  0  0  0  0  0  0  0  0  0  0
    0.7279    1.0858    2.0517 H   0  0  0  0  0  0  0  0  0  0  0  0
   -0.0137    3.0826    2.0755 C   0  0  0  0  0  0  0  0  0  0  0  0
   -0.9991    3.3070    2.4905 H   0  0  0  0  0  0  0  0  0  0  0  0
    0.7468    3.2694    2.8349 H   0  0  0  0  0  0  0  0  0  0  0  0
    0.1592    3.7397    1.2213 H   0  0  0  0  0  0  0  0  0  0  0  0
  5  6  2  0  0  0  0
  5  7  1  0  0  0  0
  2  3  1  0  0  0  0
  2  4  1  0  0  0  0
  2  5  1  0  0  0  0
  1  2  1  0  0  0  0
 22 23  2  0  0  0  0
 22 24  1  0  0  0  0
 18 19  1  0  0  0  0
 18 20  1  0  0  0  0
 18 21  1  0  0  0  0
 17 18  1  0  0  0  0
 14 15  1  0  0  0  0
 14 16  1  0  0  0  0
 14 17  1  0  0  0  0
 11 12  1  0  0  0  0
 11 13  1  0  0  0  0
 11 14  1  0  0  0  0
  9 10  1  0  0  0  0
  9 11  1  0  0  0  0
  9 22  1  0  0  0  0
  7  8  1  0  0  0  0
  7  9  1  0  0  0  0
 26 27  1  0  0  0  0
 26 28  1  0  0  0  0
 26 29  1  0  0  0  0
 24 25  1  0  0  0  0
 24 26  1  0  0  0  0
M  END
$$$$
default_name
  -OEChem-02102213163D

 29 28  0     1  0  0  0  0  0999 V2000
   -3.5781   -3.7296    1.2702 H   0  0  0  0  0  0  0  0  0  0  0  0
   -3.5311   -2.7616    0.7732 C   0  0  0  0  0  0  0  0  0  0  0  0
   -4.2371   -2.0766    1.2382 H   0  0  0  0  0  0  0  0  0  0  0  0
   -3.7681   -2.8816   -0.2818 H   0  0  0  0  0  0  0  0  0  0  0  0
   -2.1321   -2.2086    0.9112 C   0  0  0  0  0  0  0  0  0  0  0  0
   -1.2751   -2.8426    1.5112 O   0  0  0  0  0  0  0  0  0  0  0  0
   -1.9041   -1.0186    0.3602 N   0  0  0  0  0  0  0  0  0  0  0  0
   -2.6671   -0.5416   -0.0988 H   0  0  0  0  0  0  0  0  0  0  0  0
   -0.6131   -0.3236    0.3832 C   0  0  1  0  0  0  0  0  0  0  0  0
    0.0142   -0.7800    1.1506 H   0  0  0  0  0  0  0  0  0  0  0  0
    0.0816   -0.5059   -0.9788 C   0  0  0  0  0  0  0  0  0  0  0  0
    1.0471    0.0037   -0.9515 H   0  0  0  0  0  0  0  0  0  0  0  0
    0.2615   -1.5679   -1.1517 H   0  0  0  0  0  0  0  0  0  0  0  0
   -0.7247    0.0526   -2.1571 C   0  0  0  0  0  0  0  0  0  0  0  0
   -1.6494    0.4901   -1.7819 H   0  0  0  0  0  0  0  0  0  0  0  0
   -0.1392    0.8338   -2.6432 H   0  0  0  0  0  0  0  0  0  0  0  0
   -1.1558   -1.1944   -3.3976 S   0  0  0  0  0  0  0  0  0  0  0  0
    0.4875   -1.5321   -4.0812 C   0  0  0  0  0  0  0  0  0  0  0  0
    1.1436   -1.9050   -3.2942 H   0  0  0  0  0  0  0  0  0  0  0  0
    0.4048   -2.2844   -4.8661 H   0  0  0  0  0  0  0  0  0  0  0  0
    0.9053   -0.6177   -4.5034 H   0  0  0  0  0  0  0  0  0  0  0  0
   -0.8064    1.1568    0.7414 C   0  0  0  0  0  0  0  0  0  0  0  0
   -1.6978    1.8100    0.2029 O   0  0  0  0  0  0  0  0  0  0  0  0
    0.0314    1.6872    1.6415 N   0  0  0  0  0  0  0  0  0  0  0  0
    0.7279    1.0858    2.0517 H   0  0  0  0  0  0  0  0  0  0  0  0
   -0.0137    3.0826    2.0755 C   0  0  0  0  0  0  0  0  0  0  0  0
   -0.9991    3.3070    2.4905 H   0  0  0  0  0  0  0  0  0  0  0  0
    0.7468    3.2694    2.8349 H   0  0  0  0  0  0  0  0  0  0  0  0
    0.1592    3.7397    1.2213 H   0  0  0  0  0  0  0  0  0  0  0  0
  5  6  2  0  0  0  0
  5  7  1  0  0  0  0
  2  3  1  0  0  0  0
  2  4  1  0  0  0  0
  2  5  1  0  0  0  0
  1  2  1  0  0  0  0
 22 23  2  0  0  0  0
 22 24  1  0  0  0  0
 18 19  1  0  0  0  0
 18 20  1  0  0  0  0
 18 21  1  0  0  0  0
 17 18  1  0  0  0  0
 14 15  1  0  0  0  0
 14 16  1  0  0  0  0
 14 17  1  0  0  0  0
 11 12  1  0  0  0  0
 11 13  1  0  0  0  0
 11 14  1  0  0  0  0
  9 10  1  0  0  0  0
  9 11  1  0  0  0  0
  9 22  1  0  0  0  0
  7  8  1  0  0  0  0
  7  9  1  0  0  0  0
 26 27  1  0  0  0  0
 26 28  1  0  0  0  0
 26 29  1  0  0  0  0
 24 25  1  0  0  0  0
 24 26  1  0  0  0  0
M  END
$$$$
default_name
  -OEChem-02102213163D

 29 28  0     1  0  0  0  0  0999 V2000
   -3.5781   -3.7296    1.2702 H   0  0  0  0  0  0  0  0  0  0  0  0
   -3.5311   -2.7616    0.7732 C   0  0  0  0  0  0  0  0  0  0  0  0
   -4.2371   -2.0766    1.2382 H   0  0  0  0  0  0  0  0  0  0  0  0
   -3.7681   -2.8816   -0.2818 H   0  0  0  0  0  0  0  0  0  0  0  0
   -2.1321   -2.2086    0.9112 C   0  0  0  0  0  0  0  0  0  0  0  0
   -1.2751   -2.8426    1.5112 O   0  0  0  0  0  0  0  0  0  0  0  0
   -1.9041   -1.0186    0.3602 N   0  0  0  0  0  0  0  0  0  0  0  0
   -2.6671   -0.5416   -0.0988 H   0  0  0  0  0  0  0  0  0  0  0  0
   -0.6131   -0.3236    0.3832 C   0  0  1  0  0  0  0  0  0  0  0  0
    0.0142   -0.7800    1.1506 H   0  0  0  0  0  0  0  0  0  0  0  0
    0.0816   -0.5059   -0.9788 C   0  0  0  0  0  0  0  0  0  0  0  0
    1.0471    0.0037   -0.9515 H   0  0  0  0  0  0  0  0  0  0  0  0
    0.2615   -1.5679   -1.1517 H   0  0  0  0  0  0  0  0  0  0  0  0
   -0.7247    0.0526   -2.1571 C   0  0  0  0  0  0  0  0  0  0  0  0
   -1.5019    0.7146   -1.7765 H   0  0  0  0  0  0  0  0  0  0  0  0
   -0.0559    0.6289   -2.7974 H   0  0  0  0  0  0  0  0  0  0  0  0
   -1.5191   -1.2260   -3.1639 S   0  0  0  0  0  0  0  0  0  0  0  0
   -0.0552   -1.9779   -3.9211 C   0  0  0  0  0  0  0  0  0  0  0  0
    0.5981   -2.3750   -3.1436 H   0  0  0  0  0  0  0  0  0  0  0  0
   -0.3654   -2.7903   -4.5788 H   0  0  0  0  0  0  0  0  0  0  0  0
    0.4826   -1.2298   -4.5043 H   0  0  0  0  0  0  0  0  0  0  0  0
   -0.8064    1.1568    0.7414 C   0  0  0  0  0  0  0  0  0  0  0  0
   -1.6978    1.8100    0.2029 O   0  0  0  0  0  0  0  0  0  0  0  0
    0.0314    1.6872    1.6415 N   0  0  0  0  0  0  0  0  0  0  0  0
    0.7279    1.0858    2.0517 H   0  0  0  0  0  0  0  0  0  0  0  0
   -0.0137    3.0826    2.0755 C   0  0  0  0  0  0  0  0  0  0  0  0
   -0.9991    3.3070    2.4905 H   0  0  0  0  0  0  0  0  0  0  0  0
    0.7468    3.2694    2.8349 H   0  0  0  0  0  0  0  0  0  0  0  0
    0.1592    3.7397    1.2213 H   0  0  0  0  0  0  0  0  0  0  0  0
  5  6  2  0  0  0  0
  5  7  1  0  0  0  0
  2  3  1  0  0  0  0
  2  4  1  0  0  0  0
  2  5  1  0  0  0  0
  1  2  1  0  0  0  0
 22 23  2  0  0  0  0
 22 24  1  0  0  0  0
 18 19  1  0  0  0  0
 18 20  1  0  0  0  0
 18 21  1  0  0  0  0
 17 18  1  0  0  0  0
 14 15  1  0  0  0  0
 14 16  1  0  0  0  0
 14 17  1  0  0  0  0
 11 12  1  0  0  0  0
 11 13  1  0  0  0  0
 11 14  1  0  0  0  0
  9 10  1  0  0  0  0
  9 11  1  0  0  0  0
  9 22  1  0  0  0  0
  7  8  1  0  0  0  0
  7  9  1  0  0  0  0
 26 27  1  0  0  0  0
 26 28  1  0  0  0  0
 26 29  1  0  0  0  0
 24 25  1  0  0  0  0
 24 26  1  0  0  0  0
M  END
$$$$
default_name
  -OEChem-02102213163D

 29 28  0     1  0  0  0  0  0999 V2000
   -3.5781   -3.7296    1.2702 H   0  0  0  0  0  0  0  0  0  0  0  0
   -3.5311   -2.7616    0.7732 C   0  0  0  0  0  0  0  0  0  0  0  0
   -4.2371   -2.0766    1.2382 H   0  0  0  0  0  0  0  0  0  0  0  0
   -3.7681   -2.8816   -0.2818 H   0  0  0  0  0  0  0  0  0  0  0  0
   -2.1321   -2.2086    0.9112 C   0  0  0  0  0  0  0  0  0  0  0  0
   -1.2751   -2.8426    1.5112 O   0  0  0  0  0  0  0  0  0  0  0  0
   -1.9041   -1.0186    0.3602 N   0  0  0  0  0  0  0  0  0  0  0  0
   -2.6671   -0.5416   -0.0988 H   0  0  0  0  0  0  0  0  0  0  0  0
   -0.6131   -0.3236    0.3832 C   0  0  1  0  0  0  0  0  0  0  0  0
    0.0142   -0.7800    1.1506 H   0  0  0  0  0  0  0  0  0  0  0  0
    0.0816   -0.5059   -0.9788 C   0  0  0  0  0  0  0  0  0  0  0  0
    1.0471    0.0037   -0.9515 H   0  0  0  0  0  0  0  0  0  0  0  0
    0.2615   -1.5679   -1.1517 H   0  0  0  0  0  0  0  0  0  0  0  0
   -0.7247    0.0526   -2.1571 C   0  0  0  0  0  0  0  0  0  0  0  0
   -1.3143    0.9029   -1.8156 H   0  0  0  0  0  0  0  0  0  0  0  0
   -0.0307    0.3934   -2.9262 H   0  0  0  0  0  0  0  0  0  0  0  0
   -1.8543   -1.1525   -2.8997 S   0  0  0  0  0  0  0  0  0  0  0  0
   -0.6529   -2.2787   -3.6547 C   0  0  0  0  0  0  0  0  0  0  0  0
   -0.0082   -2.6999   -2.8827 H   0  0  0  0  0  0  0  0  0  0  0  0
   -1.1829   -3.0867   -4.1599 H   0  0  0  0  0  0  0  0  0  0  0  0
   -0.0475   -1.7371   -4.3819 H   0  0  0  0  0  0  0  0  0  0  0  0
   -0.8064    1.1568    0.7414 C   0  0  0  0  0  0  0  0  0  0  0  0
   -1.6978    1.8100    0.2029 O   0  0  0  0  0  0  0  0  0  0  0  0
    0.0314    1.6872    1.6415 N   0  0  0  0  0  0  0  0  0  0  0  0
    0.7279    1.0858    2.0517 H   0  0  0  0  0  0  0  0  0  0  0  0
   -0.0137    3.0826    2.0755 C   0  0  0  0  0  0  0  0  0  0  0  0
   -0.9991    3.3070    2.4905 H   0  0  0  0  0  0  0  0  0  0  0  0
    0.7468    3.2694    2.8349 H   0  0  0  0  0  0  0  0  0  0  0  0
    0.1592    3.7397    1.2213 H   0  0  0  0  0  0  0  0  0  0  0  0
  5  6  2  0  0  0  0
  5  7  1  0  0  0  0
  2  3  1  0  0  0  0
  2  4  1  0  0  0  0
  2  5  1  0  0  0  0
  1  2  1  0  0  0  0
 22 23  2  0  0  0  0
 22 24  1  0  0  0  0
 18 19  1  0  0  0  0
 18 20  1  0  0  0  0
 18 21  1  0  0  0  0
 17 18  1  0  0  0  0
 14 15  1  0  0  0  0
 14 16  1  0  0  0  0
 14 17  1  0  0  0  0
 11 12  1  0  0  0  0
 11 13  1  0  0  0  0
 11 14  1  0  0  0  0
  9 10  1  0  0  0  0
  9 11  1  0  0  0  0
  9 22  1  0  0  0  0
  7  8  1  0  0  0  0
  7  9  1  0  0  0  0
 26 27  1  0  0  0  0
 26 28  1  0  0  0  0
 26 29  1  0  0  0  0
 24 25  1  0  0  0  0
 24 26  1  0  0  0  0
M  END
$$$$
default_name
  -OEChem-02102213163D

 29 28  0     1  0  0  0  0  0999 V2000
   -3.5781   -3.7296    1.2702 H   0  0  0  0  0  0  0  0  0  0  0  0
   -3.5311   -2.7616    0.7732 C   0  0  0  0  0  0  0  0  0  0  0  0
   -4.2371   -2.0766    1.2382 H   0  0  0  0  0  0  0  0  0  0  0  0
   -3.7681   -2.8816   -0.2818 H   0  0  0  0  0  0  0  0  0  0  0  0
   -2.1321   -2.2086    0.9112 C   0  0  0  0  0  0  0  0  0  0  0  0
   -1.2751   -2.8426    1.5112 O   0  0  0  0  0  0  0  0  0  0  0  0
   -1.9041   -1.0186    0.3602 N   0  0  0  0  0  0  0  0  0  0  0  0
   -2.6671   -0.5416   -0.0988 H   0  0  0  0  0  0  0  0  0  0  0  0
   -0.6131   -0.3236    0.3832 C   0  0  1  0  0  0  0  0  0  0  0  0
    0.0142   -0.7800    1.1506 H   0  0  0  0  0  0  0  0  0  0  0  0
    0.0816   -0.5059   -0.9788 C   0  0  0  0  0  0  0  0  0  0  0  0
    1.0471    0.0037   -0.9515 H   0  0  0  0  0  0  0  0  0  0  0  0
    0.2615   -1.5679   -1.1517 H   0  0  0  0  0  0  0  0  0  0  0  0
   -0.7247    0.0526   -2.1571 C   0  0  0  0  0  0  0  0  0  0  0  0
   -1.0993    1.0421   -1.8968 H   0  0  0  0  0  0  0  0  0  0  0  0
   -0.0653    0.1434   -3.0210 H   0  0  0  0  0  0  0  0  0  0  0  0
   -2.1385   -0.9788   -2.6228 S   0  0  0  0  0  0  0  0  0  0  0  0
   -1.2651   -2.4142   -3.3000 C   0  0  0  0  0  0  0  0  0  0  0  0
   -0.6338   -2.8576   -2.5293 H   0  0  0  0  0  0  0  0  0  0  0  0
   -1.9920   -3.1533   -3.6378 H   0  0  0  0  0  0  0  0  0  0  0  0
   -0.6489   -2.1049   -4.1447 H   0  0  0  0  0  0  0  0  0  0  0  0
   -0.8064    1.1568    0.7414 C   0  0  0  0  0  0  0  0  0  0  0  0
   -1.6978    1.8100    0.2029 O   0  0  0  0  0  0  0  0  0  0  0  0
    0.0314    1.6872    1.6415 N   0  0  0  0  0  0  0  0  0  0  0  0
    0.7279    1.0858    2.0517 H   0  0  0  0  0  0  0  0  0  0  0  0
   -0.0137    3.0826    2.0755 C   0  0  0  0  0  0  0  0  0  0  0  0
   -0.9991    3.3070    2.4905 H   0  0  0  0  0  0  0  0  0  0  0  0
    0.7468    3.2694    2.8349 H   0  0  0  0  0  0  0  0  0  0  0  0
    0.1592    3.7397    1.2213 H   0  0  0  0  0  0  0  0  0  0  0  0
  5  6  2  0  0  0  0
  5  7  1  0  0  0  0
  2  3  1  0  0  0  0
  2  4  1  0  0  0  0
  2  5  1  0  0  0  0
  1  2  1  0  0  0  0
 22 23  2  0  0  0  0
 22 24  1  0  0  0  0
 18 19  1  0  0  0  0
 18 20  1  0  0  0  0
 18 21  1  0  0  0  0
 17 18  1  0  0  0  0
 14 15  1  0  0  0  0
 14 16  1  0  0  0  0
 14 17  1  0  0  0  0
 11 12  1  0  0  0  0
 11 13  1  0  0  0  0
 11 14  1  0  0  0  0
  9 10  1  0  0  0  0
  9 11  1  0  0  0  0
  9 22  1  0  0  0  0
  7  8  1  0  0  0  0
  7  9  1  0  0  0  0
 26 27  1  0  0  0  0
 26 28  1  0  0  0  0
 26 29  1  0  0  0  0
 24 25  1  0  0  0  0
 24 26  1  0  0  0  0
M  END
$$$$
default_name
  -OEChem-02102213163D

 29 28  0     1  0  0  0  0  0999 V2000
   -3.5781   -3.7296    1.2702 H   0  0  0  0  0  0  0  0  0  0  0  0
   -3.5311   -2.7616    0.7732 C   0  0  0  0  0  0  0  0  0  0  0  0
   -4.2371   -2.0766    1.2382 H   0  0  0  0  0  0  0  0  0  0  0  0
   -3.7681   -2.8816   -0.2818 H   0  0  0  0  0  0  0  0  0  0  0  0
   -2.1321   -2.2086    0.9112 C   0  0  0  0  0  0  0  0  0  0  0  0
   -1.2751   -2.8426    1.5112 O   0  0  0  0  0  0  0  0  0  0  0  0
   -1.9041   -1.0186    0.3602 N   0  0  0  0  0  0  0  0  0  0  0  0
   -2.6671   -0.5416   -0.0988 H   0  0  0  0  0  0  0  0  0  0  0  0
   -0.6131   -0.3236    0.3832 C   0  0  1  0  0  0  0  0  0  0  0  0
    0.0142   -0.7800    1.1506 H   0  0  0  0  0  0  0  0  0  0  0  0
    0.0816   -0.5059   -0.9788 C   0  0  0  0  0  0  0  0  0  0  0  0
    1.0471    0.0037   -0.9515 H   0  0  0  0  0  0  0  0  0  0  0  0
    0.2615   -1.5679   -1.1517 H   0  0  0  0  0  0  0  0  0  0  0  0
   -0.7247    0.0526   -2.1571 C   0  0  0  0  0  0  0  0  0  0  0  0
   -0.8715    1.1228   -2.0144 H   0  0  0  0  0  0  0  0  0  0  0  0
   -0.1575   -0.1042   -3.0753 H   0  0  0  0  0  0  0  0  0  0  0  0
   -2.3525   -0.7168   -2.3523 S   0  0  0  0  0  0  0  0  0  0  0  0
   -1.8498   -2.3749   -2.8812 C   0  0  0  0  0  0  0  0  0  0  0  0
   -1.2362   -2.8374   -2.1075 H   0  0  0  0  0  0  0  0  0  0  0  0
   -2.7375   -2.9857   -3.0481 H   0  0  0  0  0  0  0  0  0  0  0  0
   -1.2806   -2.3084   -3.8088 H   0  0  0  0  0  0  0  0  0  0  0  0
   -0.8064    1.1568    0.7414 C   0  0  0  0  0  0  0  0  0  0  0  0
   -1.6978    1.8100    0.2029 O   0  0  0  0  0  0  0  0  0  0  0  0
    0.0314    1.6872    1.6415 N   0  0  0  0  0  0  0  0  0  0  0  0
    0.7279    1.0858    2.0517 H   0  0  0  0  0  0  0  0  0  0  0  0
   -0.0137    3.0826    2.0755 C   0  0  0  0  0  0  0  0  0  0  0  0
   -0.9991    3.3070    2.4905 H   0  0  0  0  0  0  0  0  0  0  0  0
    0.7468    3.2694    2.8349 H   0  0  0  0  0  0  0  0  0  0  0  0
    0.1592    3.7397    1.2213 H   0  0  0  0  0  0  0  0  0  0  0  0
  5  6  2  0  0  0  0
  5  7  1  0  0  0  0
  2  3  1  0  0  0  0
  2  4  1  0  0  0  0
  2  5  1  0  0  0  0
  1  2  1  0  0  0  0
 22 23  2  0  0  0  0
 22 24  1  0  0  0  0
 18 19  1  0  0  0  0
 18 20  1  0  0  0  0
 18 21  1  0  0  0  0
 17 18  1  0  0  0  0
 14 15  1  0  0  0  0
 14 16  1  0  0  0  0
 14 17  1  0  0  0  0
 11 12  1  0  0  0  0
 11 13  1  0  0  0  0
 11 14  1  0  0  0  0
  9 10  1  0  0  0  0
  9 11  1  0  0  0  0
  9 22  1  0  0  0  0
  7  8  1  0  0  0  0
  7  9  1  0  0  0  0
 26 27  1  0  0  0  0
 26 28  1  0  0  0  0
 26 29  1  0  0  0  0
 24 25  1  0  0  0  0
 24 26  1  0  0  0  0
M  END
$$$$
default_name
  -OEChem-02102213163D

 29 28  0     1  0  0  0  0  0999 V2000
   -3.5781   -3.7296    1.2702 H   0  0  0  0  0  0  0  0  0  0  0  0
   -3.5311   -2.7616    0.7732 C   0  0  0  0  0  0  0  0  0  0  0  0
   -4.2371   -2.0766    1.2382 H   0  0  0  0  0  0  0  0  0  0  0  0
   -3.7681   -2.8816   -0.2818 H   0  0  0  0  0  0  0  0  0  0  0  0
   -2.1321   -2.2086    0.9112 C   0  0  0  0  0  0  0  0  0  0  0  0
   -1.2751   -2.8426    1.5112 O   0  0  0  0  0  0  0  0  0  0  0  0
   -1.9041   -1.0186    0.3602 N   0  0  0  0  0  0  0  0  0  0  0  0
   -2.6671   -0.5416   -0.0988 H   0  0  0  0  0  0  0  0  0  0  0  0
   -0.6131   -0.3236    0.3832 C   0  0  1  0  0  0  0  0  0  0  0  0
    0.0142   -0.7800    1.1506 H   0  0  0  0  0  0  0  0  0  0  0  0
    0.0816   -0.5059   -0.9788 C   0  0  0  0  0  0  0  0  0  0  0  0
    1.0471    0.0037   -0.9515 H   0  0  0  0  0  0  0  0  0  0  0  0
    0.2615   -1.5679   -1.1517 H   0  0  0  0  0  0  0  0  0  0  0  0
   -0.7247    0.0526   -2.1571 C   0  0  0  0  0  0  0  0  0  0  0  0
   -0.6466    1.1394   -2.1604 H   0  0  0  0  0  0  0  0  0  0  0  0
   -0.3009   -0.3323   -3.0853 H   0  0  0  0  0  0  0  0  0  0  0  0
   -2.4815   -0.3844   -2.1064 S   0  0  0  0  0  0  0  0  0  0  0  0
   -2.3674   -2.1637   -2.4269 C   0  0  0  0  0  0  0  0  0  0  0  0
   -1.7742   -2.6406   -1.6461 H   0  0  0  0  0  0  0  0  0  0  0  0
   -3.3687   -2.5951   -2.4310 H   0  0  0  0  0  0  0  0  0  0  0  0
   -1.8997   -2.3335   -3.3971 H   0  0  0  0  0  0  0  0  0  0  0  0
   -0.8064    1.1568    0.7414 C   0  0  0  0  0  0  0  0  0  0  0  0
   -1.6978    1.8100    0.2029 O   0  0  0  0  0  0  0  0  0  0  0  0
    0.0314    1.6872    1.6415 N   0  0  0  0  0  0  0  0  0  0  0  0
    0.7279    1.0858    2.0517 H   0  0  0  0  0  0  0  0  0  0  0  0
   -0.0137    3.0826    2.0755 C   0  0  0  0  0  0  0  0  0  0  0  0
   -0.9991    3.3070    2.4905 H   0  0  0  0  0  0  0  0  0  0  0  0
    0.7468    3.2694    2.8349 H   0  0  0  0  0  0  0  0  0  0  0  0
    0.1592    3.7397    1.2213 H   0  0  0  0  0  0  0  0  0  0  0  0
  5  6  2  0  0  0  0
  5  7  1  0  0  0  0
  2  3  1  0  0  0  0
  2  4  1  0  0  0  0
  2  5  1  0  0  0  0
  1  2  1  0  0  0  0
 22 23  2  0  0  0  0
 22 24  1  0  0  0  0
 18 19  1  0  0  0  0
 18 20  1  0  0  0  0
 18 21  1  0  0  0  0
 17 18  1  0  0  0  0
 14 15  1  0  0  0  0
 14 16  1  0  0  0  0
 14 17  1  0  0  0  0
 11 12  1  0  0  0  0
 11 13  1  0  0  0  0
 11 14  1  0  0  0  0
  9 10  1  0  0  0  0
  9 11  1  0  0  0  0
  9 22  1  0  0  0  0
  7  8  1  0  0  0  0
  7  9  1  0  0  0  0
 26 27  1  0  0  0  0
 26 28  1  0  0  0  0
 26 29  1  0  0  0  0
 24 25  1  0  0  0  0
 24 26  1  0  0  0  0
M  END
$$$$
default_name
  -OEChem-02102213163D

 29 28  0     1  0  0  0  0  0999 V2000
   -3.5781   -3.7296    1.2702 H   0  0  0  0  0  0  0  0  0  0  0  0
   -3.5311   -2.7616    0.7732 C   0  0  0  0  0  0  0  0  0  0  0  0
   -4.2371   -2.0766    1.2382 H   0  0  0  0  0  0  0  0  0  0  0  0
   -3.7681   -2.8816   -0.2818 H   0  0  0  0  0  0  0  0  0  0  0  0
   -2.1321   -2.2086    0.9112 C   0  0  0  0  0  0  0  0  0  0  0  0
   -1.2751   -2.8426    1.5112 O   0  0  0  0  0  0  0  0  0  0  0  0
   -1.9041   -1.0186    0.3602 N   0  0  0  0  0  0  0  0  0  0  0  0
   -2.6671   -0.5416   -0.0988 H   0  0  0  0  0  0  0  0  0  0  0  0
   -0.6131   -0.3236    0.3832 C   0  0  1  0  0  0  0  0  0  0  0  0
    0.0142   -0.7800    1.1506 H   0  0  0  0  0  0  0  0  0  0  0  0
    0.0816   -0.5059   -0.9788 C   0  0  0  0  0  0  0  0  0  0  0  0
    1.0471    0.0037   -0.9515 H   0  0  0  0  0  0  0  0  0  0  0  0
    0.2615   -1.5679   -1.1517 H   0  0  0  0  0  0  0  0  0  0  0  0
   -0.7247    0.0526   -2.1571 C   0  0  0  0  0  0  0  0  0  0  0  0
   -0.4398    1.0908   -2.3250 H   0  0  0  0  0  0  0  0  0  0  0  0
   -0.4857   -0.5255   -3.0504 H   0  0  0  0  0  0  0  0  0  0  0  0
   -2.5167   -0.0041   -1.9020 S   0  0  0  0  0  0  0  0  0  0  0  0
   -2.7824   -1.7949   -1.9680 C   0  0  0  0  0  0  0  0  0  0  0  0
   -2.2113   -2.2807   -1.1764 H   0  0  0  0  0  0  0  0  0  0  0  0
   -3.8425   -2.0084   -1.8287 H   0  0  0  0  0  0  0  0  0  0  0  0
   -2.4637   -2.1785   -2.9376 H   0  0  0  0  0  0  0  0  0  0  0  0
   -0.8064    1.1568    0.7414 C   0  0  0  0  0  0  0  0  0  0  0  0
   -1.6978    1.8100    0.2029 O   0  0  0  0  0  0  0  0  0  0  0  0
    0.0314    1.6872    1.6415 N   0  0  0  0  0  0  0  0  0  0  0  0
    0.7279    1.0858    2.0517 H   0  0  0  0  0  0  0  0  0  0  0  0
   -0.0137    3.0826    2.0755 C   0  0  0  0  0  0  0  0  0  0  0  0
   -0.9991    3.3070    2.4905 H   0  0  0  0  0  0  0  0  0  0  0  0
    0.7468    3.2694    2.8349 H   0  0  0  0  0  0  0  0  0  0  0  0
    0.1592    3.7397    1.2213 H   0  0  0  0  0  0  0  0  0  0  0  0
  5  6  2  0  0  0  0
  5  7  1  0  0  0  0
  2  3  1  0  0  0  0
  2  4  1  0  0  0  0
  2  5  1  0  0  0  0
  1  2  1  0  0  0  0
 22 23  2  0  0  0  0
 22 24  1  0  0  0  0
 18 19  1  0  0  0  0
 18 20  1  0  0  0  0
 18 21  1  0  0  0  0
 17 18  1  0  0  0  0
 14 15  1  0  0  0  0
 14 16  1  0  0  0  0
 14 17  1  0  0  0  0
 11 12  1  0  0  0  0
 11 13  1  0  0  0  0
 11 14  1  0  0  0  0
  9 10  1  0  0  0  0
  9 11  1  0  0  0  0
  9 22  1  0  0  0  0
  7  8  1  0  0  0  0
  7  9  1  0  0  0  0
 26 27  1  0  0  0  0
 26 28  1  0  0  0  0
 26 29  1  0  0  0  0
 24 25  1  0  0  0  0
 24 26  1  0  0  0  0
M  END
$$$$
default_name
  -OEChem-02102213163D

 29 28  0     1  0  0  0  0  0999 V2000
   -3.5781   -3.7296    1.2702 H   0  0  0  0  0  0  0  0  0  0  0  0
   -3.5311   -2.7616    0.7732 C   0  0  0  0  0  0  0  0  0  0  0  0
   -4.2371   -2.0766    1.2382 H   0  0  0  0  0  0  0  0  0  0  0  0
   -3.7681   -2.8816   -0.2818 H   0  0  0  0  0  0  0  0  0  0  0  0
   -2.1321   -2.2086    0.9112 C   0  0  0  0  0  0  0  0  0  0  0  0
   -1.2751   -2.8426    1.5112 O   0  0  0  0  0  0  0  0  0  0  0  0
   -1.9041   -1.0186    0.3602 N   0  0  0  0  0  0  0  0  0  0  0  0
   -2.6671   -0.5416   -0.0988 H   0  0  0  0  0  0  0  0  0  0  0  0
   -0.6131   -0.3236    0.3832 C   0  0  1  0  0  0  0  0  0  0  0  0
    0.0142   -0.7800    1.1506 H   0  0  0  0  0  0  0  0  0  0  0  0
    0.0816   -0.5059   -0.9788 C   0  0  0  0  0  0  0  0  0  0  0  0
    1.0471    0.0037   -0.9515 H   0  0  0  0  0  0  0  0  0  0  0  0
    0.2615   -1.5679   -1.1517 H   0  0  0  0  0  0  0  0  0  0  0  0
   -0.7247    0.0526   -2.1571 C   0  0  0  0  0  0  0  0  0  0  0  0
   -0.2653    0.9803   -2.4968 H   0  0  0  0  0  0  0  0  0  0  0  0
   -0.6993   -0.6706   -2.9730 H   0  0  0  0  0  0  0  0  0  0  0  0
   -2.4559    0.3980   -1.7531 S   0  0  0  0  0  0  0  0  0  0  0  0
   -3.0667   -1.2936   -1.5359 C   0  0  0  0  0  0  0  0  0  0  0  0
   -2.5176   -1.7822   -0.7305 H   0  0  0  0  0  0  0  0  0  0  0  0
   -4.1267   -1.2654   -1.2820 H   0  0  0  0  0  0  0  0  0  0  0  0
   -2.9345   -1.8541   -2.4617 H   0  0  0  0  0  0  0  0  0  0  0  0
   -0.8064    1.1568    0.7414 C   0  0  0  0  0  0  0  0  0  0  0  0
   -1.6978    1.8100    0.2029 O   0  0  0  0  0  0  0  0  0  0  0  0
    0.0314    1.6872    1.6415 N   0  0  0  0  0  0  0  0  0  0  0  0
    0.7279    1.0858    2.0517 H   0  0  0  0  0  0  0  0  0  0  0  0
   -0.0137    3.0826    2.0755 C   0  0  0  0  0  0  0  0  0  0  0  0
   -0.9991    3.3070    2.4905 H   0  0  0  0  0  0  0  0  0  0  0  0
    0.7468    3.2694    2.8349 H   0  0  0  0  0  0  0  0  0  0  0  0
    0.1592    3.7397    1.2213 H   0  0  0  0  0  0  0  0  0  0  0  0
  5  6  2  0  0  0  0
  5  7  1  0  0  0  0
  2  3  1  0  0  0  0
  2  4  1  0  0  0  0
  2  5  1  0  0  0  0
  1  2  1  0  0  0  0
 22 23  2  0  0  0  0
 22 24  1  0  0  0  0
 18 19  1  0  0  0  0
 18 20  1  0  0  0  0
 18 21  1  0  0  0  0
 17 18  1  0  0  0  0
 14 15  1  0  0  0  0
 14 16  1  0  0  0  0
 14 17  1  0  0  0  0
 11 12  1  0  0  0  0
 11 13  1  0  0  0  0
 11 14  1  0  0  0  0
  9 10  1  0  0  0  0
  9 11  1  0  0  0  0
  9 22  1  0  0  0  0
  7  8  1  0  0  0  0
  7  9  1  0  0  0  0
 26 27  1  0  0  0  0
 26 28  1  0  0  0  0
 26 29  1  0  0  0  0
 24 25  1  0  0  0  0
 24 26  1  0  0  0  0
M  END
$$$$
default_name
  -OEChem-02102213163D

 29 28  0     1  0  0  0  0  0999 V2000
   -3.5781   -3.7296    1.2702 H   0  0  0  0  0  0  0  0  0  0  0  0
   -3.5311   -2.7616    0.7732 C   0  0  0  0  0  0  0  0  0  0  0  0
   -4.2371   -2.0766    1.2382 H   0  0  0  0  0  0  0  0  0  0  0  0
   -3.7681   -2.8816   -0.2818 H   0  0  0  0  0  0  0  0  0  0  0  0
   -2.1321   -2.2086    0.9112 C   0  0  0  0  0  0  0  0  0  0  0  0
   -1.2751   -2.8426    1.5112 O   0  0  0  0  0  0  0  0  0  0  0  0
   -1.9041   -1.0186    0.3602 N   0  0  0  0  0  0  0  0  0  0  0  0
   -2.6671   -0.5416   -0.0988 H   0  0  0  0  0  0  0  0  0  0  0  0
   -0.6131   -0.3236    0.3832 C   0  0  1  0  0  0  0  0  0  0  0  0
    0.0142   -0.7800    1.1506 H   0  0  0  0  0  0  0  0  0  0  0  0
    0.0816   -0.5059   -0.9788 C   0  0  0  0  0  0  0  0  0  0  0  0
    1.0471    0.0037   -0.9515 H   0  0  0  0  0  0  0  0  0  0  0  0
    0.2615   -1.5679   -1.1517 H   0  0  0  0  0  0  0  0  0  0  0  0
   -0.7247    0.0526   -2.1571 C   0  0  0  0  0  0  0  0  0  0  0  0
   -0.1348    0.8155   -2.6642 H   0  0  0  0  0  0  0  0  0  0  0  0
   -0.9272   -0.7577   -2.8583 H   0  0  0  0  0  0  0  0  0  0  0  0
   -2.3032    0.7946   -1.6696 S   0  0  0  0  0  0  0  0  0  0  0  0
   -3.2009   -0.6941   -1.1599 C   0  0  0  0  0  0  0  0  0  0  0  0
   -2.6722   -1.1791   -0.3388 H   0  0  0  0  0  0  0  0  0  0  0  0
   -4.2019   -0.4167   -0.8283 H   0  0  0  0  0  0  0  0  0  0  0  0
   -3.2798   -1.3824   -2.0018 H   0  0  0  0  0  0  0  0  0  0  0  0
   -0.8064    1.1568    0.7414 C   0  0  0  0  0  0  0  0  0  0  0  0
   -1.6978    1.8100    0.2029 O   0  0  0  0  0  0  0  0  0  0  0  0
    0.0314    1.6872    1.6415 N   0  0  0  0  0  0  0  0  0  0  0  0
    0.7279    1.0858    2.0517 H   0  0  0  0  0  0  0  0  0  0  0  0
   -0.0137    3.0826    2.0755 C   0  0  0  0  0  0  0  0  0  0  0  0
   -0.9991    3.3070    2.4905 H   0  0  0  0  0  0  0  0  0  0  0  0
    0.7468    3.2694    2.8349 H   0  0  0  0  0  0  0  0  0  0  0  0
    0.1592    3.7397    1.2213 H   0  0  0  0  0  0  0  0  0  0  0  0
  5  6  2  0  0  0  0
  5  7  1  0  0  0  0
  2  3  1  0  0  0  0
  2  4  1  0  0  0  0
  2  5  1  0  0  0  0
  1  2  1  0  0  0  0
 22 23  2  0  0  0  0
 22 24  1  0  0  0  0
 18 19  1  0  0  0  0
 18 20  1  0  0  0  0
 18 21  1  0  0  0  0
 17 18  1  0  0  0  0
 14 15  1  0  0  0  0
 14 16  1  0  0  0  0
 14 17  1  0  0  0  0
 11 12  1  0  0  0  0
 11 13  1  0  0  0  0
 11 14  1  0  0  0  0
  9 10  1  0  0  0  0
  9 11  1  0  0  0  0
  9 22  1  0  0  0  0
  7  8  1  0  0  0  0
  7  9  1  0  0  0  0
 26 27  1  0  0  0  0
 26 28  1  0  0  0  0
 26 29  1  0  0  0  0
 24 25  1  0  0  0  0
 24 26  1  0  0  0  0
M  END
$$$$
default_name
  -OEChem-02102213163D

 29 28  0     1  0  0  0  0  0999 V2000
   -3.5781   -3.7296    1.2702 H   0  0  0  0  0  0  0  0  0  0  0  0
   -3.5311   -2.7616    0.7732 C   0  0  0  0  0  0  0  0  0  0  0  0
   -4.2371   -2.0766    1.2382 H   0  0  0  0  0  0  0  0  0  0  0  0
   -3.7681   -2.8816   -0.2818 H   0  0  0  0  0  0  0  0  0  0  0  0
   -2.1321   -2.2086    0.9112 C   0  0  0  0  0  0  0  0  0  0  0  0
   -1.2751   -2.8426    1.5112 O   0  0  0  0  0  0  0  0  0  0  0  0
   -1.9041   -1.0186    0.3602 N   0  0  0  0  0  0  0  0  0  0  0  0
   -2.6671   -0.5416   -0.0988 H   0  0  0  0  0  0  0  0  0  0  0  0
   -0.6131   -0.3236    0.3832 C   0  0  1  0  0  0  0  0  0  0  0  0
    0.0142   -0.7800    1.1506 H   0  0  0  0  0  0  0  0  0  0  0  0
    0.0816   -0.5059   -0.9788 C   0  0  0  0  0  0  0  0  0  0  0  0
    1.0471    0.0037   -0.9515 H   0  0  0  0  0  0  0  0  0  0  0  0
    0.2615   -1.5679   -1.1517 H   0  0  0  0  0  0  0  0  0  0  0  0
   -0.7247    0.0526   -2.1571 C   0  0  0  0  0  0  0  0  0  0  0  0
   -0.0574    0.6076   -2.8157 H   0  0  0  0  0  0  0  0  0  0  0  0
   -1.1539   -0.7809   -2.7142 H   0  0  0  0  0  0  0  0  0  0  0  0
   -2.0688    1.1587   -1.6574 S   0  0  0  0  0  0  0  0  0  0  0  0
   -3.1757   -0.0370   -0.8657 C   0  0  0  0  0  0  0  0  0  0  0  0
   -2.6647   -0.5124   -0.0279 H   0  0  0  0  0  0  0  0  0  0  0  0
   -4.0629    0.4797   -0.4986 H   0  0  0  0  0  0  0  0  0  0  0  0
   -3.4761   -0.7954   -1.5893 H   0  0  0  0  0  0  0  0  0  0  0  0
   -0.8064    1.1568    0.7414 C   0  0  0  0  0  0  0  0  0  0  0  0
   -1.6978    1.8100    0.2029 O   0  0  0  0  0  0  0  0  0  0  0  0
    0.0314    1.6872    1.6415 N   0  0  0  0  0  0  0  0  0  0  0  0
    0.7279    1.0858    2.0517 H   0  0  0  0  0  0  0  0  0  0  0  0
   -0.0137    3.0826    2.0755 C   0  0  0  0  0  0  0  0  0  0  0  0
   -0.9991    3.3070    2.4905 H   0  0  0  0  0  0  0  0  0  0  0  0
    0.7468    3.2694    2.8349 H   0  0  0  0  0  0  0  0  0  0  0  0
    0.1592    3.7397    1.2213 H   0  0  0  0  0  0  0  0  0  0  0  0
  5  6  2  0  0  0  0
  5  7  1  0  0  0  0
  2  3  1  0  0  0  0
  2  4  1  0  0  0  0
  2  5  1  0  0  0  0
  1  2  1  0  0  0  0
 22 23  2  0  0  0  0
 22 24  1  0  0  0  0
 18 19  1  0  0  0  0
 18 20  1  0  0  0  0
 18 21  1  0  0  0  0
 17 18  1  0  0  0  0
 14 15  1  0  0  0  0
 14 16  1  0  0  0  0
 14 17  1  0  0  0  0
 11 12  1  0  0  0  0
 11 13  1  0  0  0  0
 11 14  1  0  0  0  0
  9 10  1  0  0  0  0
  9 11  1  0  0  0  0
  9 22  1  0  0  0  0
  7  8  1  0  0  0  0
  7  9  1  0  0  0  0
 26 27  1  0  0  0  0
 26 28  1  0  0  0  0
 26 29  1  0  0  0  0
 24 25  1  0  0  0  0
 24 26  1  0  0  0  0
M  END
$$$$
default_name
  -OEChem-02102213163D

 29 28  0     1  0  0  0  0  0999 V2000
   -3.5781   -3.7296    1.2702 H   0  0  0  0  0  0  0  0  0  0  0  0
   -3.5311   -2.7616    0.7732 C   0  0  0  0  0  0  0  0  0  0  0  0
   -4.2371   -2.0766    1.2382 H   0  0  0  0  0  0  0  0  0  0  0  0
   -3.7681   -2.8816   -0.2818 H   0  0  0  0  0  0  0  0  0  0  0  0
   -2.1321   -2.2086    0.9112 C   0  0  0  0  0  0  0  0  0  0  0  0
   -1.2751   -2.8426    1.5112 O   0  0  0  0  0  0  0  0  0  0  0  0
   -1.9041   -1.0186    0.3602 N   0  0  0  0  0  0  0  0  0  0  0  0
   -2.6671   -0.5416   -0.0988 H   0  0  0  0  0  0  0  0  0  0  0  0
   -0.6131   -0.3236    0.3832 C   0  0  1  0  0  0  0  0  0  0  0  0
    0.0142   -0.7800    1.1506 H   0  0  0  0  0  0  0  0  0  0  0  0
    0.0816   -0.5059   -0.9788 C   0  0  0  0  0  0  0  0  0  0  0  0
    1.0471    0.0037   -0.9515 H   0  0  0  0  0  0  0  0  0  0  0  0
    0.2615   -1.5679   -1.1517 H   0  0  0  0  0  0  0  0  0  0  0  0
   -0.7247    0.0526   -2.1571 C   0  0  0  0  0  0  0  0  0  0  0  0
   -0.0382    0.3707   -2.9411 H   0  0  0  0  0  0  0  0  0  0  0  0
   -1.3639   -0.7387   -2.5504 H   0  0  0  0  0  0  0  0  0  0  0  0
   -1.7689    1.4654   -1.7173 S   0  0  0  0  0  0  0  0  0  0  0  0
   -2.9930    0.6326   -0.6733 C   0  0  0  0  0  0  0  0  0  0  0  0
   -2.4955    0.1723    0.1809 H   0  0  0  0  0  0  0  0  0  0  0  0
   -3.7192    1.3628   -0.3151 H   0  0  0  0  0  0  0  0  0  0  0  0
   -3.5101   -0.1332   -1.2521 H   0  0  0  0  0  0  0  0  0  0  0  0
   -0.8064    1.1568    0.7414 C   0  0  0  0  0  0  0  0  0  0  0  0
   -1.6978    1.8100    0.2029 O   0  0  0  0  0  0  0  0  0  0  0  0
    0.0314    1.6872    1.6415 N   0  0  0  0  0  0  0  0  0  0  0  0
    0.7279    1.0858    2.0517 H   0  0  0  0  0  0  0  0  0  0  0  0
   -0.0137    3.0826    2.0755 C   0  0  0  0  0  0  0  0  0  0  0  0
   -0.9991    3.3070    2.4905 H   0  0  0  0  0  0  0  0  0  0  0  0
    0.7468    3.2694    2.8349 H   0  0  0  0  0  0  0  0  0  0  0  0
    0.1592    3.7397    1.2213 H   0  0  0  0  0  0  0  0  0  0  0  0
  5  6  2  0  0  0  0
  5  7  1  0  0  0  0
  2  3  1  0  0  0  0
  2  4  1  0  0  0  0
  2  5  1  0  0  0  0
  1  2  1  0  0  0  0
 22 23  2  0  0  0  0
 22 24  1  0  0  0  0
 18 19  1  0  0  0  0
 18 20  1  0  0  0  0
 18 21  1  0  0  0  0
 17 18  1  0  0  0  0
 14 15  1  0  0  0  0
 14 16  1  0  0  0  0
 14 17  1  0  0  0  0
 11 12  1  0  0  0  0
 11 13  1  0  0  0  0
 11 14  1  0  0  0  0
  9 10  1  0  0  0  0
  9 11  1  0  0  0  0
  9 22  1  0  0  0  0
  7  8  1  0  0  0  0
  7  9  1  0  0  0  0
 26 27  1  0  0  0  0
 26 28  1  0  0  0  0
 26 29  1  0  0  0  0
 24 25  1  0  0  0  0
 24 26  1  0  0  0  0
M  END
$$$$
default_name
  -OEChem-02102213163D

 29 28  0     1  0  0  0  0  0999 V2000
   -3.5781   -3.7296    1.2702 H   0  0  0  0  0  0  0  0  0  0  0  0
   -3.5311   -2.7616    0.7732 C   0  0  0  0  0  0  0  0  0  0  0  0
   -4.2371   -2.0766    1.2382 H   0  0  0  0  0  0  0  0  0  0  0  0
   -3.7681   -2.8816   -0.2818 H   0  0  0  0  0  0  0  0  0  0  0  0
   -2.1321   -2.2086    0.9112 C   0  0  0  0  0  0  0  0  0  0  0  0
   -1.2751   -2.8426    1.5112 O   0  0  0  0  0  0  0  0  0  0  0  0
   -1.9041   -1.0186    0.3602 N   0  0  0  0  0  0  0  0  0  0  0  0
   -2.6671   -0.5416   -0.0988 H   0  0  0  0  0  0  0  0  0  0  0  0
   -0.6131   -0.3236    0.3832 C   0  0  1  0  0  0  0  0  0  0  0  0
    0.0142   -0.7800    1.1506 H   0  0  0  0  0  0  0  0  0  0  0  0
    0.0816   -0.5059   -0.9788 C   0  0  0  0  0  0  0  0  0  0  0  0
    1.0471    0.0037   -0.9515 H   0  0  0  0  0  0  0  0  0  0  0  0
    0.2615   -1.5679   -1.1517 H   0  0  0  0  0  0  0  0  0  0  0  0
   -0.7247    0.0526   -2.1571 C   0  0  0  0  0  0  0  0  0  0  0  0
   -0.0787    0.1210   -3.0318 H   0  0  0  0  0  0  0  0  0  0  0  0
   -1.5429   -0.6337   -2.3782 H   0  0  0  0  0  0  0  0  0  0  0  0
   -1.4239    1.6938   -1.8451 S   0  0  0  0  0  0  0  0  0  0  0  0
   -2.6652    1.2693   -0.5959 C   0  0  0  0  0  0  0  0  0  0  0  0
   -2.1762    0.8286    0.2734 H   0  0  0  0  0  0  0  0  0  0  0  0
   -3.1943    2.1725   -0.2906 H   0  0  0  0  0  0  0  0  0  0  0  0
   -3.3794    0.5591   -1.0134 H   0  0  0  0  0  0  0  0  0  0  0  0
   -0.8064    1.1568    0.7414 C   0  0  0  0  0  0  0  0  0  0  0  0
   -1.6978    1.8100    0.2029 O   0  0  0  0  0  0  0  0  0  0  0  0
    0.0314    1.6872    1.6415 N   0  0  0  0  0  0  0  0  0  0  0  0
    0.7279    1.0858    2.0517 H   0  0  0  0  0  0  0  0  0  0  0  0
   -0.0137    3.0826    2.0755 C   0  0  0  0  0  0  0  0  0  0  0  0
   -0.9991    3.3070    2.4905 H   0  0  0  0  0  0  0  0  0  0  0  0
    0.7468    3.2694    2.8349 H   0  0  0  0  0  0  0  0  0  0  0  0
    0.1592    3.7397    1.2213 H   0  0  0  0  0  0  0  0  0  0  0  0
  5  6  2  0  0  0  0
  5  7  1  0  0  0  0
  2  3  1  0  0  0  0
  2  4  1  0  0  0  0
  2  5  1  0  0  0  0
  1  2  1  0  0  0  0
 22 23  2  0  0  0  0
 22 24  1  0  0  0  0
 18 19  1  0  0  0  0
 18 20  1  0  0  0  0
 18 21  1  0  0  0  0
 17 18  1  0  0  0  0
 14 15  1  0  0  0  0
 14 16  1  0  0  0  0
 14 17  1  0  0  0  0
 11 12  1  0  0  0  0
 11 13  1  0  0  0  0
 11 14  1  0  0  0  0
  9 10  1  0  0  0  0
  9 11  1  0  0  0  0
  9 22  1  0  0  0  0
  7  8  1  0  0  0  0
  7  9  1  0  0  0  0
 26 27  1  0  0  0  0
 26 28  1  0  0  0  0
 26 29  1  0  0  0  0
 24 25  1  0  0  0  0
 24 26  1  0  0  0  0
M  END
$$$$
default_name
  -OEChem-02102213163D

 29 28  0     1  0  0  0  0  0999 V2000
   -3.5781   -3.7296    1.2702 H   0  0  0  0  0  0  0  0  0  0  0  0
   -3.5311   -2.7616    0.7732 C   0  0  0  0  0  0  0  0  0  0  0  0
   -4.2371   -2.0766    1.2382 H   0  0  0  0  0  0  0  0  0  0  0  0
   -3.7681   -2.8816   -0.2818 H   0  0  0  0  0  0  0  0  0  0  0  0
   -2.1321   -2.2086    0.9112 C   0  0  0  0  0  0  0  0  0  0  0  0
   -1.2751   -2.8426    1.5112 O   0  0  0  0  0  0  0  0  0  0  0  0
   -1.9041   -1.0186    0.3602 N   0  0  0  0  0  0  0  0  0  0  0  0
   -2.6671   -0.5416   -0.0988 H   0  0  0  0  0  0  0  0  0  0  0  0
   -0.6131   -0.3236    0.3832 C   0  0  1  0  0  0  0  0  0  0  0  0
    0.0142   -0.7800    1.1506 H   0  0  0  0  0  0  0  0  0  0  0  0
    0.0816   -0.5059   -0.9788 C   0  0  0  0  0  0  0  0  0  0  0  0
    1.0471    0.0037   -0.9515 H   0  0  0  0  0  0  0  0  0  0  0  0
    0.2615   -1.5679   -1.1517 H   0  0  0  0  0  0  0  0  0  0  0  0
   -0.7247    0.0526   -2.1571 C   0  0  0  0  0  0  0  0  0  0  0  0
   -0.1760   -0.1244   -3.0816 H   0  0  0  0  0  0  0  0  0  0  0  0
   -1.6787   -0.4734   -2.2093 H   0  0  0  0  0  0  0  0  0  0  0  0
   -1.0572    1.8284   -2.0323 S   0  0  0  0  0  0  0  0  0  0  0  0
   -2.2146    1.8297   -0.6386 C   0  0  0  0  0  0  0  0  0  0  0  0
   -1.7285    1.4115    0.2433 H   0  0  0  0  0  0  0  0  0  0  0  0
   -2.5239    2.8535   -0.4266 H   0  0  0  0  0  0  0  0  0  0  0  0
   -3.0929    1.2343   -0.8894 H   0  0  0  0  0  0  0  0  0  0  0  0
   -0.8064    1.1568    0.7414 C   0  0  0  0  0  0  0  0  0  0  0  0
   -1.6978    1.8100    0.2029 O   0  0  0  0  0  0  0  0  0  0  0  0
    0.0314    1.6872    1.6415 N   0  0  0  0  0  0  0  0  0  0  0  0
    0.7279    1.0858    2.0517 H   0  0  0  0  0  0  0  0  0  0  0  0
   -0.0137    3.0826    2.0755 C   0  0  0  0  0  0  0  0  0  0  0  0
   -0.9991    3.3070    2.4905 H   0  0  0  0  0  0  0  0  0  0  0  0
    0.7468    3.2694    2.8349 H   0  0  0  0  0  0  0  0  0  0  0  0
    0.1592    3.7397    1.2213 H   0  0  0  0  0  0  0  0  0  0  0  0
  5  6  2  0  0  0  0
  5  7  1  0  0  0  0
  2  3  1  0  0  0  0
  2  4  1  0  0  0  0
  2  5  1  0  0  0  0
  1  2  1  0  0  0  0
 22 23  2  0  0  0  0
 22 24  1  0  0  0  0
 18 19  1  0  0  0  0
 18 20  1  0  0  0  0
 18 21  1  0  0  0  0
 17 18  1  0  0  0  0
 14 15  1  0  0  0  0
 14 16  1  0  0  0  0
 14 17  1  0  0  0  0
 11 12  1  0  0  0  0
 11 13  1  0  0  0  0
 11 14  1  0  0  0  0
  9 10  1  0  0  0  0
  9 11  1  0  0  0  0
  9 22  1  0  0  0  0
  7  8  1  0  0  0  0
  7  9  1  0  0  0  0
 26 27  1  0  0  0  0
 26 28  1  0  0  0  0
 26 29  1  0  0  0  0
 24 25  1  0  0  0  0
 24 26  1  0  0  0  0
M  END
$$$$
default_name
  -OEChem-02102213163D

 29 28  0     1  0  0  0  0  0999 V2000
   -3.5781   -3.7296    1.2702 H   0  0  0  0  0  0  0  0  0  0  0  0
   -3.5311   -2.7616    0.7732 C   0  0  0  0  0  0  0  0  0  0  0  0
   -4.2371   -2.0766    1.2382 H   0  0  0  0  0  0  0  0  0  0  0  0
   -3.7681   -2.8816   -0.2818 H   0  0  0  0  0  0  0  0  0  0  0  0
   -2.1321   -2.2086    0.9112 C   0  0  0  0  0  0  0  0  0  0  0  0
   -1.2751   -2.8426    1.5112 O   0  0  0  0  0  0  0  0  0  0  0  0
   -1.9041   -1.0186    0.3602 N   0  0  0  0  0  0  0  0  0  0  0  0
   -2.6671   -0.5416   -0.0988 H   0  0  0  0  0  0  0  0  0  0  0  0
   -0.6131   -0.3236    0.3832 C   0  0  1  0  0  0  0  0  0  0  0  0
    0.0142   -0.7800    1.1506 H   0  0  0  0  0  0  0  0  0  0  0  0
    0.0816   -0.5059   -0.9788 C   0  0  0  0  0  0  0  0  0  0  0  0
    1.0471    0.0037   -0.9515 H   0  0  0  0  0  0  0  0  0  0  0  0
    0.2615   -1.5679   -1.1517 H   0  0  0  0  0  0  0  0  0  0  0  0
   -0.7247    0.0526   -2.1571 C   0  0  0  0  0  0  0  0  0  0  0  0
   -0.3234   -0.3490   -3.0870 H   0  0  0  0  0  0  0  0  0  0  0  0
   -1.7620   -0.2685   -2.0551 H   0  0  0  0  0  0  0  0  0  0  0  0
   -0.6938    1.8601   -2.2659 S   0  0  0  0  0  0  0  0  0  0  0  0
   -1.6719    2.2754   -0.7987 C   0  0  0  0  0  0  0  0  0  0  0  0
   -1.1830    1.8814    0.0927 H   0  0  0  0  0  0  0  0  0  0  0  0
   -1.7537    3.3594   -0.7139 H   0  0  0  0  0  0  0  0  0  0  0  0
   -2.6702    1.8463   -0.8886 H   0  0  0  0  0  0  0  0  0  0  0  0
   -0.8064    1.1568    0.7414 C   0  0  0  0  0  0  0  0  0  0  0  0
   -1.6978    1.8100    0.2029 O   0  0  0  0  0  0  0  0  0  0  0  0
    0.0314    1.6872    1.6415 N   0  0  0  0  0  0  0  0  0  0  0  0
    0.7279    1.0858    2.0517 H   0  0  0  0  0  0  0  0  0  0  0  0
   -0.0137    3.0826    2.0755 C   0  0  0  0  0  0  0  0  0  0  0  0
   -0.9991    3.3070    2.4905 H   0  0  0  0  0  0  0  0  0  0  0  0
    0.7468    3.2694    2.8349 H   0  0  0  0  0  0  0  0  0  0  0  0
    0.1592    3.7397    1.2213 H   0  0  0  0  0  0  0  0  0  0  0  0
  5  6  2  0  0  0  0
  5  7  1  0  0  0  0
  2  3  1  0  0  0  0
  2  4  1  0  0  0  0
  2  5  1  0  0  0  0
  1  2  1  0  0  0  0
 22 23  2  0  0  0  0
 22 24  1  0  0  0  0
 18 19  1  0  0  0  0
 18 20  1  0  0  0  0
 18 21  1  0  0  0  0
 17 18  1  0  0  0  0
 14 15  1  0  0  0  0
 14 16  1  0  0  0  0
 14 17  1  0  0  0  0
 11 12  1  0  0  0  0
 11 13  1  0  0  0  0
 11 14  1  0  0  0  0
  9 10  1  0  0  0  0
  9 11  1  0  0  0  0
  9 22  1  0  0  0  0
  7  8  1  0  0  0  0
  7  9  1  0  0  0  0
 26 27  1  0  0  0  0
 26 28  1  0  0  0  0
 26 29  1  0  0  0  0
 24 25  1  0  0  0  0
 24 26  1  0  0  0  0
M  END
$$$$
default_name
  -OEChem-02102213163D

 29 28  0     1  0  0  0  0  0999 V2000
   -3.5781   -3.7296    1.2702 H   0  0  0  0  0  0  0  0  0  0  0  0
   -3.5311   -2.7616    0.7732 C   0  0  0  0  0  0  0  0  0  0  0  0
   -4.2371   -2.0766    1.2382 H   0  0  0  0  0  0  0  0  0  0  0  0
   -3.7681   -2.8816   -0.2818 H   0  0  0  0  0  0  0  0  0  0  0  0
   -2.1321   -2.2086    0.9112 C   0  0  0  0  0  0  0  0  0  0  0  0
   -1.2751   -2.8426    1.5112 O   0  0  0  0  0  0  0  0  0  0  0  0
   -1.9041   -1.0186    0.3602 N   0  0  0  0  0  0  0  0  0  0  0  0
   -2.6671   -0.5416   -0.0988 H   0  0  0  0  0  0  0  0  0  0  0  0
   -0.6131   -0.3236    0.3832 C   0  0  1  0  0  0  0  0  0  0  0  0
    0.0142   -0.7800    1.1506 H   0  0  0  0  0  0  0  0  0  0  0  0
    0.0816   -0.5059   -0.9788 C   0  0  0  0  0  0  0  0  0  0  0  0
    1.0471    0.0037   -0.9515 H   0  0  0  0  0  0  0  0  0  0  0  0
    0.2615   -1.5679   -1.1517 H   0  0  0  0  0  0  0  0  0  0  0  0
   -0.7247    0.0526   -2.1571 C   0  0  0  0  0  0  0  0  0  0  0  0
   -0.5111   -0.5373   -3.0479 H   0  0  0  0  0  0  0  0  0  0  0  0
   -1.7872   -0.0330   -1.9263 H   0  0  0  0  0  0  0  0  0  0  0  0
   -0.3586    1.7865   -2.5302 S   0  0  0  0  0  0  0  0  0  0  0  0
   -1.0741    2.5763   -1.0652 C   0  0  0  0  0  0  0  0  0  0  0  0
   -0.5767    2.2063   -0.1682 H   0  0  0  0  0  0  0  0  0  0  0  0
   -0.9362    3.6558   -1.1328 H   0  0  0  0  0  0  0  0  0  0  0  0
   -2.1401    2.3536   -1.0109 H   0  0  0  0  0  0  0  0  0  0  0  0
   -0.8064    1.1568    0.7414 C   0  0  0  0  0  0  0  0  0  0  0  0
   -1.6978    1.8100    0.2029 O   0  0  0  0  0  0  0  0  0  0  0  0
    0.0314    1.6872    1.6415 N   0  0  0  0  0  0  0  0  0  0  0  0
    0.7279    1.0858    2.0517 H   0  0  0  0  0  0  0  0  0  0  0  0
   -0.0137    3.0826    2.0755 C   0  0  0  0  0  0  0  0  0  0  0  0
   -0.9991    3.3070    2.4905 H   0  0  0  0  0  0  0  0  0  0  0  0
    0.7468    3.2694    2.8349 H   0  0  0  0  0  0  0  0  0  0  0  0
    0.1592    3.7397    1.2213 H   0  0  0  0  0  0  0  0  0  0  0  0
  5  6  2  0  0  0  0
  5  7  1  0  0  0  0
  2  3  1  0  0  0  0
  2  4  1  0  0  0  0
  2  5  1  0  0  0  0
  1  2  1  0  0  0  0
 22 23  2  0  0  0  0
 22 24  1  0  0  0  0
 18 19  1  0  0  0  0
 18 20  1  0  0  0  0
 18 21  1  0  0  0  0
 17 18  1  0  0  0  0
 14 15  1  0  0  0  0
 14 16  1  0  0  0  0
 14 17  1  0  0  0  0
 11 12  1  0  0  0  0
 11 13  1  0  0  0  0
 11 14  1  0  0  0  0
  9 10  1  0  0  0  0
  9 11  1  0  0  0  0
  9 22  1  0  0  0  0
  7  8  1  0  0  0  0
  7  9  1  0  0  0  0
 26 27  1  0  0  0  0
 26 28  1  0  0  0  0
 26 29  1  0  0  0  0
 24 25  1  0  0  0  0
 24 26  1  0  0  0  0
M  END
$$$$
default_name
  -OEChem-02102213163D

 29 28  0     1  0  0  0  0  0999 V2000
   -3.5781   -3.7296    1.2702 H   0  0  0  0  0  0  0  0  0  0  0  0
   -3.5311   -2.7616    0.7732 C   0  0  0  0  0  0  0  0  0  0  0  0
   -4.2371   -2.0766    1.2382 H   0  0  0  0  0  0  0  0  0  0  0  0
   -3.7681   -2.8816   -0.2818 H   0  0  0  0  0  0  0  0  0  0  0  0
   -2.1321   -2.2086    0.9112 C   0  0  0  0  0  0  0  0  0  0  0  0
   -1.2751   -2.8426    1.5112 O   0  0  0  0  0  0  0  0  0  0  0  0
   -1.9041   -1.0186    0.3602 N   0  0  0  0  0  0  0  0  0  0  0  0
   -2.6671   -0.5416   -0.0988 H   0  0  0  0  0  0  0  0  0  0  0  0
   -0.6131   -0.3236    0.3832 C   0  0  1  0  0  0  0  0  0  0  0  0
    0.0142   -0.7800    1.1506 H   0  0  0  0  0  0  0  0  0  0  0  0
    0.0816   -0.5059   -0.9788 C   0  0  0  0  0  0  0  0  0  0  0  0
    1.0471    0.0037   -0.9515 H   0  0  0  0  0  0  0  0  0  0  0  0
    0.2615   -1.5679   -1.1517 H   0  0  0  0  0  0  0  0  0  0  0  0
   -0.7247    0.0526   -2.1571 C   0  0  0  0  0  0  0  0  0  0  0  0
   -0.7261   -0.6765   -2.9667 H   0  0  0  0  0  0  0  0  0  0  0  0
   -1.7525    0.2171   -1.8315 H   0  0  0  0  0  0  0  0  0  0  0  0
   -0.0744    1.6129   -2.8070 S   0  0  0  0  0  0  0  0  0  0  0  0
   -0.4620    2.7117   -1.4199 C   0  0  0  0  0  0  0  0  0  0  0  0
    0.0489    2.3640   -0.5215 H   0  0  0  0  0  0  0  0  0  0  0  0
   -0.1271    3.7224   -1.6549 H   0  0  0  0  0  0  0  0  0  0  0  0
   -1.5387    2.7215   -1.2481 H   0  0  0  0  0  0  0  0  0  0  0  0
   -0.8064    1.1568    0.7414 C   0  0  0  0  0  0  0  0  0  0  0  0
   -1.6978    1.8100    0.2029 O   0  0  0  0  0  0  0  0  0  0  0  0
    0.0314    1.6872    1.6415 N   0  0  0  0  0  0  0  0  0  0  0  0
    0.7279    1.0858    2.0517 H   0  0  0  0  0  0  0  0  0  0  0  0
   -0.0137    3.0826    2.0755 C   0  0  0  0  0  0  0  0  0  0  0  0
   -0.9991    3.3070    2.4905 H   0  0  0  0  0  0  0  0  0  0  0  0
    0.7468    3.2694    2.8349 H   0  0  0  0  0  0  0  0  0  0  0  0
    0.1592    3.7397    1.2213 H   0  0  0  0  0  0  0  0  0  0  0  0
  5  6  2  0  0  0  0
  5  7  1  0  0  0  0
  2  3  1  0  0  0  0
  2  4  1  0  0  0  0
  2  5  1  0  0  0  0
  1  2  1  0  0  0  0
 22 23  2  0  0  0  0
 22 24  1  0  0  0  0
 18 19  1  0  0  0  0
 18 20  1  0  0  0  0
 18 21  1  0  0  0  0
 17 18  1  0  0  0  0
 14 15  1  0  0  0  0
 14 16  1  0  0  0  0
 14 17  1  0  0  0  0
 11 12  1  0  0  0  0
 11 13  1  0  0  0  0
 11 14  1  0  0  0  0
  9 10  1  0  0  0  0
  9 11  1  0  0  0  0
  9 22  1  0  0  0  0
  7  8  1  0  0  0  0
  7  9  1  0  0  0  0
 26 27  1  0  0  0  0
 26 28  1  0  0  0  0
 26 29  1  0  0  0  0
 24 25  1  0  0  0  0
 24 26  1  0  0  0  0
M  END
$$$$
default_name
  -OEChem-02102213163D

 29 28  0     1  0  0  0  0  0999 V2000
   -3.5781   -3.7296    1.2702 H   0  0  0  0  0  0  0  0  0  0  0  0
   -3.5311   -2.7616    0.7732 C   0  0  0  0  0  0  0  0  0  0  0  0
   -4.2371   -2.0766    1.2382 H   0  0  0  0  0  0  0  0  0  0  0  0
   -3.7681   -2.8816   -0.2818 H   0  0  0  0  0  0  0  0  0  0  0  0
   -2.1321   -2.2086    0.9112 C   0  0  0  0  0  0  0  0  0  0  0  0
   -1.2751   -2.8426    1.5112 O   0  0  0  0  0  0  0  0  0  0  0  0
   -1.9041   -1.0186    0.3602 N   0  0  0  0  0  0  0  0  0  0  0  0
   -2.6671   -0.5416   -0.0988 H   0  0  0  0  0  0  0  0  0  0  0  0
   -0.6131   -0.3236    0.3832 C   0  0  1  0  0  0  0  0  0  0  0  0
    0.0142   -0.7800    1.1506 H   0  0  0  0  0  0  0  0  0  0  0  0
    0.0816   -0.5059   -0.9788 C   0  0  0  0  0  0  0  0  0  0  0  0
    1.0471    0.0037   -0.9515 H   0  0  0  0  0  0  0  0  0  0  0  0
    0.2615   -1.5679   -1.1517 H   0  0  0  0  0  0  0  0  0  0  0  0
   -0.7247    0.0526   -2.1571 C   0  0  0  0  0  0  0  0  0  0  0  0
   -0.9538   -0.7571   -2.8491 H   0  0  0  0  0  0  0  0  0  0  0  0
   -1.6604    0.4646   -1.7772 H   0  0  0  0  0  0  0  0  0  0  0  0
    0.1395    1.3509   -3.0776 S   0  0  0  0  0  0  0  0  0  0  0  0
    0.1227    2.6725   -1.8387 C   0  0  0  0  0  0  0  0  0  0  0  0
    0.6512    2.3438   -0.9433 H   0  0  0  0  0  0  0  0  0  0  0  0
    0.6184    3.5547   -2.2446 H   0  0  0  0  0  0  0  0  0  0  0  0
   -0.9070    2.9249   -1.5840 H   0  0  0  0  0  0  0  0  0  0  0  0
   -0.8064    1.1568    0.7414 C   0  0  0  0  0  0  0  0  0  0  0  0
   -1.6978    1.8100    0.2029 O   0  0  0  0  0  0  0  0  0  0  0  0
    0.0314    1.6872    1.6415 N   0  0  0  0  0  0  0  0  0  0  0  0
    0.7279    1.0858    2.0517 H   0  0  0  0  0  0  0  0  0  0  0  0
   -0.0137    3.0826    2.0755 C   0  0  0  0  0  0  0  0  0  0  0  0
   -0.9991    3.3070    2.4905 H   0  0  0  0  0  0  0  0  0  0  0  0
    0.7468    3.2694    2.8349 H   0  0  0  0  0  0  0  0  0  0  0  0
    0.1592    3.7397    1.2213 H   0  0  0  0  0  0  0  0  0  0  0  0
  5  6  2  0  0  0  0
  5  7  1  0  0  0  0
  2  3  1  0  0  0  0
  2  4  1  0  0  0  0
  2  5  1  0  0  0  0
  1  2  1  0  0  0  0
 22 23  2  0  0  0  0
 22 24  1  0  0  0  0
 18 19  1  0  0  0  0
 18 20  1  0  0  0  0
 18 21  1  0  0  0  0
 17 18  1  0  0  0  0
 14 15  1  0  0  0  0
 14 16  1  0  0  0  0
 14 17  1  0  0  0  0
 11 12  1  0  0  0  0
 11 13  1  0  0  0  0
 11 14  1  0  0  0  0
  9 10  1  0  0  0  0
  9 11  1  0  0  0  0
  9 22  1  0  0  0  0
  7  8  1  0  0  0  0
  7  9  1  0  0  0  0
 26 27  1  0  0  0  0
 26 28  1  0  0  0  0
 26 29  1  0  0  0  0
 24 25  1  0  0  0  0
 24 26  1  0  0  0  0
M  END
$$$$
default_name
  -OEChem-02102213163D

 29 28  0     1  0  0  0  0  0999 V2000
   -3.5781   -3.7296    1.2702 H   0  0  0  0  0  0  0  0  0  0  0  0
   -3.5311   -2.7616    0.7732 C   0  0  0  0  0  0  0  0  0  0  0  0
   -4.2371   -2.0766    1.2382 H   0  0  0  0  0  0  0  0  0  0  0  0
   -3.7681   -2.8816   -0.2818 H   0  0  0  0  0  0  0  0  0  0  0  0
   -2.1321   -2.2086    0.9112 C   0  0  0  0  0  0  0  0  0  0  0  0
   -1.2751   -2.8426    1.5112 O   0  0  0  0  0  0  0  0  0  0  0  0
   -1.9041   -1.0186    0.3602 N   0  0  0  0  0  0  0  0  0  0  0  0
   -2.6671   -0.5416   -0.0988 H   0  0  0  0  0  0  0  0  0  0  0  0
   -0.6131   -0.3236    0.3832 C   0  0  1  0  0  0  0  0  0  0  0  0
    0.0142   -0.7800    1.1506 H   0  0  0  0  0  0  0  0  0  0  0  0
    0.0816   -0.5059   -0.9788 C   0  0  0  0  0  0  0  0  0  0  0  0
    1.0471    0.0037   -0.9515 H   0  0  0  0  0  0  0  0  0  0  0  0
    0.2615   -1.5679   -1.1517 H   0  0  0  0  0  0  0  0  0  0  0  0
   -0.7247    0.0526   -2.1571 C   0  0  0  0  0  0  0  0  0  0  0  0
   -1.1787   -0.7737   -2.7031 H   0  0  0  0  0  0  0  0  0  0  0  0
   -1.5170    0.6927   -1.7672 H   0  0  0  0  0  0  0  0  0  0  0  0
    0.2685    1.0184   -3.3234 S   0  0  0  0  0  0  0  0  0  0  0  0
    0.6403    2.4612   -2.2930 C   0  0  0  0  0  0  0  0  0  0  0  0
    1.1893    2.1471   -1.4048 H   0  0  0  0  0  0  0  0  0  0  0  0
    1.2496    3.1642   -2.8617 H   0  0  0  0  0  0  0  0  0  0  0  0
   -0.2880    2.9500   -1.9957 H   0  0  0  0  0  0  0  0  0  0  0  0
   -0.8064    1.1568    0.7414 C   0  0  0  0  0  0  0  0  0  0  0  0
   -1.6978    1.8100    0.2029 O   0  0  0  0  0  0  0  0  0  0  0  0
    0.0314    1.6872    1.6415 N   0  0  0  0  0  0  0  0  0  0  0  0
    0.7279    1.0858    2.0517 H   0  0  0  0  0  0  0  0  0  0  0  0
   -0.0137    3.0826    2.0755 C   0  0  0  0  0  0  0  0  0  0  0  0
   -0.9991    3.3070    2.4905 H   0  0  0  0  0  0  0  0  0  0  0  0
    0.7468    3.2694    2.8349 H   0  0  0  0  0  0  0  0  0  0  0  0
    0.1592    3.7397    1.2213 H   0  0  0  0  0  0  0  0  0  0  0  0
  5  6  2  0  0  0  0
  5  7  1  0  0  0  0
  2  3  1  0  0  0  0
  2  4  1  0  0  0  0
  2  5  1  0  0  0  0
  1  2  1  0  0  0  0
 22 23  2  0  0  0  0
 22 24  1  0  0  0  0
 18 19  1  0  0  0  0
 18 20  1  0  0  0  0
 18 21  1  0  0  0  0
 17 18  1  0  0  0  0
 14 15  1  0  0  0  0
 14 16  1  0  0  0  0
 14 17  1  0  0  0  0
 11 12  1  0  0  0  0
 11 13  1  0  0  0  0
 11 14  1  0  0  0  0
  9 10  1  0  0  0  0
  9 11  1  0  0  0  0
  9 22  1  0  0  0  0
  7  8  1  0  0  0  0
  7  9  1  0  0  0  0
 26 27  1  0  0  0  0
 26 28  1  0  0  0  0
 26 29  1  0  0  0  0
 24 25  1  0  0  0  0
 24 26  1  0  0  0  0
M  END
$$$$
default_name
  -OEChem-02102213163D

 29 28  0     1  0  0  0  0  0999 V2000
   -3.5781   -3.7296    1.2702 H   0  0  0  0  0  0  0  0  0  0  0  0
   -3.5311   -2.7616    0.7732 C   0  0  0  0  0  0  0  0  0  0  0  0
   -4.2371   -2.0766    1.2382 H   0  0  0  0  0  0  0  0  0  0  0  0
   -3.7681   -2.8816   -0.2818 H   0  0  0  0  0  0  0  0  0  0  0  0
   -2.1321   -2.2086    0.9112 C   0  0  0  0  0  0  0  0  0  0  0  0
   -1.2751   -2.8426    1.5112 O   0  0  0  0  0  0  0  0  0  0  0  0
   -1.9041   -1.0186    0.3602 N   0  0  0  0  0  0  0  0  0  0  0  0
   -2.6671   -0.5416   -0.0988 H   0  0  0  0  0  0  0  0  0  0  0  0
   -0.6131   -0.3236    0.3832 C   0  0  1  0  0  0  0  0  0  0  0  0
    0.0142   -0.7800    1.1506 H   0  0  0  0  0  0  0  0  0  0  0  0
    0.0816   -0.5059   -0.9788 C   0  0  0  0  0  0  0  0  0  0  0  0
    1.0471    0.0037   -0.9515 H   0  0  0  0  0  0  0  0  0  0  0  0
    0.2615   -1.5679   -1.1517 H   0  0  0  0  0  0  0  0  0  0  0  0
   -0.7247    0.0526   -2.1571 C   0  0  0  0  0  0  0  0  0  0  0  0
   -1.3855   -0.7252   -2.5385 H   0  0  0  0  0  0  0  0  0  0  0  0
   -1.3322    0.8859   -1.8021 H   0  0  0  0  0  0  0  0  0  0  0  0
    0.3038    0.6382   -3.5278 S   0  0  0  0  0  0  0  0  0  0  0  0
    1.0554    2.0924   -2.7518 C   0  0  0  0  0  0  0  0  0  0  0  0
    1.6263    1.7872   -1.8745 H   0  0  0  0  0  0  0  0  0  0  0  0
    1.7234    2.5774   -3.4640 H   0  0  0  0  0  0  0  0  0  0  0  0
    0.2761    2.7951   -2.4552 H   0  0  0  0  0  0  0  0  0  0  0  0
   -0.8064    1.1568    0.7414 C   0  0  0  0  0  0  0  0  0  0  0  0
   -1.6978    1.8100    0.2029 O   0  0  0  0  0  0  0  0  0  0  0  0
    0.0314    1.6872    1.6415 N   0  0  0  0  0  0  0  0  0  0  0  0
    0.7279    1.0858    2.0517 H   0  0  0  0  0  0  0  0  0  0  0  0
   -0.0137    3.0826    2.0755 C   0  0  0  0  0  0  0  0  0  0  0  0
   -0.9991    3.3070    2.4905 H   0  0  0  0  0  0  0  0  0  0  0  0
    0.7468    3.2694    2.8349 H   0  0  0  0  0  0  0  0  0  0  0  0
    0.1592    3.7397    1.2213 H   0  0  0  0  0  0  0  0  0  0  0  0
  5  6  2  0  0  0  0
  5  7  1  0  0  0  0
  2  3  1  0  0  0  0
  2  4  1  0  0  0  0
  2  5  1  0  0  0  0
  1  2  1  0  0  0  0
 22 23  2  0  0  0  0
 22 24  1  0  0  0  0
 18 19  1  0  0  0  0
 18 20  1  0  0  0  0
 18 21  1  0  0  0  0
 17 18  1  0  0  0  0
 14 15  1  0  0  0  0
 14 16  1  0  0  0  0
 14 17  1  0  0  0  0
 11 12  1  0  0  0  0
 11 13  1  0  0  0  0
 11 14  1  0  0  0  0
  9 10  1  0  0  0  0
  9 11  1  0  0  0  0
  9 22  1  0  0  0  0
  7  8  1  0  0  0  0
  7  9  1  0  0  0  0
 26 27  1  0  0  0  0
 26 28  1  0  0  0  0
 26 29  1  0  0  0  0
 24 25  1  0  0  0  0
 24 26  1  0  0  0  0
M  END
$$$$
default_name
  -OEChem-02102213163D

 29 28  0     1  0  0  0  0  0999 V2000
   -3.5781   -3.7296    1.2702 H   0  0  0  0  0  0  0  0  0  0  0  0
   -3.5311   -2.7616    0.7732 C   0  0  0  0  0  0  0  0  0  0  0  0
   -4.2371   -2.0766    1.2382 H   0  0  0  0  0  0  0  0  0  0  0  0
   -3.7681   -2.8816   -0.2818 H   0  0  0  0  0  0  0  0  0  0  0  0
   -2.1321   -2.2086    0.9112 C   0  0  0  0  0  0  0  0  0  0  0  0
   -1.2751   -2.8426    1.5112 O   0  0  0  0  0  0  0  0  0  0  0  0
   -1.9041   -1.0186    0.3602 N   0  0  0  0  0  0  0  0  0  0  0  0
   -2.6671   -0.5416   -0.0988 H   0  0  0  0  0  0  0  0  0  0  0  0
   -0.6131   -0.3236    0.3832 C   0  0  1  0  0  0  0  0  0  0  0  0
    0.0142   -0.7800    1.1506 H   0  0  0  0  0  0  0  0  0  0  0  0
    0.0816   -0.5059   -0.9788 C   0  0  0  0  0  0  0  0  0  0  0  0
    1.0471    0.0037   -0.9515 H   0  0  0  0  0  0  0  0  0  0  0  0
    0.2615   -1.5679   -1.1517 H   0  0  0  0  0  0  0  0  0  0  0  0
   -0.7247    0.0526   -2.1571 C   0  0  0  0  0  0  0  0  0  0  0  0
   -1.5601   -0.6147   -2.3667 H   0  0  0  0  0  0  0  0  0  0  0  0
   -1.1185    1.0310   -1.8795 H   0  0  0  0  0  0  0  0  0  0  0  0
    0.2430    0.2361   -3.6768 S   0  0  0  0  0  0  0  0  0  0  0  0
    1.3396    1.5912   -3.1840 C   0  0  0  0  0  0  0  0  0  0  0  0
    1.9326    1.2887   -2.3204 H   0  0  0  0  0  0  0  0  0  0  0  0
    2.0076    1.8344   -4.0107 H   0  0  0  0  0  0  0  0  0  0  0  0
    0.7469    2.4707   -2.9311 H   0  0  0  0  0  0  0  0  0  0  0  0
   -0.8064    1.1568    0.7414 C   0  0  0  0  0  0  0  0  0  0  0  0
   -1.6978    1.8100    0.2029 O   0  0  0  0  0  0  0  0  0  0  0  0
    0.0314    1.6872    1.6415 N   0  0  0  0  0  0  0  0  0  0  0  0
    0.7279    1.0858    2.0517 H   0  0  0  0  0  0  0  0  0  0  0  0
   -0.0137    3.0826    2.0755 C   0  0  0  0  0  0  0  0  0  0  0  0
   -0.9991    3.3070    2.4905 H   0  0  0  0  0  0  0  0  0  0  0  0
    0.7468    3.2694    2.8349 H   0  0  0  0  0  0  0  0  0  0  0  0
    0.1592    3.7397    1.2213 H   0  0  0  0  0  0  0  0  0  0  0  0
  5  6  2  0  0  0  0
  5  7  1  0  0  0  0
  2  3  1  0  0  0  0
  2  4  1  0  0  0  0
  2  5  1  0  0  0  0
  1  2  1  0  0  0  0
 22 23  2  0  0  0  0
 22 24  1  0  0  0  0
 18 19  1  0  0  0  0
 18 20  1  0  0  0  0
 18 21  1  0  0  0  0
 17 18  1  0  0  0  0
 14 15  1  0  0  0  0
 14 16  1  0  0  0  0
 14 17  1  0  0  0  0
 11 12  1  0  0  0  0
 11 13  1  0  0  0  0
 11 14  1  0  0  0  0
  9 10  1  0  0  0  0
  9 11  1  0  0  0  0
  9 22  1  0  0  0  0
  7  8  1  0  0  0  0
  7  9  1  0  0  0  0
 26 27  1  0  0  0  0
 26 28  1  0  0  0  0
 26 29  1  0  0  0  0
 24 25  1  0  0  0  0
 24 26  1  0  0  0  0
M  END
$$$$
default_name
  -OEChem-02102213163D

 29 28  0     1  0  0  0  0  0999 V2000
   -3.5781   -3.7296    1.2702 H   0  0  0  0  0  0  0  0  0  0  0  0
   -3.5311   -2.7616    0.7732 C   0  0  0  0  0  0  0  0  0  0  0  0
   -4.2371   -2.0766    1.2382 H   0  0  0  0  0  0  0  0  0  0  0  0
   -3.7681   -2.8816   -0.2818 H   0  0  0  0  0  0  0  0  0  0  0  0
   -2.1321   -2.2086    0.9112 C   0  0  0  0  0  0  0  0  0  0  0  0
   -1.2751   -2.8426    1.5112 O   0  0  0  0  0  0  0  0  0  0  0  0
   -1.9041   -1.0186    0.3602 N   0  0  0  0  0  0  0  0  0  0  0  0
   -2.6671   -0.5416   -0.0988 H   0  0  0  0  0  0  0  0  0  0  0  0
   -0.6131   -0.3236    0.3832 C   0  0  1  0  0  0  0  0  0  0  0  0
    0.0142   -0.7800    1.1506 H   0  0  0  0  0  0  0  0  0  0  0  0
    0.0816   -0.5059   -0.9788 C   0  0  0  0  0  0  0  0  0  0  0  0
    1.1354   -0.2393   -0.8739 H   0  0  0  0  0  0  0  0  0  0  0  0
    0.0230   -1.5541   -1.2752 H   0  0  0  0  0  0  0  0  0  0  0  0
   -0.5239    0.3533   -2.0949 C   0  0  0  0  0  0  0  0  0  0  0  0
   -1.5758    0.0953   -2.2137 H   0  0  0  0  0  0  0  0  0  0  0  0
   -0.4505    1.4029   -1.8078 H   0  0  0  0  0  0  0  0  0  0  0  0
    0.2914    0.1407   -3.6979 S   0  0  0  0  0  0  0  0  0  0  0  0
    1.8903    0.9122   -3.3369 C   0  0  0  0  0  0  0  0  0  0  0  0
    2.3801    0.3789   -2.5217 H   0  0  0  0  0  0  0  0  0  0  0  0
    2.5214    0.8684   -4.2250 H   0  0  0  0  0  0  0  0  0  0  0  0
    1.7403    1.9546   -3.0545 H   0  0  0  0  0  0  0  0  0  0  0  0
   -0.8064    1.1568    0.7414 C   0  0  0  0  0  0  0  0  0  0  0  0
   -1.6978    1.8100    0.2029 O   0  0  0  0  0  0  0  0  0  0  0  0
    0.0314    1.6872    1.6415 N   0  0  0  0  0  0  0  0  0  0  0  0
    0.7279    1.0858    2.0517 H   0  0  0  0  0  0  0  0  0  0  0  0
   -0.0137    3.0826    2.0755 C   0  0  0  0  0  0  0  0  0  0  0  0
   -0.9991    3.3070    2.4905 H   0  0  0  0  0  0  0  0  0  0  0  0
    0.7468    3.2694    2.8349 H   0  0  0  0  0  0  0  0  0  0  0  0
    0.1592    3.7397    1.2213 H   0  0  0  0  0  0  0  0  0  0  0  0
  5  6  2  0  0  0  0
  5  7  1  0  0  0  0
  2  3  1  0  0  0  0
  2  4  1  0  0  0  0
  2  5  1  0  0  0  0
  1  2  1  0  0  0  0
 22 23  2  0  0  0  0
 22 24  1  0  0  0  0
 18 19  1  0  0  0  0
 18 20  1  0  0  0  0
 18 21  1  0  0  0  0
 17 18  1  0  0  0  0
 14 15  1  0  0  0  0
 14 16  1  0  0  0  0
 14 17  1  0  0  0  0
 11 12  1  0  0  0  0
 11 13  1  0  0  0  0
 11 14  1  0  0  0  0
  9 10  1  0  0  0  0
  9 11  1  0  0  0  0
  9 22  1  0  0  0  0
  7  8  1  0  0  0  0
  7  9  1  0  0  0  0
 26 27  1  0  0  0  0
 26 28  1  0  0  0  0
 26 29  1  0  0  0  0
 24 25  1  0  0  0  0
 24 26  1  0  0  0  0
M  END
$$$$
default_name
  -OEChem-02102213163D

 29 28  0     1  0  0  0  0  0999 V2000
   -3.5781   -3.7296    1.2702 H   0  0  0  0  0  0  0  0  0  0  0  0
   -3.5311   -2.7616    0.7732 C   0  0  0  0  0  0  0  0  0  0  0  0
   -4.2371   -2.0766    1.2382 H   0  0  0  0  0  0  0  0  0  0  0  0
   -3.7681   -2.8816   -0.2818 H   0  0  0  0  0  0  0  0  0  0  0  0
   -2.1321   -2.2086    0.9112 C   0  0  0  0  0  0  0  0  0  0  0  0
   -1.2751   -2.8426    1.5112 O   0  0  0  0  0  0  0  0  0  0  0  0
   -1.9041   -1.0186    0.3602 N   0  0  0  0  0  0  0  0  0  0  0  0
   -2.6671   -0.5416   -0.0988 H   0  0  0  0  0  0  0  0  0  0  0  0
   -0.6131   -0.3236    0.3832 C   0  0  1  0  0  0  0  0  0  0  0  0
    0.0142   -0.7800    1.1506 H   0  0  0  0  0  0  0  0  0  0  0  0
    0.0816   -0.5059   -0.9788 C   0  0  0  0  0  0  0  0  0  0  0  0
    1.1354   -0.2393   -0.8739 H   0  0  0  0  0  0  0  0  0  0  0  0
    0.0230   -1.5541   -1.2752 H   0  0  0  0  0  0  0  0  0  0  0  0
   -0.5239    0.3533   -2.0949 C   0  0  0  0  0  0  0  0  0  0  0  0
   -1.6106    0.2970   -2.0396 H   0  0  0  0  0  0  0  0  0  0  0  0
   -0.2183    1.3893   -1.9442 H   0  0  0  0  0  0  0  0  0  0  0  0
   -0.0187   -0.1557   -3.7578 S   0  0  0  0  0  0  0  0  0  0  0  0
    1.7296    0.3164   -3.7084 C   0  0  0  0  0  0  0  0  0  0  0  0
    2.2352   -0.2285   -2.9106 H   0  0  0  0  0  0  0  0  0  0  0  0
    2.1972    0.0715   -4.6625 H   0  0  0  0  0  0  0  0  0  0  0  0
    1.8162    1.3887   -3.5313 H   0  0  0  0  0  0  0  0  0  0  0  0
   -0.8064    1.1568    0.7414 C   0  0  0  0  0  0  0  0  0  0  0  0
   -1.6978    1.8100    0.2029 O   0  0  0  0  0  0  0  0  0  0  0  0
    0.0314    1.6872    1.6415 N   0  0  0  0  0  0  0  0  0  0  0  0
    0.7279    1.0858    2.0517 H   0  0  0  0  0  0  0  0  0  0  0  0
   -0.0137    3.0826    2.0755 C   0  0  0  0  0  0  0  0  0  0  0  0
   -0.9991    3.3070    2.4905 H   0  0  0  0  0  0  0  0  0  0  0  0
    0.7468    3.2694    2.8349 H   0  0  0  0  0  0  0  0  0  0  0  0
    0.1592    3.7397    1.2213 H   0  0  0  0  0  0  0  0  0  0  0  0
  5  6  2  0  0  0  0
  5  7  1  0  0  0  0
  2  3  1  0  0  0  0
  2  4  1  0  0  0  0
  2  5  1  0  0  0  0
  1  2  1  0  0  0  0
 22 23  2  0  0  0  0
 22 24  1  0  0  0  0
 18 19  1  0  0  0  0
 18 20  1  0  0  0  0
 18 21  1  0  0  0  0
 17 18  1  0  0  0  0
 14 15  1  0  0  0  0
 14 16  1  0  0  0  0
 14 17  1  0  0  0  0
 11 12  1  0  0  0  0
 11 13  1  0  0  0  0
 11 14  1  0  0  0  0
  9 10  1  0  0  0  0
  9 11  1  0  0  0  0
  9 22  1  0  0  0  0
  7  8  1  0  0  0  0
  7  9  1  0  0  0  0
 26 27  1  0  0  0  0
 26 28  1  0  0  0  0
 26 29  1  0  0  0  0
 24 25  1  0  0  0  0
 24 26  1  0  0  0  0
M  END
$$$$
default_name
  -OEChem-02102213163D

 29 28  0     1  0  0  0  0  0999 V2000
   -3.5781   -3.7296    1.2702 H   0  0  0  0  0  0  0  0  0  0  0  0
   -3.5311   -2.7616    0.7732 C   0  0  0  0  0  0  0  0  0  0  0  0
   -4.2371   -2.0766    1.2382 H   0  0  0  0  0  0  0  0  0  0  0  0
   -3.7681   -2.8816   -0.2818 H   0  0  0  0  0  0  0  0  0  0  0  0
   -2.1321   -2.2086    0.9112 C   0  0  0  0  0  0  0  0  0  0  0  0
   -1.2751   -2.8426    1.5112 O   0  0  0  0  0  0  0  0  0  0  0  0
   -1.9041   -1.0186    0.3602 N   0  0  0  0  0  0  0  0  0  0  0  0
   -2.6671   -0.5416   -0.0988 H   0  0  0  0  0  0  0  0  0  0  0  0
   -0.6131   -0.3236    0.3832 C   0  0  1  0  0  0  0  0  0  0  0  0
    0.0142   -0.7800    1.1506 H   0  0  0  0  0  0  0  0  0  0  0  0
    0.0816   -0.5059   -0.9788 C   0  0  0  0  0  0  0  0  0  0  0  0
    1.1354   -0.2393   -0.8739 H   0  0  0  0  0  0  0  0  0  0  0  0
    0.0230   -1.5541   -1.2752 H   0  0  0  0  0  0  0  0  0  0  0  0
   -0.5239    0.3533   -2.0949 C   0  0  0  0  0  0  0  0  0  0  0  0
   -1.5809    0.5161   -1.8870 H   0  0  0  0  0  0  0  0  0  0  0  0
   -0.0164    1.3185   -2.1083 H   0  0  0  0  0  0  0  0  0  0  0  0
   -0.3828   -0.3896   -3.7404 S   0  0  0  0  0  0  0  0  0  0  0  0
    1.4083   -0.2669   -3.9831 C   0  0  0  0  0  0  0  0  0  0  0  0
    1.9243   -0.8276   -3.2031 H   0  0  0  0  0  0  0  0  0  0  0  0
    1.6704   -0.6819   -4.9567 H   0  0  0  0  0  0  0  0  0  0  0  0
    1.7138    0.7791   -3.9450 H   0  0  0  0  0  0  0  0  0  0  0  0
   -0.8064    1.1568    0.7414 C   0  0  0  0  0  0  0  0  0  0  0  0
   -1.6978    1.8100    0.2029 O   0  0  0  0  0  0  0  0  0  0  0  0
    0.0314    1.6872    1.6415 N   0  0  0  0  0  0  0  0  0  0  0  0
    0.7279    1.0858    2.0517 H   0  0  0  0  0  0  0  0  0  0  0  0
   -0.0137    3.0826    2.0755 C   0  0  0  0  0  0  0  0  0  0  0  0
   -0.9991    3.3070    2.4905 H   0  0  0  0  0  0  0  0  0  0  0  0
    0.7468    3.2694    2.8349 H   0  0  0  0  0  0  0  0  0  0  0  0
    0.1592    3.7397    1.2213 H   0  0  0  0  0  0  0  0  0  0  0  0
  5  6  2  0  0  0  0
  5  7  1  0  0  0  0
  2  3  1  0  0  0  0
  2  4  1  0  0  0  0
  2  5  1  0  0  0  0
  1  2  1  0  0  0  0
 22 23  2  0  0  0  0
 22 24  1  0  0  0  0
 18 19  1  0  0  0  0
 18 20  1  0  0  0  0
 18 21  1  0  0  0  0
 17 18  1  0  0  0  0
 14 15  1  0  0  0  0
 14 16  1  0  0  0  0
 14 17  1  0  0  0  0
 11 12  1  0  0  0  0
 11 13  1  0  0  0  0
 11 14  1  0  0  0  0
  9 10  1  0  0  0  0
  9 11  1  0  0  0  0
  9 22  1  0  0  0  0
  7  8  1  0  0  0  0
  7  9  1  0  0  0  0
 26 27  1  0  0  0  0
 26 28  1  0  0  0  0
 26 29  1  0  0  0  0
 24 25  1  0  0  0  0
 24 26  1  0  0  0  0
M  END
$$$$
default_name
  -OEChem-02102213163D

 29 28  0     1  0  0  0  0  0999 V2000
   -3.5781   -3.7296    1.2702 H   0  0  0  0  0  0  0  0  0  0  0  0
   -3.5311   -2.7616    0.7732 C   0  0  0  0  0  0  0  0  0  0  0  0
   -4.2371   -2.0766    1.2382 H   0  0  0  0  0  0  0  0  0  0  0  0
   -3.7681   -2.8816   -0.2818 H   0  0  0  0  0  0  0  0  0  0  0  0
   -2.1321   -2.2086    0.9112 C   0  0  0  0  0  0  0  0  0  0  0  0
   -1.2751   -2.8426    1.5112 O   0  0  0  0  0  0  0  0  0  0  0  0
   -1.9041   -1.0186    0.3602 N   0  0  0  0  0  0  0  0  0  0  0  0
   -2.6671   -0.5416   -0.0988 H   0  0  0  0  0  0  0  0  0  0  0  0
   -0.6131   -0.3236    0.3832 C   0  0  1  0  0  0  0  0  0  0  0  0
    0.0142   -0.7800    1.1506 H   0  0  0  0  0  0  0  0  0  0  0  0
    0.0816   -0.5059   -0.9788 C   0  0  0  0  0  0  0  0  0  0  0  0
    1.1354   -0.2393   -0.8739 H   0  0  0  0  0  0  0  0  0  0  0  0
    0.0230   -1.5541   -1.2752 H   0  0  0  0  0  0  0  0  0  0  0  0
   -0.5239    0.3533   -2.0949 C   0  0  0  0  0  0  0  0  0  0  0  0
   -1.4889    0.7378   -1.7663 H   0  0  0  0  0  0  0  0  0  0  0  0
    0.1415    1.1953   -2.2888 H   0  0  0  0  0  0  0  0  0  0  0  0
   -0.7760   -0.5453   -3.6469 S   0  0  0  0  0  0  0  0  0  0  0  0
    0.9482   -0.7978   -4.1422 C   0  0  0  0  0  0  0  0  0  0  0  0
    1.4687   -1.3776   -3.3794 H   0  0  0  0  0  0  0  0  0  0  0  0
    0.9769   -1.3404   -5.0874 H   0  0  0  0  0  0  0  0  0  0  0  0
    1.4400    0.1673   -4.2675 H   0  0  0  0  0  0  0  0  0  0  0  0
   -0.8064    1.1568    0.7414 C   0  0  0  0  0  0  0  0  0  0  0  0
   -1.6978    1.8100    0.2029 O   0  0  0  0  0  0  0  0  0  0  0  0
    0.0314    1.6872    1.6415 N   0  0  0  0  0  0  0  0  0  0  0  0
    0.7279    1.0858    2.0517 H   0  0  0  0  0  0  0  0  0  0  0  0
   -0.0137    3.0826    2.0755 C   0  0  0  0  0  0  0  0  0  0  0  0
   -0.9991    3.3070    2.4905 H   0  0  0  0  0  0  0  0  0  0  0  0
    0.7468    3.2694    2.8349 H   0  0  0  0  0  0  0  0  0  0  0  0
    0.1592    3.7397    1.2213 H   0  0  0  0  0  0  0  0  0  0  0  0
  5  6  2  0  0  0  0
  5  7  1  0  0  0  0
  2  3  1  0  0  0  0
  2  4  1  0  0  0  0
  2  5  1  0  0  0  0
  1  2  1  0  0  0  0
 22 23  2  0  0  0  0
 22 24  1  0  0  0  0
 18 19  1  0  0  0  0
 18 20  1  0  0  0  0
 18 21  1  0  0  0  0
 17 18  1  0  0  0  0
 14 15  1  0  0  0  0
 14 16  1  0  0  0  0
 14 17  1  0  0  0  0
 11 12  1  0  0  0  0
 11 13  1  0  0  0  0
 11 14  1  0  0  0  0
  9 10  1  0  0  0  0
  9 11  1  0  0  0  0
  9 22  1  0  0  0  0
  7  8  1  0  0  0  0
  7  9  1  0  0  0  0
 26 27  1  0  0  0  0
 26 28  1  0  0  0  0
 26 29  1  0  0  0  0
 24 25  1  0  0  0  0
 24 26  1  0  0  0  0
M  END
$$$$
default_name
  -OEChem-02102213163D

 29 28  0     1  0  0  0  0  0999 V2000
   -3.5781   -3.7296    1.2702 H   0  0  0  0  0  0  0  0  0  0  0  0
   -3.5311   -2.7616    0.7732 C   0  0  0  0  0  0  0  0  0  0  0  0
   -4.2371   -2.0766    1.2382 H   0  0  0  0  0  0  0  0  0  0  0  0
   -3.7681   -2.8816   -0.2818 H   0  0  0  0  0  0  0  0  0  0  0  0
   -2.1321   -2.2086    0.9112 C   0  0  0  0  0  0  0  0  0  0  0  0
   -1.2751   -2.8426    1.5112 O   0  0  0  0  0  0  0  0  0  0  0  0
   -1.9041   -1.0186    0.3602 N   0  0  0  0  0  0  0  0  0  0  0  0
   -2.6671   -0.5416   -0.0988 H   0  0  0  0  0  0  0  0  0  0  0  0
   -0.6131   -0.3236    0.3832 C   0  0  1  0  0  0  0  0  0  0  0  0
    0.0142   -0.7800    1.1506 H   0  0  0  0  0  0  0  0  0  0  0  0
    0.0816   -0.5059   -0.9788 C   0  0  0  0  0  0  0  0  0  0  0  0
    1.1354   -0.2393   -0.8739 H   0  0  0  0  0  0  0  0  0  0  0  0
    0.0230   -1.5541   -1.2752 H   0  0  0  0  0  0  0  0  0  0  0  0
   -0.5239    0.3533   -2.0949 C   0  0  0  0  0  0  0  0  0  0  0  0
   -1.3407    0.9470   -1.6856 H   0  0  0  0  0  0  0  0  0  0  0  0
    0.2447    1.0281   -2.4734 H   0  0  0  0  0  0  0  0  0  0  0  0
   -1.1716   -0.6119   -3.4836 S   0  0  0  0  0  0  0  0  0  0  0  0
    0.3806   -1.2401   -4.1748 C   0  0  0  0  0  0  0  0  0  0  0  0
    0.8994   -1.8410   -3.4273 H   0  0  0  0  0  0  0  0  0  0  0  0
    0.1640   -1.8592   -5.0458 H   0  0  0  0  0  0  0  0  0  0  0  0
    1.0134   -0.4051   -4.4767 H   0  0  0  0  0  0  0  0  0  0  0  0
   -0.8064    1.1568    0.7414 C   0  0  0  0  0  0  0  0  0  0  0  0
   -1.6978    1.8100    0.2029 O   0  0  0  0  0  0  0  0  0  0  0  0
    0.0314    1.6872    1.6415 N   0  0  0  0  0  0  0  0  0  0  0  0
    0.7279    1.0858    2.0517 H   0  0  0  0  0  0  0  0  0  0  0  0
   -0.0137    3.0826    2.0755 C   0  0  0  0  0  0  0  0  0  0  0  0
   -0.9991    3.3070    2.4905 H   0  0  0  0  0  0  0  0  0  0  0  0
    0.7468    3.2694    2.8349 H   0  0  0  0  0  0  0  0  0  0  0  0
    0.1592    3.7397    1.2213 H   0  0  0  0  0  0  0  0  0  0  0  0
  5  6  2  0  0  0  0
  5  7  1  0  0  0  0
  2  3  1  0  0  0  0
  2  4  1  0  0  0  0
  2  5  1  0  0  0  0
  1  2  1  0  0  0  0
 22 23  2  0  0  0  0
 22 24  1  0  0  0  0
 18 19  1  0  0  0  0
 18 20  1  0  0  0  0
 18 21  1  0  0  0  0
 17 18  1  0  0  0  0
 14 15  1  0  0  0  0
 14 16  1  0  0  0  0
 14 17  1  0  0  0  0
 11 12  1  0  0  0  0
 11 13  1  0  0  0  0
 11 14  1  0  0  0  0
  9 10  1  0  0  0  0
  9 11  1  0  0  0  0
  9 22  1  0  0  0  0
  7  8  1  0  0  0  0
  7  9  1  0  0  0  0
 26 27  1  0  0  0  0
 26 28  1  0  0  0  0
 26 29  1  0  0  0  0
 24 25  1  0  0  0  0
 24 26  1  0  0  0  0
M  END
$$$$
default_name
  -OEChem-02102213163D

 29 28  0     1  0  0  0  0  0999 V2000
   -3.5781   -3.7296    1.2702 H   0  0  0  0  0  0  0  0  0  0  0  0
   -3.5311   -2.7616    0.7732 C   0  0  0  0  0  0  0  0  0  0  0  0
   -4.2371   -2.0766    1.2382 H   0  0  0  0  0  0  0  0  0  0  0  0
   -3.7681   -2.8816   -0.2818 H   0  0  0  0  0  0  0  0  0  0  0  0
   -2.1321   -2.2086    0.9112 C   0  0  0  0  0  0  0  0  0  0  0  0
   -1.2751   -2.8426    1.5112 O   0  0  0  0  0  0  0  0  0  0  0  0
   -1.9041   -1.0186    0.3602 N   0  0  0  0  0  0  0  0  0  0  0  0
   -2.6671   -0.5416   -0.0988 H   0  0  0  0  0  0  0  0  0  0  0  0
   -0.6131   -0.3236    0.3832 C   0  0  1  0  0  0  0  0  0  0  0  0
    0.0142   -0.7800    1.1506 H   0  0  0  0  0  0  0  0  0  0  0  0
    0.0816   -0.5059   -0.9788 C   0  0  0  0  0  0  0  0  0  0  0  0
    1.1354   -0.2393   -0.8739 H   0  0  0  0  0  0  0  0  0  0  0  0
    0.0230   -1.5541   -1.2752 H   0  0  0  0  0  0  0  0  0  0  0  0
   -0.5239    0.3533   -2.0949 C   0  0  0  0  0  0  0  0  0  0  0  0
   -1.1465    1.1293   -1.6507 H   0  0  0  0  0  0  0  0  0  0  0  0
    0.2860    0.8283   -2.6497 H   0  0  0  0  0  0  0  0  0  0  0  0
   -1.5426   -0.5851   -3.2617 S   0  0  0  0  0  0  0  0  0  0  0  0
   -0.2556   -1.5638   -4.0788 C   0  0  0  0  0  0  0  0  0  0  0  0
    0.2553   -2.1863   -3.3437 H   0  0  0  0  0  0  0  0  0  0  0  0
   -0.7129   -2.2029   -4.8347 H   0  0  0  0  0  0  0  0  0  0  0  0
    0.4633   -0.8990   -4.5584 H   0  0  0  0  0  0  0  0  0  0  0  0
   -0.8064    1.1568    0.7414 C   0  0  0  0  0  0  0  0  0  0  0  0
   -1.6978    1.8100    0.2029 O   0  0  0  0  0  0  0  0  0  0  0  0
    0.0314    1.6872    1.6415 N   0  0  0  0  0  0  0  0  0  0  0  0
    0.7279    1.0858    2.0517 H   0  0  0  0  0  0  0  0  0  0  0  0
   -0.0137    3.0826    2.0755 C   0  0  0  0  0  0  0  0  0  0  0  0
   -0.9991    3.3070    2.4905 H   0  0  0  0  0  0  0  0  0  0  0  0
    0.7468    3.2694    2.8349 H   0  0  0  0  0  0  0  0  0  0  0  0
    0.1592    3.7397    1.2213 H   0  0  0  0  0  0  0  0  0  0  0  0
  5  6  2  0  0  0  0
  5  7  1  0  0  0  0
  2  3  1  0  0  0  0
  2  4  1  0  0  0  0
  2  5  1  0  0  0  0
  1  2  1  0  0  0  0
 22 23  2  0  0  0  0
 22 24  1  0  0  0  0
 18 19  1  0  0  0  0
 18 20  1  0  0  0  0
 18 21  1  0  0  0  0
 17 18  1  0  0  0  0
 14 15  1  0  0  0  0
 14 16  1  0  0  0  0
 14 17  1  0  0  0  0
 11 12  1  0  0  0  0
 11 13  1  0  0  0  0
 11 14  1  0  0  0  0
  9 10  1  0  0  0  0
  9 11  1  0  0  0  0
  9 22  1  0  0  0  0
  7  8  1  0  0  0  0
  7  9  1  0  0  0  0
 26 27  1  0  0  0  0
 26 28  1  0  0  0  0
 26 29  1  0  0  0  0
 24 25  1  0  0  0  0
 24 26  1  0  0  0  0
M  END
$$$$
default_name
  -OEChem-02102213163D

 29 28  0     1  0  0  0  0  0999 V2000
   -3.5781   -3.7296    1.2702 H   0  0  0  0  0  0  0  0  0  0  0  0
   -3.5311   -2.7616    0.7732 C   0  0  0  0  0  0  0  0  0  0  0  0
   -4.2371   -2.0766    1.2382 H   0  0  0  0  0  0  0  0  0  0  0  0
   -3.7681   -2.8816   -0.2818 H   0  0  0  0  0  0  0  0  0  0  0  0
   -2.1321   -2.2086    0.9112 C   0  0  0  0  0  0  0  0  0  0  0  0
   -1.2751   -2.8426    1.5112 O   0  0  0  0  0  0  0  0  0  0  0  0
   -1.9041   -1.0186    0.3602 N   0  0  0  0  0  0  0  0  0  0  0  0
   -2.6671   -0.5416   -0.0988 H   0  0  0  0  0  0  0  0  0  0  0  0
   -0.6131   -0.3236    0.3832 C   0  0  1  0  0  0  0  0  0  0  0  0
    0.0142   -0.7800    1.1506 H   0  0  0  0  0  0  0  0  0  0  0  0
    0.0816   -0.5059   -0.9788 C   0  0  0  0  0  0  0  0  0  0  0  0
    1.1354   -0.2393   -0.8739 H   0  0  0  0  0  0  0  0  0  0  0  0
    0.0230   -1.5541   -1.2752 H   0  0  0  0  0  0  0  0  0  0  0  0
   -0.5239    0.3533   -2.0949 C   0  0  0  0  0  0  0  0  0  0  0  0
   -0.9194    1.2724   -1.6637 H   0  0  0  0  0  0  0  0  0  0  0  0
    0.2627    0.6095   -2.8055 H   0  0  0  0  0  0  0  0  0  0  0  0
   -1.8637   -0.4666   -2.9962 S   0  0  0  0  0  0  0  0  0  0  0  0
   -0.9173   -1.7468   -3.8607 C   0  0  0  0  0  0  0  0  0  0  0  0
   -0.4198   -2.3899   -3.1341 H   0  0  0  0  0  0  0  0  0  0  0  0
   -1.5940   -2.3481   -4.4684 H   0  0  0  0  0  0  0  0  0  0  0  0
   -0.1731   -1.2807   -4.5071 H   0  0  0  0  0  0  0  0  0  0  0  0
   -0.8064    1.1568    0.7414 C   0  0  0  0  0  0  0  0  0  0  0  0
   -1.6978    1.8100    0.2029 O   0  0  0  0  0  0  0  0  0  0  0  0
    0.0314    1.6872    1.6415 N   0  0  0  0  0  0  0  0  0  0  0  0
    0.7279    1.0858    2.0517 H   0  0  0  0  0  0  0  0  0  0  0  0
   -0.0137    3.0826    2.0755 C   0  0  0  0  0  0  0  0  0  0  0  0
   -0.9991    3.3070    2.4905 H   0  0  0  0  0  0  0  0  0  0  0  0
    0.7468    3.2694    2.8349 H   0  0  0  0  0  0  0  0  0  0  0  0
    0.1592    3.7397    1.2213 H   0  0  0  0  0  0  0  0  0  0  0  0
  5  6  2  0  0  0  0
  5  7  1  0  0  0  0
  2  3  1  0  0  0  0
  2  4  1  0  0  0  0
  2  5  1  0  0  0  0
  1  2  1  0  0  0  0
 22 23  2  0  0  0  0
 22 24  1  0  0  0  0
 18 19  1  0  0  0  0
 18 20  1  0  0  0  0
 18 21  1  0  0  0  0
 17 18  1  0  0  0  0
 14 15  1  0  0  0  0
 14 16  1  0  0  0  0
 14 17  1  0  0  0  0
 11 12  1  0  0  0  0
 11 13  1  0  0  0  0
 11 14  1  0  0  0  0
  9 10  1  0  0  0  0
  9 11  1  0  0  0  0
  9 22  1  0  0  0  0
  7  8  1  0  0  0  0
  7  9  1  0  0  0  0
 26 27  1  0  0  0  0
 26 28  1  0  0  0  0
 26 29  1  0  0  0  0
 24 25  1  0  0  0  0
 24 26  1  0  0  0  0
M  END
$$$$
default_name
  -OEChem-02102213163D

 29 28  0     1  0  0  0  0  0999 V2000
   -3.5781   -3.7296    1.2702 H   0  0  0  0  0  0  0  0  0  0  0  0
   -3.5311   -2.7616    0.7732 C   0  0  0  0  0  0  0  0  0  0  0  0
   -4.2371   -2.0766    1.2382 H   0  0  0  0  0  0  0  0  0  0  0  0
   -3.7681   -2.8816   -0.2818 H   0  0  0  0  0  0  0  0  0  0  0  0
   -2.1321   -2.2086    0.9112 C   0  0  0  0  0  0  0  0  0  0  0  0
   -1.2751   -2.8426    1.5112 O   0  0  0  0  0  0  0  0  0  0  0  0
   -1.9041   -1.0186    0.3602 N   0  0  0  0  0  0  0  0  0  0  0  0
   -2.6671   -0.5416   -0.0988 H   0  0  0  0  0  0  0  0  0  0  0  0
   -0.6131   -0.3236    0.3832 C   0  0  1  0  0  0  0  0  0  0  0  0
    0.0142   -0.7800    1.1506 H   0  0  0  0  0  0  0  0  0  0  0  0
    0.0816   -0.5059   -0.9788 C   0  0  0  0  0  0  0  0  0  0  0  0
    1.1354   -0.2393   -0.8739 H   0  0  0  0  0  0  0  0  0  0  0  0
    0.0230   -1.5541   -1.2752 H   0  0  0  0  0  0  0  0  0  0  0  0
   -0.5239    0.3533   -2.0949 C   0  0  0  0  0  0  0  0  0  0  0  0
   -0.6750    1.3665   -1.7238 H   0  0  0  0  0  0  0  0  0  0  0  0
    0.1764    0.3866   -2.9303 H   0  0  0  0  0  0  0  0  0  0  0  0
   -2.1130   -0.2645   -2.7054 S   0  0  0  0  0  0  0  0  0  0  0  0
   -1.5593   -1.7766   -3.5353 C   0  0  0  0  0  0  0  0  0  0  0  0
   -1.0799   -2.4380   -2.8130 H   0  0  0  0  0  0  0  0  0  0  0  0
   -2.4194   -2.2849   -3.9720 H   0  0  0  0  0  0  0  0  0  0  0  0
   -0.8522   -1.5243   -4.3261 H   0  0  0  0  0  0  0  0  0  0  0  0
   -0.8064    1.1568    0.7414 C   0  0  0  0  0  0  0  0  0  0  0  0
   -1.6978    1.8100    0.2029 O   0  0  0  0  0  0  0  0  0  0  0  0
    0.0314    1.6872    1.6415 N   0  0  0  0  0  0  0  0  0  0  0  0
    0.7279    1.0858    2.0517 H   0  0  0  0  0  0  0  0  0  0  0  0
   -0.0137    3.0826    2.0755 C   0  0  0  0  0  0  0  0  0  0  0  0
   -0.9991    3.3070    2.4905 H   0  0  0  0  0  0  0  0  0  0  0  0
    0.7468    3.2694    2.8349 H   0  0  0  0  0  0  0  0  0  0  0  0
    0.1592    3.7397    1.2213 H   0  0  0  0  0  0  0  0  0  0  0  0
  5  6  2  0  0  0  0
  5  7  1  0  0  0  0
  2  3  1  0  0  0  0
  2  4  1  0  0  0  0
  2  5  1  0  0  0  0
  1  2  1  0  0  0  0
 22 23  2  0  0  0  0
 22 24  1  0  0  0  0
 18 19  1  0  0  0  0
 18 20  1  0  0  0  0
 18 21  1  0  0  0  0
 17 18  1  0  0  0  0
 14 15  1  0  0  0  0
 14 16  1  0  0  0  0
 14 17  1  0  0  0  0
 11 12  1  0  0  0  0
 11 13  1  0  0  0  0
 11 14  1  0  0  0  0
  9 10  1  0  0  0  0
  9 11  1  0  0  0  0
  9 22  1  0  0  0  0
  7  8  1  0  0  0  0
  7  9  1  0  0  0  0
 26 27  1  0  0  0  0
 26 28  1  0  0  0  0
 26 29  1  0  0  0  0
 24 25  1  0  0  0  0
 24 26  1  0  0  0  0
M  END
$$$$
default_name
  -OEChem-02102213163D

 29 28  0     1  0  0  0  0  0999 V2000
   -3.5781   -3.7296    1.2702 H   0  0  0  0  0  0  0  0  0  0  0  0
   -3.5311   -2.7616    0.7732 C   0  0  0  0  0  0  0  0  0  0  0  0
   -4.2371   -2.0766    1.2382 H   0  0  0  0  0  0  0  0  0  0  0  0
   -3.7681   -2.8816   -0.2818 H   0  0  0  0  0  0  0  0  0  0  0  0
   -2.1321   -2.2086    0.9112 C   0  0  0  0  0  0  0  0  0  0  0  0
   -1.2751   -2.8426    1.5112 O   0  0  0  0  0  0  0  0  0  0  0  0
   -1.9041   -1.0186    0.3602 N   0  0  0  0  0  0  0  0  0  0  0  0
   -2.6671   -0.5416   -0.0988 H   0  0  0  0  0  0  0  0  0  0  0  0
   -0.6131   -0.3236    0.3832 C   0  0  1  0  0  0  0  0  0  0  0  0
    0.0142   -0.7800    1.1506 H   0  0  0  0  0  0  0  0  0  0  0  0
    0.0816   -0.5059   -0.9788 C   0  0  0  0  0  0  0  0  0  0  0  0
    1.1354   -0.2393   -0.8739 H   0  0  0  0  0  0  0  0  0  0  0  0
    0.0230   -1.5541   -1.2752 H   0  0  0  0  0  0  0  0  0  0  0  0
   -0.5239    0.3533   -2.0949 C   0  0  0  0  0  0  0  0  0  0  0  0
   -0.4300    1.4052   -1.8270 H   0  0  0  0  0  0  0  0  0  0  0  0
    0.0330    0.1748   -3.0155 H   0  0  0  0  0  0  0  0  0  0  0  0
   -2.2736    0.0074   -2.4090 S   0  0  0  0  0  0  0  0  0  0  0  0
   -2.1378   -1.6511   -3.1249 C   0  0  0  0  0  0  0  0  0  0  0  0
   -1.6800   -2.3272   -2.4022 H   0  0  0  0  0  0  0  0  0  0  0  0
   -3.1327   -2.0176   -3.3792 H   0  0  0  0  0  0  0  0  0  0  0  0
   -1.5279   -1.6131   -4.0280 H   0  0  0  0  0  0  0  0  0  0  0  0
   -0.8064    1.1568    0.7414 C   0  0  0  0  0  0  0  0  0  0  0  0
   -1.6978    1.8100    0.2029 O   0  0  0  0  0  0  0  0  0  0  0  0
    0.0314    1.6872    1.6415 N   0  0  0  0  0  0  0  0  0  0  0  0
    0.7279    1.0858    2.0517 H   0  0  0  0  0  0  0  0  0  0  0  0
   -0.0137    3.0826    2.0755 C   0  0  0  0  0  0  0  0  0  0  0  0
   -0.9991    3.3070    2.4905 H   0  0  0  0  0  0  0  0  0  0  0  0
    0.7468    3.2694    2.8349 H   0  0  0  0  0  0  0  0  0  0  0  0
    0.1592    3.7397    1.2213 H   0  0  0  0  0  0  0  0  0  0  0  0
  5  6  2  0  0  0  0
  5  7  1  0  0  0  0
  2  3  1  0  0  0  0
  2  4  1  0  0  0  0
  2  5  1  0  0  0  0
  1  2  1  0  0  0  0
 22 23  2  0  0  0  0
 22 24  1  0  0  0  0
 18 19  1  0  0  0  0
 18 20  1  0  0  0  0
 18 21  1  0  0  0  0
 17 18  1  0  0  0  0
 14 15  1  0  0  0  0
 14 16  1  0  0  0  0
 14 17  1  0  0  0  0
 11 12  1  0  0  0  0
 11 13  1  0  0  0  0
 11 14  1  0  0  0  0
  9 10  1  0  0  0  0
  9 11  1  0  0  0  0
  9 22  1  0  0  0  0
  7  8  1  0  0  0  0
  7  9  1  0  0  0  0
 26 27  1  0  0  0  0
 26 28  1  0  0  0  0
 26 29  1  0  0  0  0
 24 25  1  0  0  0  0
 24 26  1  0  0  0  0
M  END
$$$$
default_name
  -OEChem-02102213163D

 29 28  0     1  0  0  0  0  0999 V2000
   -3.5781   -3.7296    1.2702 H   0  0  0  0  0  0  0  0  0  0  0  0
   -3.5311   -2.7616    0.7732 C   0  0  0  0  0  0  0  0  0  0  0  0
   -4.2371   -2.0766    1.2382 H   0  0  0  0  0  0  0  0  0  0  0  0
   -3.7681   -2.8816   -0.2818 H   0  0  0  0  0  0  0  0  0  0  0  0
   -2.1321   -2.2086    0.9112 C   0  0  0  0  0  0  0  0  0  0  0  0
   -1.2751   -2.8426    1.5112 O   0  0  0  0  0  0  0  0  0  0  0  0
   -1.9041   -1.0186    0.3602 N   0  0  0  0  0  0  0  0  0  0  0  0
   -2.6671   -0.5416   -0.0988 H   0  0  0  0  0  0  0  0  0  0  0  0
   -0.6131   -0.3236    0.3832 C   0  0  1  0  0  0  0  0  0  0  0  0
    0.0142   -0.7800    1.1506 H   0  0  0  0  0  0  0  0  0  0  0  0
    0.0816   -0.5059   -0.9788 C   0  0  0  0  0  0  0  0  0  0  0  0
    1.1354   -0.2393   -0.8739 H   0  0  0  0  0  0  0  0  0  0  0  0
    0.0230   -1.5541   -1.2752 H   0  0  0  0  0  0  0  0  0  0  0  0
   -0.5239    0.3533   -2.0949 C   0  0  0  0  0  0  0  0  0  0  0  0
   -0.2009    1.3859   -1.9661 H   0  0  0  0  0  0  0  0  0  0  0  0
   -0.1579   -0.0114   -3.0553 H   0  0  0  0  0  0  0  0  0  0  0  0
   -2.3344    0.3306   -2.1271 S   0  0  0  0  0  0  0  0  0  0  0  0
   -2.6134   -1.3790   -2.6574 C   0  0  0  0  0  0  0  0  0  0  0  0
   -2.1792   -2.0651   -1.9296 H   0  0  0  0  0  0  0  0  0  0  0  0
   -3.6854   -1.5644   -2.7305 H   0  0  0  0  0  0  0  0  0  0  0  0
   -2.1540   -1.5411   -3.6329 H   0  0  0  0  0  0  0  0  0  0  0  0
   -0.8064    1.1568    0.7414 C   0  0  0  0  0  0  0  0  0  0  0  0
   -1.6978    1.8100    0.2029 O   0  0  0  0  0  0  0  0  0  0  0  0
    0.0314    1.6872    1.6415 N   0  0  0  0  0  0  0  0  0  0  0  0
    0.7279    1.0858    2.0517 H   0  0  0  0  0  0  0  0  0  0  0  0
   -0.0137    3.0826    2.0755 C   0  0  0  0  0  0  0  0  0  0  0  0
   -0.9991    3.3070    2.4905 H   0  0  0  0  0  0  0  0  0  0  0  0
    0.7468    3.2694    2.8349 H   0  0  0  0  0  0  0  0  0  0  0  0
    0.1592    3.7397    1.2213 H   0  0  0  0  0  0  0  0  0  0  0  0
  5  6  2  0  0  0  0
  5  7  1  0  0  0  0
  2  3  1  0  0  0  0
  2  4  1  0  0  0  0
  2  5  1  0  0  0  0
  1  2  1  0  0  0  0
 22 23  2  0  0  0  0
 22 24  1  0  0  0  0
 18 19  1  0  0  0  0
 18 20  1  0  0  0  0
 18 21  1  0  0  0  0
 17 18  1  0  0  0  0
 14 15  1  0  0  0  0
 14 16  1  0  0  0  0
 14 17  1  0  0  0  0
 11 12  1  0  0  0  0
 11 13  1  0  0  0  0
 11 14  1  0  0  0  0
  9 10  1  0  0  0  0
  9 11  1  0  0  0  0
  9 22  1  0  0  0  0
  7  8  1  0  0  0  0
  7  9  1  0  0  0  0
 26 27  1  0  0  0  0
 26 28  1  0  0  0  0
 26 29  1  0  0  0  0
 24 25  1  0  0  0  0
 24 26  1  0  0  0  0
M  END
$$$$
default_name
  -OEChem-02102213163D

 29 28  0     1  0  0  0  0  0999 V2000
   -3.5781   -3.7296    1.2702 H   0  0  0  0  0  0  0  0  0  0  0  0
   -3.5311   -2.7616    0.7732 C   0  0  0  0  0  0  0  0  0  0  0  0
   -4.2371   -2.0766    1.2382 H   0  0  0  0  0  0  0  0  0  0  0  0
   -3.7681   -2.8816   -0.2818 H   0  0  0  0  0  0  0  0  0  0  0  0
   -2.1321   -2.2086    0.9112 C   0  0  0  0  0  0  0  0  0  0  0  0
   -1.2751   -2.8426    1.5112 O   0  0  0  0  0  0  0  0  0  0  0  0
   -1.9041   -1.0186    0.3602 N   0  0  0  0  0  0  0  0  0  0  0  0
   -2.6671   -0.5416   -0.0988 H   0  0  0  0  0  0  0  0  0  0  0  0
   -0.6131   -0.3236    0.3832 C   0  0  1  0  0  0  0  0  0  0  0  0
    0.0142   -0.7800    1.1506 H   0  0  0  0  0  0  0  0  0  0  0  0
    0.0816   -0.5059   -0.9788 C   0  0  0  0  0  0  0  0  0  0  0  0
    1.1354   -0.2393   -0.8739 H   0  0  0  0  0  0  0  0  0  0  0  0
    0.0230   -1.5541   -1.2752 H   0  0  0  0  0  0  0  0  0  0  0  0
   -0.5239    0.3533   -2.0949 C   0  0  0  0  0  0  0  0  0  0  0  0
   -0.0035    1.3098   -2.1318 H   0  0  0  0  0  0  0  0  0  0  0  0
   -0.3831   -0.1594   -3.0471 H   0  0  0  0  0  0  0  0  0  0  0  0
   -2.2914    0.6831   -1.8791 S   0  0  0  0  0  0  0  0  0  0  0  0
   -2.9537   -0.9787   -2.1646 C   0  0  0  0  0  0  0  0  0  0  0  0
   -2.5434   -1.6696   -1.4276 H   0  0  0  0  0  0  0  0  0  0  0  0
   -4.0397   -0.9562   -2.0700 H   0  0  0  0  0  0  0  0  0  0  0  0
   -2.6879   -1.3132   -3.1678 H   0  0  0  0  0  0  0  0  0  0  0  0
   -0.8064    1.1568    0.7414 C   0  0  0  0  0  0  0  0  0  0  0  0
   -1.6978    1.8100    0.2029 O   0  0  0  0  0  0  0  0  0  0  0  0
    0.0314    1.6872    1.6415 N   0  0  0  0  0  0  0  0  0  0  0  0
    0.7279    1.0858    2.0517 H   0  0  0  0  0  0  0  0  0  0  0  0
   -0.0137    3.0826    2.0755 C   0  0  0  0  0  0  0  0  0  0  0  0
   -0.9991    3.3070    2.4905 H   0  0  0  0  0  0  0  0  0  0  0  0
    0.7468    3.2694    2.8349 H   0  0  0  0  0  0  0  0  0  0  0  0
    0.1592    3.7397    1.2213 H   0  0  0  0  0  0  0  0  0  0  0  0
  5  6  2  0  0  0  0
  5  7  1  0  0  0  0
  2  3  1  0  0  0  0
  2  4  1  0  0  0  0
  2  5  1  0  0  0  0
  1  2  1  0  0  0  0
 22 23  2  0  0  0  0
 22 24  1  0  0  0  0
 18 19  1  0  0  0  0
 18 20  1  0  0  0  0
 18 21  1  0  0  0  0
 17 18  1  0  0  0  0
 14 15  1  0  0  0  0
 14 16  1  0  0  0  0
 14 17  1  0  0  0  0
 11 12  1  0  0  0  0
 11 13  1  0  0  0  0
 11 14  1  0  0  0  0
  9 10  1  0  0  0  0
  9 11  1  0  0  0  0
  9 22  1  0  0  0  0
  7  8  1  0  0  0  0
  7  9  1  0  0  0  0
 26 27  1  0  0  0  0
 26 28  1  0  0  0  0
 26 29  1  0  0  0  0
 24 25  1  0  0  0  0
 24 26  1  0  0  0  0
M  END
$$$$
default_name
  -OEChem-02102213163D

 29 28  0     1  0  0  0  0  0999 V2000
   -3.5781   -3.7296    1.2702 H   0  0  0  0  0  0  0  0  0  0  0  0
   -3.5311   -2.7616    0.7732 C   0  0  0  0  0  0  0  0  0  0  0  0
   -4.2371   -2.0766    1.2382 H   0  0  0  0  0  0  0  0  0  0  0  0
   -3.7681   -2.8816   -0.2818 H   0  0  0  0  0  0  0  0  0  0  0  0
   -2.1321   -2.2086    0.9112 C   0  0  0  0  0  0  0  0  0  0  0  0
   -1.2751   -2.8426    1.5112 O   0  0  0  0  0  0  0  0  0  0  0  0
   -1.9041   -1.0186    0.3602 N   0  0  0  0  0  0  0  0  0  0  0  0
   -2.6671   -0.5416   -0.0988 H   0  0  0  0  0  0  0  0  0  0  0  0
   -0.6131   -0.3236    0.3832 C   0  0  1  0  0  0  0  0  0  0  0  0
    0.0142   -0.7800    1.1506 H   0  0  0  0  0  0  0  0  0  0  0  0
    0.0816   -0.5059   -0.9788 C   0  0  0  0  0  0  0  0  0  0  0  0
    1.1354   -0.2393   -0.8739 H   0  0  0  0  0  0  0  0  0  0  0  0
    0.0230   -1.5541   -1.2752 H   0  0  0  0  0  0  0  0  0  0  0  0
   -0.5239    0.3533   -2.0949 C   0  0  0  0  0  0  0  0  0  0  0  0
    0.1488    1.1823   -2.3126 H   0  0  0  0  0  0  0  0  0  0  0  0
   -0.6273   -0.2591   -2.9913 H   0  0  0  0  0  0  0  0  0  0  0  0
   -2.1475    1.0408   -1.6818 S   0  0  0  0  0  0  0  0  0  0  0  0
   -3.1356   -0.4776   -1.6802 C   0  0  0  0  0  0  0  0  0  0  0  0
   -2.7479   -1.1677   -0.9302 H   0  0  0  0  0  0  0  0  0  0  0  0
   -4.1716   -0.2344   -1.4429 H   0  0  0  0  0  0  0  0  0  0  0  0
   -3.0933   -0.9450   -2.6644 H   0  0  0  0  0  0  0  0  0  0  0  0
   -0.8064    1.1568    0.7414 C   0  0  0  0  0  0  0  0  0  0  0  0
   -1.6978    1.8100    0.2029 O   0  0  0  0  0  0  0  0  0  0  0  0
    0.0314    1.6872    1.6415 N   0  0  0  0  0  0  0  0  0  0  0  0
    0.7279    1.0858    2.0517 H   0  0  0  0  0  0  0  0  0  0  0  0
   -0.0137    3.0826    2.0755 C   0  0  0  0  0  0  0  0  0  0  0  0
   -0.9991    3.3070    2.4905 H   0  0  0  0  0  0  0  0  0  0  0  0
    0.7468    3.2694    2.8349 H   0  0  0  0  0  0  0  0  0  0  0  0
    0.1592    3.7397    1.2213 H   0  0  0  0  0  0  0  0  0  0  0  0
  5  6  2  0  0  0  0
  5  7  1  0  0  0  0
  2  3  1  0  0  0  0
  2  4  1  0  0  0  0
  2  5  1  0  0  0  0
  1  2  1  0  0  0  0
 22 23  2  0  0  0  0
 22 24  1  0  0  0  0
 18 19  1  0  0  0  0
 18 20  1  0  0  0  0
 18 21  1  0  0  0  0
 17 18  1  0  0  0  0
 14 15  1  0  0  0  0
 14 16  1  0  0  0  0
 14 17  1  0  0  0  0
 11 12  1  0  0  0  0
 11 13  1  0  0  0  0
 11 14  1  0  0  0  0
  9 10  1  0  0  0  0
  9 11  1  0  0  0  0
  9 22  1  0  0  0  0
  7  8  1  0  0  0  0
  7  9  1  0  0  0  0
 26 27  1  0  0  0  0
 26 28  1  0  0  0  0
 26 29  1  0  0  0  0
 24 25  1  0  0  0  0
 24 26  1  0  0  0  0
M  END
$$$$
default_name
  -OEChem-02102213163D

 29 28  0     1  0  0  0  0  0999 V2000
   -3.5781   -3.7296    1.2702 H   0  0  0  0  0  0  0  0  0  0  0  0
   -3.5311   -2.7616    0.7732 C   0  0  0  0  0  0  0  0  0  0  0  0
   -4.2371   -2.0766    1.2382 H   0  0  0  0  0  0  0  0  0  0  0  0
   -3.7681   -2.8816   -0.2818 H   0  0  0  0  0  0  0  0  0  0  0  0
   -2.1321   -2.2086    0.9112 C   0  0  0  0  0  0  0  0  0  0  0  0
   -1.2751   -2.8426    1.5112 O   0  0  0  0  0  0  0  0  0  0  0  0
   -1.9041   -1.0186    0.3602 N   0  0  0  0  0  0  0  0  0  0  0  0
   -2.6671   -0.5416   -0.0988 H   0  0  0  0  0  0  0  0  0  0  0  0
   -0.6131   -0.3236    0.3832 C   0  0  1  0  0  0  0  0  0  0  0  0
    0.0142   -0.7800    1.1506 H   0  0  0  0  0  0  0  0  0  0  0  0
    0.0816   -0.5059   -0.9788 C   0  0  0  0  0  0  0  0  0  0  0  0
    1.1354   -0.2393   -0.8739 H   0  0  0  0  0  0  0  0  0  0  0  0
    0.0230   -1.5541   -1.2752 H   0  0  0  0  0  0  0  0  0  0  0  0
   -0.5239    0.3533   -2.0949 C   0  0  0  0  0  0  0  0  0  0  0  0
    0.2457    1.0118   -2.4964 H   0  0  0  0  0  0  0  0  0  0  0  0
   -0.8739   -0.3037   -2.8919 H   0  0  0  0  0  0  0  0  0  0  0  0
   -1.9125    1.3794   -1.5486 S   0  0  0  0  0  0  0  0  0  0  0  0
   -3.1465    0.0902   -1.2371 C   0  0  0  0  0  0  0  0  0  0  0  0
   -2.7787   -0.5935   -0.4715 H   0  0  0  0  0  0  0  0  0  0  0  0
   -4.0720    0.5517   -0.8917 H   0  0  0  0  0  0  0  0  0  0  0  0
   -3.3424   -0.4615   -2.1570 H   0  0  0  0  0  0  0  0  0  0  0  0
   -0.8064    1.1568    0.7414 C   0  0  0  0  0  0  0  0  0  0  0  0
   -1.6978    1.8100    0.2029 O   0  0  0  0  0  0  0  0  0  0  0  0
    0.0314    1.6872    1.6415 N   0  0  0  0  0  0  0  0  0  0  0  0
    0.7279    1.0858    2.0517 H   0  0  0  0  0  0  0  0  0  0  0  0
   -0.0137    3.0826    2.0755 C   0  0  0  0  0  0  0  0  0  0  0  0
   -0.9991    3.3070    2.4905 H   0  0  0  0  0  0  0  0  0  0  0  0
    0.7468    3.2694    2.8349 H   0  0  0  0  0  0  0  0  0  0  0  0
    0.1592    3.7397    1.2213 H   0  0  0  0  0  0  0  0  0  0  0  0
  5  6  2  0  0  0  0
  5  7  1  0  0  0  0
  2  3  1  0  0  0  0
  2  4  1  0  0  0  0
  2  5  1  0  0  0  0
  1  2  1  0  0  0  0
 22 23  2  0  0  0  0
 22 24  1  0  0  0  0
 18 19  1  0  0  0  0
 18 20  1  0  0  0  0
 18 21  1  0  0  0  0
 17 18  1  0  0  0  0
 14 15  1  0  0  0  0
 14 16  1  0  0  0  0
 14 17  1  0  0  0  0
 11 12  1  0  0  0  0
 11 13  1  0  0  0  0
 11 14  1  0  0  0  0
  9 10  1  0  0  0  0
  9 11  1  0  0  0  0
  9 22  1  0  0  0  0
  7  8  1  0  0  0  0
  7  9  1  0  0  0  0
 26 27  1  0  0  0  0
 26 28  1  0  0  0  0
 26 29  1  0  0  0  0
 24 25  1  0  0  0  0
 24 26  1  0  0  0  0
M  END
$$$$
default_name
  -OEChem-02102213163D

 29 28  0     1  0  0  0  0  0999 V2000
   -3.5781   -3.7296    1.2702 H   0  0  0  0  0  0  0  0  0  0  0  0
   -3.5311   -2.7616    0.7732 C   0  0  0  0  0  0  0  0  0  0  0  0
   -4.2371   -2.0766    1.2382 H   0  0  0  0  0  0  0  0  0  0  0  0
   -3.7681   -2.8816   -0.2818 H   0  0  0  0  0  0  0  0  0  0  0  0
   -2.1321   -2.2086    0.9112 C   0  0  0  0  0  0  0  0  0  0  0  0
   -1.2751   -2.8426    1.5112 O   0  0  0  0  0  0  0  0  0  0  0  0
   -1.9041   -1.0186    0.3602 N   0  0  0  0  0  0  0  0  0  0  0  0
   -2.6671   -0.5416   -0.0988 H   0  0  0  0  0  0  0  0  0  0  0  0
   -0.6131   -0.3236    0.3832 C   0  0  1  0  0  0  0  0  0  0  0  0
    0.0142   -0.7800    1.1506 H   0  0  0  0  0  0  0  0  0  0  0  0
    0.0816   -0.5059   -0.9788 C   0  0  0  0  0  0  0  0  0  0  0  0
    1.1354   -0.2393   -0.8739 H   0  0  0  0  0  0  0  0  0  0  0  0
    0.0230   -1.5541   -1.2752 H   0  0  0  0  0  0  0  0  0  0  0  0
   -0.5239    0.3533   -2.0949 C   0  0  0  0  0  0  0  0  0  0  0  0
    0.2805    0.8102   -2.6705 H   0  0  0  0  0  0  0  0  0  0  0  0
   -1.1061   -0.2902   -2.7555 H   0  0  0  0  0  0  0  0  0  0  0  0
   -1.6024    1.6758   -1.4887 S   0  0  0  0  0  0  0  0  0  0  0  0
   -2.9859    0.6861   -0.8656 C   0  0  0  0  0  0  0  0  0  0  0  0
   -2.6337    0.0139   -0.0826 H   0  0  0  0  0  0  0  0  0  0  0  0
   -3.7478    1.3486   -0.4541 H   0  0  0  0  0  0  0  0  0  0  0  0
   -3.4183    0.1044   -1.6802 H   0  0  0  0  0  0  0  0  0  0  0  0
   -0.8064    1.1568    0.7414 C   0  0  0  0  0  0  0  0  0  0  0  0
   -1.6978    1.8100    0.2029 O   0  0  0  0  0  0  0  0  0  0  0  0
    0.0314    1.6872    1.6415 N   0  0  0  0  0  0  0  0  0  0  0  0
    0.7279    1.0858    2.0517 H   0  0  0  0  0  0  0  0  0  0  0  0
   -0.0137    3.0826    2.0755 C   0  0  0  0  0  0  0  0  0  0  0  0
   -0.9991    3.3070    2.4905 H   0  0  0  0  0  0  0  0  0  0  0  0
    0.7468    3.2694    2.8349 H   0  0  0  0  0  0  0  0  0  0  0  0
    0.1592    3.7397    1.2213 H   0  0  0  0  0  0  0  0  0  0  0  0
  5  6  2  0  0  0  0
  5  7  1  0  0  0  0
  2  3  1  0  0  0  0
  2  4  1  0  0  0  0
  2  5  1  0  0  0  0
  1  2  1  0  0  0  0
 22 23  2  0  0  0  0
 22 24  1  0  0  0  0
 18 19  1  0  0  0  0
 18 20  1  0  0  0  0
 18 21  1  0  0  0  0
 17 18  1  0  0  0  0
 14 15  1  0  0  0  0
 14 16  1  0  0  0  0
 14 17  1  0  0  0  0
 11 12  1  0  0  0  0
 11 13  1  0  0  0  0
 11 14  1  0  0  0  0
  9 10  1  0  0  0  0
  9 11  1  0  0  0  0
  9 22  1  0  0  0  0
  7  8  1  0  0  0  0
  7  9  1  0  0  0  0
 26 27  1  0  0  0  0
 26 28  1  0  0  0  0
 26 29  1  0  0  0  0
 24 25  1  0  0  0  0
 24 26  1  0  0  0  0
M  END
$$$$
default_name
  -OEChem-02102213163D

 29 28  0     1  0  0  0  0  0999 V2000
   -3.5781   -3.7296    1.2702 H   0  0  0  0  0  0  0  0  0  0  0  0
   -3.5311   -2.7616    0.7732 C   0  0  0  0  0  0  0  0  0  0  0  0
   -4.2371   -2.0766    1.2382 H   0  0  0  0  0  0  0  0  0  0  0  0
   -3.7681   -2.8816   -0.2818 H   0  0  0  0  0  0  0  0  0  0  0  0
   -2.1321   -2.2086    0.9112 C   0  0  0  0  0  0  0  0  0  0  0  0
   -1.2751   -2.8426    1.5112 O   0  0  0  0  0  0  0  0  0  0  0  0
   -1.9041   -1.0186    0.3602 N   0  0  0  0  0  0  0  0  0  0  0  0
   -2.6671   -0.5416   -0.0988 H   0  0  0  0  0  0  0  0  0  0  0  0
   -0.6131   -0.3236    0.3832 C   0  0  1  0  0  0  0  0  0  0  0  0
    0.0142   -0.7800    1.1506 H   0  0  0  0  0  0  0  0  0  0  0  0
    0.0816   -0.5059   -0.9788 C   0  0  0  0  0  0  0  0  0  0  0  0
    1.1354   -0.2393   -0.8739 H   0  0  0  0  0  0  0  0  0  0  0  0
    0.0230   -1.5541   -1.2752 H   0  0  0  0  0  0  0  0  0  0  0  0
   -0.5239    0.3533   -2.0949 C   0  0  0  0  0  0  0  0  0  0  0  0
    0.2509    0.5910   -2.8231 H   0  0  0  0  0  0  0  0  0  0  0  0
   -1.3080   -0.2194   -2.5914 H   0  0  0  0  0  0  0  0  0  0  0  0
   -1.2383    1.9098   -1.5061 S   0  0  0  0  0  0  0  0  0  0  0  0
   -2.6645    1.2693   -0.5910 C   0  0  0  0  0  0  0  0  0  0  0  0
   -2.3229    0.6130    0.2100 H   0  0  0  0  0  0  0  0  0  0  0  0
   -3.2210    2.1020   -0.1600 H   0  0  0  0  0  0  0  0  0  0  0  0
   -3.3159    0.7140   -1.2665 H   0  0  0  0  0  0  0  0  0  0  0  0
   -0.8064    1.1568    0.7414 C   0  0  0  0  0  0  0  0  0  0  0  0
   -1.6978    1.8100    0.2029 O   0  0  0  0  0  0  0  0  0  0  0  0
    0.0314    1.6872    1.6415 N   0  0  0  0  0  0  0  0  0  0  0  0
    0.7279    1.0858    2.0517 H   0  0  0  0  0  0  0  0  0  0  0  0
   -0.0137    3.0826    2.0755 C   0  0  0  0  0  0  0  0  0  0  0  0
   -0.9991    3.3070    2.4905 H   0  0  0  0  0  0  0  0  0  0  0  0
    0.7468    3.2694    2.8349 H   0  0  0  0  0  0  0  0  0  0  0  0
    0.1592    3.7397    1.2213 H   0  0  0  0  0  0  0  0  0  0  0  0
  5  6  2  0  0  0  0
  5  7  1  0  0  0  0
  2  3  1  0  0  0  0
  2  4  1  0  0  0  0
  2  5  1  0  0  0  0
  1  2  1  0  0  0  0
 22 23  2  0  0  0  0
 22 24  1  0  0  0  0
 18 19  1  0  0  0  0
 18 20  1  0  0  0  0
 18 21  1  0  0  0  0
 17 18  1  0  0  0  0
 14 15  1  0  0  0  0
 14 16  1  0  0  0  0
 14 17  1  0  0  0  0
 11 12  1  0  0  0  0
 11 13  1  0  0  0  0
 11 14  1  0  0  0  0
  9 10  1  0  0  0  0
  9 11  1  0  0  0  0
  9 22  1  0  0  0  0
  7  8  1  0  0  0  0
  7  9  1  0  0  0  0
 26 27  1  0  0  0  0
 26 28  1  0  0  0  0
 26 29  1  0  0  0  0
 24 25  1  0  0  0  0
 24 26  1  0  0  0  0
M  END
$$$$
default_name
  -OEChem-02102213163D

 29 28  0     1  0  0  0  0  0999 V2000
   -3.5781   -3.7296    1.2702 H   0  0  0  0  0  0  0  0  0  0  0  0
   -3.5311   -2.7616    0.7732 C   0  0  0  0  0  0  0  0  0  0  0  0
   -4.2371   -2.0766    1.2382 H   0  0  0  0  0  0  0  0  0  0  0  0
   -3.7681   -2.8816   -0.2818 H   0  0  0  0  0  0  0  0  0  0  0  0
   -2.1321   -2.2086    0.9112 C   0  0  0  0  0  0  0  0  0  0  0  0
   -1.2751   -2.8426    1.5112 O   0  0  0  0  0  0  0  0  0  0  0  0
   -1.9041   -1.0186    0.3602 N   0  0  0  0  0  0  0  0  0  0  0  0
   -2.6671   -0.5416   -0.0988 H   0  0  0  0  0  0  0  0  0  0  0  0
   -0.6131   -0.3236    0.3832 C   0  0  1  0  0  0  0  0  0  0  0  0
    0.0142   -0.7800    1.1506 H   0  0  0  0  0  0  0  0  0  0  0  0
    0.0816   -0.5059   -0.9788 C   0  0  0  0  0  0  0  0  0  0  0  0
    1.1354   -0.2393   -0.8739 H   0  0  0  0  0  0  0  0  0  0  0  0
    0.0230   -1.5541   -1.2752 H   0  0  0  0  0  0  0  0  0  0  0  0
   -0.5239    0.3533   -2.0949 C   0  0  0  0  0  0  0  0  0  0  0  0
    0.1589    0.3693   -2.9439 H   0  0  0  0  0  0  0  0  0  0  0  0
   -1.4659   -0.0962   -2.4109 H   0  0  0  0  0  0  0  0  0  0  0  0
   -0.8451    2.0654   -1.5997 S   0  0  0  0  0  0  0  0  0  0  0  0
   -2.2044    1.8002   -0.4319 C   0  0  0  0  0  0  0  0  0  0  0  0
   -1.8673    1.1630    0.3862 H   0  0  0  0  0  0  0  0  0  0  0  0
   -2.5275    2.7606   -0.0292 H   0  0  0  0  0  0  0  0  0  0  0  0
   -3.0420    1.3259   -0.9440 H   0  0  0  0  0  0  0  0  0  0  0  0
   -0.8064    1.1568    0.7414 C   0  0  0  0  0  0  0  0  0  0  0  0
   -1.6978    1.8100    0.2029 O   0  0  0  0  0  0  0  0  0  0  0  0
    0.0314    1.6872    1.6415 N   0  0  0  0  0  0  0  0  0  0  0  0
    0.7279    1.0858    2.0517 H   0  0  0  0  0  0  0  0  0  0  0  0
   -0.0137    3.0826    2.0755 C   0  0  0  0  0  0  0  0  0  0  0  0
   -0.9991    3.3070    2.4905 H   0  0  0  0  0  0  0  0  0  0  0  0
    0.7468    3.2694    2.8349 H   0  0  0  0  0  0  0  0  0  0  0  0
    0.1592    3.7397    1.2213 H   0  0  0  0  0  0  0  0  0  0  0  0
  5  6  2  0  0  0  0
  5  7  1  0  0  0  0
  2  3  1  0  0  0  0
  2  4  1  0  0  0  0
  2  5  1  0  0  0  0
  1  2  1  0  0  0  0
 22 23  2  0  0  0  0
 22 24  1  0  0  0  0
 18 19  1  0  0  0  0
 18 20  1  0  0  0  0
 18 21  1  0  0  0  0
 17 18  1  0  0  0  0
 14 15  1  0  0  0  0
 14 16  1  0  0  0  0
 14 17  1  0  0  0  0
 11 12  1  0  0  0  0
 11 13  1  0  0  0  0
 11 14  1  0  0  0  0
  9 10  1  0  0  0  0
  9 11  1  0  0  0  0
  9 22  1  0  0  0  0
  7  8  1  0  0  0  0
  7  9  1  0  0  0  0
 26 27  1  0  0  0  0
 26 28  1  0  0  0  0
 26 29  1  0  0  0  0
 24 25  1  0  0  0  0
 24 26  1  0  0  0  0
M  END
$$$$
default_name
  -OEChem-02102213163D

 29 28  0     1  0  0  0  0  0999 V2000
   -3.5781   -3.7296    1.2702 H   0  0  0  0  0  0  0  0  0  0  0  0
   -3.5311   -2.7616    0.7732 C   0  0  0  0  0  0  0  0  0  0  0  0
   -4.2371   -2.0766    1.2382 H   0  0  0  0  0  0  0  0  0  0  0  0
   -3.7681   -2.8816   -0.2818 H   0  0  0  0  0  0  0  0  0  0  0  0
   -2.1321   -2.2086    0.9112 C   0  0  0  0  0  0  0  0  0  0  0  0
   -1.2751   -2.8426    1.5112 O   0  0  0  0  0  0  0  0  0  0  0  0
   -1.9041   -1.0186    0.3602 N   0  0  0  0  0  0  0  0  0  0  0  0
   -2.6671   -0.5416   -0.0988 H   0  0  0  0  0  0  0  0  0  0  0  0
   -0.6131   -0.3236    0.3832 C   0  0  1  0  0  0  0  0  0  0  0  0
    0.0142   -0.7800    1.1506 H   0  0  0  0  0  0  0  0  0  0  0  0
    0.0816   -0.5059   -0.9788 C   0  0  0  0  0  0  0  0  0  0  0  0
    1.1354   -0.2393   -0.8739 H   0  0  0  0  0  0  0  0  0  0  0  0
    0.0230   -1.5541   -1.2752 H   0  0  0  0  0  0  0  0  0  0  0  0
   -0.5239    0.3533   -2.0949 C   0  0  0  0  0  0  0  0  0  0  0  0
    0.0107    0.1602   -3.0245 H   0  0  0  0  0  0  0  0  0  0  0  0
   -1.5691    0.0710   -2.2263 H   0  0  0  0  0  0  0  0  0  0  0  0
   -0.4495    2.1320   -1.7630 S   0  0  0  0  0  0  0  0  0  0  0  0
   -1.6369    2.2425   -0.3993 C   0  0  0  0  0  0  0  0  0  0  0  0
   -1.2980    1.6264    0.4341 H   0  0  0  0  0  0  0  0  0  0  0  0
   -1.7146    3.2793   -0.0709 H   0  0  0  0  0  0  0  0  0  0  0  0
   -2.6155    1.8982   -0.7348 H   0  0  0  0  0  0  0  0  0  0  0  0
   -0.8064    1.1568    0.7414 C   0  0  0  0  0  0  0  0  0  0  0  0
   -1.6978    1.8100    0.2029 O   0  0  0  0  0  0  0  0  0  0  0  0
    0.0314    1.6872    1.6415 N   0  0  0  0  0  0  0  0  0  0  0  0
    0.7279    1.0858    2.0517 H   0  0  0  0  0  0  0  0  0  0  0  0
   -0.0137    3.0826    2.0755 C   0  0  0  0  0  0  0  0  0  0  0  0
   -0.9991    3.3070    2.4905 H   0  0  0  0  0  0  0  0  0  0  0  0
    0.7468    3.2694    2.8349 H   0  0  0  0  0  0  0  0  0  0  0  0
    0.1592    3.7397    1.2213 H   0  0  0  0  0  0  0  0  0  0  0  0
  5  6  2  0  0  0  0
  5  7  1  0  0  0  0
  2  3  1  0  0  0  0
  2  4  1  0  0  0  0
  2  5  1  0  0  0  0
  1  2  1  0  0  0  0
 22 23  2  0  0  0  0
 22 24  1  0  0  0  0
 18 19  1  0  0  0  0
 18 20  1  0  0  0  0
 18 21  1  0  0  0  0
 17 18  1  0  0  0  0
 14 15  1  0  0  0  0
 14 16  1  0  0  0  0
 14 17  1  0  0  0  0
 11 12  1  0  0  0  0
 11 13  1  0  0  0  0
 11 14  1  0  0  0  0
  9 10  1  0  0  0  0
  9 11  1  0  0  0  0
  9 22  1  0  0  0  0
  7  8  1  0  0  0  0
  7  9  1  0  0  0  0
 26 27  1  0  0  0  0
 26 28  1  0  0  0  0
 26 29  1  0  0  0  0
 24 25  1  0  0  0  0
 24 26  1  0  0  0  0
M  END
$$$$
default_name
  -OEChem-02102213163D

 29 28  0     1  0  0  0  0  0999 V2000
   -3.5781   -3.7296    1.2702 H   0  0  0  0  0  0  0  0  0  0  0  0
   -3.5311   -2.7616    0.7732 C   0  0  0  0  0  0  0  0  0  0  0  0
   -4.2371   -2.0766    1.2382 H   0  0  0  0  0  0  0  0  0  0  0  0
   -3.7681   -2.8816   -0.2818 H   0  0  0  0  0  0  0  0  0  0  0  0
   -2.1321   -2.2086    0.9112 C   0  0  0  0  0  0  0  0  0  0  0  0
   -1.2751   -2.8426    1.5112 O   0  0  0  0  0  0  0  0  0  0  0  0
   -1.9041   -1.0186    0.3602 N   0  0  0  0  0  0  0  0  0  0  0  0
   -2.6671   -0.5416   -0.0988 H   0  0  0  0  0  0  0  0  0  0  0  0
   -0.6131   -0.3236    0.3832 C   0  0  1  0  0  0  0  0  0  0  0  0
    0.0142   -0.7800    1.1506 H   0  0  0  0  0  0  0  0  0  0  0  0
    0.0816   -0.5059   -0.9788 C   0  0  0  0  0  0  0  0  0  0  0  0
    1.1354   -0.2393   -0.8739 H   0  0  0  0  0  0  0  0  0  0  0  0
    0.0230   -1.5541   -1.2752 H   0  0  0  0  0  0  0  0  0  0  0  0
   -0.5239    0.3533   -2.0949 C   0  0  0  0  0  0  0  0  0  0  0  0
   -0.1836   -0.0221   -3.0594 H   0  0  0  0  0  0  0  0  0  0  0  0
   -1.6104    0.2708   -2.0500 H   0  0  0  0  0  0  0  0  0  0  0  0
   -0.0785    2.1052   -1.9849 S   0  0  0  0  0  0  0  0  0  0  0  0
   -1.0006    2.5662   -0.4953 C   0  0  0  0  0  0  0  0  0  0  0  0
   -0.6538    1.9717    0.3505 H   0  0  0  0  0  0  0  0  0  0  0  0
   -0.8377    3.6230   -0.2820 H   0  0  0  0  0  0  0  0  0  0  0  0
   -2.0653    2.3921   -0.6531 H   0  0  0  0  0  0  0  0  0  0  0  0
   -0.8064    1.1568    0.7414 C   0  0  0  0  0  0  0  0  0  0  0  0
   -1.6978    1.8100    0.2029 O   0  0  0  0  0  0  0  0  0  0  0  0
    0.0314    1.6872    1.6415 N   0  0  0  0  0  0  0  0  0  0  0  0
    0.7279    1.0858    2.0517 H   0  0  0  0  0  0  0  0  0  0  0  0
   -0.0137    3.0826    2.0755 C   0  0  0  0  0  0  0  0  0  0  0  0
   -0.9991    3.3070    2.4905 H   0  0  0  0  0  0  0  0  0  0  0  0
    0.7468    3.2694    2.8349 H   0  0  0  0  0  0  0  0  0  0  0  0
    0.1592    3.7397    1.2213 H   0  0  0  0  0  0  0  0  0  0  0  0
  5  6  2  0  0  0  0
  5  7  1  0  0  0  0
  2  3  1  0  0  0  0
  2  4  1  0  0  0  0
  2  5  1  0  0  0  0
  1  2  1  0  0  0  0
 22 23  2  0  0  0  0
 22 24  1  0  0  0  0
 18 19  1  0  0  0  0
 18 20  1  0  0  0  0
 18 21  1  0  0  0  0
 17 18  1  0  0  0  0
 14 15  1  0  0  0  0
 14 16  1  0  0  0  0
 14 17  1  0  0  0  0
 11 12  1  0  0  0  0
 11 13  1  0  0  0  0
 11 14  1  0  0  0  0
  9 10  1  0  0  0  0
  9 11  1  0  0  0  0
  9 22  1  0  0  0  0
  7  8  1  0  0  0  0
  7  9  1  0  0  0  0
 26 27  1  0  0  0  0
 26 28  1  0  0  0  0
 26 29  1  0  0  0  0
 24 25  1  0  0  0  0
 24 26  1  0  0  0  0
M  END
$$$$
default_name
  -OEChem-02102213163D

 29 28  0     1  0  0  0  0  0999 V2000
   -3.5781   -3.7296    1.2702 H   0  0  0  0  0  0  0  0  0  0  0  0
   -3.5311   -2.7616    0.7732 C   0  0  0  0  0  0  0  0  0  0  0  0
   -4.2371   -2.0766    1.2382 H   0  0  0  0  0  0  0  0  0  0  0  0
   -3.7681   -2.8816   -0.2818 H   0  0  0  0  0  0  0  0  0  0  0  0
   -2.1321   -2.2086    0.9112 C   0  0  0  0  0  0  0  0  0  0  0  0
   -1.2751   -2.8426    1.5112 O   0  0  0  0  0  0  0  0  0  0  0  0
   -1.9041   -1.0186    0.3602 N   0  0  0  0  0  0  0  0  0  0  0  0
   -2.6671   -0.5416   -0.0988 H   0  0  0  0  0  0  0  0  0  0  0  0
   -0.6131   -0.3236    0.3832 C   0  0  1  0  0  0  0  0  0  0  0  0
    0.0142   -0.7800    1.1506 H   0  0  0  0  0  0  0  0  0  0  0  0
    0.0816   -0.5059   -0.9788 C   0  0  0  0  0  0  0  0  0  0  0  0
    1.1354   -0.2393   -0.8739 H   0  0  0  0  0  0  0  0  0  0  0  0
    0.0230   -1.5541   -1.2752 H   0  0  0  0  0  0  0  0  0  0  0  0
   -0.5239    0.3533   -2.0949 C   0  0  0  0  0  0  0  0  0  0  0  0
   -0.4106   -0.1652   -3.0464 H   0  0  0  0  0  0  0  0  0  0  0  0
   -1.5871    0.4896   -1.8942 H   0  0  0  0  0  0  0  0  0  0  0  0
    0.2426    1.9867   -2.2503 S   0  0  0  0  0  0  0  0  0  0  0  0
   -0.3389    2.7492   -0.7134 C   0  0  0  0  0  0  0  0  0  0  0  0
    0.0213    2.1753    0.1410 H   0  0  0  0  0  0  0  0  0  0  0  0
    0.0434    3.7682   -0.6483 H   0  0  0  0  0  0  0  0  0  0  0  0
   -1.4290    2.7739   -0.7045 H   0  0  0  0  0  0  0  0  0  0  0  0
   -0.8064    1.1568    0.7414 C   0  0  0  0  0  0  0  0  0  0  0  0
   -1.6978    1.8100    0.2029 O   0  0  0  0  0  0  0  0  0  0  0  0
    0.0314    1.6872    1.6415 N   0  0  0  0  0  0  0  0  0  0  0  0
    0.7279    1.0858    2.0517 H   0  0  0  0  0  0  0  0  0  0  0  0
   -0.0137    3.0826    2.0755 C   0  0  0  0  0  0  0  0  0  0  0  0
   -0.9991    3.3070    2.4905 H   0  0  0  0  0  0  0  0  0  0  0  0
    0.7468    3.2694    2.8349 H   0  0  0  0  0  0  0  0  0  0  0  0
    0.1592    3.7397    1.2213 H   0  0  0  0  0  0  0  0  0  0  0  0
  5  6  2  0  0  0  0
  5  7  1  0  0  0  0
  2  3  1  0  0  0  0
  2  4  1  0  0  0  0
  2  5  1  0  0  0  0
  1  2  1  0  0  0  0
 22 23  2  0  0  0  0
 22 24  1  0  0  0  0
 18 19  1  0  0  0  0
 18 20  1  0  0  0  0
 18 21  1  0  0  0  0
 17 18  1  0  0  0  0
 14 15  1  0  0  0  0
 14 16  1  0  0  0  0
 14 17  1  0  0  0  0
 11 12  1  0  0  0  0
 11 13  1  0  0  0  0
 11 14  1  0  0  0  0
  9 10  1  0  0  0  0
  9 11  1  0  0  0  0
  9 22  1  0  0  0  0
  7  8  1  0  0  0  0
  7  9  1  0  0  0  0
 26 27  1  0  0  0  0
 26 28  1  0  0  0  0
 26 29  1  0  0  0  0
 24 25  1  0  0  0  0
 24 26  1  0  0  0  0
M  END
$$$$
default_name
  -OEChem-02102213163D

 29 28  0     1  0  0  0  0  0999 V2000
   -3.5781   -3.7296    1.2702 H   0  0  0  0  0  0  0  0  0  0  0  0
   -3.5311   -2.7616    0.7732 C   0  0  0  0  0  0  0  0  0  0  0  0
   -4.2371   -2.0766    1.2382 H   0  0  0  0  0  0  0  0  0  0  0  0
   -3.7681   -2.8816   -0.2818 H   0  0  0  0  0  0  0  0  0  0  0  0
   -2.1321   -2.2086    0.9112 C   0  0  0  0  0  0  0  0  0  0  0  0
   -1.2751   -2.8426    1.5112 O   0  0  0  0  0  0  0  0  0  0  0  0
   -1.9041   -1.0186    0.3602 N   0  0  0  0  0  0  0  0  0  0  0  0
   -2.6671   -0.5416   -0.0988 H   0  0  0  0  0  0  0  0  0  0  0  0
   -0.6131   -0.3236    0.3832 C   0  0  1  0  0  0  0  0  0  0  0  0
    0.0142   -0.7800    1.1506 H   0  0  0  0  0  0  0  0  0  0  0  0
    0.0816   -0.5059   -0.9788 C   0  0  0  0  0  0  0  0  0  0  0  0
    1.1354   -0.2393   -0.8739 H   0  0  0  0  0  0  0  0  0  0  0  0
    0.0230   -1.5541   -1.2752 H   0  0  0  0  0  0  0  0  0  0  0  0
   -0.5239    0.3533   -2.0949 C   0  0  0  0  0  0  0  0  0  0  0  0
   -0.6550   -0.2593   -2.9863 H   0  0  0  0  0  0  0  0  0  0  0  0
   -1.5008    0.7125   -1.7694 H   0  0  0  0  0  0  0  0  0  0  0  0
    0.4919    1.7846   -2.5412 S   0  0  0  0  0  0  0  0  0  0  0  0
    0.3030    2.7790   -1.0387 C   0  0  0  0  0  0  0  0  0  0  0  0
    0.6814    2.2234   -0.1801 H   0  0  0  0  0  0  0  0  0  0  0  0
    0.8688    3.7050   -1.1447 H   0  0  0  0  0  0  0  0  0  0  0  0
   -0.7498    3.0174   -0.8854 H   0  0  0  0  0  0  0  0  0  0  0  0
   -0.8064    1.1568    0.7414 C   0  0  0  0  0  0  0  0  0  0  0  0
   -1.6978    1.8100    0.2029 O   0  0  0  0  0  0  0  0  0  0  0  0
    0.0314    1.6872    1.6415 N   0  0  0  0  0  0  0  0  0  0  0  0
    0.7279    1.0858    2.0517 H   0  0  0  0  0  0  0  0  0  0  0  0
   -0.0137    3.0826    2.0755 C   0  0  0  0  0  0  0  0  0  0  0  0
   -0.9991    3.3070    2.4905 H   0  0  0  0  0  0  0  0  0  0  0  0
    0.7468    3.2694    2.8349 H   0  0  0  0  0  0  0  0  0  0  0  0
    0.1592    3.7397    1.2213 H   0  0  0  0  0  0  0  0  0  0  0  0
  5  6  2  0  0  0  0
  5  7  1  0  0  0  0
  2  3  1  0  0  0  0
  2  4  1  0  0  0  0
  2  5  1  0  0  0  0
  1  2  1  0  0  0  0
 22 23  2  0  0  0  0
 22 24  1  0  0  0  0
 18 19  1  0  0  0  0
 18 20  1  0  0  0  0
 18 21  1  0  0  0  0
 17 18  1  0  0  0  0
 14 15  1  0  0  0  0
 14 16  1  0  0  0  0
 14 17  1  0  0  0  0
 11 12  1  0  0  0  0
 11 13  1  0  0  0  0
 11 14  1  0  0  0  0
  9 10  1  0  0  0  0
  9 11  1  0  0  0  0
  9 22  1  0  0  0  0
  7  8  1  0  0  0  0
  7  9  1  0  0  0  0
 26 27  1  0  0  0  0
 26 28  1  0  0  0  0
 26 29  1  0  0  0  0
 24 25  1  0  0  0  0
 24 26  1  0  0  0  0
M  END
$$$$
default_name
  -OEChem-02102213163D

 29 28  0     1  0  0  0  0  0999 V2000
   -3.5781   -3.7296    1.2702 H   0  0  0  0  0  0  0  0  0  0  0  0
   -3.5311   -2.7616    0.7732 C   0  0  0  0  0  0  0  0  0  0  0  0
   -4.2371   -2.0766    1.2382 H   0  0  0  0  0  0  0  0  0  0  0  0
   -3.7681   -2.8816   -0.2818 H   0  0  0  0  0  0  0  0  0  0  0  0
   -2.1321   -2.2086    0.9112 C   0  0  0  0  0  0  0  0  0  0  0  0
   -1.2751   -2.8426    1.5112 O   0  0  0  0  0  0  0  0  0  0  0  0
   -1.9041   -1.0186    0.3602 N   0  0  0  0  0  0  0  0  0  0  0  0
   -2.6671   -0.5416   -0.0988 H   0  0  0  0  0  0  0  0  0  0  0  0
   -0.6131   -0.3236    0.3832 C   0  0  1  0  0  0  0  0  0  0  0  0
    0.0142   -0.7800    1.1506 H   0  0  0  0  0  0  0  0  0  0  0  0
    0.0816   -0.5059   -0.9788 C   0  0  0  0  0  0  0  0  0  0  0  0
    1.1354   -0.2393   -0.8739 H   0  0  0  0  0  0  0  0  0  0  0  0
    0.0230   -1.5541   -1.2752 H   0  0  0  0  0  0  0  0  0  0  0  0
   -0.5239    0.3533   -2.0949 C   0  0  0  0  0  0  0  0  0  0  0  0
   -0.9001   -0.2981   -2.8831 H   0  0  0  0  0  0  0  0  0  0  0  0
   -1.3574    0.9243   -1.6842 H   0  0  0  0  0  0  0  0  0  0  0  0
    0.6525    1.5127   -2.8376 S   0  0  0  0  0  0  0  0  0  0  0  0
    0.8815    2.6535   -1.4491 C   0  0  0  0  0  0  0  0  0  0  0  0
    1.2814    2.1126   -0.5910 H   0  0  0  0  0  0  0  0  0  0  0  0
    1.5821    3.4377   -1.7375 H   0  0  0  0  0  0  0  0  0  0  0  0
   -0.0742    3.1063   -1.1836 H   0  0  0  0  0  0  0  0  0  0  0  0
   -0.8064    1.1568    0.7414 C   0  0  0  0  0  0  0  0  0  0  0  0
   -1.6978    1.8100    0.2029 O   0  0  0  0  0  0  0  0  0  0  0  0
    0.0314    1.6872    1.6415 N   0  0  0  0  0  0  0  0  0  0  0  0
    0.7279    1.0858    2.0517 H   0  0  0  0  0  0  0  0  0  0  0  0
   -0.0137    3.0826    2.0755 C   0  0  0  0  0  0  0  0  0  0  0  0
   -0.9991    3.3070    2.4905 H   0  0  0  0  0  0  0  0  0  0  0  0
    0.7468    3.2694    2.8349 H   0  0  0  0  0  0  0  0  0  0  0  0
    0.1592    3.7397    1.2213 H   0  0  0  0  0  0  0  0  0  0  0  0
  5  6  2  0  0  0  0
  5  7  1  0  0  0  0
  2  3  1  0  0  0  0
  2  4  1  0  0  0  0
  2  5  1  0  0  0  0
  1  2  1  0  0  0  0
 22 23  2  0  0  0  0
 22 24  1  0  0  0  0
 18 19  1  0  0  0  0
 18 20  1  0  0  0  0
 18 21  1  0  0  0  0
 17 18  1  0  0  0  0
 14 15  1  0  0  0  0
 14 16  1  0  0  0  0
 14 17  1  0  0  0  0
 11 12  1  0  0  0  0
 11 13  1  0  0  0  0
 11 14  1  0  0  0  0
  9 10  1  0  0  0  0
  9 11  1  0  0  0  0
  9 22  1  0  0  0  0
  7  8  1  0  0  0  0
  7  9  1  0  0  0  0
 26 27  1  0  0  0  0
 26 28  1  0  0  0  0
 26 29  1  0  0  0  0
 24 25  1  0  0  0  0
 24 26  1  0  0  0  0
M  END
$$$$
default_name
  -OEChem-02102213163D

 29 28  0     1  0  0  0  0  0999 V2000
   -3.5781   -3.7296    1.2702 H   0  0  0  0  0  0  0  0  0  0  0  0
   -3.5311   -2.7616    0.7732 C   0  0  0  0  0  0  0  0  0  0  0  0
   -4.2371   -2.0766    1.2382 H   0  0  0  0  0  0  0  0  0  0  0  0
   -3.7681   -2.8816   -0.2818 H   0  0  0  0  0  0  0  0  0  0  0  0
   -2.1321   -2.2086    0.9112 C   0  0  0  0  0  0  0  0  0  0  0  0
   -1.2751   -2.8426    1.5112 O   0  0  0  0  0  0  0  0  0  0  0  0
   -1.9041   -1.0186    0.3602 N   0  0  0  0  0  0  0  0  0  0  0  0
   -2.6671   -0.5416   -0.0988 H   0  0  0  0  0  0  0  0  0  0  0  0
   -0.6131   -0.3236    0.3832 C   0  0  1  0  0  0  0  0  0  0  0  0
    0.0142   -0.7800    1.1506 H   0  0  0  0  0  0  0  0  0  0  0  0
    0.0816   -0.5059   -0.9788 C   0  0  0  0  0  0  0  0  0  0  0  0
    1.1354   -0.2393   -0.8739 H   0  0  0  0  0  0  0  0  0  0  0  0
    0.0230   -1.5541   -1.2752 H   0  0  0  0  0  0  0  0  0  0  0  0
   -0.5239    0.3533   -2.0949 C   0  0  0  0  0  0  0  0  0  0  0  0
   -1.1291   -0.2787   -2.7440 H   0  0  0  0  0  0  0  0  0  0  0  0
   -1.1665    1.1106   -1.6444 H   0  0  0  0  0  0  0  0  0  0  0  0
    0.7134    1.1895   -3.1194 S   0  0  0  0  0  0  0  0  0  0  0  0
    1.3572    2.3814   -1.9167 C   0  0  0  0  0  0  0  0  0  0  0  0
    1.7806    1.8506   -1.0635 H   0  0  0  0  0  0  0  0  0  0  0  0
    2.1348    2.9845   -2.3862 H   0  0  0  0  0  0  0  0  0  0  0  0
    0.5520    3.0343   -1.5786 H   0  0  0  0  0  0  0  0  0  0  0  0
   -0.8064    1.1568    0.7414 C   0  0  0  0  0  0  0  0  0  0  0  0
   -1.6978    1.8100    0.2029 O   0  0  0  0  0  0  0  0  0  0  0  0
    0.0314    1.6872    1.6415 N   0  0  0  0  0  0  0  0  0  0  0  0
    0.7279    1.0858    2.0517 H   0  0  0  0  0  0  0  0  0  0  0  0
   -0.0137    3.0826    2.0755 C   0  0  0  0  0  0  0  0  0  0  0  0
   -0.9991    3.3070    2.4905 H   0  0  0  0  0  0  0  0  0  0  0  0
    0.7468    3.2694    2.8349 H   0  0  0  0  0  0  0  0  0  0  0  0
    0.1592    3.7397    1.2213 H   0  0  0  0  0  0  0  0  0  0  0  0
  5  6  2  0  0  0  0
  5  7  1  0  0  0  0
  2  3  1  0  0  0  0
  2  4  1  0  0  0  0
  2  5  1  0  0  0  0
  1  2  1  0  0  0  0
 22 23  2  0  0  0  0
 22 24  1  0  0  0  0
 18 19  1  0  0  0  0
 18 20  1  0  0  0  0
 18 21  1  0  0  0  0
 17 18  1  0  0  0  0
 14 15  1  0  0  0  0
 14 16  1  0  0  0  0
 14 17  1  0  0  0  0
 11 12  1  0  0  0  0
 11 13  1  0  0  0  0
 11 14  1  0  0  0  0
  9 10  1  0  0  0  0
  9 11  1  0  0  0  0
  9 22  1  0  0  0  0
  7  8  1  0  0  0  0
  7  9  1  0  0  0  0
 26 27  1  0  0  0  0
 26 28  1  0  0  0  0
 26 29  1  0  0  0  0
 24 25  1  0  0  0  0
 24 26  1  0  0  0  0
M  END
$$$$
default_name
  -OEChem-02102213163D

 29 28  0     1  0  0  0  0  0999 V2000
   -3.5781   -3.7296    1.2702 H   0  0  0  0  0  0  0  0  0  0  0  0
   -3.5311   -2.7616    0.7732 C   0  0  0  0  0  0  0  0  0  0  0  0
   -4.2371   -2.0766    1.2382 H   0  0  0  0  0  0  0  0  0  0  0  0
   -3.7681   -2.8816   -0.2818 H   0  0  0  0  0  0  0  0  0  0  0  0
   -2.1321   -2.2086    0.9112 C   0  0  0  0  0  0  0  0  0  0  0  0
   -1.2751   -2.8426    1.5112 O   0  0  0  0  0  0  0  0  0  0  0  0
   -1.9041   -1.0186    0.3602 N   0  0  0  0  0  0  0  0  0  0  0  0
   -2.6671   -0.5416   -0.0988 H   0  0  0  0  0  0  0  0  0  0  0  0
   -0.6131   -0.3236    0.3832 C   0  0  1  0  0  0  0  0  0  0  0  0
    0.0142   -0.7800    1.1506 H   0  0  0  0  0  0  0  0  0  0  0  0
    0.0816   -0.5059   -0.9788 C   0  0  0  0  0  0  0  0  0  0  0  0
    1.1354   -0.2393   -0.8739 H   0  0  0  0  0  0  0  0  0  0  0  0
    0.0230   -1.5541   -1.2752 H   0  0  0  0  0  0  0  0  0  0  0  0
   -0.5239    0.3533   -2.0949 C   0  0  0  0  0  0  0  0  0  0  0  0
   -1.3265   -0.2027   -2.5784 H   0  0  0  0  0  0  0  0  0  0  0  0
   -0.9413    1.2586   -1.6526 H   0  0  0  0  0  0  0  0  0  0  0  0
    0.6704    0.8370   -3.3675 S   0  0  0  0  0  0  0  0  0  0  0  0
    1.6975    1.9811   -2.4094 C   0  0  0  0  0  0  0  0  0  0  0  0
    2.1448    1.4551   -1.5656 H   0  0  0  0  0  0  0  0  0  0  0  0
    2.4891    2.3763   -3.0466 H   0  0  0  0  0  0  0  0  0  0  0  0
    1.0859    2.8064   -2.0437 H   0  0  0  0  0  0  0  0  0  0  0  0
   -0.8064    1.1568    0.7414 C   0  0  0  0  0  0  0  0  0  0  0  0
   -1.6978    1.8100    0.2029 O   0  0  0  0  0  0  0  0  0  0  0  0
    0.0314    1.6872    1.6415 N   0  0  0  0  0  0  0  0  0  0  0  0
    0.7279    1.0858    2.0517 H   0  0  0  0  0  0  0  0  0  0  0  0
   -0.0137    3.0826    2.0755 C   0  0  0  0  0  0  0  0  0  0  0  0
   -0.9991    3.3070    2.4905 H   0  0  0  0  0  0  0  0  0  0  0  0
    0.7468    3.2694    2.8349 H   0  0  0  0  0  0  0  0  0  0  0  0
    0.1592    3.7397    1.2213 H   0  0  0  0  0  0  0  0  0  0  0  0
  5  6  2  0  0  0  0
  5  7  1  0  0  0  0
  2  3  1  0  0  0  0
  2  4  1  0  0  0  0
  2  5  1  0  0  0  0
  1  2  1  0  0  0  0
 22 23  2  0  0  0  0
 22 24  1  0  0  0  0
 18 19  1  0  0  0  0
 18 20  1  0  0  0  0
 18 21  1  0  0  0  0
 17 18  1  0  0  0  0
 14 15  1  0  0  0  0
 14 16  1  0  0  0  0
 14 17  1  0  0  0  0
 11 12  1  0  0  0  0
 11 13  1  0  0  0  0
 11 14  1  0  0  0  0
  9 10  1  0  0  0  0
  9 11  1  0  0  0  0
  9 22  1  0  0  0  0
  7  8  1  0  0  0  0
  7  9  1  0  0  0  0
 26 27  1  0  0  0  0
 26 28  1  0  0  0  0
 26 29  1  0  0  0  0
 24 25  1  0  0  0  0
 24 26  1  0  0  0  0
M  END
$$$$
default_name
  -OEChem-02102213163D

 29 28  0     1  0  0  0  0  0999 V2000
   -3.5781   -3.7296    1.2702 H   0  0  0  0  0  0  0  0  0  0  0  0
   -3.5311   -2.7616    0.7732 C   0  0  0  0  0  0  0  0  0  0  0  0
   -4.2371   -2.0766    1.2382 H   0  0  0  0  0  0  0  0  0  0  0  0
   -3.7681   -2.8816   -0.2818 H   0  0  0  0  0  0  0  0  0  0  0  0
   -2.1321   -2.2086    0.9112 C   0  0  0  0  0  0  0  0  0  0  0  0
   -1.2751   -2.8426    1.5112 O   0  0  0  0  0  0  0  0  0  0  0  0
   -1.9041   -1.0186    0.3602 N   0  0  0  0  0  0  0  0  0  0  0  0
   -2.6671   -0.5416   -0.0988 H   0  0  0  0  0  0  0  0  0  0  0  0
   -0.6131   -0.3236    0.3832 C   0  0  1  0  0  0  0  0  0  0  0  0
    0.0142   -0.7800    1.1506 H   0  0  0  0  0  0  0  0  0  0  0  0
    0.0816   -0.5059   -0.9788 C   0  0  0  0  0  0  0  0  0  0  0  0
    1.1354   -0.2393   -0.8739 H   0  0  0  0  0  0  0  0  0  0  0  0
    0.0230   -1.5541   -1.2752 H   0  0  0  0  0  0  0  0  0  0  0  0
   -0.5239    0.3533   -2.0949 C   0  0  0  0  0  0  0  0  0  0  0  0
   -1.4789   -0.0751   -2.3975 H   0  0  0  0  0  0  0  0  0  0  0  0
   -0.6971    1.3583   -1.7084 H   0  0  0  0  0  0  0  0  0  0  0  0
    0.5265    0.4793   -3.5648 S   0  0  0  0  0  0  0  0  0  0  0  0
    1.8793    1.4800   -2.8939 C   0  0  0  0  0  0  0  0  0  0  0  0
    2.3493    0.9531   -2.0629 H   0  0  0  0  0  0  0  0  0  0  0  0
    2.6210    1.6545   -3.6738 H   0  0  0  0  0  0  0  0  0  0  0  0
    1.4912    2.4381   -2.5471 H   0  0  0  0  0  0  0  0  0  0  0  0
   -0.8064    1.1568    0.7414 C   0  0  0  0  0  0  0  0  0  0  0  0
   -1.6978    1.8100    0.2029 O   0  0  0  0  0  0  0  0  0  0  0  0
    0.0314    1.6872    1.6415 N   0  0  0  0  0  0  0  0  0  0  0  0
    0.7279    1.0858    2.0517 H   0  0  0  0  0  0  0  0  0  0  0  0
   -0.0137    3.0826    2.0755 C   0  0  0  0  0  0  0  0  0  0  0  0
   -0.9991    3.3070    2.4905 H   0  0  0  0  0  0  0  0  0  0  0  0
    0.7468    3.2694    2.8349 H   0  0  0  0  0  0  0  0  0  0  0  0
    0.1592    3.7397    1.2213 H   0  0  0  0  0  0  0  0  0  0  0  0
  5  6  2  0  0  0  0
  5  7  1  0  0  0  0
  2  3  1  0  0  0  0
  2  4  1  0  0  0  0
  2  5  1  0  0  0  0
  1  2  1  0  0  0  0
 22 23  2  0  0  0  0
 22 24  1  0  0  0  0
 18 19  1  0  0  0  0
 18 20  1  0  0  0  0
 18 21  1  0  0  0  0
 17 18  1  0  0  0  0
 14 15  1  0  0  0  0
 14 16  1  0  0  0  0
 14 17  1  0  0  0  0
 11 12  1  0  0  0  0
 11 13  1  0  0  0  0
 11 14  1  0  0  0  0
  9 10  1  0  0  0  0
  9 11  1  0  0  0  0
  9 22  1  0  0  0  0
  7  8  1  0  0  0  0
  7  9  1  0  0  0  0
 26 27  1  0  0  0  0
 26 28  1  0  0  0  0
 26 29  1  0  0  0  0
 24 25  1  0  0  0  0
 24 26  1  0  0  0  0
M  END
$$$$
default_name
  -OEChem-02102213163D

 29 28  0     1  0  0  0  0  0999 V2000
   -3.5781   -3.7296    1.2702 H   0  0  0  0  0  0  0  0  0  0  0  0
   -3.5311   -2.7616    0.7732 C   0  0  0  0  0  0  0  0  0  0  0  0
   -4.2371   -2.0766    1.2382 H   0  0  0  0  0  0  0  0  0  0  0  0
   -3.7681   -2.8816   -0.2818 H   0  0  0  0  0  0  0  0  0  0  0  0
   -2.1321   -2.2086    0.9112 C   0  0  0  0  0  0  0  0  0  0  0  0
   -1.2751   -2.8426    1.5112 O   0  0  0  0  0  0  0  0  0  0  0  0
   -1.9041   -1.0186    0.3602 N   0  0  0  0  0  0  0  0  0  0  0  0
   -2.6671   -0.5416   -0.0988 H   0  0  0  0  0  0  0  0  0  0  0  0
   -0.6131   -0.3236    0.3832 C   0  0  1  0  0  0  0  0  0  0  0  0
    0.0142   -0.7800    1.1506 H   0  0  0  0  0  0  0  0  0  0  0  0
    0.0816   -0.5059   -0.9788 C   0  0  0  0  0  0  0  0  0  0  0  0
    1.1627   -0.5033   -0.8247 H   0  0  0  0  0  0  0  0  0  0  0  0
   -0.2004   -1.4719   -1.4001 H   0  0  0  0  0  0  0  0  0  0  0  0
   -0.2629    0.5905   -1.9935 C   0  0  0  0  0  0  0  0  0  0  0  0
   -1.3396    0.5974   -2.1605 H   0  0  0  0  0  0  0  0  0  0  0  0
    0.0341    1.5554   -1.5811 H   0  0  0  0  0  0  0  0  0  0  0  0
    0.5529    0.3783   -3.5964 S   0  0  0  0  0  0  0  0  0  0  0  0
    2.2676    0.7141   -3.1180 C   0  0  0  0  0  0  0  0  0  0  0  0
    2.5870   -0.0066   -2.3646 H   0  0  0  0  0  0  0  0  0  0  0  0
    2.9109    0.6267   -3.9940 H   0  0  0  0  0  0  0  0  0  0  0  0
    2.3459    1.7241   -2.7148 H   0  0  0  0  0  0  0  0  0  0  0  0
   -0.8064    1.1568    0.7414 C   0  0  0  0  0  0  0  0  0  0  0  0
   -1.6978    1.8100    0.2029 O   0  0  0  0  0  0  0  0  0  0  0  0
    0.0314    1.6872    1.6415 N   0  0  0  0  0  0  0  0  0  0  0  0
    0.7279    1.0858    2.0517 H   0  0  0  0  0  0  0  0  0  0  0  0
   -0.0137    3.0826    2.0755 C   0  0  0  0  0  0  0  0  0  0  0  0
   -0.9991    3.3070    2.4905 H   0  0  0  0  0  0  0  0  0  0  0  0
    0.7468    3.2694    2.8349 H   0  0  0  0  0  0  0  0  0  0  0  0
    0.1592    3.7397    1.2213 H   0  0  0  0  0  0  0  0  0  0  0  0
  5  6  2  0  0  0  0
  5  7  1  0  0  0  0
  2  3  1  0  0  0  0
  2  4  1  0  0  0  0
  2  5  1  0  0  0  0
  1  2  1  0  0  0  0
 22 23  2  0  0  0  0
 22 24  1  0  0  0  0
 18 19  1  0  0  0  0
 18 20  1  0  0  0  0
 18 21  1  0  0  0  0
 17 18  1  0  0  0  0
 14 15  1  0  0  0  0
 14 16  1  0  0  0  0
 14 17  1  0  0  0  0
 11 12  1  0  0  0  0
 11 13  1  0  0  0  0
 11 14  1  0  0  0  0
  9 10  1  0  0  0  0
  9 11  1  0  0  0  0
  9 22  1  0  0  0  0
  7  8  1  0  0  0  0
  7  9  1  0  0  0  0
 26 27  1  0  0  0  0
 26 28  1  0  0  0  0
 26 29  1  0  0  0  0
 24 25  1  0  0  0  0
 24 26  1  0  0  0  0
M  END
$$$$
default_name
  -OEChem-02102213163D

 29 28  0     1  0  0  0  0  0999 V2000
   -3.5781   -3.7296    1.2702 H   0  0  0  0  0  0  0  0  0  0  0  0
   -3.5311   -2.7616    0.7732 C   0  0  0  0  0  0  0  0  0  0  0  0
   -4.2371   -2.0766    1.2382 H   0  0  0  0  0  0  0  0  0  0  0  0
   -3.7681   -2.8816   -0.2818 H   0  0  0  0  0  0  0  0  0  0  0  0
   -2.1321   -2.2086    0.9112 C   0  0  0  0  0  0  0  0  0  0  0  0
   -1.2751   -2.8426    1.5112 O   0  0  0  0  0  0  0  0  0  0  0  0
   -1.9041   -1.0186    0.3602 N   0  0  0  0  0  0  0  0  0  0  0  0
   -2.6671   -0.5416   -0.0988 H   0  0  0  0  0  0  0  0  0  0  0  0
   -0.6131   -0.3236    0.3832 C   0  0  1  0  0  0  0  0  0  0  0  0
    0.0142   -0.7800    1.1506 H   0  0  0  0  0  0  0  0  0  0  0  0
    0.0816   -0.5059   -0.9788 C   0  0  0  0  0  0  0  0  0  0  0  0
    1.1627   -0.5033   -0.8247 H   0  0  0  0  0  0  0  0  0  0  0  0
   -0.2004   -1.4719   -1.4001 H   0  0  0  0  0  0  0  0  0  0  0  0
   -0.2629    0.5905   -1.9935 C   0  0  0  0  0  0  0  0  0  0  0  0
   -1.3354    0.7806   -1.9640 H   0  0  0  0  0  0  0  0  0  0  0  0
    0.2630    1.5041   -1.7141 H   0  0  0  0  0  0  0  0  0  0  0  0
    0.1865    0.1703   -3.6968 S   0  0  0  0  0  0  0  0  0  0  0  0
    1.9924    0.2174   -3.5612 C   0  0  0  0  0  0  0  0  0  0  0  0
    2.3252   -0.5161   -2.8262 H   0  0  0  0  0  0  0  0  0  0  0  0
    2.4338   -0.0191   -4.5297 H   0  0  0  0  0  0  0  0  0  0  0  0
    2.3124    1.2137   -3.2549 H   0  0  0  0  0  0  0  0  0  0  0  0
   -0.8064    1.1568    0.7414 C   0  0  0  0  0  0  0  0  0  0  0  0
   -1.6978    1.8100    0.2029 O   0  0  0  0  0  0  0  0  0  0  0  0
    0.0314    1.6872    1.6415 N   0  0  0  0  0  0  0  0  0  0  0  0
    0.7279    1.0858    2.0517 H   0  0  0  0  0  0  0  0  0  0  0  0
   -0.0137    3.0826    2.0755 C   0  0  0  0  0  0  0  0  0  0  0  0
   -0.9991    3.3070    2.4905 H   0  0  0  0  0  0  0  0  0  0  0  0
    0.7468    3.2694    2.8349 H   0  0  0  0  0  0  0  0  0  0  0  0
    0.1592    3.7397    1.2213 H   0  0  0  0  0  0  0  0  0  0  0  0
  5  6  2  0  0  0  0
  5  7  1  0  0  0  0
  2  3  1  0  0  0  0
  2  4  1  0  0  0  0
  2  5  1  0  0  0  0
  1  2  1  0  0  0  0
 22 23  2  0  0  0  0
 22 24  1  0  0  0  0
 18 19  1  0  0  0  0
 18 20  1  0  0  0  0
 18 21  1  0  0  0  0
 17 18  1  0  0  0  0
 14 15  1  0  0  0  0
 14 16  1  0  0  0  0
 14 17  1  0  0  0  0
 11 12  1  0  0  0  0
 11 13  1  0  0  0  0
 11 14  1  0  0  0  0
  9 10  1  0  0  0  0
  9 11  1  0  0  0  0
  9 22  1  0  0  0  0
  7  8  1  0  0  0  0
  7  9  1  0  0  0  0
 26 27  1  0  0  0  0
 26 28  1  0  0  0  0
 26 29  1  0  0  0  0
 24 25  1  0  0  0  0
 24 26  1  0  0  0  0
M  END
$$$$
default_name
  -OEChem-02102213163D

 29 28  0     1  0  0  0  0  0999 V2000
   -3.5781   -3.7296    1.2702 H   0  0  0  0  0  0  0  0  0  0  0  0
   -3.5311   -2.7616    0.7732 C   0  0  0  0  0  0  0  0  0  0  0  0
   -4.2371   -2.0766    1.2382 H   0  0  0  0  0  0  0  0  0  0  0  0
   -3.7681   -2.8816   -0.2818 H   0  0  0  0  0  0  0  0  0  0  0  0
   -2.1321   -2.2086    0.9112 C   0  0  0  0  0  0  0  0  0  0  0  0
   -1.2751   -2.8426    1.5112 O   0  0  0  0  0  0  0  0  0  0  0  0
   -1.9041   -1.0186    0.3602 N   0  0  0  0  0  0  0  0  0  0  0  0
   -2.6671   -0.5416   -0.0988 H   0  0  0  0  0  0  0  0  0  0  0  0
   -0.6131   -0.3236    0.3832 C   0  0  1  0  0  0  0  0  0  0  0  0
    0.0142   -0.7800    1.1506 H   0  0  0  0  0  0  0  0  0  0  0  0
    0.0816   -0.5059   -0.9788 C   0  0  0  0  0  0  0  0  0  0  0  0
    1.1627   -0.5033   -0.8247 H   0  0  0  0  0  0  0  0  0  0  0  0
   -0.2004   -1.4719   -1.4001 H   0  0  0  0  0  0  0  0  0  0  0  0
   -0.2629    0.5905   -1.9935 C   0  0  0  0  0  0  0  0  0  0  0  0
   -1.2635    0.9682   -1.7856 H   0  0  0  0  0  0  0  0  0  0  0  0
    0.4506    1.4077   -1.8820 H   0  0  0  0  0  0  0  0  0  0  0  0
   -0.2216    0.0262   -3.7139 S   0  0  0  0  0  0  0  0  0  0  0  0
    1.5595   -0.2410   -3.9095 C   0  0  0  0  0  0  0  0  0  0  0  0
    1.8996   -0.9902   -3.1940 H   0  0  0  0  0  0  0  0  0  0  0  0
    1.7632   -0.5923   -4.9213 H   0  0  0  0  0  0  0  0  0  0  0  0
    2.0926    0.6950   -3.7406 H   0  0  0  0  0  0  0  0  0  0  0  0
   -0.8064    1.1568    0.7414 C   0  0  0  0  0  0  0  0  0  0  0  0
   -1.6978    1.8100    0.2029 O   0  0  0  0  0  0  0  0  0  0  0  0
    0.0314    1.6872    1.6415 N   0  0  0  0  0  0  0  0  0  0  0  0
    0.7279    1.0858    2.0517 H   0  0  0  0  0  0  0  0  0  0  0  0
   -0.0137    3.0826    2.0755 C   0  0  0  0  0  0  0  0  0  0  0  0
   -0.9991    3.3070    2.4905 H   0  0  0  0  0  0  0  0  0  0  0  0
    0.7468    3.2694    2.8349 H   0  0  0  0  0  0  0  0  0  0  0  0
    0.1592    3.7397    1.2213 H   0  0  0  0  0  0  0  0  0  0  0  0
  5  6  2  0  0  0  0
  5  7  1  0  0  0  0
  2  3  1  0  0  0  0
  2  4  1  0  0  0  0
  2  5  1  0  0  0  0
  1  2  1  0  0  0  0
 22 23  2  0  0  0  0
 22 24  1  0  0  0  0
 18 19  1  0  0  0  0
 18 20  1  0  0  0  0
 18 21  1  0  0  0  0
 17 18  1  0  0  0  0
 14 15  1  0  0  0  0
 14 16  1  0  0  0  0
 14 17  1  0  0  0  0
 11 12  1  0  0  0  0
 11 13  1  0  0  0  0
 11 14  1  0  0  0  0
  9 10  1  0  0  0  0
  9 11  1  0  0  0  0
  9 22  1  0  0  0  0
  7  8  1  0  0  0  0
  7  9  1  0  0  0  0
 26 27  1  0  0  0  0
 26 28  1  0  0  0  0
 26 29  1  0  0  0  0
 24 25  1  0  0  0  0
 24 26  1  0  0  0  0
M  END
$$$$
default_name
  -OEChem-02102213163D

 29 28  0     1  0  0  0  0  0999 V2000
   -3.5781   -3.7296    1.2702 H   0  0  0  0  0  0  0  0  0  0  0  0
   -3.5311   -2.7616    0.7732 C   0  0  0  0  0  0  0  0  0  0  0  0
   -4.2371   -2.0766    1.2382 H   0  0  0  0  0  0  0  0  0  0  0  0
   -3.7681   -2.8816   -0.2818 H   0  0  0  0  0  0  0  0  0  0  0  0
   -2.1321   -2.2086    0.9112 C   0  0  0  0  0  0  0  0  0  0  0  0
   -1.2751   -2.8426    1.5112 O   0  0  0  0  0  0  0  0  0  0  0  0
   -1.9041   -1.0186    0.3602 N   0  0  0  0  0  0  0  0  0  0  0  0
   -2.6671   -0.5416   -0.0988 H   0  0  0  0  0  0  0  0  0  0  0  0
   -0.6131   -0.3236    0.3832 C   0  0  1  0  0  0  0  0  0  0  0  0
    0.0142   -0.7800    1.1506 H   0  0  0  0  0  0  0  0  0  0  0  0
    0.0816   -0.5059   -0.9788 C   0  0  0  0  0  0  0  0  0  0  0  0
    1.1627   -0.5033   -0.8247 H   0  0  0  0  0  0  0  0  0  0  0  0
   -0.2004   -1.4719   -1.4001 H   0  0  0  0  0  0  0  0  0  0  0  0
   -0.2629    0.5905   -1.9935 C   0  0  0  0  0  0  0  0  0  0  0  0
   -1.1290    1.1476   -1.6375 H   0  0  0  0  0  0  0  0  0  0  0  0
    0.5842    1.2726   -2.0733 H   0  0  0  0  0  0  0  0  0  0  0  0
   -0.6436   -0.0440   -3.6465 S   0  0  0  0  0  0  0  0  0  0  0  0
    0.9983   -0.6299   -4.1391 C   0  0  0  0  0  0  0  0  0  0  0  0
    1.3392   -1.3967   -3.4428 H   0  0  0  0  0  0  0  0  0  0  0  0
    0.9448   -1.0539   -5.1421 H   0  0  0  0  0  0  0  0  0  0  0  0
    1.7015    0.2035   -4.1390 H   0  0  0  0  0  0  0  0  0  0  0  0
   -0.8064    1.1568    0.7414 C   0  0  0  0  0  0  0  0  0  0  0  0
   -1.6978    1.8100    0.2029 O   0  0  0  0  0  0  0  0  0  0  0  0
    0.0314    1.6872    1.6415 N   0  0  0  0  0  0  0  0  0  0  0  0
    0.7279    1.0858    2.0517 H   0  0  0  0  0  0  0  0  0  0  0  0
   -0.0137    3.0826    2.0755 C   0  0  0  0  0  0  0  0  0  0  0  0
   -0.9991    3.3070    2.4905 H   0  0  0  0  0  0  0  0  0  0  0  0
    0.7468    3.2694    2.8349 H   0  0  0  0  0  0  0  0  0  0  0  0
    0.1592    3.7397    1.2213 H   0  0  0  0  0  0  0  0  0  0  0  0
  5  6  2  0  0  0  0
  5  7  1  0  0  0  0
  2  3  1  0  0  0  0
  2  4  1  0  0  0  0
  2  5  1  0  0  0  0
  1  2  1  0  0  0  0
 22 23  2  0  0  0  0
 22 24  1  0  0  0  0
 18 19  1  0  0  0  0
 18 20  1  0  0  0  0
 18 21  1  0  0  0  0
 17 18  1  0  0  0  0
 14 15  1  0  0  0  0
 14 16  1  0  0  0  0
 14 17  1  0  0  0  0
 11 12  1  0  0  0  0
 11 13  1  0  0  0  0
 11 14  1  0  0  0  0
  9 10  1  0  0  0  0
  9 11  1  0  0  0  0
  9 22  1  0  0  0  0
  7  8  1  0  0  0  0
  7  9  1  0  0  0  0
 26 27  1  0  0  0  0
 26 28  1  0  0  0  0
 26 29  1  0  0  0  0
 24 25  1  0  0  0  0
 24 26  1  0  0  0  0
M  END
$$$$
default_name
  -OEChem-02102213163D

 29 28  0     1  0  0  0  0  0999 V2000
   -3.5781   -3.7296    1.2702 H   0  0  0  0  0  0  0  0  0  0  0  0
   -3.5311   -2.7616    0.7732 C   0  0  0  0  0  0  0  0  0  0  0  0
   -4.2371   -2.0766    1.2382 H   0  0  0  0  0  0  0  0  0  0  0  0
   -3.7681   -2.8816   -0.2818 H   0  0  0  0  0  0  0  0  0  0  0  0
   -2.1321   -2.2086    0.9112 C   0  0  0  0  0  0  0  0  0  0  0  0
   -1.2751   -2.8426    1.5112 O   0  0  0  0  0  0  0  0  0  0  0  0
   -1.9041   -1.0186    0.3602 N   0  0  0  0  0  0  0  0  0  0  0  0
   -2.6671   -0.5416   -0.0988 H   0  0  0  0  0  0  0  0  0  0  0  0
   -0.6131   -0.3236    0.3832 C   0  0  1  0  0  0  0  0  0  0  0  0
    0.0142   -0.7800    1.1506 H   0  0  0  0  0  0  0  0  0  0  0  0
    0.0816   -0.5059   -0.9788 C   0  0  0  0  0  0  0  0  0  0  0  0
    1.1627   -0.5033   -0.8247 H   0  0  0  0  0  0  0  0  0  0  0  0
   -0.2004   -1.4719   -1.4001 H   0  0  0  0  0  0  0  0  0  0  0  0
   -0.2629    0.5905   -1.9935 C   0  0  0  0  0  0  0  0  0  0  0  0
   -0.9409    1.3064   -1.5298 H   0  0  0  0  0  0  0  0  0  0  0  0
    0.6548    1.1081   -2.2750 H   0  0  0  0  0  0  0  0  0  0  0  0
   -1.0509   -0.0356   -3.4991 S   0  0  0  0  0  0  0  0  0  0  0  0
    0.3471   -0.9227   -4.2344 C   0  0  0  0  0  0  0  0  0  0  0  0
    0.6823   -1.7077   -3.5559 H   0  0  0  0  0  0  0  0  0  0  0  0
    0.0343   -1.3724   -5.1771 H   0  0  0  0  0  0  0  0  0  0  0  0
    1.1658   -0.2276   -4.4228 H   0  0  0  0  0  0  0  0  0  0  0  0
   -0.8064    1.1568    0.7414 C   0  0  0  0  0  0  0  0  0  0  0  0
   -1.6978    1.8100    0.2029 O   0  0  0  0  0  0  0  0  0  0  0  0
    0.0314    1.6872    1.6415 N   0  0  0  0  0  0  0  0  0  0  0  0
    0.7279    1.0858    2.0517 H   0  0  0  0  0  0  0  0  0  0  0  0
   -0.0137    3.0826    2.0755 C   0  0  0  0  0  0  0  0  0  0  0  0
   -0.9991    3.3070    2.4905 H   0  0  0  0  0  0  0  0  0  0  0  0
    0.7468    3.2694    2.8349 H   0  0  0  0  0  0  0  0  0  0  0  0
    0.1592    3.7397    1.2213 H   0  0  0  0  0  0  0  0  0  0  0  0
  5  6  2  0  0  0  0
  5  7  1  0  0  0  0
  2  3  1  0  0  0  0
  2  4  1  0  0  0  0
  2  5  1  0  0  0  0
  1  2  1  0  0  0  0
 22 23  2  0  0  0  0
 22 24  1  0  0  0  0
 18 19  1  0  0  0  0
 18 20  1  0  0  0  0
 18 21  1  0  0  0  0
 17 18  1  0  0  0  0
 14 15  1  0  0  0  0
 14 16  1  0  0  0  0
 14 17  1  0  0  0  0
 11 12  1  0  0  0  0
 11 13  1  0  0  0  0
 11 14  1  0  0  0  0
  9 10  1  0  0  0  0
  9 11  1  0  0  0  0
  9 22  1  0  0  0  0
  7  8  1  0  0  0  0
  7  9  1  0  0  0  0
 26 27  1  0  0  0  0
 26 28  1  0  0  0  0
 26 29  1  0  0  0  0
 24 25  1  0  0  0  0
 24 26  1  0  0  0  0
M  END
$$$$
default_name
  -OEChem-02102213163D

 29 28  0     1  0  0  0  0  0999 V2000
   -3.5781   -3.7296    1.2702 H   0  0  0  0  0  0  0  0  0  0  0  0
   -3.5311   -2.7616    0.7732 C   0  0  0  0  0  0  0  0  0  0  0  0
   -4.2371   -2.0766    1.2382 H   0  0  0  0  0  0  0  0  0  0  0  0
   -3.7681   -2.8816   -0.2818 H   0  0  0  0  0  0  0  0  0  0  0  0
   -2.1321   -2.2086    0.9112 C   0  0  0  0  0  0  0  0  0  0  0  0
   -1.2751   -2.8426    1.5112 O   0  0  0  0  0  0  0  0  0  0  0  0
   -1.9041   -1.0186    0.3602 N   0  0  0  0  0  0  0  0  0  0  0  0
   -2.6671   -0.5416   -0.0988 H   0  0  0  0  0  0  0  0  0  0  0  0
   -0.6131   -0.3236    0.3832 C   0  0  1  0  0  0  0  0  0  0  0  0
    0.0142   -0.7800    1.1506 H   0  0  0  0  0  0  0  0  0  0  0  0
    0.0816   -0.5059   -0.9788 C   0  0  0  0  0  0  0  0  0  0  0  0
    1.1627   -0.5033   -0.8247 H   0  0  0  0  0  0  0  0  0  0  0  0
   -0.2004   -1.4719   -1.4001 H   0  0  0  0  0  0  0  0  0  0  0  0
   -0.2629    0.5905   -1.9935 C   0  0  0  0  0  0  0  0  0  0  0  0
   -0.7120    1.4338   -1.4698 H   0  0  0  0  0  0  0  0  0  0  0  0
    0.6574    0.9254   -2.4733 H   0  0  0  0  0  0  0  0  0  0  0  0
   -1.4155    0.0508   -3.2819 S   0  0  0  0  0  0  0  0  0  0  0  0
   -0.3497   -1.0996   -4.1889 C   0  0  0  0  0  0  0  0  0  0  0  0
   -0.0265   -1.9022   -3.5254 H   0  0  0  0  0  0  0  0  0  0  0  0
   -0.9062   -1.5261   -5.0238 H   0  0  0  0  0  0  0  0  0  0  0  0
    0.5220   -0.5686   -4.5727 H   0  0  0  0  0  0  0  0  0  0  0  0
   -0.8064    1.1568    0.7414 C   0  0  0  0  0  0  0  0  0  0  0  0
   -1.6978    1.8100    0.2029 O   0  0  0  0  0  0  0  0  0  0  0  0
    0.0314    1.6872    1.6415 N   0  0  0  0  0  0  0  0  0  0  0  0
    0.7279    1.0858    2.0517 H   0  0  0  0  0  0  0  0  0  0  0  0
   -0.0137    3.0826    2.0755 C   0  0  0  0  0  0  0  0  0  0  0  0
   -0.9991    3.3070    2.4905 H   0  0  0  0  0  0  0  0  0  0  0  0
    0.7468    3.2694    2.8349 H   0  0  0  0  0  0  0  0  0  0  0  0
    0.1592    3.7397    1.2213 H   0  0  0  0  0  0  0  0  0  0  0  0
  5  6  2  0  0  0  0
  5  7  1  0  0  0  0
  2  3  1  0  0  0  0
  2  4  1  0  0  0  0
  2  5  1  0  0  0  0
  1  2  1  0  0  0  0
 22 23  2  0  0  0  0
 22 24  1  0  0  0  0
 18 19  1  0  0  0  0
 18 20  1  0  0  0  0
 18 21  1  0  0  0  0
 17 18  1  0  0  0  0
 14 15  1  0  0  0  0
 14 16  1  0  0  0  0
 14 17  1  0  0  0  0
 11 12  1  0  0  0  0
 11 13  1  0  0  0  0
 11 14  1  0  0  0  0
  9 10  1  0  0  0  0
  9 11  1  0  0  0  0
  9 22  1  0  0  0  0
  7  8  1  0  0  0  0
  7  9  1  0  0  0  0
 26 27  1  0  0  0  0
 26 28  1  0  0  0  0
 26 29  1  0  0  0  0
 24 25  1  0  0  0  0
 24 26  1  0  0  0  0
M  END
$$$$
default_name
  -OEChem-02102213163D

 29 28  0     1  0  0  0  0  0999 V2000
   -3.5781   -3.7296    1.2702 H   0  0  0  0  0  0  0  0  0  0  0  0
   -3.5311   -2.7616    0.7732 C   0  0  0  0  0  0  0  0  0  0  0  0
   -4.2371   -2.0766    1.2382 H   0  0  0  0  0  0  0  0  0  0  0  0
   -3.7681   -2.8816   -0.2818 H   0  0  0  0  0  0  0  0  0  0  0  0
   -2.1321   -2.2086    0.9112 C   0  0  0  0  0  0  0  0  0  0  0  0
   -1.2751   -2.8426    1.5112 O   0  0  0  0  0  0  0  0  0  0  0  0
   -1.9041   -1.0186    0.3602 N   0  0  0  0  0  0  0  0  0  0  0  0
   -2.6671   -0.5416   -0.0988 H   0  0  0  0  0  0  0  0  0  0  0  0
   -0.6131   -0.3236    0.3832 C   0  0  1  0  0  0  0  0  0  0  0  0
    0.0142   -0.7800    1.1506 H   0  0  0  0  0  0  0  0  0  0  0  0
    0.0816   -0.5059   -0.9788 C   0  0  0  0  0  0  0  0  0  0  0  0
    1.1627   -0.5033   -0.8247 H   0  0  0  0  0  0  0  0  0  0  0  0
   -0.2004   -1.4719   -1.4001 H   0  0  0  0  0  0  0  0  0  0  0  0
   -0.2629    0.5905   -1.9935 C   0  0  0  0  0  0  0  0  0  0  0  0
   -0.4581    1.5212   -1.4617 H   0  0  0  0  0  0  0  0  0  0  0  0
    0.5919    0.7370   -2.6547 H   0  0  0  0  0  0  0  0  0  0  0  0
   -1.7127    0.2094   -3.0097 S   0  0  0  0  0  0  0  0  0  0  0  0
   -1.0446   -1.1484   -4.0057 C   0  0  0  0  0  0  0  0  0  0  0  0
   -0.7388   -1.9669   -3.3534 H   0  0  0  0  0  0  0  0  0  0  0  0
   -1.8126   -1.5045   -4.6928 H   0  0  0  0  0  0  0  0  0  0  0  0
   -0.1861   -0.7965   -4.5785 H   0  0  0  0  0  0  0  0  0  0  0  0
   -0.8064    1.1568    0.7414 C   0  0  0  0  0  0  0  0  0  0  0  0
   -1.6978    1.8100    0.2029 O   0  0  0  0  0  0  0  0  0  0  0  0
    0.0314    1.6872    1.6415 N   0  0  0  0  0  0  0  0  0  0  0  0
    0.7279    1.0858    2.0517 H   0  0  0  0  0  0  0  0  0  0  0  0
   -0.0137    3.0826    2.0755 C   0  0  0  0  0  0  0  0  0  0  0  0
   -0.9991    3.3070    2.4905 H   0  0  0  0  0  0  0  0  0  0  0  0
    0.7468    3.2694    2.8349 H   0  0  0  0  0  0  0  0  0  0  0  0
    0.1592    3.7397    1.2213 H   0  0  0  0  0  0  0  0  0  0  0  0
  5  6  2  0  0  0  0
  5  7  1  0  0  0  0
  2  3  1  0  0  0  0
  2  4  1  0  0  0  0
  2  5  1  0  0  0  0
  1  2  1  0  0  0  0
 22 23  2  0  0  0  0
 22 24  1  0  0  0  0
 18 19  1  0  0  0  0
 18 20  1  0  0  0  0
 18 21  1  0  0  0  0
 17 18  1  0  0  0  0
 14 15  1  0  0  0  0
 14 16  1  0  0  0  0
 14 17  1  0  0  0  0
 11 12  1  0  0  0  0
 11 13  1  0  0  0  0
 11 14  1  0  0  0  0
  9 10  1  0  0  0  0
  9 11  1  0  0  0  0
  9 22  1  0  0  0  0
  7  8  1  0  0  0  0
  7  9  1  0  0  0  0
 26 27  1  0  0  0  0
 26 28  1  0  0  0  0
 26 29  1  0  0  0  0
 24 25  1  0  0  0  0
 24 26  1  0  0  0  0
M  END
$$$$
default_name
  -OEChem-02102213163D

 29 28  0     1  0  0  0  0  0999 V2000
   -3.5781   -3.7296    1.2702 H   0  0  0  0  0  0  0  0  0  0  0  0
   -3.5311   -2.7616    0.7732 C   0  0  0  0  0  0  0  0  0  0  0  0
   -4.2371   -2.0766    1.2382 H   0  0  0  0  0  0  0  0  0  0  0  0
   -3.7681   -2.8816   -0.2818 H   0  0  0  0  0  0  0  0  0  0  0  0
   -2.1321   -2.2086    0.9112 C   0  0  0  0  0  0  0  0  0  0  0  0
   -1.2751   -2.8426    1.5112 O   0  0  0  0  0  0  0  0  0  0  0  0
   -1.9041   -1.0186    0.3602 N   0  0  0  0  0  0  0  0  0  0  0  0
   -2.6671   -0.5416   -0.0988 H   0  0  0  0  0  0  0  0  0  0  0  0
   -0.6131   -0.3236    0.3832 C   0  0  1  0  0  0  0  0  0  0  0  0
    0.0142   -0.7800    1.1506 H   0  0  0  0  0  0  0  0  0  0  0  0
    0.0816   -0.5059   -0.9788 C   0  0  0  0  0  0  0  0  0  0  0  0
    1.1627   -0.5033   -0.8247 H   0  0  0  0  0  0  0  0  0  0  0  0
   -0.2004   -1.4719   -1.4001 H   0  0  0  0  0  0  0  0  0  0  0  0
   -0.2629    0.5905   -1.9935 C   0  0  0  0  0  0  0  0  0  0  0  0
   -0.1963    1.5625   -1.5059 H   0  0  0  0  0  0  0  0  0  0  0  0
    0.4629    0.5556   -2.8068 H   0  0  0  0  0  0  0  0  0  0  0  0
   -1.9222    0.4293   -2.7009 S   0  0  0  0  0  0  0  0  0  0  0  0
   -1.6903   -1.0658   -3.6972 C   0  0  0  0  0  0  0  0  0  0  0  0
   -1.4061   -1.8974   -3.0517 H   0  0  0  0  0  0  0  0  0  0  0  0
   -2.6232   -1.3092   -4.2065 H   0  0  0  0  0  0  0  0  0  0  0  0
   -0.9101   -0.8957   -4.4398 H   0  0  0  0  0  0  0  0  0  0  0  0
   -0.8064    1.1568    0.7414 C   0  0  0  0  0  0  0  0  0  0  0  0
   -1.6978    1.8100    0.2029 O   0  0  0  0  0  0  0  0  0  0  0  0
    0.0314    1.6872    1.6415 N   0  0  0  0  0  0  0  0  0  0  0  0
    0.7279    1.0858    2.0517 H   0  0  0  0  0  0  0  0  0  0  0  0
   -0.0137    3.0826    2.0755 C   0  0  0  0  0  0  0  0  0  0  0  0
   -0.9991    3.3070    2.4905 H   0  0  0  0  0  0  0  0  0  0  0  0
    0.7468    3.2694    2.8349 H   0  0  0  0  0  0  0  0  0  0  0  0
    0.1592    3.7397    1.2213 H   0  0  0  0  0  0  0  0  0  0  0  0
  5  6  2  0  0  0  0
  5  7  1  0  0  0  0
  2  3  1  0  0  0  0
  2  4  1  0  0  0  0
  2  5  1  0  0  0  0
  1  2  1  0  0  0  0
 22 23  2  0  0  0  0
 22 24  1  0  0  0  0
 18 19  1  0  0  0  0
 18 20  1  0  0  0  0
 18 21  1  0  0  0  0
 17 18  1  0  0  0  0
 14 15  1  0  0  0  0
 14 16  1  0  0  0  0
 14 17  1  0  0  0  0
 11 12  1  0  0  0  0
 11 13  1  0  0  0  0
 11 14  1  0  0  0  0
  9 10  1  0  0  0  0
  9 11  1  0  0  0  0
  9 22  1  0  0  0  0
  7  8  1  0  0  0  0
  7  9  1  0  0  0  0
 26 27  1  0  0  0  0
 26 28  1  0  0  0  0
 26 29  1  0  0  0  0
 24 25  1  0  0  0  0
 24 26  1  0  0  0  0
M  END
$$$$
default_name
  -OEChem-02102213163D

 29 28  0     1  0  0  0  0  0999 V2000
   -3.5781   -3.7296    1.2702 H   0  0  0  0  0  0  0  0  0  0  0  0
   -3.5311   -2.7616    0.7732 C   0  0  0  0  0  0  0  0  0  0  0  0
   -4.2371   -2.0766    1.2382 H   0  0  0  0  0  0  0  0  0  0  0  0
   -3.7681   -2.8816   -0.2818 H   0  0  0  0  0  0  0  0  0  0  0  0
   -2.1321   -2.2086    0.9112 C   0  0  0  0  0  0  0  0  0  0  0  0
   -1.2751   -2.8426    1.5112 O   0  0  0  0  0  0  0  0  0  0  0  0
   -1.9041   -1.0186    0.3602 N   0  0  0  0  0  0  0  0  0  0  0  0
   -2.6671   -0.5416   -0.0988 H   0  0  0  0  0  0  0  0  0  0  0  0
   -0.6131   -0.3236    0.3832 C   0  0  1  0  0  0  0  0  0  0  0  0
    0.0142   -0.7800    1.1506 H   0  0  0  0  0  0  0  0  0  0  0  0
    0.0816   -0.5059   -0.9788 C   0  0  0  0  0  0  0  0  0  0  0  0
    1.1627   -0.5033   -0.8247 H   0  0  0  0  0  0  0  0  0  0  0  0
   -0.2004   -1.4719   -1.4001 H   0  0  0  0  0  0  0  0  0  0  0  0
   -0.2629    0.5905   -1.9935 C   0  0  0  0  0  0  0  0  0  0  0  0
    0.0555    1.5551   -1.5994 H   0  0  0  0  0  0  0  0  0  0  0  0
    0.2790    0.3937   -2.9193 H   0  0  0  0  0  0  0  0  0  0  0  0
   -2.0298    0.6956   -2.3767 S   0  0  0  0  0  0  0  0  0  0  0  0
   -2.2427   -0.8576   -3.2846 C   0  0  0  0  0  0  0  0  0  0  0  0
   -1.9829   -1.6984   -2.6408 H   0  0  0  0  0  0  0  0  0  0  0  0
   -3.2826   -0.9533   -3.5981 H   0  0  0  0  0  0  0  0  0  0  0  0
   -1.6008   -0.8594   -4.1660 H   0  0  0  0  0  0  0  0  0  0  0  0
   -0.8064    1.1568    0.7414 C   0  0  0  0  0  0  0  0  0  0  0  0
   -1.6978    1.8100    0.2029 O   0  0  0  0  0  0  0  0  0  0  0  0
    0.0314    1.6872    1.6415 N   0  0  0  0  0  0  0  0  0  0  0  0
    0.7279    1.0858    2.0517 H   0  0  0  0  0  0  0  0  0  0  0  0
   -0.0137    3.0826    2.0755 C   0  0  0  0  0  0  0  0  0  0  0  0
   -0.9991    3.3070    2.4905 H   0  0  0  0  0  0  0  0  0  0  0  0
    0.7468    3.2694    2.8349 H   0  0  0  0  0  0  0  0  0  0  0  0
    0.1592    3.7397    1.2213 H   0  0  0  0  0  0  0  0  0  0  0  0
  5  6  2  0  0  0  0
  5  7  1  0  0  0  0
  2  3  1  0  0  0  0
  2  4  1  0  0  0  0
  2  5  1  0  0  0  0
  1  2  1  0  0  0  0
 22 23  2  0  0  0  0
 22 24  1  0  0  0  0
 18 19  1  0  0  0  0
 18 20  1  0  0  0  0
 18 21  1  0  0  0  0
 17 18  1  0  0  0  0
 14 15  1  0  0  0  0
 14 16  1  0  0  0  0
 14 17  1  0  0  0  0
 11 12  1  0  0  0  0
 11 13  1  0  0  0  0
 11 14  1  0  0  0  0
  9 10  1  0  0  0  0
  9 11  1  0  0  0  0
  9 22  1  0  0  0  0
  7  8  1  0  0  0  0
  7  9  1  0  0  0  0
 26 27  1  0  0  0  0
 26 28  1  0  0  0  0
 26 29  1  0  0  0  0
 24 25  1  0  0  0  0
 24 26  1  0  0  0  0
M  END
$$$$
default_name
  -OEChem-02102213163D

 29 28  0     1  0  0  0  0  0999 V2000
   -3.5781   -3.7296    1.2702 H   0  0  0  0  0  0  0  0  0  0  0  0
   -3.5311   -2.7616    0.7732 C   0  0  0  0  0  0  0  0  0  0  0  0
   -4.2371   -2.0766    1.2382 H   0  0  0  0  0  0  0  0  0  0  0  0
   -3.7681   -2.8816   -0.2818 H   0  0  0  0  0  0  0  0  0  0  0  0
   -2.1321   -2.2086    0.9112 C   0  0  0  0  0  0  0  0  0  0  0  0
   -1.2751   -2.8426    1.5112 O   0  0  0  0  0  0  0  0  0  0  0  0
   -1.9041   -1.0186    0.3602 N   0  0  0  0  0  0  0  0  0  0  0  0
   -2.6671   -0.5416   -0.0988 H   0  0  0  0  0  0  0  0  0  0  0  0
   -0.6131   -0.3236    0.3832 C   0  0  1  0  0  0  0  0  0  0  0  0
    0.0142   -0.7800    1.1506 H   0  0  0  0  0  0  0  0  0  0  0  0
    0.0816   -0.5059   -0.9788 C   0  0  0  0  0  0  0  0  0  0  0  0
    1.1627   -0.5033   -0.8247 H   0  0  0  0  0  0  0  0  0  0  0  0
   -0.2004   -1.4719   -1.4001 H   0  0  0  0  0  0  0  0  0  0  0  0
   -0.2629    0.5905   -1.9935 C   0  0  0  0  0  0  0  0  0  0  0  0
    0.2801    1.4993   -1.7360 H   0  0  0  0  0  0  0  0  0  0  0  0
    0.0528    0.2623   -2.9845 H   0  0  0  0  0  0  0  0  0  0  0  0
   -2.0281    0.9901   -2.0591 S   0  0  0  0  0  0  0  0  0  0  0  0
   -2.6643   -0.5377   -2.7959 C   0  0  0  0  0  0  0  0  0  0  0  0
   -2.4299   -1.3834   -2.1487 H   0  0  0  0  0  0  0  0  0  0  0  0
   -3.7461   -0.4612   -2.9090 H   0  0  0  0  0  0  0  0  0  0  0  0
   -2.2111   -0.6900   -3.7759 H   0  0  0  0  0  0  0  0  0  0  0  0
   -0.8064    1.1568    0.7414 C   0  0  0  0  0  0  0  0  0  0  0  0
   -1.6978    1.8100    0.2029 O   0  0  0  0  0  0  0  0  0  0  0  0
    0.0314    1.6872    1.6415 N   0  0  0  0  0  0  0  0  0  0  0  0
    0.7279    1.0858    2.0517 H   0  0  0  0  0  0  0  0  0  0  0  0
   -0.0137    3.0826    2.0755 C   0  0  0  0  0  0  0  0  0  0  0  0
   -0.9991    3.3070    2.4905 H   0  0  0  0  0  0  0  0  0  0  0  0
    0.7468    3.2694    2.8349 H   0  0  0  0  0  0  0  0  0  0  0  0
    0.1592    3.7397    1.2213 H   0  0  0  0  0  0  0  0  0  0  0  0
  5  6  2  0  0  0  0
  5  7  1  0  0  0  0
  2  3  1  0  0  0  0
  2  4  1  0  0  0  0
  2  5  1  0  0  0  0
  1  2  1  0  0  0  0
 22 23  2  0  0  0  0
 22 24  1  0  0  0  0
 18 19  1  0  0  0  0
 18 20  1  0  0  0  0
 18 21  1  0  0  0  0
 17 18  1  0  0  0  0
 14 15  1  0  0  0  0
 14 16  1  0  0  0  0
 14 17  1  0  0  0  0
 11 12  1  0  0  0  0
 11 13  1  0  0  0  0
 11 14  1  0  0  0  0
  9 10  1  0  0  0  0
  9 11  1  0  0  0  0
  9 22  1  0  0  0  0
  7  8  1  0  0  0  0
  7  9  1  0  0  0  0
 26 27  1  0  0  0  0
 26 28  1  0  0  0  0
 26 29  1  0  0  0  0
 24 25  1  0  0  0  0
 24 26  1  0  0  0  0
M  END
$$$$
default_name
  -OEChem-02102213163D

 29 28  0     1  0  0  0  0  0999 V2000
   -3.5781   -3.7296    1.2702 H   0  0  0  0  0  0  0  0  0  0  0  0
   -3.5311   -2.7616    0.7732 C   0  0  0  0  0  0  0  0  0  0  0  0
   -4.2371   -2.0766    1.2382 H   0  0  0  0  0  0  0  0  0  0  0  0
   -3.7681   -2.8816   -0.2818 H   0  0  0  0  0  0  0  0  0  0  0  0
   -2.1321   -2.2086    0.9112 C   0  0  0  0  0  0  0  0  0  0  0  0
   -1.2751   -2.8426    1.5112 O   0  0  0  0  0  0  0  0  0  0  0  0
   -1.9041   -1.0186    0.3602 N   0  0  0  0  0  0  0  0  0  0  0  0
   -2.6671   -0.5416   -0.0988 H   0  0  0  0  0  0  0  0  0  0  0  0
   -0.6131   -0.3236    0.3832 C   0  0  1  0  0  0  0  0  0  0  0  0
    0.0142   -0.7800    1.1506 H   0  0  0  0  0  0  0  0  0  0  0  0
    0.0816   -0.5059   -0.9788 C   0  0  0  0  0  0  0  0  0  0  0  0
    1.1627   -0.5033   -0.8247 H   0  0  0  0  0  0  0  0  0  0  0  0
   -0.2004   -1.4719   -1.4001 H   0  0  0  0  0  0  0  0  0  0  0  0
   -0.2629    0.5905   -1.9935 C   0  0  0  0  0  0  0  0  0  0  0  0
    0.4622    1.3990   -1.9062 H   0  0  0  0  0  0  0  0  0  0  0  0
   -0.2003    0.1703   -2.9980 H   0  0  0  0  0  0  0  0  0  0  0  0
   -1.9172    1.2927   -1.7698 S   0  0  0  0  0  0  0  0  0  0  0  0
   -2.9263   -0.1282   -2.2645 C   0  0  0  0  0  0  0  0  0  0  0  0
   -2.7167   -0.9740   -1.6090 H   0  0  0  0  0  0  0  0  0  0  0  0
   -3.9819    0.1335   -2.1863 H   0  0  0  0  0  0  0  0  0  0  0  0
   -2.6993   -0.3992   -3.2959 H   0  0  0  0  0  0  0  0  0  0  0  0
   -0.8064    1.1568    0.7414 C   0  0  0  0  0  0  0  0  0  0  0  0
   -1.6978    1.8100    0.2029 O   0  0  0  0  0  0  0  0  0  0  0  0
    0.0314    1.6872    1.6415 N   0  0  0  0  0  0  0  0  0  0  0  0
    0.7279    1.0858    2.0517 H   0  0  0  0  0  0  0  0  0  0  0  0
   -0.0137    3.0826    2.0755 C   0  0  0  0  0  0  0  0  0  0  0  0
   -0.9991    3.3070    2.4905 H   0  0  0  0  0  0  0  0  0  0  0  0
    0.7468    3.2694    2.8349 H   0  0  0  0  0  0  0  0  0  0  0  0
    0.1592    3.7397    1.2213 H   0  0  0  0  0  0  0  0  0  0  0  0
  5  6  2  0  0  0  0
  5  7  1  0  0  0  0
  2  3  1  0  0  0  0
  2  4  1  0  0  0  0
  2  5  1  0  0  0  0
  1  2  1  0  0  0  0
 22 23  2  0  0  0  0
 22 24  1  0  0  0  0
 18 19  1  0  0  0  0
 18 20  1  0  0  0  0
 18 21  1  0  0  0  0
 17 18  1  0  0  0  0
 14 15  1  0  0  0  0
 14 16  1  0  0  0  0
 14 17  1  0  0  0  0
 11 12  1  0  0  0  0
 11 13  1  0  0  0  0
 11 14  1  0  0  0  0
  9 10  1  0  0  0  0
  9 11  1  0  0  0  0
  9 22  1  0  0  0  0
  7  8  1  0  0  0  0
  7  9  1  0  0  0  0
 26 27  1  0  0  0  0
 26 28  1  0  0  0  0
 26 29  1  0  0  0  0
 24 25  1  0  0  0  0
 24 26  1  0  0  0  0
M  END
$$$$
default_name
  -OEChem-02102213163D

 29 28  0     1  0  0  0  0  0999 V2000
   -3.5781   -3.7296    1.2702 H   0  0  0  0  0  0  0  0  0  0  0  0
   -3.5311   -2.7616    0.7732 C   0  0  0  0  0  0  0  0  0  0  0  0
   -4.2371   -2.0766    1.2382 H   0  0  0  0  0  0  0  0  0  0  0  0
   -3.7681   -2.8816   -0.2818 H   0  0  0  0  0  0  0  0  0  0  0  0
   -2.1321   -2.2086    0.9112 C   0  0  0  0  0  0  0  0  0  0  0  0
   -1.2751   -2.8426    1.5112 O   0  0  0  0  0  0  0  0  0  0  0  0
   -1.9041   -1.0186    0.3602 N   0  0  0  0  0  0  0  0  0  0  0  0
   -2.6671   -0.5416   -0.0988 H   0  0  0  0  0  0  0  0  0  0  0  0
   -0.6131   -0.3236    0.3832 C   0  0  1  0  0  0  0  0  0  0  0  0
    0.0142   -0.7800    1.1506 H   0  0  0  0  0  0  0  0  0  0  0  0
    0.0816   -0.5059   -0.9788 C   0  0  0  0  0  0  0  0  0  0  0  0
    1.1627   -0.5033   -0.8247 H   0  0  0  0  0  0  0  0  0  0  0  0
   -0.2004   -1.4719   -1.4001 H   0  0  0  0  0  0  0  0  0  0  0  0
   -0.2629    0.5905   -1.9935 C   0  0  0  0  0  0  0  0  0  0  0  0
    0.5894    1.2610   -2.0985 H   0  0  0  0  0  0  0  0  0  0  0  0
   -0.4630    0.1240   -2.9588 H   0  0  0  0  0  0  0  0  0  0  0  0
   -1.7047    1.5828   -1.5284 S   0  0  0  0  0  0  0  0  0  0  0  0
   -3.0108    0.3433   -1.7264 C   0  0  0  0  0  0  0  0  0  0  0  0
   -2.8236   -0.4980   -1.0584 H   0  0  0  0  0  0  0  0  0  0  0  0
   -3.9740    0.7905   -1.4792 H   0  0  0  0  0  0  0  0  0  0  0  0
   -3.0323   -0.0068   -2.7588 H   0  0  0  0  0  0  0  0  0  0  0  0
   -0.8064    1.1568    0.7414 C   0  0  0  0  0  0  0  0  0  0  0  0
   -1.6978    1.8100    0.2029 O   0  0  0  0  0  0  0  0  0  0  0  0
    0.0314    1.6872    1.6415 N   0  0  0  0  0  0  0  0  0  0  0  0
    0.7279    1.0858    2.0517 H   0  0  0  0  0  0  0  0  0  0  0  0
   -0.0137    3.0826    2.0755 C   0  0  0  0  0  0  0  0  0  0  0  0
   -0.9991    3.3070    2.4905 H   0  0  0  0  0  0  0  0  0  0  0  0
    0.7468    3.2694    2.8349 H   0  0  0  0  0  0  0  0  0  0  0  0
    0.1592    3.7397    1.2213 H   0  0  0  0  0  0  0  0  0  0  0  0
  5  6  2  0  0  0  0
  5  7  1  0  0  0  0
  2  3  1  0  0  0  0
  2  4  1  0  0  0  0
  2  5  1  0  0  0  0
  1  2  1  0  0  0  0
 22 23  2  0  0  0  0
 22 24  1  0  0  0  0
 18 19  1  0  0  0  0
 18 20  1  0  0  0  0
 18 21  1  0  0  0  0
 17 18  1  0  0  0  0
 14 15  1  0  0  0  0
 14 16  1  0  0  0  0
 14 17  1  0  0  0  0
 11 12  1  0  0  0  0
 11 13  1  0  0  0  0
 11 14  1  0  0  0  0
  9 10  1  0  0  0  0
  9 11  1  0  0  0  0
  9 22  1  0  0  0  0
  7  8  1  0  0  0  0
  7  9  1  0  0  0  0
 26 27  1  0  0  0  0
 26 28  1  0  0  0  0
 26 29  1  0  0  0  0
 24 25  1  0  0  0  0
 24 26  1  0  0  0  0
M  END
$$$$
default_name
  -OEChem-02102213163D

 29 28  0     1  0  0  0  0  0999 V2000
   -3.5781   -3.7296    1.2702 H   0  0  0  0  0  0  0  0  0  0  0  0
   -3.5311   -2.7616    0.7732 C   0  0  0  0  0  0  0  0  0  0  0  0
   -4.2371   -2.0766    1.2382 H   0  0  0  0  0  0  0  0  0  0  0  0
   -3.7681   -2.8816   -0.2818 H   0  0  0  0  0  0  0  0  0  0  0  0
   -2.1321   -2.2086    0.9112 C   0  0  0  0  0  0  0  0  0  0  0  0
   -1.2751   -2.8426    1.5112 O   0  0  0  0  0  0  0  0  0  0  0  0
   -1.9041   -1.0186    0.3602 N   0  0  0  0  0  0  0  0  0  0  0  0
   -2.6671   -0.5416   -0.0988 H   0  0  0  0  0  0  0  0  0  0  0  0
   -0.6131   -0.3236    0.3832 C   0  0  1  0  0  0  0  0  0  0  0  0
    0.0142   -0.7800    1.1506 H   0  0  0  0  0  0  0  0  0  0  0  0
    0.0816   -0.5059   -0.9788 C   0  0  0  0  0  0  0  0  0  0  0  0
    1.1627   -0.5033   -0.8247 H   0  0  0  0  0  0  0  0  0  0  0  0
   -0.2004   -1.4719   -1.4001 H   0  0  0  0  0  0  0  0  0  0  0  0
   -0.2629    0.5905   -1.9935 C   0  0  0  0  0  0  0  0  0  0  0  0
    0.6531    1.0947   -2.2997 H   0  0  0  0  0  0  0  0  0  0  0  0
   -0.7175    0.1265   -2.8696 H   0  0  0  0  0  0  0  0  0  0  0  0
   -1.4050    1.8407   -1.3515 S   0  0  0  0  0  0  0  0  0  0  0  0
   -2.9121    0.8444   -1.2185 C   0  0  0  0  0  0  0  0  0  0  0  0
   -2.7434    0.0121   -0.5345 H   0  0  0  0  0  0  0  0  0  0  0  0
   -3.7230    1.4648   -0.8359 H   0  0  0  0  0  0  0  0  0  0  0  0
   -3.1872    0.4605   -2.2013 H   0  0  0  0  0  0  0  0  0  0  0  0
   -0.8064    1.1568    0.7414 C   0  0  0  0  0  0  0  0  0  0  0  0
   -1.6978    1.8100    0.2029 O   0  0  0  0  0  0  0  0  0  0  0  0
    0.0314    1.6872    1.6415 N   0  0  0  0  0  0  0  0  0  0  0  0
    0.7279    1.0858    2.0517 H   0  0  0  0  0  0  0  0  0  0  0  0
   -0.0137    3.0826    2.0755 C   0  0  0  0  0  0  0  0  0  0  0  0
   -0.9991    3.3070    2.4905 H   0  0  0  0  0  0  0  0  0  0  0  0
    0.7468    3.2694    2.8349 H   0  0  0  0  0  0  0  0  0  0  0  0
    0.1592    3.7397    1.2213 H   0  0  0  0  0  0  0  0  0  0  0  0
  5  6  2  0  0  0  0
  5  7  1  0  0  0  0
  2  3  1  0  0  0  0
  2  4  1  0  0  0  0
  2  5  1  0  0  0  0
  1  2  1  0  0  0  0
 22 23  2  0  0  0  0
 22 24  1  0  0  0  0
 18 19  1  0  0  0  0
 18 20  1  0  0  0  0
 18 21  1  0  0  0  0
 17 18  1  0  0  0  0
 14 15  1  0  0  0  0
 14 16  1  0  0  0  0
 14 17  1  0  0  0  0
 11 12  1  0  0  0  0
 11 13  1  0  0  0  0
 11 14  1  0  0  0  0
  9 10  1  0  0  0  0
  9 11  1  0  0  0  0
  9 22  1  0  0  0  0
  7  8  1  0  0  0  0
  7  9  1  0  0  0  0
 26 27  1  0  0  0  0
 26 28  1  0  0  0  0
 26 29  1  0  0  0  0
 24 25  1  0  0  0  0
 24 26  1  0  0  0  0
M  END
$$$$
default_name
  -OEChem-02102213163D

 29 28  0     1  0  0  0  0  0999 V2000
   -3.5781   -3.7296    1.2702 H   0  0  0  0  0  0  0  0  0  0  0  0
   -3.5311   -2.7616    0.7732 C   0  0  0  0  0  0  0  0  0  0  0  0
   -4.2371   -2.0766    1.2382 H   0  0  0  0  0  0  0  0  0  0  0  0
   -3.7681   -2.8816   -0.2818 H   0  0  0  0  0  0  0  0  0  0  0  0
   -2.1321   -2.2086    0.9112 C   0  0  0  0  0  0  0  0  0  0  0  0
   -1.2751   -2.8426    1.5112 O   0  0  0  0  0  0  0  0  0  0  0  0
   -1.9041   -1.0186    0.3602 N   0  0  0  0  0  0  0  0  0  0  0  0
   -2.6671   -0.5416   -0.0988 H   0  0  0  0  0  0  0  0  0  0  0  0
   -0.6131   -0.3236    0.3832 C   0  0  1  0  0  0  0  0  0  0  0  0
    0.0142   -0.7800    1.1506 H   0  0  0  0  0  0  0  0  0  0  0  0
    0.0816   -0.5059   -0.9788 C   0  0  0  0  0  0  0  0  0  0  0  0
    1.1627   -0.5033   -0.8247 H   0  0  0  0  0  0  0  0  0  0  0  0
   -0.2004   -1.4719   -1.4001 H   0  0  0  0  0  0  0  0  0  0  0  0
   -0.2629    0.5905   -1.9935 C   0  0  0  0  0  0  0  0  0  0  0  0
    0.6489    0.9115   -2.4962 H   0  0  0  0  0  0  0  0  0  0  0  0
   -0.9463    0.1778   -2.7366 H   0  0  0  0  0  0  0  0  0  0  0  0
   -1.0386    2.0488   -1.2511 S   0  0  0  0  0  0  0  0  0  0  0  0
   -2.6369    1.3411   -0.7753 C   0  0  0  0  0  0  0  0  0  0  0  0
   -2.4816    0.5216   -0.0729 H   0  0  0  0  0  0  0  0  0  0  0  0
   -3.2459    2.1106   -0.3001 H   0  0  0  0  0  0  0  0  0  0  0  0
   -3.1537    0.9709   -1.6612 H   0  0  0  0  0  0  0  0  0  0  0  0
   -0.8064    1.1568    0.7414 C   0  0  0  0  0  0  0  0  0  0  0  0
   -1.6978    1.8100    0.2029 O   0  0  0  0  0  0  0  0  0  0  0  0
    0.0314    1.6872    1.6415 N   0  0  0  0  0  0  0  0  0  0  0  0
    0.7279    1.0858    2.0517 H   0  0  0  0  0  0  0  0  0  0  0  0
   -0.0137    3.0826    2.0755 C   0  0  0  0  0  0  0  0  0  0  0  0
   -0.9991    3.3070    2.4905 H   0  0  0  0  0  0  0  0  0  0  0  0
    0.7468    3.2694    2.8349 H   0  0  0  0  0  0  0  0  0  0  0  0
    0.1592    3.7397    1.2213 H   0  0  0  0  0  0  0  0  0  0  0  0
  5  6  2  0  0  0  0
  5  7  1  0  0  0  0
  2  3  1  0  0  0  0
  2  4  1  0  0  0  0
  2  5  1  0  0  0  0
  1  2  1  0  0  0  0
 22 23  2  0  0  0  0
 22 24  1  0  0  0  0
 18 19  1  0  0  0  0
 18 20  1  0  0  0  0
 18 21  1  0  0  0  0
 17 18  1  0  0  0  0
 14 15  1  0  0  0  0
 14 16  1  0  0  0  0
 14 17  1  0  0  0  0
 11 12  1  0  0  0  0
 11 13  1  0  0  0  0
 11 14  1  0  0  0  0
  9 10  1  0  0  0  0
  9 11  1  0  0  0  0
  9 22  1  0  0  0  0
  7  8  1  0  0  0  0
  7  9  1  0  0  0  0
 26 27  1  0  0  0  0
 26 28  1  0  0  0  0
 26 29  1  0  0  0  0
 24 25  1  0  0  0  0
 24 26  1  0  0  0  0
M  END
$$$$
default_name
  -OEChem-02102213163D

 29 28  0     1  0  0  0  0  0999 V2000
   -3.5781   -3.7296    1.2702 H   0  0  0  0  0  0  0  0  0  0  0  0
   -3.5311   -2.7616    0.7732 C   0  0  0  0  0  0  0  0  0  0  0  0
   -4.2371   -2.0766    1.2382 H   0  0  0  0  0  0  0  0  0  0  0  0
   -3.7681   -2.8816   -0.2818 H   0  0  0  0  0  0  0  0  0  0  0  0
   -2.1321   -2.2086    0.9112 C   0  0  0  0  0  0  0  0  0  0  0  0
   -1.2751   -2.8426    1.5112 O   0  0  0  0  0  0  0  0  0  0  0  0
   -1.9041   -1.0186    0.3602 N   0  0  0  0  0  0  0  0  0  0  0  0
   -2.6671   -0.5416   -0.0988 H   0  0  0  0  0  0  0  0  0  0  0  0
   -0.6131   -0.3236    0.3832 C   0  0  1  0  0  0  0  0  0  0  0  0
    0.0142   -0.7800    1.1506 H   0  0  0  0  0  0  0  0  0  0  0  0
    0.0816   -0.5059   -0.9788 C   0  0  0  0  0  0  0  0  0  0  0  0
    1.1627   -0.5033   -0.8247 H   0  0  0  0  0  0  0  0  0  0  0  0
   -0.2004   -1.4719   -1.4001 H   0  0  0  0  0  0  0  0  0  0  0  0
   -0.2629    0.5905   -1.9935 C   0  0  0  0  0  0  0  0  0  0  0  0
    0.5770    0.7239   -2.6746 H   0  0  0  0  0  0  0  0  0  0  0  0
   -1.1339    0.2742   -2.5687 H   0  0  0  0  0  0  0  0  0  0  0  0
   -0.6305    2.1929   -1.2340 S   0  0  0  0  0  0  0  0  0  0  0  0
   -2.2040    1.7995   -0.4270 C   0  0  0  0  0  0  0  0  0  0  0  0
   -2.0561    0.9957    0.2948 H   0  0  0  0  0  0  0  0  0  0  0  0
   -2.5753    2.6838    0.0915 H   0  0  0  0  0  0  0  0  0  0  0  0
   -2.9339    1.4896   -1.1754 H   0  0  0  0  0  0  0  0  0  0  0  0
   -0.8064    1.1568    0.7414 C   0  0  0  0  0  0  0  0  0  0  0  0
   -1.6978    1.8100    0.2029 O   0  0  0  0  0  0  0  0  0  0  0  0
    0.0314    1.6872    1.6415 N   0  0  0  0  0  0  0  0  0  0  0  0
    0.7279    1.0858    2.0517 H   0  0  0  0  0  0  0  0  0  0  0  0
   -0.0137    3.0826    2.0755 C   0  0  0  0  0  0  0  0  0  0  0  0
   -0.9991    3.3070    2.4905 H   0  0  0  0  0  0  0  0  0  0  0  0
    0.7468    3.2694    2.8349 H   0  0  0  0  0  0  0  0  0  0  0  0
    0.1592    3.7397    1.2213 H   0  0  0  0  0  0  0  0  0  0  0  0
  5  6  2  0  0  0  0
  5  7  1  0  0  0  0
  2  3  1  0  0  0  0
  2  4  1  0  0  0  0
  2  5  1  0  0  0  0
  1  2  1  0  0  0  0
 22 23  2  0  0  0  0
 22 24  1  0  0  0  0
 18 19  1  0  0  0  0
 18 20  1  0  0  0  0
 18 21  1  0  0  0  0
 17 18  1  0  0  0  0
 14 15  1  0  0  0  0
 14 16  1  0  0  0  0
 14 17  1  0  0  0  0
 11 12  1  0  0  0  0
 11 13  1  0  0  0  0
 11 14  1  0  0  0  0
  9 10  1  0  0  0  0
  9 11  1  0  0  0  0
  9 22  1  0  0  0  0
  7  8  1  0  0  0  0
  7  9  1  0  0  0  0
 26 27  1  0  0  0  0
 26 28  1  0  0  0  0
 26 29  1  0  0  0  0
 24 25  1  0  0  0  0
 24 26  1  0  0  0  0
M  END
$$$$
default_name
  -OEChem-02102213163D

 29 28  0     1  0  0  0  0  0999 V2000
   -3.5781   -3.7296    1.2702 H   0  0  0  0  0  0  0  0  0  0  0  0
   -3.5311   -2.7616    0.7732 C   0  0  0  0  0  0  0  0  0  0  0  0
   -4.2371   -2.0766    1.2382 H   0  0  0  0  0  0  0  0  0  0  0  0
   -3.7681   -2.8816   -0.2818 H   0  0  0  0  0  0  0  0  0  0  0  0
   -2.1321   -2.2086    0.9112 C   0  0  0  0  0  0  0  0  0  0  0  0
   -1.2751   -2.8426    1.5112 O   0  0  0  0  0  0  0  0  0  0  0  0
   -1.9041   -1.0186    0.3602 N   0  0  0  0  0  0  0  0  0  0  0  0
   -2.6671   -0.5416   -0.0988 H   0  0  0  0  0  0  0  0  0  0  0  0
   -0.6131   -0.3236    0.3832 C   0  0  1  0  0  0  0  0  0  0  0  0
    0.0142   -0.7800    1.1506 H   0  0  0  0  0  0  0  0  0  0  0  0
    0.0816   -0.5059   -0.9788 C   0  0  0  0  0  0  0  0  0  0  0  0
    1.1627   -0.5033   -0.8247 H   0  0  0  0  0  0  0  0  0  0  0  0
   -0.2004   -1.4719   -1.4001 H   0  0  0  0  0  0  0  0  0  0  0  0
   -0.2629    0.5905   -1.9935 C   0  0  0  0  0  0  0  0  0  0  0  0
    0.4425    0.5445   -2.8227 H   0  0  0  0  0  0  0  0  0  0  0  0
   -1.2675    0.4093   -2.3774 H   0  0  0  0  0  0  0  0  0  0  0  0
   -0.2085    2.2631   -1.3015 S   0  0  0  0  0  0  0  0  0  0  0  0
   -1.6428    2.1883   -0.1974 C   0  0  0  0  0  0  0  0  0  0  0  0
   -1.4957    1.4021    0.5437 H   0  0  0  0  0  0  0  0  0  0  0  0
   -1.7568    3.1454    0.3123 H   0  0  0  0  0  0  0  0  0  0  0  0
   -2.5428    1.9812   -0.7771 H   0  0  0  0  0  0  0  0  0  0  0  0
   -0.8064    1.1568    0.7414 C   0  0  0  0  0  0  0  0  0  0  0  0
   -1.6978    1.8100    0.2029 O   0  0  0  0  0  0  0  0  0  0  0  0
    0.0314    1.6872    1.6415 N   0  0  0  0  0  0  0  0  0  0  0  0
    0.7279    1.0858    2.0517 H   0  0  0  0  0  0  0  0  0  0  0  0
   -0.0137    3.0826    2.0755 C   0  0  0  0  0  0  0  0  0  0  0  0
   -0.9991    3.3070    2.4905 H   0  0  0  0  0  0  0  0  0  0  0  0
    0.7468    3.2694    2.8349 H   0  0  0  0  0  0  0  0  0  0  0  0
    0.1592    3.7397    1.2213 H   0  0  0  0  0  0  0  0  0  0  0  0
  5  6  2  0  0  0  0
  5  7  1  0  0  0  0
  2  3  1  0  0  0  0
  2  4  1  0  0  0  0
  2  5  1  0  0  0  0
  1  2  1  0  0  0  0
 22 23  2  0  0  0  0
 22 24  1  0  0  0  0
 18 19  1  0  0  0  0
 18 20  1  0  0  0  0
 18 21  1  0  0  0  0
 17 18  1  0  0  0  0
 14 15  1  0  0  0  0
 14 16  1  0  0  0  0
 14 17  1  0  0  0  0
 11 12  1  0  0  0  0
 11 13  1  0  0  0  0
 11 14  1  0  0  0  0
  9 10  1  0  0  0  0
  9 11  1  0  0  0  0
  9 22  1  0  0  0  0
  7  8  1  0  0  0  0
  7  9  1  0  0  0  0
 26 27  1  0  0  0  0
 26 28  1  0  0  0  0
 26 29  1  0  0  0  0
 24 25  1  0  0  0  0
 24 26  1  0  0  0  0
M  END
$$$$
default_name
  -OEChem-02102213163D

 29 28  0     1  0  0  0  0  0999 V2000
   -3.5781   -3.7296    1.2702 H   0  0  0  0  0  0  0  0  0  0  0  0
   -3.5311   -2.7616    0.7732 C   0  0  0  0  0  0  0  0  0  0  0  0
   -4.2371   -2.0766    1.2382 H   0  0  0  0  0  0  0  0  0  0  0  0
   -3.7681   -2.8816   -0.2818 H   0  0  0  0  0  0  0  0  0  0  0  0
   -2.1321   -2.2086    0.9112 C   0  0  0  0  0  0  0  0  0  0  0  0
   -1.2751   -2.8426    1.5112 O   0  0  0  0  0  0  0  0  0  0  0  0
   -1.9041   -1.0186    0.3602 N   0  0  0  0  0  0  0  0  0  0  0  0
   -2.6671   -0.5416   -0.0988 H   0  0  0  0  0  0  0  0  0  0  0  0
   -0.6131   -0.3236    0.3832 C   0  0  1  0  0  0  0  0  0  0  0  0
    0.0142   -0.7800    1.1506 H   0  0  0  0  0  0  0  0  0  0  0  0
    0.0816   -0.5059   -0.9788 C   0  0  0  0  0  0  0  0  0  0  0  0
    1.1627   -0.5033   -0.8247 H   0  0  0  0  0  0  0  0  0  0  0  0
   -0.2004   -1.4719   -1.4001 H   0  0  0  0  0  0  0  0  0  0  0  0
   -0.2629    0.5905   -1.9935 C   0  0  0  0  0  0  0  0  0  0  0  0
    0.2544    0.3857   -2.9304 H   0  0  0  0  0  0  0  0  0  0  0  0
   -1.3381    0.5738   -2.1757 H   0  0  0  0  0  0  0  0  0  0  0  0
    0.1987    2.2547   -1.4488 S   0  0  0  0  0  0  0  0  0  0  0  0
   -0.9916    2.4812   -0.1021 C   0  0  0  0  0  0  0  0  0  0  0  0
   -0.8388    1.7132    0.6567 H   0  0  0  0  0  0  0  0  0  0  0  0
   -0.8463    3.4639    0.3473 H   0  0  0  0  0  0  0  0  0  0  0  0
   -2.0071    2.4122   -0.4933 H   0  0  0  0  0  0  0  0  0  0  0  0
   -0.8064    1.1568    0.7414 C   0  0  0  0  0  0  0  0  0  0  0  0
   -1.6978    1.8100    0.2029 O   0  0  0  0  0  0  0  0  0  0  0  0
    0.0314    1.6872    1.6415 N   0  0  0  0  0  0  0  0  0  0  0  0
    0.7279    1.0858    2.0517 H   0  0  0  0  0  0  0  0  0  0  0  0
   -0.0137    3.0826    2.0755 C   0  0  0  0  0  0  0  0  0  0  0  0
   -0.9991    3.3070    2.4905 H   0  0  0  0  0  0  0  0  0  0  0  0
    0.7468    3.2694    2.8349 H   0  0  0  0  0  0  0  0  0  0  0  0
    0.1592    3.7397    1.2213 H   0  0  0  0  0  0  0  0  0  0  0  0
  5  6  2  0  0  0  0
  5  7  1  0  0  0  0
  2  3  1  0  0  0  0
  2  4  1  0  0  0  0
  2  5  1  0  0  0  0
  1  2  1  0  0  0  0
 22 23  2  0  0  0  0
 22 24  1  0  0  0  0
 18 19  1  0  0  0  0
 18 20  1  0  0  0  0
 18 21  1  0  0  0  0
 17 18  1  0  0  0  0
 14 15  1  0  0  0  0
 14 16  1  0  0  0  0
 14 17  1  0  0  0  0
 11 12  1  0  0  0  0
 11 13  1  0  0  0  0
 11 14  1  0  0  0  0
  9 10  1  0  0  0  0
  9 11  1  0  0  0  0
  9 22  1  0  0  0  0
  7  8  1  0  0  0  0
  7  9  1  0  0  0  0
 26 27  1  0  0  0  0
 26 28  1  0  0  0  0
 26 29  1  0  0  0  0
 24 25  1  0  0  0  0
 24 26  1  0  0  0  0
M  END
$$$$
default_name
  -OEChem-02102213163D

 29 28  0     1  0  0  0  0  0999 V2000
   -3.5781   -3.7296    1.2702 H   0  0  0  0  0  0  0  0  0  0  0  0
   -3.5311   -2.7616    0.7732 C   0  0  0  0  0  0  0  0  0  0  0  0
   -4.2371   -2.0766    1.2382 H   0  0  0  0  0  0  0  0  0  0  0  0
   -3.7681   -2.8816   -0.2818 H   0  0  0  0  0  0  0  0  0  0  0  0
   -2.1321   -2.2086    0.9112 C   0  0  0  0  0  0  0  0  0  0  0  0
   -1.2751   -2.8426    1.5112 O   0  0  0  0  0  0  0  0  0  0  0  0
   -1.9041   -1.0186    0.3602 N   0  0  0  0  0  0  0  0  0  0  0  0
   -2.6671   -0.5416   -0.0988 H   0  0  0  0  0  0  0  0  0  0  0  0
   -0.6131   -0.3236    0.3832 C   0  0  1  0  0  0  0  0  0  0  0  0
    0.0142   -0.7800    1.1506 H   0  0  0  0  0  0  0  0  0  0  0  0
    0.0816   -0.5059   -0.9788 C   0  0  0  0  0  0  0  0  0  0  0  0
    1.1627   -0.5033   -0.8247 H   0  0  0  0  0  0  0  0  0  0  0  0
   -0.2004   -1.4719   -1.4001 H   0  0  0  0  0  0  0  0  0  0  0  0
   -0.2629    0.5905   -1.9935 C   0  0  0  0  0  0  0  0  0  0  0  0
    0.0255    0.2583   -2.9903 H   0  0  0  0  0  0  0  0  0  0  0  0
   -1.3407    0.7564   -1.9774 H   0  0  0  0  0  0  0  0  0  0  0  0
    0.5634    2.1683   -1.6660 S   0  0  0  0  0  0  0  0  0  0  0  0
   -0.2949    2.6580   -0.1476 C   0  0  0  0  0  0  0  0  0  0  0  0
   -0.1300    1.9077    0.6262 H   0  0  0  0  0  0  0  0  0  0  0  0
    0.0942    3.6176    0.1940 H   0  0  0  0  0  0  0  0  0  0  0  0
   -1.3633    2.7533   -0.3434 H   0  0  0  0  0  0  0  0  0  0  0  0
   -0.8064    1.1568    0.7414 C   0  0  0  0  0  0  0  0  0  0  0  0
   -1.6978    1.8100    0.2029 O   0  0  0  0  0  0  0  0  0  0  0  0
    0.0314    1.6872    1.6415 N   0  0  0  0  0  0  0  0  0  0  0  0
    0.7279    1.0858    2.0517 H   0  0  0  0  0  0  0  0  0  0  0  0
   -0.0137    3.0826    2.0755 C   0  0  0  0  0  0  0  0  0  0  0  0
   -0.9991    3.3070    2.4905 H   0  0  0  0  0  0  0  0  0  0  0  0
    0.7468    3.2694    2.8349 H   0  0  0  0  0  0  0  0  0  0  0  0
    0.1592    3.7397    1.2213 H   0  0  0  0  0  0  0  0  0  0  0  0
  5  6  2  0  0  0  0
  5  7  1  0  0  0  0
  2  3  1  0  0  0  0
  2  4  1  0  0  0  0
  2  5  1  0  0  0  0
  1  2  1  0  0  0  0
 22 23  2  0  0  0  0
 22 24  1  0  0  0  0
 18 19  1  0  0  0  0
 18 20  1  0  0  0  0
 18 21  1  0  0  0  0
 17 18  1  0  0  0  0
 14 15  1  0  0  0  0
 14 16  1  0  0  0  0
 14 17  1  0  0  0  0
 11 12  1  0  0  0  0
 11 13  1  0  0  0  0
 11 14  1  0  0  0  0
  9 10  1  0  0  0  0
  9 11  1  0  0  0  0
  9 22  1  0  0  0  0
  7  8  1  0  0  0  0
  7  9  1  0  0  0  0
 26 27  1  0  0  0  0
 26 28  1  0  0  0  0
 26 29  1  0  0  0  0
 24 25  1  0  0  0  0
 24 26  1  0  0  0  0
M  END
$$$$
default_name
  -OEChem-02102213163D

 29 28  0     1  0  0  0  0  0999 V2000
   -3.5781   -3.7296    1.2702 H   0  0  0  0  0  0  0  0  0  0  0  0
   -3.5311   -2.7616    0.7732 C   0  0  0  0  0  0  0  0  0  0  0  0
   -4.2371   -2.0766    1.2382 H   0  0  0  0  0  0  0  0  0  0  0  0
   -3.7681   -2.8816   -0.2818 H   0  0  0  0  0  0  0  0  0  0  0  0
   -2.1321   -2.2086    0.9112 C   0  0  0  0  0  0  0  0  0  0  0  0
   -1.2751   -2.8426    1.5112 O   0  0  0  0  0  0  0  0  0  0  0  0
   -1.9041   -1.0186    0.3602 N   0  0  0  0  0  0  0  0  0  0  0  0
   -2.6671   -0.5416   -0.0988 H   0  0  0  0  0  0  0  0  0  0  0  0
   -0.6131   -0.3236    0.3832 C   0  0  1  0  0  0  0  0  0  0  0  0
    0.0142   -0.7800    1.1506 H   0  0  0  0  0  0  0  0  0  0  0  0
    0.0816   -0.5059   -0.9788 C   0  0  0  0  0  0  0  0  0  0  0  0
    1.1627   -0.5033   -0.8247 H   0  0  0  0  0  0  0  0  0  0  0  0
   -0.2004   -1.4719   -1.4001 H   0  0  0  0  0  0  0  0  0  0  0  0
   -0.2629    0.5905   -1.9935 C   0  0  0  0  0  0  0  0  0  0  0  0
   -0.2284    0.1709   -2.9985 H   0  0  0  0  0  0  0  0  0  0  0  0
   -1.2753    0.9449   -1.7961 H   0  0  0  0  0  0  0  0  0  0  0  0
    0.8606    2.0097   -1.9382 S   0  0  0  0  0  0  0  0  0  0  0  0
    0.4000    2.7068   -0.3308 C   0  0  0  0  0  0  0  0  0  0  0  0
    0.5823    1.9724    0.4543 H   0  0  0  0  0  0  0  0  0  0  0  0
    1.0006    3.5960   -0.1371 H   0  0  0  0  0  0  0  0  0  0  0  0
   -0.6552    2.9812   -0.3376 H   0  0  0  0  0  0  0  0  0  0  0  0
   -0.8064    1.1568    0.7414 C   0  0  0  0  0  0  0  0  0  0  0  0
   -1.6978    1.8100    0.2029 O   0  0  0  0  0  0  0  0  0  0  0  0
    0.0314    1.6872    1.6415 N   0  0  0  0  0  0  0  0  0  0  0  0
    0.7279    1.0858    2.0517 H   0  0  0  0  0  0  0  0  0  0  0  0
   -0.0137    3.0826    2.0755 C   0  0  0  0  0  0  0  0  0  0  0  0
   -0.9991    3.3070    2.4905 H   0  0  0  0  0  0  0  0  0  0  0  0
    0.7468    3.2694    2.8349 H   0  0  0  0  0  0  0  0  0  0  0  0
    0.1592    3.7397    1.2213 H   0  0  0  0  0  0  0  0  0  0  0  0
  5  6  2  0  0  0  0
  5  7  1  0  0  0  0
  2  3  1  0  0  0  0
  2  4  1  0  0  0  0
  2  5  1  0  0  0  0
  1  2  1  0  0  0  0
 22 23  2  0  0  0  0
 22 24  1  0  0  0  0
 18 19  1  0  0  0  0
 18 20  1  0  0  0  0
 18 21  1  0  0  0  0
 17 18  1  0  0  0  0
 14 15  1  0  0  0  0
 14 16  1  0  0  0  0
 14 17  1  0  0  0  0
 11 12  1  0  0  0  0
 11 13  1  0  0  0  0
 11 14  1  0  0  0  0
  9 10  1  0  0  0  0
  9 11  1  0  0  0  0
  9 22  1  0  0  0  0
  7  8  1  0  0  0  0
  7  9  1  0  0  0  0
 26 27  1  0  0  0  0
 26 28  1  0  0  0  0
 26 29  1  0  0  0  0
 24 25  1  0  0  0  0
 24 26  1  0  0  0  0
M  END
$$$$
default_name
  -OEChem-02102213163D

 29 28  0     1  0  0  0  0  0999 V2000
   -3.5781   -3.7296    1.2702 H   0  0  0  0  0  0  0  0  0  0  0  0
   -3.5311   -2.7616    0.7732 C   0  0  0  0  0  0  0  0  0  0  0  0
   -4.2371   -2.0766    1.2382 H   0  0  0  0  0  0  0  0  0  0  0  0
   -3.7681   -2.8816   -0.2818 H   0  0  0  0  0  0  0  0  0  0  0  0
   -2.1321   -2.2086    0.9112 C   0  0  0  0  0  0  0  0  0  0  0  0
   -1.2751   -2.8426    1.5112 O   0  0  0  0  0  0  0  0  0  0  0  0
   -1.9041   -1.0186    0.3602 N   0  0  0  0  0  0  0  0  0  0  0  0
   -2.6671   -0.5416   -0.0988 H   0  0  0  0  0  0  0  0  0  0  0  0
   -0.6131   -0.3236    0.3832 C   0  0  1  0  0  0  0  0  0  0  0  0
    0.0142   -0.7800    1.1506 H   0  0  0  0  0  0  0  0  0  0  0  0
    0.0816   -0.5059   -0.9788 C   0  0  0  0  0  0  0  0  0  0  0  0
    1.1627   -0.5033   -0.8247 H   0  0  0  0  0  0  0  0  0  0  0  0
   -0.2004   -1.4719   -1.4001 H   0  0  0  0  0  0  0  0  0  0  0  0
   -0.2629    0.5905   -1.9935 C   0  0  0  0  0  0  0  0  0  0  0  0
   -0.4902    0.1296   -2.9543 H   0  0  0  0  0  0  0  0  0  0  0  0
   -1.1462    1.1262   -1.6439 H   0  0  0  0  0  0  0  0  0  0  0  0
    1.0701    1.7898   -2.2470 S   0  0  0  0  0  0  0  0  0  0  0  0
    1.0457    2.6243   -0.6392 C   0  0  0  0  0  0  0  0  0  0  0  0
    1.2496    1.9029    0.1526 H   0  0  0  0  0  0  0  0  0  0  0  0
    1.8111    3.4007   -0.6234 H   0  0  0  0  0  0  0  0  0  0  0  0
    0.0688    3.0803   -0.4763 H   0  0  0  0  0  0  0  0  0  0  0  0
   -0.8064    1.1568    0.7414 C   0  0  0  0  0  0  0  0  0  0  0  0
   -1.6978    1.8100    0.2029 O   0  0  0  0  0  0  0  0  0  0  0  0
    0.0314    1.6872    1.6415 N   0  0  0  0  0  0  0  0  0  0  0  0
    0.7279    1.0858    2.0517 H   0  0  0  0  0  0  0  0  0  0  0  0
   -0.0137    3.0826    2.0755 C   0  0  0  0  0  0  0  0  0  0  0  0
   -0.9991    3.3070    2.4905 H   0  0  0  0  0  0  0  0  0  0  0  0
    0.7468    3.2694    2.8349 H   0  0  0  0  0  0  0  0  0  0  0  0
    0.1592    3.7397    1.2213 H   0  0  0  0  0  0  0  0  0  0  0  0
  5  6  2  0  0  0  0
  5  7  1  0  0  0  0
  2  3  1  0  0  0  0
  2  4  1  0  0  0  0
  2  5  1  0  0  0  0
  1  2  1  0  0  0  0
 22 23  2  0  0  0  0
 22 24  1  0  0  0  0
 18 19  1  0  0  0  0
 18 20  1  0  0  0  0
 18 21  1  0  0  0  0
 17 18  1  0  0  0  0
 14 15  1  0  0  0  0
 14 16  1  0  0  0  0
 14 17  1  0  0  0  0
 11 12  1  0  0  0  0
 11 13  1  0  0  0  0
 11 14  1  0  0  0  0
  9 10  1  0  0  0  0
  9 11  1  0  0  0  0
  9 22  1  0  0  0  0
  7  8  1  0  0  0  0
  7  9  1  0  0  0  0
 26 27  1  0  0  0  0
 26 28  1  0  0  0  0
 26 29  1  0  0  0  0
 24 25  1  0  0  0  0
 24 26  1  0  0  0  0
M  END
$$$$
default_name
  -OEChem-02102213163D

 29 28  0     1  0  0  0  0  0999 V2000
   -3.5781   -3.7296    1.2702 H   0  0  0  0  0  0  0  0  0  0  0  0
   -3.5311   -2.7616    0.7732 C   0  0  0  0  0  0  0  0  0  0  0  0
   -4.2371   -2.0766    1.2382 H   0  0  0  0  0  0  0  0  0  0  0  0
   -3.7681   -2.8816   -0.2818 H   0  0  0  0  0  0  0  0  0  0  0  0
   -2.1321   -2.2086    0.9112 C   0  0  0  0  0  0  0  0  0  0  0  0
   -1.2751   -2.8426    1.5112 O   0  0  0  0  0  0  0  0  0  0  0  0
   -1.9041   -1.0186    0.3602 N   0  0  0  0  0  0  0  0  0  0  0  0
   -2.6671   -0.5416   -0.0988 H   0  0  0  0  0  0  0  0  0  0  0  0
   -0.6131   -0.3236    0.3832 C   0  0  1  0  0  0  0  0  0  0  0  0
    0.0142   -0.7800    1.1506 H   0  0  0  0  0  0  0  0  0  0  0  0
    0.0816   -0.5059   -0.9788 C   0  0  0  0  0  0  0  0  0  0  0  0
    1.1627   -0.5033   -0.8247 H   0  0  0  0  0  0  0  0  0  0  0  0
   -0.2004   -1.4719   -1.4001 H   0  0  0  0  0  0  0  0  0  0  0  0
   -0.2629    0.5905   -1.9935 C   0  0  0  0  0  0  0  0  0  0  0  0
   -0.7420    0.1371   -2.8607 H   0  0  0  0  0  0  0  0  0  0  0  0
   -0.9623    1.2882   -1.5314 H   0  0  0  0  0  0  0  0  0  0  0  0
    1.1777    1.5235   -2.5712 S   0  0  0  0  0  0  0  0  0  0  0  0
    1.5982    2.4160   -1.0519 C   0  0  0  0  0  0  0  0  0  0  0  0
    1.8264    1.7039   -0.2583 H   0  0  0  0  0  0  0  0  0  0  0  0
    2.4706    3.0448   -1.2318 H   0  0  0  0  0  0  0  0  0  0  0  0
    0.7595    3.0440   -0.7500 H   0  0  0  0  0  0  0  0  0  0  0  0
   -0.8064    1.1568    0.7414 C   0  0  0  0  0  0  0  0  0  0  0  0
   -1.6978    1.8100    0.2029 O   0  0  0  0  0  0  0  0  0  0  0  0
    0.0314    1.6872    1.6415 N   0  0  0  0  0  0  0  0  0  0  0  0
    0.7279    1.0858    2.0517 H   0  0  0  0  0  0  0  0  0  0  0  0
   -0.0137    3.0826    2.0755 C   0  0  0  0  0  0  0  0  0  0  0  0
   -0.9991    3.3070    2.4905 H   0  0  0  0  0  0  0  0  0  0  0  0
    0.7468    3.2694    2.8349 H   0  0  0  0  0  0  0  0  0  0  0  0
    0.1592    3.7397    1.2213 H   0  0  0  0  0  0  0  0  0  0  0  0
  5  6  2  0  0  0  0
  5  7  1  0  0  0  0
  2  3  1  0  0  0  0
  2  4  1  0  0  0  0
  2  5  1  0  0  0  0
  1  2  1  0  0  0  0
 22 23  2  0  0  0  0
 22 24  1  0  0  0  0
 18 19  1  0  0  0  0
 18 20  1  0  0  0  0
 18 21  1  0  0  0  0
 17 18  1  0  0  0  0
 14 15  1  0  0  0  0
 14 16  1  0  0  0  0
 14 17  1  0  0  0  0
 11 12  1  0  0  0  0
 11 13  1  0  0  0  0
 11 14  1  0  0  0  0
  9 10  1  0  0  0  0
  9 11  1  0  0  0  0
  9 22  1  0  0  0  0
  7  8  1  0  0  0  0
  7  9  1  0  0  0  0
 26 27  1  0  0  0  0
 26 28  1  0  0  0  0
 26 29  1  0  0  0  0
 24 25  1  0  0  0  0
 24 26  1  0  0  0  0
M  END
$$$$
default_name
  -OEChem-02102213163D

 29 28  0     1  0  0  0  0  0999 V2000
   -3.5781   -3.7296    1.2702 H   0  0  0  0  0  0  0  0  0  0  0  0
   -3.5311   -2.7616    0.7732 C   0  0  0  0  0  0  0  0  0  0  0  0
   -4.2371   -2.0766    1.2382 H   0  0  0  0  0  0  0  0  0  0  0  0
   -3.7681   -2.8816   -0.2818 H   0  0  0  0  0  0  0  0  0  0  0  0
   -2.1321   -2.2086    0.9112 C   0  0  0  0  0  0  0  0  0  0  0  0
   -1.2751   -2.8426    1.5112 O   0  0  0  0  0  0  0  0  0  0  0  0
   -1.9041   -1.0186    0.3602 N   0  0  0  0  0  0  0  0  0  0  0  0
   -2.6671   -0.5416   -0.0988 H   0  0  0  0  0  0  0  0  0  0  0  0
   -0.6131   -0.3236    0.3832 C   0  0  1  0  0  0  0  0  0  0  0  0
    0.0142   -0.7800    1.1506 H   0  0  0  0  0  0  0  0  0  0  0  0
    0.0816   -0.5059   -0.9788 C   0  0  0  0  0  0  0  0  0  0  0  0
    1.1627   -0.5033   -0.8247 H   0  0  0  0  0  0  0  0  0  0  0  0
   -0.2004   -1.4719   -1.4001 H   0  0  0  0  0  0  0  0  0  0  0  0
   -0.2629    0.5905   -1.9935 C   0  0  0  0  0  0  0  0  0  0  0  0
   -0.9666    0.1928   -2.7242 H   0  0  0  0  0  0  0  0  0  0  0  0
   -0.7361    1.4196   -1.4662 H   0  0  0  0  0  0  0  0  0  0  0  0
    1.1759    1.2290   -2.8888 S   0  0  0  0  0  0  0  0  0  0  0  0
    2.0198    2.0962   -1.5406 C   0  0  0  0  0  0  0  0  0  0  0  0
    2.2734    1.3889   -0.7504 H   0  0  0  0  0  0  0  0  0  0  0  0
    2.9340    2.5527   -1.9208 H   0  0  0  0  0  0  0  0  0  0  0  0
    1.3698    2.8747   -1.1402 H   0  0  0  0  0  0  0  0  0  0  0  0
   -0.8064    1.1568    0.7414 C   0  0  0  0  0  0  0  0  0  0  0  0
   -1.6978    1.8100    0.2029 O   0  0  0  0  0  0  0  0  0  0  0  0
    0.0314    1.6872    1.6415 N   0  0  0  0  0  0  0  0  0  0  0  0
    0.7279    1.0858    2.0517 H   0  0  0  0  0  0  0  0  0  0  0  0
   -0.0137    3.0826    2.0755 C   0  0  0  0  0  0  0  0  0  0  0  0
   -0.9991    3.3070    2.4905 H   0  0  0  0  0  0  0  0  0  0  0  0
    0.7468    3.2694    2.8349 H   0  0  0  0  0  0  0  0  0  0  0  0
    0.1592    3.7397    1.2213 H   0  0  0  0  0  0  0  0  0  0  0  0
  5  6  2  0  0  0  0
  5  7  1  0  0  0  0
  2  3  1  0  0  0  0
  2  4  1  0  0  0  0
  2  5  1  0  0  0  0
  1  2  1  0  0  0  0
 22 23  2  0  0  0  0
 22 24  1  0  0  0  0
 18 19  1  0  0  0  0
 18 20  1  0  0  0  0
 18 21  1  0  0  0  0
 17 18  1  0  0  0  0
 14 15  1  0  0  0  0
 14 16  1  0  0  0  0
 14 17  1  0  0  0  0
 11 12  1  0  0  0  0
 11 13  1  0  0  0  0
 11 14  1  0  0  0  0
  9 10  1  0  0  0  0
  9 11  1  0  0  0  0
  9 22  1  0  0  0  0
  7  8  1  0  0  0  0
  7  9  1  0  0  0  0
 26 27  1  0  0  0  0
 26 28  1  0  0  0  0
 26 29  1  0  0  0  0
 24 25  1  0  0  0  0
 24 26  1  0  0  0  0
M  END
$$$$
default_name
  -OEChem-02102213163D

 29 28  0     1  0  0  0  0  0999 V2000
   -3.5781   -3.7296    1.2702 H   0  0  0  0  0  0  0  0  0  0  0  0
   -3.5311   -2.7616    0.7732 C   0  0  0  0  0  0  0  0  0  0  0  0
   -4.2371   -2.0766    1.2382 H   0  0  0  0  0  0  0  0  0  0  0  0
   -3.7681   -2.8816   -0.2818 H   0  0  0  0  0  0  0  0  0  0  0  0
   -2.1321   -2.2086    0.9112 C   0  0  0  0  0  0  0  0  0  0  0  0
   -1.2751   -2.8426    1.5112 O   0  0  0  0  0  0  0  0  0  0  0  0
   -1.9041   -1.0186    0.3602 N   0  0  0  0  0  0  0  0  0  0  0  0
   -2.6671   -0.5416   -0.0988 H   0  0  0  0  0  0  0  0  0  0  0  0
   -0.6131   -0.3236    0.3832 C   0  0  1  0  0  0  0  0  0  0  0  0
    0.0142   -0.7800    1.1506 H   0  0  0  0  0  0  0  0  0  0  0  0
    0.0816   -0.5059   -0.9788 C   0  0  0  0  0  0  0  0  0  0  0  0
    1.1627   -0.5033   -0.8247 H   0  0  0  0  0  0  0  0  0  0  0  0
   -0.2004   -1.4719   -1.4001 H   0  0  0  0  0  0  0  0  0  0  0  0
   -0.2629    0.5905   -1.9935 C   0  0  0  0  0  0  0  0  0  0  0  0
   -1.1487    0.2931   -2.5540 H   0  0  0  0  0  0  0  0  0  0  0  0
   -0.4830    1.5116   -1.4527 H   0  0  0  0  0  0  0  0  0  0  0  0
    1.0650    0.9264   -3.1781 S   0  0  0  0  0  0  0  0  0  0  0  0
    2.2818    1.6866   -2.0720 C   0  0  0  0  0  0  0  0  0  0  0  0
    2.5602    0.9795   -1.2901 H   0  0  0  0  0  0  0  0  0  0  0  0
    3.1698    1.9580   -2.6435 H   0  0  0  0  0  0  0  0  0  0  0  0
    1.8580    2.5839   -1.6202 H   0  0  0  0  0  0  0  0  0  0  0  0
   -0.8064    1.1568    0.7414 C   0  0  0  0  0  0  0  0  0  0  0  0
   -1.6978    1.8100    0.2029 O   0  0  0  0  0  0  0  0  0  0  0  0
    0.0314    1.6872    1.6415 N   0  0  0  0  0  0  0  0  0  0  0  0
    0.7279    1.0858    2.0517 H   0  0  0  0  0  0  0  0  0  0  0  0
   -0.0137    3.0826    2.0755 C   0  0  0  0  0  0  0  0  0  0  0  0
   -0.9991    3.3070    2.4905 H   0  0  0  0  0  0  0  0  0  0  0  0
    0.7468    3.2694    2.8349 H   0  0  0  0  0  0  0  0  0  0  0  0
    0.1592    3.7397    1.2213 H   0  0  0  0  0  0  0  0  0  0  0  0
  5  6  2  0  0  0  0
  5  7  1  0  0  0  0
  2  3  1  0  0  0  0
  2  4  1  0  0  0  0
  2  5  1  0  0  0  0
  1  2  1  0  0  0  0
 22 23  2  0  0  0  0
 22 24  1  0  0  0  0
 18 19  1  0  0  0  0
 18 20  1  0  0  0  0
 18 21  1  0  0  0  0
 17 18  1  0  0  0  0
 14 15  1  0  0  0  0
 14 16  1  0  0  0  0
 14 17  1  0  0  0  0
 11 12  1  0  0  0  0
 11 13  1  0  0  0  0
 11 14  1  0  0  0  0
  9 10  1  0  0  0  0
  9 11  1  0  0  0  0
  9 22  1  0  0  0  0
  7  8  1  0  0  0  0
  7  9  1  0  0  0  0
 26 27  1  0  0  0  0
 26 28  1  0  0  0  0
 26 29  1  0  0  0  0
 24 25  1  0  0  0  0
 24 26  1  0  0  0  0
M  END
$$$$
default_name
  -OEChem-02102213163D

 29 28  0     1  0  0  0  0  0999 V2000
   -3.5781   -3.7296    1.2702 H   0  0  0  0  0  0  0  0  0  0  0  0
   -3.5311   -2.7616    0.7732 C   0  0  0  0  0  0  0  0  0  0  0  0
   -4.2371   -2.0766    1.2382 H   0  0  0  0  0  0  0  0  0  0  0  0
   -3.7681   -2.8816   -0.2818 H   0  0  0  0  0  0  0  0  0  0  0  0
   -2.1321   -2.2086    0.9112 C   0  0  0  0  0  0  0  0  0  0  0  0
   -1.2751   -2.8426    1.5112 O   0  0  0  0  0  0  0  0  0  0  0  0
   -1.9041   -1.0186    0.3602 N   0  0  0  0  0  0  0  0  0  0  0  0
   -2.6671   -0.5416   -0.0988 H   0  0  0  0  0  0  0  0  0  0  0  0
   -0.6131   -0.3236    0.3832 C   0  0  1  0  0  0  0  0  0  0  0  0
    0.0142   -0.7800    1.1506 H   0  0  0  0  0  0  0  0  0  0  0  0
    0.0816   -0.5059   -0.9788 C   0  0  0  0  0  0  0  0  0  0  0  0
    1.1627   -0.5033   -0.8247 H   0  0  0  0  0  0  0  0  0  0  0  0
   -0.2004   -1.4719   -1.4001 H   0  0  0  0  0  0  0  0  0  0  0  0
   -0.2629    0.5905   -1.9935 C   0  0  0  0  0  0  0  0  0  0  0  0
   -1.2759    0.4311   -2.3617 H   0  0  0  0  0  0  0  0  0  0  0  0
   -0.2203    1.5579   -1.4919 H   0  0  0  0  0  0  0  0  0  0  0  0
    0.8525    0.6362   -3.4195 S   0  0  0  0  0  0  0  0  0  0  0  0
    2.3663    1.2152   -2.6101 C   0  0  0  0  0  0  0  0  0  0  0  0
    2.6671    0.5035   -1.8407 H   0  0  0  0  0  0  0  0  0  0  0  0
    3.1620    1.3010   -3.3506 H   0  0  0  0  0  0  0  0  0  0  0  0
    2.1910    2.1915   -2.1572 H   0  0  0  0  0  0  0  0  0  0  0  0
   -0.8064    1.1568    0.7414 C   0  0  0  0  0  0  0  0  0  0  0  0
   -1.6978    1.8100    0.2029 O   0  0  0  0  0  0  0  0  0  0  0  0
    0.0314    1.6872    1.6415 N   0  0  0  0  0  0  0  0  0  0  0  0
    0.7279    1.0858    2.0517 H   0  0  0  0  0  0  0  0  0  0  0  0
   -0.0137    3.0826    2.0755 C   0  0  0  0  0  0  0  0  0  0  0  0
   -0.9991    3.3070    2.4905 H   0  0  0  0  0  0  0  0  0  0  0  0
    0.7468    3.2694    2.8349 H   0  0  0  0  0  0  0  0  0  0  0  0
    0.1592    3.7397    1.2213 H   0  0  0  0  0  0  0  0  0  0  0  0
  5  6  2  0  0  0  0
  5  7  1  0  0  0  0
  2  3  1  0  0  0  0
  2  4  1  0  0  0  0
  2  5  1  0  0  0  0
  1  2  1  0  0  0  0
 22 23  2  0  0  0  0
 22 24  1  0  0  0  0
 18 19  1  0  0  0  0
 18 20  1  0  0  0  0
 18 21  1  0  0  0  0
 17 18  1  0  0  0  0
 14 15  1  0  0  0  0
 14 16  1  0  0  0  0
 14 17  1  0  0  0  0
 11 12  1  0  0  0  0
 11 13  1  0  0  0  0
 11 14  1  0  0  0  0
  9 10  1  0  0  0  0
  9 11  1  0  0  0  0
  9 22  1  0  0  0  0
  7  8  1  0  0  0  0
  7  9  1  0  0  0  0
 26 27  1  0  0  0  0
 26 28  1  0  0  0  0
 26 29  1  0  0  0  0
 24 25  1  0  0  0  0
 24 26  1  0  0  0  0
M  END
$$$$
default_name
  -OEChem-02102213163D

 29 28  0     1  0  0  0  0  0999 V2000
   -3.5781   -3.7296    1.2702 H   0  0  0  0  0  0  0  0  0  0  0  0
   -3.5311   -2.7616    0.7732 C   0  0  0  0  0  0  0  0  0  0  0  0
   -4.2371   -2.0766    1.2382 H   0  0  0  0  0  0  0  0  0  0  0  0
   -3.7681   -2.8816   -0.2818 H   0  0  0  0  0  0  0  0  0  0  0  0
   -2.1321   -2.2086    0.9112 C   0  0  0  0  0  0  0  0  0  0  0  0
   -1.2751   -2.8426    1.5112 O   0  0  0  0  0  0  0  0  0  0  0  0
   -1.9041   -1.0186    0.3602 N   0  0  0  0  0  0  0  0  0  0  0  0
   -2.6671   -0.5416   -0.0988 H   0  0  0  0  0  0  0  0  0  0  0  0
   -0.6131   -0.3236    0.3832 C   0  0  1  0  0  0  0  0  0  0  0  0
    0.0142   -0.7800    1.1506 H   0  0  0  0  0  0  0  0  0  0  0  0
    0.0816   -0.5059   -0.9788 C   0  0  0  0  0  0  0  0  0  0  0  0
    1.1272   -0.7703   -0.8071 H   0  0  0  0  0  0  0  0  0  0  0  0
   -0.3935   -1.3267   -1.5181 H   0  0  0  0  0  0  0  0  0  0  0  0
    0.0403    0.7480   -1.8600 C   0  0  0  0  0  0  0  0  0  0  0  0
   -0.9982    1.0220   -2.0432 H   0  0  0  0  0  0  0  0  0  0  0  0
    0.5302    1.5652   -1.3294 H   0  0  0  0  0  0  0  0  0  0  0  0
    0.8567    0.5362   -3.4625 S   0  0  0  0  0  0  0  0  0  0  0  0
    2.5800    0.4108   -2.9181 C   0  0  0  0  0  0  0  0  0  0  0  0
    2.6936   -0.4447   -2.2516 H   0  0  0  0  0  0  0  0  0  0  0  0
    3.2247    0.2770   -3.7871 H   0  0  0  0  0  0  0  0  0  0  0  0
    2.8677    1.3232   -2.3950 H   0  0  0  0  0  0  0  0  0  0  0  0
   -0.8064    1.1568    0.7414 C   0  0  0  0  0  0  0  0  0  0  0  0
   -1.6978    1.8100    0.2029 O   0  0  0  0  0  0  0  0  0  0  0  0
    0.0314    1.6872    1.6415 N   0  0  0  0  0  0  0  0  0  0  0  0
    0.7279    1.0858    2.0517 H   0  0  0  0  0  0  0  0  0  0  0  0
   -0.0137    3.0826    2.0755 C   0  0  0  0  0  0  0  0  0  0  0  0
   -0.9991    3.3070    2.4905 H   0  0  0  0  0  0  0  0  0  0  0  0
    0.7468    3.2694    2.8349 H   0  0  0  0  0  0  0  0  0  0  0  0
    0.1592    3.7397    1.2213 H   0  0  0  0  0  0  0  0  0  0  0  0
  5  6  2  0  0  0  0
  5  7  1  0  0  0  0
  2  3  1  0  0  0  0
  2  4  1  0  0  0  0
  2  5  1  0  0  0  0
  1  2  1  0  0  0  0
 22 23  2  0  0  0  0
 22 24  1  0  0  0  0
 18 19  1  0  0  0  0
 18 20  1  0  0  0  0
 18 21  1  0  0  0  0
 17 18  1  0  0  0  0
 14 15  1  0  0  0  0
 14 16  1  0  0  0  0
 14 17  1  0  0  0  0
 11 12  1  0  0  0  0
 11 13  1  0  0  0  0
 11 14  1  0  0  0  0
  9 10  1  0  0  0  0
  9 11  1  0  0  0  0
  9 22  1  0  0  0  0
  7  8  1  0  0  0  0
  7  9  1  0  0  0  0
 26 27  1  0  0  0  0
 26 28  1  0  0  0  0
 26 29  1  0  0  0  0
 24 25  1  0  0  0  0
 24 26  1  0  0  0  0
M  END
$$$$
default_name
  -OEChem-02102213163D

 29 28  0     1  0  0  0  0  0999 V2000
   -3.5781   -3.7296    1.2702 H   0  0  0  0  0  0  0  0  0  0  0  0
   -3.5311   -2.7616    0.7732 C   0  0  0  0  0  0  0  0  0  0  0  0
   -4.2371   -2.0766    1.2382 H   0  0  0  0  0  0  0  0  0  0  0  0
   -3.7681   -2.8816   -0.2818 H   0  0  0  0  0  0  0  0  0  0  0  0
   -2.1321   -2.2086    0.9112 C   0  0  0  0  0  0  0  0  0  0  0  0
   -1.2751   -2.8426    1.5112 O   0  0  0  0  0  0  0  0  0  0  0  0
   -1.9041   -1.0186    0.3602 N   0  0  0  0  0  0  0  0  0  0  0  0
   -2.6671   -0.5416   -0.0988 H   0  0  0  0  0  0  0  0  0  0  0  0
   -0.6131   -0.3236    0.3832 C   0  0  1  0  0  0  0  0  0  0  0  0
    0.0142   -0.7800    1.1506 H   0  0  0  0  0  0  0  0  0  0  0  0
    0.0816   -0.5059   -0.9788 C   0  0  0  0  0  0  0  0  0  0  0  0
    1.1272   -0.7703   -0.8071 H   0  0  0  0  0  0  0  0  0  0  0  0
   -0.3935   -1.3267   -1.5181 H   0  0  0  0  0  0  0  0  0  0  0  0
    0.0403    0.7480   -1.8600 C   0  0  0  0  0  0  0  0  0  0  0  0
   -0.9612    1.1759   -1.8260 H   0  0  0  0  0  0  0  0  0  0  0  0
    0.7471    1.4780   -1.4637 H   0  0  0  0  0  0  0  0  0  0  0  0
    0.4575    0.4310   -3.5935 S   0  0  0  0  0  0  0  0  0  0  0  0
    2.2190    0.0445   -3.4225 C   0  0  0  0  0  0  0  0  0  0  0  0
    2.3437   -0.8244   -2.7755 H   0  0  0  0  0  0  0  0  0  0  0  0
    2.6376   -0.1763   -4.4047 H   0  0  0  0  0  0  0  0  0  0  0  0
    2.7431    0.8988   -2.9931 H   0  0  0  0  0  0  0  0  0  0  0  0
   -0.8064    1.1568    0.7414 C   0  0  0  0  0  0  0  0  0  0  0  0
   -1.6978    1.8100    0.2029 O   0  0  0  0  0  0  0  0  0  0  0  0
    0.0314    1.6872    1.6415 N   0  0  0  0  0  0  0  0  0  0  0  0
    0.7279    1.0858    2.0517 H   0  0  0  0  0  0  0  0  0  0  0  0
   -0.0137    3.0826    2.0755 C   0  0  0  0  0  0  0  0  0  0  0  0
   -0.9991    3.3070    2.4905 H   0  0  0  0  0  0  0  0  0  0  0  0
    0.7468    3.2694    2.8349 H   0  0  0  0  0  0  0  0  0  0  0  0
    0.1592    3.7397    1.2213 H   0  0  0  0  0  0  0  0  0  0  0  0
  5  6  2  0  0  0  0
  5  7  1  0  0  0  0
  2  3  1  0  0  0  0
  2  4  1  0  0  0  0
  2  5  1  0  0  0  0
  1  2  1  0  0  0  0
 22 23  2  0  0  0  0
 22 24  1  0  0  0  0
 18 19  1  0  0  0  0
 18 20  1  0  0  0  0
 18 21  1  0  0  0  0
 17 18  1  0  0  0  0
 14 15  1  0  0  0  0
 14 16  1  0  0  0  0
 14 17  1  0  0  0  0
 11 12  1  0  0  0  0
 11 13  1  0  0  0  0
 11 14  1  0  0  0  0
  9 10  1  0  0  0  0
  9 11  1  0  0  0  0
  9 22  1  0  0  0  0
  7  8  1  0  0  0  0
  7  9  1  0  0  0  0
 26 27  1  0  0  0  0
 26 28  1  0  0  0  0
 26 29  1  0  0  0  0
 24 25  1  0  0  0  0
 24 26  1  0  0  0  0
M  END
$$$$
default_name
  -OEChem-02102213163D

 29 28  0     1  0  0  0  0  0999 V2000
   -3.5781   -3.7296    1.2702 H   0  0  0  0  0  0  0  0  0  0  0  0
   -3.5311   -2.7616    0.7732 C   0  0  0  0  0  0  0  0  0  0  0  0
   -4.2371   -2.0766    1.2382 H   0  0  0  0  0  0  0  0  0  0  0  0
   -3.7681   -2.8816   -0.2818 H   0  0  0  0  0  0  0  0  0  0  0  0
   -2.1321   -2.2086    0.9112 C   0  0  0  0  0  0  0  0  0  0  0  0
   -1.2751   -2.8426    1.5112 O   0  0  0  0  0  0  0  0  0  0  0  0
   -1.9041   -1.0186    0.3602 N   0  0  0  0  0  0  0  0  0  0  0  0
   -2.6671   -0.5416   -0.0988 H   0  0  0  0  0  0  0  0  0  0  0  0
   -0.6131   -0.3236    0.3832 C   0  0  1  0  0  0  0  0  0  0  0  0
    0.0142   -0.7800    1.1506 H   0  0  0  0  0  0  0  0  0  0  0  0
    0.0816   -0.5059   -0.9788 C   0  0  0  0  0  0  0  0  0  0  0  0
    1.1272   -0.7703   -0.8071 H   0  0  0  0  0  0  0  0  0  0  0  0
   -0.3935   -1.3267   -1.5181 H   0  0  0  0  0  0  0  0  0  0  0  0
    0.0403    0.7480   -1.8600 C   0  0  0  0  0  0  0  0  0  0  0  0
   -0.8565    1.3204   -1.6252 H   0  0  0  0  0  0  0  0  0  0  0  0
    0.9151    1.3605   -1.6388 H   0  0  0  0  0  0  0  0  0  0  0  0
    0.0285    0.3879   -3.6347 S   0  0  0  0  0  0  0  0  0  0  0  0
    1.7091   -0.2592   -3.8307 C   0  0  0  0  0  0  0  0  0  0  0  0
    1.8382   -1.1427   -3.2048 H   0  0  0  0  0  0  0  0  0  0  0  0
    1.8724   -0.5312   -4.8739 H   0  0  0  0  0  0  0  0  0  0  0  0
    2.4329    0.5033   -3.5414 H   0  0  0  0  0  0  0  0  0  0  0  0
   -0.8064    1.1568    0.7414 C   0  0  0  0  0  0  0  0  0  0  0  0
   -1.6978    1.8100    0.2029 O   0  0  0  0  0  0  0  0  0  0  0  0
    0.0314    1.6872    1.6415 N   0  0  0  0  0  0  0  0  0  0  0  0
    0.7279    1.0858    2.0517 H   0  0  0  0  0  0  0  0  0  0  0  0
   -0.0137    3.0826    2.0755 C   0  0  0  0  0  0  0  0  0  0  0  0
   -0.9991    3.3070    2.4905 H   0  0  0  0  0  0  0  0  0  0  0  0
    0.7468    3.2694    2.8349 H   0  0  0  0  0  0  0  0  0  0  0  0
    0.1592    3.7397    1.2213 H   0  0  0  0  0  0  0  0  0  0  0  0
  5  6  2  0  0  0  0
  5  7  1  0  0  0  0
  2  3  1  0  0  0  0
  2  4  1  0  0  0  0
  2  5  1  0  0  0  0
  1  2  1  0  0  0  0
 22 23  2  0  0  0  0
 22 24  1  0  0  0  0
 18 19  1  0  0  0  0
 18 20  1  0  0  0  0
 18 21  1  0  0  0  0
 17 18  1  0  0  0  0
 14 15  1  0  0  0  0
 14 16  1  0  0  0  0
 14 17  1  0  0  0  0
 11 12  1  0  0  0  0
 11 13  1  0  0  0  0
 11 14  1  0  0  0  0
  9 10  1  0  0  0  0
  9 11  1  0  0  0  0
  9 22  1  0  0  0  0
  7  8  1  0  0  0  0
  7  9  1  0  0  0  0
 26 27  1  0  0  0  0
 26 28  1  0  0  0  0
 26 29  1  0  0  0  0
 24 25  1  0  0  0  0
 24 26  1  0  0  0  0
M  END
$$$$
default_name
  -OEChem-02102213163D

 29 28  0     1  0  0  0  0  0999 V2000
   -3.5781   -3.7296    1.2702 H   0  0  0  0  0  0  0  0  0  0  0  0
   -3.5311   -2.7616    0.7732 C   0  0  0  0  0  0  0  0  0  0  0  0
   -4.2371   -2.0766    1.2382 H   0  0  0  0  0  0  0  0  0  0  0  0
   -3.7681   -2.8816   -0.2818 H   0  0  0  0  0  0  0  0  0  0  0  0
   -2.1321   -2.2086    0.9112 C   0  0  0  0  0  0  0  0  0  0  0  0
   -1.2751   -2.8426    1.5112 O   0  0  0  0  0  0  0  0  0  0  0  0
   -1.9041   -1.0186    0.3602 N   0  0  0  0  0  0  0  0  0  0  0  0
   -2.6671   -0.5416   -0.0988 H   0  0  0  0  0  0  0  0  0  0  0  0
   -0.6131   -0.3236    0.3832 C   0  0  1  0  0  0  0  0  0  0  0  0
    0.0142   -0.7800    1.1506 H   0  0  0  0  0  0  0  0  0  0  0  0
    0.0816   -0.5059   -0.9788 C   0  0  0  0  0  0  0  0  0  0  0  0
    1.1272   -0.7703   -0.8071 H   0  0  0  0  0  0  0  0  0  0  0  0
   -0.3935   -1.3267   -1.5181 H   0  0  0  0  0  0  0  0  0  0  0  0
    0.0403    0.7480   -1.8600 C   0  0  0  0  0  0  0  0  0  0  0  0
   -0.6915    1.4459   -1.4543 H   0  0  0  0  0  0  0  0  0  0  0  0
    1.0229    1.2208   -1.8427 H   0  0  0  0  0  0  0  0  0  0  0  0
   -0.4011    0.4098   -3.5835 S   0  0  0  0  0  0  0  0  0  0  0  0
    1.0850   -0.4795   -4.1150 C   0  0  0  0  0  0  0  0  0  0  0  0
    1.2118   -1.3780   -3.5103 H   0  0  0  0  0  0  0  0  0  0  0  0
    0.9811   -0.7634   -5.1625 H   0  0  0  0  0  0  0  0  0  0  0  0
    1.9584    0.1635   -4.0026 H   0  0  0  0  0  0  0  0  0  0  0  0
   -0.8064    1.1568    0.7414 C   0  0  0  0  0  0  0  0  0  0  0  0
   -1.6978    1.8100    0.2029 O   0  0  0  0  0  0  0  0  0  0  0  0
    0.0314    1.6872    1.6415 N   0  0  0  0  0  0  0  0  0  0  0  0
    0.7279    1.0858    2.0517 H   0  0  0  0  0  0  0  0  0  0  0  0
   -0.0137    3.0826    2.0755 C   0  0  0  0  0  0  0  0  0  0  0  0
   -0.9991    3.3070    2.4905 H   0  0  0  0  0  0  0  0  0  0  0  0
    0.7468    3.2694    2.8349 H   0  0  0  0  0  0  0  0  0  0  0  0
    0.1592    3.7397    1.2213 H   0  0  0  0  0  0  0  0  0  0  0  0
  5  6  2  0  0  0  0
  5  7  1  0  0  0  0
  2  3  1  0  0  0  0
  2  4  1  0  0  0  0
  2  5  1  0  0  0  0
  1  2  1  0  0  0  0
 22 23  2  0  0  0  0
 22 24  1  0  0  0  0
 18 19  1  0  0  0  0
 18 20  1  0  0  0  0
 18 21  1  0  0  0  0
 17 18  1  0  0  0  0
 14 15  1  0  0  0  0
 14 16  1  0  0  0  0
 14 17  1  0  0  0  0
 11 12  1  0  0  0  0
 11 13  1  0  0  0  0
 11 14  1  0  0  0  0
  9 10  1  0  0  0  0
  9 11  1  0  0  0  0
  9 22  1  0  0  0  0
  7  8  1  0  0  0  0
  7  9  1  0  0  0  0
 26 27  1  0  0  0  0
 26 28  1  0  0  0  0
 26 29  1  0  0  0  0
 24 25  1  0  0  0  0
 24 26  1  0  0  0  0
M  END
$$$$
default_name
  -OEChem-02102213163D

 29 28  0     1  0  0  0  0  0999 V2000
   -3.5781   -3.7296    1.2702 H   0  0  0  0  0  0  0  0  0  0  0  0
   -3.5311   -2.7616    0.7732 C   0  0  0  0  0  0  0  0  0  0  0  0
   -4.2371   -2.0766    1.2382 H   0  0  0  0  0  0  0  0  0  0  0  0
   -3.7681   -2.8816   -0.2818 H   0  0  0  0  0  0  0  0  0  0  0  0
   -2.1321   -2.2086    0.9112 C   0  0  0  0  0  0  0  0  0  0  0  0
   -1.2751   -2.8426    1.5112 O   0  0  0  0  0  0  0  0  0  0  0  0
   -1.9041   -1.0186    0.3602 N   0  0  0  0  0  0  0  0  0  0  0  0
   -2.6671   -0.5416   -0.0988 H   0  0  0  0  0  0  0  0  0  0  0  0
   -0.6131   -0.3236    0.3832 C   0  0  1  0  0  0  0  0  0  0  0  0
    0.0142   -0.7800    1.1506 H   0  0  0  0  0  0  0  0  0  0  0  0
    0.0816   -0.5059   -0.9788 C   0  0  0  0  0  0  0  0  0  0  0  0
    1.1272   -0.7703   -0.8071 H   0  0  0  0  0  0  0  0  0  0  0  0
   -0.3935   -1.3267   -1.5181 H   0  0  0  0  0  0  0  0  0  0  0  0
    0.0403    0.7480   -1.8600 C   0  0  0  0  0  0  0  0  0  0  0  0
   -0.4772    1.5438   -1.3251 H   0  0  0  0  0  0  0  0  0  0  0  0
    1.0631    1.0684   -2.0614 H   0  0  0  0  0  0  0  0  0  0  0  0
   -0.8018    0.4952   -3.4432 S   0  0  0  0  0  0  0  0  0  0  0  0
    0.3892   -0.6015   -4.2559 C   0  0  0  0  0  0  0  0  0  0  0  0
    0.5070   -1.5143   -3.6712 H   0  0  0  0  0  0  0  0  0  0  0  0
    0.0245   -0.8572   -5.2511 H   0  0  0  0  0  0  0  0  0  0  0  0
    1.3519   -0.0973   -4.3453 H   0  0  0  0  0  0  0  0  0  0  0  0
   -0.8064    1.1568    0.7414 C   0  0  0  0  0  0  0  0  0  0  0  0
   -1.6978    1.8100    0.2029 O   0  0  0  0  0  0  0  0  0  0  0  0
    0.0314    1.6872    1.6415 N   0  0  0  0  0  0  0  0  0  0  0  0
    0.7279    1.0858    2.0517 H   0  0  0  0  0  0  0  0  0  0  0  0
   -0.0137    3.0826    2.0755 C   0  0  0  0  0  0  0  0  0  0  0  0
   -0.9991    3.3070    2.4905 H   0  0  0  0  0  0  0  0  0  0  0  0
    0.7468    3.2694    2.8349 H   0  0  0  0  0  0  0  0  0  0  0  0
    0.1592    3.7397    1.2213 H   0  0  0  0  0  0  0  0  0  0  0  0
  5  6  2  0  0  0  0
  5  7  1  0  0  0  0
  2  3  1  0  0  0  0
  2  4  1  0  0  0  0
  2  5  1  0  0  0  0
  1  2  1  0  0  0  0
 22 23  2  0  0  0  0
 22 24  1  0  0  0  0
 18 19  1  0  0  0  0
 18 20  1  0  0  0  0
 18 21  1  0  0  0  0
 17 18  1  0  0  0  0
 14 15  1  0  0  0  0
 14 16  1  0  0  0  0
 14 17  1  0  0  0  0
 11 12  1  0  0  0  0
 11 13  1  0  0  0  0
 11 14  1  0  0  0  0
  9 10  1  0  0  0  0
  9 11  1  0  0  0  0
  9 22  1  0  0  0  0
  7  8  1  0  0  0  0
  7  9  1  0  0  0  0
 26 27  1  0  0  0  0
 26 28  1  0  0  0  0
 26 29  1  0  0  0  0
 24 25  1  0  0  0  0
 24 26  1  0  0  0  0
M  END
$$$$
default_name
  -OEChem-02102213163D

 29 28  0     1  0  0  0  0  0999 V2000
   -3.5781   -3.7296    1.2702 H   0  0  0  0  0  0  0  0  0  0  0  0
   -3.5311   -2.7616    0.7732 C   0  0  0  0  0  0  0  0  0  0  0  0
   -4.2371   -2.0766    1.2382 H   0  0  0  0  0  0  0  0  0  0  0  0
   -3.7681   -2.8816   -0.2818 H   0  0  0  0  0  0  0  0  0  0  0  0
   -2.1321   -2.2086    0.9112 C   0  0  0  0  0  0  0  0  0  0  0  0
   -1.2751   -2.8426    1.5112 O   0  0  0  0  0  0  0  0  0  0  0  0
   -1.9041   -1.0186    0.3602 N   0  0  0  0  0  0  0  0  0  0  0  0
   -2.6671   -0.5416   -0.0988 H   0  0  0  0  0  0  0  0  0  0  0  0
   -0.6131   -0.3236    0.3832 C   0  0  1  0  0  0  0  0  0  0  0  0
    0.0142   -0.7800    1.1506 H   0  0  0  0  0  0  0  0  0  0  0  0
    0.0816   -0.5059   -0.9788 C   0  0  0  0  0  0  0  0  0  0  0  0
    1.1272   -0.7703   -0.8071 H   0  0  0  0  0  0  0  0  0  0  0  0
   -0.3935   -1.3267   -1.5181 H   0  0  0  0  0  0  0  0  0  0  0  0
    0.0403    0.7480   -1.8600 C   0  0  0  0  0  0  0  0  0  0  0  0
   -0.2282    1.6074   -1.2463 H   0  0  0  0  0  0  0  0  0  0  0  0
    1.0330    0.9136   -2.2802 H   0  0  0  0  0  0  0  0  0  0  0  0
   -1.1466    0.6383   -3.2234 S   0  0  0  0  0  0  0  0  0  0  0  0
   -0.3308   -0.6167   -4.2439 C   0  0  0  0  0  0  0  0  0  0  0  0
   -0.2281   -1.5421   -3.6764 H   0  0  0  0  0  0  0  0  0  0  0  0
   -0.9322   -0.8060   -5.1334 H   0  0  0  0  0  0  0  0  0  0  0  0
    0.6547   -0.2613   -4.5461 H   0  0  0  0  0  0  0  0  0  0  0  0
   -0.8064    1.1568    0.7414 C   0  0  0  0  0  0  0  0  0  0  0  0
   -1.6978    1.8100    0.2029 O   0  0  0  0  0  0  0  0  0  0  0  0
    0.0314    1.6872    1.6415 N   0  0  0  0  0  0  0  0  0  0  0  0
    0.7279    1.0858    2.0517 H   0  0  0  0  0  0  0  0  0  0  0  0
   -0.0137    3.0826    2.0755 C   0  0  0  0  0  0  0  0  0  0  0  0
   -0.9991    3.3070    2.4905 H   0  0  0  0  0  0  0  0  0  0  0  0
    0.7468    3.2694    2.8349 H   0  0  0  0  0  0  0  0  0  0  0  0
    0.1592    3.7397    1.2213 H   0  0  0  0  0  0  0  0  0  0  0  0
  5  6  2  0  0  0  0
  5  7  1  0  0  0  0
  2  3  1  0  0  0  0
  2  4  1  0  0  0  0
  2  5  1  0  0  0  0
  1  2  1  0  0  0  0
 22 23  2  0  0  0  0
 22 24  1  0  0  0  0
 18 19  1  0  0  0  0
 18 20  1  0  0  0  0
 18 21  1  0  0  0  0
 17 18  1  0  0  0  0
 14 15  1  0  0  0  0
 14 16  1  0  0  0  0
 14 17  1  0  0  0  0
 11 12  1  0  0  0  0
 11 13  1  0  0  0  0
 11 14  1  0  0  0  0
  9 10  1  0  0  0  0
  9 11  1  0  0  0  0
  9 22  1  0  0  0  0
  7  8  1  0  0  0  0
  7  9  1  0  0  0  0
 26 27  1  0  0  0  0
 26 28  1  0  0  0  0
 26 29  1  0  0  0  0
 24 25  1  0  0  0  0
 24 26  1  0  0  0  0
M  END
$$$$
default_name
  -OEChem-02102213163D

 29 28  0     1  0  0  0  0  0999 V2000
   -3.5781   -3.7296    1.2702 H   0  0  0  0  0  0  0  0  0  0  0  0
   -3.5311   -2.7616    0.7732 C   0  0  0  0  0  0  0  0  0  0  0  0
   -4.2371   -2.0766    1.2382 H   0  0  0  0  0  0  0  0  0  0  0  0
   -3.7681   -2.8816   -0.2818 H   0  0  0  0  0  0  0  0  0  0  0  0
   -2.1321   -2.2086    0.9112 C   0  0  0  0  0  0  0  0  0  0  0  0
   -1.2751   -2.8426    1.5112 O   0  0  0  0  0  0  0  0  0  0  0  0
   -1.9041   -1.0186    0.3602 N   0  0  0  0  0  0  0  0  0  0  0  0
   -2.6671   -0.5416   -0.0988 H   0  0  0  0  0  0  0  0  0  0  0  0
   -0.6131   -0.3236    0.3832 C   0  0  1  0  0  0  0  0  0  0  0  0
    0.0142   -0.7800    1.1506 H   0  0  0  0  0  0  0  0  0  0  0  0
    0.0816   -0.5059   -0.9788 C   0  0  0  0  0  0  0  0  0  0  0  0
    1.1272   -0.7703   -0.8071 H   0  0  0  0  0  0  0  0  0  0  0  0
   -0.3935   -1.3267   -1.5181 H   0  0  0  0  0  0  0  0  0  0  0  0
    0.0403    0.7480   -1.8600 C   0  0  0  0  0  0  0  0  0  0  0  0
    0.0383    1.6323   -1.2234 H   0  0  0  0  0  0  0  0  0  0  0  0
    0.9345    0.7672   -2.4840 H   0  0  0  0  0  0  0  0  0  0  0  0
   -1.4117    0.8293   -2.9392 S   0  0  0  0  0  0  0  0  0  0  0  0
   -1.0260   -0.5243   -4.0797 C   0  0  0  0  0  0  0  0  0  0  0  0
   -0.9434   -1.4597   -3.5256 H   0  0  0  0  0  0  0  0  0  0  0  0
   -1.8237   -0.6135   -4.8177 H   0  0  0  0  0  0  0  0  0  0  0  0
   -0.0856   -0.3175   -4.5913 H   0  0  0  0  0  0  0  0  0  0  0  0
   -0.8064    1.1568    0.7414 C   0  0  0  0  0  0  0  0  0  0  0  0
   -1.6978    1.8100    0.2029 O   0  0  0  0  0  0  0  0  0  0  0  0
    0.0314    1.6872    1.6415 N   0  0  0  0  0  0  0  0  0  0  0  0
    0.7279    1.0858    2.0517 H   0  0  0  0  0  0  0  0  0  0  0  0
   -0.0137    3.0826    2.0755 C   0  0  0  0  0  0  0  0  0  0  0  0
   -0.9991    3.3070    2.4905 H   0  0  0  0  0  0  0  0  0  0  0  0
    0.7468    3.2694    2.8349 H   0  0  0  0  0  0  0  0  0  0  0  0
    0.1592    3.7397    1.2213 H   0  0  0  0  0  0  0  0  0  0  0  0
  5  6  2  0  0  0  0
  5  7  1  0  0  0  0
  2  3  1  0  0  0  0
  2  4  1  0  0  0  0
  2  5  1  0  0  0  0
  1  2  1  0  0  0  0
 22 23  2  0  0  0  0
 22 24  1  0  0  0  0
 18 19  1  0  0  0  0
 18 20  1  0  0  0  0
 18 21  1  0  0  0  0
 17 18  1  0  0  0  0
 14 15  1  0  0  0  0
 14 16  1  0  0  0  0
 14 17  1  0  0  0  0
 11 12  1  0  0  0  0
 11 13  1  0  0  0  0
 11 14  1  0  0  0  0
  9 10  1  0  0  0  0
  9 11  1  0  0  0  0
  9 22  1  0  0  0  0
  7  8  1  0  0  0  0
  7  9  1  0  0  0  0
 26 27  1  0  0  0  0
 26 28  1  0  0  0  0
 26 29  1  0  0  0  0
 24 25  1  0  0  0  0
 24 26  1  0  0  0  0
M  END
$$$$
default_name
  -OEChem-02102213163D

 29 28  0     1  0  0  0  0  0999 V2000
   -3.5781   -3.7296    1.2702 H   0  0  0  0  0  0  0  0  0  0  0  0
   -3.5311   -2.7616    0.7732 C   0  0  0  0  0  0  0  0  0  0  0  0
   -4.2371   -2.0766    1.2382 H   0  0  0  0  0  0  0  0  0  0  0  0
   -3.7681   -2.8816   -0.2818 H   0  0  0  0  0  0  0  0  0  0  0  0
   -2.1321   -2.2086    0.9112 C   0  0  0  0  0  0  0  0  0  0  0  0
   -1.2751   -2.8426    1.5112 O   0  0  0  0  0  0  0  0  0  0  0  0
   -1.9041   -1.0186    0.3602 N   0  0  0  0  0  0  0  0  0  0  0  0
   -2.6671   -0.5416   -0.0988 H   0  0  0  0  0  0  0  0  0  0  0  0
   -0.6131   -0.3236    0.3832 C   0  0  1  0  0  0  0  0  0  0  0  0
    0.0142   -0.7800    1.1506 H   0  0  0  0  0  0  0  0  0  0  0  0
    0.0816   -0.5059   -0.9788 C   0  0  0  0  0  0  0  0  0  0  0  0
    1.1272   -0.7703   -0.8071 H   0  0  0  0  0  0  0  0  0  0  0  0
   -0.3935   -1.3267   -1.5181 H   0  0  0  0  0  0  0  0  0  0  0  0
    0.0403    0.7480   -1.8600 C   0  0  0  0  0  0  0  0  0  0  0  0
    0.3043    1.6168   -1.2578 H   0  0  0  0  0  0  0  0  0  0  0  0
    0.7745    0.6389   -2.6590 H   0  0  0  0  0  0  0  0  0  0  0  0
   -1.5793    1.0552   -2.6098 S   0  0  0  0  0  0  0  0  0  0  0  0
   -1.6491   -0.3304   -3.7747 C   0  0  0  0  0  0  0  0  0  0  0  0
   -1.5901   -1.2727   -3.2291 H   0  0  0  0  0  0  0  0  0  0  0  0
   -2.5894   -0.2927   -4.3253 H   0  0  0  0  0  0  0  0  0  0  0  0
   -0.8187   -0.2620   -4.4779 H   0  0  0  0  0  0  0  0  0  0  0  0
   -0.8064    1.1568    0.7414 C   0  0  0  0  0  0  0  0  0  0  0  0
   -1.6978    1.8100    0.2029 O   0  0  0  0  0  0  0  0  0  0  0  0
    0.0314    1.6872    1.6415 N   0  0  0  0  0  0  0  0  0  0  0  0
    0.7279    1.0858    2.0517 H   0  0  0  0  0  0  0  0  0  0  0  0
   -0.0137    3.0826    2.0755 C   0  0  0  0  0  0  0  0  0  0  0  0
   -0.9991    3.3070    2.4905 H   0  0  0  0  0  0  0  0  0  0  0  0
    0.7468    3.2694    2.8349 H   0  0  0  0  0  0  0  0  0  0  0  0
    0.1592    3.7397    1.2213 H   0  0  0  0  0  0  0  0  0  0  0  0
  5  6  2  0  0  0  0
  5  7  1  0  0  0  0
  2  3  1  0  0  0  0
  2  4  1  0  0  0  0
  2  5  1  0  0  0  0
  1  2  1  0  0  0  0
 22 23  2  0  0  0  0
 22 24  1  0  0  0  0
 18 19  1  0  0  0  0
 18 20  1  0  0  0  0
 18 21  1  0  0  0  0
 17 18  1  0  0  0  0
 14 15  1  0  0  0  0
 14 16  1  0  0  0  0
 14 17  1  0  0  0  0
 11 12  1  0  0  0  0
 11 13  1  0  0  0  0
 11 14  1  0  0  0  0
  9 10  1  0  0  0  0
  9 11  1  0  0  0  0
  9 22  1  0  0  0  0
  7  8  1  0  0  0  0
  7  9  1  0  0  0  0
 26 27  1  0  0  0  0
 26 28  1  0  0  0  0
 26 29  1  0  0  0  0
 24 25  1  0  0  0  0
 24 26  1  0  0  0  0
M  END
$$$$
default_name
  -OEChem-02102213163D

 29 28  0     1  0  0  0  0  0999 V2000
   -3.5781   -3.7296    1.2702 H   0  0  0  0  0  0  0  0  0  0  0  0
   -3.5311   -2.7616    0.7732 C   0  0  0  0  0  0  0  0  0  0  0  0
   -4.2371   -2.0766    1.2382 H   0  0  0  0  0  0  0  0  0  0  0  0
   -3.7681   -2.8816   -0.2818 H   0  0  0  0  0  0  0  0  0  0  0  0
   -2.1321   -2.2086    0.9112 C   0  0  0  0  0  0  0  0  0  0  0  0
   -1.2751   -2.8426    1.5112 O   0  0  0  0  0  0  0  0  0  0  0  0
   -1.9041   -1.0186    0.3602 N   0  0  0  0  0  0  0  0  0  0  0  0
   -2.6671   -0.5416   -0.0988 H   0  0  0  0  0  0  0  0  0  0  0  0
   -0.6131   -0.3236    0.3832 C   0  0  1  0  0  0  0  0  0  0  0  0
    0.0142   -0.7800    1.1506 H   0  0  0  0  0  0  0  0  0  0  0  0
    0.0816   -0.5059   -0.9788 C   0  0  0  0  0  0  0  0  0  0  0  0
    1.1272   -0.7703   -0.8071 H   0  0  0  0  0  0  0  0  0  0  0  0
   -0.3935   -1.3267   -1.5181 H   0  0  0  0  0  0  0  0  0  0  0  0
    0.0403    0.7480   -1.8600 C   0  0  0  0  0  0  0  0  0  0  0  0
    0.5517    1.5621   -1.3473 H   0  0  0  0  0  0  0  0  0  0  0  0
    0.5638    0.5376   -2.7933 H   0  0  0  0  0  0  0  0  0  0  0  0
   -1.6378    1.3007   -2.2578 S   0  0  0  0  0  0  0  0  0  0  0  0
   -2.1575   -0.0484   -3.3495 C   0  0  0  0  0  0  0  0  0  0  0  0
   -2.1242   -0.9938   -2.8072 H   0  0  0  0  0  0  0  0  0  0  0  0
   -3.1771    0.1345   -3.6898 H   0  0  0  0  0  0  0  0  0  0  0  0
   -1.4945   -0.0985   -4.2136 H   0  0  0  0  0  0  0  0  0  0  0  0
   -0.8064    1.1568    0.7414 C   0  0  0  0  0  0  0  0  0  0  0  0
   -1.6978    1.8100    0.2029 O   0  0  0  0  0  0  0  0  0  0  0  0
    0.0314    1.6872    1.6415 N   0  0  0  0  0  0  0  0  0  0  0  0
    0.7279    1.0858    2.0517 H   0  0  0  0  0  0  0  0  0  0  0  0
   -0.0137    3.0826    2.0755 C   0  0  0  0  0  0  0  0  0  0  0  0
   -0.9991    3.3070    2.4905 H   0  0  0  0  0  0  0  0  0  0  0  0
    0.7468    3.2694    2.8349 H   0  0  0  0  0  0  0  0  0  0  0  0
    0.1592    3.7397    1.2213 H   0  0  0  0  0  0  0  0  0  0  0  0
  5  6  2  0  0  0  0
  5  7  1  0  0  0  0
  2  3  1  0  0  0  0
  2  4  1  0  0  0  0
  2  5  1  0  0  0  0
  1  2  1  0  0  0  0
 22 23  2  0  0  0  0
 22 24  1  0  0  0  0
 18 19  1  0  0  0  0
 18 20  1  0  0  0  0
 18 21  1  0  0  0  0
 17 18  1  0  0  0  0
 14 15  1  0  0  0  0
 14 16  1  0  0  0  0
 14 17  1  0  0  0  0
 11 12  1  0  0  0  0
 11 13  1  0  0  0  0
 11 14  1  0  0  0  0
  9 10  1  0  0  0  0
  9 11  1  0  0  0  0
  9 22  1  0  0  0  0
  7  8  1  0  0  0  0
  7  9  1  0  0  0  0
 26 27  1  0  0  0  0
 26 28  1  0  0  0  0
 26 29  1  0  0  0  0
 24 25  1  0  0  0  0
 24 26  1  0  0  0  0
M  END
$$$$
default_name
  -OEChem-02102213163D

 29 28  0     1  0  0  0  0  0999 V2000
   -3.5781   -3.7296    1.2702 H   0  0  0  0  0  0  0  0  0  0  0  0
   -3.5311   -2.7616    0.7732 C   0  0  0  0  0  0  0  0  0  0  0  0
   -4.2371   -2.0766    1.2382 H   0  0  0  0  0  0  0  0  0  0  0  0
   -3.7681   -2.8816   -0.2818 H   0  0  0  0  0  0  0  0  0  0  0  0
   -2.1321   -2.2086    0.9112 C   0  0  0  0  0  0  0  0  0  0  0  0
   -1.2751   -2.8426    1.5112 O   0  0  0  0  0  0  0  0  0  0  0  0
   -1.9041   -1.0186    0.3602 N   0  0  0  0  0  0  0  0  0  0  0  0
   -2.6671   -0.5416   -0.0988 H   0  0  0  0  0  0  0  0  0  0  0  0
   -0.6131   -0.3236    0.3832 C   0  0  1  0  0  0  0  0  0  0  0  0
    0.0142   -0.7800    1.1506 H   0  0  0  0  0  0  0  0  0  0  0  0
    0.0816   -0.5059   -0.9788 C   0  0  0  0  0  0  0  0  0  0  0  0
    1.1272   -0.7703   -0.8071 H   0  0  0  0  0  0  0  0  0  0  0  0
   -0.3935   -1.3267   -1.5181 H   0  0  0  0  0  0  0  0  0  0  0  0
    0.0403    0.7480   -1.8600 C   0  0  0  0  0  0  0  0  0  0  0  0
    0.7636    1.4718   -1.4857 H   0  0  0  0  0  0  0  0  0  0  0  0
    0.3167    0.4702   -2.8777 H   0  0  0  0  0  0  0  0  0  0  0  0
   -1.5833    1.5489   -1.9070 S   0  0  0  0  0  0  0  0  0  0  0  0
   -2.5166    0.3027   -2.8331 C   0  0  0  0  0  0  0  0  0  0  0  0
   -2.5093   -0.6419   -2.2885 H   0  0  0  0  0  0  0  0  0  0  0  0
   -3.5467    0.6390   -2.9546 H   0  0  0  0  0  0  0  0  0  0  0  0
   -2.0670    0.1618   -3.8163 H   0  0  0  0  0  0  0  0  0  0  0  0
   -0.8064    1.1568    0.7414 C   0  0  0  0  0  0  0  0  0  0  0  0
   -1.6978    1.8100    0.2029 O   0  0  0  0  0  0  0  0  0  0  0  0
    0.0314    1.6872    1.6415 N   0  0  0  0  0  0  0  0  0  0  0  0
    0.7279    1.0858    2.0517 H   0  0  0  0  0  0  0  0  0  0  0  0
   -0.0137    3.0826    2.0755 C   0  0  0  0  0  0  0  0  0  0  0  0
   -0.9991    3.3070    2.4905 H   0  0  0  0  0  0  0  0  0  0  0  0
    0.7468    3.2694    2.8349 H   0  0  0  0  0  0  0  0  0  0  0  0
    0.1592    3.7397    1.2213 H   0  0  0  0  0  0  0  0  0  0  0  0
  5  6  2  0  0  0  0
  5  7  1  0  0  0  0
  2  3  1  0  0  0  0
  2  4  1  0  0  0  0
  2  5  1  0  0  0  0
  1  2  1  0  0  0  0
 22 23  2  0  0  0  0
 22 24  1  0  0  0  0
 18 19  1  0  0  0  0
 18 20  1  0  0  0  0
 18 21  1  0  0  0  0
 17 18  1  0  0  0  0
 14 15  1  0  0  0  0
 14 16  1  0  0  0  0
 14 17  1  0  0  0  0
 11 12  1  0  0  0  0
 11 13  1  0  0  0  0
 11 14  1  0  0  0  0
  9 10  1  0  0  0  0
  9 11  1  0  0  0  0
  9 22  1  0  0  0  0
  7  8  1  0  0  0  0
  7  9  1  0  0  0  0
 26 27  1  0  0  0  0
 26 28  1  0  0  0  0
 26 29  1  0  0  0  0
 24 25  1  0  0  0  0
 24 26  1  0  0  0  0
M  END
$$$$
default_name
  -OEChem-02102213163D

 29 28  0     1  0  0  0  0  0999 V2000
   -3.5781   -3.7296    1.2702 H   0  0  0  0  0  0  0  0  0  0  0  0
   -3.5311   -2.7616    0.7732 C   0  0  0  0  0  0  0  0  0  0  0  0
   -4.2371   -2.0766    1.2382 H   0  0  0  0  0  0  0  0  0  0  0  0
   -3.7681   -2.8816   -0.2818 H   0  0  0  0  0  0  0  0  0  0  0  0
   -2.1321   -2.2086    0.9112 C   0  0  0  0  0  0  0  0  0  0  0  0
   -1.2751   -2.8426    1.5112 O   0  0  0  0  0  0  0  0  0  0  0  0
   -1.9041   -1.0186    0.3602 N   0  0  0  0  0  0  0  0  0  0  0  0
   -2.6671   -0.5416   -0.0988 H   0  0  0  0  0  0  0  0  0  0  0  0
   -0.6131   -0.3236    0.3832 C   0  0  1  0  0  0  0  0  0  0  0  0
    0.0142   -0.7800    1.1506 H   0  0  0  0  0  0  0  0  0  0  0  0
    0.0816   -0.5059   -0.9788 C   0  0  0  0  0  0  0  0  0  0  0  0
    1.1272   -0.7703   -0.8071 H   0  0  0  0  0  0  0  0  0  0  0  0
   -0.3935   -1.3267   -1.5181 H   0  0  0  0  0  0  0  0  0  0  0  0
    0.0403    0.7480   -1.8600 C   0  0  0  0  0  0  0  0  0  0  0  0
    0.9255    1.3521   -1.6636 H   0  0  0  0  0  0  0  0  0  0  0  0
    0.0502    0.4412   -2.9065 H   0  0  0  0  0  0  0  0  0  0  0  0
   -1.4194    1.7830   -1.5816 S   0  0  0  0  0  0  0  0  0  0  0  0
   -2.7020    0.6988   -2.2607 C   0  0  0  0  0  0  0  0  0  0  0  0
   -2.7192   -0.2412   -1.7084 H   0  0  0  0  0  0  0  0  0  0  0  0
   -3.6730    1.1864   -2.1697 H   0  0  0  0  0  0  0  0  0  0  0  0
   -2.4971    0.5012   -3.3133 H   0  0  0  0  0  0  0  0  0  0  0  0
   -0.8064    1.1568    0.7414 C   0  0  0  0  0  0  0  0  0  0  0  0
   -1.6978    1.8100    0.2029 O   0  0  0  0  0  0  0  0  0  0  0  0
    0.0314    1.6872    1.6415 N   0  0  0  0  0  0  0  0  0  0  0  0
    0.7279    1.0858    2.0517 H   0  0  0  0  0  0  0  0  0  0  0  0
   -0.0137    3.0826    2.0755 C   0  0  0  0  0  0  0  0  0  0  0  0
   -0.9991    3.3070    2.4905 H   0  0  0  0  0  0  0  0  0  0  0  0
    0.7468    3.2694    2.8349 H   0  0  0  0  0  0  0  0  0  0  0  0
    0.1592    3.7397    1.2213 H   0  0  0  0  0  0  0  0  0  0  0  0
  5  6  2  0  0  0  0
  5  7  1  0  0  0  0
  2  3  1  0  0  0  0
  2  4  1  0  0  0  0
  2  5  1  0  0  0  0
  1  2  1  0  0  0  0
 22 23  2  0  0  0  0
 22 24  1  0  0  0  0
 18 19  1  0  0  0  0
 18 20  1  0  0  0  0
 18 21  1  0  0  0  0
 17 18  1  0  0  0  0
 14 15  1  0  0  0  0
 14 16  1  0  0  0  0
 14 17  1  0  0  0  0
 11 12  1  0  0  0  0
 11 13  1  0  0  0  0
 11 14  1  0  0  0  0
  9 10  1  0  0  0  0
  9 11  1  0  0  0  0
  9 22  1  0  0  0  0
  7  8  1  0  0  0  0
  7  9  1  0  0  0  0
 26 27  1  0  0  0  0
 26 28  1  0  0  0  0
 26 29  1  0  0  0  0
 24 25  1  0  0  0  0
 24 26  1  0  0  0  0
M  END
$$$$
default_name
  -OEChem-02102213163D

 29 28  0     1  0  0  0  0  0999 V2000
   -3.5781   -3.7296    1.2702 H   0  0  0  0  0  0  0  0  0  0  0  0
   -3.5311   -2.7616    0.7732 C   0  0  0  0  0  0  0  0  0  0  0  0
   -4.2371   -2.0766    1.2382 H   0  0  0  0  0  0  0  0  0  0  0  0
   -3.7681   -2.8816   -0.2818 H   0  0  0  0  0  0  0  0  0  0  0  0
   -2.1321   -2.2086    0.9112 C   0  0  0  0  0  0  0  0  0  0  0  0
   -1.2751   -2.8426    1.5112 O   0  0  0  0  0  0  0  0  0  0  0  0
   -1.9041   -1.0186    0.3602 N   0  0  0  0  0  0  0  0  0  0  0  0
   -2.6671   -0.5416   -0.0988 H   0  0  0  0  0  0  0  0  0  0  0  0
   -0.6131   -0.3236    0.3832 C   0  0  1  0  0  0  0  0  0  0  0  0
    0.0142   -0.7800    1.1506 H   0  0  0  0  0  0  0  0  0  0  0  0
    0.0816   -0.5059   -0.9788 C   0  0  0  0  0  0  0  0  0  0  0  0
    1.1272   -0.7703   -0.8071 H   0  0  0  0  0  0  0  0  0  0  0  0
   -0.3935   -1.3267   -1.5181 H   0  0  0  0  0  0  0  0  0  0  0  0
    0.0403    0.7480   -1.8600 C   0  0  0  0  0  0  0  0  0  0  0  0
    1.0265    1.2112   -1.8689 H   0  0  0  0  0  0  0  0  0  0  0  0
   -0.2176    0.4526   -2.8776 H   0  0  0  0  0  0  0  0  0  0  0  0
   -1.1575    1.9871   -1.3035 S   0  0  0  0  0  0  0  0  0  0  0  0
   -2.7010    1.1130   -1.6714 C   0  0  0  0  0  0  0  0  0  0  0  0
   -2.7394    0.1811   -1.1064 H   0  0  0  0  0  0  0  0  0  0  0  0
   -3.5474    1.7394   -1.3886 H   0  0  0  0  0  0  0  0  0  0  0  0
   -2.7557    0.8965   -2.7386 H   0  0  0  0  0  0  0  0  0  0  0  0
   -0.8064    1.1568    0.7414 C   0  0  0  0  0  0  0  0  0  0  0  0
   -1.6978    1.8100    0.2029 O   0  0  0  0  0  0  0  0  0  0  0  0
    0.0314    1.6872    1.6415 N   0  0  0  0  0  0  0  0  0  0  0  0
    0.7279    1.0858    2.0517 H   0  0  0  0  0  0  0  0  0  0  0  0
   -0.0137    3.0826    2.0755 C   0  0  0  0  0  0  0  0  0  0  0  0
   -0.9991    3.3070    2.4905 H   0  0  0  0  0  0  0  0  0  0  0  0
    0.7468    3.2694    2.8349 H   0  0  0  0  0  0  0  0  0  0  0  0
    0.1592    3.7397    1.2213 H   0  0  0  0  0  0  0  0  0  0  0  0
  5  6  2  0  0  0  0
  5  7  1  0  0  0  0
  2  3  1  0  0  0  0
  2  4  1  0  0  0  0
  2  5  1  0  0  0  0
  1  2  1  0  0  0  0
 22 23  2  0  0  0  0
 22 24  1  0  0  0  0
 18 19  1  0  0  0  0
 18 20  1  0  0  0  0
 18 21  1  0  0  0  0
 17 18  1  0  0  0  0
 14 15  1  0  0  0  0
 14 16  1  0  0  0  0
 14 17  1  0  0  0  0
 11 12  1  0  0  0  0
 11 13  1  0  0  0  0
 11 14  1  0  0  0  0
  9 10  1  0  0  0  0
  9 11  1  0  0  0  0
  9 22  1  0  0  0  0
  7  8  1  0  0  0  0
  7  9  1  0  0  0  0
 26 27  1  0  0  0  0
 26 28  1  0  0  0  0
 26 29  1  0  0  0  0
 24 25  1  0  0  0  0
 24 26  1  0  0  0  0
M  END
$$$$
default_name
  -OEChem-02102213163D

 29 28  0     1  0  0  0  0  0999 V2000
   -3.5781   -3.7296    1.2702 H   0  0  0  0  0  0  0  0  0  0  0  0
   -3.5311   -2.7616    0.7732 C   0  0  0  0  0  0  0  0  0  0  0  0
   -4.2371   -2.0766    1.2382 H   0  0  0  0  0  0  0  0  0  0  0  0
   -3.7681   -2.8816   -0.2818 H   0  0  0  0  0  0  0  0  0  0  0  0
   -2.1321   -2.2086    0.9112 C   0  0  0  0  0  0  0  0  0  0  0  0
   -1.2751   -2.8426    1.5112 O   0  0  0  0  0  0  0  0  0  0  0  0
   -1.9041   -1.0186    0.3602 N   0  0  0  0  0  0  0  0  0  0  0  0
   -2.6671   -0.5416   -0.0988 H   0  0  0  0  0  0  0  0  0  0  0  0
   -0.6131   -0.3236    0.3832 C   0  0  1  0  0  0  0  0  0  0  0  0
    0.0142   -0.7800    1.1506 H   0  0  0  0  0  0  0  0  0  0  0  0
    0.0816   -0.5059   -0.9788 C   0  0  0  0  0  0  0  0  0  0  0  0
    1.1272   -0.7703   -0.8071 H   0  0  0  0  0  0  0  0  0  0  0  0
   -0.3935   -1.3267   -1.5181 H   0  0  0  0  0  0  0  0  0  0  0  0
    0.0403    0.7480   -1.8600 C   0  0  0  0  0  0  0  0  0  0  0  0
    1.0595    1.0586   -2.0876 H   0  0  0  0  0  0  0  0  0  0  0  0
   -0.4685    0.5037   -2.7931 H   0  0  0  0  0  0  0  0  0  0  0  0
   -0.8152    2.1471   -1.0917 S   0  0  0  0  0  0  0  0  0  0  0  0
   -2.5136    1.5170   -1.1053 C   0  0  0  0  0  0  0  0  0  0  0  0
   -2.5688    0.5963   -0.5236 H   0  0  0  0  0  0  0  0  0  0  0  0
   -3.1784    2.2604   -0.6646 H   0  0  0  0  0  0  0  0  0  0  0  0
   -2.8250    1.3208   -2.1316 H   0  0  0  0  0  0  0  0  0  0  0  0
   -0.8064    1.1568    0.7414 C   0  0  0  0  0  0  0  0  0  0  0  0
   -1.6978    1.8100    0.2029 O   0  0  0  0  0  0  0  0  0  0  0  0
    0.0314    1.6872    1.6415 N   0  0  0  0  0  0  0  0  0  0  0  0
    0.7279    1.0858    2.0517 H   0  0  0  0  0  0  0  0  0  0  0  0
   -0.0137    3.0826    2.0755 C   0  0  0  0  0  0  0  0  0  0  0  0
   -0.9991    3.3070    2.4905 H   0  0  0  0  0  0  0  0  0  0  0  0
    0.7468    3.2694    2.8349 H   0  0  0  0  0  0  0  0  0  0  0  0
    0.1592    3.7397    1.2213 H   0  0  0  0  0  0  0  0  0  0  0  0
  5  6  2  0  0  0  0
  5  7  1  0  0  0  0
  2  3  1  0  0  0  0
  2  4  1  0  0  0  0
  2  5  1  0  0  0  0
  1  2  1  0  0  0  0
 22 23  2  0  0  0  0
 22 24  1  0  0  0  0
 18 19  1  0  0  0  0
 18 20  1  0  0  0  0
 18 21  1  0  0  0  0
 17 18  1  0  0  0  0
 14 15  1  0  0  0  0
 14 16  1  0  0  0  0
 14 17  1  0  0  0  0
 11 12  1  0  0  0  0
 11 13  1  0  0  0  0
 11 14  1  0  0  0  0
  9 10  1  0  0  0  0
  9 11  1  0  0  0  0
  9 22  1  0  0  0  0
  7  8  1  0  0  0  0
  7  9  1  0  0  0  0
 26 27  1  0  0  0  0
 26 28  1  0  0  0  0
 26 29  1  0  0  0  0
 24 25  1  0  0  0  0
 24 26  1  0  0  0  0
M  END
$$$$
default_name
  -OEChem-02102213163D

 29 28  0     1  0  0  0  0  0999 V2000
   -3.5781   -3.7296    1.2702 H   0  0  0  0  0  0  0  0  0  0  0  0
   -3.5311   -2.7616    0.7732 C   0  0  0  0  0  0  0  0  0  0  0  0
   -4.2371   -2.0766    1.2382 H   0  0  0  0  0  0  0  0  0  0  0  0
   -3.7681   -2.8816   -0.2818 H   0  0  0  0  0  0  0  0  0  0  0  0
   -2.1321   -2.2086    0.9112 C   0  0  0  0  0  0  0  0  0  0  0  0
   -1.2751   -2.8426    1.5112 O   0  0  0  0  0  0  0  0  0  0  0  0
   -1.9041   -1.0186    0.3602 N   0  0  0  0  0  0  0  0  0  0  0  0
   -2.6671   -0.5416   -0.0988 H   0  0  0  0  0  0  0  0  0  0  0  0
   -0.6131   -0.3236    0.3832 C   0  0  1  0  0  0  0  0  0  0  0  0
    0.0142   -0.7800    1.1506 H   0  0  0  0  0  0  0  0  0  0  0  0
    0.0816   -0.5059   -0.9788 C   0  0  0  0  0  0  0  0  0  0  0  0
    1.1272   -0.7703   -0.8071 H   0  0  0  0  0  0  0  0  0  0  0  0
   -0.3935   -1.3267   -1.5181 H   0  0  0  0  0  0  0  0  0  0  0  0
    0.0403    0.7480   -1.8600 C   0  0  0  0  0  0  0  0  0  0  0  0
    1.0225    0.9048   -2.3047 H   0  0  0  0  0  0  0  0  0  0  0  0
   -0.6854    0.5910   -2.6588 H   0  0  0  0  0  0  0  0  0  0  0  0
   -0.4160    2.2523   -0.9608 S   0  0  0  0  0  0  0  0  0  0  0  0
   -2.1527    1.8833   -0.6009 C   0  0  0  0  0  0  0  0  0  0  0  0
   -2.2188    0.9760    0.0003 H   0  0  0  0  0  0  0  0  0  0  0  0
   -2.5913    2.7137   -0.0470 H   0  0  0  0  0  0  0  0  0  0  0  0
   -2.7003    1.7451   -1.5336 H   0  0  0  0  0  0  0  0  0  0  0  0
   -0.8064    1.1568    0.7414 C   0  0  0  0  0  0  0  0  0  0  0  0
   -1.6978    1.8100    0.2029 O   0  0  0  0  0  0  0  0  0  0  0  0
    0.0314    1.6872    1.6415 N   0  0  0  0  0  0  0  0  0  0  0  0
    0.7279    1.0858    2.0517 H   0  0  0  0  0  0  0  0  0  0  0  0
   -0.0137    3.0826    2.0755 C   0  0  0  0  0  0  0  0  0  0  0  0
   -0.9991    3.3070    2.4905 H   0  0  0  0  0  0  0  0  0  0  0  0
    0.7468    3.2694    2.8349 H   0  0  0  0  0  0  0  0  0  0  0  0
    0.1592    3.7397    1.2213 H   0  0  0  0  0  0  0  0  0  0  0  0
  5  6  2  0  0  0  0
  5  7  1  0  0  0  0
  2  3  1  0  0  0  0
  2  4  1  0  0  0  0
  2  5  1  0  0  0  0
  1  2  1  0  0  0  0
 22 23  2  0  0  0  0
 22 24  1  0  0  0  0
 18 19  1  0  0  0  0
 18 20  1  0  0  0  0
 18 21  1  0  0  0  0
 17 18  1  0  0  0  0
 14 15  1  0  0  0  0
 14 16  1  0  0  0  0
 14 17  1  0  0  0  0
 11 12  1  0  0  0  0
 11 13  1  0  0  0  0
 11 14  1  0  0  0  0
  9 10  1  0  0  0  0
  9 11  1  0  0  0  0
  9 22  1  0  0  0  0
  7  8  1  0  0  0  0
  7  9  1  0  0  0  0
 26 27  1  0  0  0  0
 26 28  1  0  0  0  0
 26 29  1  0  0  0  0
 24 25  1  0  0  0  0
 24 26  1  0  0  0  0
M  END
$$$$
default_name
  -OEChem-02102213163D

 29 28  0     1  0  0  0  0  0999 V2000
   -3.5781   -3.7296    1.2702 H   0  0  0  0  0  0  0  0  0  0  0  0
   -3.5311   -2.7616    0.7732 C   0  0  0  0  0  0  0  0  0  0  0  0
   -4.2371   -2.0766    1.2382 H   0  0  0  0  0  0  0  0  0  0  0  0
   -3.7681   -2.8816   -0.2818 H   0  0  0  0  0  0  0  0  0  0  0  0
   -2.1321   -2.2086    0.9112 C   0  0  0  0  0  0  0  0  0  0  0  0
   -1.2751   -2.8426    1.5112 O   0  0  0  0  0  0  0  0  0  0  0  0
   -1.9041   -1.0186    0.3602 N   0  0  0  0  0  0  0  0  0  0  0  0
   -2.6671   -0.5416   -0.0988 H   0  0  0  0  0  0  0  0  0  0  0  0
   -0.6131   -0.3236    0.3832 C   0  0  1  0  0  0  0  0  0  0  0  0
    0.0142   -0.7800    1.1506 H   0  0  0  0  0  0  0  0  0  0  0  0
    0.0816   -0.5059   -0.9788 C   0  0  0  0  0  0  0  0  0  0  0  0
    1.1272   -0.7703   -0.8071 H   0  0  0  0  0  0  0  0  0  0  0  0
   -0.3935   -1.3267   -1.5181 H   0  0  0  0  0  0  0  0  0  0  0  0
    0.0403    0.7480   -1.8600 C   0  0  0  0  0  0  0  0  0  0  0  0
    0.9179    0.7602   -2.5056 H   0  0  0  0  0  0  0  0  0  0  0  0
   -0.8534    0.7085   -2.4837 H   0  0  0  0  0  0  0  0  0  0  0  0
    0.0130    2.2954   -0.9195 S   0  0  0  0  0  0  0  0  0  0  0  0
   -1.6428    2.1870   -0.1927 C   0  0  0  0  0  0  0  0  0  0  0  0
   -1.7134    1.2944    0.4296 H   0  0  0  0  0  0  0  0  0  0  0  0
   -1.8261    3.0686    0.4221 H   0  0  0  0  0  0  0  0  0  0  0  0
   -2.3901    2.1407   -0.9852 H   0  0  0  0  0  0  0  0  0  0  0  0
   -0.8064    1.1568    0.7414 C   0  0  0  0  0  0  0  0  0  0  0  0
   -1.6978    1.8100    0.2029 O   0  0  0  0  0  0  0  0  0  0  0  0
    0.0314    1.6872    1.6415 N   0  0  0  0  0  0  0  0  0  0  0  0
    0.7279    1.0858    2.0517 H   0  0  0  0  0  0  0  0  0  0  0  0
   -0.0137    3.0826    2.0755 C   0  0  0  0  0  0  0  0  0  0  0  0
   -0.9991    3.3070    2.4905 H   0  0  0  0  0  0  0  0  0  0  0  0
    0.7468    3.2694    2.8349 H   0  0  0  0  0  0  0  0  0  0  0  0
    0.1592    3.7397    1.2213 H   0  0  0  0  0  0  0  0  0  0  0  0
  5  6  2  0  0  0  0
  5  7  1  0  0  0  0
  2  3  1  0  0  0  0
  2  4  1  0  0  0  0
  2  5  1  0  0  0  0
  1  2  1  0  0  0  0
 22 23  2  0  0  0  0
 22 24  1  0  0  0  0
 18 19  1  0  0  0  0
 18 20  1  0  0  0  0
 18 21  1  0  0  0  0
 17 18  1  0  0  0  0
 14 15  1  0  0  0  0
 14 16  1  0  0  0  0
 14 17  1  0  0  0  0
 11 12  1  0  0  0  0
 11 13  1  0  0  0  0
 11 14  1  0  0  0  0
  9 10  1  0  0  0  0
  9 11  1  0  0  0  0
  9 22  1  0  0  0  0
  7  8  1  0  0  0  0
  7  9  1  0  0  0  0
 26 27  1  0  0  0  0
 26 28  1  0  0  0  0
 26 29  1  0  0  0  0
 24 25  1  0  0  0  0
 24 26  1  0  0  0  0
M  END
$$$$
default_name
  -OEChem-02102213163D

 29 28  0     1  0  0  0  0  0999 V2000
   -3.5781   -3.7296    1.2702 H   0  0  0  0  0  0  0  0  0  0  0  0
   -3.5311   -2.7616    0.7732 C   0  0  0  0  0  0  0  0  0  0  0  0
   -4.2371   -2.0766    1.2382 H   0  0  0  0  0  0  0  0  0  0  0  0
   -3.7681   -2.8816   -0.2818 H   0  0  0  0  0  0  0  0  0  0  0  0
   -2.1321   -2.2086    0.9112 C   0  0  0  0  0  0  0  0  0  0  0  0
   -1.2751   -2.8426    1.5112 O   0  0  0  0  0  0  0  0  0  0  0  0
   -1.9041   -1.0186    0.3602 N   0  0  0  0  0  0  0  0  0  0  0  0
   -2.6671   -0.5416   -0.0988 H   0  0  0  0  0  0  0  0  0  0  0  0
   -0.6131   -0.3236    0.3832 C   0  0  1  0  0  0  0  0  0  0  0  0
    0.0142   -0.7800    1.1506 H   0  0  0  0  0  0  0  0  0  0  0  0
    0.0816   -0.5059   -0.9788 C   0  0  0  0  0  0  0  0  0  0  0  0
    1.1272   -0.7703   -0.8071 H   0  0  0  0  0  0  0  0  0  0  0  0
   -0.3935   -1.3267   -1.5181 H   0  0  0  0  0  0  0  0  0  0  0  0
    0.0403    0.7480   -1.8600 C   0  0  0  0  0  0  0  0  0  0  0  0
    0.7528    0.6347   -2.6764 H   0  0  0  0  0  0  0  0  0  0  0  0
   -0.9612    0.8482   -2.2799 H   0  0  0  0  0  0  0  0  0  0  0  0
    0.4426    2.2735   -0.9708 S   0  0  0  0  0  0  0  0  0  0  0  0
   -1.0187    2.4073    0.0916 C   0  0  0  0  0  0  0  0  0  0  0  0
   -1.0869    1.5297    0.7351 H   0  0  0  0  0  0  0  0  0  0  0  0
   -0.9348    3.3008    0.7108 H   0  0  0  0  0  0  0  0  0  0  0  0
   -1.9156    2.4804   -0.5240 H   0  0  0  0  0  0  0  0  0  0  0  0
   -0.8064    1.1568    0.7414 C   0  0  0  0  0  0  0  0  0  0  0  0
   -1.6978    1.8100    0.2029 O   0  0  0  0  0  0  0  0  0  0  0  0
    0.0314    1.6872    1.6415 N   0  0  0  0  0  0  0  0  0  0  0  0
    0.7279    1.0858    2.0517 H   0  0  0  0  0  0  0  0  0  0  0  0
   -0.0137    3.0826    2.0755 C   0  0  0  0  0  0  0  0  0  0  0  0
   -0.9991    3.3070    2.4905 H   0  0  0  0  0  0  0  0  0  0  0  0
    0.7468    3.2694    2.8349 H   0  0  0  0  0  0  0  0  0  0  0  0
    0.1592    3.7397    1.2213 H   0  0  0  0  0  0  0  0  0  0  0  0
  5  6  2  0  0  0  0
  5  7  1  0  0  0  0
  2  3  1  0  0  0  0
  2  4  1  0  0  0  0
  2  5  1  0  0  0  0
  1  2  1  0  0  0  0
 22 23  2  0  0  0  0
 22 24  1  0  0  0  0
 18 19  1  0  0  0  0
 18 20  1  0  0  0  0
 18 21  1  0  0  0  0
 17 18  1  0  0  0  0
 14 15  1  0  0  0  0
 14 16  1  0  0  0  0
 14 17  1  0  0  0  0
 11 12  1  0  0  0  0
 11 13  1  0  0  0  0
 11 14  1  0  0  0  0
  9 10  1  0  0  0  0
  9 11  1  0  0  0  0
  9 22  1  0  0  0  0
  7  8  1  0  0  0  0
  7  9  1  0  0  0  0
 26 27  1  0  0  0  0
 26 28  1  0  0  0  0
 26 29  1  0  0  0  0
 24 25  1  0  0  0  0
 24 26  1  0  0  0  0
M  END
$$$$
default_name
  -OEChem-02102213163D

 29 28  0     1  0  0  0  0  0999 V2000
   -3.5781   -3.7296    1.2702 H   0  0  0  0  0  0  0  0  0  0  0  0
   -3.5311   -2.7616    0.7732 C   0  0  0  0  0  0  0  0  0  0  0  0
   -4.2371   -2.0766    1.2382 H   0  0  0  0  0  0  0  0  0  0  0  0
   -3.7681   -2.8816   -0.2818 H   0  0  0  0  0  0  0  0  0  0  0  0
   -2.1321   -2.2086    0.9112 C   0  0  0  0  0  0  0  0  0  0  0  0
   -1.2751   -2.8426    1.5112 O   0  0  0  0  0  0  0  0  0  0  0  0
   -1.9041   -1.0186    0.3602 N   0  0  0  0  0  0  0  0  0  0  0  0
   -2.6671   -0.5416   -0.0988 H   0  0  0  0  0  0  0  0  0  0  0  0
   -0.6131   -0.3236    0.3832 C   0  0  1  0  0  0  0  0  0  0  0  0
    0.0142   -0.7800    1.1506 H   0  0  0  0  0  0  0  0  0  0  0  0
    0.0816   -0.5059   -0.9788 C   0  0  0  0  0  0  0  0  0  0  0  0
    1.1272   -0.7703   -0.8071 H   0  0  0  0  0  0  0  0  0  0  0  0
   -0.3935   -1.3267   -1.5181 H   0  0  0  0  0  0  0  0  0  0  0  0
    0.0403    0.7480   -1.8600 C   0  0  0  0  0  0  0  0  0  0  0  0
    0.5385    0.5368   -2.8057 H   0  0  0  0  0  0  0  0  0  0  0  0
   -1.0014    1.0006   -2.0611 H   0  0  0  0  0  0  0  0  0  0  0  0
    0.8433    2.1881   -1.1111 S   0  0  0  0  0  0  0  0  0  0  0  0
   -0.3229    2.5292    0.2325 C   0  0  0  0  0  0  0  0  0  0  0  0
   -0.3821    1.6659    0.8960 H   0  0  0  0  0  0  0  0  0  0  0  0
    0.0218    3.3945    0.7993 H   0  0  0  0  0  0  0  0  0  0  0  0
   -1.3091    2.7412   -0.1813 H   0  0  0  0  0  0  0  0  0  0  0  0
   -0.8064    1.1568    0.7414 C   0  0  0  0  0  0  0  0  0  0  0  0
   -1.6978    1.8100    0.2029 O   0  0  0  0  0  0  0  0  0  0  0  0
    0.0314    1.6872    1.6415 N   0  0  0  0  0  0  0  0  0  0  0  0
    0.7279    1.0858    2.0517 H   0  0  0  0  0  0  0  0  0  0  0  0
   -0.0137    3.0826    2.0755 C   0  0  0  0  0  0  0  0  0  0  0  0
   -0.9991    3.3070    2.4905 H   0  0  0  0  0  0  0  0  0  0  0  0
    0.7468    3.2694    2.8349 H   0  0  0  0  0  0  0  0  0  0  0  0
    0.1592    3.7397    1.2213 H   0  0  0  0  0  0  0  0  0  0  0  0
  5  6  2  0  0  0  0
  5  7  1  0  0  0  0
  2  3  1  0  0  0  0
  2  4  1  0  0  0  0
  2  5  1  0  0  0  0
  1  2  1  0  0  0  0
 22 23  2  0  0  0  0
 22 24  1  0  0  0  0
 18 19  1  0  0  0  0
 18 20  1  0  0  0  0
 18 21  1  0  0  0  0
 17 18  1  0  0  0  0
 14 15  1  0  0  0  0
 14 16  1  0  0  0  0
 14 17  1  0  0  0  0
 11 12  1  0  0  0  0
 11 13  1  0  0  0  0
 11 14  1  0  0  0  0
  9 10  1  0  0  0  0
  9 11  1  0  0  0  0
  9 22  1  0  0  0  0
  7  8  1  0  0  0  0
  7  9  1  0  0  0  0
 26 27  1  0  0  0  0
 26 28  1  0  0  0  0
 26 29  1  0  0  0  0
 24 25  1  0  0  0  0
 24 26  1  0  0  0  0
M  END
$$$$
default_name
  -OEChem-02102213163D

 29 28  0     1  0  0  0  0  0999 V2000
   -3.5781   -3.7296    1.2702 H   0  0  0  0  0  0  0  0  0  0  0  0
   -3.5311   -2.7616    0.7732 C   0  0  0  0  0  0  0  0  0  0  0  0
   -4.2371   -2.0766    1.2382 H   0  0  0  0  0  0  0  0  0  0  0  0
   -3.7681   -2.8816   -0.2818 H   0  0  0  0  0  0  0  0  0  0  0  0
   -2.1321   -2.2086    0.9112 C   0  0  0  0  0  0  0  0  0  0  0  0
   -1.2751   -2.8426    1.5112 O   0  0  0  0  0  0  0  0  0  0  0  0
   -1.9041   -1.0186    0.3602 N   0  0  0  0  0  0  0  0  0  0  0  0
   -2.6671   -0.5416   -0.0988 H   0  0  0  0  0  0  0  0  0  0  0  0
   -0.6131   -0.3236    0.3832 C   0  0  1  0  0  0  0  0  0  0  0  0
    0.0142   -0.7800    1.1506 H   0  0  0  0  0  0  0  0  0  0  0  0
    0.0816   -0.5059   -0.9788 C   0  0  0  0  0  0  0  0  0  0  0  0
    1.1272   -0.7703   -0.8071 H   0  0  0  0  0  0  0  0  0  0  0  0
   -0.3935   -1.3267   -1.5181 H   0  0  0  0  0  0  0  0  0  0  0  0
    0.0403    0.7480   -1.8600 C   0  0  0  0  0  0  0  0  0  0  0  0
    0.2896    0.4733   -2.8844 H   0  0  0  0  0  0  0  0  0  0  0  0
   -0.9712    1.1553   -1.8424 H   0  0  0  0  0  0  0  0  0  0  0  0
    1.1881    2.0451   -1.3309 S   0  0  0  0  0  0  0  0  0  0  0  0
    0.3972    2.5445    0.2205 C   0  0  0  0  0  0  0  0  0  0  0  0
    0.3530    1.6938    0.9012 H   0  0  0  0  0  0  0  0  0  0  0  0
    0.9785    3.3434    0.6817 H   0  0  0  0  0  0  0  0  0  0  0  0
   -0.6119    2.9053    0.0195 H   0  0  0  0  0  0  0  0  0  0  0  0
   -0.8064    1.1568    0.7414 C   0  0  0  0  0  0  0  0  0  0  0  0
   -1.6978    1.8100    0.2029 O   0  0  0  0  0  0  0  0  0  0  0  0
    0.0314    1.6872    1.6415 N   0  0  0  0  0  0  0  0  0  0  0  0
    0.7279    1.0858    2.0517 H   0  0  0  0  0  0  0  0  0  0  0  0
   -0.0137    3.0826    2.0755 C   0  0  0  0  0  0  0  0  0  0  0  0
   -0.9991    3.3070    2.4905 H   0  0  0  0  0  0  0  0  0  0  0  0
    0.7468    3.2694    2.8349 H   0  0  0  0  0  0  0  0  0  0  0  0
    0.1592    3.7397    1.2213 H   0  0  0  0  0  0  0  0  0  0  0  0
  5  6  2  0  0  0  0
  5  7  1  0  0  0  0
  2  3  1  0  0  0  0
  2  4  1  0  0  0  0
  2  5  1  0  0  0  0
  1  2  1  0  0  0  0
 22 23  2  0  0  0  0
 22 24  1  0  0  0  0
 18 19  1  0  0  0  0
 18 20  1  0  0  0  0
 18 21  1  0  0  0  0
 17 18  1  0  0  0  0
 14 15  1  0  0  0  0
 14 16  1  0  0  0  0
 14 17  1  0  0  0  0
 11 12  1  0  0  0  0
 11 13  1  0  0  0  0
 11 14  1  0  0  0  0
  9 10  1  0  0  0  0
  9 11  1  0  0  0  0
  9 22  1  0  0  0  0
  7  8  1  0  0  0  0
  7  9  1  0  0  0  0
 26 27  1  0  0  0  0
 26 28  1  0  0  0  0
 26 29  1  0  0  0  0
 24 25  1  0  0  0  0
 24 26  1  0  0  0  0
M  END
$$$$
default_name
  -OEChem-02102213163D

 29 28  0     1  0  0  0  0  0999 V2000
   -3.5781   -3.7296    1.2702 H   0  0  0  0  0  0  0  0  0  0  0  0
   -3.5311   -2.7616    0.7732 C   0  0  0  0  0  0  0  0  0  0  0  0
   -4.2371   -2.0766    1.2382 H   0  0  0  0  0  0  0  0  0  0  0  0
   -3.7681   -2.8816   -0.2818 H   0  0  0  0  0  0  0  0  0  0  0  0
   -2.1321   -2.2086    0.9112 C   0  0  0  0  0  0  0  0  0  0  0  0
   -1.2751   -2.8426    1.5112 O   0  0  0  0  0  0  0  0  0  0  0  0
   -1.9041   -1.0186    0.3602 N   0  0  0  0  0  0  0  0  0  0  0  0
   -2.6671   -0.5416   -0.0988 H   0  0  0  0  0  0  0  0  0  0  0  0
   -0.6131   -0.3236    0.3832 C   0  0  1  0  0  0  0  0  0  0  0  0
    0.0142   -0.7800    1.1506 H   0  0  0  0  0  0  0  0  0  0  0  0
    0.0816   -0.5059   -0.9788 C   0  0  0  0  0  0  0  0  0  0  0  0
    1.1272   -0.7703   -0.8071 H   0  0  0  0  0  0  0  0  0  0  0  0
   -0.3935   -1.3267   -1.5181 H   0  0  0  0  0  0  0  0  0  0  0  0
    0.0403    0.7480   -1.8600 C   0  0  0  0  0  0  0  0  0  0  0  0
    0.0230    0.4484   -2.9074 H   0  0  0  0  0  0  0  0  0  0  0  0
   -0.8728    1.3018   -1.6385 H   0  0  0  0  0  0  0  0  0  0  0  0
    1.4532    1.8541   -1.6151 S   0  0  0  0  0  0  0  0  0  0  0  0
    1.0924    2.4521    0.0564 C   0  0  0  0  0  0  0  0  0  0  0  0
    1.0682    1.6114    0.7504 H   0  0  0  0  0  0  0  0  0  0  0  0
    1.8700    3.1509    0.3659 H   0  0  0  0  0  0  0  0  0  0  0  0
    0.1284    2.9615    0.0647 H   0  0  0  0  0  0  0  0  0  0  0  0
   -0.8064    1.1568    0.7414 C   0  0  0  0  0  0  0  0  0  0  0  0
   -1.6978    1.8100    0.2029 O   0  0  0  0  0  0  0  0  0  0  0  0
    0.0314    1.6872    1.6415 N   0  0  0  0  0  0  0  0  0  0  0  0
    0.7279    1.0858    2.0517 H   0  0  0  0  0  0  0  0  0  0  0  0
   -0.0137    3.0826    2.0755 C   0  0  0  0  0  0  0  0  0  0  0  0
   -0.9991    3.3070    2.4905 H   0  0  0  0  0  0  0  0  0  0  0  0
    0.7468    3.2694    2.8349 H   0  0  0  0  0  0  0  0  0  0  0  0
    0.1592    3.7397    1.2213 H   0  0  0  0  0  0  0  0  0  0  0  0
  5  6  2  0  0  0  0
  5  7  1  0  0  0  0
  2  3  1  0  0  0  0
  2  4  1  0  0  0  0
  2  5  1  0  0  0  0
  1  2  1  0  0  0  0
 22 23  2  0  0  0  0
 22 24  1  0  0  0  0
 18 19  1  0  0  0  0
 18 20  1  0  0  0  0
 18 21  1  0  0  0  0
 17 18  1  0  0  0  0
 14 15  1  0  0  0  0
 14 16  1  0  0  0  0
 14 17  1  0  0  0  0
 11 12  1  0  0  0  0
 11 13  1  0  0  0  0
 11 14  1  0  0  0  0
  9 10  1  0  0  0  0
  9 11  1  0  0  0  0
  9 22  1  0  0  0  0
  7  8  1  0  0  0  0
  7  9  1  0  0  0  0
 26 27  1  0  0  0  0
 26 28  1  0  0  0  0
 26 29  1  0  0  0  0
 24 25  1  0  0  0  0
 24 26  1  0  0  0  0
M  END
$$$$
default_name
  -OEChem-02102213163D

 29 28  0     1  0  0  0  0  0999 V2000
   -3.5781   -3.7296    1.2702 H   0  0  0  0  0  0  0  0  0  0  0  0
   -3.5311   -2.7616    0.7732 C   0  0  0  0  0  0  0  0  0  0  0  0
   -4.2371   -2.0766    1.2382 H   0  0  0  0  0  0  0  0  0  0  0  0
   -3.7681   -2.8816   -0.2818 H   0  0  0  0  0  0  0  0  0  0  0  0
   -2.1321   -2.2086    0.9112 C   0  0  0  0  0  0  0  0  0  0  0  0
   -1.2751   -2.8426    1.5112 O   0  0  0  0  0  0  0  0  0  0  0  0
   -1.9041   -1.0186    0.3602 N   0  0  0  0  0  0  0  0  0  0  0  0
   -2.6671   -0.5416   -0.0988 H   0  0  0  0  0  0  0  0  0  0  0  0
   -0.6131   -0.3236    0.3832 C   0  0  1  0  0  0  0  0  0  0  0  0
    0.0142   -0.7800    1.1506 H   0  0  0  0  0  0  0  0  0  0  0  0
    0.0816   -0.5059   -0.9788 C   0  0  0  0  0  0  0  0  0  0  0  0
    1.1272   -0.7703   -0.8071 H   0  0  0  0  0  0  0  0  0  0  0  0
   -0.3935   -1.3267   -1.5181 H   0  0  0  0  0  0  0  0  0  0  0  0
    0.0403    0.7480   -1.8600 C   0  0  0  0  0  0  0  0  0  0  0  0
   -0.2430    0.4638   -2.8729 H   0  0  0  0  0  0  0  0  0  0  0  0
   -0.7128    1.4300   -1.4635 H   0  0  0  0  0  0  0  0  0  0  0  0
    1.6208    1.6281   -1.9445 S   0  0  0  0  0  0  0  0  0  0  0  0
    1.7155    2.2582   -0.2487 C   0  0  0  0  0  0  0  0  0  0  0  0
    1.7150    1.4243    0.4539 H   0  0  0  0  0  0  0  0  0  0  0  0
    2.6357    2.8301   -0.1264 H   0  0  0  0  0  0  0  0  0  0  0  0
    0.8615    2.9059   -0.0487 H   0  0  0  0  0  0  0  0  0  0  0  0
   -0.8064    1.1568    0.7414 C   0  0  0  0  0  0  0  0  0  0  0  0
   -1.6978    1.8100    0.2029 O   0  0  0  0  0  0  0  0  0  0  0  0
    0.0314    1.6872    1.6415 N   0  0  0  0  0  0  0  0  0  0  0  0
    0.7279    1.0858    2.0517 H   0  0  0  0  0  0  0  0  0  0  0  0
   -0.0137    3.0826    2.0755 C   0  0  0  0  0  0  0  0  0  0  0  0
   -0.9991    3.3070    2.4905 H   0  0  0  0  0  0  0  0  0  0  0  0
    0.7468    3.2694    2.8349 H   0  0  0  0  0  0  0  0  0  0  0  0
    0.1592    3.7397    1.2213 H   0  0  0  0  0  0  0  0  0  0  0  0
  5  6  2  0  0  0  0
  5  7  1  0  0  0  0
  2  3  1  0  0  0  0
  2  4  1  0  0  0  0
  2  5  1  0  0  0  0
  1  2  1  0  0  0  0
 22 23  2  0  0  0  0
 22 24  1  0  0  0  0
 18 19  1  0  0  0  0
 18 20  1  0  0  0  0
 18 21  1  0  0  0  0
 17 18  1  0  0  0  0
 14 15  1  0  0  0  0
 14 16  1  0  0  0  0
 14 17  1  0  0  0  0
 11 12  1  0  0  0  0
 11 13  1  0  0  0  0
 11 14  1  0  0  0  0
  9 10  1  0  0  0  0
  9 11  1  0  0  0  0
  9 22  1  0  0  0  0
  7  8  1  0  0  0  0
  7  9  1  0  0  0  0
 26 27  1  0  0  0  0
 26 28  1  0  0  0  0
 26 29  1  0  0  0  0
 24 25  1  0  0  0  0
 24 26  1  0  0  0  0
M  END
$$$$
default_name
  -OEChem-02102213163D

 29 28  0     1  0  0  0  0  0999 V2000
   -3.5781   -3.7296    1.2702 H   0  0  0  0  0  0  0  0  0  0  0  0
   -3.5311   -2.7616    0.7732 C   0  0  0  0  0  0  0  0  0  0  0  0
   -4.2371   -2.0766    1.2382 H   0  0  0  0  0  0  0  0  0  0  0  0
   -3.7681   -2.8816   -0.2818 H   0  0  0  0  0  0  0  0  0  0  0  0
   -2.1321   -2.2086    0.9112 C   0  0  0  0  0  0  0  0  0  0  0  0
   -1.2751   -2.8426    1.5112 O   0  0  0  0  0  0  0  0  0  0  0  0
   -1.9041   -1.0186    0.3602 N   0  0  0  0  0  0  0  0  0  0  0  0
   -2.6671   -0.5416   -0.0988 H   0  0  0  0  0  0  0  0  0  0  0  0
   -0.6131   -0.3236    0.3832 C   0  0  1  0  0  0  0  0  0  0  0  0
    0.0142   -0.7800    1.1506 H   0  0  0  0  0  0  0  0  0  0  0  0
    0.0816   -0.5059   -0.9788 C   0  0  0  0  0  0  0  0  0  0  0  0
    1.1272   -0.7703   -0.8071 H   0  0  0  0  0  0  0  0  0  0  0  0
   -0.3935   -1.3267   -1.5181 H   0  0  0  0  0  0  0  0  0  0  0  0
    0.0403    0.7480   -1.8600 C   0  0  0  0  0  0  0  0  0  0  0  0
   -0.4904    0.5185   -2.7835 H   0  0  0  0  0  0  0  0  0  0  0  0
   -0.5020    1.5313   -1.3292 H   0  0  0  0  0  0  0  0  0  0  0  0
    1.6793    1.3827   -2.2965 S   0  0  0  0  0  0  0  0  0  0  0  0
    2.2239    1.9761   -0.6739 C   0  0  0  0  0  0  0  0  0  0  0  0
    2.2491    1.1454    0.0320 H   0  0  0  0  0  0  0  0  0  0  0  0
    3.2234    2.4029   -0.7619 H   0  0  0  0  0  0  0  0  0  0  0  0
    1.5373    2.7424   -0.3130 H   0  0  0  0  0  0  0  0  0  0  0  0
   -0.8064    1.1568    0.7414 C   0  0  0  0  0  0  0  0  0  0  0  0
   -1.6978    1.8100    0.2029 O   0  0  0  0  0  0  0  0  0  0  0  0
    0.0314    1.6872    1.6415 N   0  0  0  0  0  0  0  0  0  0  0  0
    0.7279    1.0858    2.0517 H   0  0  0  0  0  0  0  0  0  0  0  0
   -0.0137    3.0826    2.0755 C   0  0  0  0  0  0  0  0  0  0  0  0
   -0.9991    3.3070    2.4905 H   0  0  0  0  0  0  0  0  0  0  0  0
    0.7468    3.2694    2.8349 H   0  0  0  0  0  0  0  0  0  0  0  0
    0.1592    3.7397    1.2213 H   0  0  0  0  0  0  0  0  0  0  0  0
  5  6  2  0  0  0  0
  5  7  1  0  0  0  0
  2  3  1  0  0  0  0
  2  4  1  0  0  0  0
  2  5  1  0  0  0  0
  1  2  1  0  0  0  0
 22 23  2  0  0  0  0
 22 24  1  0  0  0  0
 18 19  1  0  0  0  0
 18 20  1  0  0  0  0
 18 21  1  0  0  0  0
 17 18  1  0  0  0  0
 14 15  1  0  0  0  0
 14 16  1  0  0  0  0
 14 17  1  0  0  0  0
 11 12  1  0  0  0  0
 11 13  1  0  0  0  0
 11 14  1  0  0  0  0
  9 10  1  0  0  0  0
  9 11  1  0  0  0  0
  9 22  1  0  0  0  0
  7  8  1  0  0  0  0
  7  9  1  0  0  0  0
 26 27  1  0  0  0  0
 26 28  1  0  0  0  0
 26 29  1  0  0  0  0
 24 25  1  0  0  0  0
 24 26  1  0  0  0  0
M  END
$$$$
default_name
  -OEChem-02102213163D

 29 28  0     1  0  0  0  0  0999 V2000
   -3.5781   -3.7296    1.2702 H   0  0  0  0  0  0  0  0  0  0  0  0
   -3.5311   -2.7616    0.7732 C   0  0  0  0  0  0  0  0  0  0  0  0
   -4.2371   -2.0766    1.2382 H   0  0  0  0  0  0  0  0  0  0  0  0
   -3.7681   -2.8816   -0.2818 H   0  0  0  0  0  0  0  0  0  0  0  0
   -2.1321   -2.2086    0.9112 C   0  0  0  0  0  0  0  0  0  0  0  0
   -1.2751   -2.8426    1.5112 O   0  0  0  0  0  0  0  0  0  0  0  0
   -1.9041   -1.0186    0.3602 N   0  0  0  0  0  0  0  0  0  0  0  0
   -2.6671   -0.5416   -0.0988 H   0  0  0  0  0  0  0  0  0  0  0  0
   -0.6131   -0.3236    0.3832 C   0  0  1  0  0  0  0  0  0  0  0  0
    0.0142   -0.7800    1.1506 H   0  0  0  0  0  0  0  0  0  0  0  0
    0.0816   -0.5059   -0.9788 C   0  0  0  0  0  0  0  0  0  0  0  0
    1.1272   -0.7703   -0.8071 H   0  0  0  0  0  0  0  0  0  0  0  0
   -0.3935   -1.3267   -1.5181 H   0  0  0  0  0  0  0  0  0  0  0  0
    0.0403    0.7480   -1.8600 C   0  0  0  0  0  0  0  0  0  0  0  0
   -0.7023    0.6088   -2.6451 H   0  0  0  0  0  0  0  0  0  0  0  0
   -0.2550    1.5988   -1.2448 H   0  0  0  0  0  0  0  0  0  0  0  0
    1.6248    1.1344   -2.6472 S   0  0  0  0  0  0  0  0  0  0  0  0
    2.5830    1.6251   -1.1903 C   0  0  0  0  0  0  0  0  0  0  0  0
    2.6342    0.7936   -0.4867 H   0  0  0  0  0  0  0  0  0  0  0  0
    3.5930    1.8984   -1.4971 H   0  0  0  0  0  0  0  0  0  0  0  0
    2.1097    2.4821   -0.7103 H   0  0  0  0  0  0  0  0  0  0  0  0
   -0.8064    1.1568    0.7414 C   0  0  0  0  0  0  0  0  0  0  0  0
   -1.6978    1.8100    0.2029 O   0  0  0  0  0  0  0  0  0  0  0  0
    0.0314    1.6872    1.6415 N   0  0  0  0  0  0  0  0  0  0  0  0
    0.7279    1.0858    2.0517 H   0  0  0  0  0  0  0  0  0  0  0  0
   -0.0137    3.0826    2.0755 C   0  0  0  0  0  0  0  0  0  0  0  0
   -0.9991    3.3070    2.4905 H   0  0  0  0  0  0  0  0  0  0  0  0
    0.7468    3.2694    2.8349 H   0  0  0  0  0  0  0  0  0  0  0  0
    0.1592    3.7397    1.2213 H   0  0  0  0  0  0  0  0  0  0  0  0
  5  6  2  0  0  0  0
  5  7  1  0  0  0  0
  2  3  1  0  0  0  0
  2  4  1  0  0  0  0
  2  5  1  0  0  0  0
  1  2  1  0  0  0  0
 22 23  2  0  0  0  0
 22 24  1  0  0  0  0
 18 19  1  0  0  0  0
 18 20  1  0  0  0  0
 18 21  1  0  0  0  0
 17 18  1  0  0  0  0
 14 15  1  0  0  0  0
 14 16  1  0  0  0  0
 14 17  1  0  0  0  0
 11 12  1  0  0  0  0
 11 13  1  0  0  0  0
 11 14  1  0  0  0  0
  9 10  1  0  0  0  0
  9 11  1  0  0  0  0
  9 22  1  0  0  0  0
  7  8  1  0  0  0  0
  7  9  1  0  0  0  0
 26 27  1  0  0  0  0
 26 28  1  0  0  0  0
 26 29  1  0  0  0  0
 24 25  1  0  0  0  0
 24 26  1  0  0  0  0
M  END
$$$$
default_name
  -OEChem-02102213163D

 29 28  0     1  0  0  0  0  0999 V2000
   -3.5781   -3.7296    1.2702 H   0  0  0  0  0  0  0  0  0  0  0  0
   -3.5311   -2.7616    0.7732 C   0  0  0  0  0  0  0  0  0  0  0  0
   -4.2371   -2.0766    1.2382 H   0  0  0  0  0  0  0  0  0  0  0  0
   -3.7681   -2.8816   -0.2818 H   0  0  0  0  0  0  0  0  0  0  0  0
   -2.1321   -2.2086    0.9112 C   0  0  0  0  0  0  0  0  0  0  0  0
   -1.2751   -2.8426    1.5112 O   0  0  0  0  0  0  0  0  0  0  0  0
   -1.9041   -1.0186    0.3602 N   0  0  0  0  0  0  0  0  0  0  0  0
   -2.6671   -0.5416   -0.0988 H   0  0  0  0  0  0  0  0  0  0  0  0
   -0.6131   -0.3236    0.3832 C   0  0  1  0  0  0  0  0  0  0  0  0
    0.0142   -0.7800    1.1506 H   0  0  0  0  0  0  0  0  0  0  0  0
    0.0816   -0.5059   -0.9788 C   0  0  0  0  0  0  0  0  0  0  0  0
    1.1272   -0.7703   -0.8071 H   0  0  0  0  0  0  0  0  0  0  0  0
   -0.3935   -1.3267   -1.5181 H   0  0  0  0  0  0  0  0  0  0  0  0
    0.0403    0.7480   -1.8600 C   0  0  0  0  0  0  0  0  0  0  0  0
   -0.8642    0.7285   -2.4672 H   0  0  0  0  0  0  0  0  0  0  0  0
    0.0115    1.6278   -1.2161 H   0  0  0  0  0  0  0  0  0  0  0  0
    1.4609    0.9003   -2.9727 S   0  0  0  0  0  0  0  0  0  0  0  0
    2.7684    1.2290   -1.7626 C   0  0  0  0  0  0  0  0  0  0  0  0
    2.8440    0.3928   -1.0668 H   0  0  0  0  0  0  0  0  0  0  0  0
    3.7192    1.3510   -2.2820 H   0  0  0  0  0  0  0  0  0  0  0  0
    2.5399    2.1428   -1.2133 H   0  0  0  0  0  0  0  0  0  0  0  0
   -0.8064    1.1568    0.7414 C   0  0  0  0  0  0  0  0  0  0  0  0
   -1.6978    1.8100    0.2029 O   0  0  0  0  0  0  0  0  0  0  0  0
    0.0314    1.6872    1.6415 N   0  0  0  0  0  0  0  0  0  0  0  0
    0.7279    1.0858    2.0517 H   0  0  0  0  0  0  0  0  0  0  0  0
   -0.0137    3.0826    2.0755 C   0  0  0  0  0  0  0  0  0  0  0  0
   -0.9991    3.3070    2.4905 H   0  0  0  0  0  0  0  0  0  0  0  0
    0.7468    3.2694    2.8349 H   0  0  0  0  0  0  0  0  0  0  0  0
    0.1592    3.7397    1.2213 H   0  0  0  0  0  0  0  0  0  0  0  0
  5  6  2  0  0  0  0
  5  7  1  0  0  0  0
  2  3  1  0  0  0  0
  2  4  1  0  0  0  0
  2  5  1  0  0  0  0
  1  2  1  0  0  0  0
 22 23  2  0  0  0  0
 22 24  1  0  0  0  0
 18 19  1  0  0  0  0
 18 20  1  0  0  0  0
 18 21  1  0  0  0  0
 17 18  1  0  0  0  0
 14 15  1  0  0  0  0
 14 16  1  0  0  0  0
 14 17  1  0  0  0  0
 11 12  1  0  0  0  0
 11 13  1  0  0  0  0
 11 14  1  0  0  0  0
  9 10  1  0  0  0  0
  9 11  1  0  0  0  0
  9 22  1  0  0  0  0
  7  8  1  0  0  0  0
  7  9  1  0  0  0  0
 26 27  1  0  0  0  0
 26 28  1  0  0  0  0
 26 29  1  0  0  0  0
 24 25  1  0  0  0  0
 24 26  1  0  0  0  0
M  END
$$$$
default_name
  -OEChem-02102213163D

 29 28  0     1  0  0  0  0  0999 V2000
   -3.5781   -3.7296    1.2702 H   0  0  0  0  0  0  0  0  0  0  0  0
   -3.5311   -2.7616    0.7732 C   0  0  0  0  0  0  0  0  0  0  0  0
   -4.2371   -2.0766    1.2382 H   0  0  0  0  0  0  0  0  0  0  0  0
   -3.7681   -2.8816   -0.2818 H   0  0  0  0  0  0  0  0  0  0  0  0
   -2.1321   -2.2086    0.9112 C   0  0  0  0  0  0  0  0  0  0  0  0
   -1.2751   -2.8426    1.5112 O   0  0  0  0  0  0  0  0  0  0  0  0
   -1.9041   -1.0186    0.3602 N   0  0  0  0  0  0  0  0  0  0  0  0
   -2.6671   -0.5416   -0.0988 H   0  0  0  0  0  0  0  0  0  0  0  0
   -0.6131   -0.3236    0.3832 C   0  0  1  0  0  0  0  0  0  0  0  0
    0.0142   -0.7800    1.1506 H   0  0  0  0  0  0  0  0  0  0  0  0
    0.0816   -0.5059   -0.9788 C   0  0  0  0  0  0  0  0  0  0  0  0
    1.1272   -0.7703   -0.8071 H   0  0  0  0  0  0  0  0  0  0  0  0
   -0.3935   -1.3267   -1.5181 H   0  0  0  0  0  0  0  0  0  0  0  0
    0.0403    0.7480   -1.8600 C   0  0  0  0  0  0  0  0  0  0  0  0
   -0.9651    0.8694   -2.2619 H   0  0  0  0  0  0  0  0  0  0  0  0
    0.2793    1.6163   -1.2449 H   0  0  0  0  0  0  0  0  0  0  0  0
    1.1990    0.6962   -3.2508 S   0  0  0  0  0  0  0  0  0  0  0  0
    2.7673    0.8148   -2.3520 C   0  0  0  0  0  0  0  0  0  0  0  0
    2.8643   -0.0295   -1.6688 H   0  0  0  0  0  0  0  0  0  0  0  0
    3.5937    0.7979   -3.0631 H   0  0  0  0  0  0  0  0  0  0  0  0
    2.7985    1.7475   -1.7880 H   0  0  0  0  0  0  0  0  0  0  0  0
   -0.8064    1.1568    0.7414 C   0  0  0  0  0  0  0  0  0  0  0  0
   -1.6978    1.8100    0.2029 O   0  0  0  0  0  0  0  0  0  0  0  0
    0.0314    1.6872    1.6415 N   0  0  0  0  0  0  0  0  0  0  0  0
    0.7279    1.0858    2.0517 H   0  0  0  0  0  0  0  0  0  0  0  0
   -0.0137    3.0826    2.0755 C   0  0  0  0  0  0  0  0  0  0  0  0
   -0.9991    3.3070    2.4905 H   0  0  0  0  0  0  0  0  0  0  0  0
    0.7468    3.2694    2.8349 H   0  0  0  0  0  0  0  0  0  0  0  0
    0.1592    3.7397    1.2213 H   0  0  0  0  0  0  0  0  0  0  0  0
  5  6  2  0  0  0  0
  5  7  1  0  0  0  0
  2  3  1  0  0  0  0
  2  4  1  0  0  0  0
  2  5  1  0  0  0  0
  1  2  1  0  0  0  0
 22 23  2  0  0  0  0
 22 24  1  0  0  0  0
 18 19  1  0  0  0  0
 18 20  1  0  0  0  0
 18 21  1  0  0  0  0
 17 18  1  0  0  0  0
 14 15  1  0  0  0  0
 14 16  1  0  0  0  0
 14 17  1  0  0  0  0
 11 12  1  0  0  0  0
 11 13  1  0  0  0  0
 11 14  1  0  0  0  0
  9 10  1  0  0  0  0
  9 11  1  0  0  0  0
  9 22  1  0  0  0  0
  7  8  1  0  0  0  0
  7  9  1  0  0  0  0
 26 27  1  0  0  0  0
 26 28  1  0  0  0  0
 26 29  1  0  0  0  0
 24 25  1  0  0  0  0
 24 26  1  0  0  0  0
M  END
$$$$
default_name
  -OEChem-02102213163D

 29 28  0     1  0  0  0  0  0999 V2000
   -3.5781   -3.7296    1.2702 H   0  0  0  0  0  0  0  0  0  0  0  0
   -3.5311   -2.7616    0.7732 C   0  0  0  0  0  0  0  0  0  0  0  0
   -4.2371   -2.0766    1.2382 H   0  0  0  0  0  0  0  0  0  0  0  0
   -3.7681   -2.8816   -0.2818 H   0  0  0  0  0  0  0  0  0  0  0  0
   -2.1321   -2.2086    0.9112 C   0  0  0  0  0  0  0  0  0  0  0  0
   -1.2751   -2.8426    1.5112 O   0  0  0  0  0  0  0  0  0  0  0  0
   -1.9041   -1.0186    0.3602 N   0  0  0  0  0  0  0  0  0  0  0  0
   -2.6671   -0.5416   -0.0988 H   0  0  0  0  0  0  0  0  0  0  0  0
   -0.6131   -0.3236    0.3832 C   0  0  1  0  0  0  0  0  0  0  0  0
    0.0142   -0.7800    1.1506 H   0  0  0  0  0  0  0  0  0  0  0  0
    0.0816   -0.5059   -0.9788 C   0  0  0  0  0  0  0  0  0  0  0  0
    1.0311   -1.0222   -0.8224 H   0  0  0  0  0  0  0  0  0  0  0  0
   -0.5432   -1.1284   -1.6209 H   0  0  0  0  0  0  0  0  0  0  0  0
    0.3652    0.8151   -1.7032 C   0  0  0  0  0  0  0  0  0  0  0  0
   -0.5748    1.3403   -1.8698 H   0  0  0  0  0  0  0  0  0  0  0  0
    1.0039    1.4318   -1.0699 H   0  0  0  0  0  0  0  0  0  0  0  0
    1.1822    0.6034   -3.3055 S   0  0  0  0  0  0  0  0  0  0  0  0
    2.8061    0.0230   -2.7508 C   0  0  0  0  0  0  0  0  0  0  0  0
    2.6930   -0.9054   -2.1903 H   0  0  0  0  0  0  0  0  0  0  0  0
    3.4415   -0.1567   -3.6185 H   0  0  0  0  0  0  0  0  0  0  0  0
    3.2702    0.7791   -2.1169 H   0  0  0  0  0  0  0  0  0  0  0  0
   -0.8064    1.1568    0.7414 C   0  0  0  0  0  0  0  0  0  0  0  0
   -1.6978    1.8100    0.2029 O   0  0  0  0  0  0  0  0  0  0  0  0
    0.0314    1.6872    1.6415 N   0  0  0  0  0  0  0  0  0  0  0  0
    0.7279    1.0858    2.0517 H   0  0  0  0  0  0  0  0  0  0  0  0
   -0.0137    3.0826    2.0755 C   0  0  0  0  0  0  0  0  0  0  0  0
   -0.9991    3.3070    2.4905 H   0  0  0  0  0  0  0  0  0  0  0  0
    0.7468    3.2694    2.8349 H   0  0  0  0  0  0  0  0  0  0  0  0
    0.1592    3.7397    1.2213 H   0  0  0  0  0  0  0  0  0  0  0  0
  5  6  2  0  0  0  0
  5  7  1  0  0  0  0
  2  3  1  0  0  0  0
  2  4  1  0  0  0  0
  2  5  1  0  0  0  0
  1  2  1  0  0  0  0
 22 23  2  0  0  0  0
 22 24  1  0  0  0  0
 18 19  1  0  0  0  0
 18 20  1  0  0  0  0
 18 21  1  0  0  0  0
 17 18  1  0  0  0  0
 14 15  1  0  0  0  0
 14 16  1  0  0  0  0
 14 17  1  0  0  0  0
 11 12  1  0  0  0  0
 11 13  1  0  0  0  0
 11 14  1  0  0  0  0
  9 10  1  0  0  0  0
  9 11  1  0  0  0  0
  9 22  1  0  0  0  0
  7  8  1  0  0  0  0
  7  9  1  0  0  0  0
 26 27  1  0  0  0  0
 26 28  1  0  0  0  0
 26 29  1  0  0  0  0
 24 25  1  0  0  0  0
 24 26  1  0  0  0  0
M  END
$$$$
default_name
  -OEChem-02102213163D

 29 28  0     1  0  0  0  0  0999 V2000
   -3.5781   -3.7296    1.2702 H   0  0  0  0  0  0  0  0  0  0  0  0
   -3.5311   -2.7616    0.7732 C   0  0  0  0  0  0  0  0  0  0  0  0
   -4.2371   -2.0766    1.2382 H   0  0  0  0  0  0  0  0  0  0  0  0
   -3.7681   -2.8816   -0.2818 H   0  0  0  0  0  0  0  0  0  0  0  0
   -2.1321   -2.2086    0.9112 C   0  0  0  0  0  0  0  0  0  0  0  0
   -1.2751   -2.8426    1.5112 O   0  0  0  0  0  0  0  0  0  0  0  0
   -1.9041   -1.0186    0.3602 N   0  0  0  0  0  0  0  0  0  0  0  0
   -2.6671   -0.5416   -0.0988 H   0  0  0  0  0  0  0  0  0  0  0  0
   -0.6131   -0.3236    0.3832 C   0  0  1  0  0  0  0  0  0  0  0  0
    0.0142   -0.7800    1.1506 H   0  0  0  0  0  0  0  0  0  0  0  0
    0.0816   -0.5059   -0.9788 C   0  0  0  0  0  0  0  0  0  0  0  0
    1.0311   -1.0222   -0.8224 H   0  0  0  0  0  0  0  0  0  0  0  0
   -0.5432   -1.1284   -1.6209 H   0  0  0  0  0  0  0  0  0  0  0  0
    0.3652    0.8151   -1.7032 C   0  0  0  0  0  0  0  0  0  0  0  0
   -0.5134    1.4559   -1.6351 H   0  0  0  0  0  0  0  0  0  0  0  0
    1.2010    1.3126   -1.2101 H   0  0  0  0  0  0  0  0  0  0  0  0
    0.7757    0.6088   -3.4550 S   0  0  0  0  0  0  0  0  0  0  0  0
    2.3941   -0.1906   -3.3017 C   0  0  0  0  0  0  0  0  0  0  0  0
    2.2894   -1.1323   -2.7620 H   0  0  0  0  0  0  0  0  0  0  0  0
    2.7946   -0.3895   -4.2961 H   0  0  0  0  0  0  0  0  0  0  0  0
    3.0790    0.4654   -2.7638 H   0  0  0  0  0  0  0  0  0  0  0  0
   -0.8064    1.1568    0.7414 C   0  0  0  0  0  0  0  0  0  0  0  0
   -1.6978    1.8100    0.2029 O   0  0  0  0  0  0  0  0  0  0  0  0
    0.0314    1.6872    1.6415 N   0  0  0  0  0  0  0  0  0  0  0  0
    0.7279    1.0858    2.0517 H   0  0  0  0  0  0  0  0  0  0  0  0
   -0.0137    3.0826    2.0755 C   0  0  0  0  0  0  0  0  0  0  0  0
   -0.9991    3.3070    2.4905 H   0  0  0  0  0  0  0  0  0  0  0  0
    0.7468    3.2694    2.8349 H   0  0  0  0  0  0  0  0  0  0  0  0
    0.1592    3.7397    1.2213 H   0  0  0  0  0  0  0  0  0  0  0  0
  5  6  2  0  0  0  0
  5  7  1  0  0  0  0
  2  3  1  0  0  0  0
  2  4  1  0  0  0  0
  2  5  1  0  0  0  0
  1  2  1  0  0  0  0
 22 23  2  0  0  0  0
 22 24  1  0  0  0  0
 18 19  1  0  0  0  0
 18 20  1  0  0  0  0
 18 21  1  0  0  0  0
 17 18  1  0  0  0  0
 14 15  1  0  0  0  0
 14 16  1  0  0  0  0
 14 17  1  0  0  0  0
 11 12  1  0  0  0  0
 11 13  1  0  0  0  0
 11 14  1  0  0  0  0
  9 10  1  0  0  0  0
  9 11  1  0  0  0  0
  9 22  1  0  0  0  0
  7  8  1  0  0  0  0
  7  9  1  0  0  0  0
 26 27  1  0  0  0  0
 26 28  1  0  0  0  0
 26 29  1  0  0  0  0
 24 25  1  0  0  0  0
 24 26  1  0  0  0  0
M  END
$$$$
default_name
  -OEChem-02102213163D

 29 28  0     1  0  0  0  0  0999 V2000
   -3.5781   -3.7296    1.2702 H   0  0  0  0  0  0  0  0  0  0  0  0
   -3.5311   -2.7616    0.7732 C   0  0  0  0  0  0  0  0  0  0  0  0
   -4.2371   -2.0766    1.2382 H   0  0  0  0  0  0  0  0  0  0  0  0
   -3.7681   -2.8816   -0.2818 H   0  0  0  0  0  0  0  0  0  0  0  0
   -2.1321   -2.2086    0.9112 C   0  0  0  0  0  0  0  0  0  0  0  0
   -1.2751   -2.8426    1.5112 O   0  0  0  0  0  0  0  0  0  0  0  0
   -1.9041   -1.0186    0.3602 N   0  0  0  0  0  0  0  0  0  0  0  0
   -2.6671   -0.5416   -0.0988 H   0  0  0  0  0  0  0  0  0  0  0  0
   -0.6131   -0.3236    0.3832 C   0  0  1  0  0  0  0  0  0  0  0  0
    0.0142   -0.7800    1.1506 H   0  0  0  0  0  0  0  0  0  0  0  0
    0.0816   -0.5059   -0.9788 C   0  0  0  0  0  0  0  0  0  0  0  0
    1.0311   -1.0222   -0.8224 H   0  0  0  0  0  0  0  0  0  0  0  0
   -0.5432   -1.1284   -1.6209 H   0  0  0  0  0  0  0  0  0  0  0  0
    0.3652    0.8151   -1.7032 C   0  0  0  0  0  0  0  0  0  0  0  0
   -0.3877    1.5487   -1.4166 H   0  0  0  0  0  0  0  0  0  0  0  0
    1.3456    1.1801   -1.3951 H   0  0  0  0  0  0  0  0  0  0  0  0
    0.3504    0.6708   -3.5084 S   0  0  0  0  0  0  0  0  0  0  0  0
    1.8471   -0.3202   -3.7521 C   0  0  0  0  0  0  0  0  0  0  0  0
    1.7444   -1.2747   -3.2350 H   0  0  0  0  0  0  0  0  0  0  0  0
    1.9903   -0.5027   -4.8175 H   0  0  0  0  0  0  0  0  0  0  0  0
    2.7116    0.2168   -3.3609 H   0  0  0  0  0  0  0  0  0  0  0  0
   -0.8064    1.1568    0.7414 C   0  0  0  0  0  0  0  0  0  0  0  0
   -1.6978    1.8100    0.2029 O   0  0  0  0  0  0  0  0  0  0  0  0
    0.0314    1.6872    1.6415 N   0  0  0  0  0  0  0  0  0  0  0  0
    0.7279    1.0858    2.0517 H   0  0  0  0  0  0  0  0  0  0  0  0
   -0.0137    3.0826    2.0755 C   0  0  0  0  0  0  0  0  0  0  0  0
   -0.9991    3.3070    2.4905 H   0  0  0  0  0  0  0  0  0  0  0  0
    0.7468    3.2694    2.8349 H   0  0  0  0  0  0  0  0  0  0  0  0
    0.1592    3.7397    1.2213 H   0  0  0  0  0  0  0  0  0  0  0  0
  5  6  2  0  0  0  0
  5  7  1  0  0  0  0
  2  3  1  0  0  0  0
  2  4  1  0  0  0  0
  2  5  1  0  0  0  0
  1  2  1  0  0  0  0
 22 23  2  0  0  0  0
 22 24  1  0  0  0  0
 18 19  1  0  0  0  0
 18 20  1  0  0  0  0
 18 21  1  0  0  0  0
 17 18  1  0  0  0  0
 14 15  1  0  0  0  0
 14 16  1  0  0  0  0
 14 17  1  0  0  0  0
 11 12  1  0  0  0  0
 11 13  1  0  0  0  0
 11 14  1  0  0  0  0
  9 10  1  0  0  0  0
  9 11  1  0  0  0  0
  9 22  1  0  0  0  0
  7  8  1  0  0  0  0
  7  9  1  0  0  0  0
 26 27  1  0  0  0  0
 26 28  1  0  0  0  0
 26 29  1  0  0  0  0
 24 25  1  0  0  0  0
 24 26  1  0  0  0  0
M  END
$$$$
default_name
  -OEChem-02102213163D

 29 28  0     1  0  0  0  0  0999 V2000
   -3.5781   -3.7296    1.2702 H   0  0  0  0  0  0  0  0  0  0  0  0
   -3.5311   -2.7616    0.7732 C   0  0  0  0  0  0  0  0  0  0  0  0
   -4.2371   -2.0766    1.2382 H   0  0  0  0  0  0  0  0  0  0  0  0
   -3.7681   -2.8816   -0.2818 H   0  0  0  0  0  0  0  0  0  0  0  0
   -2.1321   -2.2086    0.9112 C   0  0  0  0  0  0  0  0  0  0  0  0
   -1.2751   -2.8426    1.5112 O   0  0  0  0  0  0  0  0  0  0  0  0
   -1.9041   -1.0186    0.3602 N   0  0  0  0  0  0  0  0  0  0  0  0
   -2.6671   -0.5416   -0.0988 H   0  0  0  0  0  0  0  0  0  0  0  0
   -0.6131   -0.3236    0.3832 C   0  0  1  0  0  0  0  0  0  0  0  0
    0.0142   -0.7800    1.1506 H   0  0  0  0  0  0  0  0  0  0  0  0
    0.0816   -0.5059   -0.9788 C   0  0  0  0  0  0  0  0  0  0  0  0
    1.0311   -1.0222   -0.8224 H   0  0  0  0  0  0  0  0  0  0  0  0
   -0.5432   -1.1284   -1.6209 H   0  0  0  0  0  0  0  0  0  0  0  0
    0.3652    0.8151   -1.7032 C   0  0  0  0  0  0  0  0  0  0  0  0
   -0.2061    1.6126   -1.2291 H   0  0  0  0  0  0  0  0  0  0  0  0
    1.4278    1.0433   -1.6125 H   0  0  0  0  0  0  0  0  0  0  0  0
   -0.0648    0.7852   -3.4622 S   0  0  0  0  0  0  0  0  0  0  0  0
    1.2025   -0.3569   -4.0714 C   0  0  0  0  0  0  0  0  0  0  0  0
    1.0950   -1.3230   -3.5773 H   0  0  0  0  0  0  0  0  0  0  0  0
    1.0832   -0.4888   -5.1472 H   0  0  0  0  0  0  0  0  0  0  0  0
    2.1932    0.0502   -3.8677 H   0  0  0  0  0  0  0  0  0  0  0  0
   -0.8064    1.1568    0.7414 C   0  0  0  0  0  0  0  0  0  0  0  0
   -1.6978    1.8100    0.2029 O   0  0  0  0  0  0  0  0  0  0  0  0
    0.0314    1.6872    1.6415 N   0  0  0  0  0  0  0  0  0  0  0  0
    0.7279    1.0858    2.0517 H   0  0  0  0  0  0  0  0  0  0  0  0
   -0.0137    3.0826    2.0755 C   0  0  0  0  0  0  0  0  0  0  0  0
   -0.9991    3.3070    2.4905 H   0  0  0  0  0  0  0  0  0  0  0  0
    0.7468    3.2694    2.8349 H   0  0  0  0  0  0  0  0  0  0  0  0
    0.1592    3.7397    1.2213 H   0  0  0  0  0  0  0  0  0  0  0  0
  5  6  2  0  0  0  0
  5  7  1  0  0  0  0
  2  3  1  0  0  0  0
  2  4  1  0  0  0  0
  2  5  1  0  0  0  0
  1  2  1  0  0  0  0
 22 23  2  0  0  0  0
 22 24  1  0  0  0  0
 18 19  1  0  0  0  0
 18 20  1  0  0  0  0
 18 21  1  0  0  0  0
 17 18  1  0  0  0  0
 14 15  1  0  0  0  0
 14 16  1  0  0  0  0
 14 17  1  0  0  0  0
 11 12  1  0  0  0  0
 11 13  1  0  0  0  0
 11 14  1  0  0  0  0
  9 10  1  0  0  0  0
  9 11  1  0  0  0  0
  9 22  1  0  0  0  0
  7  8  1  0  0  0  0
  7  9  1  0  0  0  0
 26 27  1  0  0  0  0
 26 28  1  0  0  0  0
 26 29  1  0  0  0  0
 24 25  1  0  0  0  0
 24 26  1  0  0  0  0
M  END
$$$$
default_name
  -OEChem-02102213163D

 29 28  0     1  0  0  0  0  0999 V2000
   -3.5781   -3.7296    1.2702 H   0  0  0  0  0  0  0  0  0  0  0  0
   -3.5311   -2.7616    0.7732 C   0  0  0  0  0  0  0  0  0  0  0  0
   -4.2371   -2.0766    1.2382 H   0  0  0  0  0  0  0  0  0  0  0  0
   -3.7681   -2.8816   -0.2818 H   0  0  0  0  0  0  0  0  0  0  0  0
   -2.1321   -2.2086    0.9112 C   0  0  0  0  0  0  0  0  0  0  0  0
   -1.2751   -2.8426    1.5112 O   0  0  0  0  0  0  0  0  0  0  0  0
   -1.9041   -1.0186    0.3602 N   0  0  0  0  0  0  0  0  0  0  0  0
   -2.6671   -0.5416   -0.0988 H   0  0  0  0  0  0  0  0  0  0  0  0
   -0.6131   -0.3236    0.3832 C   0  0  1  0  0  0  0  0  0  0  0  0
    0.0142   -0.7800    1.1506 H   0  0  0  0  0  0  0  0  0  0  0  0
    0.0816   -0.5059   -0.9788 C   0  0  0  0  0  0  0  0  0  0  0  0
    1.0311   -1.0222   -0.8224 H   0  0  0  0  0  0  0  0  0  0  0  0
   -0.5432   -1.1284   -1.6209 H   0  0  0  0  0  0  0  0  0  0  0  0
    0.3652    0.8151   -1.7032 C   0  0  0  0  0  0  0  0  0  0  0  0
    0.0189    1.6431   -1.0854 H   0  0  0  0  0  0  0  0  0  0  0  0
    1.4419    0.9115   -1.8472 H   0  0  0  0  0  0  0  0  0  0  0  0
   -0.4415    0.9444   -3.3195 S   0  0  0  0  0  0  0  0  0  0  0  0
    0.5041   -0.2983   -4.2378 C   0  0  0  0  0  0  0  0  0  0  0  0
    0.3855   -1.2738   -3.7653 H   0  0  0  0  0  0  0  0  0  0  0  0
    0.1352   -0.3486   -5.2626 H   0  0  0  0  0  0  0  0  0  0  0  0
    1.5591   -0.0231   -4.2495 H   0  0  0  0  0  0  0  0  0  0  0  0
   -0.8064    1.1568    0.7414 C   0  0  0  0  0  0  0  0  0  0  0  0
   -1.6978    1.8100    0.2029 O   0  0  0  0  0  0  0  0  0  0  0  0
    0.0314    1.6872    1.6415 N   0  0  0  0  0  0  0  0  0  0  0  0
    0.7279    1.0858    2.0517 H   0  0  0  0  0  0  0  0  0  0  0  0
   -0.0137    3.0826    2.0755 C   0  0  0  0  0  0  0  0  0  0  0  0
   -0.9991    3.3070    2.4905 H   0  0  0  0  0  0  0  0  0  0  0  0
    0.7468    3.2694    2.8349 H   0  0  0  0  0  0  0  0  0  0  0  0
    0.1592    3.7397    1.2213 H   0  0  0  0  0  0  0  0  0  0  0  0
  5  6  2  0  0  0  0
  5  7  1  0  0  0  0
  2  3  1  0  0  0  0
  2  4  1  0  0  0  0
  2  5  1  0  0  0  0
  1  2  1  0  0  0  0
 22 23  2  0  0  0  0
 22 24  1  0  0  0  0
 18 19  1  0  0  0  0
 18 20  1  0  0  0  0
 18 21  1  0  0  0  0
 17 18  1  0  0  0  0
 14 15  1  0  0  0  0
 14 16  1  0  0  0  0
 14 17  1  0  0  0  0
 11 12  1  0  0  0  0
 11 13  1  0  0  0  0
 11 14  1  0  0  0  0
  9 10  1  0  0  0  0
  9 11  1  0  0  0  0
  9 22  1  0  0  0  0
  7  8  1  0  0  0  0
  7  9  1  0  0  0  0
 26 27  1  0  0  0  0
 26 28  1  0  0  0  0
 26 29  1  0  0  0  0
 24 25  1  0  0  0  0
 24 26  1  0  0  0  0
M  END
$$$$
default_name
  -OEChem-02102213163D

 29 28  0     1  0  0  0  0  0999 V2000
   -3.5781   -3.7296    1.2702 H   0  0  0  0  0  0  0  0  0  0  0  0
   -3.5311   -2.7616    0.7732 C   0  0  0  0  0  0  0  0  0  0  0  0
   -4.2371   -2.0766    1.2382 H   0  0  0  0  0  0  0  0  0  0  0  0
   -3.7681   -2.8816   -0.2818 H   0  0  0  0  0  0  0  0  0  0  0  0
   -2.1321   -2.2086    0.9112 C   0  0  0  0  0  0  0  0  0  0  0  0
   -1.2751   -2.8426    1.5112 O   0  0  0  0  0  0  0  0  0  0  0  0
   -1.9041   -1.0186    0.3602 N   0  0  0  0  0  0  0  0  0  0  0  0
   -2.6671   -0.5416   -0.0988 H   0  0  0  0  0  0  0  0  0  0  0  0
   -0.6131   -0.3236    0.3832 C   0  0  1  0  0  0  0  0  0  0  0  0
    0.0142   -0.7800    1.1506 H   0  0  0  0  0  0  0  0  0  0  0  0
    0.0816   -0.5059   -0.9788 C   0  0  0  0  0  0  0  0  0  0  0  0
    1.0311   -1.0222   -0.8224 H   0  0  0  0  0  0  0  0  0  0  0  0
   -0.5432   -1.1284   -1.6209 H   0  0  0  0  0  0  0  0  0  0  0  0
    0.3652    0.8151   -1.7032 C   0  0  0  0  0  0  0  0  0  0  0  0
    0.2720    1.6381   -0.9953 H   0  0  0  0  0  0  0  0  0  0  0  0
    1.3871    0.7937   -2.0835 H   0  0  0  0  0  0  0  0  0  0  0  0
   -0.7541    1.1373   -3.0900 S   0  0  0  0  0  0  0  0  0  0  0  0
   -0.2004   -0.1482   -4.2400 C   0  0  0  0  0  0  0  0  0  0  0  0
   -0.3357   -1.1305   -3.7864 H   0  0  0  0  0  0  0  0  0  0  0  0
   -0.7891   -0.0917   -5.1560 H   0  0  0  0  0  0  0  0  0  0  0  0
    0.8525    0.0020   -4.4805 H   0  0  0  0  0  0  0  0  0  0  0  0
   -0.8064    1.1568    0.7414 C   0  0  0  0  0  0  0  0  0  0  0  0
   -1.6978    1.8100    0.2029 O   0  0  0  0  0  0  0  0  0  0  0  0
    0.0314    1.6872    1.6415 N   0  0  0  0  0  0  0  0  0  0  0  0
    0.7279    1.0858    2.0517 H   0  0  0  0  0  0  0  0  0  0  0  0
   -0.0137    3.0826    2.0755 C   0  0  0  0  0  0  0  0  0  0  0  0
   -0.9991    3.3070    2.4905 H   0  0  0  0  0  0  0  0  0  0  0  0
    0.7468    3.2694    2.8349 H   0  0  0  0  0  0  0  0  0  0  0  0
    0.1592    3.7397    1.2213 H   0  0  0  0  0  0  0  0  0  0  0  0
  5  6  2  0  0  0  0
  5  7  1  0  0  0  0
  2  3  1  0  0  0  0
  2  4  1  0  0  0  0
  2  5  1  0  0  0  0
  1  2  1  0  0  0  0
 22 23  2  0  0  0  0
 22 24  1  0  0  0  0
 18 19  1  0  0  0  0
 18 20  1  0  0  0  0
 18 21  1  0  0  0  0
 17 18  1  0  0  0  0
 14 15  1  0  0  0  0
 14 16  1  0  0  0  0
 14 17  1  0  0  0  0
 11 12  1  0  0  0  0
 11 13  1  0  0  0  0
 11 14  1  0  0  0  0
  9 10  1  0  0  0  0
  9 11  1  0  0  0  0
  9 22  1  0  0  0  0
  7  8  1  0  0  0  0
  7  9  1  0  0  0  0
 26 27  1  0  0  0  0
 26 28  1  0  0  0  0
 26 29  1  0  0  0  0
 24 25  1  0  0  0  0
 24 26  1  0  0  0  0
M  END
$$$$
default_name
  -OEChem-02102213163D

 29 28  0     1  0  0  0  0  0999 V2000
   -3.5781   -3.7296    1.2702 H   0  0  0  0  0  0  0  0  0  0  0  0
   -3.5311   -2.7616    0.7732 C   0  0  0  0  0  0  0  0  0  0  0  0
   -4.2371   -2.0766    1.2382 H   0  0  0  0  0  0  0  0  0  0  0  0
   -3.7681   -2.8816   -0.2818 H   0  0  0  0  0  0  0  0  0  0  0  0
   -2.1321   -2.2086    0.9112 C   0  0  0  0  0  0  0  0  0  0  0  0
   -1.2751   -2.8426    1.5112 O   0  0  0  0  0  0  0  0  0  0  0  0
   -1.9041   -1.0186    0.3602 N   0  0  0  0  0  0  0  0  0  0  0  0
   -2.6671   -0.5416   -0.0988 H   0  0  0  0  0  0  0  0  0  0  0  0
   -0.6131   -0.3236    0.3832 C   0  0  1  0  0  0  0  0  0  0  0  0
    0.0142   -0.7800    1.1506 H   0  0  0  0  0  0  0  0  0  0  0  0
    0.0816   -0.5059   -0.9788 C   0  0  0  0  0  0  0  0  0  0  0  0
    1.0311   -1.0222   -0.8224 H   0  0  0  0  0  0  0  0  0  0  0  0
   -0.5432   -1.1284   -1.6209 H   0  0  0  0  0  0  0  0  0  0  0  0
    0.3652    0.8151   -1.7032 C   0  0  0  0  0  0  0  0  0  0  0  0
    0.5359    1.5981   -0.9650 H   0  0  0  0  0  0  0  0  0  0  0  0
    1.2671    0.6980   -2.3051 H   0  0  0  0  0  0  0  0  0  0  0  0
   -0.9813    1.3509   -2.7894 S   0  0  0  0  0  0  0  0  0  0  0  0
   -0.8630    0.0829   -4.0778 C   0  0  0  0  0  0  0  0  0  0  0  0
   -1.0195   -0.9029   -3.6390 H   0  0  0  0  0  0  0  0  0  0  0  0
   -1.6267    0.2644   -4.8346 H   0  0  0  0  0  0  0  0  0  0  0  0
    0.1215    0.1237   -4.5447 H   0  0  0  0  0  0  0  0  0  0  0  0
   -0.8064    1.1568    0.7414 C   0  0  0  0  0  0  0  0  0  0  0  0
   -1.6978    1.8100    0.2029 O   0  0  0  0  0  0  0  0  0  0  0  0
    0.0314    1.6872    1.6415 N   0  0  0  0  0  0  0  0  0  0  0  0
    0.7279    1.0858    2.0517 H   0  0  0  0  0  0  0  0  0  0  0  0
   -0.0137    3.0826    2.0755 C   0  0  0  0  0  0  0  0  0  0  0  0
   -0.9991    3.3070    2.4905 H   0  0  0  0  0  0  0  0  0  0  0  0
    0.7468    3.2694    2.8349 H   0  0  0  0  0  0  0  0  0  0  0  0
    0.1592    3.7397    1.2213 H   0  0  0  0  0  0  0  0  0  0  0  0
  5  6  2  0  0  0  0
  5  7  1  0  0  0  0
  2  3  1  0  0  0  0
  2  4  1  0  0  0  0
  2  5  1  0  0  0  0
  1  2  1  0  0  0  0
 22 23  2  0  0  0  0
 22 24  1  0  0  0  0
 18 19  1  0  0  0  0
 18 20  1  0  0  0  0
 18 21  1  0  0  0  0
 17 18  1  0  0  0  0
 14 15  1  0  0  0  0
 14 16  1  0  0  0  0
 14 17  1  0  0  0  0
 11 12  1  0  0  0  0
 11 13  1  0  0  0  0
 11 14  1  0  0  0  0
  9 10  1  0  0  0  0
  9 11  1  0  0  0  0
  9 22  1  0  0  0  0
  7  8  1  0  0  0  0
  7  9  1  0  0  0  0
 26 27  1  0  0  0  0
 26 28  1  0  0  0  0
 26 29  1  0  0  0  0
 24 25  1  0  0  0  0
 24 26  1  0  0  0  0
M  END
$$$$
default_name
  -OEChem-02102213163D

 29 28  0     1  0  0  0  0  0999 V2000
   -3.5781   -3.7296    1.2702 H   0  0  0  0  0  0  0  0  0  0  0  0
   -3.5311   -2.7616    0.7732 C   0  0  0  0  0  0  0  0  0  0  0  0
   -4.2371   -2.0766    1.2382 H   0  0  0  0  0  0  0  0  0  0  0  0
   -3.7681   -2.8816   -0.2818 H   0  0  0  0  0  0  0  0  0  0  0  0
   -2.1321   -2.2086    0.9112 C   0  0  0  0  0  0  0  0  0  0  0  0
   -1.2751   -2.8426    1.5112 O   0  0  0  0  0  0  0  0  0  0  0  0
   -1.9041   -1.0186    0.3602 N   0  0  0  0  0  0  0  0  0  0  0  0
   -2.6671   -0.5416   -0.0988 H   0  0  0  0  0  0  0  0  0  0  0  0
   -0.6131   -0.3236    0.3832 C   0  0  1  0  0  0  0  0  0  0  0  0
    0.0142   -0.7800    1.1506 H   0  0  0  0  0  0  0  0  0  0  0  0
    0.0816   -0.5059   -0.9788 C   0  0  0  0  0  0  0  0  0  0  0  0
    1.0311   -1.0222   -0.8224 H   0  0  0  0  0  0  0  0  0  0  0  0
   -0.5432   -1.1284   -1.6209 H   0  0  0  0  0  0  0  0  0  0  0  0
    0.3652    0.8151   -1.7032 C   0  0  0  0  0  0  0  0  0  0  0  0
    0.7927    1.5257   -0.9965 H   0  0  0  0  0  0  0  0  0  0  0  0
    1.0900    0.6307   -2.4970 H   0  0  0  0  0  0  0  0  0  0  0  0
   -1.1075    1.5706   -2.4382 S   0  0  0  0  0  0  0  0  0  0  0  0
   -1.4386    0.3795   -3.7623 C   0  0  0  0  0  0  0  0  0  0  0  0
   -1.6194   -0.6065   -3.3332 H   0  0  0  0  0  0  0  0  0  0  0  0
   -2.3205    0.6953   -4.3203 H   0  0  0  0  0  0  0  0  0  0  0  0
   -0.5841    0.3337   -4.4380 H   0  0  0  0  0  0  0  0  0  0  0  0
   -0.8064    1.1568    0.7414 C   0  0  0  0  0  0  0  0  0  0  0  0
   -1.6978    1.8100    0.2029 O   0  0  0  0  0  0  0  0  0  0  0  0
    0.0314    1.6872    1.6415 N   0  0  0  0  0  0  0  0  0  0  0  0
    0.7279    1.0858    2.0517 H   0  0  0  0  0  0  0  0  0  0  0  0
   -0.0137    3.0826    2.0755 C   0  0  0  0  0  0  0  0  0  0  0  0
   -0.9991    3.3070    2.4905 H   0  0  0  0  0  0  0  0  0  0  0  0
    0.7468    3.2694    2.8349 H   0  0  0  0  0  0  0  0  0  0  0  0
    0.1592    3.7397    1.2213 H   0  0  0  0  0  0  0  0  0  0  0  0
  5  6  2  0  0  0  0
  5  7  1  0  0  0  0
  2  3  1  0  0  0  0
  2  4  1  0  0  0  0
  2  5  1  0  0  0  0
  1  2  1  0  0  0  0
 22 23  2  0  0  0  0
 22 24  1  0  0  0  0
 18 19  1  0  0  0  0
 18 20  1  0  0  0  0
 18 21  1  0  0  0  0
 17 18  1  0  0  0  0
 14 15  1  0  0  0  0
 14 16  1  0  0  0  0
 14 17  1  0  0  0  0
 11 12  1  0  0  0  0
 11 13  1  0  0  0  0
 11 14  1  0  0  0  0
  9 10  1  0  0  0  0
  9 11  1  0  0  0  0
  9 22  1  0  0  0  0
  7  8  1  0  0  0  0
  7  9  1  0  0  0  0
 26 27  1  0  0  0  0
 26 28  1  0  0  0  0
 26 29  1  0  0  0  0
 24 25  1  0  0  0  0
 24 26  1  0  0  0  0
M  END
$$$$
default_name
  -OEChem-02102213163D

 29 28  0     1  0  0  0  0  0999 V2000
   -3.5781   -3.7296    1.2702 H   0  0  0  0  0  0  0  0  0  0  0  0
   -3.5311   -2.7616    0.7732 C   0  0  0  0  0  0  0  0  0  0  0  0
   -4.2371   -2.0766    1.2382 H   0  0  0  0  0  0  0  0  0  0  0  0
   -3.7681   -2.8816   -0.2818 H   0  0  0  0  0  0  0  0  0  0  0  0
   -2.1321   -2.2086    0.9112 C   0  0  0  0  0  0  0  0  0  0  0  0
   -1.2751   -2.8426    1.5112 O   0  0  0  0  0  0  0  0  0  0  0  0
   -1.9041   -1.0186    0.3602 N   0  0  0  0  0  0  0  0  0  0  0  0
   -2.6671   -0.5416   -0.0988 H   0  0  0  0  0  0  0  0  0  0  0  0
   -0.6131   -0.3236    0.3832 C   0  0  1  0  0  0  0  0  0  0  0  0
    0.0142   -0.7800    1.1506 H   0  0  0  0  0  0  0  0  0  0  0  0
    0.0816   -0.5059   -0.9788 C   0  0  0  0  0  0  0  0  0  0  0  0
    1.0311   -1.0222   -0.8224 H   0  0  0  0  0  0  0  0  0  0  0  0
   -0.5432   -1.1284   -1.6209 H   0  0  0  0  0  0  0  0  0  0  0  0
    0.3652    0.8151   -1.7032 C   0  0  0  0  0  0  0  0  0  0  0  0
    1.0249    1.4258   -1.0877 H   0  0  0  0  0  0  0  0  0  0  0  0
    0.8679    0.5967   -2.6461 H   0  0  0  0  0  0  0  0  0  0  0  0
   -1.1243    1.7815   -2.0602 S   0  0  0  0  0  0  0  0  0  0  0  0
   -1.8880    0.7213   -3.3150 C   0  0  0  0  0  0  0  0  0  0  0  0
   -2.0943   -0.2614   -2.8899 H   0  0  0  0  0  0  0  0  0  0  0  0
   -2.8233    1.1719   -3.6482 H   0  0  0  0  0  0  0  0  0  0  0  0
   -1.2161    0.6177   -4.1674 H   0  0  0  0  0  0  0  0  0  0  0  0
   -0.8064    1.1568    0.7414 C   0  0  0  0  0  0  0  0  0  0  0  0
   -1.6978    1.8100    0.2029 O   0  0  0  0  0  0  0  0  0  0  0  0
    0.0314    1.6872    1.6415 N   0  0  0  0  0  0  0  0  0  0  0  0
    0.7279    1.0858    2.0517 H   0  0  0  0  0  0  0  0  0  0  0  0
   -0.0137    3.0826    2.0755 C   0  0  0  0  0  0  0  0  0  0  0  0
   -0.9991    3.3070    2.4905 H   0  0  0  0  0  0  0  0  0  0  0  0
    0.7468    3.2694    2.8349 H   0  0  0  0  0  0  0  0  0  0  0  0
    0.1592    3.7397    1.2213 H   0  0  0  0  0  0  0  0  0  0  0  0
  5  6  2  0  0  0  0
  5  7  1  0  0  0  0
  2  3  1  0  0  0  0
  2  4  1  0  0  0  0
  2  5  1  0  0  0  0
  1  2  1  0  0  0  0
 22 23  2  0  0  0  0
 22 24  1  0  0  0  0
 18 19  1  0  0  0  0
 18 20  1  0  0  0  0
 18 21  1  0  0  0  0
 17 18  1  0  0  0  0
 14 15  1  0  0  0  0
 14 16  1  0  0  0  0
 14 17  1  0  0  0  0
 11 12  1  0  0  0  0
 11 13  1  0  0  0  0
 11 14  1  0  0  0  0
  9 10  1  0  0  0  0
  9 11  1  0  0  0  0
  9 22  1  0  0  0  0
  7  8  1  0  0  0  0
  7  9  1  0  0  0  0
 26 27  1  0  0  0  0
 26 28  1  0  0  0  0
 26 29  1  0  0  0  0
 24 25  1  0  0  0  0
 24 26  1  0  0  0  0
M  END
$$$$
default_name
  -OEChem-02102213163D

 29 28  0     1  0  0  0  0  0999 V2000
   -3.5781   -3.7296    1.2702 H   0  0  0  0  0  0  0  0  0  0  0  0
   -3.5311   -2.7616    0.7732 C   0  0  0  0  0  0  0  0  0  0  0  0
   -4.2371   -2.0766    1.2382 H   0  0  0  0  0  0  0  0  0  0  0  0
   -3.7681   -2.8816   -0.2818 H   0  0  0  0  0  0  0  0  0  0  0  0
   -2.1321   -2.2086    0.9112 C   0  0  0  0  0  0  0  0  0  0  0  0
   -1.2751   -2.8426    1.5112 O   0  0  0  0  0  0  0  0  0  0  0  0
   -1.9041   -1.0186    0.3602 N   0  0  0  0  0  0  0  0  0  0  0  0
   -2.6671   -0.5416   -0.0988 H   0  0  0  0  0  0  0  0  0  0  0  0
   -0.6131   -0.3236    0.3832 C   0  0  1  0  0  0  0  0  0  0  0  0
    0.0142   -0.7800    1.1506 H   0  0  0  0  0  0  0  0  0  0  0  0
    0.0816   -0.5059   -0.9788 C   0  0  0  0  0  0  0  0  0  0  0  0
    1.0311   -1.0222   -0.8224 H   0  0  0  0  0  0  0  0  0  0  0  0
   -0.5432   -1.1284   -1.6209 H   0  0  0  0  0  0  0  0  0  0  0  0
    0.3652    0.8151   -1.7032 C   0  0  0  0  0  0  0  0  0  0  0  0
    1.2167    1.3054   -1.2323 H   0  0  0  0  0  0  0  0  0  0  0  0
    0.6160    0.5980   -2.7422 H   0  0  0  0  0  0  0  0  0  0  0  0
   -1.0304    1.9691   -1.6813 S   0  0  0  0  0  0  0  0  0  0  0  0
   -2.1805    1.0850   -2.7663 C   0  0  0  0  0  0  0  0  0  0  0  0
   -2.4120    0.1088   -2.3393 H   0  0  0  0  0  0  0  0  0  0  0  0
   -3.1008    1.6615   -2.8640 H   0  0  0  0  0  0  0  0  0  0  0  0
   -1.7315    0.9564   -3.7516 H   0  0  0  0  0  0  0  0  0  0  0  0
   -0.8064    1.1568    0.7414 C   0  0  0  0  0  0  0  0  0  0  0  0
   -1.6978    1.8100    0.2029 O   0  0  0  0  0  0  0  0  0  0  0  0
    0.0314    1.6872    1.6415 N   0  0  0  0  0  0  0  0  0  0  0  0
    0.7279    1.0858    2.0517 H   0  0  0  0  0  0  0  0  0  0  0  0
   -0.0137    3.0826    2.0755 C   0  0  0  0  0  0  0  0  0  0  0  0
   -0.9991    3.3070    2.4905 H   0  0  0  0  0  0  0  0  0  0  0  0
    0.7468    3.2694    2.8349 H   0  0  0  0  0  0  0  0  0  0  0  0
    0.1592    3.7397    1.2213 H   0  0  0  0  0  0  0  0  0  0  0  0
  5  6  2  0  0  0  0
  5  7  1  0  0  0  0
  2  3  1  0  0  0  0
  2  4  1  0  0  0  0
  2  5  1  0  0  0  0
  1  2  1  0  0  0  0
 22 23  2  0  0  0  0
 22 24  1  0  0  0  0
 18 19  1  0  0  0  0
 18 20  1  0  0  0  0
 18 21  1  0  0  0  0
 17 18  1  0  0  0  0
 14 15  1  0  0  0  0
 14 16  1  0  0  0  0
 14 17  1  0  0  0  0
 11 12  1  0  0  0  0
 11 13  1  0  0  0  0
 11 14  1  0  0  0  0
  9 10  1  0  0  0  0
  9 11  1  0  0  0  0
  9 22  1  0  0  0  0
  7  8  1  0  0  0  0
  7  9  1  0  0  0  0
 26 27  1  0  0  0  0
 26 28  1  0  0  0  0
 26 29  1  0  0  0  0
 24 25  1  0  0  0  0
 24 26  1  0  0  0  0
M  END
$$$$
default_name
  -OEChem-02102213163D

 29 28  0     1  0  0  0  0  0999 V2000
   -3.5781   -3.7296    1.2702 H   0  0  0  0  0  0  0  0  0  0  0  0
   -3.5311   -2.7616    0.7732 C   0  0  0  0  0  0  0  0  0  0  0  0
   -4.2371   -2.0766    1.2382 H   0  0  0  0  0  0  0  0  0  0  0  0
   -3.7681   -2.8816   -0.2818 H   0  0  0  0  0  0  0  0  0  0  0  0
   -2.1321   -2.2086    0.9112 C   0  0  0  0  0  0  0  0  0  0  0  0
   -1.2751   -2.8426    1.5112 O   0  0  0  0  0  0  0  0  0  0  0  0
   -1.9041   -1.0186    0.3602 N   0  0  0  0  0  0  0  0  0  0  0  0
   -2.6671   -0.5416   -0.0988 H   0  0  0  0  0  0  0  0  0  0  0  0
   -0.6131   -0.3236    0.3832 C   0  0  1  0  0  0  0  0  0  0  0  0
    0.0142   -0.7800    1.1506 H   0  0  0  0  0  0  0  0  0  0  0  0
    0.0816   -0.5059   -0.9788 C   0  0  0  0  0  0  0  0  0  0  0  0
    1.0311   -1.0222   -0.8224 H   0  0  0  0  0  0  0  0  0  0  0  0
   -0.5432   -1.1284   -1.6209 H   0  0  0  0  0  0  0  0  0  0  0  0
    0.3652    0.8151   -1.7032 C   0  0  0  0  0  0  0  0  0  0  0  0
    1.3549    1.1725   -1.4206 H   0  0  0  0  0  0  0  0  0  0  0  0
    0.3514    0.6348   -2.7787 H   0  0  0  0  0  0  0  0  0  0  0  0
   -0.8322    2.1207   -1.3272 S   0  0  0  0  0  0  0  0  0  0  0  0
   -2.2961    1.4458   -2.1537 C   0  0  0  0  0  0  0  0  0  0  0  0
   -2.5508    0.4788   -1.7188 H   0  0  0  0  0  0  0  0  0  0  0  0
   -3.1340    2.1308   -2.0212 H   0  0  0  0  0  0  0  0  0  0  0  0
   -2.0952    1.3267   -3.2187 H   0  0  0  0  0  0  0  0  0  0  0  0
   -0.8064    1.1568    0.7414 C   0  0  0  0  0  0  0  0  0  0  0  0
   -1.6978    1.8100    0.2029 O   0  0  0  0  0  0  0  0  0  0  0  0
    0.0314    1.6872    1.6415 N   0  0  0  0  0  0  0  0  0  0  0  0
    0.7279    1.0858    2.0517 H   0  0  0  0  0  0  0  0  0  0  0  0
   -0.0137    3.0826    2.0755 C   0  0  0  0  0  0  0  0  0  0  0  0
   -0.9991    3.3070    2.4905 H   0  0  0  0  0  0  0  0  0  0  0  0
    0.7468    3.2694    2.8349 H   0  0  0  0  0  0  0  0  0  0  0  0
    0.1592    3.7397    1.2213 H   0  0  0  0  0  0  0  0  0  0  0  0
  5  6  2  0  0  0  0
  5  7  1  0  0  0  0
  2  3  1  0  0  0  0
  2  4  1  0  0  0  0
  2  5  1  0  0  0  0
  1  2  1  0  0  0  0
 22 23  2  0  0  0  0
 22 24  1  0  0  0  0
 18 19  1  0  0  0  0
 18 20  1  0  0  0  0
 18 21  1  0  0  0  0
 17 18  1  0  0  0  0
 14 15  1  0  0  0  0
 14 16  1  0  0  0  0
 14 17  1  0  0  0  0
 11 12  1  0  0  0  0
 11 13  1  0  0  0  0
 11 14  1  0  0  0  0
  9 10  1  0  0  0  0
  9 11  1  0  0  0  0
  9 22  1  0  0  0  0
  7  8  1  0  0  0  0
  7  9  1  0  0  0  0
 26 27  1  0  0  0  0
 26 28  1  0  0  0  0
 26 29  1  0  0  0  0
 24 25  1  0  0  0  0
 24 26  1  0  0  0  0
M  END
$$$$
default_name
  -OEChem-02102213163D

 29 28  0     1  0  0  0  0  0999 V2000
   -3.5781   -3.7296    1.2702 H   0  0  0  0  0  0  0  0  0  0  0  0
   -3.5311   -2.7616    0.7732 C   0  0  0  0  0  0  0  0  0  0  0  0
   -4.2371   -2.0766    1.2382 H   0  0  0  0  0  0  0  0  0  0  0  0
   -3.7681   -2.8816   -0.2818 H   0  0  0  0  0  0  0  0  0  0  0  0
   -2.1321   -2.2086    0.9112 C   0  0  0  0  0  0  0  0  0  0  0  0
   -1.2751   -2.8426    1.5112 O   0  0  0  0  0  0  0  0  0  0  0  0
   -1.9041   -1.0186    0.3602 N   0  0  0  0  0  0  0  0  0  0  0  0
   -2.6671   -0.5416   -0.0988 H   0  0  0  0  0  0  0  0  0  0  0  0
   -0.6131   -0.3236    0.3832 C   0  0  1  0  0  0  0  0  0  0  0  0
    0.0142   -0.7800    1.1506 H   0  0  0  0  0  0  0  0  0  0  0  0
    0.0816   -0.5059   -0.9788 C   0  0  0  0  0  0  0  0  0  0  0  0
    1.0311   -1.0222   -0.8224 H   0  0  0  0  0  0  0  0  0  0  0  0
   -0.5432   -1.1284   -1.6209 H   0  0  0  0  0  0  0  0  0  0  0  0
    0.3652    0.8151   -1.7032 C   0  0  0  0  0  0  0  0  0  0  0  0
    1.4302    1.0362   -1.6396 H   0  0  0  0  0  0  0  0  0  0  0  0
    0.0922    0.7044   -2.7533 H   0  0  0  0  0  0  0  0  0  0  0  0
   -0.5433    2.2260   -1.0222 S   0  0  0  0  0  0  0  0  0  0  0  0
   -2.2271    1.7791   -1.5189 C   0  0  0  0  0  0  0  0  0  0  0  0
   -2.5012    0.8235   -1.0709 H   0  0  0  0  0  0  0  0  0  0  0  0
   -2.9208    2.5478   -1.1772 H   0  0  0  0  0  0  0  0  0  0  0  0
   -2.2823    1.7033   -2.6052 H   0  0  0  0  0  0  0  0  0  0  0  0
   -0.8064    1.1568    0.7414 C   0  0  0  0  0  0  0  0  0  0  0  0
   -1.6978    1.8100    0.2029 O   0  0  0  0  0  0  0  0  0  0  0  0
    0.0314    1.6872    1.6415 N   0  0  0  0  0  0  0  0  0  0  0  0
    0.7279    1.0858    2.0517 H   0  0  0  0  0  0  0  0  0  0  0  0
   -0.0137    3.0826    2.0755 C   0  0  0  0  0  0  0  0  0  0  0  0
   -0.9991    3.3070    2.4905 H   0  0  0  0  0  0  0  0  0  0  0  0
    0.7468    3.2694    2.8349 H   0  0  0  0  0  0  0  0  0  0  0  0
    0.1592    3.7397    1.2213 H   0  0  0  0  0  0  0  0  0  0  0  0
  5  6  2  0  0  0  0
  5  7  1  0  0  0  0
  2  3  1  0  0  0  0
  2  4  1  0  0  0  0
  2  5  1  0  0  0  0
  1  2  1  0  0  0  0
 22 23  2  0  0  0  0
 22 24  1  0  0  0  0
 18 19  1  0  0  0  0
 18 20  1  0  0  0  0
 18 21  1  0  0  0  0
 17 18  1  0  0  0  0
 14 15  1  0  0  0  0
 14 16  1  0  0  0  0
 14 17  1  0  0  0  0
 11 12  1  0  0  0  0
 11 13  1  0  0  0  0
 11 14  1  0  0  0  0
  9 10  1  0  0  0  0
  9 11  1  0  0  0  0
  9 22  1  0  0  0  0
  7  8  1  0  0  0  0
  7  9  1  0  0  0  0
 26 27  1  0  0  0  0
 26 28  1  0  0  0  0
 26 29  1  0  0  0  0
 24 25  1  0  0  0  0
 24 26  1  0  0  0  0
M  END
$$$$
default_name
  -OEChem-02102213163D

 29 28  0     1  0  0  0  0  0999 V2000
   -3.5781   -3.7296    1.2702 H   0  0  0  0  0  0  0  0  0  0  0  0
   -3.5311   -2.7616    0.7732 C   0  0  0  0  0  0  0  0  0  0  0  0
   -4.2371   -2.0766    1.2382 H   0  0  0  0  0  0  0  0  0  0  0  0
   -3.7681   -2.8816   -0.2818 H   0  0  0  0  0  0  0  0  0  0  0  0
   -2.1321   -2.2086    0.9112 C   0  0  0  0  0  0  0  0  0  0  0  0
   -1.2751   -2.8426    1.5112 O   0  0  0  0  0  0  0  0  0  0  0  0
   -1.9041   -1.0186    0.3602 N   0  0  0  0  0  0  0  0  0  0  0  0
   -2.6671   -0.5416   -0.0988 H   0  0  0  0  0  0  0  0  0  0  0  0
   -0.6131   -0.3236    0.3832 C   0  0  1  0  0  0  0  0  0  0  0  0
    0.0142   -0.7800    1.1506 H   0  0  0  0  0  0  0  0  0  0  0  0
    0.0816   -0.5059   -0.9788 C   0  0  0  0  0  0  0  0  0  0  0  0
    1.0311   -1.0222   -0.8224 H   0  0  0  0  0  0  0  0  0  0  0  0
   -0.5432   -1.1284   -1.6209 H   0  0  0  0  0  0  0  0  0  0  0  0
    0.3652    0.8151   -1.7032 C   0  0  0  0  0  0  0  0  0  0  0  0
    1.4374    0.9059   -1.8744 H   0  0  0  0  0  0  0  0  0  0  0  0
   -0.1440    0.8021   -2.6676 H   0  0  0  0  0  0  0  0  0  0  0  0
   -0.1833    2.2777   -0.7869 S   0  0  0  0  0  0  0  0  0  0  0  0
   -1.9781    2.0622   -0.9051 C   0  0  0  0  0  0  0  0  0  0  0  0
   -2.2667    1.1194   -0.4395 H   0  0  0  0  0  0  0  0  0  0  0  0
   -2.4756    2.8842   -0.3896 H   0  0  0  0  0  0  0  0  0  0  0  0
   -2.2802    2.0606   -1.9528 H   0  0  0  0  0  0  0  0  0  0  0  0
   -0.8064    1.1568    0.7414 C   0  0  0  0  0  0  0  0  0  0  0  0
   -1.6978    1.8100    0.2029 O   0  0  0  0  0  0  0  0  0  0  0  0
    0.0314    1.6872    1.6415 N   0  0  0  0  0  0  0  0  0  0  0  0
    0.7279    1.0858    2.0517 H   0  0  0  0  0  0  0  0  0  0  0  0
   -0.0137    3.0826    2.0755 C   0  0  0  0  0  0  0  0  0  0  0  0
   -0.9991    3.3070    2.4905 H   0  0  0  0  0  0  0  0  0  0  0  0
    0.7468    3.2694    2.8349 H   0  0  0  0  0  0  0  0  0  0  0  0
    0.1592    3.7397    1.2213 H   0  0  0  0  0  0  0  0  0  0  0  0
  5  6  2  0  0  0  0
  5  7  1  0  0  0  0
  2  3  1  0  0  0  0
  2  4  1  0  0  0  0
  2  5  1  0  0  0  0
  1  2  1  0  0  0  0
 22 23  2  0  0  0  0
 22 24  1  0  0  0  0
 18 19  1  0  0  0  0
 18 20  1  0  0  0  0
 18 21  1  0  0  0  0
 17 18  1  0  0  0  0
 14 15  1  0  0  0  0
 14 16  1  0  0  0  0
 14 17  1  0  0  0  0
 11 12  1  0  0  0  0
 11 13  1  0  0  0  0
 11 14  1  0  0  0  0
  9 10  1  0  0  0  0
  9 11  1  0  0  0  0
  9 22  1  0  0  0  0
  7  8  1  0  0  0  0
  7  9  1  0  0  0  0
 26 27  1  0  0  0  0
 26 28  1  0  0  0  0
 26 29  1  0  0  0  0
 24 25  1  0  0  0  0
 24 26  1  0  0  0  0
M  END
$$$$
default_name
  -OEChem-02102213163D

 29 28  0     1  0  0  0  0  0999 V2000
   -3.5781   -3.7296    1.2702 H   0  0  0  0  0  0  0  0  0  0  0  0
   -3.5311   -2.7616    0.7732 C   0  0  0  0  0  0  0  0  0  0  0  0
   -4.2371   -2.0766    1.2382 H   0  0  0  0  0  0  0  0  0  0  0  0
   -3.7681   -2.8816   -0.2818 H   0  0  0  0  0  0  0  0  0  0  0  0
   -2.1321   -2.2086    0.9112 C   0  0  0  0  0  0  0  0  0  0  0  0
   -1.2751   -2.8426    1.5112 O   0  0  0  0  0  0  0  0  0  0  0  0
   -1.9041   -1.0186    0.3602 N   0  0  0  0  0  0  0  0  0  0  0  0
   -2.6671   -0.5416   -0.0988 H   0  0  0  0  0  0  0  0  0  0  0  0
   -0.6131   -0.3236    0.3832 C   0  0  1  0  0  0  0  0  0  0  0  0
    0.0142   -0.7800    1.1506 H   0  0  0  0  0  0  0  0  0  0  0  0
    0.0816   -0.5059   -0.9788 C   0  0  0  0  0  0  0  0  0  0  0  0
    1.0311   -1.0222   -0.8224 H   0  0  0  0  0  0  0  0  0  0  0  0
   -0.5432   -1.1284   -1.6209 H   0  0  0  0  0  0  0  0  0  0  0  0
    0.3652    0.8151   -1.7032 C   0  0  0  0  0  0  0  0  0  0  0  0
    1.3760    0.7903   -2.1091 H   0  0  0  0  0  0  0  0  0  0  0  0
   -0.3411    0.9213   -2.5274 H   0  0  0  0  0  0  0  0  0  0  0  0
    0.2232    2.2724   -0.6375 S   0  0  0  0  0  0  0  0  0  0  0  0
   -1.5661    2.2758   -0.3543 C   0  0  0  0  0  0  0  0  0  0  0  0
   -1.8631    1.3462    0.1322 H   0  0  0  0  0  0  0  0  0  0  0  0
   -1.8288    3.1169    0.2880 H   0  0  0  0  0  0  0  0  0  0  0  0
   -2.0890    2.3743   -1.3060 H   0  0  0  0  0  0  0  0  0  0  0  0
   -0.8064    1.1568    0.7414 C   0  0  0  0  0  0  0  0  0  0  0  0
   -1.6978    1.8100    0.2029 O   0  0  0  0  0  0  0  0  0  0  0  0
    0.0314    1.6872    1.6415 N   0  0  0  0  0  0  0  0  0  0  0  0
    0.7279    1.0858    2.0517 H   0  0  0  0  0  0  0  0  0  0  0  0
   -0.0137    3.0826    2.0755 C   0  0  0  0  0  0  0  0  0  0  0  0
   -0.9991    3.3070    2.4905 H   0  0  0  0  0  0  0  0  0  0  0  0
    0.7468    3.2694    2.8349 H   0  0  0  0  0  0  0  0  0  0  0  0
    0.1592    3.7397    1.2213 H   0  0  0  0  0  0  0  0  0  0  0  0
  5  6  2  0  0  0  0
  5  7  1  0  0  0  0
  2  3  1  0  0  0  0
  2  4  1  0  0  0  0
  2  5  1  0  0  0  0
  1  2  1  0  0  0  0
 22 23  2  0  0  0  0
 22 24  1  0  0  0  0
 18 19  1  0  0  0  0
 18 20  1  0  0  0  0
 18 21  1  0  0  0  0
 17 18  1  0  0  0  0
 14 15  1  0  0  0  0
 14 16  1  0  0  0  0
 14 17  1  0  0  0  0
 11 12  1  0  0  0  0
 11 13  1  0  0  0  0
 11 14  1  0  0  0  0
  9 10  1  0  0  0  0
  9 11  1  0  0  0  0
  9 22  1  0  0  0  0
  7  8  1  0  0  0  0
  7  9  1  0  0  0  0
 26 27  1  0  0  0  0
 26 28  1  0  0  0  0
 26 29  1  0  0  0  0
 24 25  1  0  0  0  0
 24 26  1  0  0  0  0
M  END
$$$$
default_name
  -OEChem-02102213163D

 29 28  0     1  0  0  0  0  0999 V2000
   -3.5781   -3.7296    1.2702 H   0  0  0  0  0  0  0  0  0  0  0  0
   -3.5311   -2.7616    0.7732 C   0  0  0  0  0  0  0  0  0  0  0  0
   -4.2371   -2.0766    1.2382 H   0  0  0  0  0  0  0  0  0  0  0  0
   -3.7681   -2.8816   -0.2818 H   0  0  0  0  0  0  0  0  0  0  0  0
   -2.1321   -2.2086    0.9112 C   0  0  0  0  0  0  0  0  0  0  0  0
   -1.2751   -2.8426    1.5112 O   0  0  0  0  0  0  0  0  0  0  0  0
   -1.9041   -1.0186    0.3602 N   0  0  0  0  0  0  0  0  0  0  0  0
   -2.6671   -0.5416   -0.0988 H   0  0  0  0  0  0  0  0  0  0  0  0
   -0.6131   -0.3236    0.3832 C   0  0  1  0  0  0  0  0  0  0  0  0
    0.0142   -0.7800    1.1506 H   0  0  0  0  0  0  0  0  0  0  0  0
    0.0816   -0.5059   -0.9788 C   0  0  0  0  0  0  0  0  0  0  0  0
    1.0311   -1.0222   -0.8224 H   0  0  0  0  0  0  0  0  0  0  0  0
   -0.5432   -1.1284   -1.6209 H   0  0  0  0  0  0  0  0  0  0  0  0
    0.3652    0.8151   -1.7032 C   0  0  0  0  0  0  0  0  0  0  0  0
    1.2503    0.6975   -2.3277 H   0  0  0  0  0  0  0  0  0  0  0  0
   -0.4857    1.0538   -2.3424 H   0  0  0  0  0  0  0  0  0  0  0  0
    0.6485    2.2104   -0.5841 S   0  0  0  0  0  0  0  0  0  0  0  0
   -1.0191    2.4054    0.0962 C   0  0  0  0  0  0  0  0  0  0  0  0
   -1.3181    1.4887    0.6052 H   0  0  0  0  0  0  0  0  0  0  0  0
   -1.0244    3.2301    0.8094 H   0  0  0  0  0  0  0  0  0  0  0  0
   -1.7217    2.6229   -0.7088 H   0  0  0  0  0  0  0  0  0  0  0  0
   -0.8064    1.1568    0.7414 C   0  0  0  0  0  0  0  0  0  0  0  0
   -1.6978    1.8100    0.2029 O   0  0  0  0  0  0  0  0  0  0  0  0
    0.0314    1.6872    1.6415 N   0  0  0  0  0  0  0  0  0  0  0  0
    0.7279    1.0858    2.0517 H   0  0  0  0  0  0  0  0  0  0  0  0
   -0.0137    3.0826    2.0755 C   0  0  0  0  0  0  0  0  0  0  0  0
   -0.9991    3.3070    2.4905 H   0  0  0  0  0  0  0  0  0  0  0  0
    0.7468    3.2694    2.8349 H   0  0  0  0  0  0  0  0  0  0  0  0
    0.1592    3.7397    1.2213 H   0  0  0  0  0  0  0  0  0  0  0  0
  5  6  2  0  0  0  0
  5  7  1  0  0  0  0
  2  3  1  0  0  0  0
  2  4  1  0  0  0  0
  2  5  1  0  0  0  0
  1  2  1  0  0  0  0
 22 23  2  0  0  0  0
 22 24  1  0  0  0  0
 18 19  1  0  0  0  0
 18 20  1  0  0  0  0
 18 21  1  0  0  0  0
 17 18  1  0  0  0  0
 14 15  1  0  0  0  0
 14 16  1  0  0  0  0
 14 17  1  0  0  0  0
 11 12  1  0  0  0  0
 11 13  1  0  0  0  0
 11 14  1  0  0  0  0
  9 10  1  0  0  0  0
  9 11  1  0  0  0  0
  9 22  1  0  0  0  0
  7  8  1  0  0  0  0
  7  9  1  0  0  0  0
 26 27  1  0  0  0  0
 26 28  1  0  0  0  0
 26 29  1  0  0  0  0
 24 25  1  0  0  0  0
 24 26  1  0  0  0  0
M  END
$$$$
default_name
  -OEChem-02102213163D

 29 28  0     1  0  0  0  0  0999 V2000
   -3.5781   -3.7296    1.2702 H   0  0  0  0  0  0  0  0  0  0  0  0
   -3.5311   -2.7616    0.7732 C   0  0  0  0  0  0  0  0  0  0  0  0
   -4.2371   -2.0766    1.2382 H   0  0  0  0  0  0  0  0  0  0  0  0
   -3.7681   -2.8816   -0.2818 H   0  0  0  0  0  0  0  0  0  0  0  0
   -2.1321   -2.2086    0.9112 C   0  0  0  0  0  0  0  0  0  0  0  0
   -1.2751   -2.8426    1.5112 O   0  0  0  0  0  0  0  0  0  0  0  0
   -1.9041   -1.0186    0.3602 N   0  0  0  0  0  0  0  0  0  0  0  0
   -2.6671   -0.5416   -0.0988 H   0  0  0  0  0  0  0  0  0  0  0  0
   -0.6131   -0.3236    0.3832 C   0  0  1  0  0  0  0  0  0  0  0  0
    0.0142   -0.7800    1.1506 H   0  0  0  0  0  0  0  0  0  0  0  0
    0.0816   -0.5059   -0.9788 C   0  0  0  0  0  0  0  0  0  0  0  0
    1.0311   -1.0222   -0.8224 H   0  0  0  0  0  0  0  0  0  0  0  0
   -0.5432   -1.1284   -1.6209 H   0  0  0  0  0  0  0  0  0  0  0  0
    0.3652    0.8151   -1.7032 C   0  0  0  0  0  0  0  0  0  0  0  0
    1.0687    0.6336   -2.5152 H   0  0  0  0  0  0  0  0  0  0  0  0
   -0.5678    1.1906   -2.1251 H   0  0  0  0  0  0  0  0  0  0  0  0
    1.0637    2.0960   -0.6303 S   0  0  0  0  0  0  0  0  0  0  0  0
   -0.3745    2.4421    0.4155 C   0  0  0  0  0  0  0  0  0  0  0  0
   -0.6687    1.5369    0.9475 H   0  0  0  0  0  0  0  0  0  0  0  0
   -0.1173    3.2162    1.1390 H   0  0  0  0  0  0  0  0  0  0  0  0
   -1.2033    2.7895   -0.2021 H   0  0  0  0  0  0  0  0  0  0  0  0
   -0.8064    1.1568    0.7414 C   0  0  0  0  0  0  0  0  0  0  0  0
   -1.6978    1.8100    0.2029 O   0  0  0  0  0  0  0  0  0  0  0  0
    0.0314    1.6872    1.6415 N   0  0  0  0  0  0  0  0  0  0  0  0
    0.7279    1.0858    2.0517 H   0  0  0  0  0  0  0  0  0  0  0  0
   -0.0137    3.0826    2.0755 C   0  0  0  0  0  0  0  0  0  0  0  0
   -0.9991    3.3070    2.4905 H   0  0  0  0  0  0  0  0  0  0  0  0
    0.7468    3.2694    2.8349 H   0  0  0  0  0  0  0  0  0  0  0  0
    0.1592    3.7397    1.2213 H   0  0  0  0  0  0  0  0  0  0  0  0
  5  6  2  0  0  0  0
  5  7  1  0  0  0  0
  2  3  1  0  0  0  0
  2  4  1  0  0  0  0
  2  5  1  0  0  0  0
  1  2  1  0  0  0  0
 22 23  2  0  0  0  0
 22 24  1  0  0  0  0
 18 19  1  0  0  0  0
 18 20  1  0  0  0  0
 18 21  1  0  0  0  0
 17 18  1  0  0  0  0
 14 15  1  0  0  0  0
 14 16  1  0  0  0  0
 14 17  1  0  0  0  0
 11 12  1  0  0  0  0
 11 13  1  0  0  0  0
 11 14  1  0  0  0  0
  9 10  1  0  0  0  0
  9 11  1  0  0  0  0
  9 22  1  0  0  0  0
  7  8  1  0  0  0  0
  7  9  1  0  0  0  0
 26 27  1  0  0  0  0
 26 28  1  0  0  0  0
 26 29  1  0  0  0  0
 24 25  1  0  0  0  0
 24 26  1  0  0  0  0
M  END
$$$$
default_name
  -OEChem-02102213163D

 29 28  0     1  0  0  0  0  0999 V2000
   -3.5781   -3.7296    1.2702 H   0  0  0  0  0  0  0  0  0  0  0  0
   -3.5311   -2.7616    0.7732 C   0  0  0  0  0  0  0  0  0  0  0  0
   -4.2371   -2.0766    1.2382 H   0  0  0  0  0  0  0  0  0  0  0  0
   -3.7681   -2.8816   -0.2818 H   0  0  0  0  0  0  0  0  0  0  0  0
   -2.1321   -2.2086    0.9112 C   0  0  0  0  0  0  0  0  0  0  0  0
   -1.2751   -2.8426    1.5112 O   0  0  0  0  0  0  0  0  0  0  0  0
   -1.9041   -1.0186    0.3602 N   0  0  0  0  0  0  0  0  0  0  0  0
   -2.6671   -0.5416   -0.0988 H   0  0  0  0  0  0  0  0  0  0  0  0
   -0.6131   -0.3236    0.3832 C   0  0  1  0  0  0  0  0  0  0  0  0
    0.0142   -0.7800    1.1506 H   0  0  0  0  0  0  0  0  0  0  0  0
    0.0816   -0.5059   -0.9788 C   0  0  0  0  0  0  0  0  0  0  0  0
    1.0311   -1.0222   -0.8224 H   0  0  0  0  0  0  0  0  0  0  0  0
   -0.5432   -1.1284   -1.6209 H   0  0  0  0  0  0  0  0  0  0  0  0
    0.3652    0.8151   -1.7032 C   0  0  0  0  0  0  0  0  0  0  0  0
    0.8437    0.6031   -2.6589 H   0  0  0  0  0  0  0  0  0  0  0  0
   -0.5820    1.3224   -1.8903 H   0  0  0  0  0  0  0  0  0  0  0  0
    1.4404    1.9368   -0.7730 S   0  0  0  0  0  0  0  0  0  0  0  0
    0.3239    2.3835    0.5819 C   0  0  0  0  0  0  0  0  0  0  0  0
    0.0408    1.4877    1.1355 H   0  0  0  0  0  0  0  0  0  0  0  0
    0.8307    3.0760    1.2545 H   0  0  0  0  0  0  0  0  0  0  0  0
   -0.5692    2.8628    0.1798 H   0  0  0  0  0  0  0  0  0  0  0  0
   -0.8064    1.1568    0.7414 C   0  0  0  0  0  0  0  0  0  0  0  0
   -1.6978    1.8100    0.2029 O   0  0  0  0  0  0  0  0  0  0  0  0
    0.0314    1.6872    1.6415 N   0  0  0  0  0  0  0  0  0  0  0  0
    0.7279    1.0858    2.0517 H   0  0  0  0  0  0  0  0  0  0  0  0
   -0.0137    3.0826    2.0755 C   0  0  0  0  0  0  0  0  0  0  0  0
   -0.9991    3.3070    2.4905 H   0  0  0  0  0  0  0  0  0  0  0  0
    0.7468    3.2694    2.8349 H   0  0  0  0  0  0  0  0  0  0  0  0
    0.1592    3.7397    1.2213 H   0  0  0  0  0  0  0  0  0  0  0  0
  5  6  2  0  0  0  0
  5  7  1  0  0  0  0
  2  3  1  0  0  0  0
  2  4  1  0  0  0  0
  2  5  1  0  0  0  0
  1  2  1  0  0  0  0
 22 23  2  0  0  0  0
 22 24  1  0  0  0  0
 18 19  1  0  0  0  0
 18 20  1  0  0  0  0
 18 21  1  0  0  0  0
 17 18  1  0  0  0  0
 14 15  1  0  0  0  0
 14 16  1  0  0  0  0
 14 17  1  0  0  0  0
 11 12  1  0  0  0  0
 11 13  1  0  0  0  0
 11 14  1  0  0  0  0
  9 10  1  0  0  0  0
  9 11  1  0  0  0  0
  9 22  1  0  0  0  0
  7  8  1  0  0  0  0
  7  9  1  0  0  0  0
 26 27  1  0  0  0  0
 26 28  1  0  0  0  0
 26 29  1  0  0  0  0
 24 25  1  0  0  0  0
 24 26  1  0  0  0  0
M  END
$$$$
default_name
  -OEChem-02102213163D

 29 28  0     1  0  0  0  0  0999 V2000
   -3.5781   -3.7296    1.2702 H   0  0  0  0  0  0  0  0  0  0  0  0
   -3.5311   -2.7616    0.7732 C   0  0  0  0  0  0  0  0  0  0  0  0
   -4.2371   -2.0766    1.2382 H   0  0  0  0  0  0  0  0  0  0  0  0
   -3.7681   -2.8816   -0.2818 H   0  0  0  0  0  0  0  0  0  0  0  0
   -2.1321   -2.2086    0.9112 C   0  0  0  0  0  0  0  0  0  0  0  0
   -1.2751   -2.8426    1.5112 O   0  0  0  0  0  0  0  0  0  0  0  0
   -1.9041   -1.0186    0.3602 N   0  0  0  0  0  0  0  0  0  0  0  0
   -2.6671   -0.5416   -0.0988 H   0  0  0  0  0  0  0  0  0  0  0  0
   -0.6131   -0.3236    0.3832 C   0  0  1  0  0  0  0  0  0  0  0  0
    0.0142   -0.7800    1.1506 H   0  0  0  0  0  0  0  0  0  0  0  0
    0.0816   -0.5059   -0.9788 C   0  0  0  0  0  0  0  0  0  0  0  0
    1.0311   -1.0222   -0.8224 H   0  0  0  0  0  0  0  0  0  0  0  0
   -0.5432   -1.1284   -1.6209 H   0  0  0  0  0  0  0  0  0  0  0  0
    0.3652    0.8151   -1.7032 C   0  0  0  0  0  0  0  0  0  0  0  0
    0.5906    0.6081   -2.7489 H   0  0  0  0  0  0  0  0  0  0  0  0
   -0.5272    1.4402   -1.6540 H   0  0  0  0  0  0  0  0  0  0  0  0
    1.7530    1.7439   -1.0025 S   0  0  0  0  0  0  0  0  0  0  0  0
    1.0284    2.2334    0.5841 C   0  0  0  0  0  0  0  0  0  0  0  0
    0.7620    1.3444    1.1565 H   0  0  0  0  0  0  0  0  0  0  0  0
    1.7549    2.8191    1.1479 H   0  0  0  0  0  0  0  0  0  0  0  0
    0.1375    2.8377    0.4107 H   0  0  0  0  0  0  0  0  0  0  0  0
   -0.8064    1.1568    0.7414 C   0  0  0  0  0  0  0  0  0  0  0  0
   -1.6978    1.8100    0.2029 O   0  0  0  0  0  0  0  0  0  0  0  0
    0.0314    1.6872    1.6415 N   0  0  0  0  0  0  0  0  0  0  0  0
    0.7279    1.0858    2.0517 H   0  0  0  0  0  0  0  0  0  0  0  0
   -0.0137    3.0826    2.0755 C   0  0  0  0  0  0  0  0  0  0  0  0
   -0.9991    3.3070    2.4905 H   0  0  0  0  0  0  0  0  0  0  0  0
    0.7468    3.2694    2.8349 H   0  0  0  0  0  0  0  0  0  0  0  0
    0.1592    3.7397    1.2213 H   0  0  0  0  0  0  0  0  0  0  0  0
  5  6  2  0  0  0  0
  5  7  1  0  0  0  0
  2  3  1  0  0  0  0
  2  4  1  0  0  0  0
  2  5  1  0  0  0  0
  1  2  1  0  0  0  0
 22 23  2  0  0  0  0
 22 24  1  0  0  0  0
 18 19  1  0  0  0  0
 18 20  1  0  0  0  0
 18 21  1  0  0  0  0
 17 18  1  0  0  0  0
 14 15  1  0  0  0  0
 14 16  1  0  0  0  0
 14 17  1  0  0  0  0
 11 12  1  0  0  0  0
 11 13  1  0  0  0  0
 11 14  1  0  0  0  0
  9 10  1  0  0  0  0
  9 11  1  0  0  0  0
  9 22  1  0  0  0  0
  7  8  1  0  0  0  0
  7  9  1  0  0  0  0
 26 27  1  0  0  0  0
 26 28  1  0  0  0  0
 26 29  1  0  0  0  0
 24 25  1  0  0  0  0
 24 26  1  0  0  0  0
M  END
$$$$
default_name
  -OEChem-02102213163D

 29 28  0     1  0  0  0  0  0999 V2000
   -3.5781   -3.7296    1.2702 H   0  0  0  0  0  0  0  0  0  0  0  0
   -3.5311   -2.7616    0.7732 C   0  0  0  0  0  0  0  0  0  0  0  0
   -4.2371   -2.0766    1.2382 H   0  0  0  0  0  0  0  0  0  0  0  0
   -3.7681   -2.8816   -0.2818 H   0  0  0  0  0  0  0  0  0  0  0  0
   -2.1321   -2.2086    0.9112 C   0  0  0  0  0  0  0  0  0  0  0  0
   -1.2751   -2.8426    1.5112 O   0  0  0  0  0  0  0  0  0  0  0  0
   -1.9041   -1.0186    0.3602 N   0  0  0  0  0  0  0  0  0  0  0  0
   -2.6671   -0.5416   -0.0988 H   0  0  0  0  0  0  0  0  0  0  0  0
   -0.6131   -0.3236    0.3832 C   0  0  1  0  0  0  0  0  0  0  0  0
    0.0142   -0.7800    1.1506 H   0  0  0  0  0  0  0  0  0  0  0  0
    0.0816   -0.5059   -0.9788 C   0  0  0  0  0  0  0  0  0  0  0  0
    1.0311   -1.0222   -0.8224 H   0  0  0  0  0  0  0  0  0  0  0  0
   -0.5432   -1.1284   -1.6209 H   0  0  0  0  0  0  0  0  0  0  0  0
    0.3652    0.8151   -1.7032 C   0  0  0  0  0  0  0  0  0  0  0  0
    0.3267    0.6481   -2.7793 H   0  0  0  0  0  0  0  0  0  0  0  0
   -0.4072    1.5359   -1.4324 H   0  0  0  0  0  0  0  0  0  0  0  0
    1.9801    1.5303   -1.3031 S   0  0  0  0  0  0  0  0  0  0  0  0
    1.6910    2.0022    0.4219 C   0  0  0  0  0  0  0  0  0  0  0  0
    1.4458    1.1168    1.0092 H   0  0  0  0  0  0  0  0  0  0  0  0
    2.5925    2.4631    0.8265 H   0  0  0  0  0  0  0  0  0  0  0  0
    0.8685    2.7160    0.4750 H   0  0  0  0  0  0  0  0  0  0  0  0
   -0.8064    1.1568    0.7414 C   0  0  0  0  0  0  0  0  0  0  0  0
   -1.6978    1.8100    0.2029 O   0  0  0  0  0  0  0  0  0  0  0  0
    0.0314    1.6872    1.6415 N   0  0  0  0  0  0  0  0  0  0  0  0
    0.7279    1.0858    2.0517 H   0  0  0  0  0  0  0  0  0  0  0  0
   -0.0137    3.0826    2.0755 C   0  0  0  0  0  0  0  0  0  0  0  0
   -0.9991    3.3070    2.4905 H   0  0  0  0  0  0  0  0  0  0  0  0
    0.7468    3.2694    2.8349 H   0  0  0  0  0  0  0  0  0  0  0  0
    0.1592    3.7397    1.2213 H   0  0  0  0  0  0  0  0  0  0  0  0
  5  6  2  0  0  0  0
  5  7  1  0  0  0  0
  2  3  1  0  0  0  0
  2  4  1  0  0  0  0
  2  5  1  0  0  0  0
  1  2  1  0  0  0  0
 22 23  2  0  0  0  0
 22 24  1  0  0  0  0
 18 19  1  0  0  0  0
 18 20  1  0  0  0  0
 18 21  1  0  0  0  0
 17 18  1  0  0  0  0
 14 15  1  0  0  0  0
 14 16  1  0  0  0  0
 14 17  1  0  0  0  0
 11 12  1  0  0  0  0
 11 13  1  0  0  0  0
 11 14  1  0  0  0  0
  9 10  1  0  0  0  0
  9 11  1  0  0  0  0
  9 22  1  0  0  0  0
  7  8  1  0  0  0  0
  7  9  1  0  0  0  0
 26 27  1  0  0  0  0
 26 28  1  0  0  0  0
 26 29  1  0  0  0  0
 24 25  1  0  0  0  0
 24 26  1  0  0  0  0
M  END
$$$$
default_name
  -OEChem-02102213163D

 29 28  0     1  0  0  0  0  0999 V2000
   -3.5781   -3.7296    1.2702 H   0  0  0  0  0  0  0  0  0  0  0  0
   -3.5311   -2.7616    0.7732 C   0  0  0  0  0  0  0  0  0  0  0  0
   -4.2371   -2.0766    1.2382 H   0  0  0  0  0  0  0  0  0  0  0  0
   -3.7681   -2.8816   -0.2818 H   0  0  0  0  0  0  0  0  0  0  0  0
   -2.1321   -2.2086    0.9112 C   0  0  0  0  0  0  0  0  0  0  0  0
   -1.2751   -2.8426    1.5112 O   0  0  0  0  0  0  0  0  0  0  0  0
   -1.9041   -1.0186    0.3602 N   0  0  0  0  0  0  0  0  0  0  0  0
   -2.6671   -0.5416   -0.0988 H   0  0  0  0  0  0  0  0  0  0  0  0
   -0.6131   -0.3236    0.3832 C   0  0  1  0  0  0  0  0  0  0  0  0
    0.0142   -0.7800    1.1506 H   0  0  0  0  0  0  0  0  0  0  0  0
    0.0816   -0.5059   -0.9788 C   0  0  0  0  0  0  0  0  0  0  0  0
    1.0311   -1.0222   -0.8224 H   0  0  0  0  0  0  0  0  0  0  0  0
   -0.5432   -1.1284   -1.6209 H   0  0  0  0  0  0  0  0  0  0  0  0
    0.3652    0.8151   -1.7032 C   0  0  0  0  0  0  0  0  0  0  0  0
    0.0698    0.7205   -2.7477 H   0  0  0  0  0  0  0  0  0  0  0  0
   -0.2301    1.6032   -1.2405 H   0  0  0  0  0  0  0  0  0  0  0  0
    2.1064    1.3105   -1.6543 S   0  0  0  0  0  0  0  0  0  0  0  0
    2.2666    1.7056    0.1064 C   0  0  0  0  0  0  0  0  0  0  0  0
    2.0457    0.8204    0.7034 H   0  0  0  0  0  0  0  0  0  0  0  0
    3.2864    2.0321    0.3122 H   0  0  0  0  0  0  0  0  0  0  0  0
    1.5740    2.5060    0.3682 H   0  0  0  0  0  0  0  0  0  0  0  0
   -0.8064    1.1568    0.7414 C   0  0  0  0  0  0  0  0  0  0  0  0
   -1.6978    1.8100    0.2029 O   0  0  0  0  0  0  0  0  0  0  0  0
    0.0314    1.6872    1.6415 N   0  0  0  0  0  0  0  0  0  0  0  0
    0.7279    1.0858    2.0517 H   0  0  0  0  0  0  0  0  0  0  0  0
   -0.0137    3.0826    2.0755 C   0  0  0  0  0  0  0  0  0  0  0  0
   -0.9991    3.3070    2.4905 H   0  0  0  0  0  0  0  0  0  0  0  0
    0.7468    3.2694    2.8349 H   0  0  0  0  0  0  0  0  0  0  0  0
    0.1592    3.7397    1.2213 H   0  0  0  0  0  0  0  0  0  0  0  0
  5  6  2  0  0  0  0
  5  7  1  0  0  0  0
  2  3  1  0  0  0  0
  2  4  1  0  0  0  0
  2  5  1  0  0  0  0
  1  2  1  0  0  0  0
 22 23  2  0  0  0  0
 22 24  1  0  0  0  0
 18 19  1  0  0  0  0
 18 20  1  0  0  0  0
 18 21  1  0  0  0  0
 17 18  1  0  0  0  0
 14 15  1  0  0  0  0
 14 16  1  0  0  0  0
 14 17  1  0  0  0  0
 11 12  1  0  0  0  0
 11 13  1  0  0  0  0
 11 14  1  0  0  0  0
  9 10  1  0  0  0  0
  9 11  1  0  0  0  0
  9 22  1  0  0  0  0
  7  8  1  0  0  0  0
  7  9  1  0  0  0  0
 26 27  1  0  0  0  0
 26 28  1  0  0  0  0
 26 29  1  0  0  0  0
 24 25  1  0  0  0  0
 24 26  1  0  0  0  0
M  END
$$$$
default_name
  -OEChem-02102213163D

 29 28  0     1  0  0  0  0  0999 V2000
   -3.5781   -3.7296    1.2702 H   0  0  0  0  0  0  0  0  0  0  0  0
   -3.5311   -2.7616    0.7732 C   0  0  0  0  0  0  0  0  0  0  0  0
   -4.2371   -2.0766    1.2382 H   0  0  0  0  0  0  0  0  0  0  0  0
   -3.7681   -2.8816   -0.2818 H   0  0  0  0  0  0  0  0  0  0  0  0
   -2.1321   -2.2086    0.9112 C   0  0  0  0  0  0  0  0  0  0  0  0
   -1.2751   -2.8426    1.5112 O   0  0  0  0  0  0  0  0  0  0  0  0
   -1.9041   -1.0186    0.3602 N   0  0  0  0  0  0  0  0  0  0  0  0
   -2.6671   -0.5416   -0.0988 H   0  0  0  0  0  0  0  0  0  0  0  0
   -0.6131   -0.3236    0.3832 C   0  0  1  0  0  0  0  0  0  0  0  0
    0.0142   -0.7800    1.1506 H   0  0  0  0  0  0  0  0  0  0  0  0
    0.0816   -0.5059   -0.9788 C   0  0  0  0  0  0  0  0  0  0  0  0
    1.0311   -1.0222   -0.8224 H   0  0  0  0  0  0  0  0  0  0  0  0
   -0.5432   -1.1284   -1.6209 H   0  0  0  0  0  0  0  0  0  0  0  0
    0.3652    0.8151   -1.7032 C   0  0  0  0  0  0  0  0  0  0  0  0
   -0.1624    0.8204   -2.6566 H   0  0  0  0  0  0  0  0  0  0  0  0
   -0.0080    1.6372   -1.0915 H   0  0  0  0  0  0  0  0  0  0  0  0
    2.1231    1.0997   -2.0323 S   0  0  0  0  0  0  0  0  0  0  0  0
    2.7160    1.3639   -0.3410 C   0  0  0  0  0  0  0  0  0  0  0  0
    2.5206    0.4753    0.2601 H   0  0  0  0  0  0  0  0  0  0  0  0
    3.7892    1.5556   -0.3600 H   0  0  0  0  0  0  0  0  0  0  0  0
    2.2061    2.2220    0.0977 H   0  0  0  0  0  0  0  0  0  0  0  0
   -0.8064    1.1568    0.7414 C   0  0  0  0  0  0  0  0  0  0  0  0
   -1.6978    1.8100    0.2029 O   0  0  0  0  0  0  0  0  0  0  0  0
    0.0314    1.6872    1.6415 N   0  0  0  0  0  0  0  0  0  0  0  0
    0.7279    1.0858    2.0517 H   0  0  0  0  0  0  0  0  0  0  0  0
   -0.0137    3.0826    2.0755 C   0  0  0  0  0  0  0  0  0  0  0  0
   -0.9991    3.3070    2.4905 H   0  0  0  0  0  0  0  0  0  0  0  0
    0.7468    3.2694    2.8349 H   0  0  0  0  0  0  0  0  0  0  0  0
    0.1592    3.7397    1.2213 H   0  0  0  0  0  0  0  0  0  0  0  0
  5  6  2  0  0  0  0
  5  7  1  0  0  0  0
  2  3  1  0  0  0  0
  2  4  1  0  0  0  0
  2  5  1  0  0  0  0
  1  2  1  0  0  0  0
 22 23  2  0  0  0  0
 22 24  1  0  0  0  0
 18 19  1  0  0  0  0
 18 20  1  0  0  0  0
 18 21  1  0  0  0  0
 17 18  1  0  0  0  0
 14 15  1  0  0  0  0
 14 16  1  0  0  0  0
 14 17  1  0  0  0  0
 11 12  1  0  0  0  0
 11 13  1  0  0  0  0
 11 14  1  0  0  0  0
  9 10  1  0  0  0  0
  9 11  1  0  0  0  0
  9 22  1  0  0  0  0
  7  8  1  0  0  0  0
  7  9  1  0  0  0  0
 26 27  1  0  0  0  0
 26 28  1  0  0  0  0
 26 29  1  0  0  0  0
 24 25  1  0  0  0  0
 24 26  1  0  0  0  0
M  END
$$$$
default_name
  -OEChem-02102213163D

 29 28  0     1  0  0  0  0  0999 V2000
   -3.5781   -3.7296    1.2702 H   0  0  0  0  0  0  0  0  0  0  0  0
   -3.5311   -2.7616    0.7732 C   0  0  0  0  0  0  0  0  0  0  0  0
   -4.2371   -2.0766    1.2382 H   0  0  0  0  0  0  0  0  0  0  0  0
   -3.7681   -2.8816   -0.2818 H   0  0  0  0  0  0  0  0  0  0  0  0
   -2.1321   -2.2086    0.9112 C   0  0  0  0  0  0  0  0  0  0  0  0
   -1.2751   -2.8426    1.5112 O   0  0  0  0  0  0  0  0  0  0  0  0
   -1.9041   -1.0186    0.3602 N   0  0  0  0  0  0  0  0  0  0  0  0
   -2.6671   -0.5416   -0.0988 H   0  0  0  0  0  0  0  0  0  0  0  0
   -0.6131   -0.3236    0.3832 C   0  0  1  0  0  0  0  0  0  0  0  0
    0.0142   -0.7800    1.1506 H   0  0  0  0  0  0  0  0  0  0  0  0
    0.0816   -0.5059   -0.9788 C   0  0  0  0  0  0  0  0  0  0  0  0
    1.0311   -1.0222   -0.8224 H   0  0  0  0  0  0  0  0  0  0  0  0
   -0.5432   -1.1284   -1.6209 H   0  0  0  0  0  0  0  0  0  0  0  0
    0.3652    0.8151   -1.7032 C   0  0  0  0  0  0  0  0  0  0  0  0
   -0.3541    0.9409   -2.5119 H   0  0  0  0  0  0  0  0  0  0  0  0
    0.2439    1.6359   -0.9954 H   0  0  0  0  0  0  0  0  0  0  0  0
    2.0292    0.9121   -2.4112 S   0  0  0  0  0  0  0  0  0  0  0  0
    3.0085    1.0002   -0.8897 C   0  0  0  0  0  0  0  0  0  0  0  0
    2.8383    0.1052   -0.2905 H   0  0  0  0  0  0  0  0  0  0  0  0
    4.0666    1.0660   -1.1442 H   0  0  0  0  0  0  0  0  0  0  0  0
    2.7215    1.8833   -0.3182 H   0  0  0  0  0  0  0  0  0  0  0  0
   -0.8064    1.1568    0.7414 C   0  0  0  0  0  0  0  0  0  0  0  0
   -1.6978    1.8100    0.2029 O   0  0  0  0  0  0  0  0  0  0  0  0
    0.0314    1.6872    1.6415 N   0  0  0  0  0  0  0  0  0  0  0  0
    0.7279    1.0858    2.0517 H   0  0  0  0  0  0  0  0  0  0  0  0
   -0.0137    3.0826    2.0755 C   0  0  0  0  0  0  0  0  0  0  0  0
   -0.9991    3.3070    2.4905 H   0  0  0  0  0  0  0  0  0  0  0  0
    0.7468    3.2694    2.8349 H   0  0  0  0  0  0  0  0  0  0  0  0
    0.1592    3.7397    1.2213 H   0  0  0  0  0  0  0  0  0  0  0  0
  5  6  2  0  0  0  0
  5  7  1  0  0  0  0
  2  3  1  0  0  0  0
  2  4  1  0  0  0  0
  2  5  1  0  0  0  0
  1  2  1  0  0  0  0
 22 23  2  0  0  0  0
 22 24  1  0  0  0  0
 18 19  1  0  0  0  0
 18 20  1  0  0  0  0
 18 21  1  0  0  0  0
 17 18  1  0  0  0  0
 14 15  1  0  0  0  0
 14 16  1  0  0  0  0
 14 17  1  0  0  0  0
 11 12  1  0  0  0  0
 11 13  1  0  0  0  0
 11 14  1  0  0  0  0
  9 10  1  0  0  0  0
  9 11  1  0  0  0  0
  9 22  1  0  0  0  0
  7  8  1  0  0  0  0
  7  9  1  0  0  0  0
 26 27  1  0  0  0  0
 26 28  1  0  0  0  0
 26 29  1  0  0  0  0
 24 25  1  0  0  0  0
 24 26  1  0  0  0  0
M  END
$$$$
default_name
  -OEChem-02102213163D

 29 28  0     1  0  0  0  0  0999 V2000
   -3.5781   -3.7296    1.2702 H   0  0  0  0  0  0  0  0  0  0  0  0
   -3.5311   -2.7616    0.7732 C   0  0  0  0  0  0  0  0  0  0  0  0
   -4.2371   -2.0766    1.2382 H   0  0  0  0  0  0  0  0  0  0  0  0
   -3.7681   -2.8816   -0.2818 H   0  0  0  0  0  0  0  0  0  0  0  0
   -2.1321   -2.2086    0.9112 C   0  0  0  0  0  0  0  0  0  0  0  0
   -1.2751   -2.8426    1.5112 O   0  0  0  0  0  0  0  0  0  0  0  0
   -1.9041   -1.0186    0.3602 N   0  0  0  0  0  0  0  0  0  0  0  0
   -2.6671   -0.5416   -0.0988 H   0  0  0  0  0  0  0  0  0  0  0  0
   -0.6131   -0.3236    0.3832 C   0  0  1  0  0  0  0  0  0  0  0  0
    0.0142   -0.7800    1.1506 H   0  0  0  0  0  0  0  0  0  0  0  0
    0.0816   -0.5059   -0.9788 C   0  0  0  0  0  0  0  0  0  0  0  0
    1.0311   -1.0222   -0.8224 H   0  0  0  0  0  0  0  0  0  0  0  0
   -0.5432   -1.1284   -1.6209 H   0  0  0  0  0  0  0  0  0  0  0  0
    0.3652    0.8151   -1.7032 C   0  0  0  0  0  0  0  0  0  0  0  0
   -0.4923    1.0738   -2.3237 H   0  0  0  0  0  0  0  0  0  0  0  0
    0.5085    1.5991   -0.9588 H   0  0  0  0  0  0  0  0  0  0  0  0
    1.8311    0.7604   -2.7652 S   0  0  0  0  0  0  0  0  0  0  0  0
    3.1241    0.6394   -1.5023 C   0  0  0  0  0  0  0  0  0  0  0  0
    2.9771   -0.2649   -0.9110 H   0  0  0  0  0  0  0  0  0  0  0  0
    4.0999    0.5967   -1.9870 H   0  0  0  0  0  0  0  0  0  0  0  0
    3.0851    1.5130   -0.8510 H   0  0  0  0  0  0  0  0  0  0  0  0
   -0.8064    1.1568    0.7414 C   0  0  0  0  0  0  0  0  0  0  0  0
   -1.6978    1.8100    0.2029 O   0  0  0  0  0  0  0  0  0  0  0  0
    0.0314    1.6872    1.6415 N   0  0  0  0  0  0  0  0  0  0  0  0
    0.7279    1.0858    2.0517 H   0  0  0  0  0  0  0  0  0  0  0  0
   -0.0137    3.0826    2.0755 C   0  0  0  0  0  0  0  0  0  0  0  0
   -0.9991    3.3070    2.4905 H   0  0  0  0  0  0  0  0  0  0  0  0
    0.7468    3.2694    2.8349 H   0  0  0  0  0  0  0  0  0  0  0  0
    0.1592    3.7397    1.2213 H   0  0  0  0  0  0  0  0  0  0  0  0
  5  6  2  0  0  0  0
  5  7  1  0  0  0  0
  2  3  1  0  0  0  0
  2  4  1  0  0  0  0
  2  5  1  0  0  0  0
  1  2  1  0  0  0  0
 22 23  2  0  0  0  0
 22 24  1  0  0  0  0
 18 19  1  0  0  0  0
 18 20  1  0  0  0  0
 18 21  1  0  0  0  0
 17 18  1  0  0  0  0
 14 15  1  0  0  0  0
 14 16  1  0  0  0  0
 14 17  1  0  0  0  0
 11 12  1  0  0  0  0
 11 13  1  0  0  0  0
 11 14  1  0  0  0  0
  9 10  1  0  0  0  0
  9 11  1  0  0  0  0
  9 22  1  0  0  0  0
  7  8  1  0  0  0  0
  7  9  1  0  0  0  0
 26 27  1  0  0  0  0
 26 28  1  0  0  0  0
 26 29  1  0  0  0  0
 24 25  1  0  0  0  0
 24 26  1  0  0  0  0
M  END
$$$$
default_name
  -OEChem-02102213163D

 29 28  0     1  0  0  0  0  0999 V2000
   -3.5781   -3.7296    1.2702 H   0  0  0  0  0  0  0  0  0  0  0  0
   -3.5311   -2.7616    0.7732 C   0  0  0  0  0  0  0  0  0  0  0  0
   -4.2371   -2.0766    1.2382 H   0  0  0  0  0  0  0  0  0  0  0  0
   -3.7681   -2.8816   -0.2818 H   0  0  0  0  0  0  0  0  0  0  0  0
   -2.1321   -2.2086    0.9112 C   0  0  0  0  0  0  0  0  0  0  0  0
   -1.2751   -2.8426    1.5112 O   0  0  0  0  0  0  0  0  0  0  0  0
   -1.9041   -1.0186    0.3602 N   0  0  0  0  0  0  0  0  0  0  0  0
   -2.6671   -0.5416   -0.0988 H   0  0  0  0  0  0  0  0  0  0  0  0
   -0.6131   -0.3236    0.3832 C   0  0  1  0  0  0  0  0  0  0  0  0
    0.0142   -0.7800    1.1506 H   0  0  0  0  0  0  0  0  0  0  0  0
    0.0816   -0.5059   -0.9788 C   0  0  0  0  0  0  0  0  0  0  0  0
    1.0311   -1.0222   -0.8224 H   0  0  0  0  0  0  0  0  0  0  0  0
   -0.5432   -1.1284   -1.6209 H   0  0  0  0  0  0  0  0  0  0  0  0
    0.3652    0.8151   -1.7032 C   0  0  0  0  0  0  0  0  0  0  0  0
   -0.5676    1.2100   -2.1047 H   0  0  0  0  0  0  0  0  0  0  0  0
    0.7677    1.5295   -0.9842 H   0  0  0  0  0  0  0  0  0  0  0  0
    1.5422    0.6552   -3.0703 S   0  0  0  0  0  0  0  0  0  0  0  0
    3.0551    0.3061   -2.1371 C   0  0  0  0  0  0  0  0  0  0  0  0
    2.9275   -0.6096   -1.5589 H   0  0  0  0  0  0  0  0  0  0  0  0
    3.8867    0.1796   -2.8309 H   0  0  0  0  0  0  0  0  0  0  0  0
    3.2723    1.1364   -1.4645 H   0  0  0  0  0  0  0  0  0  0  0  0
   -0.8064    1.1568    0.7414 C   0  0  0  0  0  0  0  0  0  0  0  0
   -1.6978    1.8100    0.2029 O   0  0  0  0  0  0  0  0  0  0  0  0
    0.0314    1.6872    1.6415 N   0  0  0  0  0  0  0  0  0  0  0  0
    0.7279    1.0858    2.0517 H   0  0  0  0  0  0  0  0  0  0  0  0
   -0.0137    3.0826    2.0755 C   0  0  0  0  0  0  0  0  0  0  0  0
   -0.9991    3.3070    2.4905 H   0  0  0  0  0  0  0  0  0  0  0  0
    0.7468    3.2694    2.8349 H   0  0  0  0  0  0  0  0  0  0  0  0
    0.1592    3.7397    1.2213 H   0  0  0  0  0  0  0  0  0  0  0  0
  5  6  2  0  0  0  0
  5  7  1  0  0  0  0
  2  3  1  0  0  0  0
  2  4  1  0  0  0  0
  2  5  1  0  0  0  0
  1  2  1  0  0  0  0
 22 23  2  0  0  0  0
 22 24  1  0  0  0  0
 18 19  1  0  0  0  0
 18 20  1  0  0  0  0
 18 21  1  0  0  0  0
 17 18  1  0  0  0  0
 14 15  1  0  0  0  0
 14 16  1  0  0  0  0
 14 17  1  0  0  0  0
 11 12  1  0  0  0  0
 11 13  1  0  0  0  0
 11 14  1  0  0  0  0
  9 10  1  0  0  0  0
  9 11  1  0  0  0  0
  9 22  1  0  0  0  0
  7  8  1  0  0  0  0
  7  9  1  0  0  0  0
 26 27  1  0  0  0  0
 26 28  1  0  0  0  0
 26 29  1  0  0  0  0
 24 25  1  0  0  0  0
 24 26  1  0  0  0  0
M  END
$$$$
default_name
  -OEChem-02102213163D

 29 28  0     1  0  0  0  0  0999 V2000
   -3.5781   -3.7296    1.2702 H   0  0  0  0  0  0  0  0  0  0  0  0
   -3.5311   -2.7616    0.7732 C   0  0  0  0  0  0  0  0  0  0  0  0
   -4.2371   -2.0766    1.2382 H   0  0  0  0  0  0  0  0  0  0  0  0
   -3.7681   -2.8816   -0.2818 H   0  0  0  0  0  0  0  0  0  0  0  0
   -2.1321   -2.2086    0.9112 C   0  0  0  0  0  0  0  0  0  0  0  0
   -1.2751   -2.8426    1.5112 O   0  0  0  0  0  0  0  0  0  0  0  0
   -1.9041   -1.0186    0.3602 N   0  0  0  0  0  0  0  0  0  0  0  0
   -2.6671   -0.5416   -0.0988 H   0  0  0  0  0  0  0  0  0  0  0  0
   -0.6131   -0.3236    0.3832 C   0  0  1  0  0  0  0  0  0  0  0  0
    0.0142   -0.7800    1.1506 H   0  0  0  0  0  0  0  0  0  0  0  0
    0.0816   -0.5059   -0.9788 C   0  0  0  0  0  0  0  0  0  0  0  0
    0.8812   -1.2416   -0.8695 H   0  0  0  0  0  0  0  0  0  0  0  0
   -0.6392   -0.8906   -1.7017 H   0  0  0  0  0  0  0  0  0  0  0  0
    0.6895    0.7873   -1.5341 C   0  0  0  0  0  0  0  0  0  0  0  0
   -0.0983    1.5306   -1.6523 H   0  0  0  0  0  0  0  0  0  0  0  0
    1.4230    1.1642   -0.8204 H   0  0  0  0  0  0  0  0  0  0  0  0
    1.5072    0.5756   -3.1361 S   0  0  0  0  0  0  0  0  0  0  0  0
    2.9307   -0.4229   -2.6277 C   0  0  0  0  0  0  0  0  0  0  0  0
    2.5849   -1.3575   -2.1849 H   0  0  0  0  0  0  0  0  0  0  0  0
    3.5463   -0.6450   -3.4997 H   0  0  0  0  0  0  0  0  0  0  0  0
    3.5258    0.1289   -1.8996 H   0  0  0  0  0  0  0  0  0  0  0  0
   -0.8064    1.1568    0.7414 C   0  0  0  0  0  0  0  0  0  0  0  0
   -1.6978    1.8100    0.2029 O   0  0  0  0  0  0  0  0  0  0  0  0
    0.0314    1.6872    1.6415 N   0  0  0  0  0  0  0  0  0  0  0  0
    0.7279    1.0858    2.0517 H   0  0  0  0  0  0  0  0  0  0  0  0
   -0.0137    3.0826    2.0755 C   0  0  0  0  0  0  0  0  0  0  0  0
   -0.9991    3.3070    2.4905 H   0  0  0  0  0  0  0  0  0  0  0  0
    0.7468    3.2694    2.8349 H   0  0  0  0  0  0  0  0  0  0  0  0
    0.1592    3.7397    1.2213 H   0  0  0  0  0  0  0  0  0  0  0  0
  5  6  2  0  0  0  0
  5  7  1  0  0  0  0
  2  3  1  0  0  0  0
  2  4  1  0  0  0  0
  2  5  1  0  0  0  0
  1  2  1  0  0  0  0
 22 23  2  0  0  0  0
 22 24  1  0  0  0  0
 18 19  1  0  0  0  0
 18 20  1  0  0  0  0
 18 21  1  0  0  0  0
 17 18  1  0  0  0  0
 14 15  1  0  0  0  0
 14 16  1  0  0  0  0
 14 17  1  0  0  0  0
 11 12  1  0  0  0  0
 11 13  1  0  0  0  0
 11 14  1  0  0  0  0
  9 10  1  0  0  0  0
  9 11  1  0  0  0  0
  9 22  1  0  0  0  0
  7  8  1  0  0  0  0
  7  9  1  0  0  0  0
 26 27  1  0  0  0  0
 26 28  1  0  0  0  0
 26 29  1  0  0  0  0
 24 25  1  0  0  0  0
 24 26  1  0  0  0  0
M  END
$$$$
default_name
  -OEChem-02102213163D

 29 28  0     1  0  0  0  0  0999 V2000
   -3.5781   -3.7296    1.2702 H   0  0  0  0  0  0  0  0  0  0  0  0
   -3.5311   -2.7616    0.7732 C   0  0  0  0  0  0  0  0  0  0  0  0
   -4.2371   -2.0766    1.2382 H   0  0  0  0  0  0  0  0  0  0  0  0
   -3.7681   -2.8816   -0.2818 H   0  0  0  0  0  0  0  0  0  0  0  0
   -2.1321   -2.2086    0.9112 C   0  0  0  0  0  0  0  0  0  0  0  0
   -1.2751   -2.8426    1.5112 O   0  0  0  0  0  0  0  0  0  0  0  0
   -1.9041   -1.0186    0.3602 N   0  0  0  0  0  0  0  0  0  0  0  0
   -2.6671   -0.5416   -0.0988 H   0  0  0  0  0  0  0  0  0  0  0  0
   -0.6131   -0.3236    0.3832 C   0  0  1  0  0  0  0  0  0  0  0  0
    0.0142   -0.7800    1.1506 H   0  0  0  0  0  0  0  0  0  0  0  0
    0.0816   -0.5059   -0.9788 C   0  0  0  0  0  0  0  0  0  0  0  0
    0.8812   -1.2416   -0.8695 H   0  0  0  0  0  0  0  0  0  0  0  0
   -0.6392   -0.8906   -1.7017 H   0  0  0  0  0  0  0  0  0  0  0  0
    0.6895    0.7873   -1.5341 C   0  0  0  0  0  0  0  0  0  0  0  0
   -0.0227    1.6016   -1.4044 H   0  0  0  0  0  0  0  0  0  0  0  0
    1.5939    1.0194   -0.9705 H   0  0  0  0  0  0  0  0  0  0  0  0
    1.1195    0.6914   -3.2907 S   0  0  0  0  0  0  0  0  0  0  0  0
    2.5057   -0.4719   -3.2072 C   0  0  0  0  0  0  0  0  0  0  0  0
    2.1661   -1.4189   -2.7865 H   0  0  0  0  0  0  0  0  0  0  0  0
    2.8942   -0.6439   -4.2113 H   0  0  0  0  0  0  0  0  0  0  0  0
    3.2972   -0.0568   -2.5826 H   0  0  0  0  0  0  0  0  0  0  0  0
   -0.8064    1.1568    0.7414 C   0  0  0  0  0  0  0  0  0  0  0  0
   -1.6978    1.8100    0.2029 O   0  0  0  0  0  0  0  0  0  0  0  0
    0.0314    1.6872    1.6415 N   0  0  0  0  0  0  0  0  0  0  0  0
    0.7279    1.0858    2.0517 H   0  0  0  0  0  0  0  0  0  0  0  0
   -0.0137    3.0826    2.0755 C   0  0  0  0  0  0  0  0  0  0  0  0
   -0.9991    3.3070    2.4905 H   0  0  0  0  0  0  0  0  0  0  0  0
    0.7468    3.2694    2.8349 H   0  0  0  0  0  0  0  0  0  0  0  0
    0.1592    3.7397    1.2213 H   0  0  0  0  0  0  0  0  0  0  0  0
  5  6  2  0  0  0  0
  5  7  1  0  0  0  0
  2  3  1  0  0  0  0
  2  4  1  0  0  0  0
  2  5  1  0  0  0  0
  1  2  1  0  0  0  0
 22 23  2  0  0  0  0
 22 24  1  0  0  0  0
 18 19  1  0  0  0  0
 18 20  1  0  0  0  0
 18 21  1  0  0  0  0
 17 18  1  0  0  0  0
 14 15  1  0  0  0  0
 14 16  1  0  0  0  0
 14 17  1  0  0  0  0
 11 12  1  0  0  0  0
 11 13  1  0  0  0  0
 11 14  1  0  0  0  0
  9 10  1  0  0  0  0
  9 11  1  0  0  0  0
  9 22  1  0  0  0  0
  7  8  1  0  0  0  0
  7  9  1  0  0  0  0
 26 27  1  0  0  0  0
 26 28  1  0  0  0  0
 26 29  1  0  0  0  0
 24 25  1  0  0  0  0
 24 26  1  0  0  0  0
M  END
$$$$
default_name
  -OEChem-02102213163D

 29 28  0     1  0  0  0  0  0999 V2000
   -3.5781   -3.7296    1.2702 H   0  0  0  0  0  0  0  0  0  0  0  0
   -3.5311   -2.7616    0.7732 C   0  0  0  0  0  0  0  0  0  0  0  0
   -4.2371   -2.0766    1.2382 H   0  0  0  0  0  0  0  0  0  0  0  0
   -3.7681   -2.8816   -0.2818 H   0  0  0  0  0  0  0  0  0  0  0  0
   -2.1321   -2.2086    0.9112 C   0  0  0  0  0  0  0  0  0  0  0  0
   -1.2751   -2.8426    1.5112 O   0  0  0  0  0  0  0  0  0  0  0  0
   -1.9041   -1.0186    0.3602 N   0  0  0  0  0  0  0  0  0  0  0  0
   -2.6671   -0.5416   -0.0988 H   0  0  0  0  0  0  0  0  0  0  0  0
   -0.6131   -0.3236    0.3832 C   0  0  1  0  0  0  0  0  0  0  0  0
    0.0142   -0.7800    1.1506 H   0  0  0  0  0  0  0  0  0  0  0  0
    0.0816   -0.5059   -0.9788 C   0  0  0  0  0  0  0  0  0  0  0  0
    0.8812   -1.2416   -0.8695 H   0  0  0  0  0  0  0  0  0  0  0  0
   -0.6392   -0.8906   -1.7017 H   0  0  0  0  0  0  0  0  0  0  0  0
    0.6895    0.7873   -1.5341 C   0  0  0  0  0  0  0  0  0  0  0  0
    0.1110    1.6376   -1.1741 H   0  0  0  0  0  0  0  0  0  0  0  0
    1.7126    0.8789   -1.1676 H   0  0  0  0  0  0  0  0  0  0  0  0
    0.7222    0.8555   -3.3435 S   0  0  0  0  0  0  0  0  0  0  0  0
    1.9641   -0.4200   -3.6792 C   0  0  0  0  0  0  0  0  0  0  0  0
    1.6244   -1.3772   -3.2825 H   0  0  0  0  0  0  0  0  0  0  0  0
    2.1090   -0.5087   -4.7562 H   0  0  0  0  0  0  0  0  0  0  0  0
    2.9098   -0.1447   -3.2115 H   0  0  0  0  0  0  0  0  0  0  0  0
   -0.8064    1.1568    0.7414 C   0  0  0  0  0  0  0  0  0  0  0  0
   -1.6978    1.8100    0.2029 O   0  0  0  0  0  0  0  0  0  0  0  0
    0.0314    1.6872    1.6415 N   0  0  0  0  0  0  0  0  0  0  0  0
    0.7279    1.0858    2.0517 H   0  0  0  0  0  0  0  0  0  0  0  0
   -0.0137    3.0826    2.0755 C   0  0  0  0  0  0  0  0  0  0  0  0
   -0.9991    3.3070    2.4905 H   0  0  0  0  0  0  0  0  0  0  0  0
    0.7468    3.2694    2.8349 H   0  0  0  0  0  0  0  0  0  0  0  0
    0.1592    3.7397    1.2213 H   0  0  0  0  0  0  0  0  0  0  0  0
  5  6  2  0  0  0  0
  5  7  1  0  0  0  0
  2  3  1  0  0  0  0
  2  4  1  0  0  0  0
  2  5  1  0  0  0  0
  1  2  1  0  0  0  0
 22 23  2  0  0  0  0
 22 24  1  0  0  0  0
 18 19  1  0  0  0  0
 18 20  1  0  0  0  0
 18 21  1  0  0  0  0
 17 18  1  0  0  0  0
 14 15  1  0  0  0  0
 14 16  1  0  0  0  0
 14 17  1  0  0  0  0
 11 12  1  0  0  0  0
 11 13  1  0  0  0  0
 11 14  1  0  0  0  0
  9 10  1  0  0  0  0
  9 11  1  0  0  0  0
  9 22  1  0  0  0  0
  7  8  1  0  0  0  0
  7  9  1  0  0  0  0
 26 27  1  0  0  0  0
 26 28  1  0  0  0  0
 26 29  1  0  0  0  0
 24 25  1  0  0  0  0
 24 26  1  0  0  0  0
M  END
$$$$
default_name
  -OEChem-02102213163D

 29 28  0     1  0  0  0  0  0999 V2000
   -3.5781   -3.7296    1.2702 H   0  0  0  0  0  0  0  0  0  0  0  0
   -3.5311   -2.7616    0.7732 C   0  0  0  0  0  0  0  0  0  0  0  0
   -4.2371   -2.0766    1.2382 H   0  0  0  0  0  0  0  0  0  0  0  0
   -3.7681   -2.8816   -0.2818 H   0  0  0  0  0  0  0  0  0  0  0  0
   -2.1321   -2.2086    0.9112 C   0  0  0  0  0  0  0  0  0  0  0  0
   -1.2751   -2.8426    1.5112 O   0  0  0  0  0  0  0  0  0  0  0  0
   -1.9041   -1.0186    0.3602 N   0  0  0  0  0  0  0  0  0  0  0  0
   -2.6671   -0.5416   -0.0988 H   0  0  0  0  0  0  0  0  0  0  0  0
   -0.6131   -0.3236    0.3832 C   0  0  1  0  0  0  0  0  0  0  0  0
    0.0142   -0.7800    1.1506 H   0  0  0  0  0  0  0  0  0  0  0  0
    0.0816   -0.5059   -0.9788 C   0  0  0  0  0  0  0  0  0  0  0  0
    0.8812   -1.2416   -0.8695 H   0  0  0  0  0  0  0  0  0  0  0  0
   -0.6392   -0.8906   -1.7017 H   0  0  0  0  0  0  0  0  0  0  0  0
    0.6895    0.7873   -1.5341 C   0  0  0  0  0  0  0  0  0  0  0  0
    0.2939    1.6361   -0.9772 H   0  0  0  0  0  0  0  0  0  0  0  0
    1.7711    0.7523   -1.3984 H   0  0  0  0  0  0  0  0  0  0  0  0
    0.3423    1.0567   -3.2909 S   0  0  0  0  0  0  0  0  0  0  0  0
    1.3427   -0.2705   -4.0115 C   0  0  0  0  0  0  0  0  0  0  0  0
    0.9968   -1.2352   -3.6391 H   0  0  0  0  0  0  0  0  0  0  0  0
    1.2443   -0.2486   -5.0972 H   0  0  0  0  0  0  0  0  0  0  0  0
    2.3900   -0.1288   -3.7433 H   0  0  0  0  0  0  0  0  0  0  0  0
   -0.8064    1.1568    0.7414 C   0  0  0  0  0  0  0  0  0  0  0  0
   -1.6978    1.8100    0.2029 O   0  0  0  0  0  0  0  0  0  0  0  0
    0.0314    1.6872    1.6415 N   0  0  0  0  0  0  0  0  0  0  0  0
    0.7279    1.0858    2.0517 H   0  0  0  0  0  0  0  0  0  0  0  0
   -0.0137    3.0826    2.0755 C   0  0  0  0  0  0  0  0  0  0  0  0
   -0.9991    3.3070    2.4905 H   0  0  0  0  0  0  0  0  0  0  0  0
    0.7468    3.2694    2.8349 H   0  0  0  0  0  0  0  0  0  0  0  0
    0.1592    3.7397    1.2213 H   0  0  0  0  0  0  0  0  0  0  0  0
  5  6  2  0  0  0  0
  5  7  1  0  0  0  0
  2  3  1  0  0  0  0
  2  4  1  0  0  0  0
  2  5  1  0  0  0  0
  1  2  1  0  0  0  0
 22 23  2  0  0  0  0
 22 24  1  0  0  0  0
 18 19  1  0  0  0  0
 18 20  1  0  0  0  0
 18 21  1  0  0  0  0
 17 18  1  0  0  0  0
 14 15  1  0  0  0  0
 14 16  1  0  0  0  0
 14 17  1  0  0  0  0
 11 12  1  0  0  0  0
 11 13  1  0  0  0  0
 11 14  1  0  0  0  0
  9 10  1  0  0  0  0
  9 11  1  0  0  0  0
  9 22  1  0  0  0  0
  7  8  1  0  0  0  0
  7  9  1  0  0  0  0
 26 27  1  0  0  0  0
 26 28  1  0  0  0  0
 26 29  1  0  0  0  0
 24 25  1  0  0  0  0
 24 26  1  0  0  0  0
M  END
$$$$
default_name
  -OEChem-02102213163D

 29 28  0     1  0  0  0  0  0999 V2000
   -3.5781   -3.7296    1.2702 H   0  0  0  0  0  0  0  0  0  0  0  0
   -3.5311   -2.7616    0.7732 C   0  0  0  0  0  0  0  0  0  0  0  0
   -4.2371   -2.0766    1.2382 H   0  0  0  0  0  0  0  0  0  0  0  0
   -3.7681   -2.8816   -0.2818 H   0  0  0  0  0  0  0  0  0  0  0  0
   -2.1321   -2.2086    0.9112 C   0  0  0  0  0  0  0  0  0  0  0  0
   -1.2751   -2.8426    1.5112 O   0  0  0  0  0  0  0  0  0  0  0  0
   -1.9041   -1.0186    0.3602 N   0  0  0  0  0  0  0  0  0  0  0  0
   -2.6671   -0.5416   -0.0988 H   0  0  0  0  0  0  0  0  0  0  0  0
   -0.6131   -0.3236    0.3832 C   0  0  1  0  0  0  0  0  0  0  0  0
    0.0142   -0.7800    1.1506 H   0  0  0  0  0  0  0  0  0  0  0  0
    0.0816   -0.5059   -0.9788 C   0  0  0  0  0  0  0  0  0  0  0  0
    0.8812   -1.2416   -0.8695 H   0  0  0  0  0  0  0  0  0  0  0  0
   -0.6392   -0.8906   -1.7017 H   0  0  0  0  0  0  0  0  0  0  0  0
    0.6895    0.7873   -1.5341 C   0  0  0  0  0  0  0  0  0  0  0  0
    0.5133    1.5974   -0.8271 H   0  0  0  0  0  0  0  0  0  0  0  0
    1.7653    0.6483   -1.6471 H   0  0  0  0  0  0  0  0  0  0  0  0
    0.0056    1.2813   -3.1366 S   0  0  0  0  0  0  0  0  0  0  0  0
    0.6840   -0.0339   -4.1815 C   0  0  0  0  0  0  0  0  0  0  0  0
    0.3261   -1.0027   -3.8319 H   0  0  0  0  0  0  0  0  0  0  0  0
    0.3590    0.1187   -5.2111 H   0  0  0  0  0  0  0  0  0  0  0  0
    1.7734   -0.0100   -4.1420 H   0  0  0  0  0  0  0  0  0  0  0  0
   -0.8064    1.1568    0.7414 C   0  0  0  0  0  0  0  0  0  0  0  0
   -1.6978    1.8100    0.2029 O   0  0  0  0  0  0  0  0  0  0  0  0
    0.0314    1.6872    1.6415 N   0  0  0  0  0  0  0  0  0  0  0  0
    0.7279    1.0858    2.0517 H   0  0  0  0  0  0  0  0  0  0  0  0
   -0.0137    3.0826    2.0755 C   0  0  0  0  0  0  0  0  0  0  0  0
   -0.9991    3.3070    2.4905 H   0  0  0  0  0  0  0  0  0  0  0  0
    0.7468    3.2694    2.8349 H   0  0  0  0  0  0  0  0  0  0  0  0
    0.1592    3.7397    1.2213 H   0  0  0  0  0  0  0  0  0  0  0  0
  5  6  2  0  0  0  0
  5  7  1  0  0  0  0
  2  3  1  0  0  0  0
  2  4  1  0  0  0  0
  2  5  1  0  0  0  0
  1  2  1  0  0  0  0
 22 23  2  0  0  0  0
 22 24  1  0  0  0  0
 18 19  1  0  0  0  0
 18 20  1  0  0  0  0
 18 21  1  0  0  0  0
 17 18  1  0  0  0  0
 14 15  1  0  0  0  0
 14 16  1  0  0  0  0
 14 17  1  0  0  0  0
 11 12  1  0  0  0  0
 11 13  1  0  0  0  0
 11 14  1  0  0  0  0
  9 10  1  0  0  0  0
  9 11  1  0  0  0  0
  9 22  1  0  0  0  0
  7  8  1  0  0  0  0
  7  9  1  0  0  0  0
 26 27  1  0  0  0  0
 26 28  1  0  0  0  0
 26 29  1  0  0  0  0
 24 25  1  0  0  0  0
 24 26  1  0  0  0  0
M  END
$$$$
default_name
  -OEChem-02102213163D

 29 28  0     1  0  0  0  0  0999 V2000
   -3.5781   -3.7296    1.2702 H   0  0  0  0  0  0  0  0  0  0  0  0
   -3.5311   -2.7616    0.7732 C   0  0  0  0  0  0  0  0  0  0  0  0
   -4.2371   -2.0766    1.2382 H   0  0  0  0  0  0  0  0  0  0  0  0
   -3.7681   -2.8816   -0.2818 H   0  0  0  0  0  0  0  0  0  0  0  0
   -2.1321   -2.2086    0.9112 C   0  0  0  0  0  0  0  0  0  0  0  0
   -1.2751   -2.8426    1.5112 O   0  0  0  0  0  0  0  0  0  0  0  0
   -1.9041   -1.0186    0.3602 N   0  0  0  0  0  0  0  0  0  0  0  0
   -2.6671   -0.5416   -0.0988 H   0  0  0  0  0  0  0  0  0  0  0  0
   -0.6131   -0.3236    0.3832 C   0  0  1  0  0  0  0  0  0  0  0  0
    0.0142   -0.7800    1.1506 H   0  0  0  0  0  0  0  0  0  0  0  0
    0.0816   -0.5059   -0.9788 C   0  0  0  0  0  0  0  0  0  0  0  0
    0.8812   -1.2416   -0.8695 H   0  0  0  0  0  0  0  0  0  0  0  0
   -0.6392   -0.8906   -1.7017 H   0  0  0  0  0  0  0  0  0  0  0  0
    0.6895    0.7873   -1.5341 C   0  0  0  0  0  0  0  0  0  0  0  0
    0.7545    1.5240   -0.7340 H   0  0  0  0  0  0  0  0  0  0  0  0
    1.6957    0.5738   -1.8967 H   0  0  0  0  0  0  0  0  0  0  0  0
   -0.2648    1.5139   -2.8909 S   0  0  0  0  0  0  0  0  0  0  0  0
    0.0328    0.2740   -4.1776 C   0  0  0  0  0  0  0  0  0  0  0  0
   -0.3421   -0.6954   -3.8478 H   0  0  0  0  0  0  0  0  0  0  0  0
   -0.4866    0.5681   -5.0901 H   0  0  0  0  0  0  0  0  0  0  0  0
    1.1018    0.2034   -4.3803 H   0  0  0  0  0  0  0  0  0  0  0  0
   -0.8064    1.1568    0.7414 C   0  0  0  0  0  0  0  0  0  0  0  0
   -1.6978    1.8100    0.2029 O   0  0  0  0  0  0  0  0  0  0  0  0
    0.0314    1.6872    1.6415 N   0  0  0  0  0  0  0  0  0  0  0  0
    0.7279    1.0858    2.0517 H   0  0  0  0  0  0  0  0  0  0  0  0
   -0.0137    3.0826    2.0755 C   0  0  0  0  0  0  0  0  0  0  0  0
   -0.9991    3.3070    2.4905 H   0  0  0  0  0  0  0  0  0  0  0  0
    0.7468    3.2694    2.8349 H   0  0  0  0  0  0  0  0  0  0  0  0
    0.1592    3.7397    1.2213 H   0  0  0  0  0  0  0  0  0  0  0  0
  5  6  2  0  0  0  0
  5  7  1  0  0  0  0
  2  3  1  0  0  0  0
  2  4  1  0  0  0  0
  2  5  1  0  0  0  0
  1  2  1  0  0  0  0
 22 23  2  0  0  0  0
 22 24  1  0  0  0  0
 18 19  1  0  0  0  0
 18 20  1  0  0  0  0
 18 21  1  0  0  0  0
 17 18  1  0  0  0  0
 14 15  1  0  0  0  0
 14 16  1  0  0  0  0
 14 17  1  0  0  0  0
 11 12  1  0  0  0  0
 11 13  1  0  0  0  0
 11 14  1  0  0  0  0
  9 10  1  0  0  0  0
  9 11  1  0  0  0  0
  9 22  1  0  0  0  0
  7  8  1  0  0  0  0
  7  9  1  0  0  0  0
 26 27  1  0  0  0  0
 26 28  1  0  0  0  0
 26 29  1  0  0  0  0
 24 25  1  0  0  0  0
 24 26  1  0  0  0  0
M  END
$$$$
default_name
  -OEChem-02102213163D

 29 28  0     1  0  0  0  0  0999 V2000
   -3.5781   -3.7296    1.2702 H   0  0  0  0  0  0  0  0  0  0  0  0
   -3.5311   -2.7616    0.7732 C   0  0  0  0  0  0  0  0  0  0  0  0
   -4.2371   -2.0766    1.2382 H   0  0  0  0  0  0  0  0  0  0  0  0
   -3.7681   -2.8816   -0.2818 H   0  0  0  0  0  0  0  0  0  0  0  0
   -2.1321   -2.2086    0.9112 C   0  0  0  0  0  0  0  0  0  0  0  0
   -1.2751   -2.8426    1.5112 O   0  0  0  0  0  0  0  0  0  0  0  0
   -1.9041   -1.0186    0.3602 N   0  0  0  0  0  0  0  0  0  0  0  0
   -2.6671   -0.5416   -0.0988 H   0  0  0  0  0  0  0  0  0  0  0  0
   -0.6131   -0.3236    0.3832 C   0  0  1  0  0  0  0  0  0  0  0  0
    0.0142   -0.7800    1.1506 H   0  0  0  0  0  0  0  0  0  0  0  0
    0.0816   -0.5059   -0.9788 C   0  0  0  0  0  0  0  0  0  0  0  0
    0.8812   -1.2416   -0.8695 H   0  0  0  0  0  0  0  0  0  0  0  0
   -0.6392   -0.8906   -1.7017 H   0  0  0  0  0  0  0  0  0  0  0  0
    0.6895    0.7873   -1.5341 C   0  0  0  0  0  0  0  0  0  0  0  0
    1.0008    1.4210   -0.7042 H   0  0  0  0  0  0  0  0  0  0  0  0
    1.5670    0.5341   -2.1302 H   0  0  0  0  0  0  0  0  0  0  0  0
   -0.4506    1.7387   -2.5707 S   0  0  0  0  0  0  0  0  0  0  0  0
   -0.5666    0.6319   -4.0001 C   0  0  0  0  0  0  0  0  0  0  0  0
   -0.9622   -0.3343   -3.6858 H   0  0  0  0  0  0  0  0  0  0  0  0
   -1.2348    1.0691   -4.7425 H   0  0  0  0  0  0  0  0  0  0  0  0
    0.4211    0.4969   -4.4419 H   0  0  0  0  0  0  0  0  0  0  0  0
   -0.8064    1.1568    0.7414 C   0  0  0  0  0  0  0  0  0  0  0  0
   -1.6978    1.8100    0.2029 O   0  0  0  0  0  0  0  0  0  0  0  0
    0.0314    1.6872    1.6415 N   0  0  0  0  0  0  0  0  0  0  0  0
    0.7279    1.0858    2.0517 H   0  0  0  0  0  0  0  0  0  0  0  0
   -0.0137    3.0826    2.0755 C   0  0  0  0  0  0  0  0  0  0  0  0
   -0.9991    3.3070    2.4905 H   0  0  0  0  0  0  0  0  0  0  0  0
    0.7468    3.2694    2.8349 H   0  0  0  0  0  0  0  0  0  0  0  0
    0.1592    3.7397    1.2213 H   0  0  0  0  0  0  0  0  0  0  0  0
  5  6  2  0  0  0  0
  5  7  1  0  0  0  0
  2  3  1  0  0  0  0
  2  4  1  0  0  0  0
  2  5  1  0  0  0  0
  1  2  1  0  0  0  0
 22 23  2  0  0  0  0
 22 24  1  0  0  0  0
 18 19  1  0  0  0  0
 18 20  1  0  0  0  0
 18 21  1  0  0  0  0
 17 18  1  0  0  0  0
 14 15  1  0  0  0  0
 14 16  1  0  0  0  0
 14 17  1  0  0  0  0
 11 12  1  0  0  0  0
 11 13  1  0  0  0  0
 11 14  1  0  0  0  0
  9 10  1  0  0  0  0
  9 11  1  0  0  0  0
  9 22  1  0  0  0  0
  7  8  1  0  0  0  0
  7  9  1  0  0  0  0
 26 27  1  0  0  0  0
 26 28  1  0  0  0  0
 26 29  1  0  0  0  0
 24 25  1  0  0  0  0
 24 26  1  0  0  0  0
M  END
$$$$
default_name
  -OEChem-02102213163D

 29 28  0     1  0  0  0  0  0999 V2000
   -3.5781   -3.7296    1.2702 H   0  0  0  0  0  0  0  0  0  0  0  0
   -3.5311   -2.7616    0.7732 C   0  0  0  0  0  0  0  0  0  0  0  0
   -4.2371   -2.0766    1.2382 H   0  0  0  0  0  0  0  0  0  0  0  0
   -3.7681   -2.8816   -0.2818 H   0  0  0  0  0  0  0  0  0  0  0  0
   -2.1321   -2.2086    0.9112 C   0  0  0  0  0  0  0  0  0  0  0  0
   -1.2751   -2.8426    1.5112 O   0  0  0  0  0  0  0  0  0  0  0  0
   -1.9041   -1.0186    0.3602 N   0  0  0  0  0  0  0  0  0  0  0  0
   -2.6671   -0.5416   -0.0988 H   0  0  0  0  0  0  0  0  0  0  0  0
   -0.6131   -0.3236    0.3832 C   0  0  1  0  0  0  0  0  0  0  0  0
    0.0142   -0.7800    1.1506 H   0  0  0  0  0  0  0  0  0  0  0  0
    0.0816   -0.5059   -0.9788 C   0  0  0  0  0  0  0  0  0  0  0  0
    0.8812   -1.2416   -0.8695 H   0  0  0  0  0  0  0  0  0  0  0  0
   -0.6392   -0.8906   -1.7017 H   0  0  0  0  0  0  0  0  0  0  0  0
    0.6895    0.7873   -1.5341 C   0  0  0  0  0  0  0  0  0  0  0  0
    1.2356    1.2953   -0.7398 H   0  0  0  0  0  0  0  0  0  0  0  0
    1.3879    0.5317   -2.3318 H   0  0  0  0  0  0  0  0  0  0  0  0
   -0.5391    1.9405   -2.1977 S   0  0  0  0  0  0  0  0  0  0  0  0
   -1.0731    1.0157   -3.6611 C   0  0  0  0  0  0  0  0  0  0  0  0
   -1.4919    0.0559   -3.3569 H   0  0  0  0  0  0  0  0  0  0  0  0
   -1.8347    1.5875   -4.1920 H   0  0  0  0  0  0  0  0  0  0  0  0
   -0.2223    0.8506   -4.3227 H   0  0  0  0  0  0  0  0  0  0  0  0
   -0.8064    1.1568    0.7414 C   0  0  0  0  0  0  0  0  0  0  0  0
   -1.6978    1.8100    0.2029 O   0  0  0  0  0  0  0  0  0  0  0  0
    0.0314    1.6872    1.6415 N   0  0  0  0  0  0  0  0  0  0  0  0
    0.7279    1.0858    2.0517 H   0  0  0  0  0  0  0  0  0  0  0  0
   -0.0137    3.0826    2.0755 C   0  0  0  0  0  0  0  0  0  0  0  0
   -0.9991    3.3070    2.4905 H   0  0  0  0  0  0  0  0  0  0  0  0
    0.7468    3.2694    2.8349 H   0  0  0  0  0  0  0  0  0  0  0  0
    0.1592    3.7397    1.2213 H   0  0  0  0  0  0  0  0  0  0  0  0
  5  6  2  0  0  0  0
  5  7  1  0  0  0  0
  2  3  1  0  0  0  0
  2  4  1  0  0  0  0
  2  5  1  0  0  0  0
  1  2  1  0  0  0  0
 22 23  2  0  0  0  0
 22 24  1  0  0  0  0
 18 19  1  0  0  0  0
 18 20  1  0  0  0  0
 18 21  1  0  0  0  0
 17 18  1  0  0  0  0
 14 15  1  0  0  0  0
 14 16  1  0  0  0  0
 14 17  1  0  0  0  0
 11 12  1  0  0  0  0
 11 13  1  0  0  0  0
 11 14  1  0  0  0  0
  9 10  1  0  0  0  0
  9 11  1  0  0  0  0
  9 22  1  0  0  0  0
  7  8  1  0  0  0  0
  7  9  1  0  0  0  0
 26 27  1  0  0  0  0
 26 28  1  0  0  0  0
 26 29  1  0  0  0  0
 24 25  1  0  0  0  0
 24 26  1  0  0  0  0
M  END
$$$$
default_name
  -OEChem-02102213163D

 29 28  0     1  0  0  0  0  0999 V2000
   -3.5781   -3.7296    1.2702 H   0  0  0  0  0  0  0  0  0  0  0  0
   -3.5311   -2.7616    0.7732 C   0  0  0  0  0  0  0  0  0  0  0  0
   -4.2371   -2.0766    1.2382 H   0  0  0  0  0  0  0  0  0  0  0  0
   -3.7681   -2.8816   -0.2818 H   0  0  0  0  0  0  0  0  0  0  0  0
   -2.1321   -2.2086    0.9112 C   0  0  0  0  0  0  0  0  0  0  0  0
   -1.2751   -2.8426    1.5112 O   0  0  0  0  0  0  0  0  0  0  0  0
   -1.9041   -1.0186    0.3602 N   0  0  0  0  0  0  0  0  0  0  0  0
   -2.6671   -0.5416   -0.0988 H   0  0  0  0  0  0  0  0  0  0  0  0
   -0.6131   -0.3236    0.3832 C   0  0  1  0  0  0  0  0  0  0  0  0
    0.0142   -0.7800    1.1506 H   0  0  0  0  0  0  0  0  0  0  0  0
    0.0816   -0.5059   -0.9788 C   0  0  0  0  0  0  0  0  0  0  0  0
    0.8812   -1.2416   -0.8695 H   0  0  0  0  0  0  0  0  0  0  0  0
   -0.6392   -0.8906   -1.7017 H   0  0  0  0  0  0  0  0  0  0  0  0
    0.6895    0.7873   -1.5341 C   0  0  0  0  0  0  0  0  0  0  0  0
    1.4429    1.1556   -0.8384 H   0  0  0  0  0  0  0  0  0  0  0  0
    1.1707    0.5669   -2.4876 H   0  0  0  0  0  0  0  0  0  0  0  0
   -0.5242    2.1053   -1.7975 S   0  0  0  0  0  0  0  0  0  0  0  0
   -1.4525    1.3990   -3.1836 C   0  0  0  0  0  0  0  0  0  0  0  0
   -1.8952    0.4488   -2.8834 H   0  0  0  0  0  0  0  0  0  0  0  0
   -2.2453    2.0880   -3.4760 H   0  0  0  0  0  0  0  0  0  0  0  0
   -0.7846    1.2403   -4.0307 H   0  0  0  0  0  0  0  0  0  0  0  0
   -0.8064    1.1568    0.7414 C   0  0  0  0  0  0  0  0  0  0  0  0
   -1.6978    1.8100    0.2029 O   0  0  0  0  0  0  0  0  0  0  0  0
    0.0314    1.6872    1.6415 N   0  0  0  0  0  0  0  0  0  0  0  0
    0.7279    1.0858    2.0517 H   0  0  0  0  0  0  0  0  0  0  0  0
   -0.0137    3.0826    2.0755 C   0  0  0  0  0  0  0  0  0  0  0  0
   -0.9991    3.3070    2.4905 H   0  0  0  0  0  0  0  0  0  0  0  0
    0.7468    3.2694    2.8349 H   0  0  0  0  0  0  0  0  0  0  0  0
    0.1592    3.7397    1.2213 H   0  0  0  0  0  0  0  0  0  0  0  0
  5  6  2  0  0  0  0
  5  7  1  0  0  0  0
  2  3  1  0  0  0  0
  2  4  1  0  0  0  0
  2  5  1  0  0  0  0
  1  2  1  0  0  0  0
 22 23  2  0  0  0  0
 22 24  1  0  0  0  0
 18 19  1  0  0  0  0
 18 20  1  0  0  0  0
 18 21  1  0  0  0  0
 17 18  1  0  0  0  0
 14 15  1  0  0  0  0
 14 16  1  0  0  0  0
 14 17  1  0  0  0  0
 11 12  1  0  0  0  0
 11 13  1  0  0  0  0
 11 14  1  0  0  0  0
  9 10  1  0  0  0  0
  9 11  1  0  0  0  0
  9 22  1  0  0  0  0
  7  8  1  0  0  0  0
  7  9  1  0  0  0  0
 26 27  1  0  0  0  0
 26 28  1  0  0  0  0
 26 29  1  0  0  0  0
 24 25  1  0  0  0  0
 24 26  1  0  0  0  0
M  END
$$$$
default_name
  -OEChem-02102213163D

 29 28  0     1  0  0  0  0  0999 V2000
   -3.5781   -3.7296    1.2702 H   0  0  0  0  0  0  0  0  0  0  0  0
   -3.5311   -2.7616    0.7732 C   0  0  0  0  0  0  0  0  0  0  0  0
   -4.2371   -2.0766    1.2382 H   0  0  0  0  0  0  0  0  0  0  0  0
   -3.7681   -2.8816   -0.2818 H   0  0  0  0  0  0  0  0  0  0  0  0
   -2.1321   -2.2086    0.9112 C   0  0  0  0  0  0  0  0  0  0  0  0
   -1.2751   -2.8426    1.5112 O   0  0  0  0  0  0  0  0  0  0  0  0
   -1.9041   -1.0186    0.3602 N   0  0  0  0  0  0  0  0  0  0  0  0
   -2.6671   -0.5416   -0.0988 H   0  0  0  0  0  0  0  0  0  0  0  0
   -0.6131   -0.3236    0.3832 C   0  0  1  0  0  0  0  0  0  0  0  0
    0.0142   -0.7800    1.1506 H   0  0  0  0  0  0  0  0  0  0  0  0
    0.0816   -0.5059   -0.9788 C   0  0  0  0  0  0  0  0  0  0  0  0
    0.8812   -1.2416   -0.8695 H   0  0  0  0  0  0  0  0  0  0  0  0
   -0.6392   -0.8906   -1.7017 H   0  0  0  0  0  0  0  0  0  0  0  0
    0.6895    0.7873   -1.5341 C   0  0  0  0  0  0  0  0  0  0  0  0
    1.6085    1.0113   -0.9932 H   0  0  0  0  0  0  0  0  0  0  0  0
    0.9302    0.6372   -2.5872 H   0  0  0  0  0  0  0  0  0  0  0  0
   -0.4070    2.2221   -1.3972 S   0  0  0  0  0  0  0  0  0  0  0  0
   -1.6787    1.7559   -2.6002 C   0  0  0  0  0  0  0  0  0  0  0  0
   -2.1445    0.8175   -2.2977 H   0  0  0  0  0  0  0  0  0  0  0  0
   -2.4388    2.5364   -2.6434 H   0  0  0  0  0  0  0  0  0  0  0  0
   -1.2275    1.6395   -3.5860 H   0  0  0  0  0  0  0  0  0  0  0  0
   -0.8064    1.1568    0.7414 C   0  0  0  0  0  0  0  0  0  0  0  0
   -1.6978    1.8100    0.2029 O   0  0  0  0  0  0  0  0  0  0  0  0
    0.0314    1.6872    1.6415 N   0  0  0  0  0  0  0  0  0  0  0  0
    0.7279    1.0858    2.0517 H   0  0  0  0  0  0  0  0  0  0  0  0
   -0.0137    3.0826    2.0755 C   0  0  0  0  0  0  0  0  0  0  0  0
   -0.9991    3.3070    2.4905 H   0  0  0  0  0  0  0  0  0  0  0  0
    0.7468    3.2694    2.8349 H   0  0  0  0  0  0  0  0  0  0  0  0
    0.1592    3.7397    1.2213 H   0  0  0  0  0  0  0  0  0  0  0  0
  5  6  2  0  0  0  0
  5  7  1  0  0  0  0
  2  3  1  0  0  0  0
  2  4  1  0  0  0  0
  2  5  1  0  0  0  0
  1  2  1  0  0  0  0
 22 23  2  0  0  0  0
 22 24  1  0  0  0  0
 18 19  1  0  0  0  0
 18 20  1  0  0  0  0
 18 21  1  0  0  0  0
 17 18  1  0  0  0  0
 14 15  1  0  0  0  0
 14 16  1  0  0  0  0
 14 17  1  0  0  0  0
 11 12  1  0  0  0  0
 11 13  1  0  0  0  0
 11 14  1  0  0  0  0
  9 10  1  0  0  0  0
  9 11  1  0  0  0  0
  9 22  1  0  0  0  0
  7  8  1  0  0  0  0
  7  9  1  0  0  0  0
 26 27  1  0  0  0  0
 26 28  1  0  0  0  0
 26 29  1  0  0  0  0
 24 25  1  0  0  0  0
 24 26  1  0  0  0  0
M  END
$$$$
default_name
  -OEChem-02102213163D

 29 28  0     1  0  0  0  0  0999 V2000
   -3.5781   -3.7296    1.2702 H   0  0  0  0  0  0  0  0  0  0  0  0
   -3.5311   -2.7616    0.7732 C   0  0  0  0  0  0  0  0  0  0  0  0
   -4.2371   -2.0766    1.2382 H   0  0  0  0  0  0  0  0  0  0  0  0
   -3.7681   -2.8816   -0.2818 H   0  0  0  0  0  0  0  0  0  0  0  0
   -2.1321   -2.2086    0.9112 C   0  0  0  0  0  0  0  0  0  0  0  0
   -1.2751   -2.8426    1.5112 O   0  0  0  0  0  0  0  0  0  0  0  0
   -1.9041   -1.0186    0.3602 N   0  0  0  0  0  0  0  0  0  0  0  0
   -2.6671   -0.5416   -0.0988 H   0  0  0  0  0  0  0  0  0  0  0  0
   -0.6131   -0.3236    0.3832 C   0  0  1  0  0  0  0  0  0  0  0  0
    0.0142   -0.7800    1.1506 H   0  0  0  0  0  0  0  0  0  0  0  0
    0.0816   -0.5059   -0.9788 C   0  0  0  0  0  0  0  0  0  0  0  0
    0.8812   -1.2416   -0.8695 H   0  0  0  0  0  0  0  0  0  0  0  0
   -0.6392   -0.8906   -1.7017 H   0  0  0  0  0  0  0  0  0  0  0  0
    0.6895    0.7873   -1.5341 C   0  0  0  0  0  0  0  0  0  0  0  0
    1.7211    0.8723   -1.1936 H   0  0  0  0  0  0  0  0  0  0  0  0
    0.6828    0.7379   -2.6236 H   0  0  0  0  0  0  0  0  0  0  0  0
   -0.1954    2.2828   -1.0242 S   0  0  0  0  0  0  0  0  0  0  0  0
   -1.7364    2.0619   -1.9507 C   0  0  0  0  0  0  0  0  0  0  0  0
   -2.2230    1.1369   -1.6397 H   0  0  0  0  0  0  0  0  0  0  0  0
   -2.4018    2.9022   -1.7510 H   0  0  0  0  0  0  0  0  0  0  0  0
   -1.5208    2.0210   -3.0187 H   0  0  0  0  0  0  0  0  0  0  0  0
   -0.8064    1.1568    0.7414 C   0  0  0  0  0  0  0  0  0  0  0  0
   -1.6978    1.8100    0.2029 O   0  0  0  0  0  0  0  0  0  0  0  0
    0.0314    1.6872    1.6415 N   0  0  0  0  0  0  0  0  0  0  0  0
    0.7279    1.0858    2.0517 H   0  0  0  0  0  0  0  0  0  0  0  0
   -0.0137    3.0826    2.0755 C   0  0  0  0  0  0  0  0  0  0  0  0
   -0.9991    3.3070    2.4905 H   0  0  0  0  0  0  0  0  0  0  0  0
    0.7468    3.2694    2.8349 H   0  0  0  0  0  0  0  0  0  0  0  0
    0.1592    3.7397    1.2213 H   0  0  0  0  0  0  0  0  0  0  0  0
  5  6  2  0  0  0  0
  5  7  1  0  0  0  0
  2  3  1  0  0  0  0
  2  4  1  0  0  0  0
  2  5  1  0  0  0  0
  1  2  1  0  0  0  0
 22 23  2  0  0  0  0
 22 24  1  0  0  0  0
 18 19  1  0  0  0  0
 18 20  1  0  0  0  0
 18 21  1  0  0  0  0
 17 18  1  0  0  0  0
 14 15  1  0  0  0  0
 14 16  1  0  0  0  0
 14 17  1  0  0  0  0
 11 12  1  0  0  0  0
 11 13  1  0  0  0  0
 11 14  1  0  0  0  0
  9 10  1  0  0  0  0
  9 11  1  0  0  0  0
  9 22  1  0  0  0  0
  7  8  1  0  0  0  0
  7  9  1  0  0  0  0
 26 27  1  0  0  0  0
 26 28  1  0  0  0  0
 26 29  1  0  0  0  0
 24 25  1  0  0  0  0
 24 26  1  0  0  0  0
M  END
$$$$
default_name
  -OEChem-02102213163D

 29 28  0     1  0  0  0  0  0999 V2000
   -3.5781   -3.7296    1.2702 H   0  0  0  0  0  0  0  0  0  0  0  0
   -3.5311   -2.7616    0.7732 C   0  0  0  0  0  0  0  0  0  0  0  0
   -4.2371   -2.0766    1.2382 H   0  0  0  0  0  0  0  0  0  0  0  0
   -3.7681   -2.8816   -0.2818 H   0  0  0  0  0  0  0  0  0  0  0  0
   -2.1321   -2.2086    0.9112 C   0  0  0  0  0  0  0  0  0  0  0  0
   -1.2751   -2.8426    1.5112 O   0  0  0  0  0  0  0  0  0  0  0  0
   -1.9041   -1.0186    0.3602 N   0  0  0  0  0  0  0  0  0  0  0  0
   -2.6671   -0.5416   -0.0988 H   0  0  0  0  0  0  0  0  0  0  0  0
   -0.6131   -0.3236    0.3832 C   0  0  1  0  0  0  0  0  0  0  0  0
    0.0142   -0.7800    1.1506 H   0  0  0  0  0  0  0  0  0  0  0  0
    0.0816   -0.5059   -0.9788 C   0  0  0  0  0  0  0  0  0  0  0  0
    0.8812   -1.2416   -0.8695 H   0  0  0  0  0  0  0  0  0  0  0  0
   -0.6392   -0.8906   -1.7017 H   0  0  0  0  0  0  0  0  0  0  0  0
    0.6895    0.7873   -1.5341 C   0  0  0  0  0  0  0  0  0  0  0  0
    1.7730    0.7480   -1.4261 H   0  0  0  0  0  0  0  0  0  0  0  0
    0.4453    0.8621   -2.5943 H   0  0  0  0  0  0  0  0  0  0  0  0
    0.0961    2.2833   -0.7038 S   0  0  0  0  0  0  0  0  0  0  0  0
   -1.6216    2.2962   -1.2793 C   0  0  0  0  0  0  0  0  0  0  0  0
   -2.1251    1.3853   -0.9542 H   0  0  0  0  0  0  0  0  0  0  0  0
   -2.1370    3.1605   -0.8595 H   0  0  0  0  0  0  0  0  0  0  0  0
   -1.6445    2.3587   -2.3676 H   0  0  0  0  0  0  0  0  0  0  0  0
   -0.8064    1.1568    0.7414 C   0  0  0  0  0  0  0  0  0  0  0  0
   -1.6978    1.8100    0.2029 O   0  0  0  0  0  0  0  0  0  0  0  0
    0.0314    1.6872    1.6415 N   0  0  0  0  0  0  0  0  0  0  0  0
    0.7279    1.0858    2.0517 H   0  0  0  0  0  0  0  0  0  0  0  0
   -0.0137    3.0826    2.0755 C   0  0  0  0  0  0  0  0  0  0  0  0
   -0.9991    3.3070    2.4905 H   0  0  0  0  0  0  0  0  0  0  0  0
    0.7468    3.2694    2.8349 H   0  0  0  0  0  0  0  0  0  0  0  0
    0.1592    3.7397    1.2213 H   0  0  0  0  0  0  0  0  0  0  0  0
  5  6  2  0  0  0  0
  5  7  1  0  0  0  0
  2  3  1  0  0  0  0
  2  4  1  0  0  0  0
  2  5  1  0  0  0  0
  1  2  1  0  0  0  0
 22 23  2  0  0  0  0
 22 24  1  0  0  0  0
 18 19  1  0  0  0  0
 18 20  1  0  0  0  0
 18 21  1  0  0  0  0
 17 18  1  0  0  0  0
 14 15  1  0  0  0  0
 14 16  1  0  0  0  0
 14 17  1  0  0  0  0
 11 12  1  0  0  0  0
 11 13  1  0  0  0  0
 11 14  1  0  0  0  0
  9 10  1  0  0  0  0
  9 11  1  0  0  0  0
  9 22  1  0  0  0  0
  7  8  1  0  0  0  0
  7  9  1  0  0  0  0
 26 27  1  0  0  0  0
 26 28  1  0  0  0  0
 26 29  1  0  0  0  0
 24 25  1  0  0  0  0
 24 26  1  0  0  0  0
M  END
$$$$
default_name
  -OEChem-02102213163D

 29 28  0     1  0  0  0  0  0999 V2000
   -3.5781   -3.7296    1.2702 H   0  0  0  0  0  0  0  0  0  0  0  0
   -3.5311   -2.7616    0.7732 C   0  0  0  0  0  0  0  0  0  0  0  0
   -4.2371   -2.0766    1.2382 H   0  0  0  0  0  0  0  0  0  0  0  0
   -3.7681   -2.8816   -0.2818 H   0  0  0  0  0  0  0  0  0  0  0  0
   -2.1321   -2.2086    0.9112 C   0  0  0  0  0  0  0  0  0  0  0  0
   -1.2751   -2.8426    1.5112 O   0  0  0  0  0  0  0  0  0  0  0  0
   -1.9041   -1.0186    0.3602 N   0  0  0  0  0  0  0  0  0  0  0  0
   -2.6671   -0.5416   -0.0988 H   0  0  0  0  0  0  0  0  0  0  0  0
   -0.6131   -0.3236    0.3832 C   0  0  1  0  0  0  0  0  0  0  0  0
    0.0142   -0.7800    1.1506 H   0  0  0  0  0  0  0  0  0  0  0  0
    0.0816   -0.5059   -0.9788 C   0  0  0  0  0  0  0  0  0  0  0  0
    0.8812   -1.2416   -0.8695 H   0  0  0  0  0  0  0  0  0  0  0  0
   -0.6392   -0.8906   -1.7017 H   0  0  0  0  0  0  0  0  0  0  0  0
    0.6895    0.7873   -1.5341 C   0  0  0  0  0  0  0  0  0  0  0  0
    1.7608    0.6470   -1.6748 H   0  0  0  0  0  0  0  0  0  0  0  0
    0.2339    1.0014   -2.5015 H   0  0  0  0  0  0  0  0  0  0  0  0
    0.4476    2.2236   -0.4579 S   0  0  0  0  0  0  0  0  0  0  0  0
   -1.3422    2.4429   -0.6317 C   0  0  0  0  0  0  0  0  0  0  0  0
   -1.8577    1.5456   -0.2880 H   0  0  0  0  0  0  0  0  0  0  0  0
   -1.6623    3.2937   -0.0296 H   0  0  0  0  0  0  0  0  0  0  0  0
   -1.5901    2.6297   -1.6770 H   0  0  0  0  0  0  0  0  0  0  0  0
   -0.8064    1.1568    0.7414 C   0  0  0  0  0  0  0  0  0  0  0  0
   -1.6978    1.8100    0.2029 O   0  0  0  0  0  0  0  0  0  0  0  0
    0.0314    1.6872    1.6415 N   0  0  0  0  0  0  0  0  0  0  0  0
    0.7279    1.0858    2.0517 H   0  0  0  0  0  0  0  0  0  0  0  0
   -0.0137    3.0826    2.0755 C   0  0  0  0  0  0  0  0  0  0  0  0
   -0.9991    3.3070    2.4905 H   0  0  0  0  0  0  0  0  0  0  0  0
    0.7468    3.2694    2.8349 H   0  0  0  0  0  0  0  0  0  0  0  0
    0.1592    3.7397    1.2213 H   0  0  0  0  0  0  0  0  0  0  0  0
  5  6  2  0  0  0  0
  5  7  1  0  0  0  0
  2  3  1  0  0  0  0
  2  4  1  0  0  0  0
  2  5  1  0  0  0  0
  1  2  1  0  0  0  0
 22 23  2  0  0  0  0
 22 24  1  0  0  0  0
 18 19  1  0  0  0  0
 18 20  1  0  0  0  0
 18 21  1  0  0  0  0
 17 18  1  0  0  0  0
 14 15  1  0  0  0  0
 14 16  1  0  0  0  0
 14 17  1  0  0  0  0
 11 12  1  0  0  0  0
 11 13  1  0  0  0  0
 11 14  1  0  0  0  0
  9 10  1  0  0  0  0
  9 11  1  0  0  0  0
  9 22  1  0  0  0  0
  7  8  1  0  0  0  0
  7  9  1  0  0  0  0
 26 27  1  0  0  0  0
 26 28  1  0  0  0  0
 26 29  1  0  0  0  0
 24 25  1  0  0  0  0
 24 26  1  0  0  0  0
M  END
$$$$
default_name
  -OEChem-02102213163D

 29 28  0     1  0  0  0  0  0999 V2000
   -3.5781   -3.7296    1.2702 H   0  0  0  0  0  0  0  0  0  0  0  0
   -3.5311   -2.7616    0.7732 C   0  0  0  0  0  0  0  0  0  0  0  0
   -4.2371   -2.0766    1.2382 H   0  0  0  0  0  0  0  0  0  0  0  0
   -3.7681   -2.8816   -0.2818 H   0  0  0  0  0  0  0  0  0  0  0  0
   -2.1321   -2.2086    0.9112 C   0  0  0  0  0  0  0  0  0  0  0  0
   -1.2751   -2.8426    1.5112 O   0  0  0  0  0  0  0  0  0  0  0  0
   -1.9041   -1.0186    0.3602 N   0  0  0  0  0  0  0  0  0  0  0  0
   -2.6671   -0.5416   -0.0988 H   0  0  0  0  0  0  0  0  0  0  0  0
   -0.6131   -0.3236    0.3832 C   0  0  1  0  0  0  0  0  0  0  0  0
    0.0142   -0.7800    1.1506 H   0  0  0  0  0  0  0  0  0  0  0  0
    0.0816   -0.5059   -0.9788 C   0  0  0  0  0  0  0  0  0  0  0  0
    0.8812   -1.2416   -0.8695 H   0  0  0  0  0  0  0  0  0  0  0  0
   -0.6392   -0.8906   -1.7017 H   0  0  0  0  0  0  0  0  0  0  0  0
    0.6895    0.7873   -1.5341 C   0  0  0  0  0  0  0  0  0  0  0  0
    1.6853    0.5760   -1.9227 H   0  0  0  0  0  0  0  0  0  0  0  0
    0.0630    1.1462   -2.3514 H   0  0  0  0  0  0  0  0  0  0  0  0
    0.8353    2.1078   -0.3033 S   0  0  0  0  0  0  0  0  0  0  0  0
   -0.9172    2.4919   -0.0522 C   0  0  0  0  0  0  0  0  0  0  0  0
   -1.4388    1.6070    0.3137 H   0  0  0  0  0  0  0  0  0  0  0  0
   -1.0101    3.2926    0.6820 H   0  0  0  0  0  0  0  0  0  0  0  0
   -1.3615    2.8154   -0.9940 H   0  0  0  0  0  0  0  0  0  0  0  0
   -0.8064    1.1568    0.7414 C   0  0  0  0  0  0  0  0  0  0  0  0
   -1.6978    1.8100    0.2029 O   0  0  0  0  0  0  0  0  0  0  0  0
    0.0314    1.6872    1.6415 N   0  0  0  0  0  0  0  0  0  0  0  0
    0.7279    1.0858    2.0517 H   0  0  0  0  0  0  0  0  0  0  0  0
   -0.0137    3.0826    2.0755 C   0  0  0  0  0  0  0  0  0  0  0  0
   -0.9991    3.3070    2.4905 H   0  0  0  0  0  0  0  0  0  0  0  0
    0.7468    3.2694    2.8349 H   0  0  0  0  0  0  0  0  0  0  0  0
    0.1592    3.7397    1.2213 H   0  0  0  0  0  0  0  0  0  0  0  0
  5  6  2  0  0  0  0
  5  7  1  0  0  0  0
  2  3  1  0  0  0  0
  2  4  1  0  0  0  0
  2  5  1  0  0  0  0
  1  2  1  0  0  0  0
 22 23  2  0  0  0  0
 22 24  1  0  0  0  0
 18 19  1  0  0  0  0
 18 20  1  0  0  0  0
 18 21  1  0  0  0  0
 17 18  1  0  0  0  0
 14 15  1  0  0  0  0
 14 16  1  0  0  0  0
 14 17  1  0  0  0  0
 11 12  1  0  0  0  0
 11 13  1  0  0  0  0
 11 14  1  0  0  0  0
  9 10  1  0  0  0  0
  9 11  1  0  0  0  0
  9 22  1  0  0  0  0
  7  8  1  0  0  0  0
  7  9  1  0  0  0  0
 26 27  1  0  0  0  0
 26 28  1  0  0  0  0
 26 29  1  0  0  0  0
 24 25  1  0  0  0  0
 24 26  1  0  0  0  0
M  END
$$$$
default_name
  -OEChem-02102213163D

 29 28  0     1  0  0  0  0  0999 V2000
   -3.5781   -3.7296    1.2702 H   0  0  0  0  0  0  0  0  0  0  0  0
   -3.5311   -2.7616    0.7732 C   0  0  0  0  0  0  0  0  0  0  0  0
   -4.2371   -2.0766    1.2382 H   0  0  0  0  0  0  0  0  0  0  0  0
   -3.7681   -2.8816   -0.2818 H   0  0  0  0  0  0  0  0  0  0  0  0
   -2.1321   -2.2086    0.9112 C   0  0  0  0  0  0  0  0  0  0  0  0
   -1.2751   -2.8426    1.5112 O   0  0  0  0  0  0  0  0  0  0  0  0
   -1.9041   -1.0186    0.3602 N   0  0  0  0  0  0  0  0  0  0  0  0
   -2.6671   -0.5416   -0.0988 H   0  0  0  0  0  0  0  0  0  0  0  0
   -0.6131   -0.3236    0.3832 C   0  0  1  0  0  0  0  0  0  0  0  0
    0.0142   -0.7800    1.1506 H   0  0  0  0  0  0  0  0  0  0  0  0
    0.0816   -0.5059   -0.9788 C   0  0  0  0  0  0  0  0  0  0  0  0
    0.8812   -1.2416   -0.8695 H   0  0  0  0  0  0  0  0  0  0  0  0
   -0.6392   -0.8906   -1.7017 H   0  0  0  0  0  0  0  0  0  0  0  0
    0.6895    0.7873   -1.5341 C   0  0  0  0  0  0  0  0  0  0  0  0
    1.5515    0.5401   -2.1530 H   0  0  0  0  0  0  0  0  0  0  0  0
   -0.0557    1.2866   -2.1543 H   0  0  0  0  0  0  0  0  0  0  0  0
    1.2326    1.9437   -0.2505 S   0  0  0  0  0  0  0  0  0  0  0  0
   -0.3756    2.4399    0.4198 C   0  0  0  0  0  0  0  0  0  0  0  0
   -0.8972    1.5653    0.8096 H   0  0  0  0  0  0  0  0  0  0  0  0
   -0.2250    3.1574    1.2268 H   0  0  0  0  0  0  0  0  0  0  0  0
   -0.9741    2.9033   -0.3651 H   0  0  0  0  0  0  0  0  0  0  0  0
   -0.8064    1.1568    0.7414 C   0  0  0  0  0  0  0  0  0  0  0  0
   -1.6978    1.8100    0.2029 O   0  0  0  0  0  0  0  0  0  0  0  0
    0.0314    1.6872    1.6415 N   0  0  0  0  0  0  0  0  0  0  0  0
    0.7279    1.0858    2.0517 H   0  0  0  0  0  0  0  0  0  0  0  0
   -0.0137    3.0826    2.0755 C   0  0  0  0  0  0  0  0  0  0  0  0
   -0.9991    3.3070    2.4905 H   0  0  0  0  0  0  0  0  0  0  0  0
    0.7468    3.2694    2.8349 H   0  0  0  0  0  0  0  0  0  0  0  0
    0.1592    3.7397    1.2213 H   0  0  0  0  0  0  0  0  0  0  0  0
  5  6  2  0  0  0  0
  5  7  1  0  0  0  0
  2  3  1  0  0  0  0
  2  4  1  0  0  0  0
  2  5  1  0  0  0  0
  1  2  1  0  0  0  0
 22 23  2  0  0  0  0
 22 24  1  0  0  0  0
 18 19  1  0  0  0  0
 18 20  1  0  0  0  0
 18 21  1  0  0  0  0
 17 18  1  0  0  0  0
 14 15  1  0  0  0  0
 14 16  1  0  0  0  0
 14 17  1  0  0  0  0
 11 12  1  0  0  0  0
 11 13  1  0  0  0  0
 11 14  1  0  0  0  0
  9 10  1  0  0  0  0
  9 11  1  0  0  0  0
  9 22  1  0  0  0  0
  7  8  1  0  0  0  0
  7  9  1  0  0  0  0
 26 27  1  0  0  0  0
 26 28  1  0  0  0  0
 26 29  1  0  0  0  0
 24 25  1  0  0  0  0
 24 26  1  0  0  0  0
M  END
$$$$
default_name
  -OEChem-02102213163D

 29 28  0     1  0  0  0  0  0999 V2000
   -3.5781   -3.7296    1.2702 H   0  0  0  0  0  0  0  0  0  0  0  0
   -3.5311   -2.7616    0.7732 C   0  0  0  0  0  0  0  0  0  0  0  0
   -4.2371   -2.0766    1.2382 H   0  0  0  0  0  0  0  0  0  0  0  0
   -3.7681   -2.8816   -0.2818 H   0  0  0  0  0  0  0  0  0  0  0  0
   -2.1321   -2.2086    0.9112 C   0  0  0  0  0  0  0  0  0  0  0  0
   -1.2751   -2.8426    1.5112 O   0  0  0  0  0  0  0  0  0  0  0  0
   -1.9041   -1.0186    0.3602 N   0  0  0  0  0  0  0  0  0  0  0  0
   -2.6671   -0.5416   -0.0988 H   0  0  0  0  0  0  0  0  0  0  0  0
   -0.6131   -0.3236    0.3832 C   0  0  1  0  0  0  0  0  0  0  0  0
    0.0142   -0.7800    1.1506 H   0  0  0  0  0  0  0  0  0  0  0  0
    0.0816   -0.5059   -0.9788 C   0  0  0  0  0  0  0  0  0  0  0  0
    0.8812   -1.2416   -0.8695 H   0  0  0  0  0  0  0  0  0  0  0  0
   -0.6392   -0.8906   -1.7017 H   0  0  0  0  0  0  0  0  0  0  0  0
    0.6895    0.7873   -1.5341 C   0  0  0  0  0  0  0  0  0  0  0  0
    1.3687    0.5415   -2.3499 H   0  0  0  0  0  0  0  0  0  0  0  0
   -0.1142    1.4132   -1.9235 H   0  0  0  0  0  0  0  0  0  0  0  0
    1.6125    1.7425   -0.3031 S   0  0  0  0  0  0  0  0  0  0  0  0
    0.2457    2.2905    0.7521 C   0  0  0  0  0  0  0  0  0  0  0  0
   -0.2696    1.4234    1.1662 H   0  0  0  0  0  0  0  0  0  0  0  0
    0.6397    2.8973    1.5678 H   0  0  0  0  0  0  0  0  0  0  0  0
   -0.4543    2.8873    0.1668 H   0  0  0  0  0  0  0  0  0  0  0  0
   -0.8064    1.1568    0.7414 C   0  0  0  0  0  0  0  0  0  0  0  0
   -1.6978    1.8100    0.2029 O   0  0  0  0  0  0  0  0  0  0  0  0
    0.0314    1.6872    1.6415 N   0  0  0  0  0  0  0  0  0  0  0  0
    0.7279    1.0858    2.0517 H   0  0  0  0  0  0  0  0  0  0  0  0
   -0.0137    3.0826    2.0755 C   0  0  0  0  0  0  0  0  0  0  0  0
   -0.9991    3.3070    2.4905 H   0  0  0  0  0  0  0  0  0  0  0  0
    0.7468    3.2694    2.8349 H   0  0  0  0  0  0  0  0  0  0  0  0
    0.1592    3.7397    1.2213 H   0  0  0  0  0  0  0  0  0  0  0  0
  5  6  2  0  0  0  0
  5  7  1  0  0  0  0
  2  3  1  0  0  0  0
  2  4  1  0  0  0  0
  2  5  1  0  0  0  0
  1  2  1  0  0  0  0
 22 23  2  0  0  0  0
 22 24  1  0  0  0  0
 18 19  1  0  0  0  0
 18 20  1  0  0  0  0
 18 21  1  0  0  0  0
 17 18  1  0  0  0  0
 14 15  1  0  0  0  0
 14 16  1  0  0  0  0
 14 17  1  0  0  0  0
 11 12  1  0  0  0  0
 11 13  1  0  0  0  0
 11 14  1  0  0  0  0
  9 10  1  0  0  0  0
  9 11  1  0  0  0  0
  9 22  1  0  0  0  0
  7  8  1  0  0  0  0
  7  9  1  0  0  0  0
 26 27  1  0  0  0  0
 26 28  1  0  0  0  0
 26 29  1  0  0  0  0
 24 25  1  0  0  0  0
 24 26  1  0  0  0  0
M  END
$$$$
default_name
  -OEChem-02102213163D

 29 28  0     1  0  0  0  0  0999 V2000
   -3.5781   -3.7296    1.2702 H   0  0  0  0  0  0  0  0  0  0  0  0
   -3.5311   -2.7616    0.7732 C   0  0  0  0  0  0  0  0  0  0  0  0
   -4.2371   -2.0766    1.2382 H   0  0  0  0  0  0  0  0  0  0  0  0
   -3.7681   -2.8816   -0.2818 H   0  0  0  0  0  0  0  0  0  0  0  0
   -2.1321   -2.2086    0.9112 C   0  0  0  0  0  0  0  0  0  0  0  0
   -1.2751   -2.8426    1.5112 O   0  0  0  0  0  0  0  0  0  0  0  0
   -1.9041   -1.0186    0.3602 N   0  0  0  0  0  0  0  0  0  0  0  0
   -2.6671   -0.5416   -0.0988 H   0  0  0  0  0  0  0  0  0  0  0  0
   -0.6131   -0.3236    0.3832 C   0  0  1  0  0  0  0  0  0  0  0  0
    0.0142   -0.7800    1.1506 H   0  0  0  0  0  0  0  0  0  0  0  0
    0.0816   -0.5059   -0.9788 C   0  0  0  0  0  0  0  0  0  0  0  0
    0.8812   -1.2416   -0.8695 H   0  0  0  0  0  0  0  0  0  0  0  0
   -0.6392   -0.8906   -1.7017 H   0  0  0  0  0  0  0  0  0  0  0  0
    0.6895    0.7873   -1.5341 C   0  0  0  0  0  0  0  0  0  0  0  0
    1.1492    0.5802   -2.5000 H   0  0  0  0  0  0  0  0  0  0  0  0
   -0.1084    1.5173   -1.6748 H   0  0  0  0  0  0  0  0  0  0  0  0
    1.9492    1.5179   -0.4574 S   0  0  0  0  0  0  0  0  0  0  0  0
    0.9045    2.0538    0.9221 C   0  0  0  0  0  0  0  0  0  0  0  0
    0.4012    1.1908    1.3590 H   0  0  0  0  0  0  0  0  0  0  0  0
    1.5251    2.5300    1.6817 H   0  0  0  0  0  0  0  0  0  0  0  0
    0.1623    2.7686    0.5655 H   0  0  0  0  0  0  0  0  0  0  0  0
   -0.8064    1.1568    0.7414 C   0  0  0  0  0  0  0  0  0  0  0  0
   -1.6978    1.8100    0.2029 O   0  0  0  0  0  0  0  0  0  0  0  0
    0.0314    1.6872    1.6415 N   0  0  0  0  0  0  0  0  0  0  0  0
    0.7279    1.0858    2.0517 H   0  0  0  0  0  0  0  0  0  0  0  0
   -0.0137    3.0826    2.0755 C   0  0  0  0  0  0  0  0  0  0  0  0
   -0.9991    3.3070    2.4905 H   0  0  0  0  0  0  0  0  0  0  0  0
    0.7468    3.2694    2.8349 H   0  0  0  0  0  0  0  0  0  0  0  0
    0.1592    3.7397    1.2213 H   0  0  0  0  0  0  0  0  0  0  0  0
  5  6  2  0  0  0  0
  5  7  1  0  0  0  0
  2  3  1  0  0  0  0
  2  4  1  0  0  0  0
  2  5  1  0  0  0  0
  1  2  1  0  0  0  0
 22 23  2  0  0  0  0
 22 24  1  0  0  0  0
 18 19  1  0  0  0  0
 18 20  1  0  0  0  0
 18 21  1  0  0  0  0
 17 18  1  0  0  0  0
 14 15  1  0  0  0  0
 14 16  1  0  0  0  0
 14 17  1  0  0  0  0
 11 12  1  0  0  0  0
 11 13  1  0  0  0  0
 11 14  1  0  0  0  0
  9 10  1  0  0  0  0
  9 11  1  0  0  0  0
  9 22  1  0  0  0  0
  7  8  1  0  0  0  0
  7  9  1  0  0  0  0
 26 27  1  0  0  0  0
 26 28  1  0  0  0  0
 26 29  1  0  0  0  0
 24 25  1  0  0  0  0
 24 26  1  0  0  0  0
M  END
$$$$
default_name
  -OEChem-02102213163D

 29 28  0     1  0  0  0  0  0999 V2000
   -3.5781   -3.7296    1.2702 H   0  0  0  0  0  0  0  0  0  0  0  0
   -3.5311   -2.7616    0.7732 C   0  0  0  0  0  0  0  0  0  0  0  0
   -4.2371   -2.0766    1.2382 H   0  0  0  0  0  0  0  0  0  0  0  0
   -3.7681   -2.8816   -0.2818 H   0  0  0  0  0  0  0  0  0  0  0  0
   -2.1321   -2.2086    0.9112 C   0  0  0  0  0  0  0  0  0  0  0  0
   -1.2751   -2.8426    1.5112 O   0  0  0  0  0  0  0  0  0  0  0  0
   -1.9041   -1.0186    0.3602 N   0  0  0  0  0  0  0  0  0  0  0  0
   -2.6671   -0.5416   -0.0988 H   0  0  0  0  0  0  0  0  0  0  0  0
   -0.6131   -0.3236    0.3832 C   0  0  1  0  0  0  0  0  0  0  0  0
    0.0142   -0.7800    1.1506 H   0  0  0  0  0  0  0  0  0  0  0  0
    0.0816   -0.5059   -0.9788 C   0  0  0  0  0  0  0  0  0  0  0  0
    0.8812   -1.2416   -0.8695 H   0  0  0  0  0  0  0  0  0  0  0  0
   -0.6392   -0.8906   -1.7017 H   0  0  0  0  0  0  0  0  0  0  0  0
    0.6895    0.7873   -1.5341 C   0  0  0  0  0  0  0  0  0  0  0  0
    0.9081    0.6536   -2.5931 H   0  0  0  0  0  0  0  0  0  0  0  0
   -0.0388    1.5917   -1.4252 H   0  0  0  0  0  0  0  0  0  0  0  0
    2.2196    1.2853   -0.7031 S   0  0  0  0  0  0  0  0  0  0  0  0
    1.5557    1.7460    0.9182 C   0  0  0  0  0  0  0  0  0  0  0  0
    1.0693    0.8835    1.3750 H   0  0  0  0  0  0  0  0  0  0  0  0
    2.3706    2.0805    1.5607 H   0  0  0  0  0  0  0  0  0  0  0  0
    0.8339    2.5552    0.8037 H   0  0  0  0  0  0  0  0  0  0  0  0
   -0.8064    1.1568    0.7414 C   0  0  0  0  0  0  0  0  0  0  0  0
   -1.6978    1.8100    0.2029 O   0  0  0  0  0  0  0  0  0  0  0  0
    0.0314    1.6872    1.6415 N   0  0  0  0  0  0  0  0  0  0  0  0
    0.7279    1.0858    2.0517 H   0  0  0  0  0  0  0  0  0  0  0  0
   -0.0137    3.0826    2.0755 C   0  0  0  0  0  0  0  0  0  0  0  0
   -0.9991    3.3070    2.4905 H   0  0  0  0  0  0  0  0  0  0  0  0
    0.7468    3.2694    2.8349 H   0  0  0  0  0  0  0  0  0  0  0  0
    0.1592    3.7397    1.2213 H   0  0  0  0  0  0  0  0  0  0  0  0
  5  6  2  0  0  0  0
  5  7  1  0  0  0  0
  2  3  1  0  0  0  0
  2  4  1  0  0  0  0
  2  5  1  0  0  0  0
  1  2  1  0  0  0  0
 22 23  2  0  0  0  0
 22 24  1  0  0  0  0
 18 19  1  0  0  0  0
 18 20  1  0  0  0  0
 18 21  1  0  0  0  0
 17 18  1  0  0  0  0
 14 15  1  0  0  0  0
 14 16  1  0  0  0  0
 14 17  1  0  0  0  0
 11 12  1  0  0  0  0
 11 13  1  0  0  0  0
 11 14  1  0  0  0  0
  9 10  1  0  0  0  0
  9 11  1  0  0  0  0
  9 22  1  0  0  0  0
  7  8  1  0  0  0  0
  7  9  1  0  0  0  0
 26 27  1  0  0  0  0
 26 28  1  0  0  0  0
 26 29  1  0  0  0  0
 24 25  1  0  0  0  0
 24 26  1  0  0  0  0
M  END
$$$$
default_name
  -OEChem-02102213163D

 29 28  0     1  0  0  0  0  0999 V2000
   -3.5781   -3.7296    1.2702 H   0  0  0  0  0  0  0  0  0  0  0  0
   -3.5311   -2.7616    0.7732 C   0  0  0  0  0  0  0  0  0  0  0  0
   -4.2371   -2.0766    1.2382 H   0  0  0  0  0  0  0  0  0  0  0  0
   -3.7681   -2.8816   -0.2818 H   0  0  0  0  0  0  0  0  0  0  0  0
   -2.1321   -2.2086    0.9112 C   0  0  0  0  0  0  0  0  0  0  0  0
   -1.2751   -2.8426    1.5112 O   0  0  0  0  0  0  0  0  0  0  0  0
   -1.9041   -1.0186    0.3602 N   0  0  0  0  0  0  0  0  0  0  0  0
   -2.6671   -0.5416   -0.0988 H   0  0  0  0  0  0  0  0  0  0  0  0
   -0.6131   -0.3236    0.3832 C   0  0  1  0  0  0  0  0  0  0  0  0
    0.0142   -0.7800    1.1506 H   0  0  0  0  0  0  0  0  0  0  0  0
    0.0816   -0.5059   -0.9788 C   0  0  0  0  0  0  0  0  0  0  0  0
    0.8812   -1.2416   -0.8695 H   0  0  0  0  0  0  0  0  0  0  0  0
   -0.6392   -0.8906   -1.7017 H   0  0  0  0  0  0  0  0  0  0  0  0
    0.6895    0.7873   -1.5341 C   0  0  0  0  0  0  0  0  0  0  0  0
    0.6617    0.7566   -2.6229 H   0  0  0  0  0  0  0  0  0  0  0  0
    0.0899    1.6315   -1.1917 H   0  0  0  0  0  0  0  0  0  0  0  0
    2.4054    1.0605   -1.0233 S   0  0  0  0  0  0  0  0  0  0  0  0
    2.1550    1.3880    0.7407 C   0  0  0  0  0  0  0  0  0  0  0  0
    1.6894    0.5225    1.2129 H   0  0  0  0  0  0  0  0  0  0  0  0
    3.1189    1.5795    1.2131 H   0  0  0  0  0  0  0  0  0  0  0  0
    1.5146    2.2616    0.8653 H   0  0  0  0  0  0  0  0  0  0  0  0
   -0.8064    1.1568    0.7414 C   0  0  0  0  0  0  0  0  0  0  0  0
   -1.6978    1.8100    0.2029 O   0  0  0  0  0  0  0  0  0  0  0  0
    0.0314    1.6872    1.6415 N   0  0  0  0  0  0  0  0  0  0  0  0
    0.7279    1.0858    2.0517 H   0  0  0  0  0  0  0  0  0  0  0  0
   -0.0137    3.0826    2.0755 C   0  0  0  0  0  0  0  0  0  0  0  0
   -0.9991    3.3070    2.4905 H   0  0  0  0  0  0  0  0  0  0  0  0
    0.7468    3.2694    2.8349 H   0  0  0  0  0  0  0  0  0  0  0  0
    0.1592    3.7397    1.2213 H   0  0  0  0  0  0  0  0  0  0  0  0
  5  6  2  0  0  0  0
  5  7  1  0  0  0  0
  2  3  1  0  0  0  0
  2  4  1  0  0  0  0
  2  5  1  0  0  0  0
  1  2  1  0  0  0  0
 22 23  2  0  0  0  0
 22 24  1  0  0  0  0
 18 19  1  0  0  0  0
 18 20  1  0  0  0  0
 18 21  1  0  0  0  0
 17 18  1  0  0  0  0
 14 15  1  0  0  0  0
 14 16  1  0  0  0  0
 14 17  1  0  0  0  0
 11 12  1  0  0  0  0
 11 13  1  0  0  0  0
 11 14  1  0  0  0  0
  9 10  1  0  0  0  0
  9 11  1  0  0  0  0
  9 22  1  0  0  0  0
  7  8  1  0  0  0  0
  7  9  1  0  0  0  0
 26 27  1  0  0  0  0
 26 28  1  0  0  0  0
 26 29  1  0  0  0  0
 24 25  1  0  0  0  0
 24 26  1  0  0  0  0
M  END
$$$$
default_name
  -OEChem-02102213163D

 29 28  0     1  0  0  0  0  0999 V2000
   -3.5781   -3.7296    1.2702 H   0  0  0  0  0  0  0  0  0  0  0  0
   -3.5311   -2.7616    0.7732 C   0  0  0  0  0  0  0  0  0  0  0  0
   -4.2371   -2.0766    1.2382 H   0  0  0  0  0  0  0  0  0  0  0  0
   -3.7681   -2.8816   -0.2818 H   0  0  0  0  0  0  0  0  0  0  0  0
   -2.1321   -2.2086    0.9112 C   0  0  0  0  0  0  0  0  0  0  0  0
   -1.2751   -2.8426    1.5112 O   0  0  0  0  0  0  0  0  0  0  0  0
   -1.9041   -1.0186    0.3602 N   0  0  0  0  0  0  0  0  0  0  0  0
   -2.6671   -0.5416   -0.0988 H   0  0  0  0  0  0  0  0  0  0  0  0
   -0.6131   -0.3236    0.3832 C   0  0  1  0  0  0  0  0  0  0  0  0
    0.0142   -0.7800    1.1506 H   0  0  0  0  0  0  0  0  0  0  0  0
    0.0816   -0.5059   -0.9788 C   0  0  0  0  0  0  0  0  0  0  0  0
    0.8812   -1.2416   -0.8695 H   0  0  0  0  0  0  0  0  0  0  0  0
   -0.6392   -0.8906   -1.7017 H   0  0  0  0  0  0  0  0  0  0  0  0
    0.6895    0.7873   -1.5341 C   0  0  0  0  0  0  0  0  0  0  0  0
    0.4269    0.8823   -2.5873 H   0  0  0  0  0  0  0  0  0  0  0  0
    0.2690    1.6338   -0.9901 H   0  0  0  0  0  0  0  0  0  0  0  0
    2.4939    0.8587   -1.3963 S   0  0  0  0  0  0  0  0  0  0  0  0
    2.6616    1.0043    0.4017 C   0  0  0  0  0  0  0  0  0  0  0  0
    2.2192    0.1322    0.8840 H   0  0  0  0  0  0  0  0  0  0  0  0
    3.7187    1.0611    0.6626 H   0  0  0  0  0  0  0  0  0  0  0  0
    2.1580    1.9080    0.7461 H   0  0  0  0  0  0  0  0  0  0  0  0
   -0.8064    1.1568    0.7414 C   0  0  0  0  0  0  0  0  0  0  0  0
   -1.6978    1.8100    0.2029 O   0  0  0  0  0  0  0  0  0  0  0  0
    0.0314    1.6872    1.6415 N   0  0  0  0  0  0  0  0  0  0  0  0
    0.7279    1.0858    2.0517 H   0  0  0  0  0  0  0  0  0  0  0  0
   -0.0137    3.0826    2.0755 C   0  0  0  0  0  0  0  0  0  0  0  0
   -0.9991    3.3070    2.4905 H   0  0  0  0  0  0  0  0  0  0  0  0
    0.7468    3.2694    2.8349 H   0  0  0  0  0  0  0  0  0  0  0  0
    0.1592    3.7397    1.2213 H   0  0  0  0  0  0  0  0  0  0  0  0
  5  6  2  0  0  0  0
  5  7  1  0  0  0  0
  2  3  1  0  0  0  0
  2  4  1  0  0  0  0
  2  5  1  0  0  0  0
  1  2  1  0  0  0  0
 22 23  2  0  0  0  0
 22 24  1  0  0  0  0
 18 19  1  0  0  0  0
 18 20  1  0  0  0  0
 18 21  1  0  0  0  0
 17 18  1  0  0  0  0
 14 15  1  0  0  0  0
 14 16  1  0  0  0  0
 14 17  1  0  0  0  0
 11 12  1  0  0  0  0
 11 13  1  0  0  0  0
 11 14  1  0  0  0  0
  9 10  1  0  0  0  0
  9 11  1  0  0  0  0
  9 22  1  0  0  0  0
  7  8  1  0  0  0  0
  7  9  1  0  0  0  0
 26 27  1  0  0  0  0
 26 28  1  0  0  0  0
 26 29  1  0  0  0  0
 24 25  1  0  0  0  0
 24 26  1  0  0  0  0
M  END
$$$$
default_name
  -OEChem-02102213163D

 29 28  0     1  0  0  0  0  0999 V2000
   -3.5781   -3.7296    1.2702 H   0  0  0  0  0  0  0  0  0  0  0  0
   -3.5311   -2.7616    0.7732 C   0  0  0  0  0  0  0  0  0  0  0  0
   -4.2371   -2.0766    1.2382 H   0  0  0  0  0  0  0  0  0  0  0  0
   -3.7681   -2.8816   -0.2818 H   0  0  0  0  0  0  0  0  0  0  0  0
   -2.1321   -2.2086    0.9112 C   0  0  0  0  0  0  0  0  0  0  0  0
   -1.2751   -2.8426    1.5112 O   0  0  0  0  0  0  0  0  0  0  0  0
   -1.9041   -1.0186    0.3602 N   0  0  0  0  0  0  0  0  0  0  0  0
   -2.6671   -0.5416   -0.0988 H   0  0  0  0  0  0  0  0  0  0  0  0
   -0.6131   -0.3236    0.3832 C   0  0  1  0  0  0  0  0  0  0  0  0
    0.0142   -0.7800    1.1506 H   0  0  0  0  0  0  0  0  0  0  0  0
    0.0816   -0.5059   -0.9788 C   0  0  0  0  0  0  0  0  0  0  0  0
    0.8812   -1.2416   -0.8695 H   0  0  0  0  0  0  0  0  0  0  0  0
   -0.6392   -0.8906   -1.7017 H   0  0  0  0  0  0  0  0  0  0  0  0
    0.6895    0.7873   -1.5341 C   0  0  0  0  0  0  0  0  0  0  0  0
    0.2197    1.0220   -2.4887 H   0  0  0  0  0  0  0  0  0  0  0  0
    0.4862    1.5987   -0.8343 H   0  0  0  0  0  0  0  0  0  0  0  0
    2.4790    0.6939   -1.7965 S   0  0  0  0  0  0  0  0  0  0  0  0
    3.0409    0.6209   -0.0758 C   0  0  0  0  0  0  0  0  0  0  0  0
    2.6224   -0.2607    0.4106 H   0  0  0  0  0  0  0  0  0  0  0  0
    4.1294    0.5607   -0.0533 H   0  0  0  0  0  0  0  0  0  0  0  0
    2.7203    1.5182    0.4542 H   0  0  0  0  0  0  0  0  0  0  0  0
   -0.8064    1.1568    0.7414 C   0  0  0  0  0  0  0  0  0  0  0  0
   -1.6978    1.8100    0.2029 O   0  0  0  0  0  0  0  0  0  0  0  0
    0.0314    1.6872    1.6415 N   0  0  0  0  0  0  0  0  0  0  0  0
    0.7279    1.0858    2.0517 H   0  0  0  0  0  0  0  0  0  0  0  0
   -0.0137    3.0826    2.0755 C   0  0  0  0  0  0  0  0  0  0  0  0
   -0.9991    3.3070    2.4905 H   0  0  0  0  0  0  0  0  0  0  0  0
    0.7468    3.2694    2.8349 H   0  0  0  0  0  0  0  0  0  0  0  0
    0.1592    3.7397    1.2213 H   0  0  0  0  0  0  0  0  0  0  0  0
  5  6  2  0  0  0  0
  5  7  1  0  0  0  0
  2  3  1  0  0  0  0
  2  4  1  0  0  0  0
  2  5  1  0  0  0  0
  1  2  1  0  0  0  0
 22 23  2  0  0  0  0
 22 24  1  0  0  0  0
 18 19  1  0  0  0  0
 18 20  1  0  0  0  0
 18 21  1  0  0  0  0
 17 18  1  0  0  0  0
 14 15  1  0  0  0  0
 14 16  1  0  0  0  0
 14 17  1  0  0  0  0
 11 12  1  0  0  0  0
 11 13  1  0  0  0  0
 11 14  1  0  0  0  0
  9 10  1  0  0  0  0
  9 11  1  0  0  0  0
  9 22  1  0  0  0  0
  7  8  1  0  0  0  0
  7  9  1  0  0  0  0
 26 27  1  0  0  0  0
 26 28  1  0  0  0  0
 26 29  1  0  0  0  0
 24 25  1  0  0  0  0
 24 26  1  0  0  0  0
M  END
$$$$
default_name
  -OEChem-02102213163D

 29 28  0     1  0  0  0  0  0999 V2000
   -3.5781   -3.7296    1.2702 H   0  0  0  0  0  0  0  0  0  0  0  0
   -3.5311   -2.7616    0.7732 C   0  0  0  0  0  0  0  0  0  0  0  0
   -4.2371   -2.0766    1.2382 H   0  0  0  0  0  0  0  0  0  0  0  0
   -3.7681   -2.8816   -0.2818 H   0  0  0  0  0  0  0  0  0  0  0  0
   -2.1321   -2.2086    0.9112 C   0  0  0  0  0  0  0  0  0  0  0  0
   -1.2751   -2.8426    1.5112 O   0  0  0  0  0  0  0  0  0  0  0  0
   -1.9041   -1.0186    0.3602 N   0  0  0  0  0  0  0  0  0  0  0  0
   -2.6671   -0.5416   -0.0988 H   0  0  0  0  0  0  0  0  0  0  0  0
   -0.6131   -0.3236    0.3832 C   0  0  1  0  0  0  0  0  0  0  0  0
    0.0142   -0.7800    1.1506 H   0  0  0  0  0  0  0  0  0  0  0  0
    0.0816   -0.5059   -0.9788 C   0  0  0  0  0  0  0  0  0  0  0  0
    0.8812   -1.2416   -0.8695 H   0  0  0  0  0  0  0  0  0  0  0  0
   -0.6392   -0.8906   -1.7017 H   0  0  0  0  0  0  0  0  0  0  0  0
    0.6895    0.7873   -1.5341 C   0  0  0  0  0  0  0  0  0  0  0  0
    0.0541    1.1663   -2.3339 H   0  0  0  0  0  0  0  0  0  0  0  0
    0.7267    1.5283   -0.7348 H   0  0  0  0  0  0  0  0  0  0  0  0
    2.3618    0.5771   -2.1968 S   0  0  0  0  0  0  0  0  0  0  0  0
    3.2671    0.2641   -0.6592 C   0  0  0  0  0  0  0  0  0  0  0  0
    2.8718   -0.6294   -0.1751 H   0  0  0  0  0  0  0  0  0  0  0  0
    4.3228    0.1123   -0.8859 H   0  0  0  0  0  0  0  0  0  0  0  0
    3.1632    1.1191    0.0094 H   0  0  0  0  0  0  0  0  0  0  0  0
   -0.8064    1.1568    0.7414 C   0  0  0  0  0  0  0  0  0  0  0  0
   -1.6978    1.8100    0.2029 O   0  0  0  0  0  0  0  0  0  0  0  0
    0.0314    1.6872    1.6415 N   0  0  0  0  0  0  0  0  0  0  0  0
    0.7279    1.0858    2.0517 H   0  0  0  0  0  0  0  0  0  0  0  0
   -0.0137    3.0826    2.0755 C   0  0  0  0  0  0  0  0  0  0  0  0
   -0.9991    3.3070    2.4905 H   0  0  0  0  0  0  0  0  0  0  0  0
    0.7468    3.2694    2.8349 H   0  0  0  0  0  0  0  0  0  0  0  0
    0.1592    3.7397    1.2213 H   0  0  0  0  0  0  0  0  0  0  0  0
  5  6  2  0  0  0  0
  5  7  1  0  0  0  0
  2  3  1  0  0  0  0
  2  4  1  0  0  0  0
  2  5  1  0  0  0  0
  1  2  1  0  0  0  0
 22 23  2  0  0  0  0
 22 24  1  0  0  0  0
 18 19  1  0  0  0  0
 18 20  1  0  0  0  0
 18 21  1  0  0  0  0
 17 18  1  0  0  0  0
 14 15  1  0  0  0  0
 14 16  1  0  0  0  0
 14 17  1  0  0  0  0
 11 12  1  0  0  0  0
 11 13  1  0  0  0  0
 11 14  1  0  0  0  0
  9 10  1  0  0  0  0
  9 11  1  0  0  0  0
  9 22  1  0  0  0  0
  7  8  1  0  0  0  0
  7  9  1  0  0  0  0
 26 27  1  0  0  0  0
 26 28  1  0  0  0  0
 26 29  1  0  0  0  0
 24 25  1  0  0  0  0
 24 26  1  0  0  0  0
M  END
$$$$
default_name
  -OEChem-02102213163D

 29 28  0     1  0  0  0  0  0999 V2000
   -3.5781   -3.7296    1.2702 H   0  0  0  0  0  0  0  0  0  0  0  0
   -3.5311   -2.7616    0.7732 C   0  0  0  0  0  0  0  0  0  0  0  0
   -4.2371   -2.0766    1.2382 H   0  0  0  0  0  0  0  0  0  0  0  0
   -3.7681   -2.8816   -0.2818 H   0  0  0  0  0  0  0  0  0  0  0  0
   -2.1321   -2.2086    0.9112 C   0  0  0  0  0  0  0  0  0  0  0  0
   -1.2751   -2.8426    1.5112 O   0  0  0  0  0  0  0  0  0  0  0  0
   -1.9041   -1.0186    0.3602 N   0  0  0  0  0  0  0  0  0  0  0  0
   -2.6671   -0.5416   -0.0988 H   0  0  0  0  0  0  0  0  0  0  0  0
   -0.6131   -0.3236    0.3832 C   0  0  1  0  0  0  0  0  0  0  0  0
    0.0142   -0.7800    1.1506 H   0  0  0  0  0  0  0  0  0  0  0  0
    0.0816   -0.5059   -0.9788 C   0  0  0  0  0  0  0  0  0  0  0  0
    0.8812   -1.2416   -0.8695 H   0  0  0  0  0  0  0  0  0  0  0  0
   -0.6392   -0.8906   -1.7017 H   0  0  0  0  0  0  0  0  0  0  0  0
    0.6895    0.7873   -1.5341 C   0  0  0  0  0  0  0  0  0  0  0  0
   -0.0585    1.3054   -2.1334 H   0  0  0  0  0  0  0  0  0  0  0  0
    0.9741    1.4276   -0.6984 H   0  0  0  0  0  0  0  0  0  0  0  0
    2.1502    0.5164   -2.5698 S   0  0  0  0  0  0  0  0  0  0  0  0
    3.3248   -0.0419   -1.3087 C   0  0  0  0  0  0  0  0  0  0  0  0
    2.9502   -0.9488   -0.8331 H   0  0  0  0  0  0  0  0  0  0  0  0
    4.2858   -0.2535   -1.7784 H   0  0  0  0  0  0  0  0  0  0  0  0
    3.4565    0.7376   -0.5578 H   0  0  0  0  0  0  0  0  0  0  0  0
   -0.8064    1.1568    0.7414 C   0  0  0  0  0  0  0  0  0  0  0  0
   -1.6978    1.8100    0.2029 O   0  0  0  0  0  0  0  0  0  0  0  0
    0.0314    1.6872    1.6415 N   0  0  0  0  0  0  0  0  0  0  0  0
    0.7279    1.0858    2.0517 H   0  0  0  0  0  0  0  0  0  0  0  0
   -0.0137    3.0826    2.0755 C   0  0  0  0  0  0  0  0  0  0  0  0
   -0.9991    3.3070    2.4905 H   0  0  0  0  0  0  0  0  0  0  0  0
    0.7468    3.2694    2.8349 H   0  0  0  0  0  0  0  0  0  0  0  0
    0.1592    3.7397    1.2213 H   0  0  0  0  0  0  0  0  0  0  0  0
  5  6  2  0  0  0  0
  5  7  1  0  0  0  0
  2  3  1  0  0  0  0
  2  4  1  0  0  0  0
  2  5  1  0  0  0  0
  1  2  1  0  0  0  0
 22 23  2  0  0  0  0
 22 24  1  0  0  0  0
 18 19  1  0  0  0  0
 18 20  1  0  0  0  0
 18 21  1  0  0  0  0
 17 18  1  0  0  0  0
 14 15  1  0  0  0  0
 14 16  1  0  0  0  0
 14 17  1  0  0  0  0
 11 12  1  0  0  0  0
 11 13  1  0  0  0  0
 11 14  1  0  0  0  0
  9 10  1  0  0  0  0
  9 11  1  0  0  0  0
  9 22  1  0  0  0  0
  7  8  1  0  0  0  0
  7  9  1  0  0  0  0
 26 27  1  0  0  0  0
 26 28  1  0  0  0  0
 26 29  1  0  0  0  0
 24 25  1  0  0  0  0
 24 26  1  0  0  0  0
M  END
$$$$
default_name
  -OEChem-02102213163D

 29 28  0     1  0  0  0  0  0999 V2000
   -3.5781   -3.7296    1.2702 H   0  0  0  0  0  0  0  0  0  0  0  0
   -3.5311   -2.7616    0.7732 C   0  0  0  0  0  0  0  0  0  0  0  0
   -4.2371   -2.0766    1.2382 H   0  0  0  0  0  0  0  0  0  0  0  0
   -3.7681   -2.8816   -0.2818 H   0  0  0  0  0  0  0  0  0  0  0  0
   -2.1321   -2.2086    0.9112 C   0  0  0  0  0  0  0  0  0  0  0  0
   -1.2751   -2.8426    1.5112 O   0  0  0  0  0  0  0  0  0  0  0  0
   -1.9041   -1.0186    0.3602 N   0  0  0  0  0  0  0  0  0  0  0  0
   -2.6671   -0.5416   -0.0988 H   0  0  0  0  0  0  0  0  0  0  0  0
   -0.6131   -0.3236    0.3832 C   0  0  1  0  0  0  0  0  0  0  0  0
    0.0142   -0.7800    1.1506 H   0  0  0  0  0  0  0  0  0  0  0  0
    0.0816   -0.5059   -0.9788 C   0  0  0  0  0  0  0  0  0  0  0  0
    0.8812   -1.2416   -0.8695 H   0  0  0  0  0  0  0  0  0  0  0  0
   -0.6392   -0.8906   -1.7017 H   0  0  0  0  0  0  0  0  0  0  0  0
    0.6895    0.7873   -1.5341 C   0  0  0  0  0  0  0  0  0  0  0  0
   -0.1105    1.4296   -1.9009 H   0  0  0  0  0  0  0  0  0  0  0  0
    1.2116    1.3034   -0.7276 H   0  0  0  0  0  0  0  0  0  0  0  0
    1.8587    0.5159   -2.8902 S   0  0  0  0  0  0  0  0  0  0  0  0
    3.2101   -0.2762   -1.9801 C   0  0  0  0  0  0  0  0  0  0  0  0
    2.8524   -1.1971   -1.5186 H   0  0  0  0  0  0  0  0  0  0  0  0
    4.0210   -0.5118   -2.6699 H   0  0  0  0  0  0  0  0  0  0  0  0
    3.5802    0.3999   -1.2090 H   0  0  0  0  0  0  0  0  0  0  0  0
   -0.8064    1.1568    0.7414 C   0  0  0  0  0  0  0  0  0  0  0  0
   -1.6978    1.8100    0.2029 O   0  0  0  0  0  0  0  0  0  0  0  0
    0.0314    1.6872    1.6415 N   0  0  0  0  0  0  0  0  0  0  0  0
    0.7279    1.0858    2.0517 H   0  0  0  0  0  0  0  0  0  0  0  0
   -0.0137    3.0826    2.0755 C   0  0  0  0  0  0  0  0  0  0  0  0
   -0.9991    3.3070    2.4905 H   0  0  0  0  0  0  0  0  0  0  0  0
    0.7468    3.2694    2.8349 H   0  0  0  0  0  0  0  0  0  0  0  0
    0.1592    3.7397    1.2213 H   0  0  0  0  0  0  0  0  0  0  0  0
  5  6  2  0  0  0  0
  5  7  1  0  0  0  0
  2  3  1  0  0  0  0
  2  4  1  0  0  0  0
  2  5  1  0  0  0  0
  1  2  1  0  0  0  0
 22 23  2  0  0  0  0
 22 24  1  0  0  0  0
 18 19  1  0  0  0  0
 18 20  1  0  0  0  0
 18 21  1  0  0  0  0
 17 18  1  0  0  0  0
 14 15  1  0  0  0  0
 14 16  1  0  0  0  0
 14 17  1  0  0  0  0
 11 12  1  0  0  0  0
 11 13  1  0  0  0  0
 11 14  1  0  0  0  0
  9 10  1  0  0  0  0
  9 11  1  0  0  0  0
  9 22  1  0  0  0  0
  7  8  1  0  0  0  0
  7  9  1  0  0  0  0
 26 27  1  0  0  0  0
 26 28  1  0  0  0  0
 26 29  1  0  0  0  0
 24 25  1  0  0  0  0
 24 26  1  0  0  0  0
M  END
$$$$
default_name
  -OEChem-02102213163D

 29 28  0     1  0  0  0  0  0999 V2000
   -3.5781   -3.7296    1.2702 H   0  0  0  0  0  0  0  0  0  0  0  0
   -3.5311   -2.7616    0.7732 C   0  0  0  0  0  0  0  0  0  0  0  0
   -4.2371   -2.0766    1.2382 H   0  0  0  0  0  0  0  0  0  0  0  0
   -3.7681   -2.8816   -0.2818 H   0  0  0  0  0  0  0  0  0  0  0  0
   -2.1321   -2.2086    0.9112 C   0  0  0  0  0  0  0  0  0  0  0  0
   -1.2751   -2.8426    1.5112 O   0  0  0  0  0  0  0  0  0  0  0  0
   -1.9041   -1.0186    0.3602 N   0  0  0  0  0  0  0  0  0  0  0  0
   -2.6671   -0.5416   -0.0988 H   0  0  0  0  0  0  0  0  0  0  0  0
   -0.6131   -0.3236    0.3832 C   0  0  1  0  0  0  0  0  0  0  0  0
    0.0142   -0.7800    1.1506 H   0  0  0  0  0  0  0  0  0  0  0  0
    0.0816   -0.5059   -0.9788 C   0  0  0  0  0  0  0  0  0  0  0  0
    0.6875   -1.4138   -0.9452 H   0  0  0  0  0  0  0  0  0  0  0  0
   -0.6751   -0.6295   -1.7550 H   0  0  0  0  0  0  0  0  0  0  0  0
    0.9913    0.6664   -1.3640 C   0  0  0  0  0  0  0  0  0  0  0  0
    0.3989    1.5800   -1.4053 H   0  0  0  0  0  0  0  0  0  0  0  0
    1.7589    0.7806   -0.5977 H   0  0  0  0  0  0  0  0  0  0  0  0
    1.8095    0.4545   -2.9656 S   0  0  0  0  0  0  0  0  0  0  0  0
    2.9451   -0.8965   -2.5569 C   0  0  0  0  0  0  0  0  0  0  0  0
    2.3769   -1.7700   -2.2358 H   0  0  0  0  0  0  0  0  0  0  0  0
    3.5322   -1.1545   -3.4387 H   0  0  0  0  0  0  0  0  0  0  0  0
    3.6173   -0.5830   -1.7577 H   0  0  0  0  0  0  0  0  0  0  0  0
   -0.8064    1.1568    0.7414 C   0  0  0  0  0  0  0  0  0  0  0  0
   -1.6978    1.8100    0.2029 O   0  0  0  0  0  0  0  0  0  0  0  0
    0.0314    1.6872    1.6415 N   0  0  0  0  0  0  0  0  0  0  0  0
    0.7279    1.0858    2.0517 H   0  0  0  0  0  0  0  0  0  0  0  0
   -0.0137    3.0826    2.0755 C   0  0  0  0  0  0  0  0  0  0  0  0
   -0.9991    3.3070    2.4905 H   0  0  0  0  0  0  0  0  0  0  0  0
    0.7468    3.2694    2.8349 H   0  0  0  0  0  0  0  0  0  0  0  0
    0.1592    3.7397    1.2213 H   0  0  0  0  0  0  0  0  0  0  0  0
  5  6  2  0  0  0  0
  5  7  1  0  0  0  0
  2  3  1  0  0  0  0
  2  4  1  0  0  0  0
  2  5  1  0  0  0  0
  1  2  1  0  0  0  0
 22 23  2  0  0  0  0
 22 24  1  0  0  0  0
 18 19  1  0  0  0  0
 18 20  1  0  0  0  0
 18 21  1  0  0  0  0
 17 18  1  0  0  0  0
 14 15  1  0  0  0  0
 14 16  1  0  0  0  0
 14 17  1  0  0  0  0
 11 12  1  0  0  0  0
 11 13  1  0  0  0  0
 11 14  1  0  0  0  0
  9 10  1  0  0  0  0
  9 11  1  0  0  0  0
  9 22  1  0  0  0  0
  7  8  1  0  0  0  0
  7  9  1  0  0  0  0
 26 27  1  0  0  0  0
 26 28  1  0  0  0  0
 26 29  1  0  0  0  0
 24 25  1  0  0  0  0
 24 26  1  0  0  0  0
M  END
$$$$
default_name
  -OEChem-02102213163D

 29 28  0     1  0  0  0  0  0999 V2000
   -3.5781   -3.7296    1.2702 H   0  0  0  0  0  0  0  0  0  0  0  0
   -3.5311   -2.7616    0.7732 C   0  0  0  0  0  0  0  0  0  0  0  0
   -4.2371   -2.0766    1.2382 H   0  0  0  0  0  0  0  0  0  0  0  0
   -3.7681   -2.8816   -0.2818 H   0  0  0  0  0  0  0  0  0  0  0  0
   -2.1321   -2.2086    0.9112 C   0  0  0  0  0  0  0  0  0  0  0  0
   -1.2751   -2.8426    1.5112 O   0  0  0  0  0  0  0  0  0  0  0  0
   -1.9041   -1.0186    0.3602 N   0  0  0  0  0  0  0  0  0  0  0  0
   -2.6671   -0.5416   -0.0988 H   0  0  0  0  0  0  0  0  0  0  0  0
   -0.6131   -0.3236    0.3832 C   0  0  1  0  0  0  0  0  0  0  0  0
    0.0142   -0.7800    1.1506 H   0  0  0  0  0  0  0  0  0  0  0  0
    0.0816   -0.5059   -0.9788 C   0  0  0  0  0  0  0  0  0  0  0  0
    0.6875   -1.4138   -0.9452 H   0  0  0  0  0  0  0  0  0  0  0  0
   -0.6751   -0.6295   -1.7550 H   0  0  0  0  0  0  0  0  0  0  0  0
    0.9913    0.6664   -1.3640 C   0  0  0  0  0  0  0  0  0  0  0  0
    0.4776    1.6030   -1.1494 H   0  0  0  0  0  0  0  0  0  0  0  0
    1.8989    0.6182   -0.7612 H   0  0  0  0  0  0  0  0  0  0  0  0
    1.4656    0.6734   -3.1118 S   0  0  0  0  0  0  0  0  0  0  0  0
    2.5462   -0.7802   -3.1453 C   0  0  0  0  0  0  0  0  0  0  0  0
    1.9821   -1.6646   -2.8475 H   0  0  0  0  0  0  0  0  0  0  0  0
    2.9295   -0.9224   -4.1560 H   0  0  0  0  0  0  0  0  0  0  0  0
    3.3828   -0.6324   -2.4619 H   0  0  0  0  0  0  0  0  0  0  0  0
   -0.8064    1.1568    0.7414 C   0  0  0  0  0  0  0  0  0  0  0  0
   -1.6978    1.8100    0.2029 O   0  0  0  0  0  0  0  0  0  0  0  0
    0.0314    1.6872    1.6415 N   0  0  0  0  0  0  0  0  0  0  0  0
    0.7279    1.0858    2.0517 H   0  0  0  0  0  0  0  0  0  0  0  0
   -0.0137    3.0826    2.0755 C   0  0  0  0  0  0  0  0  0  0  0  0
   -0.9991    3.3070    2.4905 H   0  0  0  0  0  0  0  0  0  0  0  0
    0.7468    3.2694    2.8349 H   0  0  0  0  0  0  0  0  0  0  0  0
    0.1592    3.7397    1.2213 H   0  0  0  0  0  0  0  0  0  0  0  0
  5  6  2  0  0  0  0
  5  7  1  0  0  0  0
  2  3  1  0  0  0  0
  2  4  1  0  0  0  0
  2  5  1  0  0  0  0
  1  2  1  0  0  0  0
 22 23  2  0  0  0  0
 22 24  1  0  0  0  0
 18 19  1  0  0  0  0
 18 20  1  0  0  0  0
 18 21  1  0  0  0  0
 17 18  1  0  0  0  0
 14 15  1  0  0  0  0
 14 16  1  0  0  0  0
 14 17  1  0  0  0  0
 11 12  1  0  0  0  0
 11 13  1  0  0  0  0
 11 14  1  0  0  0  0
  9 10  1  0  0  0  0
  9 11  1  0  0  0  0
  9 22  1  0  0  0  0
  7  8  1  0  0  0  0
  7  9  1  0  0  0  0
 26 27  1  0  0  0  0
 26 28  1  0  0  0  0
 26 29  1  0  0  0  0
 24 25  1  0  0  0  0
 24 26  1  0  0  0  0
M  END
$$$$
default_name
  -OEChem-02102213163D

 29 28  0     1  0  0  0  0  0999 V2000
   -3.5781   -3.7296    1.2702 H   0  0  0  0  0  0  0  0  0  0  0  0
   -3.5311   -2.7616    0.7732 C   0  0  0  0  0  0  0  0  0  0  0  0
   -4.2371   -2.0766    1.2382 H   0  0  0  0  0  0  0  0  0  0  0  0
   -3.7681   -2.8816   -0.2818 H   0  0  0  0  0  0  0  0  0  0  0  0
   -2.1321   -2.2086    0.9112 C   0  0  0  0  0  0  0  0  0  0  0  0
   -1.2751   -2.8426    1.5112 O   0  0  0  0  0  0  0  0  0  0  0  0
   -1.9041   -1.0186    0.3602 N   0  0  0  0  0  0  0  0  0  0  0  0
   -2.6671   -0.5416   -0.0988 H   0  0  0  0  0  0  0  0  0  0  0  0
   -0.6131   -0.3236    0.3832 C   0  0  1  0  0  0  0  0  0  0  0  0
    0.0142   -0.7800    1.1506 H   0  0  0  0  0  0  0  0  0  0  0  0
    0.0816   -0.5059   -0.9788 C   0  0  0  0  0  0  0  0  0  0  0  0
    0.6875   -1.4138   -0.9452 H   0  0  0  0  0  0  0  0  0  0  0  0
   -0.6751   -0.6295   -1.7550 H   0  0  0  0  0  0  0  0  0  0  0  0
    0.9913    0.6664   -1.3640 C   0  0  0  0  0  0  0  0  0  0  0  0
    0.6057    1.5808   -0.9142 H   0  0  0  0  0  0  0  0  0  0  0  0
    1.9912    0.4774   -0.9718 H   0  0  0  0  0  0  0  0  0  0  0  0
    1.1186    0.9296   -3.1512 S   0  0  0  0  0  0  0  0  0  0  0  0
    2.0519   -0.5516   -3.6167 C   0  0  0  0  0  0  0  0  0  0  0  0
    1.4866   -1.4432   -3.3440 H   0  0  0  0  0  0  0  0  0  0  0  0
    2.2204   -0.5489   -4.6940 H   0  0  0  0  0  0  0  0  0  0  0  0
    3.0138   -0.5568   -3.1033 H   0  0  0  0  0  0  0  0  0  0  0  0
   -0.8064    1.1568    0.7414 C   0  0  0  0  0  0  0  0  0  0  0  0
   -1.6978    1.8100    0.2029 O   0  0  0  0  0  0  0  0  0  0  0  0
    0.0314    1.6872    1.6415 N   0  0  0  0  0  0  0  0  0  0  0  0
    0.7279    1.0858    2.0517 H   0  0  0  0  0  0  0  0  0  0  0  0
   -0.0137    3.0826    2.0755 C   0  0  0  0  0  0  0  0  0  0  0  0
   -0.9991    3.3070    2.4905 H   0  0  0  0  0  0  0  0  0  0  0  0
    0.7468    3.2694    2.8349 H   0  0  0  0  0  0  0  0  0  0  0  0
    0.1592    3.7397    1.2213 H   0  0  0  0  0  0  0  0  0  0  0  0
  5  6  2  0  0  0  0
  5  7  1  0  0  0  0
  2  3  1  0  0  0  0
  2  4  1  0  0  0  0
  2  5  1  0  0  0  0
  1  2  1  0  0  0  0
 22 23  2  0  0  0  0
 22 24  1  0  0  0  0
 18 19  1  0  0  0  0
 18 20  1  0  0  0  0
 18 21  1  0  0  0  0
 17 18  1  0  0  0  0
 14 15  1  0  0  0  0
 14 16  1  0  0  0  0
 14 17  1  0  0  0  0
 11 12  1  0  0  0  0
 11 13  1  0  0  0  0
 11 14  1  0  0  0  0
  9 10  1  0  0  0  0
  9 11  1  0  0  0  0
  9 22  1  0  0  0  0
  7  8  1  0  0  0  0
  7  9  1  0  0  0  0
 26 27  1  0  0  0  0
 26 28  1  0  0  0  0
 26 29  1  0  0  0  0
 24 25  1  0  0  0  0
 24 26  1  0  0  0  0
M  END
$$$$
default_name
  -OEChem-02102213163D

 29 28  0     1  0  0  0  0  0999 V2000
   -3.5781   -3.7296    1.2702 H   0  0  0  0  0  0  0  0  0  0  0  0
   -3.5311   -2.7616    0.7732 C   0  0  0  0  0  0  0  0  0  0  0  0
   -4.2371   -2.0766    1.2382 H   0  0  0  0  0  0  0  0  0  0  0  0
   -3.7681   -2.8816   -0.2818 H   0  0  0  0  0  0  0  0  0  0  0  0
   -2.1321   -2.2086    0.9112 C   0  0  0  0  0  0  0  0  0  0  0  0
   -1.2751   -2.8426    1.5112 O   0  0  0  0  0  0  0  0  0  0  0  0
   -1.9041   -1.0186    0.3602 N   0  0  0  0  0  0  0  0  0  0  0  0
   -2.6671   -0.5416   -0.0988 H   0  0  0  0  0  0  0  0  0  0  0  0
   -0.6131   -0.3236    0.3832 C   0  0  1  0  0  0  0  0  0  0  0  0
    0.0142   -0.7800    1.1506 H   0  0  0  0  0  0  0  0  0  0  0  0
    0.0816   -0.5059   -0.9788 C   0  0  0  0  0  0  0  0  0  0  0  0
    0.6875   -1.4138   -0.9452 H   0  0  0  0  0  0  0  0  0  0  0  0
   -0.6751   -0.6295   -1.7550 H   0  0  0  0  0  0  0  0  0  0  0  0
    0.9913    0.6664   -1.3640 C   0  0  0  0  0  0  0  0  0  0  0  0
    0.7745    1.5150   -0.7159 H   0  0  0  0  0  0  0  0  0  0  0  0
    2.0296    0.3677   -1.2151 H   0  0  0  0  0  0  0  0  0  0  0  0
    0.7924    1.2058   -3.0813 S   0  0  0  0  0  0  0  0  0  0  0  0
    1.4961   -0.2262   -3.9392 C   0  0  0  0  0  0  0  0  0  0  0  0
    0.9240   -1.1208   -3.6915 H   0  0  0  0  0  0  0  0  0  0  0  0
    1.4533   -0.0594   -5.0159 H   0  0  0  0  0  0  0  0  0  0  0  0
    2.5353   -0.3612   -3.6381 H   0  0  0  0  0  0  0  0  0  0  0  0
   -0.8064    1.1568    0.7414 C   0  0  0  0  0  0  0  0  0  0  0  0
   -1.6978    1.8100    0.2029 O   0  0  0  0  0  0  0  0  0  0  0  0
    0.0314    1.6872    1.6415 N   0  0  0  0  0  0  0  0  0  0  0  0
    0.7279    1.0858    2.0517 H   0  0  0  0  0  0  0  0  0  0  0  0
   -0.0137    3.0826    2.0755 C   0  0  0  0  0  0  0  0  0  0  0  0
   -0.9991    3.3070    2.4905 H   0  0  0  0  0  0  0  0  0  0  0  0
    0.7468    3.2694    2.8349 H   0  0  0  0  0  0  0  0  0  0  0  0
    0.1592    3.7397    1.2213 H   0  0  0  0  0  0  0  0  0  0  0  0
  5  6  2  0  0  0  0
  5  7  1  0  0  0  0
  2  3  1  0  0  0  0
  2  4  1  0  0  0  0
  2  5  1  0  0  0  0
  1  2  1  0  0  0  0
 22 23  2  0  0  0  0
 22 24  1  0  0  0  0
 18 19  1  0  0  0  0
 18 20  1  0  0  0  0
 18 21  1  0  0  0  0
 17 18  1  0  0  0  0
 14 15  1  0  0  0  0
 14 16  1  0  0  0  0
 14 17  1  0  0  0  0
 11 12  1  0  0  0  0
 11 13  1  0  0  0  0
 11 14  1  0  0  0  0
  9 10  1  0  0  0  0
  9 11  1  0  0  0  0
  9 22  1  0  0  0  0
  7  8  1  0  0  0  0
  7  9  1  0  0  0  0
 26 27  1  0  0  0  0
 26 28  1  0  0  0  0
 26 29  1  0  0  0  0
 24 25  1  0  0  0  0
 24 26  1  0  0  0  0
M  END
$$$$
default_name
  -OEChem-02102213163D

 29 28  0     1  0  0  0  0  0999 V2000
   -3.5781   -3.7296    1.2702 H   0  0  0  0  0  0  0  0  0  0  0  0
   -3.5311   -2.7616    0.7732 C   0  0  0  0  0  0  0  0  0  0  0  0
   -4.2371   -2.0766    1.2382 H   0  0  0  0  0  0  0  0  0  0  0  0
   -3.7681   -2.8816   -0.2818 H   0  0  0  0  0  0  0  0  0  0  0  0
   -2.1321   -2.2086    0.9112 C   0  0  0  0  0  0  0  0  0  0  0  0
   -1.2751   -2.8426    1.5112 O   0  0  0  0  0  0  0  0  0  0  0  0
   -1.9041   -1.0186    0.3602 N   0  0  0  0  0  0  0  0  0  0  0  0
   -2.6671   -0.5416   -0.0988 H   0  0  0  0  0  0  0  0  0  0  0  0
   -0.6131   -0.3236    0.3832 C   0  0  1  0  0  0  0  0  0  0  0  0
    0.0142   -0.7800    1.1506 H   0  0  0  0  0  0  0  0  0  0  0  0
    0.0816   -0.5059   -0.9788 C   0  0  0  0  0  0  0  0  0  0  0  0
    0.6875   -1.4138   -0.9452 H   0  0  0  0  0  0  0  0  0  0  0  0
   -0.6751   -0.6295   -1.7550 H   0  0  0  0  0  0  0  0  0  0  0  0
    0.9913    0.6664   -1.3640 C   0  0  0  0  0  0  0  0  0  0  0  0
    0.9726    1.4100   -0.5678 H   0  0  0  0  0  0  0  0  0  0  0  0
    2.0113    0.2966   -1.4746 H   0  0  0  0  0  0  0  0  0  0  0  0
    0.5090    1.4830   -2.9068 S   0  0  0  0  0  0  0  0  0  0  0  0
    0.9165    0.1738   -4.0907 C   0  0  0  0  0  0  0  0  0  0  0  0
    0.3328   -0.7195   -3.8664 H   0  0  0  0  0  0  0  0  0  0  0  0
    0.6805    0.5128   -5.0998 H   0  0  0  0  0  0  0  0  0  0  0  0
    1.9800   -0.0590   -4.0301 H   0  0  0  0  0  0  0  0  0  0  0  0
   -0.8064    1.1568    0.7414 C   0  0  0  0  0  0  0  0  0  0  0  0
   -1.6978    1.8100    0.2029 O   0  0  0  0  0  0  0  0  0  0  0  0
    0.0314    1.6872    1.6415 N   0  0  0  0  0  0  0  0  0  0  0  0
    0.7279    1.0858    2.0517 H   0  0  0  0  0  0  0  0  0  0  0  0
   -0.0137    3.0826    2.0755 C   0  0  0  0  0  0  0  0  0  0  0  0
   -0.9991    3.3070    2.4905 H   0  0  0  0  0  0  0  0  0  0  0  0
    0.7468    3.2694    2.8349 H   0  0  0  0  0  0  0  0  0  0  0  0
    0.1592    3.7397    1.2213 H   0  0  0  0  0  0  0  0  0  0  0  0
  5  6  2  0  0  0  0
  5  7  1  0  0  0  0
  2  3  1  0  0  0  0
  2  4  1  0  0  0  0
  2  5  1  0  0  0  0
  1  2  1  0  0  0  0
 22 23  2  0  0  0  0
 22 24  1  0  0  0  0
 18 19  1  0  0  0  0
 18 20  1  0  0  0  0
 18 21  1  0  0  0  0
 17 18  1  0  0  0  0
 14 15  1  0  0  0  0
 14 16  1  0  0  0  0
 14 17  1  0  0  0  0
 11 12  1  0  0  0  0
 11 13  1  0  0  0  0
 11 14  1  0  0  0  0
  9 10  1  0  0  0  0
  9 11  1  0  0  0  0
  9 22  1  0  0  0  0
  7  8  1  0  0  0  0
  7  9  1  0  0  0  0
 26 27  1  0  0  0  0
 26 28  1  0  0  0  0
 26 29  1  0  0  0  0
 24 25  1  0  0  0  0
 24 26  1  0  0  0  0
M  END
$$$$
default_name
  -OEChem-02102213163D

 29 28  0     1  0  0  0  0  0999 V2000
   -3.5781   -3.7296    1.2702 H   0  0  0  0  0  0  0  0  0  0  0  0
   -3.5311   -2.7616    0.7732 C   0  0  0  0  0  0  0  0  0  0  0  0
   -4.2371   -2.0766    1.2382 H   0  0  0  0  0  0  0  0  0  0  0  0
   -3.7681   -2.8816   -0.2818 H   0  0  0  0  0  0  0  0  0  0  0  0
   -2.1321   -2.2086    0.9112 C   0  0  0  0  0  0  0  0  0  0  0  0
   -1.2751   -2.8426    1.5112 O   0  0  0  0  0  0  0  0  0  0  0  0
   -1.9041   -1.0186    0.3602 N   0  0  0  0  0  0  0  0  0  0  0  0
   -2.6671   -0.5416   -0.0988 H   0  0  0  0  0  0  0  0  0  0  0  0
   -0.6131   -0.3236    0.3832 C   0  0  1  0  0  0  0  0  0  0  0  0
    0.0142   -0.7800    1.1506 H   0  0  0  0  0  0  0  0  0  0  0  0
    0.0816   -0.5059   -0.9788 C   0  0  0  0  0  0  0  0  0  0  0  0
    0.6875   -1.4138   -0.9452 H   0  0  0  0  0  0  0  0  0  0  0  0
   -0.6751   -0.6295   -1.7550 H   0  0  0  0  0  0  0  0  0  0  0  0
    0.9913    0.6664   -1.3640 C   0  0  0  0  0  0  0  0  0  0  0  0
    1.1864    1.2729   -0.4801 H   0  0  0  0  0  0  0  0  0  0  0  0
    1.9377    0.2690   -1.7325 H   0  0  0  0  0  0  0  0  0  0  0  0
    0.2879    1.7424   -2.6396 S   0  0  0  0  0  0  0  0  0  0  0  0
    0.3527    0.6211   -4.0609 C   0  0  0  0  0  0  0  0  0  0  0  0
   -0.2467   -0.2665   -3.8566 H   0  0  0  0  0  0  0  0  0  0  0  0
   -0.0454    1.1286   -4.9401 H   0  0  0  0  0  0  0  0  0  0  0  0
    1.3857    0.3292   -4.2523 H   0  0  0  0  0  0  0  0  0  0  0  0
   -0.8064    1.1568    0.7414 C   0  0  0  0  0  0  0  0  0  0  0  0
   -1.6978    1.8100    0.2029 O   0  0  0  0  0  0  0  0  0  0  0  0
    0.0314    1.6872    1.6415 N   0  0  0  0  0  0  0  0  0  0  0  0
    0.7279    1.0858    2.0517 H   0  0  0  0  0  0  0  0  0  0  0  0
   -0.0137    3.0826    2.0755 C   0  0  0  0  0  0  0  0  0  0  0  0
   -0.9991    3.3070    2.4905 H   0  0  0  0  0  0  0  0  0  0  0  0
    0.7468    3.2694    2.8349 H   0  0  0  0  0  0  0  0  0  0  0  0
    0.1592    3.7397    1.2213 H   0  0  0  0  0  0  0  0  0  0  0  0
  5  6  2  0  0  0  0
  5  7  1  0  0  0  0
  2  3  1  0  0  0  0
  2  4  1  0  0  0  0
  2  5  1  0  0  0  0
  1  2  1  0  0  0  0
 22 23  2  0  0  0  0
 22 24  1  0  0  0  0
 18 19  1  0  0  0  0
 18 20  1  0  0  0  0
 18 21  1  0  0  0  0
 17 18  1  0  0  0  0
 14 15  1  0  0  0  0
 14 16  1  0  0  0  0
 14 17  1  0  0  0  0
 11 12  1  0  0  0  0
 11 13  1  0  0  0  0
 11 14  1  0  0  0  0
  9 10  1  0  0  0  0
  9 11  1  0  0  0  0
  9 22  1  0  0  0  0
  7  8  1  0  0  0  0
  7  9  1  0  0  0  0
 26 27  1  0  0  0  0
 26 28  1  0  0  0  0
 26 29  1  0  0  0  0
 24 25  1  0  0  0  0
 24 26  1  0  0  0  0
M  END
$$$$
default_name
  -OEChem-02102213163D

 29 28  0     1  0  0  0  0  0999 V2000
   -3.5781   -3.7296    1.2702 H   0  0  0  0  0  0  0  0  0  0  0  0
   -3.5311   -2.7616    0.7732 C   0  0  0  0  0  0  0  0  0  0  0  0
   -4.2371   -2.0766    1.2382 H   0  0  0  0  0  0  0  0  0  0  0  0
   -3.7681   -2.8816   -0.2818 H   0  0  0  0  0  0  0  0  0  0  0  0
   -2.1321   -2.2086    0.9112 C   0  0  0  0  0  0  0  0  0  0  0  0
   -1.2751   -2.8426    1.5112 O   0  0  0  0  0  0  0  0  0  0  0  0
   -1.9041   -1.0186    0.3602 N   0  0  0  0  0  0  0  0  0  0  0  0
   -2.6671   -0.5416   -0.0988 H   0  0  0  0  0  0  0  0  0  0  0  0
   -0.6131   -0.3236    0.3832 C   0  0  1  0  0  0  0  0  0  0  0  0
    0.0142   -0.7800    1.1506 H   0  0  0  0  0  0  0  0  0  0  0  0
    0.0816   -0.5059   -0.9788 C   0  0  0  0  0  0  0  0  0  0  0  0
    0.6875   -1.4138   -0.9452 H   0  0  0  0  0  0  0  0  0  0  0  0
   -0.6751   -0.6295   -1.7550 H   0  0  0  0  0  0  0  0  0  0  0  0
    0.9913    0.6664   -1.3640 C   0  0  0  0  0  0  0  0  0  0  0  0
    1.4014    1.1131   -0.4587 H   0  0  0  0  0  0  0  0  0  0  0  0
    1.8138    0.2867   -1.9713 H   0  0  0  0  0  0  0  0  0  0  0  0
    0.1441    1.9663   -2.2978 S   0  0  0  0  0  0  0  0  0  0  0  0
   -0.1569    1.0853   -3.8519 C   0  0  0  0  0  0  0  0  0  0  0  0
   -0.7751    0.2072   -3.6629 H   0  0  0  0  0  0  0  0  0  0  0  0
   -0.6749    1.7460   -4.5475 H   0  0  0  0  0  0  0  0  0  0  0  0
    0.7928    0.7769   -4.2898 H   0  0  0  0  0  0  0  0  0  0  0  0
   -0.8064    1.1568    0.7414 C   0  0  0  0  0  0  0  0  0  0  0  0
   -1.6978    1.8100    0.2029 O   0  0  0  0  0  0  0  0  0  0  0  0
    0.0314    1.6872    1.6415 N   0  0  0  0  0  0  0  0  0  0  0  0
    0.7279    1.0858    2.0517 H   0  0  0  0  0  0  0  0  0  0  0  0
   -0.0137    3.0826    2.0755 C   0  0  0  0  0  0  0  0  0  0  0  0
   -0.9991    3.3070    2.4905 H   0  0  0  0  0  0  0  0  0  0  0  0
    0.7468    3.2694    2.8349 H   0  0  0  0  0  0  0  0  0  0  0  0
    0.1592    3.7397    1.2213 H   0  0  0  0  0  0  0  0  0  0  0  0
  5  6  2  0  0  0  0
  5  7  1  0  0  0  0
  2  3  1  0  0  0  0
  2  4  1  0  0  0  0
  2  5  1  0  0  0  0
  1  2  1  0  0  0  0
 22 23  2  0  0  0  0
 22 24  1  0  0  0  0
 18 19  1  0  0  0  0
 18 20  1  0  0  0  0
 18 21  1  0  0  0  0
 17 18  1  0  0  0  0
 14 15  1  0  0  0  0
 14 16  1  0  0  0  0
 14 17  1  0  0  0  0
 11 12  1  0  0  0  0
 11 13  1  0  0  0  0
 11 14  1  0  0  0  0
  9 10  1  0  0  0  0
  9 11  1  0  0  0  0
  9 22  1  0  0  0  0
  7  8  1  0  0  0  0
  7  9  1  0  0  0  0
 26 27  1  0  0  0  0
 26 28  1  0  0  0  0
 26 29  1  0  0  0  0
 24 25  1  0  0  0  0
 24 26  1  0  0  0  0
M  END
$$$$
default_name
  -OEChem-02102213163D

 29 28  0     1  0  0  0  0  0999 V2000
   -3.5781   -3.7296    1.2702 H   0  0  0  0  0  0  0  0  0  0  0  0
   -3.5311   -2.7616    0.7732 C   0  0  0  0  0  0  0  0  0  0  0  0
   -4.2371   -2.0766    1.2382 H   0  0  0  0  0  0  0  0  0  0  0  0
   -3.7681   -2.8816   -0.2818 H   0  0  0  0  0  0  0  0  0  0  0  0
   -2.1321   -2.2086    0.9112 C   0  0  0  0  0  0  0  0  0  0  0  0
   -1.2751   -2.8426    1.5112 O   0  0  0  0  0  0  0  0  0  0  0  0
   -1.9041   -1.0186    0.3602 N   0  0  0  0  0  0  0  0  0  0  0  0
   -2.6671   -0.5416   -0.0988 H   0  0  0  0  0  0  0  0  0  0  0  0
   -0.6131   -0.3236    0.3832 C   0  0  1  0  0  0  0  0  0  0  0  0
    0.0142   -0.7800    1.1506 H   0  0  0  0  0  0  0  0  0  0  0  0
    0.0816   -0.5059   -0.9788 C   0  0  0  0  0  0  0  0  0  0  0  0
    0.6875   -1.4138   -0.9452 H   0  0  0  0  0  0  0  0  0  0  0  0
   -0.6751   -0.6295   -1.7550 H   0  0  0  0  0  0  0  0  0  0  0  0
    0.9913    0.6664   -1.3640 C   0  0  0  0  0  0  0  0  0  0  0  0
    1.6028    0.9414   -0.5052 H   0  0  0  0  0  0  0  0  0  0  0  0
    1.6480    0.3485   -2.1747 H   0  0  0  0  0  0  0  0  0  0  0  0
    0.0873    2.1395   -1.9049 S   0  0  0  0  0  0  0  0  0  0  0  0
   -0.5776    1.5346   -3.4778 C   0  0  0  0  0  0  0  0  0  0  0  0
   -1.2164    0.6694   -3.2984 H   0  0  0  0  0  0  0  0  0  0  0  0
   -1.1651    2.3231   -3.9489 H   0  0  0  0  0  0  0  0  0  0  0  0
    0.2419    1.2537   -4.1398 H   0  0  0  0  0  0  0  0  0  0  0  0
   -0.8064    1.1568    0.7414 C   0  0  0  0  0  0  0  0  0  0  0  0
   -1.6978    1.8100    0.2029 O   0  0  0  0  0  0  0  0  0  0  0  0
    0.0314    1.6872    1.6415 N   0  0  0  0  0  0  0  0  0  0  0  0
    0.7279    1.0858    2.0517 H   0  0  0  0  0  0  0  0  0  0  0  0
   -0.0137    3.0826    2.0755 C   0  0  0  0  0  0  0  0  0  0  0  0
   -0.9991    3.3070    2.4905 H   0  0  0  0  0  0  0  0  0  0  0  0
    0.7468    3.2694    2.8349 H   0  0  0  0  0  0  0  0  0  0  0  0
    0.1592    3.7397    1.2213 H   0  0  0  0  0  0  0  0  0  0  0  0
  5  6  2  0  0  0  0
  5  7  1  0  0  0  0
  2  3  1  0  0  0  0
  2  4  1  0  0  0  0
  2  5  1  0  0  0  0
  1  2  1  0  0  0  0
 22 23  2  0  0  0  0
 22 24  1  0  0  0  0
 18 19  1  0  0  0  0
 18 20  1  0  0  0  0
 18 21  1  0  0  0  0
 17 18  1  0  0  0  0
 14 15  1  0  0  0  0
 14 16  1  0  0  0  0
 14 17  1  0  0  0  0
 11 12  1  0  0  0  0
 11 13  1  0  0  0  0
 11 14  1  0  0  0  0
  9 10  1  0  0  0  0
  9 11  1  0  0  0  0
  9 22  1  0  0  0  0
  7  8  1  0  0  0  0
  7  9  1  0  0  0  0
 26 27  1  0  0  0  0
 26 28  1  0  0  0  0
 26 29  1  0  0  0  0
 24 25  1  0  0  0  0
 24 26  1  0  0  0  0
M  END
$$$$
default_name
  -OEChem-02102213163D

 29 28  0     1  0  0  0  0  0999 V2000
   -3.5781   -3.7296    1.2702 H   0  0  0  0  0  0  0  0  0  0  0  0
   -3.5311   -2.7616    0.7732 C   0  0  0  0  0  0  0  0  0  0  0  0
   -4.2371   -2.0766    1.2382 H   0  0  0  0  0  0  0  0  0  0  0  0
   -3.7681   -2.8816   -0.2818 H   0  0  0  0  0  0  0  0  0  0  0  0
   -2.1321   -2.2086    0.9112 C   0  0  0  0  0  0  0  0  0  0  0  0
   -1.2751   -2.8426    1.5112 O   0  0  0  0  0  0  0  0  0  0  0  0
   -1.9041   -1.0186    0.3602 N   0  0  0  0  0  0  0  0  0  0  0  0
   -2.6671   -0.5416   -0.0988 H   0  0  0  0  0  0  0  0  0  0  0  0
   -0.6131   -0.3236    0.3832 C   0  0  1  0  0  0  0  0  0  0  0  0
    0.0142   -0.7800    1.1506 H   0  0  0  0  0  0  0  0  0  0  0  0
    0.0816   -0.5059   -0.9788 C   0  0  0  0  0  0  0  0  0  0  0  0
    0.6875   -1.4138   -0.9452 H   0  0  0  0  0  0  0  0  0  0  0  0
   -0.6751   -0.6295   -1.7550 H   0  0  0  0  0  0  0  0  0  0  0  0
    0.9913    0.6664   -1.3640 C   0  0  0  0  0  0  0  0  0  0  0  0
    1.7771    0.7697   -0.6163 H   0  0  0  0  0  0  0  0  0  0  0  0
    1.4516    0.4503   -2.3288 H   0  0  0  0  0  0  0  0  0  0  0  0
    0.1215    2.2501   -1.4875 S   0  0  0  0  0  0  0  0  0  0  0  0
   -0.8807    1.9386   -2.9641 C   0  0  0  0  0  0  0  0  0  0  0  0
   -1.5405    1.0885   -2.7881 H   0  0  0  0  0  0  0  0  0  0  0  0
   -1.4826    2.8205   -3.1850 H   0  0  0  0  0  0  0  0  0  0  0  0
   -0.2295    1.7270   -3.8127 H   0  0  0  0  0  0  0  0  0  0  0  0
   -0.8064    1.1568    0.7414 C   0  0  0  0  0  0  0  0  0  0  0  0
   -1.6978    1.8100    0.2029 O   0  0  0  0  0  0  0  0  0  0  0  0
    0.0314    1.6872    1.6415 N   0  0  0  0  0  0  0  0  0  0  0  0
    0.7279    1.0858    2.0517 H   0  0  0  0  0  0  0  0  0  0  0  0
   -0.0137    3.0826    2.0755 C   0  0  0  0  0  0  0  0  0  0  0  0
   -0.9991    3.3070    2.4905 H   0  0  0  0  0  0  0  0  0  0  0  0
    0.7468    3.2694    2.8349 H   0  0  0  0  0  0  0  0  0  0  0  0
    0.1592    3.7397    1.2213 H   0  0  0  0  0  0  0  0  0  0  0  0
  5  6  2  0  0  0  0
  5  7  1  0  0  0  0
  2  3  1  0  0  0  0
  2  4  1  0  0  0  0
  2  5  1  0  0  0  0
  1  2  1  0  0  0  0
 22 23  2  0  0  0  0
 22 24  1  0  0  0  0
 18 19  1  0  0  0  0
 18 20  1  0  0  0  0
 18 21  1  0  0  0  0
 17 18  1  0  0  0  0
 14 15  1  0  0  0  0
 14 16  1  0  0  0  0
 14 17  1  0  0  0  0
 11 12  1  0  0  0  0
 11 13  1  0  0  0  0
 11 14  1  0  0  0  0
  9 10  1  0  0  0  0
  9 11  1  0  0  0  0
  9 22  1  0  0  0  0
  7  8  1  0  0  0  0
  7  9  1  0  0  0  0
 26 27  1  0  0  0  0
 26 28  1  0  0  0  0
 26 29  1  0  0  0  0
 24 25  1  0  0  0  0
 24 26  1  0  0  0  0
M  END
$$$$
default_name
  -OEChem-02102213163D

 29 28  0     1  0  0  0  0  0999 V2000
   -3.5781   -3.7296    1.2702 H   0  0  0  0  0  0  0  0  0  0  0  0
   -3.5311   -2.7616    0.7732 C   0  0  0  0  0  0  0  0  0  0  0  0
   -4.2371   -2.0766    1.2382 H   0  0  0  0  0  0  0  0  0  0  0  0
   -3.7681   -2.8816   -0.2818 H   0  0  0  0  0  0  0  0  0  0  0  0
   -2.1321   -2.2086    0.9112 C   0  0  0  0  0  0  0  0  0  0  0  0
   -1.2751   -2.8426    1.5112 O   0  0  0  0  0  0  0  0  0  0  0  0
   -1.9041   -1.0186    0.3602 N   0  0  0  0  0  0  0  0  0  0  0  0
   -2.6671   -0.5416   -0.0988 H   0  0  0  0  0  0  0  0  0  0  0  0
   -0.6131   -0.3236    0.3832 C   0  0  1  0  0  0  0  0  0  0  0  0
    0.0142   -0.7800    1.1506 H   0  0  0  0  0  0  0  0  0  0  0  0
    0.0816   -0.5059   -0.9788 C   0  0  0  0  0  0  0  0  0  0  0  0
    0.6875   -1.4138   -0.9452 H   0  0  0  0  0  0  0  0  0  0  0  0
   -0.6751   -0.6295   -1.7550 H   0  0  0  0  0  0  0  0  0  0  0  0
    0.9913    0.6664   -1.3640 C   0  0  0  0  0  0  0  0  0  0  0  0
    1.9122    0.6096   -0.7845 H   0  0  0  0  0  0  0  0  0  0  0  0
    1.2380    0.5850   -2.4232 H   0  0  0  0  0  0  0  0  0  0  0  0
    0.2444    2.2905   -1.0742 S   0  0  0  0  0  0  0  0  0  0  0  0
   -1.0455    2.2696   -2.3460 C   0  0  0  0  0  0  0  0  0  0  0  0
   -1.7252    1.4361   -2.1666 H   0  0  0  0  0  0  0  0  0  0  0  0
   -1.6058    3.2042   -2.3080 H   0  0  0  0  0  0  0  0  0  0  0  0
   -0.5894    2.1647   -3.3308 H   0  0  0  0  0  0  0  0  0  0  0  0
   -0.8064    1.1568    0.7414 C   0  0  0  0  0  0  0  0  0  0  0  0
   -1.6978    1.8100    0.2029 O   0  0  0  0  0  0  0  0  0  0  0  0
    0.0314    1.6872    1.6415 N   0  0  0  0  0  0  0  0  0  0  0  0
    0.7279    1.0858    2.0517 H   0  0  0  0  0  0  0  0  0  0  0  0
   -0.0137    3.0826    2.0755 C   0  0  0  0  0  0  0  0  0  0  0  0
   -0.9991    3.3070    2.4905 H   0  0  0  0  0  0  0  0  0  0  0  0
    0.7468    3.2694    2.8349 H   0  0  0  0  0  0  0  0  0  0  0  0
    0.1592    3.7397    1.2213 H   0  0  0  0  0  0  0  0  0  0  0  0
  5  6  2  0  0  0  0
  5  7  1  0  0  0  0
  2  3  1  0  0  0  0
  2  4  1  0  0  0  0
  2  5  1  0  0  0  0
  1  2  1  0  0  0  0
 22 23  2  0  0  0  0
 22 24  1  0  0  0  0
 18 19  1  0  0  0  0
 18 20  1  0  0  0  0
 18 21  1  0  0  0  0
 17 18  1  0  0  0  0
 14 15  1  0  0  0  0
 14 16  1  0  0  0  0
 14 17  1  0  0  0  0
 11 12  1  0  0  0  0
 11 13  1  0  0  0  0
 11 14  1  0  0  0  0
  9 10  1  0  0  0  0
  9 11  1  0  0  0  0
  9 22  1  0  0  0  0
  7  8  1  0  0  0  0
  7  9  1  0  0  0  0
 26 27  1  0  0  0  0
 26 28  1  0  0  0  0
 26 29  1  0  0  0  0
 24 25  1  0  0  0  0
 24 26  1  0  0  0  0
M  END
$$$$
default_name
  -OEChem-02102213163D

 29 28  0     1  0  0  0  0  0999 V2000
   -3.5781   -3.7296    1.2702 H   0  0  0  0  0  0  0  0  0  0  0  0
   -3.5311   -2.7616    0.7732 C   0  0  0  0  0  0  0  0  0  0  0  0
   -4.2371   -2.0766    1.2382 H   0  0  0  0  0  0  0  0  0  0  0  0
   -3.7681   -2.8816   -0.2818 H   0  0  0  0  0  0  0  0  0  0  0  0
   -2.1321   -2.2086    0.9112 C   0  0  0  0  0  0  0  0  0  0  0  0
   -1.2751   -2.8426    1.5112 O   0  0  0  0  0  0  0  0  0  0  0  0
   -1.9041   -1.0186    0.3602 N   0  0  0  0  0  0  0  0  0  0  0  0
   -2.6671   -0.5416   -0.0988 H   0  0  0  0  0  0  0  0  0  0  0  0
   -0.6131   -0.3236    0.3832 C   0  0  1  0  0  0  0  0  0  0  0  0
    0.0142   -0.7800    1.1506 H   0  0  0  0  0  0  0  0  0  0  0  0
    0.0816   -0.5059   -0.9788 C   0  0  0  0  0  0  0  0  0  0  0  0
    0.6875   -1.4138   -0.9452 H   0  0  0  0  0  0  0  0  0  0  0  0
   -0.6751   -0.6295   -1.7550 H   0  0  0  0  0  0  0  0  0  0  0  0
    0.9913    0.6664   -1.3640 C   0  0  0  0  0  0  0  0  0  0  0  0
    1.9991    0.4719   -0.9983 H   0  0  0  0  0  0  0  0  0  0  0  0
    1.0217    0.7436   -2.4514 H   0  0  0  0  0  0  0  0  0  0  0  0
    0.4475    2.2582   -0.6930 S   0  0  0  0  0  0  0  0  0  0  0  0
   -1.0609    2.5051   -1.6655 C   0  0  0  0  0  0  0  0  0  0  0  0
   -1.7581    1.6883   -1.4764 H   0  0  0  0  0  0  0  0  0  0  0  0
   -1.5262    3.4482   -1.3775 H   0  0  0  0  0  0  0  0  0  0  0  0
   -0.8132    2.5368   -2.7268 H   0  0  0  0  0  0  0  0  0  0  0  0
   -0.8064    1.1568    0.7414 C   0  0  0  0  0  0  0  0  0  0  0  0
   -1.6978    1.8100    0.2029 O   0  0  0  0  0  0  0  0  0  0  0  0
    0.0314    1.6872    1.6415 N   0  0  0  0  0  0  0  0  0  0  0  0
    0.7279    1.0858    2.0517 H   0  0  0  0  0  0  0  0  0  0  0  0
   -0.0137    3.0826    2.0755 C   0  0  0  0  0  0  0  0  0  0  0  0
   -0.9991    3.3070    2.4905 H   0  0  0  0  0  0  0  0  0  0  0  0
    0.7468    3.2694    2.8349 H   0  0  0  0  0  0  0  0  0  0  0  0
    0.1592    3.7397    1.2213 H   0  0  0  0  0  0  0  0  0  0  0  0
  5  6  2  0  0  0  0
  5  7  1  0  0  0  0
  2  3  1  0  0  0  0
  2  4  1  0  0  0  0
  2  5  1  0  0  0  0
  1  2  1  0  0  0  0
 22 23  2  0  0  0  0
 22 24  1  0  0  0  0
 18 19  1  0  0  0  0
 18 20  1  0  0  0  0
 18 21  1  0  0  0  0
 17 18  1  0  0  0  0
 14 15  1  0  0  0  0
 14 16  1  0  0  0  0
 14 17  1  0  0  0  0
 11 12  1  0  0  0  0
 11 13  1  0  0  0  0
 11 14  1  0  0  0  0
  9 10  1  0  0  0  0
  9 11  1  0  0  0  0
  9 22  1  0  0  0  0
  7  8  1  0  0  0  0
  7  9  1  0  0  0  0
 26 27  1  0  0  0  0
 26 28  1  0  0  0  0
 26 29  1  0  0  0  0
 24 25  1  0  0  0  0
 24 26  1  0  0  0  0
M  END
$$$$
default_name
  -OEChem-02102213163D

 29 28  0     1  0  0  0  0  0999 V2000
   -3.5781   -3.7296    1.2702 H   0  0  0  0  0  0  0  0  0  0  0  0
   -3.5311   -2.7616    0.7732 C   0  0  0  0  0  0  0  0  0  0  0  0
   -4.2371   -2.0766    1.2382 H   0  0  0  0  0  0  0  0  0  0  0  0
   -3.7681   -2.8816   -0.2818 H   0  0  0  0  0  0  0  0  0  0  0  0
   -2.1321   -2.2086    0.9112 C   0  0  0  0  0  0  0  0  0  0  0  0
   -1.2751   -2.8426    1.5112 O   0  0  0  0  0  0  0  0  0  0  0  0
   -1.9041   -1.0186    0.3602 N   0  0  0  0  0  0  0  0  0  0  0  0
   -2.6671   -0.5416   -0.0988 H   0  0  0  0  0  0  0  0  0  0  0  0
   -0.6131   -0.3236    0.3832 C   0  0  1  0  0  0  0  0  0  0  0  0
    0.0142   -0.7800    1.1506 H   0  0  0  0  0  0  0  0  0  0  0  0
    0.0816   -0.5059   -0.9788 C   0  0  0  0  0  0  0  0  0  0  0  0
    0.6875   -1.4138   -0.9452 H   0  0  0  0  0  0  0  0  0  0  0  0
   -0.6751   -0.6295   -1.7550 H   0  0  0  0  0  0  0  0  0  0  0  0
    0.9913    0.6664   -1.3640 C   0  0  0  0  0  0  0  0  0  0  0  0
    2.0317    0.3662   -1.2431 H   0  0  0  0  0  0  0  0  0  0  0  0
    0.8176    0.9151   -2.4116 H   0  0  0  0  0  0  0  0  0  0  0  0
    0.7170    2.1551   -0.3700 S   0  0  0  0  0  0  0  0  0  0  0  0
   -0.9257    2.6291   -0.9689 C   0  0  0  0  0  0  0  0  0  0  0  0
   -1.6368    1.8282   -0.7644 H   0  0  0  0  0  0  0  0  0  0  0  0
   -1.2493    3.5358   -0.4570 H   0  0  0  0  0  0  0  0  0  0  0  0
   -0.8856    2.8180   -2.0420 H   0  0  0  0  0  0  0  0  0  0  0  0
   -0.8064    1.1568    0.7414 C   0  0  0  0  0  0  0  0  0  0  0  0
   -1.6978    1.8100    0.2029 O   0  0  0  0  0  0  0  0  0  0  0  0
    0.0314    1.6872    1.6415 N   0  0  0  0  0  0  0  0  0  0  0  0
    0.7279    1.0858    2.0517 H   0  0  0  0  0  0  0  0  0  0  0  0
   -0.0137    3.0826    2.0755 C   0  0  0  0  0  0  0  0  0  0  0  0
   -0.9991    3.3070    2.4905 H   0  0  0  0  0  0  0  0  0  0  0  0
    0.7468    3.2694    2.8349 H   0  0  0  0  0  0  0  0  0  0  0  0
    0.1592    3.7397    1.2213 H   0  0  0  0  0  0  0  0  0  0  0  0
  5  6  2  0  0  0  0
  5  7  1  0  0  0  0
  2  3  1  0  0  0  0
  2  4  1  0  0  0  0
  2  5  1  0  0  0  0
  1  2  1  0  0  0  0
 22 23  2  0  0  0  0
 22 24  1  0  0  0  0
 18 19  1  0  0  0  0
 18 20  1  0  0  0  0
 18 21  1  0  0  0  0
 17 18  1  0  0  0  0
 14 15  1  0  0  0  0
 14 16  1  0  0  0  0
 14 17  1  0  0  0  0
 11 12  1  0  0  0  0
 11 13  1  0  0  0  0
 11 14  1  0  0  0  0
  9 10  1  0  0  0  0
  9 11  1  0  0  0  0
  9 22  1  0  0  0  0
  7  8  1  0  0  0  0
  7  9  1  0  0  0  0
 26 27  1  0  0  0  0
 26 28  1  0  0  0  0
 26 29  1  0  0  0  0
 24 25  1  0  0  0  0
 24 26  1  0  0  0  0
M  END
$$$$
default_name
  -OEChem-02102213163D

 29 28  0     1  0  0  0  0  0999 V2000
   -3.5781   -3.7296    1.2702 H   0  0  0  0  0  0  0  0  0  0  0  0
   -3.5311   -2.7616    0.7732 C   0  0  0  0  0  0  0  0  0  0  0  0
   -4.2371   -2.0766    1.2382 H   0  0  0  0  0  0  0  0  0  0  0  0
   -3.7681   -2.8816   -0.2818 H   0  0  0  0  0  0  0  0  0  0  0  0
   -2.1321   -2.2086    0.9112 C   0  0  0  0  0  0  0  0  0  0  0  0
   -1.2751   -2.8426    1.5112 O   0  0  0  0  0  0  0  0  0  0  0  0
   -1.9041   -1.0186    0.3602 N   0  0  0  0  0  0  0  0  0  0  0  0
   -2.6671   -0.5416   -0.0988 H   0  0  0  0  0  0  0  0  0  0  0  0
   -0.6131   -0.3236    0.3832 C   0  0  1  0  0  0  0  0  0  0  0  0
    0.0142   -0.7800    1.1506 H   0  0  0  0  0  0  0  0  0  0  0  0
    0.0816   -0.5059   -0.9788 C   0  0  0  0  0  0  0  0  0  0  0  0
    0.6875   -1.4138   -0.9452 H   0  0  0  0  0  0  0  0  0  0  0  0
   -0.6751   -0.6295   -1.7550 H   0  0  0  0  0  0  0  0  0  0  0  0
    0.9913    0.6664   -1.3640 C   0  0  0  0  0  0  0  0  0  0  0  0
    2.0079    0.2995   -1.5023 H   0  0  0  0  0  0  0  0  0  0  0  0
    0.6394    1.0880   -2.3063 H   0  0  0  0  0  0  0  0  0  0  0  0
    1.0346    1.9885   -0.1271 S   0  0  0  0  0  0  0  0  0  0  0  0
   -0.6492    2.6331   -0.3038 C   0  0  0  0  0  0  0  0  0  0  0  0
   -1.3697    1.8460   -0.0793 H   0  0  0  0  0  0  0  0  0  0  0  0
   -0.7940    3.4610    0.3908 H   0  0  0  0  0  0  0  0  0  0  0  0
   -0.8017    2.9891   -1.3230 H   0  0  0  0  0  0  0  0  0  0  0  0
   -0.8064    1.1568    0.7414 C   0  0  0  0  0  0  0  0  0  0  0  0
   -1.6978    1.8100    0.2029 O   0  0  0  0  0  0  0  0  0  0  0  0
    0.0314    1.6872    1.6415 N   0  0  0  0  0  0  0  0  0  0  0  0
    0.7279    1.0858    2.0517 H   0  0  0  0  0  0  0  0  0  0  0  0
   -0.0137    3.0826    2.0755 C   0  0  0  0  0  0  0  0  0  0  0  0
   -0.9991    3.3070    2.4905 H   0  0  0  0  0  0  0  0  0  0  0  0
    0.7468    3.2694    2.8349 H   0  0  0  0  0  0  0  0  0  0  0  0
    0.1592    3.7397    1.2213 H   0  0  0  0  0  0  0  0  0  0  0  0
  5  6  2  0  0  0  0
  5  7  1  0  0  0  0
  2  3  1  0  0  0  0
  2  4  1  0  0  0  0
  2  5  1  0  0  0  0
  1  2  1  0  0  0  0
 22 23  2  0  0  0  0
 22 24  1  0  0  0  0
 18 19  1  0  0  0  0
 18 20  1  0  0  0  0
 18 21  1  0  0  0  0
 17 18  1  0  0  0  0
 14 15  1  0  0  0  0
 14 16  1  0  0  0  0
 14 17  1  0  0  0  0
 11 12  1  0  0  0  0
 11 13  1  0  0  0  0
 11 14  1  0  0  0  0
  9 10  1  0  0  0  0
  9 11  1  0  0  0  0
  9 22  1  0  0  0  0
  7  8  1  0  0  0  0
  7  9  1  0  0  0  0
 26 27  1  0  0  0  0
 26 28  1  0  0  0  0
 26 29  1  0  0  0  0
 24 25  1  0  0  0  0
 24 26  1  0  0  0  0
M  END
$$$$
default_name
  -OEChem-02102213163D

 29 28  0     1  0  0  0  0  0999 V2000
   -3.5781   -3.7296    1.2702 H   0  0  0  0  0  0  0  0  0  0  0  0
   -3.5311   -2.7616    0.7732 C   0  0  0  0  0  0  0  0  0  0  0  0
   -4.2371   -2.0766    1.2382 H   0  0  0  0  0  0  0  0  0  0  0  0
   -3.7681   -2.8816   -0.2818 H   0  0  0  0  0  0  0  0  0  0  0  0
   -2.1321   -2.2086    0.9112 C   0  0  0  0  0  0  0  0  0  0  0  0
   -1.2751   -2.8426    1.5112 O   0  0  0  0  0  0  0  0  0  0  0  0
   -1.9041   -1.0186    0.3602 N   0  0  0  0  0  0  0  0  0  0  0  0
   -2.6671   -0.5416   -0.0988 H   0  0  0  0  0  0  0  0  0  0  0  0
   -0.6131   -0.3236    0.3832 C   0  0  1  0  0  0  0  0  0  0  0  0
    0.0142   -0.7800    1.1506 H   0  0  0  0  0  0  0  0  0  0  0  0
    0.0816   -0.5059   -0.9788 C   0  0  0  0  0  0  0  0  0  0  0  0
    0.6875   -1.4138   -0.9452 H   0  0  0  0  0  0  0  0  0  0  0  0
   -0.6751   -0.6295   -1.7550 H   0  0  0  0  0  0  0  0  0  0  0  0
    0.9913    0.6664   -1.3640 C   0  0  0  0  0  0  0  0  0  0  0  0
    1.9292    0.2765   -1.7582 H   0  0  0  0  0  0  0  0  0  0  0  0
    0.4994    1.2503   -2.1428 H   0  0  0  0  0  0  0  0  0  0  0  0
    1.3785    1.7696    0.0190 S   0  0  0  0  0  0  0  0  0  0  0  0
   -0.2503    2.5168    0.2846 C   0  0  0  0  0  0  0  0  0  0  0  0
   -0.9749    1.7406    0.5324 H   0  0  0  0  0  0  0  0  0  0  0  0
   -0.1913    3.2289    1.1081 H   0  0  0  0  0  0  0  0  0  0  0  0
   -0.5673    3.0386   -0.6188 H   0  0  0  0  0  0  0  0  0  0  0  0
   -0.8064    1.1568    0.7414 C   0  0  0  0  0  0  0  0  0  0  0  0
   -1.6978    1.8100    0.2029 O   0  0  0  0  0  0  0  0  0  0  0  0
    0.0314    1.6872    1.6415 N   0  0  0  0  0  0  0  0  0  0  0  0
    0.7279    1.0858    2.0517 H   0  0  0  0  0  0  0  0  0  0  0  0
   -0.0137    3.0826    2.0755 C   0  0  0  0  0  0  0  0  0  0  0  0
   -0.9991    3.3070    2.4905 H   0  0  0  0  0  0  0  0  0  0  0  0
    0.7468    3.2694    2.8349 H   0  0  0  0  0  0  0  0  0  0  0  0
    0.1592    3.7397    1.2213 H   0  0  0  0  0  0  0  0  0  0  0  0
  5  6  2  0  0  0  0
  5  7  1  0  0  0  0
  2  3  1  0  0  0  0
  2  4  1  0  0  0  0
  2  5  1  0  0  0  0
  1  2  1  0  0  0  0
 22 23  2  0  0  0  0
 22 24  1  0  0  0  0
 18 19  1  0  0  0  0
 18 20  1  0  0  0  0
 18 21  1  0  0  0  0
 17 18  1  0  0  0  0
 14 15  1  0  0  0  0
 14 16  1  0  0  0  0
 14 17  1  0  0  0  0
 11 12  1  0  0  0  0
 11 13  1  0  0  0  0
 11 14  1  0  0  0  0
  9 10  1  0  0  0  0
  9 11  1  0  0  0  0
  9 22  1  0  0  0  0
  7  8  1  0  0  0  0
  7  9  1  0  0  0  0
 26 27  1  0  0  0  0
 26 28  1  0  0  0  0
 26 29  1  0  0  0  0
 24 25  1  0  0  0  0
 24 26  1  0  0  0  0
M  END
$$$$
default_name
  -OEChem-02102213163D

 29 28  0     1  0  0  0  0  0999 V2000
   -3.5781   -3.7296    1.2702 H   0  0  0  0  0  0  0  0  0  0  0  0
   -3.5311   -2.7616    0.7732 C   0  0  0  0  0  0  0  0  0  0  0  0
   -4.2371   -2.0766    1.2382 H   0  0  0  0  0  0  0  0  0  0  0  0
   -3.7681   -2.8816   -0.2818 H   0  0  0  0  0  0  0  0  0  0  0  0
   -2.1321   -2.2086    0.9112 C   0  0  0  0  0  0  0  0  0  0  0  0
   -1.2751   -2.8426    1.5112 O   0  0  0  0  0  0  0  0  0  0  0  0
   -1.9041   -1.0186    0.3602 N   0  0  0  0  0  0  0  0  0  0  0  0
   -2.6671   -0.5416   -0.0988 H   0  0  0  0  0  0  0  0  0  0  0  0
   -0.6131   -0.3236    0.3832 C   0  0  1  0  0  0  0  0  0  0  0  0
    0.0142   -0.7800    1.1506 H   0  0  0  0  0  0  0  0  0  0  0  0
    0.0816   -0.5059   -0.9788 C   0  0  0  0  0  0  0  0  0  0  0  0
    0.6875   -1.4138   -0.9452 H   0  0  0  0  0  0  0  0  0  0  0  0
   -0.6751   -0.6295   -1.7550 H   0  0  0  0  0  0  0  0  0  0  0  0
    0.9913    0.6664   -1.3640 C   0  0  0  0  0  0  0  0  0  0  0  0
    1.8011    0.2986   -1.9934 H   0  0  0  0  0  0  0  0  0  0  0  0
    0.4071    1.3912   -1.9322 H   0  0  0  0  0  0  0  0  0  0  0  0
    1.7255    1.5133    0.0585 S   0  0  0  0  0  0  0  0  0  0  0  0
    0.2440    2.2881    0.7561 C   0  0  0  0  0  0  0  0  0  0  0  0
   -0.4793    1.5192    1.0289 H   0  0  0  0  0  0  0  0  0  0  0  0
    0.5178    2.8554    1.6460 H   0  0  0  0  0  0  0  0  0  0  0  0
   -0.1983    2.9629    0.0226 H   0  0  0  0  0  0  0  0  0  0  0  0
   -0.8064    1.1568    0.7414 C   0  0  0  0  0  0  0  0  0  0  0  0
   -1.6978    1.8100    0.2029 O   0  0  0  0  0  0  0  0  0  0  0  0
    0.0314    1.6872    1.6415 N   0  0  0  0  0  0  0  0  0  0  0  0
    0.7279    1.0858    2.0517 H   0  0  0  0  0  0  0  0  0  0  0  0
   -0.0137    3.0826    2.0755 C   0  0  0  0  0  0  0  0  0  0  0  0
   -0.9991    3.3070    2.4905 H   0  0  0  0  0  0  0  0  0  0  0  0
    0.7468    3.2694    2.8349 H   0  0  0  0  0  0  0  0  0  0  0  0
    0.1592    3.7397    1.2213 H   0  0  0  0  0  0  0  0  0  0  0  0
  5  6  2  0  0  0  0
  5  7  1  0  0  0  0
  2  3  1  0  0  0  0
  2  4  1  0  0  0  0
  2  5  1  0  0  0  0
  1  2  1  0  0  0  0
 22 23  2  0  0  0  0
 22 24  1  0  0  0  0
 18 19  1  0  0  0  0
 18 20  1  0  0  0  0
 18 21  1  0  0  0  0
 17 18  1  0  0  0  0
 14 15  1  0  0  0  0
 14 16  1  0  0  0  0
 14 17  1  0  0  0  0
 11 12  1  0  0  0  0
 11 13  1  0  0  0  0
 11 14  1  0  0  0  0
  9 10  1  0  0  0  0
  9 11  1  0  0  0  0
  9 22  1  0  0  0  0
  7  8  1  0  0  0  0
  7  9  1  0  0  0  0
 26 27  1  0  0  0  0
 26 28  1  0  0  0  0
 26 29  1  0  0  0  0
 24 25  1  0  0  0  0
 24 26  1  0  0  0  0
M  END
$$$$
default_name
  -OEChem-02102213163D

 29 28  0     1  0  0  0  0  0999 V2000
   -3.5781   -3.7296    1.2702 H   0  0  0  0  0  0  0  0  0  0  0  0
   -3.5311   -2.7616    0.7732 C   0  0  0  0  0  0  0  0  0  0  0  0
   -4.2371   -2.0766    1.2382 H   0  0  0  0  0  0  0  0  0  0  0  0
   -3.7681   -2.8816   -0.2818 H   0  0  0  0  0  0  0  0  0  0  0  0
   -2.1321   -2.2086    0.9112 C   0  0  0  0  0  0  0  0  0  0  0  0
   -1.2751   -2.8426    1.5112 O   0  0  0  0  0  0  0  0  0  0  0  0
   -1.9041   -1.0186    0.3602 N   0  0  0  0  0  0  0  0  0  0  0  0
   -2.6671   -0.5416   -0.0988 H   0  0  0  0  0  0  0  0  0  0  0  0
   -0.6131   -0.3236    0.3832 C   0  0  1  0  0  0  0  0  0  0  0  0
    0.0142   -0.7800    1.1506 H   0  0  0  0  0  0  0  0  0  0  0  0
    0.0816   -0.5059   -0.9788 C   0  0  0  0  0  0  0  0  0  0  0  0
    0.6875   -1.4138   -0.9452 H   0  0  0  0  0  0  0  0  0  0  0  0
   -0.6751   -0.6295   -1.7550 H   0  0  0  0  0  0  0  0  0  0  0  0
    0.9913    0.6664   -1.3640 C   0  0  0  0  0  0  0  0  0  0  0  0
    1.6323    0.3645   -2.1917 H   0  0  0  0  0  0  0  0  0  0  0  0
    0.3688    1.5008   -1.6889 H   0  0  0  0  0  0  0  0  0  0  0  0
    2.0517    1.2371   -0.0114 S   0  0  0  0  0  0  0  0  0  0  0  0
    0.7998    1.9627    1.0786 C   0  0  0  0  0  0  0  0  0  0  0  0
    0.0832    1.1968    1.3765 H   0  0  0  0  0  0  0  0  0  0  0  0
    1.2849    2.3659    1.9679 H   0  0  0  0  0  0  0  0  0  0  0  0
    0.2802    2.7673    0.5575 H   0  0  0  0  0  0  0  0  0  0  0  0
   -0.8064    1.1568    0.7414 C   0  0  0  0  0  0  0  0  0  0  0  0
   -1.6978    1.8100    0.2029 O   0  0  0  0  0  0  0  0  0  0  0  0
    0.0314    1.6872    1.6415 N   0  0  0  0  0  0  0  0  0  0  0  0
    0.7279    1.0858    2.0517 H   0  0  0  0  0  0  0  0  0  0  0  0
   -0.0137    3.0826    2.0755 C   0  0  0  0  0  0  0  0  0  0  0  0
   -0.9991    3.3070    2.4905 H   0  0  0  0  0  0  0  0  0  0  0  0
    0.7468    3.2694    2.8349 H   0  0  0  0  0  0  0  0  0  0  0  0
    0.1592    3.7397    1.2213 H   0  0  0  0  0  0  0  0  0  0  0  0
  5  6  2  0  0  0  0
  5  7  1  0  0  0  0
  2  3  1  0  0  0  0
  2  4  1  0  0  0  0
  2  5  1  0  0  0  0
  1  2  1  0  0  0  0
 22 23  2  0  0  0  0
 22 24  1  0  0  0  0
 18 19  1  0  0  0  0
 18 20  1  0  0  0  0
 18 21  1  0  0  0  0
 17 18  1  0  0  0  0
 14 15  1  0  0  0  0
 14 16  1  0  0  0  0
 14 17  1  0  0  0  0
 11 12  1  0  0  0  0
 11 13  1  0  0  0  0
 11 14  1  0  0  0  0
  9 10  1  0  0  0  0
  9 11  1  0  0  0  0
  9 22  1  0  0  0  0
  7  8  1  0  0  0  0
  7  9  1  0  0  0  0
 26 27  1  0  0  0  0
 26 28  1  0  0  0  0
 26 29  1  0  0  0  0
 24 25  1  0  0  0  0
 24 26  1  0  0  0  0
M  END
$$$$
default_name
  -OEChem-02102213163D

 29 28  0     1  0  0  0  0  0999 V2000
   -3.5781   -3.7296    1.2702 H   0  0  0  0  0  0  0  0  0  0  0  0
   -3.5311   -2.7616    0.7732 C   0  0  0  0  0  0  0  0  0  0  0  0
   -4.2371   -2.0766    1.2382 H   0  0  0  0  0  0  0  0  0  0  0  0
   -3.7681   -2.8816   -0.2818 H   0  0  0  0  0  0  0  0  0  0  0  0
   -2.1321   -2.2086    0.9112 C   0  0  0  0  0  0  0  0  0  0  0  0
   -1.2751   -2.8426    1.5112 O   0  0  0  0  0  0  0  0  0  0  0  0
   -1.9041   -1.0186    0.3602 N   0  0  0  0  0  0  0  0  0  0  0  0
   -2.6671   -0.5416   -0.0988 H   0  0  0  0  0  0  0  0  0  0  0  0
   -0.6131   -0.3236    0.3832 C   0  0  1  0  0  0  0  0  0  0  0  0
    0.0142   -0.7800    1.1506 H   0  0  0  0  0  0  0  0  0  0  0  0
    0.0816   -0.5059   -0.9788 C   0  0  0  0  0  0  0  0  0  0  0  0
    0.6875   -1.4138   -0.9452 H   0  0  0  0  0  0  0  0  0  0  0  0
   -0.6751   -0.6295   -1.7550 H   0  0  0  0  0  0  0  0  0  0  0  0
    0.9913    0.6664   -1.3640 C   0  0  0  0  0  0  0  0  0  0  0  0
    1.4342    0.4695   -2.3398 H   0  0  0  0  0  0  0  0  0  0  0  0
    0.3870    1.5719   -1.4295 H   0  0  0  0  0  0  0  0  0  0  0  0
    2.3351    0.9599   -0.1860 S   0  0  0  0  0  0  0  0  0  0  0  0
    1.3794    1.5628    1.2301 C   0  0  0  0  0  0  0  0  0  0  0  0
    0.6744    0.7954    1.5513 H   0  0  0  0  0  0  0  0  0  0  0  0
    2.0577    1.7938    2.0519 H   0  0  0  0  0  0  0  0  0  0  0  0
    0.8356    2.4652    0.9494 H   0  0  0  0  0  0  0  0  0  0  0  0
   -0.8064    1.1568    0.7414 C   0  0  0  0  0  0  0  0  0  0  0  0
   -1.6978    1.8100    0.2029 O   0  0  0  0  0  0  0  0  0  0  0  0
    0.0314    1.6872    1.6415 N   0  0  0  0  0  0  0  0  0  0  0  0
    0.7279    1.0858    2.0517 H   0  0  0  0  0  0  0  0  0  0  0  0
   -0.0137    3.0826    2.0755 C   0  0  0  0  0  0  0  0  0  0  0  0
   -0.9991    3.3070    2.4905 H   0  0  0  0  0  0  0  0  0  0  0  0
    0.7468    3.2694    2.8349 H   0  0  0  0  0  0  0  0  0  0  0  0
    0.1592    3.7397    1.2213 H   0  0  0  0  0  0  0  0  0  0  0  0
  5  6  2  0  0  0  0
  5  7  1  0  0  0  0
  2  3  1  0  0  0  0
  2  4  1  0  0  0  0
  2  5  1  0  0  0  0
  1  2  1  0  0  0  0
 22 23  2  0  0  0  0
 22 24  1  0  0  0  0
 18 19  1  0  0  0  0
 18 20  1  0  0  0  0
 18 21  1  0  0  0  0
 17 18  1  0  0  0  0
 14 15  1  0  0  0  0
 14 16  1  0  0  0  0
 14 17  1  0  0  0  0
 11 12  1  0  0  0  0
 11 13  1  0  0  0  0
 11 14  1  0  0  0  0
  9 10  1  0  0  0  0
  9 11  1  0  0  0  0
  9 22  1  0  0  0  0
  7  8  1  0  0  0  0
  7  9  1  0  0  0  0
 26 27  1  0  0  0  0
 26 28  1  0  0  0  0
 26 29  1  0  0  0  0
 24 25  1  0  0  0  0
 24 26  1  0  0  0  0
M  END
$$$$
default_name
  -OEChem-02102213163D

 29 28  0     1  0  0  0  0  0999 V2000
   -3.5781   -3.7296    1.2702 H   0  0  0  0  0  0  0  0  0  0  0  0
   -3.5311   -2.7616    0.7732 C   0  0  0  0  0  0  0  0  0  0  0  0
   -4.2371   -2.0766    1.2382 H   0  0  0  0  0  0  0  0  0  0  0  0
   -3.7681   -2.8816   -0.2818 H   0  0  0  0  0  0  0  0  0  0  0  0
   -2.1321   -2.2086    0.9112 C   0  0  0  0  0  0  0  0  0  0  0  0
   -1.2751   -2.8426    1.5112 O   0  0  0  0  0  0  0  0  0  0  0  0
   -1.9041   -1.0186    0.3602 N   0  0  0  0  0  0  0  0  0  0  0  0
   -2.6671   -0.5416   -0.0988 H   0  0  0  0  0  0  0  0  0  0  0  0
   -0.6131   -0.3236    0.3832 C   0  0  1  0  0  0  0  0  0  0  0  0
    0.0142   -0.7800    1.1506 H   0  0  0  0  0  0  0  0  0  0  0  0
    0.0816   -0.5059   -0.9788 C   0  0  0  0  0  0  0  0  0  0  0  0
    0.6875   -1.4138   -0.9452 H   0  0  0  0  0  0  0  0  0  0  0  0
   -0.6751   -0.6295   -1.7550 H   0  0  0  0  0  0  0  0  0  0  0  0
    0.9913    0.6664   -1.3640 C   0  0  0  0  0  0  0  0  0  0  0  0
    1.2204    0.6066   -2.4275 H   0  0  0  0  0  0  0  0  0  0  0  0
    0.4606    1.5996   -1.1716 H   0  0  0  0  0  0  0  0  0  0  0  0
    2.5562    0.7005   -0.4532 S   0  0  0  0  0  0  0  0  0  0  0  0
    1.9432    1.1154    1.2003 C   0  0  0  0  0  0  0  0  0  0  0  0
    1.2540    0.3425    1.5415 H   0  0  0  0  0  0  0  0  0  0  0  0
    2.7836    1.1780    1.8921 H   0  0  0  0  0  0  0  0  0  0  0  0
    1.4299    2.0770    1.1717 H   0  0  0  0  0  0  0  0  0  0  0  0
   -0.8064    1.1568    0.7414 C   0  0  0  0  0  0  0  0  0  0  0  0
   -1.6978    1.8100    0.2029 O   0  0  0  0  0  0  0  0  0  0  0  0
    0.0314    1.6872    1.6415 N   0  0  0  0  0  0  0  0  0  0  0  0
    0.7279    1.0858    2.0517 H   0  0  0  0  0  0  0  0  0  0  0  0
   -0.0137    3.0826    2.0755 C   0  0  0  0  0  0  0  0  0  0  0  0
   -0.9991    3.3070    2.4905 H   0  0  0  0  0  0  0  0  0  0  0  0
    0.7468    3.2694    2.8349 H   0  0  0  0  0  0  0  0  0  0  0  0
    0.1592    3.7397    1.2213 H   0  0  0  0  0  0  0  0  0  0  0  0
  5  6  2  0  0  0  0
  5  7  1  0  0  0  0
  2  3  1  0  0  0  0
  2  4  1  0  0  0  0
  2  5  1  0  0  0  0
  1  2  1  0  0  0  0
 22 23  2  0  0  0  0
 22 24  1  0  0  0  0
 18 19  1  0  0  0  0
 18 20  1  0  0  0  0
 18 21  1  0  0  0  0
 17 18  1  0  0  0  0
 14 15  1  0  0  0  0
 14 16  1  0  0  0  0
 14 17  1  0  0  0  0
 11 12  1  0  0  0  0
 11 13  1  0  0  0  0
 11 14  1  0  0  0  0
  9 10  1  0  0  0  0
  9 11  1  0  0  0  0
  9 22  1  0  0  0  0
  7  8  1  0  0  0  0
  7  9  1  0  0  0  0
 26 27  1  0  0  0  0
 26 28  1  0  0  0  0
 26 29  1  0  0  0  0
 24 25  1  0  0  0  0
 24 26  1  0  0  0  0
M  END
$$$$
default_name
  -OEChem-02102213163D

 29 28  0     1  0  0  0  0  0999 V2000
   -3.5781   -3.7296    1.2702 H   0  0  0  0  0  0  0  0  0  0  0  0
   -3.5311   -2.7616    0.7732 C   0  0  0  0  0  0  0  0  0  0  0  0
   -4.2371   -2.0766    1.2382 H   0  0  0  0  0  0  0  0  0  0  0  0
   -3.7681   -2.8816   -0.2818 H   0  0  0  0  0  0  0  0  0  0  0  0
   -2.1321   -2.2086    0.9112 C   0  0  0  0  0  0  0  0  0  0  0  0
   -1.2751   -2.8426    1.5112 O   0  0  0  0  0  0  0  0  0  0  0  0
   -1.9041   -1.0186    0.3602 N   0  0  0  0  0  0  0  0  0  0  0  0
   -2.6671   -0.5416   -0.0988 H   0  0  0  0  0  0  0  0  0  0  0  0
   -0.6131   -0.3236    0.3832 C   0  0  1  0  0  0  0  0  0  0  0  0
    0.0142   -0.7800    1.1506 H   0  0  0  0  0  0  0  0  0  0  0  0
    0.0816   -0.5059   -0.9788 C   0  0  0  0  0  0  0  0  0  0  0  0
    0.6875   -1.4138   -0.9452 H   0  0  0  0  0  0  0  0  0  0  0  0
   -0.6751   -0.6295   -1.7550 H   0  0  0  0  0  0  0  0  0  0  0  0
    0.9913    0.6664   -1.3640 C   0  0  0  0  0  0  0  0  0  0  0  0
    1.0055    0.7664   -2.4489 H   0  0  0  0  0  0  0  0  0  0  0  0
    0.5845    1.5818   -0.9328 H   0  0  0  0  0  0  0  0  0  0  0  0
    2.7000    0.4766   -0.7949 S   0  0  0  0  0  0  0  0  0  0  0  0
    2.4528    0.6513    0.9912 C   0  0  0  0  0  0  0  0  0  0  0  0
    1.7824   -0.1312    1.3478 H   0  0  0  0  0  0  0  0  0  0  0  0
    3.4131    0.5605    1.4996 H   0  0  0  0  0  0  0  0  0  0  0  0
    2.0227    1.6292    1.2091 H   0  0  0  0  0  0  0  0  0  0  0  0
   -0.8064    1.1568    0.7414 C   0  0  0  0  0  0  0  0  0  0  0  0
   -1.6978    1.8100    0.2029 O   0  0  0  0  0  0  0  0  0  0  0  0
    0.0314    1.6872    1.6415 N   0  0  0  0  0  0  0  0  0  0  0  0
    0.7279    1.0858    2.0517 H   0  0  0  0  0  0  0  0  0  0  0  0
   -0.0137    3.0826    2.0755 C   0  0  0  0  0  0  0  0  0  0  0  0
   -0.9991    3.3070    2.4905 H   0  0  0  0  0  0  0  0  0  0  0  0
    0.7468    3.2694    2.8349 H   0  0  0  0  0  0  0  0  0  0  0  0
    0.1592    3.7397    1.2213 H   0  0  0  0  0  0  0  0  0  0  0  0
  5  6  2  0  0  0  0
  5  7  1  0  0  0  0
  2  3  1  0  0  0  0
  2  4  1  0  0  0  0
  2  5  1  0  0  0  0
  1  2  1  0  0  0  0
 22 23  2  0  0  0  0
 22 24  1  0  0  0  0
 18 19  1  0  0  0  0
 18 20  1  0  0  0  0
 18 21  1  0  0  0  0
 17 18  1  0  0  0  0
 14 15  1  0  0  0  0
 14 16  1  0  0  0  0
 14 17  1  0  0  0  0
 11 12  1  0  0  0  0
 11 13  1  0  0  0  0
 11 14  1  0  0  0  0
  9 10  1  0  0  0  0
  9 11  1  0  0  0  0
  9 22  1  0  0  0  0
  7  8  1  0  0  0  0
  7  9  1  0  0  0  0
 26 27  1  0  0  0  0
 26 28  1  0  0  0  0
 26 29  1  0  0  0  0
 24 25  1  0  0  0  0
 24 26  1  0  0  0  0
M  END
$$$$
default_name
  -OEChem-02102213163D

 29 28  0     1  0  0  0  0  0999 V2000
   -3.5781   -3.7296    1.2702 H   0  0  0  0  0  0  0  0  0  0  0  0
   -3.5311   -2.7616    0.7732 C   0  0  0  0  0  0  0  0  0  0  0  0
   -4.2371   -2.0766    1.2382 H   0  0  0  0  0  0  0  0  0  0  0  0
   -3.7681   -2.8816   -0.2818 H   0  0  0  0  0  0  0  0  0  0  0  0
   -2.1321   -2.2086    0.9112 C   0  0  0  0  0  0  0  0  0  0  0  0
   -1.2751   -2.8426    1.5112 O   0  0  0  0  0  0  0  0  0  0  0  0
   -1.9041   -1.0186    0.3602 N   0  0  0  0  0  0  0  0  0  0  0  0
   -2.6671   -0.5416   -0.0988 H   0  0  0  0  0  0  0  0  0  0  0  0
   -0.6131   -0.3236    0.3832 C   0  0  1  0  0  0  0  0  0  0  0  0
    0.0142   -0.7800    1.1506 H   0  0  0  0  0  0  0  0  0  0  0  0
    0.0816   -0.5059   -0.9788 C   0  0  0  0  0  0  0  0  0  0  0  0
    0.6875   -1.4138   -0.9452 H   0  0  0  0  0  0  0  0  0  0  0  0
   -0.6751   -0.6295   -1.7550 H   0  0  0  0  0  0  0  0  0  0  0  0
    0.9913    0.6664   -1.3640 C   0  0  0  0  0  0  0  0  0  0  0  0
    0.8040    0.9380   -2.4024 H   0  0  0  0  0  0  0  0  0  0  0  0
    0.7504    1.5200   -0.7294 H   0  0  0  0  0  0  0  0  0  0  0  0
    2.7568    0.3035   -1.1879 S   0  0  0  0  0  0  0  0  0  0  0  0
    2.8735    0.2019    0.6171 C   0  0  0  0  0  0  0  0  0  0  0  0
    2.2237   -0.5934    0.9834 H   0  0  0  0  0  0  0  0  0  0  0  0
    3.9033   -0.0166    0.9010 H   0  0  0  0  0  0  0  0  0  0  0  0
    2.5736    1.1524    1.0592 H   0  0  0  0  0  0  0  0  0  0  0  0
   -0.8064    1.1568    0.7414 C   0  0  0  0  0  0  0  0  0  0  0  0
   -1.6978    1.8100    0.2029 O   0  0  0  0  0  0  0  0  0  0  0  0
    0.0314    1.6872    1.6415 N   0  0  0  0  0  0  0  0  0  0  0  0
    0.7279    1.0858    2.0517 H   0  0  0  0  0  0  0  0  0  0  0  0
   -0.0137    3.0826    2.0755 C   0  0  0  0  0  0  0  0  0  0  0  0
   -0.9991    3.3070    2.4905 H   0  0  0  0  0  0  0  0  0  0  0  0
    0.7468    3.2694    2.8349 H   0  0  0  0  0  0  0  0  0  0  0  0
    0.1592    3.7397    1.2213 H   0  0  0  0  0  0  0  0  0  0  0  0
  5  6  2  0  0  0  0
  5  7  1  0  0  0  0
  2  3  1  0  0  0  0
  2  4  1  0  0  0  0
  2  5  1  0  0  0  0
  1  2  1  0  0  0  0
 22 23  2  0  0  0  0
 22 24  1  0  0  0  0
 18 19  1  0  0  0  0
 18 20  1  0  0  0  0
 18 21  1  0  0  0  0
 17 18  1  0  0  0  0
 14 15  1  0  0  0  0
 14 16  1  0  0  0  0
 14 17  1  0  0  0  0
 11 12  1  0  0  0  0
 11 13  1  0  0  0  0
 11 14  1  0  0  0  0
  9 10  1  0  0  0  0
  9 11  1  0  0  0  0
  9 22  1  0  0  0  0
  7  8  1  0  0  0  0
  7  9  1  0  0  0  0
 26 27  1  0  0  0  0
 26 28  1  0  0  0  0
 26 29  1  0  0  0  0
 24 25  1  0  0  0  0
 24 26  1  0  0  0  0
M  END
$$$$
default_name
  -OEChem-02102213163D

 29 28  0     1  0  0  0  0  0999 V2000
   -3.5781   -3.7296    1.2702 H   0  0  0  0  0  0  0  0  0  0  0  0
   -3.5311   -2.7616    0.7732 C   0  0  0  0  0  0  0  0  0  0  0  0
   -4.2371   -2.0766    1.2382 H   0  0  0  0  0  0  0  0  0  0  0  0
   -3.7681   -2.8816   -0.2818 H   0  0  0  0  0  0  0  0  0  0  0  0
   -2.1321   -2.2086    0.9112 C   0  0  0  0  0  0  0  0  0  0  0  0
   -1.2751   -2.8426    1.5112 O   0  0  0  0  0  0  0  0  0  0  0  0
   -1.9041   -1.0186    0.3602 N   0  0  0  0  0  0  0  0  0  0  0  0
   -2.6671   -0.5416   -0.0988 H   0  0  0  0  0  0  0  0  0  0  0  0
   -0.6131   -0.3236    0.3832 C   0  0  1  0  0  0  0  0  0  0  0  0
    0.0142   -0.7800    1.1506 H   0  0  0  0  0  0  0  0  0  0  0  0
    0.0816   -0.5059   -0.9788 C   0  0  0  0  0  0  0  0  0  0  0  0
    0.6875   -1.4138   -0.9452 H   0  0  0  0  0  0  0  0  0  0  0  0
   -0.6751   -0.6295   -1.7550 H   0  0  0  0  0  0  0  0  0  0  0  0
    0.9913    0.6664   -1.3640 C   0  0  0  0  0  0  0  0  0  0  0  0
    0.6297    1.1097   -2.2913 H   0  0  0  0  0  0  0  0  0  0  0  0
    0.9468    1.4182   -0.5752 H   0  0  0  0  0  0  0  0  0  0  0  0
    2.7226    0.1929   -1.6052 S   0  0  0  0  0  0  0  0  0  0  0  0
    3.1766   -0.2020    0.1035 C   0  0  0  0  0  0  0  0  0  0  0  0
    2.5477   -1.0125    0.4730 H   0  0  0  0  0  0  0  0  0  0  0  0
    4.2208   -0.5140    0.1371 H   0  0  0  0  0  0  0  0  0  0  0  0
    3.0451    0.6791    0.7321 H   0  0  0  0  0  0  0  0  0  0  0  0
   -0.8064    1.1568    0.7414 C   0  0  0  0  0  0  0  0  0  0  0  0
   -1.6978    1.8100    0.2029 O   0  0  0  0  0  0  0  0  0  0  0  0
    0.0314    1.6872    1.6415 N   0  0  0  0  0  0  0  0  0  0  0  0
    0.7279    1.0858    2.0517 H   0  0  0  0  0  0  0  0  0  0  0  0
   -0.0137    3.0826    2.0755 C   0  0  0  0  0  0  0  0  0  0  0  0
   -0.9991    3.3070    2.4905 H   0  0  0  0  0  0  0  0  0  0  0  0
    0.7468    3.2694    2.8349 H   0  0  0  0  0  0  0  0  0  0  0  0
    0.1592    3.7397    1.2213 H   0  0  0  0  0  0  0  0  0  0  0  0
  5  6  2  0  0  0  0
  5  7  1  0  0  0  0
  2  3  1  0  0  0  0
  2  4  1  0  0  0  0
  2  5  1  0  0  0  0
  1  2  1  0  0  0  0
 22 23  2  0  0  0  0
 22 24  1  0  0  0  0
 18 19  1  0  0  0  0
 18 20  1  0  0  0  0
 18 21  1  0  0  0  0
 17 18  1  0  0  0  0
 14 15  1  0  0  0  0
 14 16  1  0  0  0  0
 14 17  1  0  0  0  0
 11 12  1  0  0  0  0
 11 13  1  0  0  0  0
 11 14  1  0  0  0  0
  9 10  1  0  0  0  0
  9 11  1  0  0  0  0
  9 22  1  0  0  0  0
  7  8  1  0  0  0  0
  7  9  1  0  0  0  0
 26 27  1  0  0  0  0
 26 28  1  0  0  0  0
 26 29  1  0  0  0  0
 24 25  1  0  0  0  0
 24 26  1  0  0  0  0
M  END
$$$$
default_name
  -OEChem-02102213163D

 29 28  0     1  0  0  0  0  0999 V2000
   -3.5781   -3.7296    1.2702 H   0  0  0  0  0  0  0  0  0  0  0  0
   -3.5311   -2.7616    0.7732 C   0  0  0  0  0  0  0  0  0  0  0  0
   -4.2371   -2.0766    1.2382 H   0  0  0  0  0  0  0  0  0  0  0  0
   -3.7681   -2.8816   -0.2818 H   0  0  0  0  0  0  0  0  0  0  0  0
   -2.1321   -2.2086    0.9112 C   0  0  0  0  0  0  0  0  0  0  0  0
   -1.2751   -2.8426    1.5112 O   0  0  0  0  0  0  0  0  0  0  0  0
   -1.9041   -1.0186    0.3602 N   0  0  0  0  0  0  0  0  0  0  0  0
   -2.6671   -0.5416   -0.0988 H   0  0  0  0  0  0  0  0  0  0  0  0
   -0.6131   -0.3236    0.3832 C   0  0  1  0  0  0  0  0  0  0  0  0
    0.0142   -0.7800    1.1506 H   0  0  0  0  0  0  0  0  0  0  0  0
    0.0816   -0.5059   -0.9788 C   0  0  0  0  0  0  0  0  0  0  0  0
    0.6875   -1.4138   -0.9452 H   0  0  0  0  0  0  0  0  0  0  0  0
   -0.6751   -0.6295   -1.7550 H   0  0  0  0  0  0  0  0  0  0  0  0
    0.9913    0.6664   -1.3640 C   0  0  0  0  0  0  0  0  0  0  0  0
    0.4946    1.2699   -2.1231 H   0  0  0  0  0  0  0  0  0  0  0  0
    1.1604    1.2835   -0.4808 H   0  0  0  0  0  0  0  0  0  0  0  0
    2.5997    0.1524   -2.0186 S   0  0  0  0  0  0  0  0  0  0  0  0
    3.3414   -0.5331   -0.5147 C   0  0  0  0  0  0  0  0  0  0  0  0
    2.7325   -1.3601   -0.1484 H   0  0  0  0  0  0  0  0  0  0  0  0
    4.3440   -0.8977   -0.7400 H   0  0  0  0  0  0  0  0  0  0  0  0
    3.4049    0.2415    0.2501 H   0  0  0  0  0  0  0  0  0  0  0  0
   -0.8064    1.1568    0.7414 C   0  0  0  0  0  0  0  0  0  0  0  0
   -1.6978    1.8100    0.2029 O   0  0  0  0  0  0  0  0  0  0  0  0
    0.0314    1.6872    1.6415 N   0  0  0  0  0  0  0  0  0  0  0  0
    0.7279    1.0858    2.0517 H   0  0  0  0  0  0  0  0  0  0  0  0
   -0.0137    3.0826    2.0755 C   0  0  0  0  0  0  0  0  0  0  0  0
   -0.9991    3.3070    2.4905 H   0  0  0  0  0  0  0  0  0  0  0  0
    0.7468    3.2694    2.8349 H   0  0  0  0  0  0  0  0  0  0  0  0
    0.1592    3.7397    1.2213 H   0  0  0  0  0  0  0  0  0  0  0  0
  5  6  2  0  0  0  0
  5  7  1  0  0  0  0
  2  3  1  0  0  0  0
  2  4  1  0  0  0  0
  2  5  1  0  0  0  0
  1  2  1  0  0  0  0
 22 23  2  0  0  0  0
 22 24  1  0  0  0  0
 18 19  1  0  0  0  0
 18 20  1  0  0  0  0
 18 21  1  0  0  0  0
 17 18  1  0  0  0  0
 14 15  1  0  0  0  0
 14 16  1  0  0  0  0
 14 17  1  0  0  0  0
 11 12  1  0  0  0  0
 11 13  1  0  0  0  0
 11 14  1  0  0  0  0
  9 10  1  0  0  0  0
  9 11  1  0  0  0  0
  9 22  1  0  0  0  0
  7  8  1  0  0  0  0
  7  9  1  0  0  0  0
 26 27  1  0  0  0  0
 26 28  1  0  0  0  0
 26 29  1  0  0  0  0
 24 25  1  0  0  0  0
 24 26  1  0  0  0  0
M  END
$$$$
default_name
  -OEChem-02102213163D

 29 28  0     1  0  0  0  0  0999 V2000
   -3.5781   -3.7296    1.2702 H   0  0  0  0  0  0  0  0  0  0  0  0
   -3.5311   -2.7616    0.7732 C   0  0  0  0  0  0  0  0  0  0  0  0
   -4.2371   -2.0766    1.2382 H   0  0  0  0  0  0  0  0  0  0  0  0
   -3.7681   -2.8816   -0.2818 H   0  0  0  0  0  0  0  0  0  0  0  0
   -2.1321   -2.2086    0.9112 C   0  0  0  0  0  0  0  0  0  0  0  0
   -1.2751   -2.8426    1.5112 O   0  0  0  0  0  0  0  0  0  0  0  0
   -1.9041   -1.0186    0.3602 N   0  0  0  0  0  0  0  0  0  0  0  0
   -2.6671   -0.5416   -0.0988 H   0  0  0  0  0  0  0  0  0  0  0  0
   -0.6131   -0.3236    0.3832 C   0  0  1  0  0  0  0  0  0  0  0  0
    0.0142   -0.7800    1.1506 H   0  0  0  0  0  0  0  0  0  0  0  0
    0.0816   -0.5059   -0.9788 C   0  0  0  0  0  0  0  0  0  0  0  0
    0.6875   -1.4138   -0.9452 H   0  0  0  0  0  0  0  0  0  0  0  0
   -0.6751   -0.6295   -1.7550 H   0  0  0  0  0  0  0  0  0  0  0  0
    0.9913    0.6664   -1.3640 C   0  0  0  0  0  0  0  0  0  0  0  0
    0.4077    1.4075   -1.9093 H   0  0  0  0  0  0  0  0  0  0  0  0
    1.3766    1.1249   -0.4526 H   0  0  0  0  0  0  0  0  0  0  0  0
    2.3966    0.1848   -2.3998 S   0  0  0  0  0  0  0  0  0  0  0  0
    3.3568   -0.7686   -1.1952 C   0  0  0  0  0  0  0  0  0  0  0  0
    2.7653   -1.6124   -0.8386 H   0  0  0  0  0  0  0  0  0  0  0  0
    4.2644   -1.1417   -1.6704 H   0  0  0  0  0  0  0  0  0  0  0  0
    3.6287   -0.1306   -0.3538 H   0  0  0  0  0  0  0  0  0  0  0  0
   -0.8064    1.1568    0.7414 C   0  0  0  0  0  0  0  0  0  0  0  0
   -1.6978    1.8100    0.2029 O   0  0  0  0  0  0  0  0  0  0  0  0
    0.0314    1.6872    1.6415 N   0  0  0  0  0  0  0  0  0  0  0  0
    0.7279    1.0858    2.0517 H   0  0  0  0  0  0  0  0  0  0  0  0
   -0.0137    3.0826    2.0755 C   0  0  0  0  0  0  0  0  0  0  0  0
   -0.9991    3.3070    2.4905 H   0  0  0  0  0  0  0  0  0  0  0  0
    0.7468    3.2694    2.8349 H   0  0  0  0  0  0  0  0  0  0  0  0
    0.1592    3.7397    1.2213 H   0  0  0  0  0  0  0  0  0  0  0  0
  5  6  2  0  0  0  0
  5  7  1  0  0  0  0
  2  3  1  0  0  0  0
  2  4  1  0  0  0  0
  2  5  1  0  0  0  0
  1  2  1  0  0  0  0
 22 23  2  0  0  0  0
 22 24  1  0  0  0  0
 18 19  1  0  0  0  0
 18 20  1  0  0  0  0
 18 21  1  0  0  0  0
 17 18  1  0  0  0  0
 14 15  1  0  0  0  0
 14 16  1  0  0  0  0
 14 17  1  0  0  0  0
 11 12  1  0  0  0  0
 11 13  1  0  0  0  0
 11 14  1  0  0  0  0
  9 10  1  0  0  0  0
  9 11  1  0  0  0  0
  9 22  1  0  0  0  0
  7  8  1  0  0  0  0
  7  9  1  0  0  0  0
 26 27  1  0  0  0  0
 26 28  1  0  0  0  0
 26 29  1  0  0  0  0
 24 25  1  0  0  0  0
 24 26  1  0  0  0  0
M  END
$$$$
default_name
  -OEChem-02102213163D

 29 28  0     1  0  0  0  0  0999 V2000
   -3.5781   -3.7296    1.2702 H   0  0  0  0  0  0  0  0  0  0  0  0
   -3.5311   -2.7616    0.7732 C   0  0  0  0  0  0  0  0  0  0  0  0
   -4.2371   -2.0766    1.2382 H   0  0  0  0  0  0  0  0  0  0  0  0
   -3.7681   -2.8816   -0.2818 H   0  0  0  0  0  0  0  0  0  0  0  0
   -2.1321   -2.2086    0.9112 C   0  0  0  0  0  0  0  0  0  0  0  0
   -1.2751   -2.8426    1.5112 O   0  0  0  0  0  0  0  0  0  0  0  0
   -1.9041   -1.0186    0.3602 N   0  0  0  0  0  0  0  0  0  0  0  0
   -2.6671   -0.5416   -0.0988 H   0  0  0  0  0  0  0  0  0  0  0  0
   -0.6131   -0.3236    0.3832 C   0  0  1  0  0  0  0  0  0  0  0  0
    0.0142   -0.7800    1.1506 H   0  0  0  0  0  0  0  0  0  0  0  0
    0.0816   -0.5059   -0.9788 C   0  0  0  0  0  0  0  0  0  0  0  0
    0.6875   -1.4138   -0.9452 H   0  0  0  0  0  0  0  0  0  0  0  0
   -0.6751   -0.6295   -1.7550 H   0  0  0  0  0  0  0  0  0  0  0  0
    0.9913    0.6664   -1.3640 C   0  0  0  0  0  0  0  0  0  0  0  0
    0.3751    1.5133   -1.6645 H   0  0  0  0  0  0  0  0  0  0  0  0
    1.5808    0.9534   -0.4925 H   0  0  0  0  0  0  0  0  0  0  0  0
    2.1271    0.2878   -2.7228 S   0  0  0  0  0  0  0  0  0  0  0  0
    3.2216   -0.8926   -1.8918 C   0  0  0  0  0  0  0  0  0  0  0  0
    2.6440   -1.7522   -1.5506 H   0  0  0  0  0  0  0  0  0  0  0  0
    3.9875   -1.2293   -2.5910 H   0  0  0  0  0  0  0  0  0  0  0  0
    3.7011   -0.4118   -1.0387 H   0  0  0  0  0  0  0  0  0  0  0  0
   -0.8064    1.1568    0.7414 C   0  0  0  0  0  0  0  0  0  0  0  0
   -1.6978    1.8100    0.2029 O   0  0  0  0  0  0  0  0  0  0  0  0
    0.0314    1.6872    1.6415 N   0  0  0  0  0  0  0  0  0  0  0  0
    0.7279    1.0858    2.0517 H   0  0  0  0  0  0  0  0  0  0  0  0
   -0.0137    3.0826    2.0755 C   0  0  0  0  0  0  0  0  0  0  0  0
   -0.9991    3.3070    2.4905 H   0  0  0  0  0  0  0  0  0  0  0  0
    0.7468    3.2694    2.8349 H   0  0  0  0  0  0  0  0  0  0  0  0
    0.1592    3.7397    1.2213 H   0  0  0  0  0  0  0  0  0  0  0  0
  5  6  2  0  0  0  0
  5  7  1  0  0  0  0
  2  3  1  0  0  0  0
  2  4  1  0  0  0  0
  2  5  1  0  0  0  0
  1  2  1  0  0  0  0
 22 23  2  0  0  0  0
 22 24  1  0  0  0  0
 18 19  1  0  0  0  0
 18 20  1  0  0  0  0
 18 21  1  0  0  0  0
 17 18  1  0  0  0  0
 14 15  1  0  0  0  0
 14 16  1  0  0  0  0
 14 17  1  0  0  0  0
 11 12  1  0  0  0  0
 11 13  1  0  0  0  0
 11 14  1  0  0  0  0
  9 10  1  0  0  0  0
  9 11  1  0  0  0  0
  9 22  1  0  0  0  0
  7  8  1  0  0  0  0
  7  9  1  0  0  0  0
 26 27  1  0  0  0  0
 26 28  1  0  0  0  0
 26 29  1  0  0  0  0
 24 25  1  0  0  0  0
 24 26  1  0  0  0  0
M  END
$$$$
default_name
  -OEChem-02102213163D

 29 28  0     1  0  0  0  0  0999 V2000
   -3.5781   -3.7296    1.2702 H   0  0  0  0  0  0  0  0  0  0  0  0
   -3.5311   -2.7616    0.7732 C   0  0  0  0  0  0  0  0  0  0  0  0
   -4.2371   -2.0766    1.2382 H   0  0  0  0  0  0  0  0  0  0  0  0
   -3.7681   -2.8816   -0.2818 H   0  0  0  0  0  0  0  0  0  0  0  0
   -2.1321   -2.2086    0.9112 C   0  0  0  0  0  0  0  0  0  0  0  0
   -1.2751   -2.8426    1.5112 O   0  0  0  0  0  0  0  0  0  0  0  0
   -1.9041   -1.0186    0.3602 N   0  0  0  0  0  0  0  0  0  0  0  0
   -2.6671   -0.5416   -0.0988 H   0  0  0  0  0  0  0  0  0  0  0  0
   -0.6131   -0.3236    0.3832 C   0  0  1  0  0  0  0  0  0  0  0  0
    0.0142   -0.7800    1.1506 H   0  0  0  0  0  0  0  0  0  0  0  0
    0.0816   -0.5059   -0.9788 C   0  0  0  0  0  0  0  0  0  0  0  0
    0.4633   -1.5269   -1.0444 H   0  0  0  0  0  0  0  0  0  0  0  0
   -0.6483   -0.3629   -1.7770 H   0  0  0  0  0  0  0  0  0  0  0  0
    1.2499    0.4607   -1.2046 C   0  0  0  0  0  0  0  0  0  0  0  0
    0.8829    1.4849   -1.1457 H   0  0  0  0  0  0  0  0  0  0  0  0
    1.9887    0.3071   -0.4172 H   0  0  0  0  0  0  0  0  0  0  0  0
    2.0686    0.2483   -2.8059 S   0  0  0  0  0  0  0  0  0  0  0  0
    2.8485   -1.3656   -2.5434 C   0  0  0  0  0  0  0  0  0  0  0  0
    2.0831   -2.1149   -2.3395 H   0  0  0  0  0  0  0  0  0  0  0  0
    3.4001   -1.6505   -3.4398 H   0  0  0  0  0  0  0  0  0  0  0  0
    3.5382   -1.3081   -1.7009 H   0  0  0  0  0  0  0  0  0  0  0  0
   -0.8064    1.1568    0.7414 C   0  0  0  0  0  0  0  0  0  0  0  0
   -1.6978    1.8100    0.2029 O   0  0  0  0  0  0  0  0  0  0  0  0
    0.0314    1.6872    1.6415 N   0  0  0  0  0  0  0  0  0  0  0  0
    0.7279    1.0858    2.0517 H   0  0  0  0  0  0  0  0  0  0  0  0
   -0.0137    3.0826    2.0755 C   0  0  0  0  0  0  0  0  0  0  0  0
   -0.9991    3.3070    2.4905 H   0  0  0  0  0  0  0  0  0  0  0  0
    0.7468    3.2694    2.8349 H   0  0  0  0  0  0  0  0  0  0  0  0
    0.1592    3.7397    1.2213 H   0  0  0  0  0  0  0  0  0  0  0  0
  5  6  2  0  0  0  0
  5  7  1  0  0  0  0
  2  3  1  0  0  0  0
  2  4  1  0  0  0  0
  2  5  1  0  0  0  0
  1  2  1  0  0  0  0
 22 23  2  0  0  0  0
 22 24  1  0  0  0  0
 18 19  1  0  0  0  0
 18 20  1  0  0  0  0
 18 21  1  0  0  0  0
 17 18  1  0  0  0  0
 14 15  1  0  0  0  0
 14 16  1  0  0  0  0
 14 17  1  0  0  0  0
 11 12  1  0  0  0  0
 11 13  1  0  0  0  0
 11 14  1  0  0  0  0
  9 10  1  0  0  0  0
  9 11  1  0  0  0  0
  9 22  1  0  0  0  0
  7  8  1  0  0  0  0
  7  9  1  0  0  0  0
 26 27  1  0  0  0  0
 26 28  1  0  0  0  0
 26 29  1  0  0  0  0
 24 25  1  0  0  0  0
 24 26  1  0  0  0  0
M  END
$$$$
default_name
  -OEChem-02102213163D

 29 28  0     1  0  0  0  0  0999 V2000
   -3.5781   -3.7296    1.2702 H   0  0  0  0  0  0  0  0  0  0  0  0
   -3.5311   -2.7616    0.7732 C   0  0  0  0  0  0  0  0  0  0  0  0
   -4.2371   -2.0766    1.2382 H   0  0  0  0  0  0  0  0  0  0  0  0
   -3.7681   -2.8816   -0.2818 H   0  0  0  0  0  0  0  0  0  0  0  0
   -2.1321   -2.2086    0.9112 C   0  0  0  0  0  0  0  0  0  0  0  0
   -1.2751   -2.8426    1.5112 O   0  0  0  0  0  0  0  0  0  0  0  0
   -1.9041   -1.0186    0.3602 N   0  0  0  0  0  0  0  0  0  0  0  0
   -2.6671   -0.5416   -0.0988 H   0  0  0  0  0  0  0  0  0  0  0  0
   -0.6131   -0.3236    0.3832 C   0  0  1  0  0  0  0  0  0  0  0  0
    0.0142   -0.7800    1.1506 H   0  0  0  0  0  0  0  0  0  0  0  0
    0.0816   -0.5059   -0.9788 C   0  0  0  0  0  0  0  0  0  0  0  0
    0.4633   -1.5269   -1.0444 H   0  0  0  0  0  0  0  0  0  0  0  0
   -0.6483   -0.3629   -1.7770 H   0  0  0  0  0  0  0  0  0  0  0  0
    1.2499    0.4607   -1.2046 C   0  0  0  0  0  0  0  0  0  0  0  0
    0.9534    1.4601   -0.8876 H   0  0  0  0  0  0  0  0  0  0  0  0
    2.0953    0.1364   -0.5966 H   0  0  0  0  0  0  0  0  0  0  0  0
    1.7902    0.5558   -2.9305 S   0  0  0  0  0  0  0  0  0  0  0  0
    2.5128   -1.0945   -3.1202 C   0  0  0  0  0  0  0  0  0  0  0  0
    1.7500   -1.8527   -2.9407 H   0  0  0  0  0  0  0  0  0  0  0  0
    2.8981   -1.2060   -4.1341 H   0  0  0  0  0  0  0  0  0  0  0  0
    3.3301   -1.2221   -2.4099 H   0  0  0  0  0  0  0  0  0  0  0  0
   -0.8064    1.1568    0.7414 C   0  0  0  0  0  0  0  0  0  0  0  0
   -1.6978    1.8100    0.2029 O   0  0  0  0  0  0  0  0  0  0  0  0
    0.0314    1.6872    1.6415 N   0  0  0  0  0  0  0  0  0  0  0  0
    0.7279    1.0858    2.0517 H   0  0  0  0  0  0  0  0  0  0  0  0
   -0.0137    3.0826    2.0755 C   0  0  0  0  0  0  0  0  0  0  0  0
   -0.9991    3.3070    2.4905 H   0  0  0  0  0  0  0  0  0  0  0  0
    0.7468    3.2694    2.8349 H   0  0  0  0  0  0  0  0  0  0  0  0
    0.1592    3.7397    1.2213 H   0  0  0  0  0  0  0  0  0  0  0  0
  5  6  2  0  0  0  0
  5  7  1  0  0  0  0
  2  3  1  0  0  0  0
  2  4  1  0  0  0  0
  2  5  1  0  0  0  0
  1  2  1  0  0  0  0
 22 23  2  0  0  0  0
 22 24  1  0  0  0  0
 18 19  1  0  0  0  0
 18 20  1  0  0  0  0
 18 21  1  0  0  0  0
 17 18  1  0  0  0  0
 14 15  1  0  0  0  0
 14 16  1  0  0  0  0
 14 17  1  0  0  0  0
 11 12  1  0  0  0  0
 11 13  1  0  0  0  0
 11 14  1  0  0  0  0
  9 10  1  0  0  0  0
  9 11  1  0  0  0  0
  9 22  1  0  0  0  0
  7  8  1  0  0  0  0
  7  9  1  0  0  0  0
 26 27  1  0  0  0  0
 26 28  1  0  0  0  0
 26 29  1  0  0  0  0
 24 25  1  0  0  0  0
 24 26  1  0  0  0  0
M  END
$$$$
default_name
  -OEChem-02102213163D

 29 28  0     1  0  0  0  0  0999 V2000
   -3.5781   -3.7296    1.2702 H   0  0  0  0  0  0  0  0  0  0  0  0
   -3.5311   -2.7616    0.7732 C   0  0  0  0  0  0  0  0  0  0  0  0
   -4.2371   -2.0766    1.2382 H   0  0  0  0  0  0  0  0  0  0  0  0
   -3.7681   -2.8816   -0.2818 H   0  0  0  0  0  0  0  0  0  0  0  0
   -2.1321   -2.2086    0.9112 C   0  0  0  0  0  0  0  0  0  0  0  0
   -1.2751   -2.8426    1.5112 O   0  0  0  0  0  0  0  0  0  0  0  0
   -1.9041   -1.0186    0.3602 N   0  0  0  0  0  0  0  0  0  0  0  0
   -2.6671   -0.5416   -0.0988 H   0  0  0  0  0  0  0  0  0  0  0  0
   -0.6131   -0.3236    0.3832 C   0  0  1  0  0  0  0  0  0  0  0  0
    0.0142   -0.7800    1.1506 H   0  0  0  0  0  0  0  0  0  0  0  0
    0.0816   -0.5059   -0.9788 C   0  0  0  0  0  0  0  0  0  0  0  0
    0.4633   -1.5269   -1.0444 H   0  0  0  0  0  0  0  0  0  0  0  0
   -0.6483   -0.3629   -1.7770 H   0  0  0  0  0  0  0  0  0  0  0  0
    1.2499    0.4607   -1.2046 C   0  0  0  0  0  0  0  0  0  0  0  0
    1.0626    1.3825   -0.6547 H   0  0  0  0  0  0  0  0  0  0  0  0
    2.1624    0.0029   -0.8210 H   0  0  0  0  0  0  0  0  0  0  0  0
    1.5126    0.8880   -2.9447 S   0  0  0  0  0  0  0  0  0  0  0  0
    2.1047   -0.7061   -3.5691 C   0  0  0  0  0  0  0  0  0  0  0  0
    1.3402   -1.4682   -3.4153 H   0  0  0  0  0  0  0  0  0  0  0  0
    2.3169   -0.6205   -4.6352 H   0  0  0  0  0  0  0  0  0  0  0  0
    3.0166   -0.9912   -3.0437 H   0  0  0  0  0  0  0  0  0  0  0  0
   -0.8064    1.1568    0.7414 C   0  0  0  0  0  0  0  0  0  0  0  0
   -1.6978    1.8100    0.2029 O   0  0  0  0  0  0  0  0  0  0  0  0
    0.0314    1.6872    1.6415 N   0  0  0  0  0  0  0  0  0  0  0  0
    0.7279    1.0858    2.0517 H   0  0  0  0  0  0  0  0  0  0  0  0
   -0.0137    3.0826    2.0755 C   0  0  0  0  0  0  0  0  0  0  0  0
   -0.9991    3.3070    2.4905 H   0  0  0  0  0  0  0  0  0  0  0  0
    0.7468    3.2694    2.8349 H   0  0  0  0  0  0  0  0  0  0  0  0
    0.1592    3.7397    1.2213 H   0  0  0  0  0  0  0  0  0  0  0  0
  5  6  2  0  0  0  0
  5  7  1  0  0  0  0
  2  3  1  0  0  0  0
  2  4  1  0  0  0  0
  2  5  1  0  0  0  0
  1  2  1  0  0  0  0
 22 23  2  0  0  0  0
 22 24  1  0  0  0  0
 18 19  1  0  0  0  0
 18 20  1  0  0  0  0
 18 21  1  0  0  0  0
 17 18  1  0  0  0  0
 14 15  1  0  0  0  0
 14 16  1  0  0  0  0
 14 17  1  0  0  0  0
 11 12  1  0  0  0  0
 11 13  1  0  0  0  0
 11 14  1  0  0  0  0
  9 10  1  0  0  0  0
  9 11  1  0  0  0  0
  9 22  1  0  0  0  0
  7  8  1  0  0  0  0
  7  9  1  0  0  0  0
 26 27  1  0  0  0  0
 26 28  1  0  0  0  0
 26 29  1  0  0  0  0
 24 25  1  0  0  0  0
 24 26  1  0  0  0  0
M  END
$$$$
default_name
  -OEChem-02102213163D

 29 28  0     1  0  0  0  0  0999 V2000
   -3.5781   -3.7296    1.2702 H   0  0  0  0  0  0  0  0  0  0  0  0
   -3.5311   -2.7616    0.7732 C   0  0  0  0  0  0  0  0  0  0  0  0
   -4.2371   -2.0766    1.2382 H   0  0  0  0  0  0  0  0  0  0  0  0
   -3.7681   -2.8816   -0.2818 H   0  0  0  0  0  0  0  0  0  0  0  0
   -2.1321   -2.2086    0.9112 C   0  0  0  0  0  0  0  0  0  0  0  0
   -1.2751   -2.8426    1.5112 O   0  0  0  0  0  0  0  0  0  0  0  0
   -1.9041   -1.0186    0.3602 N   0  0  0  0  0  0  0  0  0  0  0  0
   -2.6671   -0.5416   -0.0988 H   0  0  0  0  0  0  0  0  0  0  0  0
   -0.6131   -0.3236    0.3832 C   0  0  1  0  0  0  0  0  0  0  0  0
    0.0142   -0.7800    1.1506 H   0  0  0  0  0  0  0  0  0  0  0  0
    0.0816   -0.5059   -0.9788 C   0  0  0  0  0  0  0  0  0  0  0  0
    0.4633   -1.5269   -1.0444 H   0  0  0  0  0  0  0  0  0  0  0  0
   -0.6483   -0.3629   -1.7770 H   0  0  0  0  0  0  0  0  0  0  0  0
    1.2499    0.4607   -1.2046 C   0  0  0  0  0  0  0  0  0  0  0  0
    1.2031    1.2574   -0.4628 H   0  0  0  0  0  0  0  0  0  0  0  0
    2.1856   -0.0844   -1.0751 H   0  0  0  0  0  0  0  0  0  0  0  0
    1.2548    1.2223   -2.8477 S   0  0  0  0  0  0  0  0  0  0  0  0
    1.6521   -0.2269   -3.8595 C   0  0  0  0  0  0  0  0  0  0  0  0
    0.8815   -0.9875   -3.7311 H   0  0  0  0  0  0  0  0  0  0  0  0
    1.6961    0.0660   -4.9089 H   0  0  0  0  0  0  0  0  0  0  0  0
    2.6192   -0.6313   -3.5592 H   0  0  0  0  0  0  0  0  0  0  0  0
   -0.8064    1.1568    0.7414 C   0  0  0  0  0  0  0  0  0  0  0  0
   -1.6978    1.8100    0.2029 O   0  0  0  0  0  0  0  0  0  0  0  0
    0.0314    1.6872    1.6415 N   0  0  0  0  0  0  0  0  0  0  0  0
    0.7279    1.0858    2.0517 H   0  0  0  0  0  0  0  0  0  0  0  0
   -0.0137    3.0826    2.0755 C   0  0  0  0  0  0  0  0  0  0  0  0
   -0.9991    3.3070    2.4905 H   0  0  0  0  0  0  0  0  0  0  0  0
    0.7468    3.2694    2.8349 H   0  0  0  0  0  0  0  0  0  0  0  0
    0.1592    3.7397    1.2213 H   0  0  0  0  0  0  0  0  0  0  0  0
  5  6  2  0  0  0  0
  5  7  1  0  0  0  0
  2  3  1  0  0  0  0
  2  4  1  0  0  0  0
  2  5  1  0  0  0  0
  1  2  1  0  0  0  0
 22 23  2  0  0  0  0
 22 24  1  0  0  0  0
 18 19  1  0  0  0  0
 18 20  1  0  0  0  0
 18 21  1  0  0  0  0
 17 18  1  0  0  0  0
 14 15  1  0  0  0  0
 14 16  1  0  0  0  0
 14 17  1  0  0  0  0
 11 12  1  0  0  0  0
 11 13  1  0  0  0  0
 11 14  1  0  0  0  0
  9 10  1  0  0  0  0
  9 11  1  0  0  0  0
  9 22  1  0  0  0  0
  7  8  1  0  0  0  0
  7  9  1  0  0  0  0
 26 27  1  0  0  0  0
 26 28  1  0  0  0  0
 26 29  1  0  0  0  0
 24 25  1  0  0  0  0
 24 26  1  0  0  0  0
M  END
$$$$
default_name
  -OEChem-02102213163D

 29 28  0     1  0  0  0  0  0999 V2000
   -3.5781   -3.7296    1.2702 H   0  0  0  0  0  0  0  0  0  0  0  0
   -3.5311   -2.7616    0.7732 C   0  0  0  0  0  0  0  0  0  0  0  0
   -4.2371   -2.0766    1.2382 H   0  0  0  0  0  0  0  0  0  0  0  0
   -3.7681   -2.8816   -0.2818 H   0  0  0  0  0  0  0  0  0  0  0  0
   -2.1321   -2.2086    0.9112 C   0  0  0  0  0  0  0  0  0  0  0  0
   -1.2751   -2.8426    1.5112 O   0  0  0  0  0  0  0  0  0  0  0  0
   -1.9041   -1.0186    0.3602 N   0  0  0  0  0  0  0  0  0  0  0  0
   -2.6671   -0.5416   -0.0988 H   0  0  0  0  0  0  0  0  0  0  0  0
   -0.6131   -0.3236    0.3832 C   0  0  1  0  0  0  0  0  0  0  0  0
    0.0142   -0.7800    1.1506 H   0  0  0  0  0  0  0  0  0  0  0  0
    0.0816   -0.5059   -0.9788 C   0  0  0  0  0  0  0  0  0  0  0  0
    0.4633   -1.5269   -1.0444 H   0  0  0  0  0  0  0  0  0  0  0  0
   -0.6483   -0.3629   -1.7770 H   0  0  0  0  0  0  0  0  0  0  0  0
    1.2499    0.4607   -1.2046 C   0  0  0  0  0  0  0  0  0  0  0  0
    1.3654    1.0934   -0.3251 H   0  0  0  0  0  0  0  0  0  0  0  0
    2.1631   -0.1196   -1.3414 H   0  0  0  0  0  0  0  0  0  0  0  0
    1.0344    1.5358   -2.6459 S   0  0  0  0  0  0  0  0  0  0  0  0
    1.1859    0.3106   -3.9716 C   0  0  0  0  0  0  0  0  0  0  0  0
    0.4052   -0.4434   -3.8664 H   0  0  0  0  0  0  0  0  0  0  0  0
    1.0779    0.8068   -4.9365 H   0  0  0  0  0  0  0  0  0  0  0  0
    2.1649   -0.1667   -3.9213 H   0  0  0  0  0  0  0  0  0  0  0  0
   -0.8064    1.1568    0.7414 C   0  0  0  0  0  0  0  0  0  0  0  0
   -1.6978    1.8100    0.2029 O   0  0  0  0  0  0  0  0  0  0  0  0
    0.0314    1.6872    1.6415 N   0  0  0  0  0  0  0  0  0  0  0  0
    0.7279    1.0858    2.0517 H   0  0  0  0  0  0  0  0  0  0  0  0
   -0.0137    3.0826    2.0755 C   0  0  0  0  0  0  0  0  0  0  0  0
   -0.9991    3.3070    2.4905 H   0  0  0  0  0  0  0  0  0  0  0  0
    0.7468    3.2694    2.8349 H   0  0  0  0  0  0  0  0  0  0  0  0
    0.1592    3.7397    1.2213 H   0  0  0  0  0  0  0  0  0  0  0  0
  5  6  2  0  0  0  0
  5  7  1  0  0  0  0
  2  3  1  0  0  0  0
  2  4  1  0  0  0  0
  2  5  1  0  0  0  0
  1  2  1  0  0  0  0
 22 23  2  0  0  0  0
 22 24  1  0  0  0  0
 18 19  1  0  0  0  0
 18 20  1  0  0  0  0
 18 21  1  0  0  0  0
 17 18  1  0  0  0  0
 14 15  1  0  0  0  0
 14 16  1  0  0  0  0
 14 17  1  0  0  0  0
 11 12  1  0  0  0  0
 11 13  1  0  0  0  0
 11 14  1  0  0  0  0
  9 10  1  0  0  0  0
  9 11  1  0  0  0  0
  9 22  1  0  0  0  0
  7  8  1  0  0  0  0
  7  9  1  0  0  0  0
 26 27  1  0  0  0  0
 26 28  1  0  0  0  0
 26 29  1  0  0  0  0
 24 25  1  0  0  0  0
 24 26  1  0  0  0  0
M  END
$$$$
default_name
  -OEChem-02102213163D

 29 28  0     1  0  0  0  0  0999 V2000
   -3.5781   -3.7296    1.2702 H   0  0  0  0  0  0  0  0  0  0  0  0
   -3.5311   -2.7616    0.7732 C   0  0  0  0  0  0  0  0  0  0  0  0
   -4.2371   -2.0766    1.2382 H   0  0  0  0  0  0  0  0  0  0  0  0
   -3.7681   -2.8816   -0.2818 H   0  0  0  0  0  0  0  0  0  0  0  0
   -2.1321   -2.2086    0.9112 C   0  0  0  0  0  0  0  0  0  0  0  0
   -1.2751   -2.8426    1.5112 O   0  0  0  0  0  0  0  0  0  0  0  0
   -1.9041   -1.0186    0.3602 N   0  0  0  0  0  0  0  0  0  0  0  0
   -2.6671   -0.5416   -0.0988 H   0  0  0  0  0  0  0  0  0  0  0  0
   -0.6131   -0.3236    0.3832 C   0  0  1  0  0  0  0  0  0  0  0  0
    0.0142   -0.7800    1.1506 H   0  0  0  0  0  0  0  0  0  0  0  0
    0.0816   -0.5059   -0.9788 C   0  0  0  0  0  0  0  0  0  0  0  0
    0.4633   -1.5269   -1.0444 H   0  0  0  0  0  0  0  0  0  0  0  0
   -0.6483   -0.3629   -1.7770 H   0  0  0  0  0  0  0  0  0  0  0  0
    1.2499    0.4607   -1.2046 C   0  0  0  0  0  0  0  0  0  0  0  0
    1.5384    0.9017   -0.2509 H   0  0  0  0  0  0  0  0  0  0  0  0
    2.0967   -0.1001   -1.6020 H   0  0  0  0  0  0  0  0  0  0  0  0
    0.8664    1.8073   -2.3532 S   0  0  0  0  0  0  0  0  0  0  0  0
    0.7376    0.8696   -3.8978 C   0  0  0  0  0  0  0  0  0  0  0  0
   -0.0562    0.1269   -3.8120 H   0  0  0  0  0  0  0  0  0  0  0  0
    0.5045    1.5513   -4.7162 H   0  0  0  0  0  0  0  0  0  0  0  0
    1.6847    0.3707   -4.1054 H   0  0  0  0  0  0  0  0  0  0  0  0
   -0.8064    1.1568    0.7414 C   0  0  0  0  0  0  0  0  0  0  0  0
   -1.6978    1.8100    0.2029 O   0  0  0  0  0  0  0  0  0  0  0  0
    0.0314    1.6872    1.6415 N   0  0  0  0  0  0  0  0  0  0  0  0
    0.7279    1.0858    2.0517 H   0  0  0  0  0  0  0  0  0  0  0  0
   -0.0137    3.0826    2.0755 C   0  0  0  0  0  0  0  0  0  0  0  0
   -0.9991    3.3070    2.4905 H   0  0  0  0  0  0  0  0  0  0  0  0
    0.7468    3.2694    2.8349 H   0  0  0  0  0  0  0  0  0  0  0  0
    0.1592    3.7397    1.2213 H   0  0  0  0  0  0  0  0  0  0  0  0
  5  6  2  0  0  0  0
  5  7  1  0  0  0  0
  2  3  1  0  0  0  0
  2  4  1  0  0  0  0
  2  5  1  0  0  0  0
  1  2  1  0  0  0  0
 22 23  2  0  0  0  0
 22 24  1  0  0  0  0
 18 19  1  0  0  0  0
 18 20  1  0  0  0  0
 18 21  1  0  0  0  0
 17 18  1  0  0  0  0
 14 15  1  0  0  0  0
 14 16  1  0  0  0  0
 14 17  1  0  0  0  0
 11 12  1  0  0  0  0
 11 13  1  0  0  0  0
 11 14  1  0  0  0  0
  9 10  1  0  0  0  0
  9 11  1  0  0  0  0
  9 22  1  0  0  0  0
  7  8  1  0  0  0  0
  7  9  1  0  0  0  0
 26 27  1  0  0  0  0
 26 28  1  0  0  0  0
 26 29  1  0  0  0  0
 24 25  1  0  0  0  0
 24 26  1  0  0  0  0
M  END
$$$$
default_name
  -OEChem-02102213163D

 29 28  0     1  0  0  0  0  0999 V2000
   -3.5781   -3.7296    1.2702 H   0  0  0  0  0  0  0  0  0  0  0  0
   -3.5311   -2.7616    0.7732 C   0  0  0  0  0  0  0  0  0  0  0  0
   -4.2371   -2.0766    1.2382 H   0  0  0  0  0  0  0  0  0  0  0  0
   -3.7681   -2.8816   -0.2818 H   0  0  0  0  0  0  0  0  0  0  0  0
   -2.1321   -2.2086    0.9112 C   0  0  0  0  0  0  0  0  0  0  0  0
   -1.2751   -2.8426    1.5112 O   0  0  0  0  0  0  0  0  0  0  0  0
   -1.9041   -1.0186    0.3602 N   0  0  0  0  0  0  0  0  0  0  0  0
   -2.6671   -0.5416   -0.0988 H   0  0  0  0  0  0  0  0  0  0  0  0
   -0.6131   -0.3236    0.3832 C   0  0  1  0  0  0  0  0  0  0  0  0
    0.0142   -0.7800    1.1506 H   0  0  0  0  0  0  0  0  0  0  0  0
    0.0816   -0.5059   -0.9788 C   0  0  0  0  0  0  0  0  0  0  0  0
    0.4633   -1.5269   -1.0444 H   0  0  0  0  0  0  0  0  0  0  0  0
   -0.6483   -0.3629   -1.7770 H   0  0  0  0  0  0  0  0  0  0  0  0
    1.2499    0.4607   -1.2046 C   0  0  0  0  0  0  0  0  0  0  0  0
    1.7102    0.6952   -0.2453 H   0  0  0  0  0  0  0  0  0  0  0  0
    1.9907   -0.0273   -1.8390 H   0  0  0  0  0  0  0  0  0  0  0  0
    0.7622    2.0182   -1.9895 S   0  0  0  0  0  0  0  0  0  0  0  0
    0.3380    1.4121   -3.6432 C   0  0  0  0  0  0  0  0  0  0  0  0
   -0.4712    0.6847   -3.5718 H   0  0  0  0  0  0  0  0  0  0  0  0
    0.0150    2.2489   -4.2630 H   0  0  0  0  0  0  0  0  0  0  0  0
    1.2113    0.9445   -4.0987 H   0  0  0  0  0  0  0  0  0  0  0  0
   -0.8064    1.1568    0.7414 C   0  0  0  0  0  0  0  0  0  0  0  0
   -1.6978    1.8100    0.2029 O   0  0  0  0  0  0  0  0  0  0  0  0
    0.0314    1.6872    1.6415 N   0  0  0  0  0  0  0  0  0  0  0  0
    0.7279    1.0858    2.0517 H   0  0  0  0  0  0  0  0  0  0  0  0
   -0.0137    3.0826    2.0755 C   0  0  0  0  0  0  0  0  0  0  0  0
   -0.9991    3.3070    2.4905 H   0  0  0  0  0  0  0  0  0  0  0  0
    0.7468    3.2694    2.8349 H   0  0  0  0  0  0  0  0  0  0  0  0
    0.1592    3.7397    1.2213 H   0  0  0  0  0  0  0  0  0  0  0  0
  5  6  2  0  0  0  0
  5  7  1  0  0  0  0
  2  3  1  0  0  0  0
  2  4  1  0  0  0  0
  2  5  1  0  0  0  0
  1  2  1  0  0  0  0
 22 23  2  0  0  0  0
 22 24  1  0  0  0  0
 18 19  1  0  0  0  0
 18 20  1  0  0  0  0
 18 21  1  0  0  0  0
 17 18  1  0  0  0  0
 14 15  1  0  0  0  0
 14 16  1  0  0  0  0
 14 17  1  0  0  0  0
 11 12  1  0  0  0  0
 11 13  1  0  0  0  0
 11 14  1  0  0  0  0
  9 10  1  0  0  0  0
  9 11  1  0  0  0  0
  9 22  1  0  0  0  0
  7  8  1  0  0  0  0
  7  9  1  0  0  0  0
 26 27  1  0  0  0  0
 26 28  1  0  0  0  0
 26 29  1  0  0  0  0
 24 25  1  0  0  0  0
 24 26  1  0  0  0  0
M  END
$$$$
default_name
  -OEChem-02102213163D

 29 28  0     1  0  0  0  0  0999 V2000
   -3.5781   -3.7296    1.2702 H   0  0  0  0  0  0  0  0  0  0  0  0
   -3.5311   -2.7616    0.7732 C   0  0  0  0  0  0  0  0  0  0  0  0
   -4.2371   -2.0766    1.2382 H   0  0  0  0  0  0  0  0  0  0  0  0
   -3.7681   -2.8816   -0.2818 H   0  0  0  0  0  0  0  0  0  0  0  0
   -2.1321   -2.2086    0.9112 C   0  0  0  0  0  0  0  0  0  0  0  0
   -1.2751   -2.8426    1.5112 O   0  0  0  0  0  0  0  0  0  0  0  0
   -1.9041   -1.0186    0.3602 N   0  0  0  0  0  0  0  0  0  0  0  0
   -2.6671   -0.5416   -0.0988 H   0  0  0  0  0  0  0  0  0  0  0  0
   -0.6131   -0.3236    0.3832 C   0  0  1  0  0  0  0  0  0  0  0  0
    0.0142   -0.7800    1.1506 H   0  0  0  0  0  0  0  0  0  0  0  0
    0.0816   -0.5059   -0.9788 C   0  0  0  0  0  0  0  0  0  0  0  0
    0.4633   -1.5269   -1.0444 H   0  0  0  0  0  0  0  0  0  0  0  0
   -0.6483   -0.3629   -1.7770 H   0  0  0  0  0  0  0  0  0  0  0  0
    1.2499    0.4607   -1.2046 C   0  0  0  0  0  0  0  0  0  0  0  0
    1.8693    0.4882   -0.3086 H   0  0  0  0  0  0  0  0  0  0  0  0
    1.8524    0.0937   -2.0363 H   0  0  0  0  0  0  0  0  0  0  0  0
    0.7289    2.1541   -1.5796 S   0  0  0  0  0  0  0  0  0  0  0  0
    0.0143    1.9011   -3.2249 C   0  0  0  0  0  0  0  0  0  0  0  0
   -0.8117    1.1920   -3.1619 H   0  0  0  0  0  0  0  0  0  0  0  0
   -0.3574    2.8520   -3.6077 H   0  0  0  0  0  0  0  0  0  0  0  0
    0.7770    1.5154   -3.9019 H   0  0  0  0  0  0  0  0  0  0  0  0
   -0.8064    1.1568    0.7414 C   0  0  0  0  0  0  0  0  0  0  0  0
   -1.6978    1.8100    0.2029 O   0  0  0  0  0  0  0  0  0  0  0  0
    0.0314    1.6872    1.6415 N   0  0  0  0  0  0  0  0  0  0  0  0
    0.7279    1.0858    2.0517 H   0  0  0  0  0  0  0  0  0  0  0  0
   -0.0137    3.0826    2.0755 C   0  0  0  0  0  0  0  0  0  0  0  0
   -0.9991    3.3070    2.4905 H   0  0  0  0  0  0  0  0  0  0  0  0
    0.7468    3.2694    2.8349 H   0  0  0  0  0  0  0  0  0  0  0  0
    0.1592    3.7397    1.2213 H   0  0  0  0  0  0  0  0  0  0  0  0
  5  6  2  0  0  0  0
  5  7  1  0  0  0  0
  2  3  1  0  0  0  0
  2  4  1  0  0  0  0
  2  5  1  0  0  0  0
  1  2  1  0  0  0  0
 22 23  2  0  0  0  0
 22 24  1  0  0  0  0
 18 19  1  0  0  0  0
 18 20  1  0  0  0  0
 18 21  1  0  0  0  0
 17 18  1  0  0  0  0
 14 15  1  0  0  0  0
 14 16  1  0  0  0  0
 14 17  1  0  0  0  0
 11 12  1  0  0  0  0
 11 13  1  0  0  0  0
 11 14  1  0  0  0  0
  9 10  1  0  0  0  0
  9 11  1  0  0  0  0
  9 22  1  0  0  0  0
  7  8  1  0  0  0  0
  7  9  1  0  0  0  0
 26 27  1  0  0  0  0
 26 28  1  0  0  0  0
 26 29  1  0  0  0  0
 24 25  1  0  0  0  0
 24 26  1  0  0  0  0
M  END
$$$$
default_name
  -OEChem-02102213163D

 29 28  0     1  0  0  0  0  0999 V2000
   -3.5781   -3.7296    1.2702 H   0  0  0  0  0  0  0  0  0  0  0  0
   -3.5311   -2.7616    0.7732 C   0  0  0  0  0  0  0  0  0  0  0  0
   -4.2371   -2.0766    1.2382 H   0  0  0  0  0  0  0  0  0  0  0  0
   -3.7681   -2.8816   -0.2818 H   0  0  0  0  0  0  0  0  0  0  0  0
   -2.1321   -2.2086    0.9112 C   0  0  0  0  0  0  0  0  0  0  0  0
   -1.2751   -2.8426    1.5112 O   0  0  0  0  0  0  0  0  0  0  0  0
   -1.9041   -1.0186    0.3602 N   0  0  0  0  0  0  0  0  0  0  0  0
   -2.6671   -0.5416   -0.0988 H   0  0  0  0  0  0  0  0  0  0  0  0
   -0.6131   -0.3236    0.3832 C   0  0  1  0  0  0  0  0  0  0  0  0
    0.0142   -0.7800    1.1506 H   0  0  0  0  0  0  0  0  0  0  0  0
    0.0816   -0.5059   -0.9788 C   0  0  0  0  0  0  0  0  0  0  0  0
    0.4633   -1.5269   -1.0444 H   0  0  0  0  0  0  0  0  0  0  0  0
   -0.6483   -0.3629   -1.7770 H   0  0  0  0  0  0  0  0  0  0  0  0
    1.2499    0.4607   -1.2046 C   0  0  0  0  0  0  0  0  0  0  0  0
    2.0047    0.2946   -0.4366 H   0  0  0  0  0  0  0  0  0  0  0  0
    1.6913    0.2549   -2.1804 H   0  0  0  0  0  0  0  0  0  0  0  0
    0.7689    2.2058   -1.1515 S   0  0  0  0  0  0  0  0  0  0  0  0
   -0.2116    2.3033   -2.6717 C   0  0  0  0  0  0  0  0  0  0  0  0
   -1.0543    1.6141   -2.6105 H   0  0  0  0  0  0  0  0  0  0  0  0
   -0.5871    3.3194   -2.7951 H   0  0  0  0  0  0  0  0  0  0  0  0
    0.4114    2.0446   -3.5283 H   0  0  0  0  0  0  0  0  0  0  0  0
   -0.8064    1.1568    0.7414 C   0  0  0  0  0  0  0  0  0  0  0  0
   -1.6978    1.8100    0.2029 O   0  0  0  0  0  0  0  0  0  0  0  0
    0.0314    1.6872    1.6415 N   0  0  0  0  0  0  0  0  0  0  0  0
    0.7279    1.0858    2.0517 H   0  0  0  0  0  0  0  0  0  0  0  0
   -0.0137    3.0826    2.0755 C   0  0  0  0  0  0  0  0  0  0  0  0
   -0.9991    3.3070    2.4905 H   0  0  0  0  0  0  0  0  0  0  0  0
    0.7468    3.2694    2.8349 H   0  0  0  0  0  0  0  0  0  0  0  0
    0.1592    3.7397    1.2213 H   0  0  0  0  0  0  0  0  0  0  0  0
  5  6  2  0  0  0  0
  5  7  1  0  0  0  0
  2  3  1  0  0  0  0
  2  4  1  0  0  0  0
  2  5  1  0  0  0  0
  1  2  1  0  0  0  0
 22 23  2  0  0  0  0
 22 24  1  0  0  0  0
 18 19  1  0  0  0  0
 18 20  1  0  0  0  0
 18 21  1  0  0  0  0
 17 18  1  0  0  0  0
 14 15  1  0  0  0  0
 14 16  1  0  0  0  0
 14 17  1  0  0  0  0
 11 12  1  0  0  0  0
 11 13  1  0  0  0  0
 11 14  1  0  0  0  0
  9 10  1  0  0  0  0
  9 11  1  0  0  0  0
  9 22  1  0  0  0  0
  7  8  1  0  0  0  0
  7  9  1  0  0  0  0
 26 27  1  0  0  0  0
 26 28  1  0  0  0  0
 26 29  1  0  0  0  0
 24 25  1  0  0  0  0
 24 26  1  0  0  0  0
M  END
$$$$
default_name
  -OEChem-02102213163D

 29 28  0     1  0  0  0  0  0999 V2000
   -3.5781   -3.7296    1.2702 H   0  0  0  0  0  0  0  0  0  0  0  0
   -3.5311   -2.7616    0.7732 C   0  0  0  0  0  0  0  0  0  0  0  0
   -4.2371   -2.0766    1.2382 H   0  0  0  0  0  0  0  0  0  0  0  0
   -3.7681   -2.8816   -0.2818 H   0  0  0  0  0  0  0  0  0  0  0  0
   -2.1321   -2.2086    0.9112 C   0  0  0  0  0  0  0  0  0  0  0  0
   -1.2751   -2.8426    1.5112 O   0  0  0  0  0  0  0  0  0  0  0  0
   -1.9041   -1.0186    0.3602 N   0  0  0  0  0  0  0  0  0  0  0  0
   -2.6671   -0.5416   -0.0988 H   0  0  0  0  0  0  0  0  0  0  0  0
   -0.6131   -0.3236    0.3832 C   0  0  1  0  0  0  0  0  0  0  0  0
    0.0142   -0.7800    1.1506 H   0  0  0  0  0  0  0  0  0  0  0  0
    0.0816   -0.5059   -0.9788 C   0  0  0  0  0  0  0  0  0  0  0  0
    0.4633   -1.5269   -1.0444 H   0  0  0  0  0  0  0  0  0  0  0  0
   -0.6483   -0.3629   -1.7770 H   0  0  0  0  0  0  0  0  0  0  0  0
    1.2499    0.4607   -1.2046 C   0  0  0  0  0  0  0  0  0  0  0  0
    2.1073    0.1277   -0.6205 H   0  0  0  0  0  0  0  0  0  0  0  0
    1.5182    0.4450   -2.2615 H   0  0  0  0  0  0  0  0  0  0  0  0
    0.8793    2.1698   -0.7342 S   0  0  0  0  0  0  0  0  0  0  0  0
   -0.3241    2.5912   -2.0211 C   0  0  0  0  0  0  0  0  0  0  0  0
   -1.1826    1.9222   -1.9549 H   0  0  0  0  0  0  0  0  0  0  0  0
   -0.6585    3.6194   -1.8804 H   0  0  0  0  0  0  0  0  0  0  0  0
    0.1394    2.4960   -3.0034 H   0  0  0  0  0  0  0  0  0  0  0  0
   -0.8064    1.1568    0.7414 C   0  0  0  0  0  0  0  0  0  0  0  0
   -1.6978    1.8100    0.2029 O   0  0  0  0  0  0  0  0  0  0  0  0
    0.0314    1.6872    1.6415 N   0  0  0  0  0  0  0  0  0  0  0  0
    0.7279    1.0858    2.0517 H   0  0  0  0  0  0  0  0  0  0  0  0
   -0.0137    3.0826    2.0755 C   0  0  0  0  0  0  0  0  0  0  0  0
   -0.9991    3.3070    2.4905 H   0  0  0  0  0  0  0  0  0  0  0  0
    0.7468    3.2694    2.8349 H   0  0  0  0  0  0  0  0  0  0  0  0
    0.1592    3.7397    1.2213 H   0  0  0  0  0  0  0  0  0  0  0  0
  5  6  2  0  0  0  0
  5  7  1  0  0  0  0
  2  3  1  0  0  0  0
  2  4  1  0  0  0  0
  2  5  1  0  0  0  0
  1  2  1  0  0  0  0
 22 23  2  0  0  0  0
 22 24  1  0  0  0  0
 18 19  1  0  0  0  0
 18 20  1  0  0  0  0
 18 21  1  0  0  0  0
 17 18  1  0  0  0  0
 14 15  1  0  0  0  0
 14 16  1  0  0  0  0
 14 17  1  0  0  0  0
 11 12  1  0  0  0  0
 11 13  1  0  0  0  0
 11 14  1  0  0  0  0
  9 10  1  0  0  0  0
  9 11  1  0  0  0  0
  9 22  1  0  0  0  0
  7  8  1  0  0  0  0
  7  9  1  0  0  0  0
 26 27  1  0  0  0  0
 26 28  1  0  0  0  0
 26 29  1  0  0  0  0
 24 25  1  0  0  0  0
 24 26  1  0  0  0  0
M  END
$$$$
default_name
  -OEChem-02102213163D

 29 28  0     1  0  0  0  0  0999 V2000
   -3.5781   -3.7296    1.2702 H   0  0  0  0  0  0  0  0  0  0  0  0
   -3.5311   -2.7616    0.7732 C   0  0  0  0  0  0  0  0  0  0  0  0
   -4.2371   -2.0766    1.2382 H   0  0  0  0  0  0  0  0  0  0  0  0
   -3.7681   -2.8816   -0.2818 H   0  0  0  0  0  0  0  0  0  0  0  0
   -2.1321   -2.2086    0.9112 C   0  0  0  0  0  0  0  0  0  0  0  0
   -1.2751   -2.8426    1.5112 O   0  0  0  0  0  0  0  0  0  0  0  0
   -1.9041   -1.0186    0.3602 N   0  0  0  0  0  0  0  0  0  0  0  0
   -2.6671   -0.5416   -0.0988 H   0  0  0  0  0  0  0  0  0  0  0  0
   -0.6131   -0.3236    0.3832 C   0  0  1  0  0  0  0  0  0  0  0  0
    0.0142   -0.7800    1.1506 H   0  0  0  0  0  0  0  0  0  0  0  0
    0.0816   -0.5059   -0.9788 C   0  0  0  0  0  0  0  0  0  0  0  0
    0.4633   -1.5269   -1.0444 H   0  0  0  0  0  0  0  0  0  0  0  0
   -0.6483   -0.3629   -1.7770 H   0  0  0  0  0  0  0  0  0  0  0  0
    1.2499    0.4607   -1.2046 C   0  0  0  0  0  0  0  0  0  0  0  0
    2.1700   -0.0012   -0.8478 H   0  0  0  0  0  0  0  0  0  0  0  0
    1.3451    0.6514   -2.2742 H   0  0  0  0  0  0  0  0  0  0  0  0
    1.0527    2.0485   -0.3563 S   0  0  0  0  0  0  0  0  0  0  0  0
   -0.3156    2.7453   -1.3175 C   0  0  0  0  0  0  0  0  0  0  0  0
   -1.1878    2.0955   -1.2400 H   0  0  0  0  0  0  0  0  0  0  0  0
   -0.5669    3.7315   -0.9261 H   0  0  0  0  0  0  0  0  0  0  0  0
   -0.0205    2.8389   -2.3630 H   0  0  0  0  0  0  0  0  0  0  0  0
   -0.8064    1.1568    0.7414 C   0  0  0  0  0  0  0  0  0  0  0  0
   -1.6978    1.8100    0.2029 O   0  0  0  0  0  0  0  0  0  0  0  0
    0.0314    1.6872    1.6415 N   0  0  0  0  0  0  0  0  0  0  0  0
    0.7279    1.0858    2.0517 H   0  0  0  0  0  0  0  0  0  0  0  0
   -0.0137    3.0826    2.0755 C   0  0  0  0  0  0  0  0  0  0  0  0
   -0.9991    3.3070    2.4905 H   0  0  0  0  0  0  0  0  0  0  0  0
    0.7468    3.2694    2.8349 H   0  0  0  0  0  0  0  0  0  0  0  0
    0.1592    3.7397    1.2213 H   0  0  0  0  0  0  0  0  0  0  0  0
  5  6  2  0  0  0  0
  5  7  1  0  0  0  0
  2  3  1  0  0  0  0
  2  4  1  0  0  0  0
  2  5  1  0  0  0  0
  1  2  1  0  0  0  0
 22 23  2  0  0  0  0
 22 24  1  0  0  0  0
 18 19  1  0  0  0  0
 18 20  1  0  0  0  0
 18 21  1  0  0  0  0
 17 18  1  0  0  0  0
 14 15  1  0  0  0  0
 14 16  1  0  0  0  0
 14 17  1  0  0  0  0
 11 12  1  0  0  0  0
 11 13  1  0  0  0  0
 11 14  1  0  0  0  0
  9 10  1  0  0  0  0
  9 11  1  0  0  0  0
  9 22  1  0  0  0  0
  7  8  1  0  0  0  0
  7  9  1  0  0  0  0
 26 27  1  0  0  0  0
 26 28  1  0  0  0  0
 26 29  1  0  0  0  0
 24 25  1  0  0  0  0
 24 26  1  0  0  0  0
M  END
$$$$
default_name
  -OEChem-02102213163D

 29 28  0     1  0  0  0  0  0999 V2000
   -3.5781   -3.7296    1.2702 H   0  0  0  0  0  0  0  0  0  0  0  0
   -3.5311   -2.7616    0.7732 C   0  0  0  0  0  0  0  0  0  0  0  0
   -4.2371   -2.0766    1.2382 H   0  0  0  0  0  0  0  0  0  0  0  0
   -3.7681   -2.8816   -0.2818 H   0  0  0  0  0  0  0  0  0  0  0  0
   -2.1321   -2.2086    0.9112 C   0  0  0  0  0  0  0  0  0  0  0  0
   -1.2751   -2.8426    1.5112 O   0  0  0  0  0  0  0  0  0  0  0  0
   -1.9041   -1.0186    0.3602 N   0  0  0  0  0  0  0  0  0  0  0  0
   -2.6671   -0.5416   -0.0988 H   0  0  0  0  0  0  0  0  0  0  0  0
   -0.6131   -0.3236    0.3832 C   0  0  1  0  0  0  0  0  0  0  0  0
    0.0142   -0.7800    1.1506 H   0  0  0  0  0  0  0  0  0  0  0  0
    0.0816   -0.5059   -0.9788 C   0  0  0  0  0  0  0  0  0  0  0  0
    0.4633   -1.5269   -1.0444 H   0  0  0  0  0  0  0  0  0  0  0  0
   -0.6483   -0.3629   -1.7770 H   0  0  0  0  0  0  0  0  0  0  0  0
    1.2499    0.4607   -1.2046 C   0  0  0  0  0  0  0  0  0  0  0  0
    2.1885   -0.0832   -1.1030 H   0  0  0  0  0  0  0  0  0  0  0  0
    1.1837    0.8597   -2.2174 H   0  0  0  0  0  0  0  0  0  0  0  0
    1.2772    1.8502   -0.0434 S   0  0  0  0  0  0  0  0  0  0  0  0
   -0.1868    2.7551   -0.6089 C   0  0  0  0  0  0  0  0  0  0  0  0
   -1.0695    2.1220   -0.5145 H   0  0  0  0  0  0  0  0  0  0  0  0
   -0.3183    3.6481    0.0028 H   0  0  0  0  0  0  0  0  0  0  0  0
   -0.0574    3.0498   -1.6506 H   0  0  0  0  0  0  0  0  0  0  0  0
   -0.8064    1.1568    0.7414 C   0  0  0  0  0  0  0  0  0  0  0  0
   -1.6978    1.8100    0.2029 O   0  0  0  0  0  0  0  0  0  0  0  0
    0.0314    1.6872    1.6415 N   0  0  0  0  0  0  0  0  0  0  0  0
    0.7279    1.0858    2.0517 H   0  0  0  0  0  0  0  0  0  0  0  0
   -0.0137    3.0826    2.0755 C   0  0  0  0  0  0  0  0  0  0  0  0
   -0.9991    3.3070    2.4905 H   0  0  0  0  0  0  0  0  0  0  0  0
    0.7468    3.2694    2.8349 H   0  0  0  0  0  0  0  0  0  0  0  0
    0.1592    3.7397    1.2213 H   0  0  0  0  0  0  0  0  0  0  0  0
  5  6  2  0  0  0  0
  5  7  1  0  0  0  0
  2  3  1  0  0  0  0
  2  4  1  0  0  0  0
  2  5  1  0  0  0  0
  1  2  1  0  0  0  0
 22 23  2  0  0  0  0
 22 24  1  0  0  0  0
 18 19  1  0  0  0  0
 18 20  1  0  0  0  0
 18 21  1  0  0  0  0
 17 18  1  0  0  0  0
 14 15  1  0  0  0  0
 14 16  1  0  0  0  0
 14 17  1  0  0  0  0
 11 12  1  0  0  0  0
 11 13  1  0  0  0  0
 11 14  1  0  0  0  0
  9 10  1  0  0  0  0
  9 11  1  0  0  0  0
  9 22  1  0  0  0  0
  7  8  1  0  0  0  0
  7  9  1  0  0  0  0
 26 27  1  0  0  0  0
 26 28  1  0  0  0  0
 26 29  1  0  0  0  0
 24 25  1  0  0  0  0
 24 26  1  0  0  0  0
M  END
$$$$
default_name
  -OEChem-02102213163D

 29 28  0     1  0  0  0  0  0999 V2000
   -3.5781   -3.7296    1.2702 H   0  0  0  0  0  0  0  0  0  0  0  0
   -3.5311   -2.7616    0.7732 C   0  0  0  0  0  0  0  0  0  0  0  0
   -4.2371   -2.0766    1.2382 H   0  0  0  0  0  0  0  0  0  0  0  0
   -3.7681   -2.8816   -0.2818 H   0  0  0  0  0  0  0  0  0  0  0  0
   -2.1321   -2.2086    0.9112 C   0  0  0  0  0  0  0  0  0  0  0  0
   -1.2751   -2.8426    1.5112 O   0  0  0  0  0  0  0  0  0  0  0  0
   -1.9041   -1.0186    0.3602 N   0  0  0  0  0  0  0  0  0  0  0  0
   -2.6671   -0.5416   -0.0988 H   0  0  0  0  0  0  0  0  0  0  0  0
   -0.6131   -0.3236    0.3832 C   0  0  1  0  0  0  0  0  0  0  0  0
    0.0142   -0.7800    1.1506 H   0  0  0  0  0  0  0  0  0  0  0  0
    0.0816   -0.5059   -0.9788 C   0  0  0  0  0  0  0  0  0  0  0  0
    0.4633   -1.5269   -1.0444 H   0  0  0  0  0  0  0  0  0  0  0  0
   -0.6483   -0.3629   -1.7770 H   0  0  0  0  0  0  0  0  0  0  0  0
    1.2499    0.4607   -1.2046 C   0  0  0  0  0  0  0  0  0  0  0  0
    2.1617   -0.1128   -1.3687 H   0  0  0  0  0  0  0  0  0  0  0  0
    1.0450    1.0560   -2.0952 H   0  0  0  0  0  0  0  0  0  0  0  0
    1.5375    1.5884    0.1830 S   0  0  0  0  0  0  0  0  0  0  0  0
    0.0537    2.6199    0.0565 C   0  0  0  0  0  0  0  0  0  0  0  0
   -0.8359    2.0000    0.1723 H   0  0  0  0  0  0  0  0  0  0  0  0
    0.0702    3.3747    0.8431 H   0  0  0  0  0  0  0  0  0  0  0  0
    0.0312    3.1145   -0.9149 H   0  0  0  0  0  0  0  0  0  0  0  0
   -0.8064    1.1568    0.7414 C   0  0  0  0  0  0  0  0  0  0  0  0
   -1.6978    1.8100    0.2029 O   0  0  0  0  0  0  0  0  0  0  0  0
    0.0314    1.6872    1.6415 N   0  0  0  0  0  0  0  0  0  0  0  0
    0.7279    1.0858    2.0517 H   0  0  0  0  0  0  0  0  0  0  0  0
   -0.0137    3.0826    2.0755 C   0  0  0  0  0  0  0  0  0  0  0  0
   -0.9991    3.3070    2.4905 H   0  0  0  0  0  0  0  0  0  0  0  0
    0.7468    3.2694    2.8349 H   0  0  0  0  0  0  0  0  0  0  0  0
    0.1592    3.7397    1.2213 H   0  0  0  0  0  0  0  0  0  0  0  0
  5  6  2  0  0  0  0
  5  7  1  0  0  0  0
  2  3  1  0  0  0  0
  2  4  1  0  0  0  0
  2  5  1  0  0  0  0
  1  2  1  0  0  0  0
 22 23  2  0  0  0  0
 22 24  1  0  0  0  0
 18 19  1  0  0  0  0
 18 20  1  0  0  0  0
 18 21  1  0  0  0  0
 17 18  1  0  0  0  0
 14 15  1  0  0  0  0
 14 16  1  0  0  0  0
 14 17  1  0  0  0  0
 11 12  1  0  0  0  0
 11 13  1  0  0  0  0
 11 14  1  0  0  0  0
  9 10  1  0  0  0  0
  9 11  1  0  0  0  0
  9 22  1  0  0  0  0
  7  8  1  0  0  0  0
  7  9  1  0  0  0  0
 26 27  1  0  0  0  0
 26 28  1  0  0  0  0
 26 29  1  0  0  0  0
 24 25  1  0  0  0  0
 24 26  1  0  0  0  0
M  END
$$$$
default_name
  -OEChem-02102213163D

 29 28  0     1  0  0  0  0  0999 V2000
   -3.5781   -3.7296    1.2702 H   0  0  0  0  0  0  0  0  0  0  0  0
   -3.5311   -2.7616    0.7732 C   0  0  0  0  0  0  0  0  0  0  0  0
   -4.2371   -2.0766    1.2382 H   0  0  0  0  0  0  0  0  0  0  0  0
   -3.7681   -2.8816   -0.2818 H   0  0  0  0  0  0  0  0  0  0  0  0
   -2.1321   -2.2086    0.9112 C   0  0  0  0  0  0  0  0  0  0  0  0
   -1.2751   -2.8426    1.5112 O   0  0  0  0  0  0  0  0  0  0  0  0
   -1.9041   -1.0186    0.3602 N   0  0  0  0  0  0  0  0  0  0  0  0
   -2.6671   -0.5416   -0.0988 H   0  0  0  0  0  0  0  0  0  0  0  0
   -0.6131   -0.3236    0.3832 C   0  0  1  0  0  0  0  0  0  0  0  0
    0.0142   -0.7800    1.1506 H   0  0  0  0  0  0  0  0  0  0  0  0
    0.0816   -0.5059   -0.9788 C   0  0  0  0  0  0  0  0  0  0  0  0
    0.4633   -1.5269   -1.0444 H   0  0  0  0  0  0  0  0  0  0  0  0
   -0.6483   -0.3629   -1.7770 H   0  0  0  0  0  0  0  0  0  0  0  0
    1.2499    0.4607   -1.2046 C   0  0  0  0  0  0  0  0  0  0  0  0
    2.0912   -0.0880   -1.6268 H   0  0  0  0  0  0  0  0  0  0  0  0
    0.9384    1.2267   -1.9157 H   0  0  0  0  0  0  0  0  0  0  0  0
    1.8160    1.2809    0.3075 S   0  0  0  0  0  0  0  0  0  0  0  0
    0.3894    2.3488    0.6333 C   0  0  0  0  0  0  0  0  0  0  0  0
   -0.5028    1.7378    0.7735 H   0  0  0  0  0  0  0  0  0  0  0  0
    0.5721    2.9302    1.5374 H   0  0  0  0  0  0  0  0  0  0  0  0
    0.2394    3.0285   -0.2060 H   0  0  0  0  0  0  0  0  0  0  0  0
   -0.8064    1.1568    0.7414 C   0  0  0  0  0  0  0  0  0  0  0  0
   -1.6978    1.8100    0.2029 O   0  0  0  0  0  0  0  0  0  0  0  0
    0.0314    1.6872    1.6415 N   0  0  0  0  0  0  0  0  0  0  0  0
    0.7279    1.0858    2.0517 H   0  0  0  0  0  0  0  0  0  0  0  0
   -0.0137    3.0826    2.0755 C   0  0  0  0  0  0  0  0  0  0  0  0
   -0.9991    3.3070    2.4905 H   0  0  0  0  0  0  0  0  0  0  0  0
    0.7468    3.2694    2.8349 H   0  0  0  0  0  0  0  0  0  0  0  0
    0.1592    3.7397    1.2213 H   0  0  0  0  0  0  0  0  0  0  0  0
  5  6  2  0  0  0  0
  5  7  1  0  0  0  0
  2  3  1  0  0  0  0
  2  4  1  0  0  0  0
  2  5  1  0  0  0  0
  1  2  1  0  0  0  0
 22 23  2  0  0  0  0
 22 24  1  0  0  0  0
 18 19  1  0  0  0  0
 18 20  1  0  0  0  0
 18 21  1  0  0  0  0
 17 18  1  0  0  0  0
 14 15  1  0  0  0  0
 14 16  1  0  0  0  0
 14 17  1  0  0  0  0
 11 12  1  0  0  0  0
 11 13  1  0  0  0  0
 11 14  1  0  0  0  0
  9 10  1  0  0  0  0
  9 11  1  0  0  0  0
  9 22  1  0  0  0  0
  7  8  1  0  0  0  0
  7  9  1  0  0  0  0
 26 27  1  0  0  0  0
 26 28  1  0  0  0  0
 26 29  1  0  0  0  0
 24 25  1  0  0  0  0
 24 26  1  0  0  0  0
M  END
$$$$
default_name
  -OEChem-02102213163D

 29 28  0     1  0  0  0  0  0999 V2000
   -3.5781   -3.7296    1.2702 H   0  0  0  0  0  0  0  0  0  0  0  0
   -3.5311   -2.7616    0.7732 C   0  0  0  0  0  0  0  0  0  0  0  0
   -4.2371   -2.0766    1.2382 H   0  0  0  0  0  0  0  0  0  0  0  0
   -3.7681   -2.8816   -0.2818 H   0  0  0  0  0  0  0  0  0  0  0  0
   -2.1321   -2.2086    0.9112 C   0  0  0  0  0  0  0  0  0  0  0  0
   -1.2751   -2.8426    1.5112 O   0  0  0  0  0  0  0  0  0  0  0  0
   -1.9041   -1.0186    0.3602 N   0  0  0  0  0  0  0  0  0  0  0  0
   -2.6671   -0.5416   -0.0988 H   0  0  0  0  0  0  0  0  0  0  0  0
   -0.6131   -0.3236    0.3832 C   0  0  1  0  0  0  0  0  0  0  0  0
    0.0142   -0.7800    1.1506 H   0  0  0  0  0  0  0  0  0  0  0  0
    0.0816   -0.5059   -0.9788 C   0  0  0  0  0  0  0  0  0  0  0  0
    0.4633   -1.5269   -1.0444 H   0  0  0  0  0  0  0  0  0  0  0  0
   -0.6483   -0.3629   -1.7770 H   0  0  0  0  0  0  0  0  0  0  0  0
    1.2499    0.4607   -1.2046 C   0  0  0  0  0  0  0  0  0  0  0  0
    1.9820   -0.0104   -1.8597 H   0  0  0  0  0  0  0  0  0  0  0  0
    0.8713    1.3602   -1.6913 H   0  0  0  0  0  0  0  0  0  0  0  0
    2.0936    0.9487    0.3218 S   0  0  0  0  0  0  0  0  0  0  0  0
    0.7974    1.9604    1.0822 C   0  0  0  0  0  0  0  0  0  0  0  0
   -0.0930    1.3533    1.2482 H   0  0  0  0  0  0  0  0  0  0  0  0
    1.1533    2.3447    2.0385 H   0  0  0  0  0  0  0  0  0  0  0  0
    0.5529    2.7976    0.4278 H   0  0  0  0  0  0  0  0  0  0  0  0
   -0.8064    1.1568    0.7414 C   0  0  0  0  0  0  0  0  0  0  0  0
   -1.6978    1.8100    0.2029 O   0  0  0  0  0  0  0  0  0  0  0  0
    0.0314    1.6872    1.6415 N   0  0  0  0  0  0  0  0  0  0  0  0
    0.7279    1.0858    2.0517 H   0  0  0  0  0  0  0  0  0  0  0  0
   -0.0137    3.0826    2.0755 C   0  0  0  0  0  0  0  0  0  0  0  0
   -0.9991    3.3070    2.4905 H   0  0  0  0  0  0  0  0  0  0  0  0
    0.7468    3.2694    2.8349 H   0  0  0  0  0  0  0  0  0  0  0  0
    0.1592    3.7397    1.2213 H   0  0  0  0  0  0  0  0  0  0  0  0
  5  6  2  0  0  0  0
  5  7  1  0  0  0  0
  2  3  1  0  0  0  0
  2  4  1  0  0  0  0
  2  5  1  0  0  0  0
  1  2  1  0  0  0  0
 22 23  2  0  0  0  0
 22 24  1  0  0  0  0
 18 19  1  0  0  0  0
 18 20  1  0  0  0  0
 18 21  1  0  0  0  0
 17 18  1  0  0  0  0
 14 15  1  0  0  0  0
 14 16  1  0  0  0  0
 14 17  1  0  0  0  0
 11 12  1  0  0  0  0
 11 13  1  0  0  0  0
 11 14  1  0  0  0  0
  9 10  1  0  0  0  0
  9 11  1  0  0  0  0
  9 22  1  0  0  0  0
  7  8  1  0  0  0  0
  7  9  1  0  0  0  0
 26 27  1  0  0  0  0
 26 28  1  0  0  0  0
 26 29  1  0  0  0  0
 24 25  1  0  0  0  0
 24 26  1  0  0  0  0
M  END
$$$$
default_name
  -OEChem-02102213163D

 29 28  0     1  0  0  0  0  0999 V2000
   -3.5781   -3.7296    1.2702 H   0  0  0  0  0  0  0  0  0  0  0  0
   -3.5311   -2.7616    0.7732 C   0  0  0  0  0  0  0  0  0  0  0  0
   -4.2371   -2.0766    1.2382 H   0  0  0  0  0  0  0  0  0  0  0  0
   -3.7681   -2.8816   -0.2818 H   0  0  0  0  0  0  0  0  0  0  0  0
   -2.1321   -2.2086    0.9112 C   0  0  0  0  0  0  0  0  0  0  0  0
   -1.2751   -2.8426    1.5112 O   0  0  0  0  0  0  0  0  0  0  0  0
   -1.9041   -1.0186    0.3602 N   0  0  0  0  0  0  0  0  0  0  0  0
   -2.6671   -0.5416   -0.0988 H   0  0  0  0  0  0  0  0  0  0  0  0
   -0.6131   -0.3236    0.3832 C   0  0  1  0  0  0  0  0  0  0  0  0
    0.0142   -0.7800    1.1506 H   0  0  0  0  0  0  0  0  0  0  0  0
    0.0816   -0.5059   -0.9788 C   0  0  0  0  0  0  0  0  0  0  0  0
    0.4633   -1.5269   -1.0444 H   0  0  0  0  0  0  0  0  0  0  0  0
   -0.6483   -0.3629   -1.7770 H   0  0  0  0  0  0  0  0  0  0  0  0
    1.2499    0.4607   -1.2046 C   0  0  0  0  0  0  0  0  0  0  0  0
    1.8415    0.1147   -2.0516 H   0  0  0  0  0  0  0  0  0  0  0  0
    0.8481    1.4475   -1.4373 H   0  0  0  0  0  0  0  0  0  0  0  0
    2.3513    0.6144    0.2247 S   0  0  0  0  0  0  0  0  0  0  0  0
    1.2500    1.4812    1.3726 C   0  0  0  0  0  0  0  0  0  0  0  0
    0.3657    0.8726    1.5639 H   0  0  0  0  0  0  0  0  0  0  0  0
    1.7741    1.6582    2.3122 H   0  0  0  0  0  0  0  0  0  0  0  0
    0.9503    2.4376    0.9433 H   0  0  0  0  0  0  0  0  0  0  0  0
   -0.8064    1.1568    0.7414 C   0  0  0  0  0  0  0  0  0  0  0  0
   -1.6978    1.8100    0.2029 O   0  0  0  0  0  0  0  0  0  0  0  0
    0.0314    1.6872    1.6415 N   0  0  0  0  0  0  0  0  0  0  0  0
    0.7279    1.0858    2.0517 H   0  0  0  0  0  0  0  0  0  0  0  0
   -0.0137    3.0826    2.0755 C   0  0  0  0  0  0  0  0  0  0  0  0
   -0.9991    3.3070    2.4905 H   0  0  0  0  0  0  0  0  0  0  0  0
    0.7468    3.2694    2.8349 H   0  0  0  0  0  0  0  0  0  0  0  0
    0.1592    3.7397    1.2213 H   0  0  0  0  0  0  0  0  0  0  0  0
  5  6  2  0  0  0  0
  5  7  1  0  0  0  0
  2  3  1  0  0  0  0
  2  4  1  0  0  0  0
  2  5  1  0  0  0  0
  1  2  1  0  0  0  0
 22 23  2  0  0  0  0
 22 24  1  0  0  0  0
 18 19  1  0  0  0  0
 18 20  1  0  0  0  0
 18 21  1  0  0  0  0
 17 18  1  0  0  0  0
 14 15  1  0  0  0  0
 14 16  1  0  0  0  0
 14 17  1  0  0  0  0
 11 12  1  0  0  0  0
 11 13  1  0  0  0  0
 11 14  1  0  0  0  0
  9 10  1  0  0  0  0
  9 11  1  0  0  0  0
  9 22  1  0  0  0  0
  7  8  1  0  0  0  0
  7  9  1  0  0  0  0
 26 27  1  0  0  0  0
 26 28  1  0  0  0  0
 26 29  1  0  0  0  0
 24 25  1  0  0  0  0
 24 26  1  0  0  0  0
M  END
$$$$
default_name
  -OEChem-02102213163D

 29 28  0     1  0  0  0  0  0999 V2000
   -3.5781   -3.7296    1.2702 H   0  0  0  0  0  0  0  0  0  0  0  0
   -3.5311   -2.7616    0.7732 C   0  0  0  0  0  0  0  0  0  0  0  0
   -4.2371   -2.0766    1.2382 H   0  0  0  0  0  0  0  0  0  0  0  0
   -3.7681   -2.8816   -0.2818 H   0  0  0  0  0  0  0  0  0  0  0  0
   -2.1321   -2.2086    0.9112 C   0  0  0  0  0  0  0  0  0  0  0  0
   -1.2751   -2.8426    1.5112 O   0  0  0  0  0  0  0  0  0  0  0  0
   -1.9041   -1.0186    0.3602 N   0  0  0  0  0  0  0  0  0  0  0  0
   -2.6671   -0.5416   -0.0988 H   0  0  0  0  0  0  0  0  0  0  0  0
   -0.6131   -0.3236    0.3832 C   0  0  1  0  0  0  0  0  0  0  0  0
    0.0142   -0.7800    1.1506 H   0  0  0  0  0  0  0  0  0  0  0  0
    0.0816   -0.5059   -0.9788 C   0  0  0  0  0  0  0  0  0  0  0  0
    0.4633   -1.5269   -1.0444 H   0  0  0  0  0  0  0  0  0  0  0  0
   -0.6483   -0.3629   -1.7770 H   0  0  0  0  0  0  0  0  0  0  0  0
    1.2499    0.4607   -1.2046 C   0  0  0  0  0  0  0  0  0  0  0  0
    1.6792    0.2787   -2.1893 H   0  0  0  0  0  0  0  0  0  0  0  0
    0.8706    1.4827   -1.1709 H   0  0  0  0  0  0  0  0  0  0  0  0
    2.5718    0.3009    0.0229 S   0  0  0  0  0  0  0  0  0  0  0  0
    1.7163    0.9437    1.4847 C   0  0  0  0  0  0  0  0  0  0  0  0
    0.8420    0.3285    1.6992 H   0  0  0  0  0  0  0  0  0  0  0  0
    2.3923    0.9174    2.3398 H   0  0  0  0  0  0  0  0  0  0  0  0
    1.4046    1.9731    1.3055 H   0  0  0  0  0  0  0  0  0  0  0  0
   -0.8064    1.1568    0.7414 C   0  0  0  0  0  0  0  0  0  0  0  0
   -1.6978    1.8100    0.2029 O   0  0  0  0  0  0  0  0  0  0  0  0
    0.0314    1.6872    1.6415 N   0  0  0  0  0  0  0  0  0  0  0  0
    0.7279    1.0858    2.0517 H   0  0  0  0  0  0  0  0  0  0  0  0
   -0.0137    3.0826    2.0755 C   0  0  0  0  0  0  0  0  0  0  0  0
   -0.9991    3.3070    2.4905 H   0  0  0  0  0  0  0  0  0  0  0  0
    0.7468    3.2694    2.8349 H   0  0  0  0  0  0  0  0  0  0  0  0
    0.1592    3.7397    1.2213 H   0  0  0  0  0  0  0  0  0  0  0  0
  5  6  2  0  0  0  0
  5  7  1  0  0  0  0
  2  3  1  0  0  0  0
  2  4  1  0  0  0  0
  2  5  1  0  0  0  0
  1  2  1  0  0  0  0
 22 23  2  0  0  0  0
 22 24  1  0  0  0  0
 18 19  1  0  0  0  0
 18 20  1  0  0  0  0
 18 21  1  0  0  0  0
 17 18  1  0  0  0  0
 14 15  1  0  0  0  0
 14 16  1  0  0  0  0
 14 17  1  0  0  0  0
 11 12  1  0  0  0  0
 11 13  1  0  0  0  0
 11 14  1  0  0  0  0
  9 10  1  0  0  0  0
  9 11  1  0  0  0  0
  9 22  1  0  0  0  0
  7  8  1  0  0  0  0
  7  9  1  0  0  0  0
 26 27  1  0  0  0  0
 26 28  1  0  0  0  0
 26 29  1  0  0  0  0
 24 25  1  0  0  0  0
 24 26  1  0  0  0  0
M  END
$$$$
default_name
  -OEChem-02102213163D

 29 28  0     1  0  0  0  0  0999 V2000
   -3.5781   -3.7296    1.2702 H   0  0  0  0  0  0  0  0  0  0  0  0
   -3.5311   -2.7616    0.7732 C   0  0  0  0  0  0  0  0  0  0  0  0
   -4.2371   -2.0766    1.2382 H   0  0  0  0  0  0  0  0  0  0  0  0
   -3.7681   -2.8816   -0.2818 H   0  0  0  0  0  0  0  0  0  0  0  0
   -2.1321   -2.2086    0.9112 C   0  0  0  0  0  0  0  0  0  0  0  0
   -1.2751   -2.8426    1.5112 O   0  0  0  0  0  0  0  0  0  0  0  0
   -1.9041   -1.0186    0.3602 N   0  0  0  0  0  0  0  0  0  0  0  0
   -2.6671   -0.5416   -0.0988 H   0  0  0  0  0  0  0  0  0  0  0  0
   -0.6131   -0.3236    0.3832 C   0  0  1  0  0  0  0  0  0  0  0  0
    0.0142   -0.7800    1.1506 H   0  0  0  0  0  0  0  0  0  0  0  0
    0.0816   -0.5059   -0.9788 C   0  0  0  0  0  0  0  0  0  0  0  0
    0.4633   -1.5269   -1.0444 H   0  0  0  0  0  0  0  0  0  0  0  0
   -0.6483   -0.3629   -1.7770 H   0  0  0  0  0  0  0  0  0  0  0  0
    1.2499    0.4607   -1.2046 C   0  0  0  0  0  0  0  0  0  0  0  0
    1.5062    0.4704   -2.2635 H   0  0  0  0  0  0  0  0  0  0  0  0
    0.9370    1.4632   -0.9103 H   0  0  0  0  0  0  0  0  0  0  0  0
    2.7398    0.0294   -0.2698 S   0  0  0  0  0  0  0  0  0  0  0  0
    2.1645    0.3847    1.4109 C   0  0  0  0  0  0  0  0  0  0  0  0
    1.3034   -0.2418    1.6449 H   0  0  0  0  0  0  0  0  0  0  0  0
    2.9657    0.1729    2.1195 H   0  0  0  0  0  0  0  0  0  0  0  0
    1.8848    1.4356    1.4895 H   0  0  0  0  0  0  0  0  0  0  0  0
   -0.8064    1.1568    0.7414 C   0  0  0  0  0  0  0  0  0  0  0  0
   -1.6978    1.8100    0.2029 O   0  0  0  0  0  0  0  0  0  0  0  0
    0.0314    1.6872    1.6415 N   0  0  0  0  0  0  0  0  0  0  0  0
    0.7279    1.0858    2.0517 H   0  0  0  0  0  0  0  0  0  0  0  0
   -0.0137    3.0826    2.0755 C   0  0  0  0  0  0  0  0  0  0  0  0
   -0.9991    3.3070    2.4905 H   0  0  0  0  0  0  0  0  0  0  0  0
    0.7468    3.2694    2.8349 H   0  0  0  0  0  0  0  0  0  0  0  0
    0.1592    3.7397    1.2213 H   0  0  0  0  0  0  0  0  0  0  0  0
  5  6  2  0  0  0  0
  5  7  1  0  0  0  0
  2  3  1  0  0  0  0
  2  4  1  0  0  0  0
  2  5  1  0  0  0  0
  1  2  1  0  0  0  0
 22 23  2  0  0  0  0
 22 24  1  0  0  0  0
 18 19  1  0  0  0  0
 18 20  1  0  0  0  0
 18 21  1  0  0  0  0
 17 18  1  0  0  0  0
 14 15  1  0  0  0  0
 14 16  1  0  0  0  0
 14 17  1  0  0  0  0
 11 12  1  0  0  0  0
 11 13  1  0  0  0  0
 11 14  1  0  0  0  0
  9 10  1  0  0  0  0
  9 11  1  0  0  0  0
  9 22  1  0  0  0  0
  7  8  1  0  0  0  0
  7  9  1  0  0  0  0
 26 27  1  0  0  0  0
 26 28  1  0  0  0  0
 26 29  1  0  0  0  0
 24 25  1  0  0  0  0
 24 26  1  0  0  0  0
M  END
$$$$
default_name
  -OEChem-02102213163D

 29 28  0     1  0  0  0  0  0999 V2000
   -3.5781   -3.7296    1.2702 H   0  0  0  0  0  0  0  0  0  0  0  0
   -3.5311   -2.7616    0.7732 C   0  0  0  0  0  0  0  0  0  0  0  0
   -4.2371   -2.0766    1.2382 H   0  0  0  0  0  0  0  0  0  0  0  0
   -3.7681   -2.8816   -0.2818 H   0  0  0  0  0  0  0  0  0  0  0  0
   -2.1321   -2.2086    0.9112 C   0  0  0  0  0  0  0  0  0  0  0  0
   -1.2751   -2.8426    1.5112 O   0  0  0  0  0  0  0  0  0  0  0  0
   -1.9041   -1.0186    0.3602 N   0  0  0  0  0  0  0  0  0  0  0  0
   -2.6671   -0.5416   -0.0988 H   0  0  0  0  0  0  0  0  0  0  0  0
   -0.6131   -0.3236    0.3832 C   0  0  1  0  0  0  0  0  0  0  0  0
    0.0142   -0.7800    1.1506 H   0  0  0  0  0  0  0  0  0  0  0  0
    0.0816   -0.5059   -0.9788 C   0  0  0  0  0  0  0  0  0  0  0  0
    0.4633   -1.5269   -1.0444 H   0  0  0  0  0  0  0  0  0  0  0  0
   -0.6483   -0.3629   -1.7770 H   0  0  0  0  0  0  0  0  0  0  0  0
    1.2499    0.4607   -1.2046 C   0  0  0  0  0  0  0  0  0  0  0  0
    1.3344    0.6769   -2.2692 H   0  0  0  0  0  0  0  0  0  0  0  0
    1.0430    1.3904   -0.6733 H   0  0  0  0  0  0  0  0  0  0  0  0
    2.8440   -0.1815   -0.6334 S   0  0  0  0  0  0  0  0  0  0  0  0
    2.5641   -0.1578    1.1562 C   0  0  0  0  0  0  0  0  0  0  0  0
    1.7184   -0.7997    1.4046 H   0  0  0  0  0  0  0  0  0  0  0  0
    3.4553   -0.5247    1.6663 H   0  0  0  0  0  0  0  0  0  0  0  0
    2.3582    0.8619    1.4829 H   0  0  0  0  0  0  0  0  0  0  0  0
   -0.8064    1.1568    0.7414 C   0  0  0  0  0  0  0  0  0  0  0  0
   -1.6978    1.8100    0.2029 O   0  0  0  0  0  0  0  0  0  0  0  0
    0.0314    1.6872    1.6415 N   0  0  0  0  0  0  0  0  0  0  0  0
    0.7279    1.0858    2.0517 H   0  0  0  0  0  0  0  0  0  0  0  0
   -0.0137    3.0826    2.0755 C   0  0  0  0  0  0  0  0  0  0  0  0
   -0.9991    3.3070    2.4905 H   0  0  0  0  0  0  0  0  0  0  0  0
    0.7468    3.2694    2.8349 H   0  0  0  0  0  0  0  0  0  0  0  0
    0.1592    3.7397    1.2213 H   0  0  0  0  0  0  0  0  0  0  0  0
  5  6  2  0  0  0  0
  5  7  1  0  0  0  0
  2  3  1  0  0  0  0
  2  4  1  0  0  0  0
  2  5  1  0  0  0  0
  1  2  1  0  0  0  0
 22 23  2  0  0  0  0
 22 24  1  0  0  0  0
 18 19  1  0  0  0  0
 18 20  1  0  0  0  0
 18 21  1  0  0  0  0
 17 18  1  0  0  0  0
 14 15  1  0  0  0  0
 14 16  1  0  0  0  0
 14 17  1  0  0  0  0
 11 12  1  0  0  0  0
 11 13  1  0  0  0  0
 11 14  1  0  0  0  0
  9 10  1  0  0  0  0
  9 11  1  0  0  0  0
  9 22  1  0  0  0  0
  7  8  1  0  0  0  0
  7  9  1  0  0  0  0
 26 27  1  0  0  0  0
 26 28  1  0  0  0  0
 26 29  1  0  0  0  0
 24 25  1  0  0  0  0
 24 26  1  0  0  0  0
M  END
$$$$
default_name
  -OEChem-02102213163D

 29 28  0     1  0  0  0  0  0999 V2000
   -3.5781   -3.7296    1.2702 H   0  0  0  0  0  0  0  0  0  0  0  0
   -3.5311   -2.7616    0.7732 C   0  0  0  0  0  0  0  0  0  0  0  0
   -4.2371   -2.0766    1.2382 H   0  0  0  0  0  0  0  0  0  0  0  0
   -3.7681   -2.8816   -0.2818 H   0  0  0  0  0  0  0  0  0  0  0  0
   -2.1321   -2.2086    0.9112 C   0  0  0  0  0  0  0  0  0  0  0  0
   -1.2751   -2.8426    1.5112 O   0  0  0  0  0  0  0  0  0  0  0  0
   -1.9041   -1.0186    0.3602 N   0  0  0  0  0  0  0  0  0  0  0  0
   -2.6671   -0.5416   -0.0988 H   0  0  0  0  0  0  0  0  0  0  0  0
   -0.6131   -0.3236    0.3832 C   0  0  1  0  0  0  0  0  0  0  0  0
    0.0142   -0.7800    1.1506 H   0  0  0  0  0  0  0  0  0  0  0  0
    0.0816   -0.5059   -0.9788 C   0  0  0  0  0  0  0  0  0  0  0  0
    0.4633   -1.5269   -1.0444 H   0  0  0  0  0  0  0  0  0  0  0  0
   -0.6483   -0.3629   -1.7770 H   0  0  0  0  0  0  0  0  0  0  0  0
    1.2499    0.4607   -1.2046 C   0  0  0  0  0  0  0  0  0  0  0  0
    1.1753    0.8840   -2.2058 H   0  0  0  0  0  0  0  0  0  0  0  0
    1.1813    1.2694   -0.4760 H   0  0  0  0  0  0  0  0  0  0  0  0
    2.8773   -0.3174   -1.0433 S   0  0  0  0  0  0  0  0  0  0  0  0
    2.8879   -0.6468    0.7380 C   0  0  0  0  0  0  0  0  0  0  0  0
    2.0588   -1.3069    0.9948 H   0  0  0  0  0  0  0  0  0  0  0  0
    3.8276   -1.1278    1.0110 H   0  0  0  0  0  0  0  0  0  0  0  0
    2.7925    0.2910    1.2861 H   0  0  0  0  0  0  0  0  0  0  0  0
   -0.8064    1.1568    0.7414 C   0  0  0  0  0  0  0  0  0  0  0  0
   -1.6978    1.8100    0.2029 O   0  0  0  0  0  0  0  0  0  0  0  0
    0.0314    1.6872    1.6415 N   0  0  0  0  0  0  0  0  0  0  0  0
    0.7279    1.0858    2.0517 H   0  0  0  0  0  0  0  0  0  0  0  0
   -0.0137    3.0826    2.0755 C   0  0  0  0  0  0  0  0  0  0  0  0
   -0.9991    3.3070    2.4905 H   0  0  0  0  0  0  0  0  0  0  0  0
    0.7468    3.2694    2.8349 H   0  0  0  0  0  0  0  0  0  0  0  0
    0.1592    3.7397    1.2213 H   0  0  0  0  0  0  0  0  0  0  0  0
  5  6  2  0  0  0  0
  5  7  1  0  0  0  0
  2  3  1  0  0  0  0
  2  4  1  0  0  0  0
  2  5  1  0  0  0  0
  1  2  1  0  0  0  0
 22 23  2  0  0  0  0
 22 24  1  0  0  0  0
 18 19  1  0  0  0  0
 18 20  1  0  0  0  0
 18 21  1  0  0  0  0
 17 18  1  0  0  0  0
 14 15  1  0  0  0  0
 14 16  1  0  0  0  0
 14 17  1  0  0  0  0
 11 12  1  0  0  0  0
 11 13  1  0  0  0  0
 11 14  1  0  0  0  0
  9 10  1  0  0  0  0
  9 11  1  0  0  0  0
  9 22  1  0  0  0  0
  7  8  1  0  0  0  0
  7  9  1  0  0  0  0
 26 27  1  0  0  0  0
 26 28  1  0  0  0  0
 26 29  1  0  0  0  0
 24 25  1  0  0  0  0
 24 26  1  0  0  0  0
M  END
$$$$
default_name
  -OEChem-02102213163D

 29 28  0     1  0  0  0  0  0999 V2000
   -3.5781   -3.7296    1.2702 H   0  0  0  0  0  0  0  0  0  0  0  0
   -3.5311   -2.7616    0.7732 C   0  0  0  0  0  0  0  0  0  0  0  0
   -4.2371   -2.0766    1.2382 H   0  0  0  0  0  0  0  0  0  0  0  0
   -3.7681   -2.8816   -0.2818 H   0  0  0  0  0  0  0  0  0  0  0  0
   -2.1321   -2.2086    0.9112 C   0  0  0  0  0  0  0  0  0  0  0  0
   -1.2751   -2.8426    1.5112 O   0  0  0  0  0  0  0  0  0  0  0  0
   -1.9041   -1.0186    0.3602 N   0  0  0  0  0  0  0  0  0  0  0  0
   -2.6671   -0.5416   -0.0988 H   0  0  0  0  0  0  0  0  0  0  0  0
   -0.6131   -0.3236    0.3832 C   0  0  1  0  0  0  0  0  0  0  0  0
    0.0142   -0.7800    1.1506 H   0  0  0  0  0  0  0  0  0  0  0  0
    0.0816   -0.5059   -0.9788 C   0  0  0  0  0  0  0  0  0  0  0  0
    0.4633   -1.5269   -1.0444 H   0  0  0  0  0  0  0  0  0  0  0  0
   -0.6483   -0.3629   -1.7770 H   0  0  0  0  0  0  0  0  0  0  0  0
    1.2499    0.4607   -1.2046 C   0  0  0  0  0  0  0  0  0  0  0  0
    1.0399    1.0775   -2.0778 H   0  0  0  0  0  0  0  0  0  0  0  0
    1.3424    1.1082   -0.3319 H   0  0  0  0  0  0  0  0  0  0  0  0
    2.8373   -0.3691   -1.4715 S   0  0  0  0  0  0  0  0  0  0  0  0
    3.1137   -1.0490    0.1848 C   0  0  0  0  0  0  0  0  0  0  0  0
    2.3015   -1.7290    0.4433 H   0  0  0  0  0  0  0  0  0  0  0  0
    4.0573   -1.5952    0.1984 H   0  0  0  0  0  0  0  0  0  0  0  0
    3.1581   -0.2382    0.9125 H   0  0  0  0  0  0  0  0  0  0  0  0
   -0.8064    1.1568    0.7414 C   0  0  0  0  0  0  0  0  0  0  0  0
   -1.6978    1.8100    0.2029 O   0  0  0  0  0  0  0  0  0  0  0  0
    0.0314    1.6872    1.6415 N   0  0  0  0  0  0  0  0  0  0  0  0
    0.7279    1.0858    2.0517 H   0  0  0  0  0  0  0  0  0  0  0  0
   -0.0137    3.0826    2.0755 C   0  0  0  0  0  0  0  0  0  0  0  0
   -0.9991    3.3070    2.4905 H   0  0  0  0  0  0  0  0  0  0  0  0
    0.7468    3.2694    2.8349 H   0  0  0  0  0  0  0  0  0  0  0  0
    0.1592    3.7397    1.2213 H   0  0  0  0  0  0  0  0  0  0  0  0
  5  6  2  0  0  0  0
  5  7  1  0  0  0  0
  2  3  1  0  0  0  0
  2  4  1  0  0  0  0
  2  5  1  0  0  0  0
  1  2  1  0  0  0  0
 22 23  2  0  0  0  0
 22 24  1  0  0  0  0
 18 19  1  0  0  0  0
 18 20  1  0  0  0  0
 18 21  1  0  0  0  0
 17 18  1  0  0  0  0
 14 15  1  0  0  0  0
 14 16  1  0  0  0  0
 14 17  1  0  0  0  0
 11 12  1  0  0  0  0
 11 13  1  0  0  0  0
 11 14  1  0  0  0  0
  9 10  1  0  0  0  0
  9 11  1  0  0  0  0
  9 22  1  0  0  0  0
  7  8  1  0  0  0  0
  7  9  1  0  0  0  0
 26 27  1  0  0  0  0
 26 28  1  0  0  0  0
 26 29  1  0  0  0  0
 24 25  1  0  0  0  0
 24 26  1  0  0  0  0
M  END
$$$$
default_name
  -OEChem-02102213163D

 29 28  0     1  0  0  0  0  0999 V2000
   -3.5781   -3.7296    1.2702 H   0  0  0  0  0  0  0  0  0  0  0  0
   -3.5311   -2.7616    0.7732 C   0  0  0  0  0  0  0  0  0  0  0  0
   -4.2371   -2.0766    1.2382 H   0  0  0  0  0  0  0  0  0  0  0  0
   -3.7681   -2.8816   -0.2818 H   0  0  0  0  0  0  0  0  0  0  0  0
   -2.1321   -2.2086    0.9112 C   0  0  0  0  0  0  0  0  0  0  0  0
   -1.2751   -2.8426    1.5112 O   0  0  0  0  0  0  0  0  0  0  0  0
   -1.9041   -1.0186    0.3602 N   0  0  0  0  0  0  0  0  0  0  0  0
   -2.6671   -0.5416   -0.0988 H   0  0  0  0  0  0  0  0  0  0  0  0
   -0.6131   -0.3236    0.3832 C   0  0  1  0  0  0  0  0  0  0  0  0
    0.0142   -0.7800    1.1506 H   0  0  0  0  0  0  0  0  0  0  0  0
    0.0816   -0.5059   -0.9788 C   0  0  0  0  0  0  0  0  0  0  0  0
    0.4633   -1.5269   -1.0444 H   0  0  0  0  0  0  0  0  0  0  0  0
   -0.6483   -0.3629   -1.7770 H   0  0  0  0  0  0  0  0  0  0  0  0
    1.2499    0.4607   -1.2046 C   0  0  0  0  0  0  0  0  0  0  0  0
    0.9373    1.2444   -1.8939 H   0  0  0  0  0  0  0  0  0  0  0  0
    1.5155    0.9181   -0.2508 H   0  0  0  0  0  0  0  0  0  0  0  0
    2.7269   -0.3331   -1.8888 S   0  0  0  0  0  0  0  0  0  0  0  0
    3.2262   -1.3369   -0.4658 C   0  0  0  0  0  0  0  0  0  0  0  0
    2.4298   -2.0371   -0.2122 H   0  0  0  0  0  0  0  0  0  0  0  0
    4.1287   -1.8952   -0.7163 H   0  0  0  0  0  0  0  0  0  0  0  0
    3.4301   -0.6896    0.3876 H   0  0  0  0  0  0  0  0  0  0  0  0
   -0.8064    1.1568    0.7414 C   0  0  0  0  0  0  0  0  0  0  0  0
   -1.6978    1.8100    0.2029 O   0  0  0  0  0  0  0  0  0  0  0  0
    0.0314    1.6872    1.6415 N   0  0  0  0  0  0  0  0  0  0  0  0
    0.7279    1.0858    2.0517 H   0  0  0  0  0  0  0  0  0  0  0  0
   -0.0137    3.0826    2.0755 C   0  0  0  0  0  0  0  0  0  0  0  0
   -0.9991    3.3070    2.4905 H   0  0  0  0  0  0  0  0  0  0  0  0
    0.7468    3.2694    2.8349 H   0  0  0  0  0  0  0  0  0  0  0  0
    0.1592    3.7397    1.2213 H   0  0  0  0  0  0  0  0  0  0  0  0
  5  6  2  0  0  0  0
  5  7  1  0  0  0  0
  2  3  1  0  0  0  0
  2  4  1  0  0  0  0
  2  5  1  0  0  0  0
  1  2  1  0  0  0  0
 22 23  2  0  0  0  0
 22 24  1  0  0  0  0
 18 19  1  0  0  0  0
 18 20  1  0  0  0  0
 18 21  1  0  0  0  0
 17 18  1  0  0  0  0
 14 15  1  0  0  0  0
 14 16  1  0  0  0  0
 14 17  1  0  0  0  0
 11 12  1  0  0  0  0
 11 13  1  0  0  0  0
 11 14  1  0  0  0  0
  9 10  1  0  0  0  0
  9 11  1  0  0  0  0
  9 22  1  0  0  0  0
  7  8  1  0  0  0  0
  7  9  1  0  0  0  0
 26 27  1  0  0  0  0
 26 28  1  0  0  0  0
 26 29  1  0  0  0  0
 24 25  1  0  0  0  0
 24 26  1  0  0  0  0
M  END
$$$$
default_name
  -OEChem-02102213163D

 29 28  0     1  0  0  0  0  0999 V2000
   -3.5781   -3.7296    1.2702 H   0  0  0  0  0  0  0  0  0  0  0  0
   -3.5311   -2.7616    0.7732 C   0  0  0  0  0  0  0  0  0  0  0  0
   -4.2371   -2.0766    1.2382 H   0  0  0  0  0  0  0  0  0  0  0  0
   -3.7681   -2.8816   -0.2818 H   0  0  0  0  0  0  0  0  0  0  0  0
   -2.1321   -2.2086    0.9112 C   0  0  0  0  0  0  0  0  0  0  0  0
   -1.2751   -2.8426    1.5112 O   0  0  0  0  0  0  0  0  0  0  0  0
   -1.9041   -1.0186    0.3602 N   0  0  0  0  0  0  0  0  0  0  0  0
   -2.6671   -0.5416   -0.0988 H   0  0  0  0  0  0  0  0  0  0  0  0
   -0.6131   -0.3236    0.3832 C   0  0  1  0  0  0  0  0  0  0  0  0
    0.0142   -0.7800    1.1506 H   0  0  0  0  0  0  0  0  0  0  0  0
    0.0816   -0.5059   -0.9788 C   0  0  0  0  0  0  0  0  0  0  0  0
    0.4633   -1.5269   -1.0444 H   0  0  0  0  0  0  0  0  0  0  0  0
   -0.6483   -0.3629   -1.7770 H   0  0  0  0  0  0  0  0  0  0  0  0
    1.2499    0.4607   -1.2046 C   0  0  0  0  0  0  0  0  0  0  0  0
    0.8746    1.3733   -1.6666 H   0  0  0  0  0  0  0  0  0  0  0  0
    1.6886    0.7117   -0.2382 H   0  0  0  0  0  0  0  0  0  0  0  0
    2.5535   -0.2118   -2.2667 S   0  0  0  0  0  0  0  0  0  0  0  0
    3.2178   -1.4911   -1.1694 C   0  0  0  0  0  0  0  0  0  0  0  0
    2.4350   -2.2104   -0.9271 H   0  0  0  0  0  0  0  0  0  0  0  0
    4.0371   -2.0073   -1.6706 H   0  0  0  0  0  0  0  0  0  0  0  0
    3.5900   -1.0325   -0.2529 H   0  0  0  0  0  0  0  0  0  0  0  0
   -0.8064    1.1568    0.7414 C   0  0  0  0  0  0  0  0  0  0  0  0
   -1.6978    1.8100    0.2029 O   0  0  0  0  0  0  0  0  0  0  0  0
    0.0314    1.6872    1.6415 N   0  0  0  0  0  0  0  0  0  0  0  0
    0.7279    1.0858    2.0517 H   0  0  0  0  0  0  0  0  0  0  0  0
   -0.0137    3.0826    2.0755 C   0  0  0  0  0  0  0  0  0  0  0  0
   -0.9991    3.3070    2.4905 H   0  0  0  0  0  0  0  0  0  0  0  0
    0.7468    3.2694    2.8349 H   0  0  0  0  0  0  0  0  0  0  0  0
    0.1592    3.7397    1.2213 H   0  0  0  0  0  0  0  0  0  0  0  0
  5  6  2  0  0  0  0
  5  7  1  0  0  0  0
  2  3  1  0  0  0  0
  2  4  1  0  0  0  0
  2  5  1  0  0  0  0
  1  2  1  0  0  0  0
 22 23  2  0  0  0  0
 22 24  1  0  0  0  0
 18 19  1  0  0  0  0
 18 20  1  0  0  0  0
 18 21  1  0  0  0  0
 17 18  1  0  0  0  0
 14 15  1  0  0  0  0
 14 16  1  0  0  0  0
 14 17  1  0  0  0  0
 11 12  1  0  0  0  0
 11 13  1  0  0  0  0
 11 14  1  0  0  0  0
  9 10  1  0  0  0  0
  9 11  1  0  0  0  0
  9 22  1  0  0  0  0
  7  8  1  0  0  0  0
  7  9  1  0  0  0  0
 26 27  1  0  0  0  0
 26 28  1  0  0  0  0
 26 29  1  0  0  0  0
 24 25  1  0  0  0  0
 24 26  1  0  0  0  0
M  END
$$$$
default_name
  -OEChem-02102213163D

 29 28  0     1  0  0  0  0  0999 V2000
   -3.5781   -3.7296    1.2702 H   0  0  0  0  0  0  0  0  0  0  0  0
   -3.5311   -2.7616    0.7732 C   0  0  0  0  0  0  0  0  0  0  0  0
   -4.2371   -2.0766    1.2382 H   0  0  0  0  0  0  0  0  0  0  0  0
   -3.7681   -2.8816   -0.2818 H   0  0  0  0  0  0  0  0  0  0  0  0
   -2.1321   -2.2086    0.9112 C   0  0  0  0  0  0  0  0  0  0  0  0
   -1.2751   -2.8426    1.5112 O   0  0  0  0  0  0  0  0  0  0  0  0
   -1.9041   -1.0186    0.3602 N   0  0  0  0  0  0  0  0  0  0  0  0
   -2.6671   -0.5416   -0.0988 H   0  0  0  0  0  0  0  0  0  0  0  0
   -0.6131   -0.3236    0.3832 C   0  0  1  0  0  0  0  0  0  0  0  0
    0.0142   -0.7800    1.1506 H   0  0  0  0  0  0  0  0  0  0  0  0
    0.0816   -0.5059   -0.9788 C   0  0  0  0  0  0  0  0  0  0  0  0
    0.4633   -1.5269   -1.0444 H   0  0  0  0  0  0  0  0  0  0  0  0
   -0.6483   -0.3629   -1.7770 H   0  0  0  0  0  0  0  0  0  0  0  0
    1.2499    0.4607   -1.2046 C   0  0  0  0  0  0  0  0  0  0  0  0
    0.8561    1.4553   -1.4114 H   0  0  0  0  0  0  0  0  0  0  0  0
    1.8500    0.5034   -0.2949 H   0  0  0  0  0  0  0  0  0  0  0  0
    2.3290   -0.0135   -2.5795 S   0  0  0  0  0  0  0  0  0  0  0  0
    3.0890   -1.5008   -1.8780 C   0  0  0  0  0  0  0  0  0  0  0  0
    2.3167   -2.2369   -1.6527 H   0  0  0  0  0  0  0  0  0  0  0  0
    3.7885   -1.9238   -2.5995 H   0  0  0  0  0  0  0  0  0  0  0  0
    3.6269   -1.2435   -0.9652 H   0  0  0  0  0  0  0  0  0  0  0  0
   -0.8064    1.1568    0.7414 C   0  0  0  0  0  0  0  0  0  0  0  0
   -1.6978    1.8100    0.2029 O   0  0  0  0  0  0  0  0  0  0  0  0
    0.0314    1.6872    1.6415 N   0  0  0  0  0  0  0  0  0  0  0  0
    0.7279    1.0858    2.0517 H   0  0  0  0  0  0  0  0  0  0  0  0
   -0.0137    3.0826    2.0755 C   0  0  0  0  0  0  0  0  0  0  0  0
   -0.9991    3.3070    2.4905 H   0  0  0  0  0  0  0  0  0  0  0  0
    0.7468    3.2694    2.8349 H   0  0  0  0  0  0  0  0  0  0  0  0
    0.1592    3.7397    1.2213 H   0  0  0  0  0  0  0  0  0  0  0  0
  5  6  2  0  0  0  0
  5  7  1  0  0  0  0
  2  3  1  0  0  0  0
  2  4  1  0  0  0  0
  2  5  1  0  0  0  0
  1  2  1  0  0  0  0
 22 23  2  0  0  0  0
 22 24  1  0  0  0  0
 18 19  1  0  0  0  0
 18 20  1  0  0  0  0
 18 21  1  0  0  0  0
 17 18  1  0  0  0  0
 14 15  1  0  0  0  0
 14 16  1  0  0  0  0
 14 17  1  0  0  0  0
 11 12  1  0  0  0  0
 11 13  1  0  0  0  0
 11 14  1  0  0  0  0
  9 10  1  0  0  0  0
  9 11  1  0  0  0  0
  9 22  1  0  0  0  0
  7  8  1  0  0  0  0
  7  9  1  0  0  0  0
 26 27  1  0  0  0  0
 26 28  1  0  0  0  0
 26 29  1  0  0  0  0
 24 25  1  0  0  0  0
 24 26  1  0  0  0  0
M  END
$$$$
