
  -OEChem-02102214153D

 29 28  0     1  0  0  0  0  0999 V2000
   -3.3526   -3.4154    1.2762 H   0  0  0  0  0  0  0  0  0  0  0  0
   -3.3059   -2.4433    0.7774 C   0  0  0  0  0  0  0  0  0  0  0  0
   -3.9780   -1.7514    1.2911 H   0  0  0  0  0  0  0  0  0  0  0  0
   -3.6368   -2.5619   -0.2573 H   0  0  0  0  0  0  0  0  0  0  0  0
   -1.8871   -1.9071    0.8084 C   0  0  0  0  0  0  0  0  0  0  0  0
   -0.9949   -2.5634    1.3221 O   0  0  0  0  0  0  0  0  0  0  0  0
   -1.6079   -0.6743    0.2577 N   0  0  0  0  0  0  0  0  0  0  0  0
   -2.3942   -0.1212   -0.0805 H   0  0  0  0  0  0  0  0  0  0  0  0
   -0.3026   -0.0036    0.3258 C   0  0  1  0  0  0  0  0  0  0  0  0
    0.3192   -0.4605    1.1028 H   0  0  0  0  0  0  0  0  0  0  0  0
    0.3889   -0.1833   -1.0359 C   0  0  0  0  0  0  0  0  0  0  0  0
    0.4894   -1.2537   -1.2378 H   0  0  0  0  0  0  0  0  0  0  0  0
   -0.2399    0.2471   -1.8227 H   0  0  0  0  0  0  0  0  0  0  0  0
    1.7719    0.4775   -1.0894 C   0  0  0  0  0  0  0  0  0  0  0  0
    1.6815    1.5542   -0.9135 H   0  0  0  0  0  0  0  0  0  0  0  0
    2.4210    0.0593   -0.3134 H   0  0  0  0  0  0  0  0  0  0  0  0
    2.5405    0.2248   -2.7398 S   0  0  0  0  0  0  0  0  0  0  0  0
    2.9724   -1.5613   -2.7363 C   0  0  0  0  0  0  0  0  0  0  0  0
    2.0698   -2.1759   -2.6805 H   0  0  0  0  0  0  0  0  0  0  0  0
    3.5089   -1.8166   -3.6549 H   0  0  0  0  0  0  0  0  0  0  0  0
    3.6127   -1.7960   -1.8810 H   0  0  0  0  0  0  0  0  0  0  0  0
   -0.4909    1.4824    0.6947 C   0  0  0  0  0  0  0  0  0  0  0  0
   -1.3914    2.1305    0.1742 O   0  0  0  0  0  0  0  0  0  0  0  0
    0.3149    2.0793    1.6469 N   0  0  0  0  0  0  0  0  0  0  0  0
    1.0022    1.4963    2.1158 H   0  0  0  0  0  0  0  0  0  0  0  0
    0.1524    3.4628    2.0770 C   0  0  0  0  0  0  0  0  0  0  0  0
   -0.8425    3.6165    2.5080 H   0  0  0  0  0  0  0  0  0  0  0  0
    0.9005    3.7133    2.8353 H   0  0  0  0  0  0  0  0  0  0  0  0
    0.2783    4.1449    1.2295 H   0  0  0  0  0  0  0  0  0  0  0  0
  1  2  1  0  0  0  0
  2  3  1  0  0  0  0
  2  4  1  0  0  0  0
  2  5  1  0  0  0  0
  5  6  2  0  0  0  0
  5  7  1  0  0  0  0
  7  8  1  0  0  0  0
  7  9  1  0  0  0  0
  9 10  1  0  0  0  0
  9 11  1  0  0  0  0
  9 22  1  0  0  0  0
 11 12  1  0  0  0  0
 11 13  1  0  0  0  0
 11 14  1  0  0  0  0
 14 15  1  0  0  0  0
 14 16  1  0  0  0  0
 14 17  1  0  0  0  0
 17 18  1  0  0  0  0
 18 19  1  0  0  0  0
 18 20  1  0  0  0  0
 18 21  1  0  0  0  0
 22 23  2  0  0  0  0
 22 24  1  0  0  0  0
 24 25  1  0  0  0  0
 24 26  1  0  0  0  0
 26 27  1  0  0  0  0
 26 28  1  0  0  0  0
 26 29  1  0  0  0  0
M  END
$$$$

  -OEChem-02102214153D

 29 28  0     1  0  0  0  0  0999 V2000
   -3.3235   -3.4170    1.2387 H   0  0  0  0  0  0  0  0  0  0  0  0
   -3.2762   -2.4377    0.7546 C   0  0  0  0  0  0  0  0  0  0  0  0
   -3.9446   -1.7521    1.2811 H   0  0  0  0  0  0  0  0  0  0  0  0
   -3.6110   -2.5395   -0.2806 H   0  0  0  0  0  0  0  0  0  0  0  0
   -1.8561   -1.9057    0.7894 C   0  0  0  0  0  0  0  0  0  0  0  0
   -0.9676   -2.5633    1.3079 O   0  0  0  0  0  0  0  0  0  0  0  0
   -1.5725   -0.6732    0.2407 N   0  0  0  0  0  0  0  0  0  0  0  0
   -2.3571   -0.1173   -0.0976 H   0  0  0  0  0  0  0  0  0  0  0  0
   -0.2701    0.0011    0.3284 C   0  0  1  0  0  0  0  0  0  0  0  0
    0.3402   -0.4502    1.1174 H   0  0  0  0  0  0  0  0  0  0  0  0
    0.4440   -0.1878   -1.0216 C   0  0  0  0  0  0  0  0  0  0  0  0
    0.5431   -1.2579   -1.2285 H   0  0  0  0  0  0  0  0  0  0  0  0
   -0.1806    0.2476   -1.8091 H   0  0  0  0  0  0  0  0  0  0  0  0
    1.8306    0.4692   -1.0743 C   0  0  0  0  0  0  0  0  0  0  0  0
    1.7914    1.4849   -0.6703 H   0  0  0  0  0  0  0  0  0  0  0  0
    2.5414   -0.1059   -0.4726 H   0  0  0  0  0  0  0  0  0  0  0  0
    2.4196    0.5876   -2.8112 S   0  0  0  0  0  0  0  0  0  0  0  0
    2.6346   -1.1727   -3.2924 C   0  0  0  0  0  0  0  0  0  0  0  0
    1.6700   -1.6882   -3.3004 H   0  0  0  0  0  0  0  0  0  0  0  0
    3.0704   -1.2364   -4.2940 H   0  0  0  0  0  0  0  0  0  0  0  0
    3.3007   -1.6801   -2.5883 H   0  0  0  0  0  0  0  0  0  0  0  0
   -0.4792    1.4864    0.6923 C   0  0  0  0  0  0  0  0  0  0  0  0
   -1.3876    2.1210    0.1688 O   0  0  0  0  0  0  0  0  0  0  0  0
    0.3042    2.0919    1.6578 N   0  0  0  0  0  0  0  0  0  0  0  0
    0.9940    1.5177    2.1341 H   0  0  0  0  0  0  0  0  0  0  0  0
    0.1081    3.4681    2.0972 C   0  0  0  0  0  0  0  0  0  0  0  0
   -0.8896    3.5936    2.5310 H   0  0  0  0  0  0  0  0  0  0  0  0
    0.8512    3.7324    2.8557 H   0  0  0  0  0  0  0  0  0  0  0  0
    0.2152    4.1588    1.2541 H   0  0  0  0  0  0  0  0  0  0  0  0
  1  2  1  0  0  0  0
  2  3  1  0  0  0  0
  2  4  1  0  0  0  0
  2  5  1  0  0  0  0
  5  6  2  0  0  0  0
  5  7  1  0  0  0  0
  7  8  1  0  0  0  0
  7  9  1  0  0  0  0
  9 10  1  0  0  0  0
  9 11  1  0  0  0  0
  9 22  1  0  0  0  0
 11 12  1  0  0  0  0
 11 13  1  0  0  0  0
 11 14  1  0  0  0  0
 14 15  1  0  0  0  0
 14 16  1  0  0  0  0
 14 17  1  0  0  0  0
 17 18  1  0  0  0  0
 18 19  1  0  0  0  0
 18 20  1  0  0  0  0
 18 21  1  0  0  0  0
 22 23  2  0  0  0  0
 22 24  1  0  0  0  0
 24 25  1  0  0  0  0
 24 26  1  0  0  0  0
 26 27  1  0  0  0  0
 26 28  1  0  0  0  0
 26 29  1  0  0  0  0
M  END
$$$$

  -OEChem-02102214153D

 29 28  0     1  0  0  0  0  0999 V2000
   -3.3276   -3.4066    1.2195 H   0  0  0  0  0  0  0  0  0  0  0  0
   -3.2730   -2.4267    0.7368 C   0  0  0  0  0  0  0  0  0  0  0  0
   -3.9370   -1.7368    1.2634 H   0  0  0  0  0  0  0  0  0  0  0  0
   -3.6075   -2.5247   -0.2987 H   0  0  0  0  0  0  0  0  0  0  0  0
   -1.8494   -1.9044    0.7744 C   0  0  0  0  0  0  0  0  0  0  0  0
   -0.9674   -2.5669    1.2975 O   0  0  0  0  0  0  0  0  0  0  0  0
   -1.5556   -0.6738    0.2269 N   0  0  0  0  0  0  0  0  0  0  0  0
   -2.3355   -0.1108   -0.1109 H   0  0  0  0  0  0  0  0  0  0  0  0
   -0.2515   -0.0046    0.3290 C   0  0  1  0  0  0  0  0  0  0  0  0
    0.3494   -0.4555    1.1257 H   0  0  0  0  0  0  0  0  0  0  0  0
    0.4747   -0.1986   -1.0146 C   0  0  0  0  0  0  0  0  0  0  0  0
    0.5676   -1.2679   -1.2305 H   0  0  0  0  0  0  0  0  0  0  0  0
   -0.1478    0.2444   -1.7999 H   0  0  0  0  0  0  0  0  0  0  0  0
    1.8683    0.4481   -1.0674 C   0  0  0  0  0  0  0  0  0  0  0  0
    1.9097    1.3428   -0.4408 H   0  0  0  0  0  0  0  0  0  0  0  0
    2.6189   -0.2545   -0.6913 H   0  0  0  0  0  0  0  0  0  0  0  0
    2.2799    0.9628   -2.7831 S   0  0  0  0  0  0  0  0  0  0  0  0
    2.2938   -0.6360   -3.6880 C   0  0  0  0  0  0  0  0  0  0  0  0
    1.2983   -1.0889   -3.6805 H   0  0  0  0  0  0  0  0  0  0  0  0
    2.5947   -0.4746   -4.7273 H   0  0  0  0  0  0  0  0  0  0  0  0
    3.0006   -1.3291   -3.2224 H   0  0  0  0  0  0  0  0  0  0  0  0
   -0.4678    1.4815    0.6883 C   0  0  0  0  0  0  0  0  0  0  0  0
   -1.3804    2.1091    0.1631 O   0  0  0  0  0  0  0  0  0  0  0  0
    0.3013    2.0906    1.6634 N   0  0  0  0  0  0  0  0  0  0  0  0
    0.9932    1.5219    2.1432 H   0  0  0  0  0  0  0  0  0  0  0  0
    0.0917    3.4651    2.1025 C   0  0  0  0  0  0  0  0  0  0  0  0
   -0.9119    3.5839    2.5243 H   0  0  0  0  0  0  0  0  0  0  0  0
    0.8237    3.7330    2.8706 H   0  0  0  0  0  0  0  0  0  0  0  0
    0.2051    4.1576    1.2616 H   0  0  0  0  0  0  0  0  0  0  0  0
  1  2  1  0  0  0  0
  2  3  1  0  0  0  0
  2  4  1  0  0  0  0
  2  5  1  0  0  0  0
  5  6  2  0  0  0  0
  5  7  1  0  0  0  0
  7  8  1  0  0  0  0
  7  9  1  0  0  0  0
  9 10  1  0  0  0  0
  9 11  1  0  0  0  0
  9 22  1  0  0  0  0
 11 12  1  0  0  0  0
 11 13  1  0  0  0  0
 11 14  1  0  0  0  0
 14 15  1  0  0  0  0
 14 16  1  0  0  0  0
 14 17  1  0  0  0  0
 17 18  1  0  0  0  0
 18 19  1  0  0  0  0
 18 20  1  0  0  0  0
 18 21  1  0  0  0  0
 22 23  2  0  0  0  0
 22 24  1  0  0  0  0
 24 25  1  0  0  0  0
 24 26  1  0  0  0  0
 26 27  1  0  0  0  0
 26 28  1  0  0  0  0
 26 29  1  0  0  0  0
M  END
$$$$

  -OEChem-02102214153D

 29 28  0     1  0  0  0  0  0999 V2000
   -3.3566   -3.3960    1.2482 H   0  0  0  0  0  0  0  0  0  0  0  0
   -3.2964   -2.4224    0.7539 C   0  0  0  0  0  0  0  0  0  0  0  0
   -3.9543   -1.7222    1.2744 H   0  0  0  0  0  0  0  0  0  0  0  0
   -3.6344   -2.5302   -0.2794 H   0  0  0  0  0  0  0  0  0  0  0  0
   -1.8689   -1.9100    0.7812 C   0  0  0  0  0  0  0  0  0  0  0  0
   -0.9874   -2.5803    1.2951 O   0  0  0  0  0  0  0  0  0  0  0  0
   -1.5696   -0.6820    0.2311 N   0  0  0  0  0  0  0  0  0  0  0  0
   -2.3482   -0.1108   -0.0958 H   0  0  0  0  0  0  0  0  0  0  0  0
   -0.2606   -0.0213    0.3281 C   0  0  1  0  0  0  0  0  0  0  0  0
    0.3426   -0.4765    1.1205 H   0  0  0  0  0  0  0  0  0  0  0  0
    0.4552   -0.2102   -1.0213 C   0  0  0  0  0  0  0  0  0  0  0  0
    0.5424   -1.2791   -1.2421 H   0  0  0  0  0  0  0  0  0  0  0  0
   -0.1743    0.2350   -1.7996 H   0  0  0  0  0  0  0  0  0  0  0  0
    1.8541    0.4292   -1.0781 C   0  0  0  0  0  0  0  0  0  0  0  0
    2.0016    1.1307   -0.2532 H   0  0  0  0  0  0  0  0  0  0  0  0
    2.6172   -0.3495   -0.9809 H   0  0  0  0  0  0  0  0  0  0  0  0
    2.0970    1.3496   -2.6502 S   0  0  0  0  0  0  0  0  0  0  0  0
    2.0104    0.0161   -3.9111 C   0  0  0  0  0  0  0  0  0  0  0  0
    1.0275   -0.4634   -3.8961 H   0  0  0  0  0  0  0  0  0  0  0  0
    2.1784    0.4333   -4.9084 H   0  0  0  0  0  0  0  0  0  0  0  0
    2.7752   -0.7411   -3.7152 H   0  0  0  0  0  0  0  0  0  0  0  0
   -0.4684    1.4668    0.6867 C   0  0  0  0  0  0  0  0  0  0  0  0
   -1.3839    2.0959    0.1680 O   0  0  0  0  0  0  0  0  0  0  0  0
    0.3057    2.0748    1.6586 N   0  0  0  0  0  0  0  0  0  0  0  0
    1.0089    1.5096    2.1256 H   0  0  0  0  0  0  0  0  0  0  0  0
    0.1157    3.4568    2.0822 C   0  0  0  0  0  0  0  0  0  0  0  0
   -0.8892    3.5969    2.4941 H   0  0  0  0  0  0  0  0  0  0  0  0
    0.8455    3.7198    2.8540 H   0  0  0  0  0  0  0  0  0  0  0  0
    0.2478    4.1387    1.2355 H   0  0  0  0  0  0  0  0  0  0  0  0
  1  2  1  0  0  0  0
  2  3  1  0  0  0  0
  2  4  1  0  0  0  0
  2  5  1  0  0  0  0
  5  6  2  0  0  0  0
  5  7  1  0  0  0  0
  7  8  1  0  0  0  0
  7  9  1  0  0  0  0
  9 10  1  0  0  0  0
  9 11  1  0  0  0  0
  9 22  1  0  0  0  0
 11 12  1  0  0  0  0
 11 13  1  0  0  0  0
 11 14  1  0  0  0  0
 14 15  1  0  0  0  0
 14 16  1  0  0  0  0
 14 17  1  0  0  0  0
 17 18  1  0  0  0  0
 18 19  1  0  0  0  0
 18 20  1  0  0  0  0
 18 21  1  0  0  0  0
 22 23  2  0  0  0  0
 22 24  1  0  0  0  0
 24 25  1  0  0  0  0
 24 26  1  0  0  0  0
 26 27  1  0  0  0  0
 26 28  1  0  0  0  0
 26 29  1  0  0  0  0
M  END
$$$$

  -OEChem-02102214153D

 29 28  0     1  0  0  0  0  0999 V2000
   -3.3824   -3.4027    1.2950 H   0  0  0  0  0  0  0  0  0  0  0  0
   -3.3203   -2.4360    0.7874 C   0  0  0  0  0  0  0  0  0  0  0  0
   -3.9798   -1.7284    1.2956 H   0  0  0  0  0  0  0  0  0  0  0  0
   -3.6547   -2.5582   -0.2456 H   0  0  0  0  0  0  0  0  0  0  0  0
   -1.8928   -1.9233    0.8107 C   0  0  0  0  0  0  0  0  0  0  0  0
   -1.0090   -2.5941    1.3199 O   0  0  0  0  0  0  0  0  0  0  0  0
   -1.5953   -0.6985    0.2527 N   0  0  0  0  0  0  0  0  0  0  0  0
   -2.3759   -0.1249   -0.0651 H   0  0  0  0  0  0  0  0  0  0  0  0
   -0.2825   -0.0428    0.3281 C   0  0  1  0  0  0  0  0  0  0  0  0
    0.3322   -0.5003    1.1106 H   0  0  0  0  0  0  0  0  0  0  0  0
    0.4118   -0.2206   -1.0326 C   0  0  0  0  0  0  0  0  0  0  0  0
    0.5055   -1.2907   -1.2448 H   0  0  0  0  0  0  0  0  0  0  0  0
   -0.2272    0.2116   -1.8095 H   0  0  0  0  0  0  0  0  0  0  0  0
    1.8099    0.4215   -1.0917 C   0  0  0  0  0  0  0  0  0  0  0  0
    2.0797    0.8696   -0.1316 H   0  0  0  0  0  0  0  0  0  0  0  0
    2.5540   -0.3535   -1.3025 H   0  0  0  0  0  0  0  0  0  0  0  0
    1.9019    1.7093   -2.4000 S   0  0  0  0  0  0  0  0  0  0  0  0
    1.7505    0.7287   -3.9463 C   0  0  0  0  0  0  0  0  0  0  0  0
    0.7915    0.2038   -3.9768 H   0  0  0  0  0  0  0  0  0  0  0  0
    1.8123    1.3906   -4.8152 H   0  0  0  0  0  0  0  0  0  0  0  0
    2.5573   -0.0073   -4.0089 H   0  0  0  0  0  0  0  0  0  0  0  0
   -0.4770    1.4478    0.6848 C   0  0  0  0  0  0  0  0  0  0  0  0
   -1.4056    2.0749    0.1866 O   0  0  0  0  0  0  0  0  0  0  0  0
    0.3142    2.0566    1.6421 N   0  0  0  0  0  0  0  0  0  0  0  0
    1.0380    1.4979    2.0842 H   0  0  0  0  0  0  0  0  0  0  0  0
    0.1565    3.4503    2.0391 C   0  0  0  0  0  0  0  0  0  0  0  0
   -0.8449    3.6223    2.4476 H   0  0  0  0  0  0  0  0  0  0  0  0
    0.8919    3.7109    2.8063 H   0  0  0  0  0  0  0  0  0  0  0  0
    0.3050    4.1120    1.1791 H   0  0  0  0  0  0  0  0  0  0  0  0
  1  2  1  0  0  0  0
  2  3  1  0  0  0  0
  2  4  1  0  0  0  0
  2  5  1  0  0  0  0
  5  6  2  0  0  0  0
  5  7  1  0  0  0  0
  7  8  1  0  0  0  0
  7  9  1  0  0  0  0
  9 10  1  0  0  0  0
  9 11  1  0  0  0  0
  9 22  1  0  0  0  0
 11 12  1  0  0  0  0
 11 13  1  0  0  0  0
 11 14  1  0  0  0  0
 14 15  1  0  0  0  0
 14 16  1  0  0  0  0
 14 17  1  0  0  0  0
 17 18  1  0  0  0  0
 18 19  1  0  0  0  0
 18 20  1  0  0  0  0
 18 21  1  0  0  0  0
 22 23  2  0  0  0  0
 22 24  1  0  0  0  0
 24 25  1  0  0  0  0
 24 26  1  0  0  0  0
 26 27  1  0  0  0  0
 26 28  1  0  0  0  0
 26 29  1  0  0  0  0
M  END
$$$$

  -OEChem-02102214153D

 29 28  0     1  0  0  0  0  0999 V2000
   -3.3824   -3.4145    1.3454 H   0  0  0  0  0  0  0  0  0  0  0  0
   -3.3298   -2.4511    0.8306 C   0  0  0  0  0  0  0  0  0  0  0  0
   -3.9780   -1.7398    1.3483 H   0  0  0  0  0  0  0  0  0  0  0  0
   -3.6861   -2.5793   -0.1943 H   0  0  0  0  0  0  0  0  0  0  0  0
   -1.9013   -1.9406    0.8209 C   0  0  0  0  0  0  0  0  0  0  0  0
   -1.0069   -2.6152    1.3064 O   0  0  0  0  0  0  0  0  0  0  0  0
   -1.6147   -0.7149    0.2591 N   0  0  0  0  0  0  0  0  0  0  0  0
   -2.4021   -0.1377   -0.0344 H   0  0  0  0  0  0  0  0  0  0  0  0
   -0.3026   -0.0563    0.3178 C   0  0  1  0  0  0  0  0  0  0  0  0
    0.3193   -0.5122    1.0951 H   0  0  0  0  0  0  0  0  0  0  0  0
    0.3824   -0.2299   -1.0476 C   0  0  0  0  0  0  0  0  0  0  0  0
    0.4917   -1.3020   -1.2421 H   0  0  0  0  0  0  0  0  0  0  0  0
   -0.2591    0.1810   -1.8330 H   0  0  0  0  0  0  0  0  0  0  0  0
    1.7747    0.4213   -1.1031 C   0  0  0  0  0  0  0  0  0  0  0  0
    2.1571    0.6079   -0.0951 H   0  0  0  0  0  0  0  0  0  0  0  0
    2.4718   -0.2698   -1.5879 H   0  0  0  0  0  0  0  0  0  0  0  0
    1.7582    1.9894   -2.0632 S   0  0  0  0  0  0  0  0  0  0  0  0
    1.4967    1.4237   -3.7921 C   0  0  0  0  0  0  0  0  0  0  0  0
    0.5268    0.9289   -3.8935 H   0  0  0  0  0  0  0  0  0  0  0  0
    1.5211    2.2804   -4.4721 H   0  0  0  0  0  0  0  0  0  0  0  0
    2.2832    0.7222   -4.0853 H   0  0  0  0  0  0  0  0  0  0  0  0
   -0.4924    1.4340    0.6771 C   0  0  0  0  0  0  0  0  0  0  0  0
   -1.4397    2.0546    0.2057 O   0  0  0  0  0  0  0  0  0  0  0  0
    0.3117    2.0427    1.6235 N   0  0  0  0  0  0  0  0  0  0  0  0
    1.0725    1.4987    2.0187 H   0  0  0  0  0  0  0  0  0  0  0  0
    0.1714    3.4421    2.0065 C   0  0  0  0  0  0  0  0  0  0  0  0
   -0.8260    3.6294    2.4180 H   0  0  0  0  0  0  0  0  0  0  0  0
    0.9129    3.7027    2.7677 H   0  0  0  0  0  0  0  0  0  0  0  0
    0.3229    4.0930    1.1387 H   0  0  0  0  0  0  0  0  0  0  0  0
  1  2  1  0  0  0  0
  2  3  1  0  0  0  0
  2  4  1  0  0  0  0
  2  5  1  0  0  0  0
  5  6  2  0  0  0  0
  5  7  1  0  0  0  0
  7  8  1  0  0  0  0
  7  9  1  0  0  0  0
  9 10  1  0  0  0  0
  9 11  1  0  0  0  0
  9 22  1  0  0  0  0
 11 12  1  0  0  0  0
 11 13  1  0  0  0  0
 11 14  1  0  0  0  0
 14 15  1  0  0  0  0
 14 16  1  0  0  0  0
 14 17  1  0  0  0  0
 17 18  1  0  0  0  0
 18 19  1  0  0  0  0
 18 20  1  0  0  0  0
 18 21  1  0  0  0  0
 22 23  2  0  0  0  0
 22 24  1  0  0  0  0
 24 25  1  0  0  0  0
 24 26  1  0  0  0  0
 26 27  1  0  0  0  0
 26 28  1  0  0  0  0
 26 29  1  0  0  0  0
M  END
$$$$

  -OEChem-02102214153D

 29 28  0     1  0  0  0  0  0999 V2000
   -3.3686   -3.4224    1.3504 H   0  0  0  0  0  0  0  0  0  0  0  0
   -3.3221   -2.4586    0.8355 C   0  0  0  0  0  0  0  0  0  0  0  0
   -3.9634   -1.7470    1.3612 H   0  0  0  0  0  0  0  0  0  0  0  0
   -3.6907   -2.5859   -0.1852 H   0  0  0  0  0  0  0  0  0  0  0  0
   -1.8936   -1.9488    0.8085 C   0  0  0  0  0  0  0  0  0  0  0  0
   -0.9929   -2.6267    1.2772 O   0  0  0  0  0  0  0  0  0  0  0  0
   -1.6142   -0.7194    0.2510 N   0  0  0  0  0  0  0  0  0  0  0  0
   -2.4060   -0.1374   -0.0209 H   0  0  0  0  0  0  0  0  0  0  0  0
   -0.3040   -0.0568    0.3120 C   0  0  1  0  0  0  0  0  0  0  0  0
    0.3170   -0.5095    1.0920 H   0  0  0  0  0  0  0  0  0  0  0  0
    0.3863   -0.2359   -1.0512 C   0  0  0  0  0  0  0  0  0  0  0  0
    0.5002   -1.3099   -1.2318 H   0  0  0  0  0  0  0  0  0  0  0  0
   -0.2529    0.1621   -1.8444 H   0  0  0  0  0  0  0  0  0  0  0  0
    1.7779    0.4144   -1.1159 C   0  0  0  0  0  0  0  0  0  0  0  0
    2.2658    0.3578   -0.1380 H   0  0  0  0  0  0  0  0  0  0  0  0
    2.3974   -0.1514   -1.8189 H   0  0  0  0  0  0  0  0  0  0  0  0
    1.7270    2.1631   -1.6868 S   0  0  0  0  0  0  0  0  0  0  0  0
    1.2230    2.0339   -3.4491 C   0  0  0  0  0  0  0  0  0  0  0  0
    0.2022    1.6508   -3.5314 H   0  0  0  0  0  0  0  0  0  0  0  0
    1.2595    3.0209   -3.9200 H   0  0  0  0  0  0  0  0  0  0  0  0
    1.8980    1.3634   -3.9891 H   0  0  0  0  0  0  0  0  0  0  0  0
   -0.5065    1.4296    0.6783 C   0  0  0  0  0  0  0  0  0  0  0  0
   -1.4657    2.0409    0.2175 O   0  0  0  0  0  0  0  0  0  0  0  0
    0.2929    2.0383    1.6283 N   0  0  0  0  0  0  0  0  0  0  0  0
    1.0908    1.5152    1.9757 H   0  0  0  0  0  0  0  0  0  0  0  0
    0.1591    3.4423    1.9952 C   0  0  0  0  0  0  0  0  0  0  0  0
   -0.8418    3.6414    2.3925 H   0  0  0  0  0  0  0  0  0  0  0  0
    0.8930    3.7042    2.7632 H   0  0  0  0  0  0  0  0  0  0  0  0
    0.3269    4.0827    1.1227 H   0  0  0  0  0  0  0  0  0  0  0  0
  1  2  1  0  0  0  0
  2  3  1  0  0  0  0
  2  4  1  0  0  0  0
  2  5  1  0  0  0  0
  5  6  2  0  0  0  0
  5  7  1  0  0  0  0
  7  8  1  0  0  0  0
  7  9  1  0  0  0  0
  9 10  1  0  0  0  0
  9 11  1  0  0  0  0
  9 22  1  0  0  0  0
 11 12  1  0  0  0  0
 11 13  1  0  0  0  0
 11 14  1  0  0  0  0
 14 15  1  0  0  0  0
 14 16  1  0  0  0  0
 14 17  1  0  0  0  0
 17 18  1  0  0  0  0
 18 19  1  0  0  0  0
 18 20  1  0  0  0  0
 18 21  1  0  0  0  0
 22 23  2  0  0  0  0
 22 24  1  0  0  0  0
 24 25  1  0  0  0  0
 24 26  1  0  0  0  0
 26 27  1  0  0  0  0
 26 28  1  0  0  0  0
 26 29  1  0  0  0  0
M  END
$$$$

  -OEChem-02102214153D

 29 28  0     1  0  0  0  0  0999 V2000
   -3.3776   -3.3948    1.2190 H   0  0  0  0  0  0  0  0  0  0  0  0
   -3.3119   -2.4074    0.7536 C   0  0  0  0  0  0  0  0  0  0  0  0
   -3.9409   -1.7111    1.3135 H   0  0  0  0  0  0  0  0  0  0  0  0
   -3.6805   -2.4766   -0.2726 H   0  0  0  0  0  0  0  0  0  0  0  0
   -1.8746   -1.9223    0.7561 C   0  0  0  0  0  0  0  0  0  0  0  0
   -0.9973   -2.6061    1.2594 O   0  0  0  0  0  0  0  0  0  0  0  0
   -1.5631   -0.7040    0.1917 N   0  0  0  0  0  0  0  0  0  0  0  0
   -2.3406   -0.1159   -0.1072 H   0  0  0  0  0  0  0  0  0  0  0  0
   -0.2499   -0.0512    0.2918 C   0  0  1  0  0  0  0  0  0  0  0  0
    0.3396   -0.4904    1.1034 H   0  0  0  0  0  0  0  0  0  0  0  0
    0.4812   -0.2821   -1.0451 C   0  0  0  0  0  0  0  0  0  0  0  0
    0.5798   -1.3635   -1.1874 H   0  0  0  0  0  0  0  0  0  0  0  0
   -0.1330    0.0936   -1.8678 H   0  0  0  0  0  0  0  0  0  0  0  0
    1.8902    0.3321   -1.1271 C   0  0  0  0  0  0  0  0  0  0  0  0
    2.4574    0.0613   -0.2309 H   0  0  0  0  0  0  0  0  0  0  0  0
    2.4044   -0.1167   -1.9833 H   0  0  0  0  0  0  0  0  0  0  0  0
    1.9444    2.1617   -1.3456 S   0  0  0  0  0  0  0  0  0  0  0  0
    0.8110    2.5121   -2.7488 C   0  0  0  0  0  0  0  0  0  0  0  0
   -0.2279    2.3322   -2.4568 H   0  0  0  0  0  0  0  0  0  0  0  0
    0.9056    3.5590   -3.0515 H   0  0  0  0  0  0  0  0  0  0  0  0
    1.0559    1.8763   -3.6044 H   0  0  0  0  0  0  0  0  0  0  0  0
   -0.4735    1.4394    0.6283 C   0  0  0  0  0  0  0  0  0  0  0  0
   -1.4115    2.0404    0.1116 O   0  0  0  0  0  0  0  0  0  0  0  0
    0.2821    2.0684    1.6006 N   0  0  0  0  0  0  0  0  0  0  0  0
    1.0904    1.5683    1.9582 H   0  0  0  0  0  0  0  0  0  0  0  0
    0.1320    3.4804    1.9285 C   0  0  0  0  0  0  0  0  0  0  0  0
   -0.8863    3.6876    2.2739 H   0  0  0  0  0  0  0  0  0  0  0  0
    0.8289    3.7602    2.7242 H   0  0  0  0  0  0  0  0  0  0  0  0
    0.3403    4.1014    1.0507 H   0  0  0  0  0  0  0  0  0  0  0  0
  1  2  1  0  0  0  0
  2  3  1  0  0  0  0
  2  4  1  0  0  0  0
  2  5  1  0  0  0  0
  5  6  2  0  0  0  0
  5  7  1  0  0  0  0
  7  8  1  0  0  0  0
  7  9  1  0  0  0  0
  9 10  1  0  0  0  0
  9 11  1  0  0  0  0
  9 22  1  0  0  0  0
 11 12  1  0  0  0  0
 11 13  1  0  0  0  0
 11 14  1  0  0  0  0
 14 15  1  0  0  0  0
 14 16  1  0  0  0  0
 14 17  1  0  0  0  0
 17 18  1  0  0  0  0
 18 19  1  0  0  0  0
 18 20  1  0  0  0  0
 18 21  1  0  0  0  0
 22 23  2  0  0  0  0
 22 24  1  0  0  0  0
 24 25  1  0  0  0  0
 24 26  1  0  0  0  0
 26 27  1  0  0  0  0
 26 28  1  0  0  0  0
 26 29  1  0  0  0  0
M  END
$$$$

  -OEChem-02102214153D

 29 28  0     1  0  0  0  0  0999 V2000
   -3.3408   -3.4045    1.2744 H   0  0  0  0  0  0  0  0  0  0  0  0
   -3.2917   -2.4333    0.7742 C   0  0  0  0  0  0  0  0  0  0  0  0
   -3.9370   -1.7304    1.3066 H   0  0  0  0  0  0  0  0  0  0  0  0
   -3.6537   -2.5457   -0.2505 H   0  0  0  0  0  0  0  0  0  0  0  0
   -1.8636   -1.9219    0.7649 C   0  0  0  0  0  0  0  0  0  0  0  0
   -0.9643   -2.6096    1.2214 O   0  0  0  0  0  0  0  0  0  0  0  0
   -1.5825   -0.6807    0.2349 N   0  0  0  0  0  0  0  0  0  0  0  0
   -2.3742   -0.0921   -0.0230 H   0  0  0  0  0  0  0  0  0  0  0  0
   -0.2735   -0.0164    0.3234 C   0  0  1  0  0  0  0  0  0  0  0  0
    0.3420   -0.4688    1.1079 H   0  0  0  0  0  0  0  0  0  0  0  0
    0.4167   -0.2330   -1.0427 C   0  0  0  0  0  0  0  0  0  0  0  0
    0.4888   -1.3120   -1.2162 H   0  0  0  0  0  0  0  0  0  0  0  0
   -0.2310    0.1755   -1.8245 H   0  0  0  0  0  0  0  0  0  0  0  0
    1.8257    0.3644   -1.2256 C   0  0  0  0  0  0  0  0  0  0  0  0
    2.4967   -0.1064   -0.4999 H   0  0  0  0  0  0  0  0  0  0  0  0
    2.1865    0.0927   -2.2228 H   0  0  0  0  0  0  0  0  0  0  0  0
    1.9760    2.1895   -1.0426 S   0  0  0  0  0  0  0  0  0  0  0  0
    0.8350    2.8408   -2.3276 C   0  0  0  0  0  0  0  0  0  0  0  0
   -0.1985    2.5627   -2.1028 H   0  0  0  0  0  0  0  0  0  0  0  0
    0.8977    3.9323   -2.3639 H   0  0  0  0  0  0  0  0  0  0  0  0
    1.1017    2.4411   -3.3102 H   0  0  0  0  0  0  0  0  0  0  0  0
   -0.5233    1.4565    0.7186 C   0  0  0  0  0  0  0  0  0  0  0  0
   -1.4861    2.0553    0.2462 O   0  0  0  0  0  0  0  0  0  0  0  0
    0.2409    2.0676    1.6960 N   0  0  0  0  0  0  0  0  0  0  0  0
    1.0821    1.5821    1.9930 H   0  0  0  0  0  0  0  0  0  0  0  0
    0.0789    3.4680    2.0657 C   0  0  0  0  0  0  0  0  0  0  0  0
   -0.9378    3.6546    2.4275 H   0  0  0  0  0  0  0  0  0  0  0  0
    0.7813    3.7322    2.8622 H   0  0  0  0  0  0  0  0  0  0  0  0
    0.2716    4.1157    1.2038 H   0  0  0  0  0  0  0  0  0  0  0  0
  1  2  1  0  0  0  0
  2  3  1  0  0  0  0
  2  4  1  0  0  0  0
  2  5  1  0  0  0  0
  5  6  2  0  0  0  0
  5  7  1  0  0  0  0
  7  8  1  0  0  0  0
  7  9  1  0  0  0  0
  9 10  1  0  0  0  0
  9 11  1  0  0  0  0
  9 22  1  0  0  0  0
 11 12  1  0  0  0  0
 11 13  1  0  0  0  0
 11 14  1  0  0  0  0
 14 15  1  0  0  0  0
 14 16  1  0  0  0  0
 14 17  1  0  0  0  0
 17 18  1  0  0  0  0
 18 19  1  0  0  0  0
 18 20  1  0  0  0  0
 18 21  1  0  0  0  0
 22 23  2  0  0  0  0
 22 24  1  0  0  0  0
 24 25  1  0  0  0  0
 24 26  1  0  0  0  0
 26 27  1  0  0  0  0
 26 28  1  0  0  0  0
 26 29  1  0  0  0  0
M  END
$$$$

  -OEChem-02102214153D

 29 28  0     1  0  0  0  0  0999 V2000
   -3.2999   -3.4569    1.3087 H   0  0  0  0  0  0  0  0  0  0  0  0
   -3.2728   -2.4804    0.8171 C   0  0  0  0  0  0  0  0  0  0  0  0
   -3.9206   -1.7925    1.3658 H   0  0  0  0  0  0  0  0  0  0  0  0
   -3.6482   -2.5885   -0.2033 H   0  0  0  0  0  0  0  0  0  0  0  0
   -1.8524   -1.9481    0.7912 C   0  0  0  0  0  0  0  0  0  0  0  0
   -0.9344   -2.6343    1.2111 O   0  0  0  0  0  0  0  0  0  0  0  0
   -1.5994   -0.6898    0.2878 N   0  0  0  0  0  0  0  0  0  0  0  0
   -2.4042   -0.1054    0.0625 H   0  0  0  0  0  0  0  0  0  0  0  0
   -0.2972   -0.0098    0.3657 C   0  0  1  0  0  0  0  0  0  0  0  0
    0.3479   -0.4701    1.1213 H   0  0  0  0  0  0  0  0  0  0  0  0
    0.3451   -0.1931   -1.0314 C   0  0  0  0  0  0  0  0  0  0  0  0
    0.3968   -1.2662   -1.2449 H   0  0  0  0  0  0  0  0  0  0  0  0
   -0.3395    0.2486   -1.7632 H   0  0  0  0  0  0  0  0  0  0  0  0
    1.7434    0.4012   -1.3042 C   0  0  0  0  0  0  0  0  0  0  0  0
    2.4762   -0.2434   -0.8082 H   0  0  0  0  0  0  0  0  0  0  0  0
    1.9422    0.3450   -2.3793 H   0  0  0  0  0  0  0  0  0  0  0  0
    2.0691    2.1186   -0.7375 S   0  0  0  0  0  0  0  0  0  0  0  0
    1.0100    3.1087   -1.8667 C   0  0  0  0  0  0  0  0  0  0  0  0
   -0.0403    2.8227   -1.7607 H   0  0  0  0  0  0  0  0  0  0  0  0
    1.1053    4.1728   -1.6313 H   0  0  0  0  0  0  0  0  0  0  0  0
    1.3129    2.9513   -2.9061 H   0  0  0  0  0  0  0  0  0  0  0  0
   -0.5812    1.4456    0.8056 C   0  0  0  0  0  0  0  0  0  0  0  0
   -1.5612    2.0347    0.3561 O   0  0  0  0  0  0  0  0  0  0  0  0
    0.1798    2.0550    1.7865 N   0  0  0  0  0  0  0  0  0  0  0  0
    1.0482    1.5937    2.0426 H   0  0  0  0  0  0  0  0  0  0  0  0
   -0.0169    3.4397    2.1957 C   0  0  0  0  0  0  0  0  0  0  0  0
   -1.0383    3.5915    2.5605 H   0  0  0  0  0  0  0  0  0  0  0  0
    0.6772    3.6972    3.0015 H   0  0  0  0  0  0  0  0  0  0  0  0
    0.1616    4.1160    1.3532 H   0  0  0  0  0  0  0  0  0  0  0  0
  1  2  1  0  0  0  0
  2  3  1  0  0  0  0
  2  4  1  0  0  0  0
  2  5  1  0  0  0  0
  5  6  2  0  0  0  0
  5  7  1  0  0  0  0
  7  8  1  0  0  0  0
  7  9  1  0  0  0  0
  9 10  1  0  0  0  0
  9 11  1  0  0  0  0
  9 22  1  0  0  0  0
 11 12  1  0  0  0  0
 11 13  1  0  0  0  0
 11 14  1  0  0  0  0
 14 15  1  0  0  0  0
 14 16  1  0  0  0  0
 14 17  1  0  0  0  0
 17 18  1  0  0  0  0
 18 19  1  0  0  0  0
 18 20  1  0  0  0  0
 18 21  1  0  0  0  0
 22 23  2  0  0  0  0
 22 24  1  0  0  0  0
 24 25  1  0  0  0  0
 24 26  1  0  0  0  0
 26 27  1  0  0  0  0
 26 28  1  0  0  0  0
 26 29  1  0  0  0  0
M  END
$$$$

  -OEChem-02102214153D

 29 28  0     1  0  0  0  0  0999 V2000
   -3.2726   -3.5210    1.3224 H   0  0  0  0  0  0  0  0  0  0  0  0
   -3.2607   -2.5400    0.8394 C   0  0  0  0  0  0  0  0  0  0  0  0
   -3.9173   -1.8664    1.3952 H   0  0  0  0  0  0  0  0  0  0  0  0
   -3.6367   -2.6447   -0.1812 H   0  0  0  0  0  0  0  0  0  0  0  0
   -1.8484   -1.9866    0.8157 C   0  0  0  0  0  0  0  0  0  0  0  0
   -0.9176   -2.6668    1.2166 O   0  0  0  0  0  0  0  0  0  0  0  0
   -1.6179   -0.7160    0.3335 N   0  0  0  0  0  0  0  0  0  0  0  0
   -2.4329   -0.1402    0.1232 H   0  0  0  0  0  0  0  0  0  0  0  0
   -0.3243   -0.0188    0.4073 C   0  0  1  0  0  0  0  0  0  0  0  0
    0.3448   -0.4825    1.1397 H   0  0  0  0  0  0  0  0  0  0  0  0
    0.2812   -0.1640   -1.0117 C   0  0  0  0  0  0  0  0  0  0  0  0
    0.3246   -1.2303   -1.2579 H   0  0  0  0  0  0  0  0  0  0  0  0
   -0.4314    0.2957   -1.7050 H   0  0  0  0  0  0  0  0  0  0  0  0
    1.6642    0.4422   -1.3389 C   0  0  0  0  0  0  0  0  0  0  0  0
    2.4101   -0.3260   -1.1102 H   0  0  0  0  0  0  0  0  0  0  0  0
    1.7224    0.6306   -2.4156 H   0  0  0  0  0  0  0  0  0  0  0  0
    2.1901    1.9534   -0.4381 S   0  0  0  0  0  0  0  0  0  0  0  0
    1.2815    3.2621   -1.3548 C   0  0  0  0  0  0  0  0  0  0  0  0
    0.2041    3.0750   -1.3284 H   0  0  0  0  0  0  0  0  0  0  0  0
    1.4765    4.2397   -0.9043 H   0  0  0  0  0  0  0  0  0  0  0  0
    1.6053    3.2870   -2.3993 H   0  0  0  0  0  0  0  0  0  0  0  0
   -0.6390    1.4215    0.8791 C   0  0  0  0  0  0  0  0  0  0  0  0
   -1.6280    2.0016    0.4377 O   0  0  0  0  0  0  0  0  0  0  0  0
    0.1131    2.0347    1.8643 N   0  0  0  0  0  0  0  0  0  0  0  0
    0.9980    1.5933    2.1001 H   0  0  0  0  0  0  0  0  0  0  0  0
   -0.1194    3.4035    2.3072 C   0  0  0  0  0  0  0  0  0  0  0  0
   -1.1384    3.5148    2.6926 H   0  0  0  0  0  0  0  0  0  0  0  0
    0.5809    3.6648    3.1062 H   0  0  0  0  0  0  0  0  0  0  0  0
    0.0228    4.1041    1.4779 H   0  0  0  0  0  0  0  0  0  0  0  0
  1  2  1  0  0  0  0
  2  3  1  0  0  0  0
  2  4  1  0  0  0  0
  2  5  1  0  0  0  0
  5  6  2  0  0  0  0
  5  7  1  0  0  0  0
  7  8  1  0  0  0  0
  7  9  1  0  0  0  0
  9 10  1  0  0  0  0
  9 11  1  0  0  0  0
  9 22  1  0  0  0  0
 11 12  1  0  0  0  0
 11 13  1  0  0  0  0
 11 14  1  0  0  0  0
 14 15  1  0  0  0  0
 14 16  1  0  0  0  0
 14 17  1  0  0  0  0
 17 18  1  0  0  0  0
 18 19  1  0  0  0  0
 18 20  1  0  0  0  0
 18 21  1  0  0  0  0
 22 23  2  0  0  0  0
 22 24  1  0  0  0  0
 24 25  1  0  0  0  0
 24 26  1  0  0  0  0
 26 27  1  0  0  0  0
 26 28  1  0  0  0  0
 26 29  1  0  0  0  0
M  END
$$$$

  -OEChem-02102214153D

 29 28  0     1  0  0  0  0  0999 V2000
   -3.3034   -3.5199    1.5090 H   0  0  0  0  0  0  0  0  0  0  0  0
   -3.2998   -2.5392    1.0252 C   0  0  0  0  0  0  0  0  0  0  0  0
   -3.9539   -1.8670    1.5858 H   0  0  0  0  0  0  0  0  0  0  0  0
   -3.6841   -2.6464    0.0081 H   0  0  0  0  0  0  0  0  0  0  0  0
   -1.8902   -1.9805    0.9894 C   0  0  0  0  0  0  0  0  0  0  0  0
   -0.9642   -2.6271    1.4519 O   0  0  0  0  0  0  0  0  0  0  0  0
   -1.6578   -0.7412    0.4325 N   0  0  0  0  0  0  0  0  0  0  0  0
   -2.4716   -0.1862    0.1689 H   0  0  0  0  0  0  0  0  0  0  0  0
   -0.3691   -0.0327    0.4883 C   0  0  1  0  0  0  0  0  0  0  0  0
    0.2950   -0.4477    1.2538 H   0  0  0  0  0  0  0  0  0  0  0  0
    0.2496   -0.2416   -0.9164 C   0  0  0  0  0  0  0  0  0  0  0  0
    0.3012   -1.3190   -1.1075 H   0  0  0  0  0  0  0  0  0  0  0  0
   -0.4605    0.1756   -1.6386 H   0  0  0  0  0  0  0  0  0  0  0  0
    1.6330    0.3540   -1.2645 C   0  0  0  0  0  0  0  0  0  0  0  0
    2.3491   -0.4744   -1.2570 H   0  0  0  0  0  0  0  0  0  0  0  0
    1.6079    0.7392   -2.2889 H   0  0  0  0  0  0  0  0  0  0  0  0
    2.3249    1.6428   -0.1548 S   0  0  0  0  0  0  0  0  0  0  0  0
    1.7165    3.1743   -0.9688 C   0  0  0  0  0  0  0  0  0  0  0  0
    0.6263    3.1533   -1.0618 H   0  0  0  0  0  0  0  0  0  0  0  0
    2.1509    3.2699   -1.9683 H   0  0  0  0  0  0  0  0  0  0  0  0
    2.0000    4.0506   -0.3787 H   0  0  0  0  0  0  0  0  0  0  0  0
   -0.7072    1.4318    0.8631 C   0  0  0  0  0  0  0  0  0  0  0  0
   -1.6839    1.9782    0.3565 O   0  0  0  0  0  0  0  0  0  0  0  0
    0.0141    2.1170    1.8234 N   0  0  0  0  0  0  0  0  0  0  0  0
    0.8926    1.6973    2.1179 H   0  0  0  0  0  0  0  0  0  0  0  0
   -0.2651    3.4954    2.2057 C   0  0  0  0  0  0  0  0  0  0  0  0
   -0.1790    4.1599    1.3398 H   0  0  0  0  0  0  0  0  0  0  0  0
    0.4461    3.8261    2.9686 H   0  0  0  0  0  0  0  0  0  0  0  0
   -1.2764    3.5812    2.6168 H   0  0  0  0  0  0  0  0  0  0  0  0
  1  2  1  0  0  0  0
  2  3  1  0  0  0  0
  2  4  1  0  0  0  0
  2  5  1  0  0  0  0
  5  6  2  0  0  0  0
  5  7  1  0  0  0  0
  7  8  1  0  0  0  0
  7  9  1  0  0  0  0
  9 10  1  0  0  0  0
  9 11  1  0  0  0  0
  9 22  1  0  0  0  0
 11 12  1  0  0  0  0
 11 13  1  0  0  0  0
 11 14  1  0  0  0  0
 14 15  1  0  0  0  0
 14 16  1  0  0  0  0
 14 17  1  0  0  0  0
 17 18  1  0  0  0  0
 18 19  1  0  0  0  0
 18 20  1  0  0  0  0
 18 21  1  0  0  0  0
 22 23  2  0  0  0  0
 22 24  1  0  0  0  0
 24 25  1  0  0  0  0
 24 26  1  0  0  0  0
 26 27  1  0  0  0  0
 26 28  1  0  0  0  0
 26 29  1  0  0  0  0
M  END
$$$$

  -OEChem-02102214153D

 29 28  0     1  0  0  0  0  0999 V2000
   -2.9506   -3.9435    0.8204 H   0  0  0  0  0  0  0  0  0  0  0  0
   -3.0402   -2.9124    0.4672 C   0  0  0  0  0  0  0  0  0  0  0  0
   -3.7527   -2.3831    1.1046 H   0  0  0  0  0  0  0  0  0  0  0  0
   -3.4161   -2.9220   -0.5586 H   0  0  0  0  0  0  0  0  0  0  0  0
   -1.6895   -2.2239    0.5149 C   0  0  0  0  0  0  0  0  0  0  0  0
   -0.6915   -2.8564    0.8201 O   0  0  0  0  0  0  0  0  0  0  0  0
   -1.5934   -0.8832    0.2097 N   0  0  0  0  0  0  0  0  0  0  0  0
   -2.4639   -0.3698    0.0751 H   0  0  0  0  0  0  0  0  0  0  0  0
   -0.3738   -0.0767    0.3722 C   0  0  1  0  0  0  0  0  0  0  0  0
    0.3624   -0.5716    1.0149 H   0  0  0  0  0  0  0  0  0  0  0  0
    0.1893    0.0894   -1.0587 C   0  0  0  0  0  0  0  0  0  0  0  0
    0.3535   -0.9151   -1.4637 H   0  0  0  0  0  0  0  0  0  0  0  0
   -0.5888    0.5560   -1.6726 H   0  0  0  0  0  0  0  0  0  0  0  0
    1.4927    0.8890   -1.2814 C   0  0  0  0  0  0  0  0  0  0  0  0
    2.2174    0.2247   -1.7636 H   0  0  0  0  0  0  0  0  0  0  0  0
    1.2875    1.6985   -1.9893 H   0  0  0  0  0  0  0  0  0  0  0  0
    2.3041    1.6008    0.2077 S   0  0  0  0  0  0  0  0  0  0  0  0
    2.0090    3.3969   -0.0420 C   0  0  0  0  0  0  0  0  0  0  0  0
    2.5034    3.7387   -0.9561 H   0  0  0  0  0  0  0  0  0  0  0  0
    2.4065    3.9649    0.8042 H   0  0  0  0  0  0  0  0  0  0  0  0
    0.9365    3.5981   -0.1260 H   0  0  0  0  0  0  0  0  0  0  0  0
   -0.8177    1.2500    1.0384 C   0  0  0  0  0  0  0  0  0  0  0  0
   -1.8572    1.7925    0.6731 O   0  0  0  0  0  0  0  0  0  0  0  0
   -0.1176    1.8032    2.0941 N   0  0  0  0  0  0  0  0  0  0  0  0
    0.7995    1.4075    2.2895 H   0  0  0  0  0  0  0  0  0  0  0  0
   -0.5033    3.0438    2.7544 C   0  0  0  0  0  0  0  0  0  0  0  0
   -1.5058    2.9521    3.1854 H   0  0  0  0  0  0  0  0  0  0  0  0
    0.1985    3.2748    3.5616 H   0  0  0  0  0  0  0  0  0  0  0  0
   -0.5004    3.8760    2.0429 H   0  0  0  0  0  0  0  0  0  0  0  0
  1  2  1  0  0  0  0
  2  3  1  0  0  0  0
  2  4  1  0  0  0  0
  2  5  1  0  0  0  0
  5  6  2  0  0  0  0
  5  7  1  0  0  0  0
  7  8  1  0  0  0  0
  7  9  1  0  0  0  0
  9 10  1  0  0  0  0
  9 11  1  0  0  0  0
  9 22  1  0  0  0  0
 11 12  1  0  0  0  0
 11 13  1  0  0  0  0
 11 14  1  0  0  0  0
 14 15  1  0  0  0  0
 14 16  1  0  0  0  0
 14 17  1  0  0  0  0
 17 18  1  0  0  0  0
 18 19  1  0  0  0  0
 18 20  1  0  0  0  0
 18 21  1  0  0  0  0
 22 23  2  0  0  0  0
 22 24  1  0  0  0  0
 24 25  1  0  0  0  0
 24 26  1  0  0  0  0
 26 27  1  0  0  0  0
 26 28  1  0  0  0  0
 26 29  1  0  0  0  0
M  END
$$$$

  -OEChem-02102214153D

 29 28  0     1  0  0  0  0  0999 V2000
   -2.9143   -3.9089    1.7127 H   0  0  0  0  0  0  0  0  0  0  0  0
   -3.1036   -2.8999    1.3358 C   0  0  0  0  0  0  0  0  0  0  0  0
   -3.7384   -2.3703    2.0503 H   0  0  0  0  0  0  0  0  0  0  0  0
   -3.6257   -2.9735    0.3789 H   0  0  0  0  0  0  0  0  0  0  0  0
   -1.7948   -2.1549    1.1543 C   0  0  0  0  0  0  0  0  0  0  0  0
   -0.7394   -2.6963    1.4416 O   0  0  0  0  0  0  0  0  0  0  0  0
   -1.8046   -0.8675    0.6617 N   0  0  0  0  0  0  0  0  0  0  0  0
   -2.7122   -0.4167    0.5509 H   0  0  0  0  0  0  0  0  0  0  0  0
   -0.6253    0.0087    0.5958 C   0  0  1  0  0  0  0  0  0  0  0  0
    0.1857   -0.3677    1.2284 H   0  0  0  0  0  0  0  0  0  0  0  0
   -0.1855    0.0389   -0.8829 C   0  0  0  0  0  0  0  0  0  0  0  0
    0.0322   -0.9948   -1.1722 H   0  0  0  0  0  0  0  0  0  0  0  0
   -1.0281    0.3734   -1.4977 H   0  0  0  0  0  0  0  0  0  0  0  0
    1.0494    0.8873   -1.2548 C   0  0  0  0  0  0  0  0  0  0  0  0
    1.6577    0.3303   -1.9749 H   0  0  0  0  0  0  0  0  0  0  0  0
    0.6982    1.7938   -1.7585 H   0  0  0  0  0  0  0  0  0  0  0  0
    2.1141    1.4137    0.1526 S   0  0  0  0  0  0  0  0  0  0  0  0
    3.4110    2.3776   -0.7182 C   0  0  0  0  0  0  0  0  0  0  0  0
    3.9367    1.7432   -1.4382 H   0  0  0  0  0  0  0  0  0  0  0  0
    4.1379    2.7653    0.0018 H   0  0  0  0  0  0  0  0  0  0  0  0
    2.9631    3.2211   -1.2521 H   0  0  0  0  0  0  0  0  0  0  0  0
   -1.0597    1.4034    1.1095 C   0  0  0  0  0  0  0  0  0  0  0  0
   -2.1574    1.8493    0.7860 O   0  0  0  0  0  0  0  0  0  0  0  0
   -0.2845    2.1217    1.9998 N   0  0  0  0  0  0  0  0  0  0  0  0
    0.6688    1.7918    2.1357 H   0  0  0  0  0  0  0  0  0  0  0  0
   -0.6388    3.4527    2.4758 C   0  0  0  0  0  0  0  0  0  0  0  0
   -1.5980    3.4283    3.0035 H   0  0  0  0  0  0  0  0  0  0  0  0
    0.1251    3.8213    3.1671 H   0  0  0  0  0  0  0  0  0  0  0  0
   -0.7152    4.1527    1.6373 H   0  0  0  0  0  0  0  0  0  0  0  0
  1  2  1  0  0  0  0
  2  3  1  0  0  0  0
  2  4  1  0  0  0  0
  2  5  1  0  0  0  0
  5  6  2  0  0  0  0
  5  7  1  0  0  0  0
  7  8  1  0  0  0  0
  7  9  1  0  0  0  0
  9 10  1  0  0  0  0
  9 11  1  0  0  0  0
  9 22  1  0  0  0  0
 11 12  1  0  0  0  0
 11 13  1  0  0  0  0
 11 14  1  0  0  0  0
 14 15  1  0  0  0  0
 14 16  1  0  0  0  0
 14 17  1  0  0  0  0
 17 18  1  0  0  0  0
 18 19  1  0  0  0  0
 18 20  1  0  0  0  0
 18 21  1  0  0  0  0
 22 23  2  0  0  0  0
 22 24  1  0  0  0  0
 24 25  1  0  0  0  0
 24 26  1  0  0  0  0
 26 27  1  0  0  0  0
 26 28  1  0  0  0  0
 26 29  1  0  0  0  0
M  END
$$$$

  -OEChem-02102214153D

 29 28  0     1  0  0  0  0  0999 V2000
   -3.4344   -3.0817    1.4745 H   0  0  0  0  0  0  0  0  0  0  0  0
   -3.4165   -2.1399    0.9192 C   0  0  0  0  0  0  0  0  0  0  0  0
   -4.1331   -1.4502    1.3715 H   0  0  0  0  0  0  0  0  0  0  0  0
   -3.7109   -2.3347   -0.1148 H   0  0  0  0  0  0  0  0  0  0  0  0
   -2.0249   -1.5377    0.9561 C   0  0  0  0  0  0  0  0  0  0  0  0
   -1.1250   -2.1122    1.5489 O   0  0  0  0  0  0  0  0  0  0  0  0
   -1.7775   -0.3463    0.3080 N   0  0  0  0  0  0  0  0  0  0  0  0
   -2.5791    0.1501   -0.0794 H   0  0  0  0  0  0  0  0  0  0  0  0
   -0.5254    0.4148    0.4230 C   0  0  1  0  0  0  0  0  0  0  0  0
    0.0388    0.0752    1.2961 H   0  0  0  0  0  0  0  0  0  0  0  0
    0.2842    0.1787   -0.8662 C   0  0  0  0  0  0  0  0  0  0  0  0
    0.4665   -0.8983   -0.9429 H   0  0  0  0  0  0  0  0  0  0  0  0
   -0.3182    0.4693   -1.7334 H   0  0  0  0  0  0  0  0  0  0  0  0
    1.6481    0.8913   -0.9508 C   0  0  0  0  0  0  0  0  0  0  0  0
    2.3102    0.3327   -1.6201 H   0  0  0  0  0  0  0  0  0  0  0  0
    1.4893    1.8778   -1.3991 H   0  0  0  0  0  0  0  0  0  0  0  0
    2.4825    1.1513    0.6723 S   0  0  0  0  0  0  0  0  0  0  0  0
    2.9211   -0.5712    1.1424 C   0  0  0  0  0  0  0  0  0  0  0  0
    3.5850   -1.0101    0.3920 H   0  0  0  0  0  0  0  0  0  0  0  0
    3.4336   -0.5777    2.1088 H   0  0  0  0  0  0  0  0  0  0  0  0
    2.0235   -1.1923    1.2205 H   0  0  0  0  0  0  0  0  0  0  0  0
   -0.8548    1.9110    0.6233 C   0  0  0  0  0  0  0  0  0  0  0  0
   -1.7758    2.4153   -0.0116 O   0  0  0  0  0  0  0  0  0  0  0  0
   -0.1962    2.6660    1.5749 N   0  0  0  0  0  0  0  0  0  0  0  0
    0.6435    2.2539    1.9774 H   0  0  0  0  0  0  0  0  0  0  0  0
   -0.4333    4.0913    1.7642 C   0  0  0  0  0  0  0  0  0  0  0  0
   -1.4831    4.2758    2.0155 H   0  0  0  0  0  0  0  0  0  0  0  0
    0.1875    4.4717    2.5810 H   0  0  0  0  0  0  0  0  0  0  0  0
   -0.1861    4.6451    0.8526 H   0  0  0  0  0  0  0  0  0  0  0  0
  1  2  1  0  0  0  0
  2  3  1  0  0  0  0
  2  4  1  0  0  0  0
  2  5  1  0  0  0  0
  5  6  2  0  0  0  0
  5  7  1  0  0  0  0
  7  8  1  0  0  0  0
  7  9  1  0  0  0  0
  9 10  1  0  0  0  0
  9 11  1  0  0  0  0
  9 22  1  0  0  0  0
 11 12  1  0  0  0  0
 11 13  1  0  0  0  0
 11 14  1  0  0  0  0
 14 15  1  0  0  0  0
 14 16  1  0  0  0  0
 14 17  1  0  0  0  0
 17 18  1  0  0  0  0
 18 19  1  0  0  0  0
 18 20  1  0  0  0  0
 18 21  1  0  0  0  0
 22 23  2  0  0  0  0
 22 24  1  0  0  0  0
 24 25  1  0  0  0  0
 24 26  1  0  0  0  0
 26 27  1  0  0  0  0
 26 28  1  0  0  0  0
 26 29  1  0  0  0  0
M  END
$$$$

  -OEChem-02102214153D

 29 28  0     1  0  0  0  0  0999 V2000
   -3.3032   -3.1467    1.6539 H   0  0  0  0  0  0  0  0  0  0  0  0
   -3.3033   -2.2312    1.0558 C   0  0  0  0  0  0  0  0  0  0  0  0
   -4.0477   -1.5435    1.4645 H   0  0  0  0  0  0  0  0  0  0  0  0
   -3.5745   -2.4826    0.0276 H   0  0  0  0  0  0  0  0  0  0  0  0
   -1.9308   -1.5858    1.0870 C   0  0  0  0  0  0  0  0  0  0  0  0
   -1.0314   -2.0927    1.7392 O   0  0  0  0  0  0  0  0  0  0  0  0
   -1.7009   -0.4322    0.3674 N   0  0  0  0  0  0  0  0  0  0  0  0
   -2.5051    0.0072   -0.0783 H   0  0  0  0  0  0  0  0  0  0  0  0
   -0.4775    0.3764    0.4630 C   0  0  1  0  0  0  0  0  0  0  0  0
    0.0553    0.1137    1.3814 H   0  0  0  0  0  0  0  0  0  0  0  0
    0.4071    0.0637   -0.7567 C   0  0  0  0  0  0  0  0  0  0  0  0
    0.6313   -1.0078   -0.7519 H   0  0  0  0  0  0  0  0  0  0  0  0
   -0.1513    0.2771   -1.6741 H   0  0  0  0  0  0  0  0  0  0  0  0
    1.7336    0.8422   -0.7929 C   0  0  0  0  0  0  0  0  0  0  0  0
    2.3881    0.4012   -1.5516 H   0  0  0  0  0  0  0  0  0  0  0  0
    1.5334    1.8754   -1.0960 H   0  0  0  0  0  0  0  0  0  0  0  0
    2.6132    0.8726    0.8272 S   0  0  0  0  0  0  0  0  0  0  0  0
    2.8922   -0.9115    1.1745 C   0  0  0  0  0  0  0  0  0  0  0  0
    3.4490   -1.3753    0.3550 H   0  0  0  0  0  0  0  0  0  0  0  0
    3.4677   -1.0273    2.0975 H   0  0  0  0  0  0  0  0  0  0  0  0
    1.9392   -1.4361    1.2936 H   0  0  0  0  0  0  0  0  0  0  0  0
   -0.8212    1.8768    0.5545 C   0  0  0  0  0  0  0  0  0  0  0  0
   -1.7269    2.3343   -0.1341 O   0  0  0  0  0  0  0  0  0  0  0  0
   -0.1843    2.6895    1.4728 N   0  0  0  0  0  0  0  0  0  0  0  0
    0.6247    2.2970    1.9504 H   0  0  0  0  0  0  0  0  0  0  0  0
   -0.4517    4.1164    1.5990 C   0  0  0  0  0  0  0  0  0  0  0  0
   -1.5038    4.2892    1.8493 H   0  0  0  0  0  0  0  0  0  0  0  0
    0.1662    4.5472    2.3929 H   0  0  0  0  0  0  0  0  0  0  0  0
   -0.2227    4.6338    0.6616 H   0  0  0  0  0  0  0  0  0  0  0  0
  1  2  1  0  0  0  0
  2  3  1  0  0  0  0
  2  4  1  0  0  0  0
  2  5  1  0  0  0  0
  5  6  2  0  0  0  0
  5  7  1  0  0  0  0
  7  8  1  0  0  0  0
  7  9  1  0  0  0  0
  9 10  1  0  0  0  0
  9 11  1  0  0  0  0
  9 22  1  0  0  0  0
 11 12  1  0  0  0  0
 11 13  1  0  0  0  0
 11 14  1  0  0  0  0
 14 15  1  0  0  0  0
 14 16  1  0  0  0  0
 14 17  1  0  0  0  0
 17 18  1  0  0  0  0
 18 19  1  0  0  0  0
 18 20  1  0  0  0  0
 18 21  1  0  0  0  0
 22 23  2  0  0  0  0
 22 24  1  0  0  0  0
 24 25  1  0  0  0  0
 24 26  1  0  0  0  0
 26 27  1  0  0  0  0
 26 28  1  0  0  0  0
 26 29  1  0  0  0  0
M  END
$$$$

  -OEChem-02102214153D

 29 28  0     1  0  0  0  0  0999 V2000
   -3.8042   -3.5035    0.7621 H   0  0  0  0  0  0  0  0  0  0  0  0
   -3.6748   -2.5114    0.3206 C   0  0  0  0  0  0  0  0  0  0  0  0
   -4.4342   -1.8412    0.7305 H   0  0  0  0  0  0  0  0  0  0  0  0
   -3.8099   -2.5872   -0.7610 H   0  0  0  0  0  0  0  0  0  0  0  0
   -2.2903   -1.9763    0.6333 C   0  0  0  0  0  0  0  0  0  0  0  0
   -1.5207   -2.6370    1.3114 O   0  0  0  0  0  0  0  0  0  0  0  0
   -1.9146   -0.7394    0.1533 N   0  0  0  0  0  0  0  0  0  0  0  0
   -2.6275   -0.1873   -0.3203 H   0  0  0  0  0  0  0  0  0  0  0  0
   -0.6561   -0.0540    0.4804 C   0  0  1  0  0  0  0  0  0  0  0  0
   -0.2163   -0.5117    1.3724 H   0  0  0  0  0  0  0  0  0  0  0  0
    0.3132   -0.2318   -0.7021 C   0  0  0  0  0  0  0  0  0  0  0  0
    0.4748   -1.3022   -0.8679 H   0  0  0  0  0  0  0  0  0  0  0  0
   -0.1453    0.1790   -1.6077 H   0  0  0  0  0  0  0  0  0  0  0  0
    1.6745    0.4448   -0.4853 C   0  0  0  0  0  0  0  0  0  0  0  0
    2.2994    0.2748   -1.3679 H   0  0  0  0  0  0  0  0  0  0  0  0
    1.5468    1.5268   -0.3788 H   0  0  0  0  0  0  0  0  0  0  0  0
    2.5344   -0.2285    0.9929 S   0  0  0  0  0  0  0  0  0  0  0  0
    4.0777    0.7652    0.9886 C   0  0  0  0  0  0  0  0  0  0  0  0
    3.8442    1.8299    1.0818 H   0  0  0  0  0  0  0  0  0  0  0  0
    4.7158    0.4717    1.8275 H   0  0  0  0  0  0  0  0  0  0  0  0
    4.6290    0.6054    0.0573 H   0  0  0  0  0  0  0  0  0  0  0  0
   -0.9019    1.4307    0.8089 C   0  0  0  0  0  0  0  0  0  0  0  0
   -1.6736    2.0903    0.1216 O   0  0  0  0  0  0  0  0  0  0  0  0
   -0.2893    2.0132    1.9023 N   0  0  0  0  0  0  0  0  0  0  0  0
    0.3544    1.4356    2.4385 H   0  0  0  0  0  0  0  0  0  0  0  0
   -0.4814    3.4061    2.2848 C   0  0  0  0  0  0  0  0  0  0  0  0
   -1.5397    3.6075    2.4816 H   0  0  0  0  0  0  0  0  0  0  0  0
    0.0865    3.6304    3.1929 H   0  0  0  0  0  0  0  0  0  0  0  0
   -0.1375    4.0731    1.4874 H   0  0  0  0  0  0  0  0  0  0  0  0
  1  2  1  0  0  0  0
  2  3  1  0  0  0  0
  2  4  1  0  0  0  0
  2  5  1  0  0  0  0
  5  6  2  0  0  0  0
  5  7  1  0  0  0  0
  7  8  1  0  0  0  0
  7  9  1  0  0  0  0
  9 10  1  0  0  0  0
  9 11  1  0  0  0  0
  9 22  1  0  0  0  0
 11 12  1  0  0  0  0
 11 13  1  0  0  0  0
 11 14  1  0  0  0  0
 14 15  1  0  0  0  0
 14 16  1  0  0  0  0
 14 17  1  0  0  0  0
 17 18  1  0  0  0  0
 18 19  1  0  0  0  0
 18 20  1  0  0  0  0
 18 21  1  0  0  0  0
 22 23  2  0  0  0  0
 22 24  1  0  0  0  0
 24 25  1  0  0  0  0
 24 26  1  0  0  0  0
 26 27  1  0  0  0  0
 26 28  1  0  0  0  0
 26 29  1  0  0  0  0
M  END
$$$$

  -OEChem-02102214153D

 29 28  0     1  0  0  0  0  0999 V2000
   -3.8904   -3.4173    0.7552 H   0  0  0  0  0  0  0  0  0  0  0  0
   -3.7206   -2.4353    0.3050 C   0  0  0  0  0  0  0  0  0  0  0  0
   -4.4776   -1.7410    0.6774 H   0  0  0  0  0  0  0  0  0  0  0  0
   -3.8179   -2.5238   -0.7797 H   0  0  0  0  0  0  0  0  0  0  0  0
   -2.3354   -1.9301    0.6613 C   0  0  0  0  0  0  0  0  0  0  0  0
   -1.6139   -2.5922    1.3891 O   0  0  0  0  0  0  0  0  0  0  0  0
   -1.9048   -0.7159    0.1695 N   0  0  0  0  0  0  0  0  0  0  0  0
   -2.5765   -0.1578   -0.3545 H   0  0  0  0  0  0  0  0  0  0  0  0
   -0.6270   -0.0743    0.5110 C   0  0  1  0  0  0  0  0  0  0  0  0
   -0.2074   -0.5328    1.4127 H   0  0  0  0  0  0  0  0  0  0  0  0
    0.3454   -0.3059   -0.6594 C   0  0  0  0  0  0  0  0  0  0  0  0
    0.4583   -1.3814   -0.8329 H   0  0  0  0  0  0  0  0  0  0  0  0
   -0.0889    0.1311   -1.5648 H   0  0  0  0  0  0  0  0  0  0  0  0
    1.7296    0.3172   -0.4336 C   0  0  0  0  0  0  0  0  0  0  0  0
    2.2700    0.3230   -1.3855 H   0  0  0  0  0  0  0  0  0  0  0  0
    1.6528    1.3552   -0.0973 H   0  0  0  0  0  0  0  0  0  0  0  0
    2.6874   -0.6824    0.7724 S   0  0  0  0  0  0  0  0  0  0  0  0
    4.2972    0.1995    0.7735 C   0  0  0  0  0  0  0  0  0  0  0  0
    4.1633    1.2348    1.1007 H   0  0  0  0  0  0  0  0  0  0  0  0
    4.9956   -0.2958    1.4546 H   0  0  0  0  0  0  0  0  0  0  0  0
    4.7296    0.1998   -0.2315 H   0  0  0  0  0  0  0  0  0  0  0  0
   -0.8382    1.4227    0.8103 C   0  0  0  0  0  0  0  0  0  0  0  0
   -1.5684    2.0939    0.0896 O   0  0  0  0  0  0  0  0  0  0  0  0
   -0.2347    2.0090    1.9073 N   0  0  0  0  0  0  0  0  0  0  0  0
    0.3302    1.4112    2.5059 H   0  0  0  0  0  0  0  0  0  0  0  0
   -0.4392    3.4015    2.2858 C   0  0  0  0  0  0  0  0  0  0  0  0
   -1.4945    3.5845    2.5141 H   0  0  0  0  0  0  0  0  0  0  0  0
    0.1539    3.6434    3.1730 H   0  0  0  0  0  0  0  0  0  0  0  0
   -0.1331    4.0693    1.4736 H   0  0  0  0  0  0  0  0  0  0  0  0
  1  2  1  0  0  0  0
  2  3  1  0  0  0  0
  2  4  1  0  0  0  0
  2  5  1  0  0  0  0
  5  6  2  0  0  0  0
  5  7  1  0  0  0  0
  7  8  1  0  0  0  0
  7  9  1  0  0  0  0
  9 10  1  0  0  0  0
  9 11  1  0  0  0  0
  9 22  1  0  0  0  0
 11 12  1  0  0  0  0
 11 13  1  0  0  0  0
 11 14  1  0  0  0  0
 14 15  1  0  0  0  0
 14 16  1  0  0  0  0
 14 17  1  0  0  0  0
 17 18  1  0  0  0  0
 18 19  1  0  0  0  0
 18 20  1  0  0  0  0
 18 21  1  0  0  0  0
 22 23  2  0  0  0  0
 22 24  1  0  0  0  0
 24 25  1  0  0  0  0
 24 26  1  0  0  0  0
 26 27  1  0  0  0  0
 26 28  1  0  0  0  0
 26 29  1  0  0  0  0
M  END
$$$$

  -OEChem-02102214153D

 29 28  0     1  0  0  0  0  0999 V2000
   -3.1588   -3.4274    1.3493 H   0  0  0  0  0  0  0  0  0  0  0  0
   -3.1579   -2.4544    0.8502 C   0  0  0  0  0  0  0  0  0  0  0  0
   -3.8736   -1.7995    1.3529 H   0  0  0  0  0  0  0  0  0  0  0  0
   -3.4673   -2.5914   -0.1888 H   0  0  0  0  0  0  0  0  0  0  0  0
   -1.7709   -1.8427    0.9008 C   0  0  0  0  0  0  0  0  0  0  0  0
   -0.8659   -2.4221    1.4809 O   0  0  0  0  0  0  0  0  0  0  0  0
   -1.5368   -0.6256    0.2969 N   0  0  0  0  0  0  0  0  0  0  0  0
   -2.3389   -0.1286   -0.0881 H   0  0  0  0  0  0  0  0  0  0  0  0
   -0.2678    0.1106    0.3721 C   0  0  1  0  0  0  0  0  0  0  0  0
    0.3384   -0.2708    1.1949 H   0  0  0  0  0  0  0  0  0  0  0  0
    0.4673   -0.0910   -0.9680 C   0  0  0  0  0  0  0  0  0  0  0  0
    0.6028   -1.1611   -1.1569 H   0  0  0  0  0  0  0  0  0  0  0  0
   -0.1742    0.2992   -1.7653 H   0  0  0  0  0  0  0  0  0  0  0  0
    1.8311    0.6147   -1.0685 C   0  0  0  0  0  0  0  0  0  0  0  0
    2.0130    0.8653   -2.1186 H   0  0  0  0  0  0  0  0  0  0  0  0
    1.8245    1.5579   -0.5158 H   0  0  0  0  0  0  0  0  0  0  0  0
    3.2467   -0.4227   -0.4955 S   0  0  0  0  0  0  0  0  0  0  0  0
    2.7523   -1.3317    1.0236 C   0  0  0  0  0  0  0  0  0  0  0  0
    1.8985   -1.9862    0.8228 H   0  0  0  0  0  0  0  0  0  0  0  0
    3.5841   -1.9518    1.3703 H   0  0  0  0  0  0  0  0  0  0  0  0
    2.4896   -0.6318    1.8211 H   0  0  0  0  0  0  0  0  0  0  0  0
   -0.5465    1.6002    0.6612 C   0  0  0  0  0  0  0  0  0  0  0  0
   -1.4597    2.1733    0.0781 O   0  0  0  0  0  0  0  0  0  0  0  0
    0.1920    2.2866    1.6075 N   0  0  0  0  0  0  0  0  0  0  0  0
    0.9104    1.7726    2.1099 H   0  0  0  0  0  0  0  0  0  0  0  0
   -0.0595    3.6781    1.9626 C   0  0  0  0  0  0  0  0  0  0  0  0
   -1.0507    3.7842    2.4160 H   0  0  0  0  0  0  0  0  0  0  0  0
    0.6893    4.0268    2.6803 H   0  0  0  0  0  0  0  0  0  0  0  0
   -0.0084    4.3169    1.0744 H   0  0  0  0  0  0  0  0  0  0  0  0
  1  2  1  0  0  0  0
  2  3  1  0  0  0  0
  2  4  1  0  0  0  0
  2  5  1  0  0  0  0
  5  6  2  0  0  0  0
  5  7  1  0  0  0  0
  7  8  1  0  0  0  0
  7  9  1  0  0  0  0
  9 10  1  0  0  0  0
  9 11  1  0  0  0  0
  9 22  1  0  0  0  0
 11 12  1  0  0  0  0
 11 13  1  0  0  0  0
 11 14  1  0  0  0  0
 14 15  1  0  0  0  0
 14 16  1  0  0  0  0
 14 17  1  0  0  0  0
 17 18  1  0  0  0  0
 18 19  1  0  0  0  0
 18 20  1  0  0  0  0
 18 21  1  0  0  0  0
 22 23  2  0  0  0  0
 22 24  1  0  0  0  0
 24 25  1  0  0  0  0
 24 26  1  0  0  0  0
 26 27  1  0  0  0  0
 26 28  1  0  0  0  0
 26 29  1  0  0  0  0
M  END
$$$$

  -OEChem-02102214153D

 29 28  0     1  0  0  0  0  0999 V2000
   -3.1906   -3.4361    1.3218 H   0  0  0  0  0  0  0  0  0  0  0  0
   -3.1771   -2.4645    0.8200 C   0  0  0  0  0  0  0  0  0  0  0  0
   -3.8764   -1.7959    1.3280 H   0  0  0  0  0  0  0  0  0  0  0  0
   -3.4986   -2.5986   -0.2157 H   0  0  0  0  0  0  0  0  0  0  0  0
   -1.7790   -1.8771    0.8559 C   0  0  0  0  0  0  0  0  0  0  0  0
   -0.8732   -2.4838    1.4061 O   0  0  0  0  0  0  0  0  0  0  0  0
   -1.5349   -0.6499    0.2766 N   0  0  0  0  0  0  0  0  0  0  0  0
   -2.3334   -0.1315   -0.0871 H   0  0  0  0  0  0  0  0  0  0  0  0
   -0.2516    0.0611    0.3486 C   0  0  1  0  0  0  0  0  0  0  0  0
    0.3740   -0.3533    1.1444 H   0  0  0  0  0  0  0  0  0  0  0  0
    0.4541   -0.1245   -1.0083 C   0  0  0  0  0  0  0  0  0  0  0  0
    0.5599   -1.1919   -1.2278 H   0  0  0  0  0  0  0  0  0  0  0  0
   -0.1897    0.2987   -1.7870 H   0  0  0  0  0  0  0  0  0  0  0  0
    1.8273    0.5640   -1.0968 C   0  0  0  0  0  0  0  0  0  0  0  0
    1.9056    1.0753   -2.0618 H   0  0  0  0  0  0  0  0  0  0  0  0
    1.9515    1.3222   -0.3197 H   0  0  0  0  0  0  0  0  0  0  0  0
    3.1983   -0.6599   -0.9835 S   0  0  0  0  0  0  0  0  0  0  0  0
    2.8832   -1.5717    0.5820 C   0  0  0  0  0  0  0  0  0  0  0  0
    1.9471   -2.1350    0.5191 H   0  0  0  0  0  0  0  0  0  0  0  0
    3.6967   -2.2779    0.7726 H   0  0  0  0  0  0  0  0  0  0  0  0
    2.8221   -0.8753    1.4228 H   0  0  0  0  0  0  0  0  0  0  0  0
   -0.5051    1.5475    0.6786 C   0  0  0  0  0  0  0  0  0  0  0  0
   -1.4139    2.1494    0.1182 O   0  0  0  0  0  0  0  0  0  0  0  0
    0.2568    2.2005    1.6303 N   0  0  0  0  0  0  0  0  0  0  0  0
    0.9546    1.6564    2.1299 H   0  0  0  0  0  0  0  0  0  0  0  0
    0.0230    3.5832    2.0294 C   0  0  0  0  0  0  0  0  0  0  0  0
   -0.9791    3.6953    2.4566 H   0  0  0  0  0  0  0  0  0  0  0  0
    0.7561    3.8885    2.7822 H   0  0  0  0  0  0  0  0  0  0  0  0
    0.1151    4.2520    1.1672 H   0  0  0  0  0  0  0  0  0  0  0  0
  1  2  1  0  0  0  0
  2  3  1  0  0  0  0
  2  4  1  0  0  0  0
  2  5  1  0  0  0  0
  5  6  2  0  0  0  0
  5  7  1  0  0  0  0
  7  8  1  0  0  0  0
  7  9  1  0  0  0  0
  9 10  1  0  0  0  0
  9 11  1  0  0  0  0
  9 22  1  0  0  0  0
 11 12  1  0  0  0  0
 11 13  1  0  0  0  0
 11 14  1  0  0  0  0
 14 15  1  0  0  0  0
 14 16  1  0  0  0  0
 14 17  1  0  0  0  0
 17 18  1  0  0  0  0
 18 19  1  0  0  0  0
 18 20  1  0  0  0  0
 18 21  1  0  0  0  0
 22 23  2  0  0  0  0
 22 24  1  0  0  0  0
 24 25  1  0  0  0  0
 24 26  1  0  0  0  0
 26 27  1  0  0  0  0
 26 28  1  0  0  0  0
 26 29  1  0  0  0  0
M  END
$$$$

  -OEChem-02102214153D

 29 28  0     1  0  0  0  0  0999 V2000
   -3.2477   -3.4431    1.2821 H   0  0  0  0  0  0  0  0  0  0  0  0
   -3.2227   -2.4693    0.7848 C   0  0  0  0  0  0  0  0  0  0  0  0
   -3.9175   -1.7963    1.2929 H   0  0  0  0  0  0  0  0  0  0  0  0
   -3.5412   -2.5959   -0.2528 H   0  0  0  0  0  0  0  0  0  0  0  0
   -1.8190   -1.8958    0.8287 C   0  0  0  0  0  0  0  0  0  0  0  0
   -0.9181   -2.5212    1.3658 O   0  0  0  0  0  0  0  0  0  0  0  0
   -1.5617   -0.6647    0.2634 N   0  0  0  0  0  0  0  0  0  0  0  0
   -2.3543   -0.1342   -0.0952 H   0  0  0  0  0  0  0  0  0  0  0  0
   -0.2684    0.0283    0.3335 C   0  0  1  0  0  0  0  0  0  0  0  0
    0.3625   -0.4094    1.1138 H   0  0  0  0  0  0  0  0  0  0  0  0
    0.4216   -0.1479   -1.0298 C   0  0  0  0  0  0  0  0  0  0  0  0
    0.5149   -1.2163   -1.2491 H   0  0  0  0  0  0  0  0  0  0  0  0
   -0.2179    0.2810   -1.8087 H   0  0  0  0  0  0  0  0  0  0  0  0
    1.8012    0.5294   -1.1048 C   0  0  0  0  0  0  0  0  0  0  0  0
    1.7921    1.2804   -1.9016 H   0  0  0  0  0  0  0  0  0  0  0  0
    2.0480    1.0441   -0.1723 H   0  0  0  0  0  0  0  0  0  0  0  0
    3.1137   -0.7081   -1.4604 S   0  0  0  0  0  0  0  0  0  0  0  0
    3.0753   -1.7826    0.0321 C   0  0  0  0  0  0  0  0  0  0  0  0
    2.0996   -2.2669    0.1371 H   0  0  0  0  0  0  0  0  0  0  0  0
    3.8398   -2.5608   -0.0484 H   0  0  0  0  0  0  0  0  0  0  0  0
    3.2724   -1.1910    0.9306 H   0  0  0  0  0  0  0  0  0  0  0  0
   -0.4919    1.5150    0.6837 C   0  0  0  0  0  0  0  0  0  0  0  0
   -1.3916    2.1406    0.1349 O   0  0  0  0  0  0  0  0  0  0  0  0
    0.2898    2.1433    1.6359 N   0  0  0  0  0  0  0  0  0  0  0  0
    0.9737    1.5781    2.1313 H   0  0  0  0  0  0  0  0  0  0  0  0
    0.0842    3.5253    2.0526 C   0  0  0  0  0  0  0  0  0  0  0  0
   -0.9171    3.6531    2.4772 H   0  0  0  0  0  0  0  0  0  0  0  0
    0.8199    3.8049    2.8127 H   0  0  0  0  0  0  0  0  0  0  0  0
    0.1947    4.2035    1.2000 H   0  0  0  0  0  0  0  0  0  0  0  0
  1  2  1  0  0  0  0
  2  3  1  0  0  0  0
  2  4  1  0  0  0  0
  2  5  1  0  0  0  0
  5  6  2  0  0  0  0
  5  7  1  0  0  0  0
  7  8  1  0  0  0  0
  7  9  1  0  0  0  0
  9 10  1  0  0  0  0
  9 11  1  0  0  0  0
  9 22  1  0  0  0  0
 11 12  1  0  0  0  0
 11 13  1  0  0  0  0
 11 14  1  0  0  0  0
 14 15  1  0  0  0  0
 14 16  1  0  0  0  0
 14 17  1  0  0  0  0
 17 18  1  0  0  0  0
 18 19  1  0  0  0  0
 18 20  1  0  0  0  0
 18 21  1  0  0  0  0
 22 23  2  0  0  0  0
 22 24  1  0  0  0  0
 24 25  1  0  0  0  0
 24 26  1  0  0  0  0
 26 27  1  0  0  0  0
 26 28  1  0  0  0  0
 26 29  1  0  0  0  0
M  END
$$$$

  -OEChem-02102214153D

 29 28  0     1  0  0  0  0  0999 V2000
   -3.3176   -3.4348    1.2651 H   0  0  0  0  0  0  0  0  0  0  0  0
   -3.2812   -2.4619    0.7669 C   0  0  0  0  0  0  0  0  0  0  0  0
   -3.9689   -1.7807    1.2738 H   0  0  0  0  0  0  0  0  0  0  0  0
   -3.5996   -2.5854   -0.2710 H   0  0  0  0  0  0  0  0  0  0  0  0
   -1.8711   -1.9048    0.8121 C   0  0  0  0  0  0  0  0  0  0  0  0
   -0.9763   -2.5448    1.3417 O   0  0  0  0  0  0  0  0  0  0  0  0
   -1.6019   -0.6725    0.2552 N   0  0  0  0  0  0  0  0  0  0  0  0
   -2.3897   -0.1326   -0.0998 H   0  0  0  0  0  0  0  0  0  0  0  0
   -0.3009    0.0061    0.3217 C   0  0  1  0  0  0  0  0  0  0  0  0
    0.3275   -0.4476    1.0951 H   0  0  0  0  0  0  0  0  0  0  0  0
    0.3838   -0.1633   -1.0439 C   0  0  0  0  0  0  0  0  0  0  0  0
    0.4802   -1.2340   -1.2485 H   0  0  0  0  0  0  0  0  0  0  0  0
   -0.2494    0.2586   -1.8317 H   0  0  0  0  0  0  0  0  0  0  0  0
    1.7663    0.5067   -1.1035 C   0  0  0  0  0  0  0  0  0  0  0  0
    1.6944    1.4418   -1.6688 H   0  0  0  0  0  0  0  0  0  0  0  0
    2.1261    0.7527   -0.1001 H   0  0  0  0  0  0  0  0  0  0  0  0
    2.9965   -0.6056   -1.8954 S   0  0  0  0  0  0  0  0  0  0  0  0
    3.2373   -1.9046   -0.6162 C   0  0  0  0  0  0  0  0  0  0  0  0
    2.2980   -2.4273   -0.4122 H   0  0  0  0  0  0  0  0  0  0  0  0
    3.9733   -2.6365   -0.9619 H   0  0  0  0  0  0  0  0  0  0  0  0
    3.5995   -1.4580    0.3144 H   0  0  0  0  0  0  0  0  0  0  0  0
   -0.4929    1.4934    0.6839 C   0  0  0  0  0  0  0  0  0  0  0  0
   -1.3841    2.1410    0.1471 O   0  0  0  0  0  0  0  0  0  0  0  0
    0.3103    2.0978    1.6336 N   0  0  0  0  0  0  0  0  0  0  0  0
    0.9855    1.5144    2.1196 H   0  0  0  0  0  0  0  0  0  0  0  0
    0.1422    3.4826    2.0570 C   0  0  0  0  0  0  0  0  0  0  0  0
   -0.8528    3.6335    2.4887 H   0  0  0  0  0  0  0  0  0  0  0  0
    0.8901    3.7404    2.8131 H   0  0  0  0  0  0  0  0  0  0  0  0
    0.2641    4.1613    1.2061 H   0  0  0  0  0  0  0  0  0  0  0  0
  1  2  1  0  0  0  0
  2  3  1  0  0  0  0
  2  4  1  0  0  0  0
  2  5  1  0  0  0  0
  5  6  2  0  0  0  0
  5  7  1  0  0  0  0
  7  8  1  0  0  0  0
  7  9  1  0  0  0  0
  9 10  1  0  0  0  0
  9 11  1  0  0  0  0
  9 22  1  0  0  0  0
 11 12  1  0  0  0  0
 11 13  1  0  0  0  0
 11 14  1  0  0  0  0
 14 15  1  0  0  0  0
 14 16  1  0  0  0  0
 14 17  1  0  0  0  0
 17 18  1  0  0  0  0
 18 19  1  0  0  0  0
 18 20  1  0  0  0  0
 18 21  1  0  0  0  0
 22 23  2  0  0  0  0
 22 24  1  0  0  0  0
 24 25  1  0  0  0  0
 24 26  1  0  0  0  0
 26 27  1  0  0  0  0
 26 28  1  0  0  0  0
 26 29  1  0  0  0  0
M  END
$$$$

  -OEChem-02102214153D

 29 28  0     1  0  0  0  0  0999 V2000
   -3.3644   -3.4234    1.2712 H   0  0  0  0  0  0  0  0  0  0  0  0
   -3.3192   -2.4529    0.7690 C   0  0  0  0  0  0  0  0  0  0  0  0
   -4.0000   -1.7634    1.2741 H   0  0  0  0  0  0  0  0  0  0  0  0
   -3.6406   -2.5777   -0.2679 H   0  0  0  0  0  0  0  0  0  0  0  0
   -1.9037   -1.9079    0.8096 C   0  0  0  0  0  0  0  0  0  0  0  0
   -1.0116   -2.5585    1.3307 O   0  0  0  0  0  0  0  0  0  0  0  0
   -1.6264   -0.6752    0.2572 N   0  0  0  0  0  0  0  0  0  0  0  0
   -2.4122   -0.1273   -0.0901 H   0  0  0  0  0  0  0  0  0  0  0  0
   -0.3204   -0.0054    0.3202 C   0  0  1  0  0  0  0  0  0  0  0  0
    0.3059   -0.4671    1.0908 H   0  0  0  0  0  0  0  0  0  0  0  0
    0.3600   -0.1726   -1.0473 C   0  0  0  0  0  0  0  0  0  0  0  0
    0.4598   -1.2438   -1.2454 H   0  0  0  0  0  0  0  0  0  0  0  0
   -0.2700    0.2482   -1.8380 H   0  0  0  0  0  0  0  0  0  0  0  0
    1.7429    0.4917   -1.0987 C   0  0  0  0  0  0  0  0  0  0  0  0
    1.6369    1.5368   -1.4086 H   0  0  0  0  0  0  0  0  0  0  0  0
    2.2110    0.4815   -0.1095 H   0  0  0  0  0  0  0  0  0  0  0  0
    2.8484   -0.3983   -2.2670 S   0  0  0  0  0  0  0  0  0  0  0  0
    3.2872   -1.9224   -1.3371 C   0  0  0  0  0  0  0  0  0  0  0  0
    2.3948   -2.5191   -1.1278 H   0  0  0  0  0  0  0  0  0  0  0  0
    3.9808   -2.5311   -1.9248 H   0  0  0  0  0  0  0  0  0  0  0  0
    3.7672   -1.6635   -0.3890 H   0  0  0  0  0  0  0  0  0  0  0  0
   -0.4945    1.4823    0.6888 C   0  0  0  0  0  0  0  0  0  0  0  0
   -1.3824    2.1408    0.1600 O   0  0  0  0  0  0  0  0  0  0  0  0
    0.3203    2.0753    1.6358 N   0  0  0  0  0  0  0  0  0  0  0  0
    0.9935    1.4847    2.1157 H   0  0  0  0  0  0  0  0  0  0  0  0
    0.1764    3.4641    2.0552 C   0  0  0  0  0  0  0  0  0  0  0  0
   -0.8145    3.6330    2.4900 H   0  0  0  0  0  0  0  0  0  0  0  0
    0.9314    3.7126    2.8075 H   0  0  0  0  0  0  0  0  0  0  0  0
    0.3059    4.1373    1.2011 H   0  0  0  0  0  0  0  0  0  0  0  0
  1  2  1  0  0  0  0
  2  3  1  0  0  0  0
  2  4  1  0  0  0  0
  2  5  1  0  0  0  0
  5  6  2  0  0  0  0
  5  7  1  0  0  0  0
  7  8  1  0  0  0  0
  7  9  1  0  0  0  0
  9 10  1  0  0  0  0
  9 11  1  0  0  0  0
  9 22  1  0  0  0  0
 11 12  1  0  0  0  0
 11 13  1  0  0  0  0
 11 14  1  0  0  0  0
 14 15  1  0  0  0  0
 14 16  1  0  0  0  0
 14 17  1  0  0  0  0
 17 18  1  0  0  0  0
 18 19  1  0  0  0  0
 18 20  1  0  0  0  0
 18 21  1  0  0  0  0
 22 23  2  0  0  0  0
 22 24  1  0  0  0  0
 24 25  1  0  0  0  0
 24 26  1  0  0  0  0
 26 27  1  0  0  0  0
 26 28  1  0  0  0  0
 26 29  1  0  0  0  0
M  END
$$$$

  -OEChem-02102214153D

 29 28  0     1  0  0  0  0  0999 V2000
   -3.3693   -3.4152    1.2815 H   0  0  0  0  0  0  0  0  0  0  0  0
   -3.3232   -2.4444    0.7801 C   0  0  0  0  0  0  0  0  0  0  0  0
   -3.9968   -1.7521    1.2910 H   0  0  0  0  0  0  0  0  0  0  0  0
   -3.6529   -2.5664   -0.2544 H   0  0  0  0  0  0  0  0  0  0  0  0
   -1.9052   -1.9066    0.8111 C   0  0  0  0  0  0  0  0  0  0  0  0
   -1.0126   -2.5620    1.3252 O   0  0  0  0  0  0  0  0  0  0  0  0
   -1.6271   -0.6742    0.2589 N   0  0  0  0  0  0  0  0  0  0  0  0
   -2.4132   -0.1229   -0.0823 H   0  0  0  0  0  0  0  0  0  0  0  0
   -0.3200   -0.0066    0.3191 C   0  0  1  0  0  0  0  0  0  0  0  0
    0.3057   -0.4678    1.0904 H   0  0  0  0  0  0  0  0  0  0  0  0
    0.3612   -0.1796   -1.0476 C   0  0  0  0  0  0  0  0  0  0  0  0
    0.4618   -1.2507   -1.2447 H   0  0  0  0  0  0  0  0  0  0  0  0
   -0.2684    0.2445   -1.8371 H   0  0  0  0  0  0  0  0  0  0  0  0
    1.7437    0.4824   -1.0981 C   0  0  0  0  0  0  0  0  0  0  0  0
    1.6312    1.5700   -1.1604 H   0  0  0  0  0  0  0  0  0  0  0  0
    2.3090    0.2516   -0.1897 H   0  0  0  0  0  0  0  0  0  0  0  0
    2.6907   -0.1144   -2.5556 S   0  0  0  0  0  0  0  0  0  0  0  0
    3.1943   -1.8114   -2.0604 C   0  0  0  0  0  0  0  0  0  0  0  0
    2.3172   -2.4490   -1.9194 H   0  0  0  0  0  0  0  0  0  0  0  0
    3.8234   -2.2551   -2.8378 H   0  0  0  0  0  0  0  0  0  0  0  0
    3.7623   -1.7820   -1.1260 H   0  0  0  0  0  0  0  0  0  0  0  0
   -0.4935    1.4806    0.6892 C   0  0  0  0  0  0  0  0  0  0  0  0
   -1.3872    2.1381    0.1690 O   0  0  0  0  0  0  0  0  0  0  0  0
    0.3240    2.0714    1.6352 N   0  0  0  0  0  0  0  0  0  0  0  0
    1.0044    1.4813    2.1055 H   0  0  0  0  0  0  0  0  0  0  0  0
    0.1767    3.4571    2.0639 C   0  0  0  0  0  0  0  0  0  0  0  0
   -0.8132    3.6197    2.5031 H   0  0  0  0  0  0  0  0  0  0  0  0
    0.9332    3.7029    2.8154 H   0  0  0  0  0  0  0  0  0  0  0  0
    0.3011    4.1364    1.2140 H   0  0  0  0  0  0  0  0  0  0  0  0
  1  2  1  0  0  0  0
  2  3  1  0  0  0  0
  2  4  1  0  0  0  0
  2  5  1  0  0  0  0
  5  6  2  0  0  0  0
  5  7  1  0  0  0  0
  7  8  1  0  0  0  0
  7  9  1  0  0  0  0
  9 10  1  0  0  0  0
  9 11  1  0  0  0  0
  9 22  1  0  0  0  0
 11 12  1  0  0  0  0
 11 13  1  0  0  0  0
 11 14  1  0  0  0  0
 14 15  1  0  0  0  0
 14 16  1  0  0  0  0
 14 17  1  0  0  0  0
 17 18  1  0  0  0  0
 18 19  1  0  0  0  0
 18 20  1  0  0  0  0
 18 21  1  0  0  0  0
 22 23  2  0  0  0  0
 22 24  1  0  0  0  0
 24 25  1  0  0  0  0
 24 26  1  0  0  0  0
 26 27  1  0  0  0  0
 26 28  1  0  0  0  0
 26 29  1  0  0  0  0
M  END
$$$$

  -OEChem-02102214153D

 29 28  0     1  0  0  0  0  0999 V2000
   -3.3673   -3.4168    1.2999 H   0  0  0  0  0  0  0  0  0  0  0  0
   -3.3229   -2.4487    0.7932 C   0  0  0  0  0  0  0  0  0  0  0  0
   -3.9891   -1.7518    1.3073 H   0  0  0  0  0  0  0  0  0  0  0  0
   -3.6628   -2.5746   -0.2375 H   0  0  0  0  0  0  0  0  0  0  0  0
   -1.9028   -1.9157    0.8088 C   0  0  0  0  0  0  0  0  0  0  0  0
   -1.0079   -2.5739    1.3150 O   0  0  0  0  0  0  0  0  0  0  0  0
   -1.6260   -0.6833    0.2556 N   0  0  0  0  0  0  0  0  0  0  0  0
   -2.4144   -0.1290   -0.0755 H   0  0  0  0  0  0  0  0  0  0  0  0
   -0.3201   -0.0122    0.3153 C   0  0  1  0  0  0  0  0  0  0  0  0
    0.2955   -0.4771    1.0924 H   0  0  0  0  0  0  0  0  0  0  0  0
    0.3759   -0.1862   -1.0445 C   0  0  0  0  0  0  0  0  0  0  0  0
    0.2662   -1.2259   -1.3665 H   0  0  0  0  0  0  0  0  0  0  0  0
   -0.1091    0.4471   -1.7954 H   0  0  0  0  0  0  0  0  0  0  0  0
    1.8686    0.1515   -0.9661 C   0  0  0  0  0  0  0  0  0  0  0  0
    1.9988    1.1913   -0.6498 H   0  0  0  0  0  0  0  0  0  0  0  0
    2.3629   -0.4915   -0.2308 H   0  0  0  0  0  0  0  0  0  0  0  0
    2.6674   -0.0671   -2.6065 S   0  0  0  0  0  0  0  0  0  0  0  0
    2.6947   -1.8919   -2.8221 C   0  0  0  0  0  0  0  0  0  0  0  0
    1.6773   -2.2865   -2.8921 H   0  0  0  0  0  0  0  0  0  0  0  0
    3.2306   -2.1512   -3.7400 H   0  0  0  0  0  0  0  0  0  0  0  0
    3.2002   -2.3669   -1.9762 H   0  0  0  0  0  0  0  0  0  0  0  0
   -0.4851    1.4763    0.6829 C   0  0  0  0  0  0  0  0  0  0  0  0
   -1.3903    2.1304    0.1785 O   0  0  0  0  0  0  0  0  0  0  0  0
    0.3363    2.0662    1.6261 N   0  0  0  0  0  0  0  0  0  0  0  0
    1.0282    1.4797    2.0840 H   0  0  0  0  0  0  0  0  0  0  0  0
    0.1936    3.4532    2.0522 C   0  0  0  0  0  0  0  0  0  0  0  0
   -0.7943    3.6188    2.4948 H   0  0  0  0  0  0  0  0  0  0  0  0
    0.9534    3.7001    2.7999 H   0  0  0  0  0  0  0  0  0  0  0  0
    0.3156    4.1298    1.1998 H   0  0  0  0  0  0  0  0  0  0  0  0
  1  2  1  0  0  0  0
  2  3  1  0  0  0  0
  2  4  1  0  0  0  0
  2  5  1  0  0  0  0
  5  6  2  0  0  0  0
  5  7  1  0  0  0  0
  7  8  1  0  0  0  0
  7  9  1  0  0  0  0
  9 10  1  0  0  0  0
  9 11  1  0  0  0  0
  9 22  1  0  0  0  0
 11 12  1  0  0  0  0
 11 13  1  0  0  0  0
 11 14  1  0  0  0  0
 14 15  1  0  0  0  0
 14 16  1  0  0  0  0
 14 17  1  0  0  0  0
 17 18  1  0  0  0  0
 18 19  1  0  0  0  0
 18 20  1  0  0  0  0
 18 21  1  0  0  0  0
 22 23  2  0  0  0  0
 22 24  1  0  0  0  0
 24 25  1  0  0  0  0
 24 26  1  0  0  0  0
 26 27  1  0  0  0  0
 26 28  1  0  0  0  0
 26 29  1  0  0  0  0
M  END
$$$$

  -OEChem-02102214153D

 29 28  0     1  0  0  0  0  0999 V2000
   -3.3478   -3.4216    1.2706 H   0  0  0  0  0  0  0  0  0  0  0  0
   -3.3005   -2.4457    0.7793 C   0  0  0  0  0  0  0  0  0  0  0  0
   -3.9611   -1.7533    1.3068 H   0  0  0  0  0  0  0  0  0  0  0  0
   -3.6448   -2.5531   -0.2521 H   0  0  0  0  0  0  0  0  0  0  0  0
   -1.8783   -1.9189    0.7978 C   0  0  0  0  0  0  0  0  0  0  0  0
   -0.9872   -2.5765    1.3116 O   0  0  0  0  0  0  0  0  0  0  0  0
   -1.5968   -0.6901    0.2395 N   0  0  0  0  0  0  0  0  0  0  0  0
   -2.3834   -0.1342   -0.0936 H   0  0  0  0  0  0  0  0  0  0  0  0
   -0.2937   -0.0158    0.3157 C   0  0  1  0  0  0  0  0  0  0  0  0
    0.3103   -0.4715    1.1072 H   0  0  0  0  0  0  0  0  0  0  0  0
    0.4241   -0.2067   -1.0301 C   0  0  0  0  0  0  0  0  0  0  0  0
    0.3185   -1.2469   -1.3539 H   0  0  0  0  0  0  0  0  0  0  0  0
   -0.0532    0.4277   -1.7852 H   0  0  0  0  0  0  0  0  0  0  0  0
    1.9168    0.1318   -0.9392 C   0  0  0  0  0  0  0  0  0  0  0  0
    2.0585    1.0752   -0.4035 H   0  0  0  0  0  0  0  0  0  0  0  0
    2.4464   -0.6519   -0.3879 H   0  0  0  0  0  0  0  0  0  0  0  0
    2.6391    0.3229   -2.6179 S   0  0  0  0  0  0  0  0  0  0  0  0
    2.4931   -1.3670   -3.3235 C   0  0  0  0  0  0  0  0  0  0  0  0
    1.4415   -1.6428   -3.4431 H   0  0  0  0  0  0  0  0  0  0  0  0
    2.9754   -1.4050   -4.3047 H   0  0  0  0  0  0  0  0  0  0  0  0
    2.9775   -2.0957   -2.6669 H   0  0  0  0  0  0  0  0  0  0  0  0
   -0.4736    1.4748    0.6697 C   0  0  0  0  0  0  0  0  0  0  0  0
   -1.3840    2.1158    0.1577 O   0  0  0  0  0  0  0  0  0  0  0  0
    0.3288    2.0746    1.6230 N   0  0  0  0  0  0  0  0  0  0  0  0
    1.0217    1.4960    2.0893 H   0  0  0  0  0  0  0  0  0  0  0  0
    0.1593    3.4570    2.0540 C   0  0  0  0  0  0  0  0  0  0  0  0
   -0.8298    3.6007    2.5017 H   0  0  0  0  0  0  0  0  0  0  0  0
    0.9173    3.7164    2.7993 H   0  0  0  0  0  0  0  0  0  0  0  0
    0.2641    4.1391    1.2036 H   0  0  0  0  0  0  0  0  0  0  0  0
  1  2  1  0  0  0  0
  2  3  1  0  0  0  0
  2  4  1  0  0  0  0
  2  5  1  0  0  0  0
  5  6  2  0  0  0  0
  5  7  1  0  0  0  0
  7  8  1  0  0  0  0
  7  9  1  0  0  0  0
  9 10  1  0  0  0  0
  9 11  1  0  0  0  0
  9 22  1  0  0  0  0
 11 12  1  0  0  0  0
 11 13  1  0  0  0  0
 11 14  1  0  0  0  0
 14 15  1  0  0  0  0
 14 16  1  0  0  0  0
 14 17  1  0  0  0  0
 17 18  1  0  0  0  0
 18 19  1  0  0  0  0
 18 20  1  0  0  0  0
 18 21  1  0  0  0  0
 22 23  2  0  0  0  0
 22 24  1  0  0  0  0
 24 25  1  0  0  0  0
 24 26  1  0  0  0  0
 26 27  1  0  0  0  0
 26 28  1  0  0  0  0
 26 29  1  0  0  0  0
M  END
$$$$

  -OEChem-02102214153D

 29 28  0     1  0  0  0  0  0999 V2000
   -3.3582   -3.4152    1.2633 H   0  0  0  0  0  0  0  0  0  0  0  0
   -3.3035   -2.4400    0.7714 C   0  0  0  0  0  0  0  0  0  0  0  0
   -3.9608   -1.7429    1.2967 H   0  0  0  0  0  0  0  0  0  0  0  0
   -3.6462   -2.5463   -0.2607 H   0  0  0  0  0  0  0  0  0  0  0  0
   -1.8781   -1.9221    0.7932 C   0  0  0  0  0  0  0  0  0  0  0  0
   -0.9940   -2.5824    1.3152 O   0  0  0  0  0  0  0  0  0  0  0  0
   -1.5859   -0.6976    0.2314 N   0  0  0  0  0  0  0  0  0  0  0  0
   -2.3678   -0.1376   -0.1063 H   0  0  0  0  0  0  0  0  0  0  0  0
   -0.2806   -0.0284    0.3167 C   0  0  1  0  0  0  0  0  0  0  0  0
    0.3160   -0.4828    1.1146 H   0  0  0  0  0  0  0  0  0  0  0  0
    0.4468   -0.2238   -1.0239 C   0  0  0  0  0  0  0  0  0  0  0  0
    0.3379   -1.2603   -1.3594 H   0  0  0  0  0  0  0  0  0  0  0  0
   -0.0279    0.4180   -1.7745 H   0  0  0  0  0  0  0  0  0  0  0  0
    1.9429    0.1070   -0.9298 C   0  0  0  0  0  0  0  0  0  0  0  0
    2.1164    0.8896   -0.1858 H   0  0  0  0  0  0  0  0  0  0  0  0
    2.5021   -0.7802   -0.6156 H   0  0  0  0  0  0  0  0  0  0  0  0
    2.5757    0.7232   -2.5411 S   0  0  0  0  0  0  0  0  0  0  0  0
    2.3126   -0.7153   -3.6528 C   0  0  0  0  0  0  0  0  0  0  0  0
    1.2454   -0.9345   -3.7494 H   0  0  0  0  0  0  0  0  0  0  0  0
    2.7144   -0.4974   -4.6467 H   0  0  0  0  0  0  0  0  0  0  0  0
    2.8205   -1.5991   -3.2557 H   0  0  0  0  0  0  0  0  0  0  0  0
   -0.4639    1.4645    0.6615 C   0  0  0  0  0  0  0  0  0  0  0  0
   -1.3750    2.1000    0.1435 O   0  0  0  0  0  0  0  0  0  0  0  0
    0.3277    2.0706    1.6200 N   0  0  0  0  0  0  0  0  0  0  0  0
    1.0225    1.4981    2.0906 H   0  0  0  0  0  0  0  0  0  0  0  0
    0.1518    3.4550    2.0422 C   0  0  0  0  0  0  0  0  0  0  0  0
   -0.8425    3.5996    2.4777 H   0  0  0  0  0  0  0  0  0  0  0  0
    0.9008    3.7192    2.7950 H   0  0  0  0  0  0  0  0  0  0  0  0
    0.2656    4.1329    1.1896 H   0  0  0  0  0  0  0  0  0  0  0  0
  1  2  1  0  0  0  0
  2  3  1  0  0  0  0
  2  4  1  0  0  0  0
  2  5  1  0  0  0  0
  5  6  2  0  0  0  0
  5  7  1  0  0  0  0
  7  8  1  0  0  0  0
  7  9  1  0  0  0  0
  9 10  1  0  0  0  0
  9 11  1  0  0  0  0
  9 22  1  0  0  0  0
 11 12  1  0  0  0  0
 11 13  1  0  0  0  0
 11 14  1  0  0  0  0
 14 15  1  0  0  0  0
 14 16  1  0  0  0  0
 14 17  1  0  0  0  0
 17 18  1  0  0  0  0
 18 19  1  0  0  0  0
 18 20  1  0  0  0  0
 18 21  1  0  0  0  0
 22 23  2  0  0  0  0
 22 24  1  0  0  0  0
 24 25  1  0  0  0  0
 24 26  1  0  0  0  0
 26 27  1  0  0  0  0
 26 28  1  0  0  0  0
 26 29  1  0  0  0  0
M  END
$$$$

  -OEChem-02102214153D

 29 28  0     1  0  0  0  0  0999 V2000
   -3.3791   -3.4102    1.2926 H   0  0  0  0  0  0  0  0  0  0  0  0
   -3.3220   -2.4434    0.7845 C   0  0  0  0  0  0  0  0  0  0  0  0
   -3.9786   -1.7366    1.2977 H   0  0  0  0  0  0  0  0  0  0  0  0
   -3.6640   -2.5660   -0.2460 H   0  0  0  0  0  0  0  0  0  0  0  0
   -1.8950   -1.9294    0.7984 C   0  0  0  0  0  0  0  0  0  0  0  0
   -1.0093   -2.5959    1.3099 O   0  0  0  0  0  0  0  0  0  0  0  0
   -1.6019   -0.7044    0.2377 N   0  0  0  0  0  0  0  0  0  0  0  0
   -2.3843   -0.1389   -0.0891 H   0  0  0  0  0  0  0  0  0  0  0  0
   -0.2935   -0.0402    0.3158 C   0  0  1  0  0  0  0  0  0  0  0  0
    0.3080   -0.5006    1.1066 H   0  0  0  0  0  0  0  0  0  0  0  0
    0.4230   -0.2252   -1.0320 C   0  0  0  0  0  0  0  0  0  0  0  0
    0.3107   -1.2600   -1.3720 H   0  0  0  0  0  0  0  0  0  0  0  0
   -0.0612    0.4180   -1.7751 H   0  0  0  0  0  0  0  0  0  0  0  0
    1.9229    0.1008   -0.9478 C   0  0  0  0  0  0  0  0  0  0  0  0
    2.1479    0.6536   -0.0313 H   0  0  0  0  0  0  0  0  0  0  0  0
    2.5022   -0.8279   -0.9195 H   0  0  0  0  0  0  0  0  0  0  0  0
    2.4540    1.1302   -2.3745 S   0  0  0  0  0  0  0  0  0  0  0  0
    2.1875    0.0021   -3.7998 C   0  0  0  0  0  0  0  0  0  0  0  0
    1.1320   -0.2733   -3.8792 H   0  0  0  0  0  0  0  0  0  0  0  0
    2.4893    0.4958   -4.7283 H   0  0  0  0  0  0  0  0  0  0  0  0
    2.7812   -0.9086   -3.6782 H   0  0  0  0  0  0  0  0  0  0  0  0
   -0.4693    1.4527    0.6658 C   0  0  0  0  0  0  0  0  0  0  0  0
   -1.3860    2.0898    0.1592 O   0  0  0  0  0  0  0  0  0  0  0  0
    0.3295    2.0560    1.6199 N   0  0  0  0  0  0  0  0  0  0  0  0
    1.0423    1.4888    2.0692 H   0  0  0  0  0  0  0  0  0  0  0  0
    0.1781    3.4489    2.0233 C   0  0  0  0  0  0  0  0  0  0  0  0
   -0.8182    3.6206    2.4444 H   0  0  0  0  0  0  0  0  0  0  0  0
    0.9232    3.7065    2.7824 H   0  0  0  0  0  0  0  0  0  0  0  0
    0.3170    4.1133    1.1637 H   0  0  0  0  0  0  0  0  0  0  0  0
  1  2  1  0  0  0  0
  2  3  1  0  0  0  0
  2  4  1  0  0  0  0
  2  5  1  0  0  0  0
  5  6  2  0  0  0  0
  5  7  1  0  0  0  0
  7  8  1  0  0  0  0
  7  9  1  0  0  0  0
  9 10  1  0  0  0  0
  9 11  1  0  0  0  0
  9 22  1  0  0  0  0
 11 12  1  0  0  0  0
 11 13  1  0  0  0  0
 11 14  1  0  0  0  0
 14 15  1  0  0  0  0
 14 16  1  0  0  0  0
 14 17  1  0  0  0  0
 17 18  1  0  0  0  0
 18 19  1  0  0  0  0
 18 20  1  0  0  0  0
 18 21  1  0  0  0  0
 22 23  2  0  0  0  0
 22 24  1  0  0  0  0
 24 25  1  0  0  0  0
 24 26  1  0  0  0  0
 26 27  1  0  0  0  0
 26 28  1  0  0  0  0
 26 29  1  0  0  0  0
M  END
$$$$

  -OEChem-02102214153D

 29 28  0     1  0  0  0  0  0999 V2000
   -3.3888   -3.4199    1.3228 H   0  0  0  0  0  0  0  0  0  0  0  0
   -3.3350   -2.4556    0.8098 C   0  0  0  0  0  0  0  0  0  0  0  0
   -3.9883   -1.7466    1.3243 H   0  0  0  0  0  0  0  0  0  0  0  0
   -3.6836   -2.5828   -0.2179 H   0  0  0  0  0  0  0  0  0  0  0  0
   -1.9081   -1.9409    0.8114 C   0  0  0  0  0  0  0  0  0  0  0  0
   -1.0160   -2.6101    1.3080 O   0  0  0  0  0  0  0  0  0  0  0  0
   -1.6222   -0.7148    0.2497 N   0  0  0  0  0  0  0  0  0  0  0  0
   -2.4096   -0.1465   -0.0601 H   0  0  0  0  0  0  0  0  0  0  0  0
   -0.3136   -0.0496    0.3133 C   0  0  1  0  0  0  0  0  0  0  0  0
    0.2949   -0.5125    1.0975 H   0  0  0  0  0  0  0  0  0  0  0  0
    0.3894   -0.2227   -1.0422 C   0  0  0  0  0  0  0  0  0  0  0  0
    0.2830   -1.2622   -1.3694 H   0  0  0  0  0  0  0  0  0  0  0  0
   -0.1084    0.4060   -1.7879 H   0  0  0  0  0  0  0  0  0  0  0  0
    1.8899    0.1075   -0.9680 C   0  0  0  0  0  0  0  0  0  0  0  0
    2.1799    0.3832    0.0503 H   0  0  0  0  0  0  0  0  0  0  0  0
    2.4720   -0.7788   -1.2406 H   0  0  0  0  0  0  0  0  0  0  0  0
    2.3238    1.4868   -2.1026 S   0  0  0  0  0  0  0  0  0  0  0  0
    2.0708    0.7401   -3.7624 C   0  0  0  0  0  0  0  0  0  0  0  0
    1.0261    0.4461   -3.8972 H   0  0  0  0  0  0  0  0  0  0  0  0
    2.3312    1.4637   -4.5406 H   0  0  0  0  0  0  0  0  0  0  0  0
    2.7041   -0.1440   -3.8805 H   0  0  0  0  0  0  0  0  0  0  0  0
   -0.4818    1.4430    0.6677 C   0  0  0  0  0  0  0  0  0  0  0  0
   -1.4108    2.0788    0.1815 O   0  0  0  0  0  0  0  0  0  0  0  0
    0.3307    2.0430    1.6121 N   0  0  0  0  0  0  0  0  0  0  0  0
    1.0746    1.4849    2.0201 H   0  0  0  0  0  0  0  0  0  0  0  0
    0.2031    3.4419    2.0013 C   0  0  0  0  0  0  0  0  0  0  0  0
   -0.7896    3.6343    2.4217 H   0  0  0  0  0  0  0  0  0  0  0  0
    0.9530    3.6942    2.7572 H   0  0  0  0  0  0  0  0  0  0  0  0
    0.3518    4.0949    1.1348 H   0  0  0  0  0  0  0  0  0  0  0  0
  1  2  1  0  0  0  0
  2  3  1  0  0  0  0
  2  4  1  0  0  0  0
  2  5  1  0  0  0  0
  5  6  2  0  0  0  0
  5  7  1  0  0  0  0
  7  8  1  0  0  0  0
  7  9  1  0  0  0  0
  9 10  1  0  0  0  0
  9 11  1  0  0  0  0
  9 22  1  0  0  0  0
 11 12  1  0  0  0  0
 11 13  1  0  0  0  0
 11 14  1  0  0  0  0
 14 15  1  0  0  0  0
 14 16  1  0  0  0  0
 14 17  1  0  0  0  0
 17 18  1  0  0  0  0
 18 19  1  0  0  0  0
 18 20  1  0  0  0  0
 18 21  1  0  0  0  0
 22 23  2  0  0  0  0
 22 24  1  0  0  0  0
 24 25  1  0  0  0  0
 24 26  1  0  0  0  0
 26 27  1  0  0  0  0
 26 28  1  0  0  0  0
 26 29  1  0  0  0  0
M  END
$$$$

  -OEChem-02102214153D

 29 28  0     1  0  0  0  0  0999 V2000
   -3.3840   -3.4368    1.3481 H   0  0  0  0  0  0  0  0  0  0  0  0
   -3.3381   -2.4745    0.8306 C   0  0  0  0  0  0  0  0  0  0  0  0
   -3.9902   -1.7657    1.3467 H   0  0  0  0  0  0  0  0  0  0  0  0
   -3.6941   -2.6076   -0.1939 H   0  0  0  0  0  0  0  0  0  0  0  0
   -1.9131   -1.9546    0.8195 C   0  0  0  0  0  0  0  0  0  0  0  0
   -1.0131   -2.6252    1.2999 O   0  0  0  0  0  0  0  0  0  0  0  0
   -1.6375   -0.7254    0.2594 N   0  0  0  0  0  0  0  0  0  0  0  0
   -2.4307   -0.1568   -0.0344 H   0  0  0  0  0  0  0  0  0  0  0  0
   -0.3304   -0.0556    0.3119 C   0  0  1  0  0  0  0  0  0  0  0  0
    0.2850   -0.5187    1.0901 H   0  0  0  0  0  0  0  0  0  0  0  0
    0.3611   -0.2200   -1.0502 C   0  0  0  0  0  0  0  0  0  0  0  0
    0.2643   -1.2660   -1.3594 H   0  0  0  0  0  0  0  0  0  0  0  0
   -0.1464    0.3908   -1.8032 H   0  0  0  0  0  0  0  0  0  0  0  0
    1.8598    0.1164   -0.9846 C   0  0  0  0  0  0  0  0  0  0  0  0
    2.2192    0.1045    0.0489 H   0  0  0  0  0  0  0  0  0  0  0  0
    2.4228   -0.6482   -1.5297 H   0  0  0  0  0  0  0  0  0  0  0  0
    2.2152    1.7518   -1.7455 S   0  0  0  0  0  0  0  0  0  0  0  0
    1.9503    1.4443   -3.5377 C   0  0  0  0  0  0  0  0  0  0  0  0
    0.9072    1.1813   -3.7340 H   0  0  0  0  0  0  0  0  0  0  0  0
    2.1943    2.3441   -4.1100 H   0  0  0  0  0  0  0  0  0  0  0  0
    2.5908    0.6269   -3.8817 H   0  0  0  0  0  0  0  0  0  0  0  0
   -0.4975    1.4354    0.6734 C   0  0  0  0  0  0  0  0  0  0  0  0
   -1.4413    2.0665    0.2094 O   0  0  0  0  0  0  0  0  0  0  0  0
    0.3241    2.0337    1.6108 N   0  0  0  0  0  0  0  0  0  0  0  0
    1.1075    1.4927    1.9636 H   0  0  0  0  0  0  0  0  0  0  0  0
    0.2172    3.4393    1.9809 C   0  0  0  0  0  0  0  0  0  0  0  0
   -0.7743    3.6530    2.3937 H   0  0  0  0  0  0  0  0  0  0  0  0
    0.9668    3.6894    2.7378 H   0  0  0  0  0  0  0  0  0  0  0  0
    0.3810    4.0782    1.1066 H   0  0  0  0  0  0  0  0  0  0  0  0
  1  2  1  0  0  0  0
  2  3  1  0  0  0  0
  2  4  1  0  0  0  0
  2  5  1  0  0  0  0
  5  6  2  0  0  0  0
  5  7  1  0  0  0  0
  7  8  1  0  0  0  0
  7  9  1  0  0  0  0
  9 10  1  0  0  0  0
  9 11  1  0  0  0  0
  9 22  1  0  0  0  0
 11 12  1  0  0  0  0
 11 13  1  0  0  0  0
 11 14  1  0  0  0  0
 14 15  1  0  0  0  0
 14 16  1  0  0  0  0
 14 17  1  0  0  0  0
 17 18  1  0  0  0  0
 18 19  1  0  0  0  0
 18 20  1  0  0  0  0
 18 21  1  0  0  0  0
 22 23  2  0  0  0  0
 22 24  1  0  0  0  0
 24 25  1  0  0  0  0
 24 26  1  0  0  0  0
 26 27  1  0  0  0  0
 26 28  1  0  0  0  0
 26 29  1  0  0  0  0
M  END
$$$$

  -OEChem-02102214153D

 29 28  0     1  0  0  0  0  0999 V2000
   -3.3739   -3.4375    1.3606 H   0  0  0  0  0  0  0  0  0  0  0  0
   -3.3329   -2.4751    0.8430 C   0  0  0  0  0  0  0  0  0  0  0  0
   -3.9717   -1.7638    1.3721 H   0  0  0  0  0  0  0  0  0  0  0  0
   -3.7089   -2.6056   -0.1745 H   0  0  0  0  0  0  0  0  0  0  0  0
   -1.9056   -1.9628    0.8052 C   0  0  0  0  0  0  0  0  0  0  0  0
   -1.0004   -2.6401    1.2662 O   0  0  0  0  0  0  0  0  0  0  0  0
   -1.6333   -0.7314    0.2477 N   0  0  0  0  0  0  0  0  0  0  0  0
   -2.4291   -0.1548   -0.0230 H   0  0  0  0  0  0  0  0  0  0  0  0
   -0.3262   -0.0615    0.3035 C   0  0  1  0  0  0  0  0  0  0  0  0
    0.2893   -0.5215    1.0834 H   0  0  0  0  0  0  0  0  0  0  0  0
    0.3687   -0.2279   -1.0584 C   0  0  0  0  0  0  0  0  0  0  0  0
    0.2743   -1.2762   -1.3607 H   0  0  0  0  0  0  0  0  0  0  0  0
   -0.1360    0.3757   -1.8182 H   0  0  0  0  0  0  0  0  0  0  0  0
    1.8673    0.1057   -0.9962 C   0  0  0  0  0  0  0  0  0  0  0  0
    2.2796   -0.1706   -0.0206 H   0  0  0  0  0  0  0  0  0  0  0  0
    2.3935   -0.4902   -1.7490 H   0  0  0  0  0  0  0  0  0  0  0  0
    2.2049    1.8818   -1.3382 S   0  0  0  0  0  0  0  0  0  0  0  0
    1.8017    2.0652   -3.1214 C   0  0  0  0  0  0  0  0  0  0  0  0
    0.7319    1.9164   -3.2921 H   0  0  0  0  0  0  0  0  0  0  0  0
    2.0693    3.0697   -3.4622 H   0  0  0  0  0  0  0  0  0  0  0  0
    2.3600    1.3348   -3.7142 H   0  0  0  0  0  0  0  0  0  0  0  0
   -0.5094    1.4265    0.6700 C   0  0  0  0  0  0  0  0  0  0  0  0
   -1.4582    2.0497    0.2042 O   0  0  0  0  0  0  0  0  0  0  0  0
    0.3033    2.0284    1.6125 N   0  0  0  0  0  0  0  0  0  0  0  0
    1.1144    1.5059    1.9291 H   0  0  0  0  0  0  0  0  0  0  0  0
    0.1999    3.4393    1.9624 C   0  0  0  0  0  0  0  0  0  0  0  0
   -0.7972    3.6655    2.3543 H   0  0  0  0  0  0  0  0  0  0  0  0
    0.9372    3.6932    2.7299 H   0  0  0  0  0  0  0  0  0  0  0  0
    0.3843    4.0659    1.0833 H   0  0  0  0  0  0  0  0  0  0  0  0
  1  2  1  0  0  0  0
  2  3  1  0  0  0  0
  2  4  1  0  0  0  0
  2  5  1  0  0  0  0
  5  6  2  0  0  0  0
  5  7  1  0  0  0  0
  7  8  1  0  0  0  0
  7  9  1  0  0  0  0
  9 10  1  0  0  0  0
  9 11  1  0  0  0  0
  9 22  1  0  0  0  0
 11 12  1  0  0  0  0
 11 13  1  0  0  0  0
 11 14  1  0  0  0  0
 14 15  1  0  0  0  0
 14 16  1  0  0  0  0
 14 17  1  0  0  0  0
 17 18  1  0  0  0  0
 18 19  1  0  0  0  0
 18 20  1  0  0  0  0
 18 21  1  0  0  0  0
 22 23  2  0  0  0  0
 22 24  1  0  0  0  0
 24 25  1  0  0  0  0
 24 26  1  0  0  0  0
 26 27  1  0  0  0  0
 26 28  1  0  0  0  0
 26 29  1  0  0  0  0
M  END
$$$$

  -OEChem-02102214153D

 29 28  0     1  0  0  0  0  0999 V2000
   -3.3864   -3.4125    1.2376 H   0  0  0  0  0  0  0  0  0  0  0  0
   -3.3237   -2.4249    0.7722 C   0  0  0  0  0  0  0  0  0  0  0  0
   -3.9545   -1.7305    1.3325 H   0  0  0  0  0  0  0  0  0  0  0  0
   -3.6927   -2.4950   -0.2539 H   0  0  0  0  0  0  0  0  0  0  0  0
   -1.8877   -1.9359    0.7733 C   0  0  0  0  0  0  0  0  0  0  0  0
   -1.0090   -2.6166    1.2780 O   0  0  0  0  0  0  0  0  0  0  0  0
   -1.5790   -0.7199    0.2020 N   0  0  0  0  0  0  0  0  0  0  0  0
   -2.3570   -0.1394   -0.1088 H   0  0  0  0  0  0  0  0  0  0  0  0
   -0.2657   -0.0655    0.2906 C   0  0  1  0  0  0  0  0  0  0  0  0
    0.3246   -0.5119    1.0975 H   0  0  0  0  0  0  0  0  0  0  0  0
    0.4558   -0.2861   -1.0524 C   0  0  0  0  0  0  0  0  0  0  0  0
    0.3445   -1.3408   -1.3260 H   0  0  0  0  0  0  0  0  0  0  0  0
   -0.0274    0.3001   -1.8390 H   0  0  0  0  0  0  0  0  0  0  0  0
    1.9631    0.0118   -1.0023 C   0  0  0  0  0  0  0  0  0  0  0  0
    2.4078   -0.4847   -0.1337 H   0  0  0  0  0  0  0  0  0  0  0  0
    2.4263   -0.4220   -1.8944 H   0  0  0  0  0  0  0  0  0  0  0  0
    2.3892    1.8040   -0.9646 S   0  0  0  0  0  0  0  0  0  0  0  0
    1.4646    2.5457   -2.3692 C   0  0  0  0  0  0  0  0  0  0  0  0
    0.3903    2.5521   -2.1617 H   0  0  0  0  0  0  0  0  0  0  0  0
    1.7899    3.5784   -2.5256 H   0  0  0  0  0  0  0  0  0  0  0  0
    1.6465    1.9786   -3.2869 H   0  0  0  0  0  0  0  0  0  0  0  0
   -0.4652    1.4295    0.6215 C   0  0  0  0  0  0  0  0  0  0  0  0
   -1.3816    2.0476    0.0877 O   0  0  0  0  0  0  0  0  0  0  0  0
    0.3063    2.0561    1.5826 N   0  0  0  0  0  0  0  0  0  0  0  0
    1.1251    1.5538    1.9132 H   0  0  0  0  0  0  0  0  0  0  0  0
    0.2014    3.4805    1.8733 C   0  0  0  0  0  0  0  0  0  0  0  0
   -0.8150    3.7336    2.1935 H   0  0  0  0  0  0  0  0  0  0  0  0
    0.8927    3.7543    2.6761 H   0  0  0  0  0  0  0  0  0  0  0  0
    0.4492    4.0710    0.9849 H   0  0  0  0  0  0  0  0  0  0  0  0
  1  2  1  0  0  0  0
  2  3  1  0  0  0  0
  2  4  1  0  0  0  0
  2  5  1  0  0  0  0
  5  6  2  0  0  0  0
  5  7  1  0  0  0  0
  7  8  1  0  0  0  0
  7  9  1  0  0  0  0
  9 10  1  0  0  0  0
  9 11  1  0  0  0  0
  9 22  1  0  0  0  0
 11 12  1  0  0  0  0
 11 13  1  0  0  0  0
 11 14  1  0  0  0  0
 14 15  1  0  0  0  0
 14 16  1  0  0  0  0
 14 17  1  0  0  0  0
 17 18  1  0  0  0  0
 18 19  1  0  0  0  0
 18 20  1  0  0  0  0
 18 21  1  0  0  0  0
 22 23  2  0  0  0  0
 22 24  1  0  0  0  0
 24 25  1  0  0  0  0
 24 26  1  0  0  0  0
 26 27  1  0  0  0  0
 26 28  1  0  0  0  0
 26 29  1  0  0  0  0
M  END
$$$$

  -OEChem-02102214153D

 29 28  0     1  0  0  0  0  0999 V2000
   -3.3533   -3.4113    1.2833 H   0  0  0  0  0  0  0  0  0  0  0  0
   -3.3013   -2.4418    0.7797 C   0  0  0  0  0  0  0  0  0  0  0  0
   -3.9500   -1.7369    1.3054 H   0  0  0  0  0  0  0  0  0  0  0  0
   -3.6566   -2.5583   -0.2470 H   0  0  0  0  0  0  0  0  0  0  0  0
   -1.8732   -1.9303    0.7774 C   0  0  0  0  0  0  0  0  0  0  0  0
   -0.9776   -2.6158    1.2445 O   0  0  0  0  0  0  0  0  0  0  0  0
   -1.5878   -0.6940    0.2379 N   0  0  0  0  0  0  0  0  0  0  0  0
   -2.3770   -0.1101   -0.0369 H   0  0  0  0  0  0  0  0  0  0  0  0
   -0.2773   -0.0317    0.3219 C   0  0  1  0  0  0  0  0  0  0  0  0
    0.3379   -0.4907    1.1028 H   0  0  0  0  0  0  0  0  0  0  0  0
    0.4031   -0.2338   -1.0496 C   0  0  0  0  0  0  0  0  0  0  0  0
    0.2635   -1.2767   -1.3535 H   0  0  0  0  0  0  0  0  0  0  0  0
   -0.1041    0.3884   -1.7935 H   0  0  0  0  0  0  0  0  0  0  0  0
    1.9146    0.0511   -1.0934 C   0  0  0  0  0  0  0  0  0  0  0  0
    2.4198   -0.6416   -0.4124 H   0  0  0  0  0  0  0  0  0  0  0  0
    2.2803   -0.1624   -2.1029 H   0  0  0  0  0  0  0  0  0  0  0  0
    2.4119    1.7652   -0.6475 S   0  0  0  0  0  0  0  0  0  0  0  0
    1.5498    2.7947   -1.9024 C   0  0  0  0  0  0  0  0  0  0  0  0
    0.4650    2.7233   -1.7817 H   0  0  0  0  0  0  0  0  0  0  0  0
    1.8412    3.8429   -1.7892 H   0  0  0  0  0  0  0  0  0  0  0  0
    1.8148    2.4646   -2.9111 H   0  0  0  0  0  0  0  0  0  0  0  0
   -0.5095    1.4478    0.7047 C   0  0  0  0  0  0  0  0  0  0  0  0
   -1.4450    2.0618    0.1992 O   0  0  0  0  0  0  0  0  0  0  0  0
    0.2581    2.0661    1.6746 N   0  0  0  0  0  0  0  0  0  0  0  0
    1.1011    1.5795    1.9675 H   0  0  0  0  0  0  0  0  0  0  0  0
    0.1187    3.4765    2.0144 C   0  0  0  0  0  0  0  0  0  0  0  0
   -0.8977    3.6893    2.3618 H   0  0  0  0  0  0  0  0  0  0  0  0
    0.8174    3.7435    2.8130 H   0  0  0  0  0  0  0  0  0  0  0  0
    0.3325    4.1029    1.1420 H   0  0  0  0  0  0  0  0  0  0  0  0
  1  2  1  0  0  0  0
  2  3  1  0  0  0  0
  2  4  1  0  0  0  0
  2  5  1  0  0  0  0
  5  6  2  0  0  0  0
  5  7  1  0  0  0  0
  7  8  1  0  0  0  0
  7  9  1  0  0  0  0
  9 10  1  0  0  0  0
  9 11  1  0  0  0  0
  9 22  1  0  0  0  0
 11 12  1  0  0  0  0
 11 13  1  0  0  0  0
 11 14  1  0  0  0  0
 14 15  1  0  0  0  0
 14 16  1  0  0  0  0
 14 17  1  0  0  0  0
 17 18  1  0  0  0  0
 18 19  1  0  0  0  0
 18 20  1  0  0  0  0
 18 21  1  0  0  0  0
 22 23  2  0  0  0  0
 22 24  1  0  0  0  0
 24 25  1  0  0  0  0
 24 26  1  0  0  0  0
 26 27  1  0  0  0  0
 26 28  1  0  0  0  0
 26 29  1  0  0  0  0
M  END
$$$$

  -OEChem-02102214153D

 29 28  0     1  0  0  0  0  0999 V2000
   -3.3227   -3.4520    1.2991 H   0  0  0  0  0  0  0  0  0  0  0  0
   -3.2881   -2.4771    0.8050 C   0  0  0  0  0  0  0  0  0  0  0  0
   -3.9384   -1.7854    1.3461 H   0  0  0  0  0  0  0  0  0  0  0  0
   -3.6551   -2.5872   -0.2182 H   0  0  0  0  0  0  0  0  0  0  0  0
   -1.8659   -1.9493    0.7910 C   0  0  0  0  0  0  0  0  0  0  0  0
   -0.9556   -2.6340    1.2296 O   0  0  0  0  0  0  0  0  0  0  0  0
   -1.6034   -0.6976    0.2759 N   0  0  0  0  0  0  0  0  0  0  0  0
   -2.4034   -0.1168    0.0268 H   0  0  0  0  0  0  0  0  0  0  0  0
   -0.3005   -0.0199    0.3583 C   0  0  1  0  0  0  0  0  0  0  0  0
    0.3376   -0.4848    1.1169 H   0  0  0  0  0  0  0  0  0  0  0  0
    0.3481   -0.1890   -1.0354 C   0  0  0  0  0  0  0  0  0  0  0  0
    0.1926   -1.2197   -1.3719 H   0  0  0  0  0  0  0  0  0  0  0  0
   -0.1835    0.4626   -1.7368 H   0  0  0  0  0  0  0  0  0  0  0  0
    1.8567    0.1012   -1.1530 C   0  0  0  0  0  0  0  0  0  0  0  0
    2.3934   -0.7437   -0.7087 H   0  0  0  0  0  0  0  0  0  0  0  0
    2.1293    0.1359   -2.2126 H   0  0  0  0  0  0  0  0  0  0  0  0
    2.4649    1.6271   -0.3304 S   0  0  0  0  0  0  0  0  0  0  0  0
    1.7490    2.9428   -1.3955 C   0  0  0  0  0  0  0  0  0  0  0  0
    0.6567    2.8845   -1.3999 H   0  0  0  0  0  0  0  0  0  0  0  0
    2.0424    3.9281   -1.0220 H   0  0  0  0  0  0  0  0  0  0  0  0
    2.1096    2.8364   -2.4227 H   0  0  0  0  0  0  0  0  0  0  0  0
   -0.5692    1.4447    0.7780 C   0  0  0  0  0  0  0  0  0  0  0  0
   -1.5207    2.0475    0.2888 O   0  0  0  0  0  0  0  0  0  0  0  0
    0.1870    2.0651    1.7551 N   0  0  0  0  0  0  0  0  0  0  0  0
    1.0507    1.5997    2.0229 H   0  0  0  0  0  0  0  0  0  0  0  0
    0.0036    3.4598    2.1364 C   0  0  0  0  0  0  0  0  0  0  0  0
   -1.0169    3.6290    2.4956 H   0  0  0  0  0  0  0  0  0  0  0  0
    0.6985    3.7259    2.9385 H   0  0  0  0  0  0  0  0  0  0  0  0
    0.1909    4.1184    1.2820 H   0  0  0  0  0  0  0  0  0  0  0  0
  1  2  1  0  0  0  0
  2  3  1  0  0  0  0
  2  4  1  0  0  0  0
  2  5  1  0  0  0  0
  5  6  2  0  0  0  0
  5  7  1  0  0  0  0
  7  8  1  0  0  0  0
  7  9  1  0  0  0  0
  9 10  1  0  0  0  0
  9 11  1  0  0  0  0
  9 22  1  0  0  0  0
 11 12  1  0  0  0  0
 11 13  1  0  0  0  0
 11 14  1  0  0  0  0
 14 15  1  0  0  0  0
 14 16  1  0  0  0  0
 14 17  1  0  0  0  0
 17 18  1  0  0  0  0
 18 19  1  0  0  0  0
 18 20  1  0  0  0  0
 18 21  1  0  0  0  0
 22 23  2  0  0  0  0
 22 24  1  0  0  0  0
 24 25  1  0  0  0  0
 24 26  1  0  0  0  0
 26 27  1  0  0  0  0
 26 28  1  0  0  0  0
 26 29  1  0  0  0  0
M  END
$$$$

  -OEChem-02102214153D

 29 28  0     1  0  0  0  0  0999 V2000
   -3.3054   -3.5135    1.2968 H   0  0  0  0  0  0  0  0  0  0  0  0
   -3.2875   -2.5294    0.8201 C   0  0  0  0  0  0  0  0  0  0  0  0
   -3.9454   -1.8570    1.3761 H   0  0  0  0  0  0  0  0  0  0  0  0
   -3.6575   -2.6269   -0.2033 H   0  0  0  0  0  0  0  0  0  0  0  0
   -1.8736   -1.9796    0.8092 C   0  0  0  0  0  0  0  0  0  0  0  0
   -0.9527   -2.6536    1.2421 O   0  0  0  0  0  0  0  0  0  0  0  0
   -1.6321   -0.7190    0.3062 N   0  0  0  0  0  0  0  0  0  0  0  0
   -2.4413   -0.1495    0.0605 H   0  0  0  0  0  0  0  0  0  0  0  0
   -0.3390   -0.0225    0.3901 C   0  0  1  0  0  0  0  0  0  0  0  0
    0.3137   -0.4863    1.1374 H   0  0  0  0  0  0  0  0  0  0  0  0
    0.2964   -0.1576   -1.0141 C   0  0  0  0  0  0  0  0  0  0  0  0
    0.1409   -1.1798   -1.3759 H   0  0  0  0  0  0  0  0  0  0  0  0
   -0.2533    0.5074   -1.6886 H   0  0  0  0  0  0  0  0  0  0  0  0
    1.8001    0.1522   -1.1659 C   0  0  0  0  0  0  0  0  0  0  0  0
    2.3422   -0.7821   -0.9852 H   0  0  0  0  0  0  0  0  0  0  0  0
    2.0052    0.4463   -2.2004 H   0  0  0  0  0  0  0  0  0  0  0  0
    2.5145    1.4003   -0.0225 S   0  0  0  0  0  0  0  0  0  0  0  0
    2.0383    2.9669   -0.8576 C   0  0  0  0  0  0  0  0  0  0  0  0
    0.9531    3.0198   -0.9863 H   0  0  0  0  0  0  0  0  0  0  0  0
    2.3612    3.8241   -0.2596 H   0  0  0  0  0  0  0  0  0  0  0  0
    2.5106    3.0295   -1.8423 H   0  0  0  0  0  0  0  0  0  0  0  0
   -0.6372    1.4324    0.8271 C   0  0  0  0  0  0  0  0  0  0  0  0
   -1.6005    2.0227    0.3461 O   0  0  0  0  0  0  0  0  0  0  0  0
    0.1064    2.0603    1.8087 N   0  0  0  0  0  0  0  0  0  0  0  0
    0.9763    1.6066    2.0789 H   0  0  0  0  0  0  0  0  0  0  0  0
   -0.1260    3.4347    2.2340 C   0  0  0  0  0  0  0  0  0  0  0  0
   -1.1359    3.5432    2.6432 H   0  0  0  0  0  0  0  0  0  0  0  0
    0.5921    3.7151    3.0105 H   0  0  0  0  0  0  0  0  0  0  0  0
   -0.0114    4.1227    1.3900 H   0  0  0  0  0  0  0  0  0  0  0  0
  1  2  1  0  0  0  0
  2  3  1  0  0  0  0
  2  4  1  0  0  0  0
  2  5  1  0  0  0  0
  5  6  2  0  0  0  0
  5  7  1  0  0  0  0
  7  8  1  0  0  0  0
  7  9  1  0  0  0  0
  9 10  1  0  0  0  0
  9 11  1  0  0  0  0
  9 22  1  0  0  0  0
 11 12  1  0  0  0  0
 11 13  1  0  0  0  0
 11 14  1  0  0  0  0
 14 15  1  0  0  0  0
 14 16  1  0  0  0  0
 14 17  1  0  0  0  0
 17 18  1  0  0  0  0
 18 19  1  0  0  0  0
 18 20  1  0  0  0  0
 18 21  1  0  0  0  0
 22 23  2  0  0  0  0
 22 24  1  0  0  0  0
 24 25  1  0  0  0  0
 24 26  1  0  0  0  0
 26 27  1  0  0  0  0
 26 28  1  0  0  0  0
 26 29  1  0  0  0  0
M  END
$$$$

  -OEChem-02102214153D

 29 28  0     1  0  0  0  0  0999 V2000
   -3.3157   -3.5874    1.2723 H   0  0  0  0  0  0  0  0  0  0  0  0
   -3.3108   -2.5951    0.8126 C   0  0  0  0  0  0  0  0  0  0  0  0
   -3.9752   -1.9407    1.3820 H   0  0  0  0  0  0  0  0  0  0  0  0
   -3.6820   -2.6790   -0.2115 H   0  0  0  0  0  0  0  0  0  0  0  0
   -1.9040   -2.0275    0.8079 C   0  0  0  0  0  0  0  0  0  0  0  0
   -0.9766   -2.6905    1.2433 O   0  0  0  0  0  0  0  0  0  0  0  0
   -1.6798   -0.7603    0.3130 N   0  0  0  0  0  0  0  0  0  0  0  0
   -2.4980   -0.2050    0.0649 H   0  0  0  0  0  0  0  0  0  0  0  0
   -0.4022   -0.0376    0.4142 C   0  0  1  0  0  0  0  0  0  0  0  0
    0.2487   -0.4981    1.1650 H   0  0  0  0  0  0  0  0  0  0  0  0
    0.2537   -0.1355   -0.9821 C   0  0  0  0  0  0  0  0  0  0  0  0
    0.1280   -1.1581   -1.3543 H   0  0  0  0  0  0  0  0  0  0  0  0
   -0.3065    0.5193   -1.6581 H   0  0  0  0  0  0  0  0  0  0  0  0
    1.7526    0.2122   -1.1143 C   0  0  0  0  0  0  0  0  0  0  0  0
    2.2979   -0.7319   -1.2172 H   0  0  0  0  0  0  0  0  0  0  0  0
    1.9125    0.7733   -2.0405 H   0  0  0  0  0  0  0  0  0  0  0  0
    2.5262    1.1140    0.2895 S   0  0  0  0  0  0  0  0  0  0  0  0
    2.4236    2.8494   -0.3064 C   0  0  0  0  0  0  0  0  0  0  0  0
    1.3866    3.1152   -0.5328 H   0  0  0  0  0  0  0  0  0  0  0  0
    2.8009    3.5329    0.4600 H   0  0  0  0  0  0  0  0  0  0  0  0
    3.0233    2.9749   -1.2128 H   0  0  0  0  0  0  0  0  0  0  0  0
   -0.7223    1.4121    0.8524 C   0  0  0  0  0  0  0  0  0  0  0  0
   -1.6893    1.9911    0.3660 O   0  0  0  0  0  0  0  0  0  0  0  0
    0.0041    2.0469    1.8421 N   0  0  0  0  0  0  0  0  0  0  0  0
    0.8641    1.5905    2.1400 H   0  0  0  0  0  0  0  0  0  0  0  0
   -0.2603    3.4093    2.2863 C   0  0  0  0  0  0  0  0  0  0  0  0
   -1.2754    3.4891    2.6891 H   0  0  0  0  0  0  0  0  0  0  0  0
    0.4459    3.6932    3.0724 H   0  0  0  0  0  0  0  0  0  0  0  0
   -0.1545    4.1130    1.4541 H   0  0  0  0  0  0  0  0  0  0  0  0
  1  2  1  0  0  0  0
  2  3  1  0  0  0  0
  2  4  1  0  0  0  0
  2  5  1  0  0  0  0
  5  6  2  0  0  0  0
  5  7  1  0  0  0  0
  7  8  1  0  0  0  0
  7  9  1  0  0  0  0
  9 10  1  0  0  0  0
  9 11  1  0  0  0  0
  9 22  1  0  0  0  0
 11 12  1  0  0  0  0
 11 13  1  0  0  0  0
 11 14  1  0  0  0  0
 14 15  1  0  0  0  0
 14 16  1  0  0  0  0
 14 17  1  0  0  0  0
 17 18  1  0  0  0  0
 18 19  1  0  0  0  0
 18 20  1  0  0  0  0
 18 21  1  0  0  0  0
 22 23  2  0  0  0  0
 22 24  1  0  0  0  0
 24 25  1  0  0  0  0
 24 26  1  0  0  0  0
 26 27  1  0  0  0  0
 26 28  1  0  0  0  0
 26 29  1  0  0  0  0
M  END
$$$$

  -OEChem-02102214153D

 29 28  0     1  0  0  0  0  0999 V2000
   -3.0931   -3.8064    1.4968 H   0  0  0  0  0  0  0  0  0  0  0  0
   -3.2008   -2.7892    1.1104 C   0  0  0  0  0  0  0  0  0  0  0  0
   -3.8105   -2.2103    1.8082 H   0  0  0  0  0  0  0  0  0  0  0  0
   -3.7066   -2.8313    0.1429 H   0  0  0  0  0  0  0  0  0  0  0  0
   -1.8377   -2.1424    0.9534 C   0  0  0  0  0  0  0  0  0  0  0  0
   -0.8284   -2.7738    1.2210 O   0  0  0  0  0  0  0  0  0  0  0  0
   -1.7478   -0.8416    0.5054 N   0  0  0  0  0  0  0  0  0  0  0  0
   -2.6196   -0.3245    0.4001 H   0  0  0  0  0  0  0  0  0  0  0  0
   -0.5072   -0.0526    0.4583 C   0  0  1  0  0  0  0  0  0  0  0  0
    0.2592   -0.5261    1.0805 H   0  0  0  0  0  0  0  0  0  0  0  0
   -0.0486   -0.0195   -1.0150 C   0  0  0  0  0  0  0  0  0  0  0  0
   -0.1515   -1.0326   -1.4187 H   0  0  0  0  0  0  0  0  0  0  0  0
   -0.7365    0.6189   -1.5800 H   0  0  0  0  0  0  0  0  0  0  0  0
    1.3992    0.4334   -1.3083 C   0  0  0  0  0  0  0  0  0  0  0  0
    1.9121   -0.3741   -1.8413 H   0  0  0  0  0  0  0  0  0  0  0  0
    1.3608    1.2892   -1.9894 H   0  0  0  0  0  0  0  0  0  0  0  0
    2.4276    0.8863    0.1521 S   0  0  0  0  0  0  0  0  0  0  0  0
    2.8264    2.6425   -0.2071 C   0  0  0  0  0  0  0  0  0  0  0  0
    3.3746    2.7226   -1.1506 H   0  0  0  0  0  0  0  0  0  0  0  0
    1.9074    3.2318   -0.2821 H   0  0  0  0  0  0  0  0  0  0  0  0
    3.4454    3.0593    0.5929 H   0  0  0  0  0  0  0  0  0  0  0  0
   -0.7911    1.3620    1.0144 C   0  0  0  0  0  0  0  0  0  0  0  0
   -1.8376    1.9295    0.7159 O   0  0  0  0  0  0  0  0  0  0  0  0
    0.0682    1.9706    1.9091 N   0  0  0  0  0  0  0  0  0  0  0  0
    0.9679    1.5172    2.0574 H   0  0  0  0  0  0  0  0  0  0  0  0
   -0.1499    3.3030    2.4573 C   0  0  0  0  0  0  0  0  0  0  0  0
   -1.0988    3.3424    3.0027 H   0  0  0  0  0  0  0  0  0  0  0  0
    0.6561    3.5628    3.1504 H   0  0  0  0  0  0  0  0  0  0  0  0
   -0.1727    4.0485    1.6557 H   0  0  0  0  0  0  0  0  0  0  0  0
  1  2  1  0  0  0  0
  2  3  1  0  0  0  0
  2  4  1  0  0  0  0
  2  5  1  0  0  0  0
  5  6  2  0  0  0  0
  5  7  1  0  0  0  0
  7  8  1  0  0  0  0
  7  9  1  0  0  0  0
  9 10  1  0  0  0  0
  9 11  1  0  0  0  0
  9 22  1  0  0  0  0
 11 12  1  0  0  0  0
 11 13  1  0  0  0  0
 11 14  1  0  0  0  0
 14 15  1  0  0  0  0
 14 16  1  0  0  0  0
 14 17  1  0  0  0  0
 17 18  1  0  0  0  0
 18 19  1  0  0  0  0
 18 20  1  0  0  0  0
 18 21  1  0  0  0  0
 22 23  2  0  0  0  0
 22 24  1  0  0  0  0
 24 25  1  0  0  0  0
 24 26  1  0  0  0  0
 26 27  1  0  0  0  0
 26 28  1  0  0  0  0
 26 29  1  0  0  0  0
M  END
$$$$

  -OEChem-02102214153D

 29 28  0     1  0  0  0  0  0999 V2000
   -3.6482   -3.3993    1.4709 H   0  0  0  0  0  0  0  0  0  0  0  0
   -3.6434   -2.4112    1.0022 C   0  0  0  0  0  0  0  0  0  0  0  0
   -4.3130   -1.7528    1.5610 H   0  0  0  0  0  0  0  0  0  0  0  0
   -4.0084   -2.5059   -0.0234 H   0  0  0  0  0  0  0  0  0  0  0  0
   -2.2380   -1.8403    1.0013 C   0  0  0  0  0  0  0  0  0  0  0  0
   -1.3207   -2.4799    1.4898 O   0  0  0  0  0  0  0  0  0  0  0  0
   -2.0071   -0.6011    0.4419 N   0  0  0  0  0  0  0  0  0  0  0  0
   -2.8231   -0.0669    0.1470 H   0  0  0  0  0  0  0  0  0  0  0  0
   -0.7360    0.1349    0.5209 C   0  0  1  0  0  0  0  0  0  0  0  0
   -0.1318   -0.3014    1.3216 H   0  0  0  0  0  0  0  0  0  0  0  0
   -0.0103   -0.0137   -0.8305 C   0  0  0  0  0  0  0  0  0  0  0  0
   -0.0709   -1.0698   -1.1143 H   0  0  0  0  0  0  0  0  0  0  0  0
   -0.5475    0.5551   -1.5968 H   0  0  0  0  0  0  0  0  0  0  0  0
    1.4852    0.3702   -0.8685 C   0  0  0  0  0  0  0  0  0  0  0  0
    2.0241   -0.3710   -1.4676 H   0  0  0  0  0  0  0  0  0  0  0  0
    1.5739    1.3315   -1.3847 H   0  0  0  0  0  0  0  0  0  0  0  0
    2.3192    0.5401    0.7666 S   0  0  0  0  0  0  0  0  0  0  0  0
    4.0229    0.9908    0.2536 C   0  0  0  0  0  0  0  0  0  0  0  0
    4.4532    0.2001   -0.3683 H   0  0  0  0  0  0  0  0  0  0  0  0
    4.6570    1.1267    1.1349 H   0  0  0  0  0  0  0  0  0  0  0  0
    4.0129    1.9234   -0.3184 H   0  0  0  0  0  0  0  0  0  0  0  0
   -0.9852    1.6171    0.8690 C   0  0  0  0  0  0  0  0  0  0  0  0
   -1.9301    2.2077    0.3557 O   0  0  0  0  0  0  0  0  0  0  0  0
   -0.2188    2.2617    1.8206 N   0  0  0  0  0  0  0  0  0  0  0  0
    0.6078    1.7684    2.1529 H   0  0  0  0  0  0  0  0  0  0  0  0
   -0.4010    3.6606    2.1848 C   0  0  0  0  0  0  0  0  0  0  0  0
   -1.4172    3.8310    2.5556 H   0  0  0  0  0  0  0  0  0  0  0  0
    0.3041    3.9406    2.9733 H   0  0  0  0  0  0  0  0  0  0  0  0
   -0.2284    4.3076    1.3185 H   0  0  0  0  0  0  0  0  0  0  0  0
  1  2  1  0  0  0  0
  2  3  1  0  0  0  0
  2  4  1  0  0  0  0
  2  5  1  0  0  0  0
  5  6  2  0  0  0  0
  5  7  1  0  0  0  0
  7  8  1  0  0  0  0
  7  9  1  0  0  0  0
  9 10  1  0  0  0  0
  9 11  1  0  0  0  0
  9 22  1  0  0  0  0
 11 12  1  0  0  0  0
 11 13  1  0  0  0  0
 11 14  1  0  0  0  0
 14 15  1  0  0  0  0
 14 16  1  0  0  0  0
 14 17  1  0  0  0  0
 17 18  1  0  0  0  0
 18 19  1  0  0  0  0
 18 20  1  0  0  0  0
 18 21  1  0  0  0  0
 22 23  2  0  0  0  0
 22 24  1  0  0  0  0
 24 25  1  0  0  0  0
 24 26  1  0  0  0  0
 26 27  1  0  0  0  0
 26 28  1  0  0  0  0
 26 29  1  0  0  0  0
M  END
$$$$

  -OEChem-02102214153D

 29 28  0     1  0  0  0  0  0999 V2000
   -3.4005   -2.9894    1.6568 H   0  0  0  0  0  0  0  0  0  0  0  0
   -3.3920   -2.0464    1.1030 C   0  0  0  0  0  0  0  0  0  0  0  0
   -4.0668   -1.3425    1.5960 H   0  0  0  0  0  0  0  0  0  0  0  0
   -3.7476   -2.2318    0.0866 H   0  0  0  0  0  0  0  0  0  0  0  0
   -1.9872   -1.4755    1.0640 C   0  0  0  0  0  0  0  0  0  0  0  0
   -1.0722   -2.0717    1.6100 O   0  0  0  0  0  0  0  0  0  0  0  0
   -1.7486   -0.2910    0.3985 N   0  0  0  0  0  0  0  0  0  0  0  0
   -2.5596    0.2133    0.0433 H   0  0  0  0  0  0  0  0  0  0  0  0
   -0.4791    0.4501    0.4354 C   0  0  1  0  0  0  0  0  0  0  0  0
    0.0863    0.0933    1.2986 H   0  0  0  0  0  0  0  0  0  0  0  0
    0.2987    0.1741   -0.8655 C   0  0  0  0  0  0  0  0  0  0  0  0
    0.2566   -0.9048   -1.0481 H   0  0  0  0  0  0  0  0  0  0  0  0
   -0.2025    0.6645   -1.7068 H   0  0  0  0  0  0  0  0  0  0  0  0
    1.7890    0.5725   -0.8549 C   0  0  0  0  0  0  0  0  0  0  0  0
    2.3331   -0.0479   -1.5743 H   0  0  0  0  0  0  0  0  0  0  0  0
    1.8630    1.6089   -1.2002 H   0  0  0  0  0  0  0  0  0  0  0  0
    2.6245    0.4826    0.7856 S   0  0  0  0  0  0  0  0  0  0  0  0
    2.6461   -1.3296    1.0958 C   0  0  0  0  0  0  0  0  0  0  0  0
    3.2034   -1.8425    0.3066 H   0  0  0  0  0  0  0  0  0  0  0  0
    3.1257   -1.5409    2.0559 H   0  0  0  0  0  0  0  0  0  0  0  0
    1.6282   -1.7297    1.1212 H   0  0  0  0  0  0  0  0  0  0  0  0
   -0.6977    1.9604    0.6427 C   0  0  0  0  0  0  0  0  0  0  0  0
   -1.6235    2.5239    0.0692 O   0  0  0  0  0  0  0  0  0  0  0  0
    0.0770    2.6619    1.5462 N   0  0  0  0  0  0  0  0  0  0  0  0
    0.8800    2.1754    1.9406 H   0  0  0  0  0  0  0  0  0  0  0  0
   -0.0740    4.0900    1.7920 C   0  0  0  0  0  0  0  0  0  0  0  0
   -1.0787    4.3095    2.1684 H   0  0  0  0  0  0  0  0  0  0  0  0
    0.6541    4.4234    2.5376 H   0  0  0  0  0  0  0  0  0  0  0  0
    0.0892    4.6576    0.8698 H   0  0  0  0  0  0  0  0  0  0  0  0
  1  2  1  0  0  0  0
  2  3  1  0  0  0  0
  2  4  1  0  0  0  0
  2  5  1  0  0  0  0
  5  6  2  0  0  0  0
  5  7  1  0  0  0  0
  7  8  1  0  0  0  0
  7  9  1  0  0  0  0
  9 10  1  0  0  0  0
  9 11  1  0  0  0  0
  9 22  1  0  0  0  0
 11 12  1  0  0  0  0
 11 13  1  0  0  0  0
 11 14  1  0  0  0  0
 14 15  1  0  0  0  0
 14 16  1  0  0  0  0
 14 17  1  0  0  0  0
 17 18  1  0  0  0  0
 18 19  1  0  0  0  0
 18 20  1  0  0  0  0
 18 21  1  0  0  0  0
 22 23  2  0  0  0  0
 22 24  1  0  0  0  0
 24 25  1  0  0  0  0
 24 26  1  0  0  0  0
 26 27  1  0  0  0  0
 26 28  1  0  0  0  0
 26 29  1  0  0  0  0
M  END
$$$$

  -OEChem-02102214153D

 29 28  0     1  0  0  0  0  0999 V2000
   -3.7048   -3.5387    0.8218 H   0  0  0  0  0  0  0  0  0  0  0  0
   -3.6096   -2.5560    0.3515 C   0  0  0  0  0  0  0  0  0  0  0  0
   -4.4002   -1.9051    0.7325 H   0  0  0  0  0  0  0  0  0  0  0  0
   -3.7289   -2.6699   -0.7285 H   0  0  0  0  0  0  0  0  0  0  0  0
   -2.2511   -1.9566    0.6625 C   0  0  0  0  0  0  0  0  0  0  0  0
   -1.4671   -2.5644    1.3724 O   0  0  0  0  0  0  0  0  0  0  0  0
   -1.9173   -0.7227    0.1442 N   0  0  0  0  0  0  0  0  0  0  0  0
   -2.6432   -0.2209   -0.3641 H   0  0  0  0  0  0  0  0  0  0  0  0
   -0.6931    0.0280    0.4614 C   0  0  1  0  0  0  0  0  0  0  0  0
   -0.2715   -0.3908    1.3789 H   0  0  0  0  0  0  0  0  0  0  0  0
    0.3063   -0.1387   -0.6986 C   0  0  0  0  0  0  0  0  0  0  0  0
    0.3302   -1.1991   -0.9713 H   0  0  0  0  0  0  0  0  0  0  0  0
   -0.0472    0.4167   -1.5737 H   0  0  0  0  0  0  0  0  0  0  0  0
    1.7505    0.2816   -0.3724 C   0  0  0  0  0  0  0  0  0  0  0  0
    2.4125   -0.0811   -1.1652 H   0  0  0  0  0  0  0  0  0  0  0  0
    1.8059    1.3751   -0.3725 H   0  0  0  0  0  0  0  0  0  0  0  0
    2.3615   -0.3287    1.2522 S   0  0  0  0  0  0  0  0  0  0  0  0
    4.0789    0.3189    1.2557 C   0  0  0  0  0  0  0  0  0  0  0  0
    4.0738    1.4102    1.1799 H   0  0  0  0  0  0  0  0  0  0  0  0
    4.5855    0.0344    2.1828 H   0  0  0  0  0  0  0  0  0  0  0  0
    4.6404   -0.0908    0.4108 H   0  0  0  0  0  0  0  0  0  0  0  0
   -0.9726    1.5158    0.7369 C   0  0  0  0  0  0  0  0  0  0  0  0
   -1.7588    2.1322    0.0265 O   0  0  0  0  0  0  0  0  0  0  0  0
   -0.3811    2.1465    1.8147 N   0  0  0  0  0  0  0  0  0  0  0  0
    0.2644    1.5978    2.3787 H   0  0  0  0  0  0  0  0  0  0  0  0
   -0.6090    3.5455    2.1521 C   0  0  0  0  0  0  0  0  0  0  0  0
   -1.6703    3.7233    2.3551 H   0  0  0  0  0  0  0  0  0  0  0  0
   -0.0366    3.8171    3.0442 H   0  0  0  0  0  0  0  0  0  0  0  0
   -0.2940    4.1939    1.3279 H   0  0  0  0  0  0  0  0  0  0  0  0
  1  2  1  0  0  0  0
  2  3  1  0  0  0  0
  2  4  1  0  0  0  0
  2  5  1  0  0  0  0
  5  6  2  0  0  0  0
  5  7  1  0  0  0  0
  7  8  1  0  0  0  0
  7  9  1  0  0  0  0
  9 10  1  0  0  0  0
  9 11  1  0  0  0  0
  9 22  1  0  0  0  0
 11 12  1  0  0  0  0
 11 13  1  0  0  0  0
 11 14  1  0  0  0  0
 14 15  1  0  0  0  0
 14 16  1  0  0  0  0
 14 17  1  0  0  0  0
 17 18  1  0  0  0  0
 18 19  1  0  0  0  0
 18 20  1  0  0  0  0
 18 21  1  0  0  0  0
 22 23  2  0  0  0  0
 22 24  1  0  0  0  0
 24 25  1  0  0  0  0
 24 26  1  0  0  0  0
 26 27  1  0  0  0  0
 26 28  1  0  0  0  0
 26 29  1  0  0  0  0
M  END
$$$$

  -OEChem-02102214153D

 29 28  0     1  0  0  0  0  0999 V2000
   -3.2293   -3.4495    1.0601 H   0  0  0  0  0  0  0  0  0  0  0  0
   -3.2749   -2.3664    0.9149 C   0  0  0  0  0  0  0  0  0  0  0  0
   -3.4035   -1.8866    1.8882 H   0  0  0  0  0  0  0  0  0  0  0  0
   -4.1360   -2.1321    0.2843 H   0  0  0  0  0  0  0  0  0  0  0  0
   -2.0015   -1.8699    0.2558 C   0  0  0  0  0  0  0  0  0  0  0  0
   -1.1682   -2.6916   -0.0873 O   0  0  0  0  0  0  0  0  0  0  0  0
   -1.8809   -0.5101    0.0222 N   0  0  0  0  0  0  0  0  0  0  0  0
   -2.6642    0.0373    0.3840 H   0  0  0  0  0  0  0  0  0  0  0  0
   -0.7424    0.3425   -0.4147 C   0  0  1  0  0  0  0  0  0  0  0  0
   -0.9836    0.7584   -1.3977 H   0  0  0  0  0  0  0  0  0  0  0  0
    0.5757   -0.4833   -0.6453 C   0  0  0  0  0  0  0  0  0  0  0  0
    0.6681   -1.1442    0.2195 H   0  0  0  0  0  0  0  0  0  0  0  0
    0.3958   -1.1125   -1.5233 H   0  0  0  0  0  0  0  0  0  0  0  0
    2.0141    0.0751   -0.7931 C   0  0  0  0  0  0  0  0  0  0  0  0
    2.6672   -0.7800   -0.9972 H   0  0  0  0  0  0  0  0  0  0  0  0
    2.0241    0.7018   -1.6905 H   0  0  0  0  0  0  0  0  0  0  0  0
    2.8188    1.0444    0.5438 S   0  0  0  0  0  0  0  0  0  0  0  0
    2.7355   -0.1126    1.9690 C   0  0  0  0  0  0  0  0  0  0  0  0
    3.2136   -1.0634    1.7142 H   0  0  0  0  0  0  0  0  0  0  0  0
    1.6950   -0.3056    2.2471 H   0  0  0  0  0  0  0  0  0  0  0  0
    3.2522    0.3179    2.8320 H   0  0  0  0  0  0  0  0  0  0  0  0
   -0.8446    1.5570    0.5617 C   0  0  0  0  0  0  0  0  0  0  0  0
   -1.9705    2.0054    0.7697 O   0  0  0  0  0  0  0  0  0  0  0  0
    0.1761    2.1710    1.2500 N   0  0  0  0  0  0  0  0  0  0  0  0
    1.1150    1.8300    1.0858 H   0  0  0  0  0  0  0  0  0  0  0  0
   -0.0017    3.3020    2.1541 C   0  0  0  0  0  0  0  0  0  0  0  0
   -0.6552    3.0273    2.9886 H   0  0  0  0  0  0  0  0  0  0  0  0
    0.9653    3.6133    2.5608 H   0  0  0  0  0  0  0  0  0  0  0  0
   -0.4430    4.1526    1.6240 H   0  0  0  0  0  0  0  0  0  0  0  0
  1  2  1  0  0  0  0
  2  3  1  0  0  0  0
  2  4  1  0  0  0  0
  2  5  1  0  0  0  0
  5  6  2  0  0  0  0
  5  7  1  0  0  0  0
  7  8  1  0  0  0  0
  7  9  1  0  0  0  0
  9 10  1  0  0  0  0
  9 11  1  0  0  0  0
  9 22  1  0  0  0  0
 11 12  1  0  0  0  0
 11 13  1  0  0  0  0
 11 14  1  0  0  0  0
 14 15  1  0  0  0  0
 14 16  1  0  0  0  0
 14 17  1  0  0  0  0
 17 18  1  0  0  0  0
 18 19  1  0  0  0  0
 18 20  1  0  0  0  0
 18 21  1  0  0  0  0
 22 23  2  0  0  0  0
 22 24  1  0  0  0  0
 24 25  1  0  0  0  0
 24 26  1  0  0  0  0
 26 27  1  0  0  0  0
 26 28  1  0  0  0  0
 26 29  1  0  0  0  0
M  END
$$$$

  -OEChem-02102214153D

 29 28  0     1  0  0  0  0  0999 V2000
   -3.3202   -3.3850    1.0712 H   0  0  0  0  0  0  0  0  0  0  0  0
   -3.3539   -2.3050    0.9017 C   0  0  0  0  0  0  0  0  0  0  0  0
   -3.4785   -1.8025    1.8640 H   0  0  0  0  0  0  0  0  0  0  0  0
   -4.2113   -2.0750    0.2645 H   0  0  0  0  0  0  0  0  0  0  0  0
   -2.0737   -1.8376    0.2343 C   0  0  0  0  0  0  0  0  0  0  0  0
   -1.2632   -2.6778   -0.1188 O   0  0  0  0  0  0  0  0  0  0  0  0
   -1.9175   -0.4804    0.0075 N   0  0  0  0  0  0  0  0  0  0  0  0
   -2.6848    0.0865    0.3724 H   0  0  0  0  0  0  0  0  0  0  0  0
   -0.7513    0.3383   -0.4169 C   0  0  1  0  0  0  0  0  0  0  0  0
   -0.9781    0.7576   -1.4020 H   0  0  0  0  0  0  0  0  0  0  0  0
    0.5492   -0.5107   -0.6404 C   0  0  0  0  0  0  0  0  0  0  0  0
    0.6274   -1.2034    0.1992 H   0  0  0  0  0  0  0  0  0  0  0  0
    0.3767   -1.1085   -1.5417 H   0  0  0  0  0  0  0  0  0  0  0  0
    1.9709    0.0853   -0.7630 C   0  0  0  0  0  0  0  0  0  0  0  0
    2.6111   -0.6861   -1.2039 H   0  0  0  0  0  0  0  0  0  0  0  0
    1.9314    0.9143   -1.4768 H   0  0  0  0  0  0  0  0  0  0  0  0
    2.8236    0.6777    0.7594 S   0  0  0  0  0  0  0  0  0  0  0  0
    2.8723   -0.8163    1.8283 C   0  0  0  0  0  0  0  0  0  0  0  0
    1.8644   -1.0875    2.1559 H   0  0  0  0  0  0  0  0  0  0  0  0
    3.3053   -1.6601    1.2828 H   0  0  0  0  0  0  0  0  0  0  0  0
    3.4836   -0.6226    2.7148 H   0  0  0  0  0  0  0  0  0  0  0  0
   -0.7932    1.5652    0.5431 C   0  0  0  0  0  0  0  0  0  0  0  0
   -1.8961    2.0640    0.7549 O   0  0  0  0  0  0  0  0  0  0  0  0
    0.2666    2.1311    1.2145 N   0  0  0  0  0  0  0  0  0  0  0  0
    1.1797    1.7141    1.0755 H   0  0  0  0  0  0  0  0  0  0  0  0
    0.1508    3.2591    2.1317 C   0  0  0  0  0  0  0  0  0  0  0  0
   -0.4862    2.9973    2.9830 H   0  0  0  0  0  0  0  0  0  0  0  0
    1.1385    3.5379    2.5116 H   0  0  0  0  0  0  0  0  0  0  0  0
   -0.2798    4.1269    1.6211 H   0  0  0  0  0  0  0  0  0  0  0  0
  1  2  1  0  0  0  0
  2  3  1  0  0  0  0
  2  4  1  0  0  0  0
  2  5  1  0  0  0  0
  5  6  2  0  0  0  0
  5  7  1  0  0  0  0
  7  8  1  0  0  0  0
  7  9  1  0  0  0  0
  9 10  1  0  0  0  0
  9 11  1  0  0  0  0
  9 22  1  0  0  0  0
 11 12  1  0  0  0  0
 11 13  1  0  0  0  0
 11 14  1  0  0  0  0
 14 15  1  0  0  0  0
 14 16  1  0  0  0  0
 14 17  1  0  0  0  0
 17 18  1  0  0  0  0
 18 19  1  0  0  0  0
 18 20  1  0  0  0  0
 18 21  1  0  0  0  0
 22 23  2  0  0  0  0
 22 24  1  0  0  0  0
 24 25  1  0  0  0  0
 24 26  1  0  0  0  0
 26 27  1  0  0  0  0
 26 28  1  0  0  0  0
 26 29  1  0  0  0  0
M  END
$$$$

  -OEChem-02102214153D

 29 28  0     1  0  0  0  0  0999 V2000
   -3.2932   -3.4291    1.2963 H   0  0  0  0  0  0  0  0  0  0  0  0
   -3.2553   -2.4604    0.7901 C   0  0  0  0  0  0  0  0  0  0  0  0
   -3.9735   -1.7870    1.2641 H   0  0  0  0  0  0  0  0  0  0  0  0
   -3.5326   -2.6000   -0.2576 H   0  0  0  0  0  0  0  0  0  0  0  0
   -1.8583   -1.8761    0.8823 C   0  0  0  0  0  0  0  0  0  0  0  0
   -0.9872   -2.4722    1.4943 O   0  0  0  0  0  0  0  0  0  0  0  0
   -1.5876   -0.6572    0.2972 N   0  0  0  0  0  0  0  0  0  0  0  0
   -2.3706   -0.1531   -0.1159 H   0  0  0  0  0  0  0  0  0  0  0  0
   -0.2993    0.0487    0.3559 C   0  0  1  0  0  0  0  0  0  0  0  0
    0.3124   -0.3711    1.1558 H   0  0  0  0  0  0  0  0  0  0  0  0
    0.4110   -0.1286   -1.0009 C   0  0  0  0  0  0  0  0  0  0  0  0
    0.3155   -1.1685   -1.3311 H   0  0  0  0  0  0  0  0  0  0  0  0
   -0.0971    0.4943   -1.7450 H   0  0  0  0  0  0  0  0  0  0  0  0
    1.9055    0.2365   -0.9818 C   0  0  0  0  0  0  0  0  0  0  0  0
    2.1832    0.5877   -1.9810 H   0  0  0  0  0  0  0  0  0  0  0  0
    2.0883    1.0636   -0.2898 H   0  0  0  0  0  0  0  0  0  0  0  0
    3.0193   -1.1741   -0.5671 S   0  0  0  0  0  0  0  0  0  0  0  0
    2.5171   -1.8420    1.0672 C   0  0  0  0  0  0  0  0  0  0  0  0
    1.5399   -2.3255    0.9951 H   0  0  0  0  0  0  0  0  0  0  0  0
    3.2426   -2.5887    1.4028 H   0  0  0  0  0  0  0  0  0  0  0  0
    2.4711   -1.0431    1.8121 H   0  0  0  0  0  0  0  0  0  0  0  0
   -0.5087    1.5436    0.6705 C   0  0  0  0  0  0  0  0  0  0  0  0
   -1.4072    2.1635    0.1135 O   0  0  0  0  0  0  0  0  0  0  0  0
    0.2815    2.1840    1.6074 N   0  0  0  0  0  0  0  0  0  0  0  0
    0.9675    1.6247    2.1065 H   0  0  0  0  0  0  0  0  0  0  0  0
    0.0987    3.5795    1.9881 C   0  0  0  0  0  0  0  0  0  0  0  0
   -0.8841    3.7259    2.4486 H   0  0  0  0  0  0  0  0  0  0  0  0
    0.8666    3.8794    2.7079 H   0  0  0  0  0  0  0  0  0  0  0  0
    0.1770    4.2302    1.1106 H   0  0  0  0  0  0  0  0  0  0  0  0
  1  2  1  0  0  0  0
  2  3  1  0  0  0  0
  2  4  1  0  0  0  0
  2  5  1  0  0  0  0
  5  6  2  0  0  0  0
  5  7  1  0  0  0  0
  7  8  1  0  0  0  0
  7  9  1  0  0  0  0
  9 10  1  0  0  0  0
  9 11  1  0  0  0  0
  9 22  1  0  0  0  0
 11 12  1  0  0  0  0
 11 13  1  0  0  0  0
 11 14  1  0  0  0  0
 14 15  1  0  0  0  0
 14 16  1  0  0  0  0
 14 17  1  0  0  0  0
 17 18  1  0  0  0  0
 18 19  1  0  0  0  0
 18 20  1  0  0  0  0
 18 21  1  0  0  0  0
 22 23  2  0  0  0  0
 22 24  1  0  0  0  0
 24 25  1  0  0  0  0
 24 26  1  0  0  0  0
 26 27  1  0  0  0  0
 26 28  1  0  0  0  0
 26 29  1  0  0  0  0
M  END
$$$$

  -OEChem-02102214153D

 29 28  0     1  0  0  0  0  0999 V2000
   -3.2254   -3.4520    1.3152 H   0  0  0  0  0  0  0  0  0  0  0  0
   -3.2009   -2.4805    0.8137 C   0  0  0  0  0  0  0  0  0  0  0  0
   -3.9113   -1.8118    1.3058 H   0  0  0  0  0  0  0  0  0  0  0  0
   -3.4997   -2.6148   -0.2286 H   0  0  0  0  0  0  0  0  0  0  0  0
   -1.8039   -1.8932    0.8798 C   0  0  0  0  0  0  0  0  0  0  0  0
   -0.9166   -2.4917    1.4669 O   0  0  0  0  0  0  0  0  0  0  0  0
   -1.5469   -0.6715    0.2944 N   0  0  0  0  0  0  0  0  0  0  0  0
   -2.3378   -0.1639   -0.0996 H   0  0  0  0  0  0  0  0  0  0  0  0
   -0.2609    0.0376    0.3505 C   0  0  1  0  0  0  0  0  0  0  0  0
    0.3619   -0.3868    1.1437 H   0  0  0  0  0  0  0  0  0  0  0  0
    0.4481   -0.1406   -1.0050 C   0  0  0  0  0  0  0  0  0  0  0  0
    0.3512   -1.1779   -1.3420 H   0  0  0  0  0  0  0  0  0  0  0  0
   -0.0535    0.4849   -1.7512 H   0  0  0  0  0  0  0  0  0  0  0  0
    1.9383    0.2359   -0.9509 C   0  0  0  0  0  0  0  0  0  0  0  0
    2.1820    0.8360   -1.8335 H   0  0  0  0  0  0  0  0  0  0  0  0
    2.1576    0.8494   -0.0724 H   0  0  0  0  0  0  0  0  0  0  0  0
    3.0301   -1.2465   -0.9516 S   0  0  0  0  0  0  0  0  0  0  0  0
    2.4628   -2.2489    0.4803 C   0  0  0  0  0  0  0  0  0  0  0  0
    1.4509   -2.6249    0.3066 H   0  0  0  0  0  0  0  0  0  0  0  0
    3.1276   -3.1059    0.6231 H   0  0  0  0  0  0  0  0  0  0  0  0
    2.4659   -1.6486    1.3944 H   0  0  0  0  0  0  0  0  0  0  0  0
   -0.4778    1.5308    0.6704 C   0  0  0  0  0  0  0  0  0  0  0  0
   -1.3834    2.1458    0.1195 O   0  0  0  0  0  0  0  0  0  0  0  0
    0.3105    2.1742    1.6067 N   0  0  0  0  0  0  0  0  0  0  0  0
    0.9938    1.6157    2.1102 H   0  0  0  0  0  0  0  0  0  0  0  0
    0.1007    3.5600    2.0080 C   0  0  0  0  0  0  0  0  0  0  0  0
   -0.8872    3.6815    2.4646 H   0  0  0  0  0  0  0  0  0  0  0  0
    0.8590    3.8612    2.7369 H   0  0  0  0  0  0  0  0  0  0  0  0
    0.1724    4.2256    1.1413 H   0  0  0  0  0  0  0  0  0  0  0  0
  1  2  1  0  0  0  0
  2  3  1  0  0  0  0
  2  4  1  0  0  0  0
  2  5  1  0  0  0  0
  5  6  2  0  0  0  0
  5  7  1  0  0  0  0
  7  8  1  0  0  0  0
  7  9  1  0  0  0  0
  9 10  1  0  0  0  0
  9 11  1  0  0  0  0
  9 22  1  0  0  0  0
 11 12  1  0  0  0  0
 11 13  1  0  0  0  0
 11 14  1  0  0  0  0
 14 15  1  0  0  0  0
 14 16  1  0  0  0  0
 14 17  1  0  0  0  0
 17 18  1  0  0  0  0
 18 19  1  0  0  0  0
 18 20  1  0  0  0  0
 18 21  1  0  0  0  0
 22 23  2  0  0  0  0
 22 24  1  0  0  0  0
 24 25  1  0  0  0  0
 24 26  1  0  0  0  0
 26 27  1  0  0  0  0
 26 28  1  0  0  0  0
 26 29  1  0  0  0  0
M  END
$$$$

  -OEChem-02102214153D

 29 28  0     1  0  0  0  0  0999 V2000
   -3.2645   -3.4583    1.2804 H   0  0  0  0  0  0  0  0  0  0  0  0
   -3.2403   -2.4843    0.7839 C   0  0  0  0  0  0  0  0  0  0  0  0
   -3.9325   -1.8111    1.2954 H   0  0  0  0  0  0  0  0  0  0  0  0
   -3.5631   -2.6096   -0.2524 H   0  0  0  0  0  0  0  0  0  0  0  0
   -1.8357   -1.9125    0.8235 C   0  0  0  0  0  0  0  0  0  0  0  0
   -0.9340   -2.5410    1.3555 O   0  0  0  0  0  0  0  0  0  0  0  0
   -1.5799   -0.6805    0.2588 N   0  0  0  0  0  0  0  0  0  0  0  0
   -2.3743   -0.1520   -0.0988 H   0  0  0  0  0  0  0  0  0  0  0  0
   -0.2871    0.0152    0.3200 C   0  0  1  0  0  0  0  0  0  0  0  0
    0.3338   -0.4336    1.1023 H   0  0  0  0  0  0  0  0  0  0  0  0
    0.4145   -0.1576   -1.0371 C   0  0  0  0  0  0  0  0  0  0  0  0
    0.3047   -1.1943   -1.3707 H   0  0  0  0  0  0  0  0  0  0  0  0
   -0.0799    0.4703   -1.7860 H   0  0  0  0  0  0  0  0  0  0  0  0
    1.9075    0.2050   -0.9716 C   0  0  0  0  0  0  0  0  0  0  0  0
    2.1084    1.0254   -1.6684 H   0  0  0  0  0  0  0  0  0  0  0  0
    2.1903    0.5487    0.0277 H   0  0  0  0  0  0  0  0  0  0  0  0
    2.9556   -1.2351   -1.4277 S   0  0  0  0  0  0  0  0  0  0  0  0
    2.6091   -2.4294   -0.0722 C   0  0  0  0  0  0  0  0  0  0  0  0
    1.5541   -2.7196   -0.0708 H   0  0  0  0  0  0  0  0  0  0  0  0
    3.2150   -3.3305   -0.2046 H   0  0  0  0  0  0  0  0  0  0  0  0
    2.8509   -1.9850    0.8974 H   0  0  0  0  0  0  0  0  0  0  0  0
   -0.4758    1.5048    0.6710 C   0  0  0  0  0  0  0  0  0  0  0  0
   -1.3755    2.1451    0.1397 O   0  0  0  0  0  0  0  0  0  0  0  0
    0.3309    2.1171    1.6126 N   0  0  0  0  0  0  0  0  0  0  0  0
    1.0086    1.5384    2.1007 H   0  0  0  0  0  0  0  0  0  0  0  0
    0.1531    3.5011    2.0354 C   0  0  0  0  0  0  0  0  0  0  0  0
   -0.8359    3.6409    2.4842 H   0  0  0  0  0  0  0  0  0  0  0  0
    0.9110    3.7706    2.7773 H   0  0  0  0  0  0  0  0  0  0  0  0
    0.2512    4.1791    1.1809 H   0  0  0  0  0  0  0  0  0  0  0  0
  1  2  1  0  0  0  0
  2  3  1  0  0  0  0
  2  4  1  0  0  0  0
  2  5  1  0  0  0  0
  5  6  2  0  0  0  0
  5  7  1  0  0  0  0
  7  8  1  0  0  0  0
  7  9  1  0  0  0  0
  9 10  1  0  0  0  0
  9 11  1  0  0  0  0
  9 22  1  0  0  0  0
 11 12  1  0  0  0  0
 11 13  1  0  0  0  0
 11 14  1  0  0  0  0
 14 15  1  0  0  0  0
 14 16  1  0  0  0  0
 14 17  1  0  0  0  0
 17 18  1  0  0  0  0
 18 19  1  0  0  0  0
 18 20  1  0  0  0  0
 18 21  1  0  0  0  0
 22 23  2  0  0  0  0
 22 24  1  0  0  0  0
 24 25  1  0  0  0  0
 24 26  1  0  0  0  0
 26 27  1  0  0  0  0
 26 28  1  0  0  0  0
 26 29  1  0  0  0  0
M  END
$$$$

  -OEChem-02102214153D

 29 28  0     1  0  0  0  0  0999 V2000
   -3.3336   -3.4409    1.2730 H   0  0  0  0  0  0  0  0  0  0  0  0
   -3.2974   -2.4722    0.7667 C   0  0  0  0  0  0  0  0  0  0  0  0
   -3.9789   -1.7846    1.2735 H   0  0  0  0  0  0  0  0  0  0  0  0
   -3.6248   -2.6028   -0.2676 H   0  0  0  0  0  0  0  0  0  0  0  0
   -1.8850   -1.9195    0.7958 C   0  0  0  0  0  0  0  0  0  0  0  0
   -0.9838   -2.5688    1.3033 O   0  0  0  0  0  0  0  0  0  0  0  0
   -1.6213   -0.6829    0.2452 N   0  0  0  0  0  0  0  0  0  0  0  0
   -2.4134   -0.1408   -0.0964 H   0  0  0  0  0  0  0  0  0  0  0  0
   -0.3222    0.0001    0.3091 C   0  0  1  0  0  0  0  0  0  0  0  0
    0.2937   -0.4657    1.0853 H   0  0  0  0  0  0  0  0  0  0  0  0
    0.3752   -0.1623   -1.0503 C   0  0  0  0  0  0  0  0  0  0  0  0
    0.2629   -1.2016   -1.3738 H   0  0  0  0  0  0  0  0  0  0  0  0
   -0.1151    0.4620   -1.8048 H   0  0  0  0  0  0  0  0  0  0  0  0
    1.8701    0.1880   -0.9797 C   0  0  0  0  0  0  0  0  0  0  0  0
    2.0339    1.1733   -1.4285 H   0  0  0  0  0  0  0  0  0  0  0  0
    2.2142    0.2366    0.0578 H   0  0  0  0  0  0  0  0  0  0  0  0
    2.8772   -1.0695   -1.8638 S   0  0  0  0  0  0  0  0  0  0  0  0
    2.7714   -2.5166   -0.7335 C   0  0  0  0  0  0  0  0  0  0  0  0
    1.7320   -2.8328   -0.6034 H   0  0  0  0  0  0  0  0  0  0  0  0
    3.3401   -3.3549   -1.1465 H   0  0  0  0  0  0  0  0  0  0  0  0
    3.1846   -2.2628    0.2470 H   0  0  0  0  0  0  0  0  0  0  0  0
   -0.4881    1.4871    0.6789 C   0  0  0  0  0  0  0  0  0  0  0  0
   -1.3825    2.1457    0.1616 O   0  0  0  0  0  0  0  0  0  0  0  0
    0.3325    2.0765    1.6229 N   0  0  0  0  0  0  0  0  0  0  0  0
    1.0148    1.4866    2.0907 H   0  0  0  0  0  0  0  0  0  0  0  0
    0.1984    3.4670    2.0405 C   0  0  0  0  0  0  0  0  0  0  0  0
   -0.7887    3.6423    2.4814 H   0  0  0  0  0  0  0  0  0  0  0  0
    0.9596    3.7127    2.7874 H   0  0  0  0  0  0  0  0  0  0  0  0
    0.3262    4.1380    1.1844 H   0  0  0  0  0  0  0  0  0  0  0  0
  1  2  1  0  0  0  0
  2  3  1  0  0  0  0
  2  4  1  0  0  0  0
  2  5  1  0  0  0  0
  5  6  2  0  0  0  0
  5  7  1  0  0  0  0
  7  8  1  0  0  0  0
  7  9  1  0  0  0  0
  9 10  1  0  0  0  0
  9 11  1  0  0  0  0
  9 22  1  0  0  0  0
 11 12  1  0  0  0  0
 11 13  1  0  0  0  0
 11 14  1  0  0  0  0
 14 15  1  0  0  0  0
 14 16  1  0  0  0  0
 14 17  1  0  0  0  0
 17 18  1  0  0  0  0
 18 19  1  0  0  0  0
 18 20  1  0  0  0  0
 18 21  1  0  0  0  0
 22 23  2  0  0  0  0
 22 24  1  0  0  0  0
 24 25  1  0  0  0  0
 24 26  1  0  0  0  0
 26 27  1  0  0  0  0
 26 28  1  0  0  0  0
 26 29  1  0  0  0  0
M  END
$$$$

  -OEChem-02102214153D

 29 28  0     1  0  0  0  0  0999 V2000
   -3.3729   -3.4212    1.2805 H   0  0  0  0  0  0  0  0  0  0  0  0
   -3.3321   -2.4506    0.7783 C   0  0  0  0  0  0  0  0  0  0  0  0
   -4.0016   -1.7586    1.2948 H   0  0  0  0  0  0  0  0  0  0  0  0
   -3.6704   -2.5731   -0.2534 H   0  0  0  0  0  0  0  0  0  0  0  0
   -1.9144   -1.9118    0.7971 C   0  0  0  0  0  0  0  0  0  0  0  0
   -1.0168   -2.5679    1.3017 O   0  0  0  0  0  0  0  0  0  0  0  0
   -1.6422   -0.6771    0.2462 N   0  0  0  0  0  0  0  0  0  0  0  0
   -2.4318   -0.1271   -0.0887 H   0  0  0  0  0  0  0  0  0  0  0  0
   -0.3370   -0.0043    0.3029 C   0  0  1  0  0  0  0  0  0  0  0  0
    0.2783   -0.4748    1.0769 H   0  0  0  0  0  0  0  0  0  0  0  0
    0.3538   -0.1686   -1.0600 C   0  0  0  0  0  0  0  0  0  0  0  0
    0.2411   -1.2104   -1.3738 H   0  0  0  0  0  0  0  0  0  0  0  0
   -0.1352    0.4529   -1.8177 H   0  0  0  0  0  0  0  0  0  0  0  0
    1.8491    0.1715   -0.9910 C   0  0  0  0  0  0  0  0  0  0  0  0
    1.9903    1.2415   -1.1764 H   0  0  0  0  0  0  0  0  0  0  0  0
    2.2512   -0.0520    0.0020 H   0  0  0  0  0  0  0  0  0  0  0  0
    2.7953   -0.8062   -2.2261 S   0  0  0  0  0  0  0  0  0  0  0  0
    2.8494   -2.4756   -1.4582 C   0  0  0  0  0  0  0  0  0  0  0  0
    1.8400   -2.8787   -1.3362 H   0  0  0  0  0  0  0  0  0  0  0  0
    3.4217   -3.1588   -2.0925 H   0  0  0  0  0  0  0  0  0  0  0  0
    3.3282   -2.4264   -0.4759 H   0  0  0  0  0  0  0  0  0  0  0  0
   -0.4882    1.4838    0.6745 C   0  0  0  0  0  0  0  0  0  0  0  0
   -1.3836    2.1495    0.1680 O   0  0  0  0  0  0  0  0  0  0  0  0
    0.3441    2.0635    1.6143 N   0  0  0  0  0  0  0  0  0  0  0  0
    1.0239    1.4655    2.0753 H   0  0  0  0  0  0  0  0  0  0  0  0
    0.2112    3.4476    2.0523 C   0  0  0  0  0  0  0  0  0  0  0  0
   -0.7714    3.6135    2.5062 H   0  0  0  0  0  0  0  0  0  0  0  0
    0.9796    3.6854    2.7943 H   0  0  0  0  0  0  0  0  0  0  0  0
    0.3278    4.1305    1.2043 H   0  0  0  0  0  0  0  0  0  0  0  0
  1  2  1  0  0  0  0
  2  3  1  0  0  0  0
  2  4  1  0  0  0  0
  2  5  1  0  0  0  0
  5  6  2  0  0  0  0
  5  7  1  0  0  0  0
  7  8  1  0  0  0  0
  7  9  1  0  0  0  0
  9 10  1  0  0  0  0
  9 11  1  0  0  0  0
  9 22  1  0  0  0  0
 11 12  1  0  0  0  0
 11 13  1  0  0  0  0
 11 14  1  0  0  0  0
 14 15  1  0  0  0  0
 14 16  1  0  0  0  0
 14 17  1  0  0  0  0
 17 18  1  0  0  0  0
 18 19  1  0  0  0  0
 18 20  1  0  0  0  0
 18 21  1  0  0  0  0
 22 23  2  0  0  0  0
 22 24  1  0  0  0  0
 24 25  1  0  0  0  0
 24 26  1  0  0  0  0
 26 27  1  0  0  0  0
 26 28  1  0  0  0  0
 26 29  1  0  0  0  0
M  END
$$$$

  -OEChem-02102214153D

 29 28  0     1  0  0  0  0  0999 V2000
   -3.3832   -3.4127    1.2986 H   0  0  0  0  0  0  0  0  0  0  0  0
   -3.3383   -2.4441    0.7928 C   0  0  0  0  0  0  0  0  0  0  0  0
   -4.0024   -1.7467    1.3092 H   0  0  0  0  0  0  0  0  0  0  0  0
   -3.6811   -2.5682   -0.2372 H   0  0  0  0  0  0  0  0  0  0  0  0
   -1.9176   -1.9122    0.8047 C   0  0  0  0  0  0  0  0  0  0  0  0
   -1.0207   -2.5717    1.3061 O   0  0  0  0  0  0  0  0  0  0  0  0
   -1.6430   -0.6784    0.2532 N   0  0  0  0  0  0  0  0  0  0  0  0
   -2.4326   -0.1239   -0.0747 H   0  0  0  0  0  0  0  0  0  0  0  0
   -0.3359   -0.0092    0.3072 C   0  0  1  0  0  0  0  0  0  0  0  0
    0.2811   -0.4793    1.0799 H   0  0  0  0  0  0  0  0  0  0  0  0
    0.3522   -0.1749   -1.0572 C   0  0  0  0  0  0  0  0  0  0  0  0
    0.2401   -1.2159   -1.3737 H   0  0  0  0  0  0  0  0  0  0  0  0
   -0.1358    0.4524   -1.8108 H   0  0  0  0  0  0  0  0  0  0  0  0
    1.8462    0.1620   -0.9852 C   0  0  0  0  0  0  0  0  0  0  0  0
    1.9761    1.2467   -0.9104 H   0  0  0  0  0  0  0  0  0  0  0  0
    2.2982   -0.2951   -0.0992 H   0  0  0  0  0  0  0  0  0  0  0  0
    2.7217   -0.4567   -2.4777 S   0  0  0  0  0  0  0  0  0  0  0  0
    2.8219   -2.2673   -2.1783 C   0  0  0  0  0  0  0  0  0  0  0  0
    1.8224   -2.7102   -2.1493 H   0  0  0  0  0  0  0  0  0  0  0  0
    3.3900   -2.7466   -2.9810 H   0  0  0  0  0  0  0  0  0  0  0  0
    3.3237   -2.4674   -1.2270 H   0  0  0  0  0  0  0  0  0  0  0  0
   -0.4888    1.4790    0.6795 C   0  0  0  0  0  0  0  0  0  0  0  0
   -1.3892    2.1421    0.1785 O   0  0  0  0  0  0  0  0  0  0  0  0
    0.3434    2.0605    1.6184 N   0  0  0  0  0  0  0  0  0  0  0  0
    1.0296    1.4660    2.0745 H   0  0  0  0  0  0  0  0  0  0  0  0
    0.2109    3.4460    2.0529 C   0  0  0  0  0  0  0  0  0  0  0  0
   -0.7719    3.6136    2.5062 H   0  0  0  0  0  0  0  0  0  0  0  0
    0.9790    3.6853    2.7946 H   0  0  0  0  0  0  0  0  0  0  0  0
    0.3281    4.1268    1.2029 H   0  0  0  0  0  0  0  0  0  0  0  0
  1  2  1  0  0  0  0
  2  3  1  0  0  0  0
  2  4  1  0  0  0  0
  2  5  1  0  0  0  0
  5  6  2  0  0  0  0
  5  7  1  0  0  0  0
  7  8  1  0  0  0  0
  7  9  1  0  0  0  0
  9 10  1  0  0  0  0
  9 11  1  0  0  0  0
  9 22  1  0  0  0  0
 11 12  1  0  0  0  0
 11 13  1  0  0  0  0
 11 14  1  0  0  0  0
 14 15  1  0  0  0  0
 14 16  1  0  0  0  0
 14 17  1  0  0  0  0
 17 18  1  0  0  0  0
 18 19  1  0  0  0  0
 18 20  1  0  0  0  0
 18 21  1  0  0  0  0
 22 23  2  0  0  0  0
 22 24  1  0  0  0  0
 24 25  1  0  0  0  0
 24 26  1  0  0  0  0
 26 27  1  0  0  0  0
 26 28  1  0  0  0  0
 26 29  1  0  0  0  0
M  END
$$$$

  -OEChem-02102214153D

 29 28  0     1  0  0  0  0  0999 V2000
   -3.3701   -3.4252    1.3117 H   0  0  0  0  0  0  0  0  0  0  0  0
   -3.3311   -2.4589    0.8011 C   0  0  0  0  0  0  0  0  0  0  0  0
   -3.9969   -1.7618    1.3158 H   0  0  0  0  0  0  0  0  0  0  0  0
   -3.6752   -2.5893   -0.2279 H   0  0  0  0  0  0  0  0  0  0  0  0
   -1.9124   -1.9217    0.8080 C   0  0  0  0  0  0  0  0  0  0  0  0
   -1.0105   -2.5815    1.3000 O   0  0  0  0  0  0  0  0  0  0  0  0
   -1.6443   -0.6864    0.2566 N   0  0  0  0  0  0  0  0  0  0  0  0
   -2.4378   -0.1337   -0.0649 H   0  0  0  0  0  0  0  0  0  0  0  0
   -0.3393   -0.0113    0.3054 C   0  0  1  0  0  0  0  0  0  0  0  0
    0.2720   -0.4800    1.0836 H   0  0  0  0  0  0  0  0  0  0  0  0
    0.3620   -0.1813   -1.0538 C   0  0  0  0  0  0  0  0  0  0  0  0
    0.0526   -1.1311   -1.4996 H   0  0  0  0  0  0  0  0  0  0  0  0
    0.0602    0.6177   -1.7398 H   0  0  0  0  0  0  0  0  0  0  0  0
    1.8854   -0.1958   -0.8961 C   0  0  0  0  0  0  0  0  0  0  0  0
    2.2188    0.7464   -0.4493 H   0  0  0  0  0  0  0  0  0  0  0  0
    2.1891   -1.0126   -0.2329 H   0  0  0  0  0  0  0  0  0  0  0  0
    2.7026   -0.3992   -2.5294 S   0  0  0  0  0  0  0  0  0  0  0  0
    2.3449   -2.1507   -2.9549 C   0  0  0  0  0  0  0  0  0  0  0  0
    1.2722   -2.2976   -3.1081 H   0  0  0  0  0  0  0  0  0  0  0  0
    2.8673   -2.4260   -3.8757 H   0  0  0  0  0  0  0  0  0  0  0  0
    2.6807   -2.8126   -2.1512 H   0  0  0  0  0  0  0  0  0  0  0  0
   -0.4865    1.4770    0.6786 C   0  0  0  0  0  0  0  0  0  0  0  0
   -1.3977    2.1376    0.1941 O   0  0  0  0  0  0  0  0  0  0  0  0
    0.3527    2.0565    1.6124 N   0  0  0  0  0  0  0  0  0  0  0  0
    1.0540    1.4658    2.0500 H   0  0  0  0  0  0  0  0  0  0  0  0
    0.2292    3.4435    2.0441 C   0  0  0  0  0  0  0  0  0  0  0  0
   -0.7531    3.6186    2.4955 H   0  0  0  0  0  0  0  0  0  0  0  0
    0.9978    3.6794    2.7866 H   0  0  0  0  0  0  0  0  0  0  0  0
    0.3515    4.1216    1.1929 H   0  0  0  0  0  0  0  0  0  0  0  0
  1  2  1  0  0  0  0
  2  3  1  0  0  0  0
  2  4  1  0  0  0  0
  2  5  1  0  0  0  0
  5  6  2  0  0  0  0
  5  7  1  0  0  0  0
  7  8  1  0  0  0  0
  7  9  1  0  0  0  0
  9 10  1  0  0  0  0
  9 11  1  0  0  0  0
  9 22  1  0  0  0  0
 11 12  1  0  0  0  0
 11 13  1  0  0  0  0
 11 14  1  0  0  0  0
 14 15  1  0  0  0  0
 14 16  1  0  0  0  0
 14 17  1  0  0  0  0
 17 18  1  0  0  0  0
 18 19  1  0  0  0  0
 18 20  1  0  0  0  0
 18 21  1  0  0  0  0
 22 23  2  0  0  0  0
 22 24  1  0  0  0  0
 24 25  1  0  0  0  0
 24 26  1  0  0  0  0
 26 27  1  0  0  0  0
 26 28  1  0  0  0  0
 26 29  1  0  0  0  0
M  END
$$$$

  -OEChem-02102214153D

 29 28  0     1  0  0  0  0  0999 V2000
   -3.3647   -3.4294    1.3084 H   0  0  0  0  0  0  0  0  0  0  0  0
   -3.3231   -2.4631    0.7980 C   0  0  0  0  0  0  0  0  0  0  0  0
   -3.9875   -1.7644    1.3122 H   0  0  0  0  0  0  0  0  0  0  0  0
   -3.6672   -2.5927   -0.2310 H   0  0  0  0  0  0  0  0  0  0  0  0
   -1.9032   -1.9294    0.8060 C   0  0  0  0  0  0  0  0  0  0  0  0
   -1.0050   -2.5880    1.3059 O   0  0  0  0  0  0  0  0  0  0  0  0
   -1.6301   -0.6978    0.2489 N   0  0  0  0  0  0  0  0  0  0  0  0
   -2.4214   -0.1436   -0.0757 H   0  0  0  0  0  0  0  0  0  0  0  0
   -0.3259   -0.0224    0.3067 C   0  0  1  0  0  0  0  0  0  0  0  0
    0.2786   -0.4856    1.0938 H   0  0  0  0  0  0  0  0  0  0  0  0
    0.3890   -0.2051   -1.0437 C   0  0  0  0  0  0  0  0  0  0  0  0
    0.0845   -1.1533   -1.4979 H   0  0  0  0  0  0  0  0  0  0  0  0
    0.0944    0.5980   -1.7284 H   0  0  0  0  0  0  0  0  0  0  0  0
    1.9112   -0.2191   -0.8706 C   0  0  0  0  0  0  0  0  0  0  0  0
    2.2182    0.5993   -0.2119 H   0  0  0  0  0  0  0  0  0  0  0  0
    2.2287   -1.1606   -0.4102 H   0  0  0  0  0  0  0  0  0  0  0  0
    2.7482    0.0084   -2.4905 S   0  0  0  0  0  0  0  0  0  0  0  0
    2.3222   -1.5355   -3.3902 C   0  0  0  0  0  0  0  0  0  0  0  0
    1.2439   -1.5931   -3.5627 H   0  0  0  0  0  0  0  0  0  0  0  0
    2.8305   -1.5562   -4.3586 H   0  0  0  0  0  0  0  0  0  0  0  0
    2.6350   -2.4100   -2.8123 H   0  0  0  0  0  0  0  0  0  0  0  0
   -0.4806    1.4685    0.6688 C   0  0  0  0  0  0  0  0  0  0  0  0
   -1.3935    2.1211    0.1761 O   0  0  0  0  0  0  0  0  0  0  0  0
    0.3468    2.0566    1.6079 N   0  0  0  0  0  0  0  0  0  0  0  0
    1.0516    1.4733    2.0496 H   0  0  0  0  0  0  0  0  0  0  0  0
    0.2157    3.4458    2.0299 C   0  0  0  0  0  0  0  0  0  0  0  0
   -0.7695    3.6205    2.4750 H   0  0  0  0  0  0  0  0  0  0  0  0
    0.9794    3.6890    2.7749 H   0  0  0  0  0  0  0  0  0  0  0  0
    0.3407    4.1188    1.1750 H   0  0  0  0  0  0  0  0  0  0  0  0
  1  2  1  0  0  0  0
  2  3  1  0  0  0  0
  2  4  1  0  0  0  0
  2  5  1  0  0  0  0
  5  6  2  0  0  0  0
  5  7  1  0  0  0  0
  7  8  1  0  0  0  0
  7  9  1  0  0  0  0
  9 10  1  0  0  0  0
  9 11  1  0  0  0  0
  9 22  1  0  0  0  0
 11 12  1  0  0  0  0
 11 13  1  0  0  0  0
 11 14  1  0  0  0  0
 14 15  1  0  0  0  0
 14 16  1  0  0  0  0
 14 17  1  0  0  0  0
 17 18  1  0  0  0  0
 18 19  1  0  0  0  0
 18 20  1  0  0  0  0
 18 21  1  0  0  0  0
 22 23  2  0  0  0  0
 22 24  1  0  0  0  0
 24 25  1  0  0  0  0
 24 26  1  0  0  0  0
 26 27  1  0  0  0  0
 26 28  1  0  0  0  0
 26 29  1  0  0  0  0
M  END
$$$$

  -OEChem-02102214153D

 29 28  0     1  0  0  0  0  0999 V2000
   -3.3760   -3.4223    1.3113 H   0  0  0  0  0  0  0  0  0  0  0  0
   -3.3278   -2.4575    0.7988 C   0  0  0  0  0  0  0  0  0  0  0  0
   -3.9834   -1.7520    1.3150 H   0  0  0  0  0  0  0  0  0  0  0  0
   -3.6788   -2.5856   -0.2279 H   0  0  0  0  0  0  0  0  0  0  0  0
   -1.9028   -1.9369    0.7984 C   0  0  0  0  0  0  0  0  0  0  0  0
   -1.0075   -2.6016    1.2954 O   0  0  0  0  0  0  0  0  0  0  0  0
   -1.6222   -0.7084    0.2386 N   0  0  0  0  0  0  0  0  0  0  0  0
   -2.4113   -0.1481   -0.0808 H   0  0  0  0  0  0  0  0  0  0  0  0
   -0.3171   -0.0357    0.3040 C   0  0  1  0  0  0  0  0  0  0  0  0
    0.2797   -0.4969    1.0979 H   0  0  0  0  0  0  0  0  0  0  0  0
    0.4079   -0.2239   -1.0401 C   0  0  0  0  0  0  0  0  0  0  0  0
    0.1045   -1.1683   -1.5038 H   0  0  0  0  0  0  0  0  0  0  0  0
    0.1160    0.5839   -1.7202 H   0  0  0  0  0  0  0  0  0  0  0  0
    1.9313   -0.2416   -0.8624 C   0  0  0  0  0  0  0  0  0  0  0  0
    2.2198    0.3942   -0.0200 H   0  0  0  0  0  0  0  0  0  0  0  0
    2.2721   -1.2594   -0.6450 H   0  0  0  0  0  0  0  0  0  0  0  0
    2.7681    0.4104   -2.3627 S   0  0  0  0  0  0  0  0  0  0  0  0
    2.3120   -0.8279   -3.6405 C   0  0  0  0  0  0  0  0  0  0  0  0
    1.2285   -0.8438   -3.7892 H   0  0  0  0  0  0  0  0  0  0  0  0
    2.7902   -0.5767   -4.5918 H   0  0  0  0  0  0  0  0  0  0  0  0
    2.6414   -1.8256   -3.3356 H   0  0  0  0  0  0  0  0  0  0  0  0
   -0.4756    1.4567    0.6587 C   0  0  0  0  0  0  0  0  0  0  0  0
   -1.3924    2.1027    0.1643 O   0  0  0  0  0  0  0  0  0  0  0  0
    0.3427    2.0502    1.6021 N   0  0  0  0  0  0  0  0  0  0  0  0
    1.0602    1.4762    2.0353 H   0  0  0  0  0  0  0  0  0  0  0  0
    0.2083    3.4424    2.0131 C   0  0  0  0  0  0  0  0  0  0  0  0
   -0.7790    3.6193    2.4527 H   0  0  0  0  0  0  0  0  0  0  0  0
    0.9685    3.6917    2.7596 H   0  0  0  0  0  0  0  0  0  0  0  0
    0.3364    4.1094    1.1540 H   0  0  0  0  0  0  0  0  0  0  0  0
  1  2  1  0  0  0  0
  2  3  1  0  0  0  0
  2  4  1  0  0  0  0
  2  5  1  0  0  0  0
  5  6  2  0  0  0  0
  5  7  1  0  0  0  0
  7  8  1  0  0  0  0
  7  9  1  0  0  0  0
  9 10  1  0  0  0  0
  9 11  1  0  0  0  0
  9 22  1  0  0  0  0
 11 12  1  0  0  0  0
 11 13  1  0  0  0  0
 11 14  1  0  0  0  0
 14 15  1  0  0  0  0
 14 16  1  0  0  0  0
 14 17  1  0  0  0  0
 17 18  1  0  0  0  0
 18 19  1  0  0  0  0
 18 20  1  0  0  0  0
 18 21  1  0  0  0  0
 22 23  2  0  0  0  0
 22 24  1  0  0  0  0
 24 25  1  0  0  0  0
 24 26  1  0  0  0  0
 26 27  1  0  0  0  0
 26 28  1  0  0  0  0
 26 29  1  0  0  0  0
M  END
$$$$

  -OEChem-02102214153D

 29 28  0     1  0  0  0  0  0999 V2000
   -3.3850   -3.4251    1.3135 H   0  0  0  0  0  0  0  0  0  0  0  0
   -3.3351   -2.4609    0.8001 C   0  0  0  0  0  0  0  0  0  0  0  0
   -3.9901   -1.7537    1.3148 H   0  0  0  0  0  0  0  0  0  0  0  0
   -3.6851   -2.5898   -0.2269 H   0  0  0  0  0  0  0  0  0  0  0  0
   -1.9098   -1.9416    0.8000 C   0  0  0  0  0  0  0  0  0  0  0  0
   -1.0147   -2.6089    1.2939 O   0  0  0  0  0  0  0  0  0  0  0  0
   -1.6291   -0.7130    0.2406 N   0  0  0  0  0  0  0  0  0  0  0  0
   -2.4188   -0.1495   -0.0718 H   0  0  0  0  0  0  0  0  0  0  0  0
   -0.3235   -0.0411    0.3040 C   0  0  1  0  0  0  0  0  0  0  0  0
    0.2717   -0.5044    1.0978 H   0  0  0  0  0  0  0  0  0  0  0  0
    0.3995   -0.2250   -1.0421 C   0  0  0  0  0  0  0  0  0  0  0  0
    0.0956   -1.1703   -1.5038 H   0  0  0  0  0  0  0  0  0  0  0  0
    0.0964    0.5793   -1.7215 H   0  0  0  0  0  0  0  0  0  0  0  0
    1.9272   -0.2443   -0.8771 C   0  0  0  0  0  0  0  0  0  0  0  0
    2.2134    0.1478    0.1033 H   0  0  0  0  0  0  0  0  0  0  0  0
    2.2961   -1.2735   -0.9403 H   0  0  0  0  0  0  0  0  0  0  0  0
    2.7358    0.7996   -2.1549 S   0  0  0  0  0  0  0  0  0  0  0  0
    2.3262   -0.0933   -3.7072 C   0  0  0  0  0  0  0  0  0  0  0  0
    1.2432   -0.1262   -3.8562 H   0  0  0  0  0  0  0  0  0  0  0  0
    2.7800    0.4161   -4.5624 H   0  0  0  0  0  0  0  0  0  0  0  0
    2.7082   -1.1177   -3.6668 H   0  0  0  0  0  0  0  0  0  0  0  0
   -0.4785    1.4515    0.6599 C   0  0  0  0  0  0  0  0  0  0  0  0
   -1.4018    2.0957    0.1749 O   0  0  0  0  0  0  0  0  0  0  0  0
    0.3426    2.0440    1.6014 N   0  0  0  0  0  0  0  0  0  0  0  0
    1.0798    1.4775    2.0106 H   0  0  0  0  0  0  0  0  0  0  0  0
    0.2197    3.4398    2.0032 C   0  0  0  0  0  0  0  0  0  0  0  0
   -0.7683    3.6289    2.4363 H   0  0  0  0  0  0  0  0  0  0  0  0
    0.9780    3.6859    2.7526 H   0  0  0  0  0  0  0  0  0  0  0  0
    0.3592    4.0999    1.1405 H   0  0  0  0  0  0  0  0  0  0  0  0
  1  2  1  0  0  0  0
  2  3  1  0  0  0  0
  2  4  1  0  0  0  0
  2  5  1  0  0  0  0
  5  6  2  0  0  0  0
  5  7  1  0  0  0  0
  7  8  1  0  0  0  0
  7  9  1  0  0  0  0
  9 10  1  0  0  0  0
  9 11  1  0  0  0  0
  9 22  1  0  0  0  0
 11 12  1  0  0  0  0
 11 13  1  0  0  0  0
 11 14  1  0  0  0  0
 14 15  1  0  0  0  0
 14 16  1  0  0  0  0
 14 17  1  0  0  0  0
 17 18  1  0  0  0  0
 18 19  1  0  0  0  0
 18 20  1  0  0  0  0
 18 21  1  0  0  0  0
 22 23  2  0  0  0  0
 22 24  1  0  0  0  0
 24 25  1  0  0  0  0
 24 26  1  0  0  0  0
 26 27  1  0  0  0  0
 26 28  1  0  0  0  0
 26 29  1  0  0  0  0
M  END
$$$$

  -OEChem-02102214153D

 29 28  0     1  0  0  0  0  0999 V2000
   -3.3916   -3.4329    1.3380 H   0  0  0  0  0  0  0  0  0  0  0  0
   -3.3455   -2.4701    0.8215 C   0  0  0  0  0  0  0  0  0  0  0  0
   -3.9952   -1.7610    1.3403 H   0  0  0  0  0  0  0  0  0  0  0  0
   -3.7048   -2.6013   -0.2019 H   0  0  0  0  0  0  0  0  0  0  0  0
   -1.9198   -1.9519    0.8069 C   0  0  0  0  0  0  0  0  0  0  0  0
   -1.0195   -2.6223    1.2867 O   0  0  0  0  0  0  0  0  0  0  0  0
   -1.6455   -0.7208    0.2497 N   0  0  0  0  0  0  0  0  0  0  0  0
   -2.4391   -0.1567   -0.0510 H   0  0  0  0  0  0  0  0  0  0  0  0
   -0.3403   -0.0467    0.3044 C   0  0  1  0  0  0  0  0  0  0  0  0
    0.2581   -0.5129    1.0937 H   0  0  0  0  0  0  0  0  0  0  0  0
    0.3744   -0.2150   -1.0485 C   0  0  0  0  0  0  0  0  0  0  0  0
    0.0737   -1.1681   -1.4960 H   0  0  0  0  0  0  0  0  0  0  0  0
    0.0538    0.5766   -1.7339 H   0  0  0  0  0  0  0  0  0  0  0  0
    1.9057   -0.2314   -0.9012 C   0  0  0  0  0  0  0  0  0  0  0  0
    2.2018   -0.1380    0.1478 H   0  0  0  0  0  0  0  0  0  0  0  0
    2.2979   -1.1871   -1.2642 H   0  0  0  0  0  0  0  0  0  0  0  0
    2.6729    1.1411   -1.8530 S   0  0  0  0  0  0  0  0  0  0  0  0
    2.3654    0.6413   -3.5942 C   0  0  0  0  0  0  0  0  0  0  0  0
    1.2916    0.5920   -3.7963 H   0  0  0  0  0  0  0  0  0  0  0  0
    2.8145    1.3689   -4.2769 H   0  0  0  0  0  0  0  0  0  0  0  0
    2.8063   -0.3406   -3.7899 H   0  0  0  0  0  0  0  0  0  0  0  0
   -0.4914    1.4446    0.6668 C   0  0  0  0  0  0  0  0  0  0  0  0
   -1.4235    2.0885    0.1976 O   0  0  0  0  0  0  0  0  0  0  0  0
    0.3387    2.0333    1.6027 N   0  0  0  0  0  0  0  0  0  0  0  0
    1.1055    1.4774    1.9697 H   0  0  0  0  0  0  0  0  0  0  0  0
    0.2340    3.4340    1.9921 C   0  0  0  0  0  0  0  0  0  0  0  0
   -0.7531    3.6405    2.4191 H   0  0  0  0  0  0  0  0  0  0  0  0
    0.9921    3.6758    2.7431 H   0  0  0  0  0  0  0  0  0  0  0  0
    0.3864    4.0846    1.1245 H   0  0  0  0  0  0  0  0  0  0  0  0
  1  2  1  0  0  0  0
  2  3  1  0  0  0  0
  2  4  1  0  0  0  0
  2  5  1  0  0  0  0
  5  6  2  0  0  0  0
  5  7  1  0  0  0  0
  7  8  1  0  0  0  0
  7  9  1  0  0  0  0
  9 10  1  0  0  0  0
  9 11  1  0  0  0  0
  9 22  1  0  0  0  0
 11 12  1  0  0  0  0
 11 13  1  0  0  0  0
 11 14  1  0  0  0  0
 14 15  1  0  0  0  0
 14 16  1  0  0  0  0
 14 17  1  0  0  0  0
 17 18  1  0  0  0  0
 18 19  1  0  0  0  0
 18 20  1  0  0  0  0
 18 21  1  0  0  0  0
 22 23  2  0  0  0  0
 22 24  1  0  0  0  0
 24 25  1  0  0  0  0
 24 26  1  0  0  0  0
 26 27  1  0  0  0  0
 26 28  1  0  0  0  0
 26 29  1  0  0  0  0
M  END
$$$$

  -OEChem-02102214153D

 29 28  0     1  0  0  0  0  0999 V2000
   -3.3833   -3.4485    1.3623 H   0  0  0  0  0  0  0  0  0  0  0  0
   -3.3474   -2.4865    0.8434 C   0  0  0  0  0  0  0  0  0  0  0  0
   -3.9931   -1.7790    1.3692 H   0  0  0  0  0  0  0  0  0  0  0  0
   -3.7188   -2.6211   -0.1753 H   0  0  0  0  0  0  0  0  0  0  0  0
   -1.9238   -1.9632    0.8095 C   0  0  0  0  0  0  0  0  0  0  0  0
   -1.0144   -2.6361    1.2685 O   0  0  0  0  0  0  0  0  0  0  0  0
   -1.6602   -0.7286    0.2545 N   0  0  0  0  0  0  0  0  0  0  0  0
   -2.4600   -0.1599   -0.0204 H   0  0  0  0  0  0  0  0  0  0  0  0
   -0.3560   -0.0517    0.3008 C   0  0  1  0  0  0  0  0  0  0  0  0
    0.2485   -0.5179    1.0852 H   0  0  0  0  0  0  0  0  0  0  0  0
    0.3510   -0.2062   -1.0579 C   0  0  0  0  0  0  0  0  0  0  0  0
    0.0566   -1.1673   -1.4927 H   0  0  0  0  0  0  0  0  0  0  0  0
    0.0190    0.5734   -1.7507 H   0  0  0  0  0  0  0  0  0  0  0  0
    1.8823   -0.2182   -0.9188 C   0  0  0  0  0  0  0  0  0  0  0  0
    2.1873   -0.4288    0.1106 H   0  0  0  0  0  0  0  0  0  0  0  0
    2.2937   -1.0172   -1.5443 H   0  0  0  0  0  0  0  0  0  0  0  0
    2.6055    1.3803   -1.4669 S   0  0  0  0  0  0  0  0  0  0  0  0
    2.3902    1.3269   -3.2913 C   0  0  0  0  0  0  0  0  0  0  0  0
    1.3288    1.3096   -3.5544 H   0  0  0  0  0  0  0  0  0  0  0  0
    2.8459    2.2111   -3.7469 H   0  0  0  0  0  0  0  0  0  0  0  0
    2.8705    0.4346   -3.7035 H   0  0  0  0  0  0  0  0  0  0  0  0
   -0.5087    1.4374    0.6713 C   0  0  0  0  0  0  0  0  0  0  0  0
   -1.4508    2.0785    0.2180 O   0  0  0  0  0  0  0  0  0  0  0  0
    0.3283    2.0233    1.6026 N   0  0  0  0  0  0  0  0  0  0  0  0
    1.1267    1.4812    1.9197 H   0  0  0  0  0  0  0  0  0  0  0  0
    0.2427    3.4296    1.9761 C   0  0  0  0  0  0  0  0  0  0  0  0
   -0.7432    3.6564    2.3954 H   0  0  0  0  0  0  0  0  0  0  0  0
    1.0000    3.6670    2.7294 H   0  0  0  0  0  0  0  0  0  0  0  0
    0.4105    4.0685    1.1026 H   0  0  0  0  0  0  0  0  0  0  0  0
  1  2  1  0  0  0  0
  2  3  1  0  0  0  0
  2  4  1  0  0  0  0
  2  5  1  0  0  0  0
  5  6  2  0  0  0  0
  5  7  1  0  0  0  0
  7  8  1  0  0  0  0
  7  9  1  0  0  0  0
  9 10  1  0  0  0  0
  9 11  1  0  0  0  0
  9 22  1  0  0  0  0
 11 12  1  0  0  0  0
 11 13  1  0  0  0  0
 11 14  1  0  0  0  0
 14 15  1  0  0  0  0
 14 16  1  0  0  0  0
 14 17  1  0  0  0  0
 17 18  1  0  0  0  0
 18 19  1  0  0  0  0
 18 20  1  0  0  0  0
 18 21  1  0  0  0  0
 22 23  2  0  0  0  0
 22 24  1  0  0  0  0
 24 25  1  0  0  0  0
 24 26  1  0  0  0  0
 26 27  1  0  0  0  0
 26 28  1  0  0  0  0
 26 29  1  0  0  0  0
M  END
$$$$

  -OEChem-02102214153D

 29 28  0     1  0  0  0  0  0999 V2000
   -3.3743   -3.4509    1.3615 H   0  0  0  0  0  0  0  0  0  0  0  0
   -3.3412   -2.4864    0.8469 C   0  0  0  0  0  0  0  0  0  0  0  0
   -3.9773   -1.7789    1.3845 H   0  0  0  0  0  0  0  0  0  0  0  0
   -3.7262   -2.6145   -0.1676 H   0  0  0  0  0  0  0  0  0  0  0  0
   -1.9162   -1.9690    0.7986 C   0  0  0  0  0  0  0  0  0  0  0  0
   -1.0042   -2.6472    1.2447 O   0  0  0  0  0  0  0  0  0  0  0  0
   -1.6540   -0.7337    0.2449 N   0  0  0  0  0  0  0  0  0  0  0  0
   -2.4547   -0.1606   -0.0180 H   0  0  0  0  0  0  0  0  0  0  0  0
   -0.3496   -0.0574    0.2941 C   0  0  1  0  0  0  0  0  0  0  0  0
    0.2584   -0.5208    1.0776 H   0  0  0  0  0  0  0  0  0  0  0  0
    0.3547   -0.2135   -1.0654 C   0  0  0  0  0  0  0  0  0  0  0  0
    0.0604   -1.1773   -1.4943 H   0  0  0  0  0  0  0  0  0  0  0  0
    0.0236    0.5621   -1.7623 H   0  0  0  0  0  0  0  0  0  0  0  0
    1.8843   -0.2284   -0.9255 C   0  0  0  0  0  0  0  0  0  0  0  0
    2.1852   -0.7017    0.0146 H   0  0  0  0  0  0  0  0  0  0  0  0
    2.3085   -0.8288   -1.7366 H   0  0  0  0  0  0  0  0  0  0  0  0
    2.5908    1.4660   -1.0361 S   0  0  0  0  0  0  0  0  0  0  0  0
    2.3547    1.9120   -2.8032 C   0  0  0  0  0  0  0  0  0  0  0  0
    1.2906    1.9861   -3.0438 H   0  0  0  0  0  0  0  0  0  0  0  0
    2.8235    2.8788   -3.0094 H   0  0  0  0  0  0  0  0  0  0  0  0
    2.8117    1.1571   -3.4499 H   0  0  0  0  0  0  0  0  0  0  0  0
   -0.5121    1.4305    0.6670 C   0  0  0  0  0  0  0  0  0  0  0  0
   -1.4576    2.0658    0.2116 O   0  0  0  0  0  0  0  0  0  0  0  0
    0.3178    2.0206    1.6017 N   0  0  0  0  0  0  0  0  0  0  0  0
    1.1428    1.4976    1.8818 H   0  0  0  0  0  0  0  0  0  0  0  0
    0.2331    3.4315    1.9570 C   0  0  0  0  0  0  0  0  0  0  0  0
   -0.7584    3.6677    2.3576 H   0  0  0  0  0  0  0  0  0  0  0  0
    0.9790    3.6741    2.7199 H   0  0  0  0  0  0  0  0  0  0  0  0
    0.4179    4.0590    1.0788 H   0  0  0  0  0  0  0  0  0  0  0  0
  1  2  1  0  0  0  0
  2  3  1  0  0  0  0
  2  4  1  0  0  0  0
  2  5  1  0  0  0  0
  5  6  2  0  0  0  0
  5  7  1  0  0  0  0
  7  8  1  0  0  0  0
  7  9  1  0  0  0  0
  9 10  1  0  0  0  0
  9 11  1  0  0  0  0
  9 22  1  0  0  0  0
 11 12  1  0  0  0  0
 11 13  1  0  0  0  0
 11 14  1  0  0  0  0
 14 15  1  0  0  0  0
 14 16  1  0  0  0  0
 14 17  1  0  0  0  0
 17 18  1  0  0  0  0
 18 19  1  0  0  0  0
 18 20  1  0  0  0  0
 18 21  1  0  0  0  0
 22 23  2  0  0  0  0
 22 24  1  0  0  0  0
 24 25  1  0  0  0  0
 24 26  1  0  0  0  0
 26 27  1  0  0  0  0
 26 28  1  0  0  0  0
 26 29  1  0  0  0  0
M  END
$$$$

  -OEChem-02102214153D

 29 28  0     1  0  0  0  0  0999 V2000
   -3.3894   -3.4287    1.2618 H   0  0  0  0  0  0  0  0  0  0  0  0
   -3.3371   -2.4338    0.8106 C   0  0  0  0  0  0  0  0  0  0  0  0
   -3.9498   -1.7469    1.3995 H   0  0  0  0  0  0  0  0  0  0  0  0
   -3.7350   -2.4866   -0.2057 H   0  0  0  0  0  0  0  0  0  0  0  0
   -1.9004   -1.9480    0.7801 C   0  0  0  0  0  0  0  0  0  0  0  0
   -1.0129   -2.6304    1.2666 O   0  0  0  0  0  0  0  0  0  0  0  0
   -1.6025   -0.7315    0.2038 N   0  0  0  0  0  0  0  0  0  0  0  0
   -2.3868   -0.1515   -0.0915 H   0  0  0  0  0  0  0  0  0  0  0  0
   -0.2884   -0.0756    0.2698 C   0  0  1  0  0  0  0  0  0  0  0  0
    0.3032   -0.5265    1.0733 H   0  0  0  0  0  0  0  0  0  0  0  0
    0.4328   -0.2815   -1.0761 C   0  0  0  0  0  0  0  0  0  0  0  0
    0.1265   -1.2499   -1.4862 H   0  0  0  0  0  0  0  0  0  0  0  0
    0.1257    0.4791   -1.7992 H   0  0  0  0  0  0  0  0  0  0  0  0
    1.9605   -0.3258   -0.9264 C   0  0  0  0  0  0  0  0  0  0  0  0
    2.2374   -1.0077   -0.1154 H   0  0  0  0  0  0  0  0  0  0  0  0
    2.3864   -0.7318   -1.8496 H   0  0  0  0  0  0  0  0  0  0  0  0
    2.7176    1.3275   -0.6306 S   0  0  0  0  0  0  0  0  0  0  0  0
    2.1012    2.3843   -2.0022 C   0  0  0  0  0  0  0  0  0  0  0  0
    1.0349    2.5948   -1.8765 H   0  0  0  0  0  0  0  0  0  0  0  0
    2.6403    3.3362   -2.0106 H   0  0  0  0  0  0  0  0  0  0  0  0
    2.2544    1.8870   -2.9645 H   0  0  0  0  0  0  0  0  0  0  0  0
   -0.4585    1.4216    0.6033 C   0  0  0  0  0  0  0  0  0  0  0  0
   -1.3723    2.0543    0.0836 O   0  0  0  0  0  0  0  0  0  0  0  0
    0.3421    2.0368    1.5470 N   0  0  0  0  0  0  0  0  0  0  0  0
    1.1654    1.5241    1.8520 H   0  0  0  0  0  0  0  0  0  0  0  0
    0.2569    3.4594    1.8515 C   0  0  0  0  0  0  0  0  0  0  0  0
   -0.7518    3.7199    2.1895 H   0  0  0  0  0  0  0  0  0  0  0  0
    0.9631    3.7186    2.6462 H   0  0  0  0  0  0  0  0  0  0  0  0
    0.4972    4.0551    0.9646 H   0  0  0  0  0  0  0  0  0  0  0  0
  1  2  1  0  0  0  0
  2  3  1  0  0  0  0
  2  4  1  0  0  0  0
  2  5  1  0  0  0  0
  5  6  2  0  0  0  0
  5  7  1  0  0  0  0
  7  8  1  0  0  0  0
  7  9  1  0  0  0  0
  9 10  1  0  0  0  0
  9 11  1  0  0  0  0
  9 22  1  0  0  0  0
 11 12  1  0  0  0  0
 11 13  1  0  0  0  0
 11 14  1  0  0  0  0
 14 15  1  0  0  0  0
 14 16  1  0  0  0  0
 14 17  1  0  0  0  0
 17 18  1  0  0  0  0
 18 19  1  0  0  0  0
 18 20  1  0  0  0  0
 18 21  1  0  0  0  0
 22 23  2  0  0  0  0
 22 24  1  0  0  0  0
 24 25  1  0  0  0  0
 24 26  1  0  0  0  0
 26 27  1  0  0  0  0
 26 28  1  0  0  0  0
 26 29  1  0  0  0  0
M  END
$$$$

  -OEChem-02102214153D

 29 28  0     1  0  0  0  0  0999 V2000
   -3.3624   -3.4116    1.3186 H   0  0  0  0  0  0  0  0  0  0  0  0
   -3.3151   -2.4449    0.8094 C   0  0  0  0  0  0  0  0  0  0  0  0
   -3.9492   -1.7343    1.3450 H   0  0  0  0  0  0  0  0  0  0  0  0
   -3.6917   -2.5641   -0.2093 H   0  0  0  0  0  0  0  0  0  0  0  0
   -1.8844   -1.9416    0.7765 C   0  0  0  0  0  0  0  0  0  0  0  0
   -0.9844   -2.6297    1.2308 O   0  0  0  0  0  0  0  0  0  0  0  0
   -1.6037   -0.7080    0.2283 N   0  0  0  0  0  0  0  0  0  0  0  0
   -2.3953   -0.1256   -0.0419 H   0  0  0  0  0  0  0  0  0  0  0  0
   -0.2926   -0.0451    0.2963 C   0  0  1  0  0  0  0  0  0  0  0  0
    0.3210   -0.5076    1.0767 H   0  0  0  0  0  0  0  0  0  0  0  0
    0.3963   -0.2279   -1.0728 C   0  0  0  0  0  0  0  0  0  0  0  0
    0.0662   -1.1749   -1.5129 H   0  0  0  0  0  0  0  0  0  0  0  0
    0.0801    0.5681   -1.7540 H   0  0  0  0  0  0  0  0  0  0  0  0
    1.9301   -0.2790   -0.9954 C   0  0  0  0  0  0  0  0  0  0  0  0
    2.2255   -1.1389   -0.3848 H   0  0  0  0  0  0  0  0  0  0  0  0
    2.3300   -0.4408   -2.0016 H   0  0  0  0  0  0  0  0  0  0  0  0
    2.7021    1.2352   -0.2908 S   0  0  0  0  0  0  0  0  0  0  0  0
    2.2062    2.5492   -1.4764 C   0  0  0  0  0  0  0  0  0  0  0  0
    1.1229    2.7002   -1.4557 H   0  0  0  0  0  0  0  0  0  0  0  0
    2.6915    3.4931   -1.2113 H   0  0  0  0  0  0  0  0  0  0  0  0
    2.5049    2.2755   -2.4926 H   0  0  0  0  0  0  0  0  0  0  0  0
   -0.4971    1.4394    0.6728 C   0  0  0  0  0  0  0  0  0  0  0  0
   -1.4243    2.0664    0.1695 O   0  0  0  0  0  0  0  0  0  0  0  0
    0.2921    2.0529    1.6273 N   0  0  0  0  0  0  0  0  0  0  0  0
    1.1329    1.5550    1.9101 H   0  0  0  0  0  0  0  0  0  0  0  0
    0.1693    3.4630    1.9740 C   0  0  0  0  0  0  0  0  0  0  0  0
   -0.8403    3.6825    2.3374 H   0  0  0  0  0  0  0  0  0  0  0  0
    0.8820    3.7208    2.7633 H   0  0  0  0  0  0  0  0  0  0  0  0
    0.3749    4.0913    1.1011 H   0  0  0  0  0  0  0  0  0  0  0  0
  1  2  1  0  0  0  0
  2  3  1  0  0  0  0
  2  4  1  0  0  0  0
  2  5  1  0  0  0  0
  5  6  2  0  0  0  0
  5  7  1  0  0  0  0
  7  8  1  0  0  0  0
  7  9  1  0  0  0  0
  9 10  1  0  0  0  0
  9 11  1  0  0  0  0
  9 22  1  0  0  0  0
 11 12  1  0  0  0  0
 11 13  1  0  0  0  0
 11 14  1  0  0  0  0
 14 15  1  0  0  0  0
 14 16  1  0  0  0  0
 14 17  1  0  0  0  0
 17 18  1  0  0  0  0
 18 19  1  0  0  0  0
 18 20  1  0  0  0  0
 18 21  1  0  0  0  0
 22 23  2  0  0  0  0
 22 24  1  0  0  0  0
 24 25  1  0  0  0  0
 24 26  1  0  0  0  0
 26 27  1  0  0  0  0
 26 28  1  0  0  0  0
 26 29  1  0  0  0  0
M  END
$$$$

  -OEChem-02102214153D

 29 28  0     1  0  0  0  0  0999 V2000
   -3.3374   -3.4570    1.3106 H   0  0  0  0  0  0  0  0  0  0  0  0
   -3.3053   -2.4847    0.8112 C   0  0  0  0  0  0  0  0  0  0  0  0
   -3.9556   -1.7912    1.3496 H   0  0  0  0  0  0  0  0  0  0  0  0
   -3.6745   -2.6013   -0.2105 H   0  0  0  0  0  0  0  0  0  0  0  0
   -1.8840   -1.9547    0.7907 C   0  0  0  0  0  0  0  0  0  0  0  0
   -0.9724   -2.6367    1.2306 O   0  0  0  0  0  0  0  0  0  0  0  0
   -1.6241   -0.7074    0.2636 N   0  0  0  0  0  0  0  0  0  0  0  0
   -2.4257   -0.1323    0.0073 H   0  0  0  0  0  0  0  0  0  0  0  0
   -0.3220   -0.0263    0.3344 C   0  0  1  0  0  0  0  0  0  0  0  0
    0.3078   -0.4933    1.0994 H   0  0  0  0  0  0  0  0  0  0  0  0
    0.3490   -0.1792   -1.0497 C   0  0  0  0  0  0  0  0  0  0  0  0
    0.0087   -1.1096   -1.5170 H   0  0  0  0  0  0  0  0  0  0  0  0
    0.0180    0.6420   -1.6939 H   0  0  0  0  0  0  0  0  0  0  0  0
    1.8872   -0.2170   -1.0319 C   0  0  0  0  0  0  0  0  0  0  0  0
    2.1958   -1.2001   -0.6608 H   0  0  0  0  0  0  0  0  0  0  0  0
    2.2634   -0.1232   -2.0555 H   0  0  0  0  0  0  0  0  0  0  0  0
    2.6859    1.0537    0.0303 S   0  0  0  0  0  0  0  0  0  0  0  0
    2.4054    2.5865   -0.9437 C   0  0  0  0  0  0  0  0  0  0  0  0
    1.3349    2.7676   -1.0786 H   0  0  0  0  0  0  0  0  0  0  0  0
    2.8408    3.4452   -0.4241 H   0  0  0  0  0  0  0  0  0  0  0  0
    2.8736    2.4994   -1.9286 H   0  0  0  0  0  0  0  0  0  0  0  0
   -0.5588    1.4470    0.7402 C   0  0  0  0  0  0  0  0  0  0  0  0
   -1.5005    2.0627    0.2500 O   0  0  0  0  0  0  0  0  0  0  0  0
    0.2180    2.0649    1.7018 N   0  0  0  0  0  0  0  0  0  0  0  0
    1.0677    1.5785    1.9804 H   0  0  0  0  0  0  0  0  0  0  0  0
    0.0571    3.4628    2.0812 C   0  0  0  0  0  0  0  0  0  0  0  0
   -0.9571    3.6459    2.4514 H   0  0  0  0  0  0  0  0  0  0  0  0
    0.7642    3.7223    2.8749 H   0  0  0  0  0  0  0  0  0  0  0  0
    0.2427    4.1168    1.2229 H   0  0  0  0  0  0  0  0  0  0  0  0
  1  2  1  0  0  0  0
  2  3  1  0  0  0  0
  2  4  1  0  0  0  0
  2  5  1  0  0  0  0
  5  6  2  0  0  0  0
  5  7  1  0  0  0  0
  7  8  1  0  0  0  0
  7  9  1  0  0  0  0
  9 10  1  0  0  0  0
  9 11  1  0  0  0  0
  9 22  1  0  0  0  0
 11 12  1  0  0  0  0
 11 13  1  0  0  0  0
 11 14  1  0  0  0  0
 14 15  1  0  0  0  0
 14 16  1  0  0  0  0
 14 17  1  0  0  0  0
 17 18  1  0  0  0  0
 18 19  1  0  0  0  0
 18 20  1  0  0  0  0
 18 21  1  0  0  0  0
 22 23  2  0  0  0  0
 22 24  1  0  0  0  0
 24 25  1  0  0  0  0
 24 26  1  0  0  0  0
 26 27  1  0  0  0  0
 26 28  1  0  0  0  0
 26 29  1  0  0  0  0
M  END
$$$$

  -OEChem-02102214153D

 29 28  0     1  0  0  0  0  0999 V2000
   -3.3317   -3.5168    1.2911 H   0  0  0  0  0  0  0  0  0  0  0  0
   -3.3123   -2.5402    0.7992 C   0  0  0  0  0  0  0  0  0  0  0  0
   -3.9836   -1.8636    1.3334 H   0  0  0  0  0  0  0  0  0  0  0  0
   -3.6647   -2.6562   -0.2286 H   0  0  0  0  0  0  0  0  0  0  0  0
   -1.9018   -1.9818    0.8030 C   0  0  0  0  0  0  0  0  0  0  0  0
   -0.9830   -2.6481    1.2517 O   0  0  0  0  0  0  0  0  0  0  0  0
   -1.6624   -0.7257    0.2873 N   0  0  0  0  0  0  0  0  0  0  0  0
   -2.4728   -0.1690    0.0193 H   0  0  0  0  0  0  0  0  0  0  0  0
   -0.3759   -0.0170    0.3701 C   0  0  1  0  0  0  0  0  0  0  0  0
    0.2545   -0.4820    1.1355 H   0  0  0  0  0  0  0  0  0  0  0  0
    0.3044   -0.1467   -1.0123 C   0  0  0  0  0  0  0  0  0  0  0  0
   -0.0237   -1.0744   -1.4935 H   0  0  0  0  0  0  0  0  0  0  0  0
   -0.0434    0.6783   -1.6430 H   0  0  0  0  0  0  0  0  0  0  0  0
    1.8456   -0.1531   -1.0180 C   0  0  0  0  0  0  0  0  0  0  0  0
    2.1694   -1.1931   -0.9043 H   0  0  0  0  0  0  0  0  0  0  0  0
    2.2097    0.1937   -1.9903 H   0  0  0  0  0  0  0  0  0  0  0  0
    2.6528    0.8060    0.3285 S   0  0  0  0  0  0  0  0  0  0  0  0
    2.6621    2.4932   -0.3994 C   0  0  0  0  0  0  0  0  0  0  0  0
    1.6445    2.8100   -0.6466 H   0  0  0  0  0  0  0  0  0  0  0  0
    3.0881    3.2068    0.3120 H   0  0  0  0  0  0  0  0  0  0  0  0
    3.2645    2.5083   -1.3125 H   0  0  0  0  0  0  0  0  0  0  0  0
   -0.6360    1.4496    0.7842 C   0  0  0  0  0  0  0  0  0  0  0  0
   -1.5825    2.0567    0.2931 O   0  0  0  0  0  0  0  0  0  0  0  0
    0.1288    2.0712    1.7528 N   0  0  0  0  0  0  0  0  0  0  0  0
    0.9674    1.5800    2.0568 H   0  0  0  0  0  0  0  0  0  0  0  0
   -0.0632    3.4567    2.1618 C   0  0  0  0  0  0  0  0  0  0  0  0
   -1.0735    3.6029    2.5583 H   0  0  0  0  0  0  0  0  0  0  0  0
    0.6550    3.7223    2.9433 H   0  0  0  0  0  0  0  0  0  0  0  0
    0.0830    4.1314    1.3119 H   0  0  0  0  0  0  0  0  0  0  0  0
  1  2  1  0  0  0  0
  2  3  1  0  0  0  0
  2  4  1  0  0  0  0
  2  5  1  0  0  0  0
  5  6  2  0  0  0  0
  5  7  1  0  0  0  0
  7  8  1  0  0  0  0
  7  9  1  0  0  0  0
  9 10  1  0  0  0  0
  9 11  1  0  0  0  0
  9 22  1  0  0  0  0
 11 12  1  0  0  0  0
 11 13  1  0  0  0  0
 11 14  1  0  0  0  0
 14 15  1  0  0  0  0
 14 16  1  0  0  0  0
 14 17  1  0  0  0  0
 17 18  1  0  0  0  0
 18 19  1  0  0  0  0
 18 20  1  0  0  0  0
 18 21  1  0  0  0  0
 22 23  2  0  0  0  0
 22 24  1  0  0  0  0
 24 25  1  0  0  0  0
 24 26  1  0  0  0  0
 26 27  1  0  0  0  0
 26 28  1  0  0  0  0
 26 29  1  0  0  0  0
M  END
$$$$

  -OEChem-02102214153D

 29 28  0     1  0  0  0  0  0999 V2000
   -3.3527   -3.5862    1.2558 H   0  0  0  0  0  0  0  0  0  0  0  0
   -3.3451   -2.6060    0.7709 C   0  0  0  0  0  0  0  0  0  0  0  0
   -4.0420   -1.9484    1.2960 H   0  0  0  0  0  0  0  0  0  0  0  0
   -3.6739   -2.7227   -0.2645 H   0  0  0  0  0  0  0  0  0  0  0  0
   -1.9479   -2.0159    0.8061 C   0  0  0  0  0  0  0  0  0  0  0  0
   -1.0260   -2.6622    1.2767 O   0  0  0  0  0  0  0  0  0  0  0  0
   -1.7261   -0.7554    0.2919 N   0  0  0  0  0  0  0  0  0  0  0  0
   -2.5436   -0.2216    0.0010 H   0  0  0  0  0  0  0  0  0  0  0  0
   -0.4586   -0.0147    0.3933 C   0  0  1  0  0  0  0  0  0  0  0  0
    0.1517   -0.4735    1.1770 H   0  0  0  0  0  0  0  0  0  0  0  0
    0.2640   -0.1317   -0.9676 C   0  0  0  0  0  0  0  0  0  0  0  0
   -0.0269   -1.0735   -1.4450 H   0  0  0  0  0  0  0  0  0  0  0  0
   -0.0965    0.6738   -1.6161 H   0  0  0  0  0  0  0  0  0  0  0  0
    1.8076   -0.0944   -0.9490 C   0  0  0  0  0  0  0  0  0  0  0  0
    2.1626   -1.1193   -1.1010 H   0  0  0  0  0  0  0  0  0  0  0  0
    2.1665    0.4969   -1.7974 H   0  0  0  0  0  0  0  0  0  0  0  0
    2.5900    0.5125    0.6053 S   0  0  0  0  0  0  0  0  0  0  0  0
    2.9614    2.2549    0.1564 C   0  0  0  0  0  0  0  0  0  0  0  0
    2.0476    2.7740   -0.1482 H   0  0  0  0  0  0  0  0  0  0  0  0
    3.3949    2.7806    1.0124 H   0  0  0  0  0  0  0  0  0  0  0  0
    3.6757    2.2879   -0.6716 H   0  0  0  0  0  0  0  0  0  0  0  0
   -0.7255    1.4513    0.7969 C   0  0  0  0  0  0  0  0  0  0  0  0
   -1.6685    2.0551    0.2964 O   0  0  0  0  0  0  0  0  0  0  0  0
    0.0328    2.0723    1.7706 N   0  0  0  0  0  0  0  0  0  0  0  0
    0.8501    1.5664    2.1072 H   0  0  0  0  0  0  0  0  0  0  0  0
   -0.1673    3.4536    2.1891 C   0  0  0  0  0  0  0  0  0  0  0  0
   -1.1815    3.5928    2.5783 H   0  0  0  0  0  0  0  0  0  0  0  0
    0.5436    3.7157    2.9786 H   0  0  0  0  0  0  0  0  0  0  0  0
   -0.0163    4.1358    1.3459 H   0  0  0  0  0  0  0  0  0  0  0  0
  1  2  1  0  0  0  0
  2  3  1  0  0  0  0
  2  4  1  0  0  0  0
  2  5  1  0  0  0  0
  5  6  2  0  0  0  0
  5  7  1  0  0  0  0
  7  8  1  0  0  0  0
  7  9  1  0  0  0  0
  9 10  1  0  0  0  0
  9 11  1  0  0  0  0
  9 22  1  0  0  0  0
 11 12  1  0  0  0  0
 11 13  1  0  0  0  0
 11 14  1  0  0  0  0
 14 15  1  0  0  0  0
 14 16  1  0  0  0  0
 14 17  1  0  0  0  0
 17 18  1  0  0  0  0
 18 19  1  0  0  0  0
 18 20  1  0  0  0  0
 18 21  1  0  0  0  0
 22 23  2  0  0  0  0
 22 24  1  0  0  0  0
 24 25  1  0  0  0  0
 24 26  1  0  0  0  0
 26 27  1  0  0  0  0
 26 28  1  0  0  0  0
 26 29  1  0  0  0  0
M  END
$$$$

  -OEChem-02102214153D

 29 28  0     1  0  0  0  0  0999 V2000
   -3.0476   -3.7681    1.3073 H   0  0  0  0  0  0  0  0  0  0  0  0
   -3.2031   -2.7623    0.9068 C   0  0  0  0  0  0  0  0  0  0  0  0
   -3.9253   -2.2393    1.5384 H   0  0  0  0  0  0  0  0  0  0  0  0
   -3.6058   -2.8446   -0.1056 H   0  0  0  0  0  0  0  0  0  0  0  0
   -1.8911   -2.0012    0.8820 C   0  0  0  0  0  0  0  0  0  0  0  0
   -0.8722   -2.5332    1.2917 O   0  0  0  0  0  0  0  0  0  0  0  0
   -1.8592   -0.7142    0.3866 N   0  0  0  0  0  0  0  0  0  0  0  0
   -2.7538   -0.2866    0.1528 H   0  0  0  0  0  0  0  0  0  0  0  0
   -0.7004    0.1902    0.4569 C   0  0  1  0  0  0  0  0  0  0  0  0
   -0.0327   -0.2066    1.2252 H   0  0  0  0  0  0  0  0  0  0  0  0
    0.0144    0.1994   -0.9112 C   0  0  0  0  0  0  0  0  0  0  0  0
   -0.1367   -0.7804   -1.3771 H   0  0  0  0  0  0  0  0  0  0  0  0
   -0.4732    0.9340   -1.5609 H   0  0  0  0  0  0  0  0  0  0  0  0
    1.5394    0.4577   -0.9117 C   0  0  0  0  0  0  0  0  0  0  0  0
    2.0305   -0.3973   -1.3879 H   0  0  0  0  0  0  0  0  0  0  0  0
    1.7398    1.3346   -1.5357 H   0  0  0  0  0  0  0  0  0  0  0  0
    2.3331    0.7290    0.7308 S   0  0  0  0  0  0  0  0  0  0  0  0
    4.0985    0.8936    0.2549 C   0  0  0  0  0  0  0  0  0  0  0  0
    4.4466   -0.0215   -0.2338 H   0  0  0  0  0  0  0  0  0  0  0  0
    4.7121    1.0696    1.1435 H   0  0  0  0  0  0  0  0  0  0  0  0
    4.2299    1.7335   -0.4338 H   0  0  0  0  0  0  0  0  0  0  0  0
   -1.1057    1.6106    0.8961 C   0  0  0  0  0  0  0  0  0  0  0  0
   -2.1446    2.1030    0.4689 O   0  0  0  0  0  0  0  0  0  0  0  0
   -0.3685    2.2910    1.8458 N   0  0  0  0  0  0  0  0  0  0  0  0
    0.5266    1.8830    2.1100 H   0  0  0  0  0  0  0  0  0  0  0  0
   -0.6979    3.6334    2.3064 C   0  0  0  0  0  0  0  0  0  0  0  0
   -1.7035    3.6537    2.7393 H   0  0  0  0  0  0  0  0  0  0  0  0
    0.0134    3.9548    3.0733 H   0  0  0  0  0  0  0  0  0  0  0  0
   -0.6576    4.3446    1.4749 H   0  0  0  0  0  0  0  0  0  0  0  0
  1  2  1  0  0  0  0
  2  3  1  0  0  0  0
  2  4  1  0  0  0  0
  2  5  1  0  0  0  0
  5  6  2  0  0  0  0
  5  7  1  0  0  0  0
  7  8  1  0  0  0  0
  7  9  1  0  0  0  0
  9 10  1  0  0  0  0
  9 11  1  0  0  0  0
  9 22  1  0  0  0  0
 11 12  1  0  0  0  0
 11 13  1  0  0  0  0
 11 14  1  0  0  0  0
 14 15  1  0  0  0  0
 14 16  1  0  0  0  0
 14 17  1  0  0  0  0
 17 18  1  0  0  0  0
 18 19  1  0  0  0  0
 18 20  1  0  0  0  0
 18 21  1  0  0  0  0
 22 23  2  0  0  0  0
 22 24  1  0  0  0  0
 24 25  1  0  0  0  0
 24 26  1  0  0  0  0
 26 27  1  0  0  0  0
 26 28  1  0  0  0  0
 26 29  1  0  0  0  0
M  END
$$$$

  -OEChem-02102214153D

 29 28  0     1  0  0  0  0  0999 V2000
   -3.8175   -3.1662    1.4387 H   0  0  0  0  0  0  0  0  0  0  0  0
   -3.7636   -2.1864    0.9560 C   0  0  0  0  0  0  0  0  0  0  0  0
   -4.4153   -1.4930    1.4929 H   0  0  0  0  0  0  0  0  0  0  0  0
   -4.1136   -2.2818   -0.0746 H   0  0  0  0  0  0  0  0  0  0  0  0
   -2.3360   -1.6736    0.9732 C   0  0  0  0  0  0  0  0  0  0  0  0
   -1.4552   -2.3473    1.4818 O   0  0  0  0  0  0  0  0  0  0  0  0
   -2.0473   -0.4479    0.4099 N   0  0  0  0  0  0  0  0  0  0  0  0
   -2.8362    0.1079    0.0845 H   0  0  0  0  0  0  0  0  0  0  0  0
   -0.7501    0.2417    0.4958 C   0  0  1  0  0  0  0  0  0  0  0  0
   -0.2161   -0.2147    1.3309 H   0  0  0  0  0  0  0  0  0  0  0  0
    0.0319    0.0318   -0.8189 C   0  0  0  0  0  0  0  0  0  0  0  0
   -0.2543   -0.9498   -1.2113 H   0  0  0  0  0  0  0  0  0  0  0  0
   -0.2888    0.7726   -1.5590 H   0  0  0  0  0  0  0  0  0  0  0  0
    1.5758    0.0240   -0.7329 C   0  0  0  0  0  0  0  0  0  0  0  0
    1.9565   -0.7766   -1.3755 H   0  0  0  0  0  0  0  0  0  0  0  0
    1.9395    0.9707   -1.1451 H   0  0  0  0  0  0  0  0  0  0  0  0
    2.3123   -0.1630    0.9466 S   0  0  0  0  0  0  0  0  0  0  0  0
    4.1068   -0.1697    0.5594 C   0  0  0  0  0  0  0  0  0  0  0  0
    4.3487   -1.0052   -0.1043 H   0  0  0  0  0  0  0  0  0  0  0  0
    4.6885   -0.2754    1.4801 H   0  0  0  0  0  0  0  0  0  0  0  0
    4.3935    0.7652    0.0689 H   0  0  0  0  0  0  0  0  0  0  0  0
   -0.8857    1.7374    0.8288 C   0  0  0  0  0  0  0  0  0  0  0  0
   -1.7777    2.3996    0.3100 O   0  0  0  0  0  0  0  0  0  0  0  0
   -0.0636    2.3142    1.7776 N   0  0  0  0  0  0  0  0  0  0  0  0
    0.6844    1.7353    2.1547 H   0  0  0  0  0  0  0  0  0  0  0  0
   -0.1412    3.7168    2.1640 C   0  0  0  0  0  0  0  0  0  0  0  0
    0.6056    3.9389    2.9324 H   0  0  0  0  0  0  0  0  0  0  0  0
   -1.1321    3.9489    2.5685 H   0  0  0  0  0  0  0  0  0  0  0  0
    0.0474    4.3631    1.3005 H   0  0  0  0  0  0  0  0  0  0  0  0
  1  2  1  0  0  0  0
  2  3  1  0  0  0  0
  2  4  1  0  0  0  0
  2  5  1  0  0  0  0
  5  6  2  0  0  0  0
  5  7  1  0  0  0  0
  7  8  1  0  0  0  0
  7  9  1  0  0  0  0
  9 10  1  0  0  0  0
  9 11  1  0  0  0  0
  9 22  1  0  0  0  0
 11 12  1  0  0  0  0
 11 13  1  0  0  0  0
 11 14  1  0  0  0  0
 14 15  1  0  0  0  0
 14 16  1  0  0  0  0
 14 17  1  0  0  0  0
 17 18  1  0  0  0  0
 18 19  1  0  0  0  0
 18 20  1  0  0  0  0
 18 21  1  0  0  0  0
 22 23  2  0  0  0  0
 22 24  1  0  0  0  0
 24 25  1  0  0  0  0
 24 26  1  0  0  0  0
 26 27  1  0  0  0  0
 26 28  1  0  0  0  0
 26 29  1  0  0  0  0
M  END
$$$$

  -OEChem-02102214153D

 29 28  0     1  0  0  0  0  0999 V2000
   -3.5549   -3.5548    0.8919 H   0  0  0  0  0  0  0  0  0  0  0  0
   -3.5026   -2.5779    0.4030 C   0  0  0  0  0  0  0  0  0  0  0  0
   -4.3253   -1.9572    0.7660 H   0  0  0  0  0  0  0  0  0  0  0  0
   -3.6086   -2.7183   -0.6754 H   0  0  0  0  0  0  0  0  0  0  0  0
   -2.1757   -1.9099    0.7105 C   0  0  0  0  0  0  0  0  0  0  0  0
   -1.3723   -2.4650    1.4414 O   0  0  0  0  0  0  0  0  0  0  0  0
   -1.8902   -0.6785    0.1580 N   0  0  0  0  0  0  0  0  0  0  0  0
   -2.6331   -0.2231   -0.3688 H   0  0  0  0  0  0  0  0  0  0  0  0
   -0.6984    0.1323    0.4539 C   0  0  1  0  0  0  0  0  0  0  0  0
   -0.2846   -0.2424    1.3914 H   0  0  0  0  0  0  0  0  0  0  0  0
    0.3217   -0.0297   -0.6947 C   0  0  0  0  0  0  0  0  0  0  0  0
    0.2024   -1.0432   -1.0921 H   0  0  0  0  0  0  0  0  0  0  0  0
    0.0788    0.6616   -1.5087 H   0  0  0  0  0  0  0  0  0  0  0  0
    1.8138    0.1086   -0.3265 C   0  0  0  0  0  0  0  0  0  0  0  0
    2.4059   -0.4676   -1.0448 H   0  0  0  0  0  0  0  0  0  0  0  0
    2.0941    1.1604   -0.4425 H   0  0  0  0  0  0  0  0  0  0  0  0
    2.2780   -0.4010    1.3808 S   0  0  0  0  0  0  0  0  0  0  0  0
    4.0997   -0.1791    1.3420 C   0  0  0  0  0  0  0  0  0  0  0  0
    4.3521    0.8610    1.1158 H   0  0  0  0  0  0  0  0  0  0  0  0
    4.5300   -0.4413    2.3133 H   0  0  0  0  0  0  0  0  0  0  0  0
    4.5434   -0.8241    0.5777 H   0  0  0  0  0  0  0  0  0  0  0  0
   -1.0273    1.6166    0.6874 C   0  0  0  0  0  0  0  0  0  0  0  0
   -1.8413    2.1833   -0.0330 O   0  0  0  0  0  0  0  0  0  0  0  0
   -0.4568    2.2965    1.7465 N   0  0  0  0  0  0  0  0  0  0  0  0
    0.2024    1.7844    2.3285 H   0  0  0  0  0  0  0  0  0  0  0  0
   -0.7490    3.6896    2.0587 C   0  0  0  0  0  0  0  0  0  0  0  0
   -1.8166    3.8203    2.2643 H   0  0  0  0  0  0  0  0  0  0  0  0
   -0.1864    4.0052    2.9425 H   0  0  0  0  0  0  0  0  0  0  0  0
   -0.4686    4.3365    1.2208 H   0  0  0  0  0  0  0  0  0  0  0  0
  1  2  1  0  0  0  0
  2  3  1  0  0  0  0
  2  4  1  0  0  0  0
  2  5  1  0  0  0  0
  5  6  2  0  0  0  0
  5  7  1  0  0  0  0
  7  8  1  0  0  0  0
  7  9  1  0  0  0  0
  9 10  1  0  0  0  0
  9 11  1  0  0  0  0
  9 22  1  0  0  0  0
 11 12  1  0  0  0  0
 11 13  1  0  0  0  0
 11 14  1  0  0  0  0
 14 15  1  0  0  0  0
 14 16  1  0  0  0  0
 14 17  1  0  0  0  0
 17 18  1  0  0  0  0
 18 19  1  0  0  0  0
 18 20  1  0  0  0  0
 18 21  1  0  0  0  0
 22 23  2  0  0  0  0
 22 24  1  0  0  0  0
 24 25  1  0  0  0  0
 24 26  1  0  0  0  0
 26 27  1  0  0  0  0
 26 28  1  0  0  0  0
 26 29  1  0  0  0  0
M  END
$$$$

  -OEChem-02102214153D

 29 28  0     1  0  0  0  0  0999 V2000
   -3.1278   -3.4574    1.2121 H   0  0  0  0  0  0  0  0  0  0  0  0
   -3.1710   -2.3802    1.0276 C   0  0  0  0  0  0  0  0  0  0  0  0
   -3.2401   -1.8623    1.9874 H   0  0  0  0  0  0  0  0  0  0  0  0
   -4.0637   -2.1597    0.4372 H   0  0  0  0  0  0  0  0  0  0  0  0
   -1.9314   -1.9239    0.2808 C   0  0  0  0  0  0  0  0  0  0  0  0
   -1.1398   -2.7710   -0.0971 O   0  0  0  0  0  0  0  0  0  0  0  0
   -1.8138   -0.5750   -0.0117 N   0  0  0  0  0  0  0  0  0  0  0  0
   -2.5920   -0.0202    0.3502 H   0  0  0  0  0  0  0  0  0  0  0  0
   -0.6826    0.2839   -0.4613 C   0  0  1  0  0  0  0  0  0  0  0  0
   -0.9435    0.6666   -1.4529 H   0  0  0  0  0  0  0  0  0  0  0  0
    0.6530   -0.5180   -0.7242 C   0  0  0  0  0  0  0  0  0  0  0  0
    0.6553   -1.2972    0.0356 H   0  0  0  0  0  0  0  0  0  0  0  0
    0.5379   -1.0073   -1.6970 H   0  0  0  0  0  0  0  0  0  0  0  0
    2.1374   -0.0838   -0.6006 C   0  0  0  0  0  0  0  0  0  0  0  0
    2.7459   -0.9905   -0.6874 H   0  0  0  0  0  0  0  0  0  0  0  0
    2.3595    0.5283   -1.4806 H   0  0  0  0  0  0  0  0  0  0  0  0
    2.7705    0.8496    0.8476 S   0  0  0  0  0  0  0  0  0  0  0  0
    2.2815   -0.2459    2.2395 C   0  0  0  0  0  0  0  0  0  0  0  0
    2.7183   -1.2409    2.1107 H   0  0  0  0  0  0  0  0  0  0  0  0
    1.1927   -0.3443    2.2861 H   0  0  0  0  0  0  0  0  0  0  0  0
    2.6342    0.1712    3.1874 H   0  0  0  0  0  0  0  0  0  0  0  0
   -0.8048    1.5500    0.4456 C   0  0  0  0  0  0  0  0  0  0  0  0
   -1.9439    1.9683    0.6433 O   0  0  0  0  0  0  0  0  0  0  0  0
    0.1924    2.2209    1.1144 N   0  0  0  0  0  0  0  0  0  0  0  0
    1.1460    1.9368    0.9253 H   0  0  0  0  0  0  0  0  0  0  0  0
   -0.0249    3.3827    1.9695 C   0  0  0  0  0  0  0  0  0  0  0  0
   -0.6885    3.1278    2.8025 H   0  0  0  0  0  0  0  0  0  0  0  0
    0.9276    3.7290    2.3822 H   0  0  0  0  0  0  0  0  0  0  0  0
   -0.4730    4.2023    1.3981 H   0  0  0  0  0  0  0  0  0  0  0  0
  1  2  1  0  0  0  0
  2  3  1  0  0  0  0
  2  4  1  0  0  0  0
  2  5  1  0  0  0  0
  5  6  2  0  0  0  0
  5  7  1  0  0  0  0
  7  8  1  0  0  0  0
  7  9  1  0  0  0  0
  9 10  1  0  0  0  0
  9 11  1  0  0  0  0
  9 22  1  0  0  0  0
 11 12  1  0  0  0  0
 11 13  1  0  0  0  0
 11 14  1  0  0  0  0
 14 15  1  0  0  0  0
 14 16  1  0  0  0  0
 14 17  1  0  0  0  0
 17 18  1  0  0  0  0
 18 19  1  0  0  0  0
 18 20  1  0  0  0  0
 18 21  1  0  0  0  0
 22 23  2  0  0  0  0
 22 24  1  0  0  0  0
 24 25  1  0  0  0  0
 24 26  1  0  0  0  0
 26 27  1  0  0  0  0
 26 28  1  0  0  0  0
 26 29  1  0  0  0  0
M  END
$$$$

  -OEChem-02102214153D

 29 28  0     1  0  0  0  0  0999 V2000
   -3.3376   -3.3479    1.1139 H   0  0  0  0  0  0  0  0  0  0  0  0
   -3.3188   -2.2602    1.0006 C   0  0  0  0  0  0  0  0  0  0  0  0
   -3.3365   -1.8036    1.9932 H   0  0  0  0  0  0  0  0  0  0  0  0
   -4.2085   -1.9484    0.4478 H   0  0  0  0  0  0  0  0  0  0  0  0
   -2.0690   -1.8302    0.2549 C   0  0  0  0  0  0  0  0  0  0  0  0
   -1.3328   -2.6967   -0.1846 O   0  0  0  0  0  0  0  0  0  0  0  0
   -1.8818   -0.4750    0.0409 N   0  0  0  0  0  0  0  0  0  0  0  0
   -2.6163    0.0987    0.4589 H   0  0  0  0  0  0  0  0  0  0  0  0
   -0.7189    0.3428   -0.3984 C   0  0  1  0  0  0  0  0  0  0  0  0
   -1.0105    0.8009   -1.3488 H   0  0  0  0  0  0  0  0  0  0  0  0
    0.5595   -0.4902   -0.7964 C   0  0  0  0  0  0  0  0  0  0  0  0
    0.5664   -1.3723   -0.1623 H   0  0  0  0  0  0  0  0  0  0  0  0
    0.4005   -0.8349   -1.8234 H   0  0  0  0  0  0  0  0  0  0  0  0
    2.0392   -0.0554   -0.6777 C   0  0  0  0  0  0  0  0  0  0  0  0
    2.6512   -0.8665   -1.0866 H   0  0  0  0  0  0  0  0  0  0  0  0
    2.1880    0.8142   -1.3258 H   0  0  0  0  0  0  0  0  0  0  0  0
    2.7260    0.3568    0.9816 S   0  0  0  0  0  0  0  0  0  0  0  0
    2.2382   -1.0839    2.0133 C   0  0  0  0  0  0  0  0  0  0  0  0
    2.6821   -0.9993    3.0096 H   0  0  0  0  0  0  0  0  0  0  0  0
    2.5844   -2.0149    1.5543 H   0  0  0  0  0  0  0  0  0  0  0  0
    1.1501   -1.1274    2.1207 H   0  0  0  0  0  0  0  0  0  0  0  0
   -0.6971    1.5679    0.5657 C   0  0  0  0  0  0  0  0  0  0  0  0
   -1.7885    2.0640    0.8349 O   0  0  0  0  0  0  0  0  0  0  0  0
    0.3875    2.1226    1.2061 N   0  0  0  0  0  0  0  0  0  0  0  0
    1.2992    1.7280    1.0026 H   0  0  0  0  0  0  0  0  0  0  0  0
    0.3088    3.2403    2.1400 C   0  0  0  0  0  0  0  0  0  0  0  0
   -0.3278    2.9835    2.9932 H   0  0  0  0  0  0  0  0  0  0  0  0
    1.3064    3.4868    2.5162 H   0  0  0  0  0  0  0  0  0  0  0  0
   -0.1028    4.1261    1.6451 H   0  0  0  0  0  0  0  0  0  0  0  0
  1  2  1  0  0  0  0
  2  3  1  0  0  0  0
  2  4  1  0  0  0  0
  2  5  1  0  0  0  0
  5  6  2  0  0  0  0
  5  7  1  0  0  0  0
  7  8  1  0  0  0  0
  7  9  1  0  0  0  0
  9 10  1  0  0  0  0
  9 11  1  0  0  0  0
  9 22  1  0  0  0  0
 11 12  1  0  0  0  0
 11 13  1  0  0  0  0
 11 14  1  0  0  0  0
 14 15  1  0  0  0  0
 14 16  1  0  0  0  0
 14 17  1  0  0  0  0
 17 18  1  0  0  0  0
 18 19  1  0  0  0  0
 18 20  1  0  0  0  0
 18 21  1  0  0  0  0
 22 23  2  0  0  0  0
 22 24  1  0  0  0  0
 24 25  1  0  0  0  0
 24 26  1  0  0  0  0
 26 27  1  0  0  0  0
 26 28  1  0  0  0  0
 26 29  1  0  0  0  0
M  END
$$$$

  -OEChem-02102214153D

 29 28  0     1  0  0  0  0  0999 V2000
   -4.0528   -3.1875    0.8444 H   0  0  0  0  0  0  0  0  0  0  0  0
   -3.8295   -2.2510    0.3256 C   0  0  0  0  0  0  0  0  0  0  0  0
   -4.5820   -1.5076    0.5995 H   0  0  0  0  0  0  0  0  0  0  0  0
   -3.8740   -2.4266   -0.7520 H   0  0  0  0  0  0  0  0  0  0  0  0
   -2.4485   -1.7572    0.7128 C   0  0  0  0  0  0  0  0  0  0  0  0
   -1.7919   -2.3752    1.5341 O   0  0  0  0  0  0  0  0  0  0  0  0
   -1.9595   -0.5945    0.1544 N   0  0  0  0  0  0  0  0  0  0  0  0
   -2.5834   -0.0690   -0.4545 H   0  0  0  0  0  0  0  0  0  0  0  0
   -0.6546    0.0116    0.4584 C   0  0  1  0  0  0  0  0  0  0  0  0
   -0.2698   -0.4235    1.3866 H   0  0  0  0  0  0  0  0  0  0  0  0
    0.3202   -0.3100   -0.6924 C   0  0  0  0  0  0  0  0  0  0  0  0
    0.0529   -1.2696   -1.1475 H   0  0  0  0  0  0  0  0  0  0  0  0
    0.2317    0.4542   -1.4722 H   0  0  0  0  0  0  0  0  0  0  0  0
    1.7750   -0.3988   -0.2187 C   0  0  0  0  0  0  0  0  0  0  0  0
    2.4341   -0.3721   -1.0922 H   0  0  0  0  0  0  0  0  0  0  0  0
    2.0246    0.4592    0.4129 H   0  0  0  0  0  0  0  0  0  0  0  0
    2.0741   -1.9657    0.6900 S   0  0  0  0  0  0  0  0  0  0  0  0
    3.8666   -1.8330    1.0623 C   0  0  0  0  0  0  0  0  0  0  0  0
    4.0640   -0.9468    1.6725 H   0  0  0  0  0  0  0  0  0  0  0  0
    4.2007   -2.7179    1.6122 H   0  0  0  0  0  0  0  0  0  0  0  0
    4.4424   -1.7590    0.1349 H   0  0  0  0  0  0  0  0  0  0  0  0
   -0.7659    1.5325    0.6741 C   0  0  0  0  0  0  0  0  0  0  0  0
   -1.4485    2.2102   -0.0855 O   0  0  0  0  0  0  0  0  0  0  0  0
   -0.1184    2.1376    1.7351 N   0  0  0  0  0  0  0  0  0  0  0  0
    0.3567    1.5313    2.3985 H   0  0  0  0  0  0  0  0  0  0  0  0
   -0.2396    3.5582    2.0385 C   0  0  0  0  0  0  0  0  0  0  0  0
   -1.2823    3.8176    2.2497 H   0  0  0  0  0  0  0  0  0  0  0  0
    0.3644    3.8111    2.9152 H   0  0  0  0  0  0  0  0  0  0  0  0
    0.1094    4.1617    1.1940 H   0  0  0  0  0  0  0  0  0  0  0  0
  1  2  1  0  0  0  0
  2  3  1  0  0  0  0
  2  4  1  0  0  0  0
  2  5  1  0  0  0  0
  5  6  2  0  0  0  0
  5  7  1  0  0  0  0
  7  8  1  0  0  0  0
  7  9  1  0  0  0  0
  9 10  1  0  0  0  0
  9 11  1  0  0  0  0
  9 22  1  0  0  0  0
 11 12  1  0  0  0  0
 11 13  1  0  0  0  0
 11 14  1  0  0  0  0
 14 15  1  0  0  0  0
 14 16  1  0  0  0  0
 14 17  1  0  0  0  0
 17 18  1  0  0  0  0
 18 19  1  0  0  0  0
 18 20  1  0  0  0  0
 18 21  1  0  0  0  0
 22 23  2  0  0  0  0
 22 24  1  0  0  0  0
 24 25  1  0  0  0  0
 24 26  1  0  0  0  0
 26 27  1  0  0  0  0
 26 28  1  0  0  0  0
 26 29  1  0  0  0  0
M  END
$$$$

  -OEChem-02102214153D

 29 28  0     1  0  0  0  0  0999 V2000
   -3.5310   -3.3765    1.1835 H   0  0  0  0  0  0  0  0  0  0  0  0
   -3.4485   -2.4124    0.6739 C   0  0  0  0  0  0  0  0  0  0  0  0
   -4.1555   -1.7131    1.1266 H   0  0  0  0  0  0  0  0  0  0  0  0
   -3.7046   -2.5484   -0.3796 H   0  0  0  0  0  0  0  0  0  0  0  0
   -2.0352   -1.8750    0.7979 C   0  0  0  0  0  0  0  0  0  0  0  0
   -1.1924   -2.5131    1.4074 O   0  0  0  0  0  0  0  0  0  0  0  0
   -1.7192   -0.6505    0.2479 N   0  0  0  0  0  0  0  0  0  0  0  0
   -2.4779   -0.1145   -0.1695 H   0  0  0  0  0  0  0  0  0  0  0  0
   -0.3994   -0.0056    0.3096 C   0  0  1  0  0  0  0  0  0  0  0  0
    0.1982   -0.4849    1.0883 H   0  0  0  0  0  0  0  0  0  0  0  0
    0.3000   -0.1775   -1.0532 C   0  0  0  0  0  0  0  0  0  0  0  0
   -0.0413   -1.1006   -1.5341 H   0  0  0  0  0  0  0  0  0  0  0  0
    0.0131    0.6498   -1.7112 H   0  0  0  0  0  0  0  0  0  0  0  0
    1.8303   -0.2338   -0.9407 C   0  0  0  0  0  0  0  0  0  0  0  0
    2.2546    0.1470   -1.8753 H   0  0  0  0  0  0  0  0  0  0  0  0
    2.1910    0.4115   -0.1339 H   0  0  0  0  0  0  0  0  0  0  0  0
    2.4430   -1.9544   -0.7147 S   0  0  0  0  0  0  0  0  0  0  0  0
    2.4520   -2.2280    1.1017 C   0  0  0  0  0  0  0  0  0  0  0  0
    1.4318   -2.3057    1.4848 H   0  0  0  0  0  0  0  0  0  0  0  0
    2.9742   -3.1609    1.3334 H   0  0  0  0  0  0  0  0  0  0  0  0
    2.9631   -1.4059    1.6105 H   0  0  0  0  0  0  0  0  0  0  0  0
   -0.5171    1.4873    0.6748 C   0  0  0  0  0  0  0  0  0  0  0  0
   -1.3820    2.1779    0.1487 O   0  0  0  0  0  0  0  0  0  0  0  0
    0.3245    2.0496    1.6171 N   0  0  0  0  0  0  0  0  0  0  0  0
    0.9693    1.4309    2.1006 H   0  0  0  0  0  0  0  0  0  0  0  0
    0.2174    3.4365    2.0538 C   0  0  0  0  0  0  0  0  0  0  0  0
   -0.7590    3.6188    2.5154 H   0  0  0  0  0  0  0  0  0  0  0  0
    0.9958    3.6630    2.7889 H   0  0  0  0  0  0  0  0  0  0  0  0
    0.3378    4.1165    1.2037 H   0  0  0  0  0  0  0  0  0  0  0  0
  1  2  1  0  0  0  0
  2  3  1  0  0  0  0
  2  4  1  0  0  0  0
  2  5  1  0  0  0  0
  5  6  2  0  0  0  0
  5  7  1  0  0  0  0
  7  8  1  0  0  0  0
  7  9  1  0  0  0  0
  9 10  1  0  0  0  0
  9 11  1  0  0  0  0
  9 22  1  0  0  0  0
 11 12  1  0  0  0  0
 11 13  1  0  0  0  0
 11 14  1  0  0  0  0
 14 15  1  0  0  0  0
 14 16  1  0  0  0  0
 14 17  1  0  0  0  0
 17 18  1  0  0  0  0
 18 19  1  0  0  0  0
 18 20  1  0  0  0  0
 18 21  1  0  0  0  0
 22 23  2  0  0  0  0
 22 24  1  0  0  0  0
 24 25  1  0  0  0  0
 24 26  1  0  0  0  0
 26 27  1  0  0  0  0
 26 28  1  0  0  0  0
 26 29  1  0  0  0  0
M  END
$$$$

  -OEChem-02102214153D

 29 28  0     1  0  0  0  0  0999 V2000
   -3.2663   -3.4532    1.3360 H   0  0  0  0  0  0  0  0  0  0  0  0
   -3.2191   -2.4978    0.8058 C   0  0  0  0  0  0  0  0  0  0  0  0
   -3.9607   -1.8197    1.2351 H   0  0  0  0  0  0  0  0  0  0  0  0
   -3.4568   -2.6676   -0.2472 H   0  0  0  0  0  0  0  0  0  0  0  0
   -1.8321   -1.8970    0.9328 C   0  0  0  0  0  0  0  0  0  0  0  0
   -0.9798   -2.4660    1.5951 O   0  0  0  0  0  0  0  0  0  0  0  0
   -1.5565   -0.6852    0.3355 N   0  0  0  0  0  0  0  0  0  0  0  0
   -2.3314   -0.2010   -0.1148 H   0  0  0  0  0  0  0  0  0  0  0  0
   -0.2673    0.0217    0.3772 C   0  0  1  0  0  0  0  0  0  0  0  0
    0.3485   -0.4040    1.1756 H   0  0  0  0  0  0  0  0  0  0  0  0
    0.4543   -0.1525   -0.9776 C   0  0  0  0  0  0  0  0  0  0  0  0
    0.1591   -1.1016   -1.4367 H   0  0  0  0  0  0  0  0  0  0  0  0
    0.1356    0.6398   -1.6638 H   0  0  0  0  0  0  0  0  0  0  0  0
    1.9871   -0.1278   -0.8452 C   0  0  0  0  0  0  0  0  0  0  0  0
    2.3950    0.5053   -1.6400 H   0  0  0  0  0  0  0  0  0  0  0  0
    2.2835    0.3222    0.1070 H   0  0  0  0  0  0  0  0  0  0  0  0
    2.7605   -1.7914   -1.0029 S   0  0  0  0  0  0  0  0  0  0  0  0
    1.9025   -2.8477    0.2283 C   0  0  0  0  0  0  0  0  0  0  0  0
    0.8771   -3.0432   -0.0946 H   0  0  0  0  0  0  0  0  0  0  0  0
    2.4204   -3.8061    0.3264 H   0  0  0  0  0  0  0  0  0  0  0  0
    1.8818   -2.3610    1.2076 H   0  0  0  0  0  0  0  0  0  0  0  0
   -0.4646    1.5212    0.6774 C   0  0  0  0  0  0  0  0  0  0  0  0
   -1.3644    2.1401    0.1213 O   0  0  0  0  0  0  0  0  0  0  0  0
    0.3376    2.1666    1.6005 N   0  0  0  0  0  0  0  0  0  0  0  0
    1.0082    1.6031    2.1156 H   0  0  0  0  0  0  0  0  0  0  0  0
    0.1440    3.5587    1.9888 C   0  0  0  0  0  0  0  0  0  0  0  0
   -0.8245    3.6864    2.4837 H   0  0  0  0  0  0  0  0  0  0  0  0
    0.9317    3.8718    2.6809 H   0  0  0  0  0  0  0  0  0  0  0  0
    0.1797    4.2115    1.1100 H   0  0  0  0  0  0  0  0  0  0  0  0
  1  2  1  0  0  0  0
  2  3  1  0  0  0  0
  2  4  1  0  0  0  0
  2  5  1  0  0  0  0
  5  6  2  0  0  0  0
  5  7  1  0  0  0  0
  7  8  1  0  0  0  0
  7  9  1  0  0  0  0
  9 10  1  0  0  0  0
  9 11  1  0  0  0  0
  9 22  1  0  0  0  0
 11 12  1  0  0  0  0
 11 13  1  0  0  0  0
 11 14  1  0  0  0  0
 14 15  1  0  0  0  0
 14 16  1  0  0  0  0
 14 17  1  0  0  0  0
 17 18  1  0  0  0  0
 18 19  1  0  0  0  0
 18 20  1  0  0  0  0
 18 21  1  0  0  0  0
 22 23  2  0  0  0  0
 22 24  1  0  0  0  0
 24 25  1  0  0  0  0
 24 26  1  0  0  0  0
 26 27  1  0  0  0  0
 26 28  1  0  0  0  0
 26 29  1  0  0  0  0
M  END
$$$$

  -OEChem-02102214153D

 29 28  0     1  0  0  0  0  0999 V2000
   -3.2943   -3.4589    1.2897 H   0  0  0  0  0  0  0  0  0  0  0  0
   -3.2603   -2.4884    0.7867 C   0  0  0  0  0  0  0  0  0  0  0  0
   -3.9533   -1.8079    1.2875 H   0  0  0  0  0  0  0  0  0  0  0  0
   -3.5750   -2.6190   -0.2515 H   0  0  0  0  0  0  0  0  0  0  0  0
   -1.8535   -1.9227    0.8342 C   0  0  0  0  0  0  0  0  0  0  0  0
   -0.9606   -2.5505    1.3813 O   0  0  0  0  0  0  0  0  0  0  0  0
   -1.5912   -0.6924    0.2687 N   0  0  0  0  0  0  0  0  0  0  0  0
   -2.3831   -0.1665   -0.0980 H   0  0  0  0  0  0  0  0  0  0  0  0
   -0.2978    0.0045    0.3256 C   0  0  1  0  0  0  0  0  0  0  0  0
    0.3075   -0.4471    1.1181 H   0  0  0  0  0  0  0  0  0  0  0  0
    0.4228   -0.1648   -1.0268 C   0  0  0  0  0  0  0  0  0  0  0  0
    0.1157   -1.1104   -1.4846 H   0  0  0  0  0  0  0  0  0  0  0  0
    0.1131    0.6294   -1.7147 H   0  0  0  0  0  0  0  0  0  0  0  0
    1.9547   -0.1555   -0.8806 C   0  0  0  0  0  0  0  0  0  0  0  0
    2.3630    0.6741   -1.4670 H   0  0  0  0  0  0  0  0  0  0  0  0
    2.2540    0.0055    0.1591 H   0  0  0  0  0  0  0  0  0  0  0  0
    2.7011   -1.7253   -1.4807 S   0  0  0  0  0  0  0  0  0  0  0  0
    2.0193   -2.9733   -0.3154 C   0  0  0  0  0  0  0  0  0  0  0  0
    0.9403   -3.0801   -0.4553 H   0  0  0  0  0  0  0  0  0  0  0  0
    2.4877   -3.9459   -0.4915 H   0  0  0  0  0  0  0  0  0  0  0  0
    2.2100   -2.6749    0.7195 H   0  0  0  0  0  0  0  0  0  0  0  0
   -0.4728    1.4958    0.6730 C   0  0  0  0  0  0  0  0  0  0  0  0
   -1.3751    2.1395    0.1505 O   0  0  0  0  0  0  0  0  0  0  0  0
    0.3433    2.1032    1.6093 N   0  0  0  0  0  0  0  0  0  0  0  0
    1.0258    1.5227    2.0884 H   0  0  0  0  0  0  0  0  0  0  0  0
    0.1835    3.4918    2.0238 C   0  0  0  0  0  0  0  0  0  0  0  0
   -0.7959    3.6430    2.4895 H   0  0  0  0  0  0  0  0  0  0  0  0
    0.9572    3.7623    2.7487 H   0  0  0  0  0  0  0  0  0  0  0  0
    0.2702    4.1609    1.1613 H   0  0  0  0  0  0  0  0  0  0  0  0
  1  2  1  0  0  0  0
  2  3  1  0  0  0  0
  2  4  1  0  0  0  0
  2  5  1  0  0  0  0
  5  6  2  0  0  0  0
  5  7  1  0  0  0  0
  7  8  1  0  0  0  0
  7  9  1  0  0  0  0
  9 10  1  0  0  0  0
  9 11  1  0  0  0  0
  9 22  1  0  0  0  0
 11 12  1  0  0  0  0
 11 13  1  0  0  0  0
 11 14  1  0  0  0  0
 14 15  1  0  0  0  0
 14 16  1  0  0  0  0
 14 17  1  0  0  0  0
 17 18  1  0  0  0  0
 18 19  1  0  0  0  0
 18 20  1  0  0  0  0
 18 21  1  0  0  0  0
 22 23  2  0  0  0  0
 22 24  1  0  0  0  0
 24 25  1  0  0  0  0
 24 26  1  0  0  0  0
 26 27  1  0  0  0  0
 26 28  1  0  0  0  0
 26 29  1  0  0  0  0
M  END
$$$$

  -OEChem-02102214153D

 29 28  0     1  0  0  0  0  0999 V2000
   -3.3457   -3.4361    1.2783 H   0  0  0  0  0  0  0  0  0  0  0  0
   -3.3110   -2.4681    0.7706 C   0  0  0  0  0  0  0  0  0  0  0  0
   -3.9816   -1.7766    1.2865 H   0  0  0  0  0  0  0  0  0  0  0  0
   -3.6537   -2.5978   -0.2588 H   0  0  0  0  0  0  0  0  0  0  0  0
   -1.8955   -1.9226    0.7798 C   0  0  0  0  0  0  0  0  0  0  0  0
   -0.9886   -2.5831    1.2623 O   0  0  0  0  0  0  0  0  0  0  0  0
   -1.6344   -0.6827    0.2349 N   0  0  0  0  0  0  0  0  0  0  0  0
   -2.4304   -0.1341   -0.0868 H   0  0  0  0  0  0  0  0  0  0  0  0
   -0.3351    0.0019    0.2966 C   0  0  1  0  0  0  0  0  0  0  0  0
    0.2646   -0.4680    1.0823 H   0  0  0  0  0  0  0  0  0  0  0  0
    0.3780   -0.1634   -1.0580 C   0  0  0  0  0  0  0  0  0  0  0  0
    0.0627   -1.1123   -1.5029 H   0  0  0  0  0  0  0  0  0  0  0  0
    0.0706    0.6260   -1.7522 H   0  0  0  0  0  0  0  0  0  0  0  0
    1.9092   -0.1707   -0.9153 C   0  0  0  0  0  0  0  0  0  0  0  0
    2.3080    0.7946   -1.2437 H   0  0  0  0  0  0  0  0  0  0  0  0
    2.2118   -0.3142    0.1261 H   0  0  0  0  0  0  0  0  0  0  0  0
    2.6500   -1.5189   -1.9203 S   0  0  0  0  0  0  0  0  0  0  0  0
    2.1876   -3.0096   -0.9464 C   0  0  0  0  0  0  0  0  0  0  0  0
    1.1001   -3.1023   -0.8706 H   0  0  0  0  0  0  0  0  0  0  0  0
    2.5798   -3.9087   -1.4305 H   0  0  0  0  0  0  0  0  0  0  0  0
    2.6025   -2.9471    0.0638 H   0  0  0  0  0  0  0  0  0  0  0  0
   -0.4867    1.4880    0.6737 C   0  0  0  0  0  0  0  0  0  0  0  0
   -1.3892    2.1511    0.1768 O   0  0  0  0  0  0  0  0  0  0  0  0
    0.3451    2.0663    1.6146 N   0  0  0  0  0  0  0  0  0  0  0  0
    1.0426    1.4749    2.0571 H   0  0  0  0  0  0  0  0  0  0  0  0
    0.2184    3.4528    2.0473 C   0  0  0  0  0  0  0  0  0  0  0  0
   -0.7651    3.6262    2.4968 H   0  0  0  0  0  0  0  0  0  0  0  0
    0.9851    3.6889    2.7915 H   0  0  0  0  0  0  0  0  0  0  0  0
    0.3419    4.1319    1.1970 H   0  0  0  0  0  0  0  0  0  0  0  0
  1  2  1  0  0  0  0
  2  3  1  0  0  0  0
  2  4  1  0  0  0  0
  2  5  1  0  0  0  0
  5  6  2  0  0  0  0
  5  7  1  0  0  0  0
  7  8  1  0  0  0  0
  7  9  1  0  0  0  0
  9 10  1  0  0  0  0
  9 11  1  0  0  0  0
  9 22  1  0  0  0  0
 11 12  1  0  0  0  0
 11 13  1  0  0  0  0
 11 14  1  0  0  0  0
 14 15  1  0  0  0  0
 14 16  1  0  0  0  0
 14 17  1  0  0  0  0
 17 18  1  0  0  0  0
 18 19  1  0  0  0  0
 18 20  1  0  0  0  0
 18 21  1  0  0  0  0
 22 23  2  0  0  0  0
 22 24  1  0  0  0  0
 24 25  1  0  0  0  0
 24 26  1  0  0  0  0
 26 27  1  0  0  0  0
 26 28  1  0  0  0  0
 26 29  1  0  0  0  0
M  END
$$$$

  -OEChem-02102214153D

 29 28  0     1  0  0  0  0  0999 V2000
   -3.3784   -3.4169    1.2844 H   0  0  0  0  0  0  0  0  0  0  0  0
   -3.3415   -2.4457    0.7831 C   0  0  0  0  0  0  0  0  0  0  0  0
   -4.0015   -1.7527    1.3103 H   0  0  0  0  0  0  0  0  0  0  0  0
   -3.6950   -2.5656   -0.2438 H   0  0  0  0  0  0  0  0  0  0  0  0
   -1.9220   -1.9109    0.7825 C   0  0  0  0  0  0  0  0  0  0  0  0
   -1.0168   -2.5777    1.2591 O   0  0  0  0  0  0  0  0  0  0  0  0
   -1.6556   -0.6719    0.2380 N   0  0  0  0  0  0  0  0  0  0  0  0
   -2.4500   -0.1160   -0.0747 H   0  0  0  0  0  0  0  0  0  0  0  0
   -0.3505    0.0025    0.2920 C   0  0  1  0  0  0  0  0  0  0  0  0
    0.2531   -0.4713    1.0722 H   0  0  0  0  0  0  0  0  0  0  0  0
    0.3520   -0.1617   -1.0684 C   0  0  0  0  0  0  0  0  0  0  0  0
    0.0344   -1.1138   -1.5040 H   0  0  0  0  0  0  0  0  0  0  0  0
    0.0440    0.6260   -1.7642 H   0  0  0  0  0  0  0  0  0  0  0  0
    1.8812   -0.1801   -0.9314 C   0  0  0  0  0  0  0  0  0  0  0  0
    2.2655    0.8437   -0.9854 H   0  0  0  0  0  0  0  0  0  0  0  0
    2.1822   -0.6003    0.0334 H   0  0  0  0  0  0  0  0  0  0  0  0
    2.6368   -1.2043   -2.2573 S   0  0  0  0  0  0  0  0  0  0  0  0
    2.3092   -2.9145   -1.6665 C   0  0  0  0  0  0  0  0  0  0  0  0
    1.2336   -3.1005   -1.5964 H   0  0  0  0  0  0  0  0  0  0  0  0
    2.7427   -3.6391   -2.3619 H   0  0  0  0  0  0  0  0  0  0  0  0
    2.7556   -3.0673   -0.6796 H   0  0  0  0  0  0  0  0  0  0  0  0
   -0.4901    1.4892    0.6732 C   0  0  0  0  0  0  0  0  0  0  0  0
   -1.3931    2.1596    0.1871 O   0  0  0  0  0  0  0  0  0  0  0  0
    0.3527    2.0582    1.6101 N   0  0  0  0  0  0  0  0  0  0  0  0
    1.0433    1.4573    2.0507 H   0  0  0  0  0  0  0  0  0  0  0  0
    0.2305    3.4395    2.0604 C   0  0  0  0  0  0  0  0  0  0  0  0
   -0.7473    3.6071    2.5241 H   0  0  0  0  0  0  0  0  0  0  0  0
    1.0062    3.6669    2.7979 H   0  0  0  0  0  0  0  0  0  0  0  0
    0.3433    4.1289    1.2171 H   0  0  0  0  0  0  0  0  0  0  0  0
  1  2  1  0  0  0  0
  2  3  1  0  0  0  0
  2  4  1  0  0  0  0
  2  5  1  0  0  0  0
  5  6  2  0  0  0  0
  5  7  1  0  0  0  0
  7  8  1  0  0  0  0
  7  9  1  0  0  0  0
  9 10  1  0  0  0  0
  9 11  1  0  0  0  0
  9 22  1  0  0  0  0
 11 12  1  0  0  0  0
 11 13  1  0  0  0  0
 11 14  1  0  0  0  0
 14 15  1  0  0  0  0
 14 16  1  0  0  0  0
 14 17  1  0  0  0  0
 17 18  1  0  0  0  0
 18 19  1  0  0  0  0
 18 20  1  0  0  0  0
 18 21  1  0  0  0  0
 22 23  2  0  0  0  0
 22 24  1  0  0  0  0
 24 25  1  0  0  0  0
 24 26  1  0  0  0  0
 26 27  1  0  0  0  0
 26 28  1  0  0  0  0
 26 29  1  0  0  0  0
M  END
$$$$

  -OEChem-02102214153D

 29 28  0     1  0  0  0  0  0999 V2000
   -3.3833   -3.4136    1.3087 H   0  0  0  0  0  0  0  0  0  0  0  0
   -3.3455   -2.4467    0.7993 C   0  0  0  0  0  0  0  0  0  0  0  0
   -4.0057   -1.7487    1.3196 H   0  0  0  0  0  0  0  0  0  0  0  0
   -3.6976   -2.5751   -0.2271 H   0  0  0  0  0  0  0  0  0  0  0  0
   -1.9253   -1.9136    0.7968 C   0  0  0  0  0  0  0  0  0  0  0  0
   -1.0217   -2.5796    1.2771 O   0  0  0  0  0  0  0  0  0  0  0  0
   -1.6572   -0.6756    0.2512 N   0  0  0  0  0  0  0  0  0  0  0  0
   -2.4512   -0.1178   -0.0598 H   0  0  0  0  0  0  0  0  0  0  0  0
   -0.3503   -0.0038    0.2988 C   0  0  1  0  0  0  0  0  0  0  0  0
    0.2599   -0.4780    1.0742 H   0  0  0  0  0  0  0  0  0  0  0  0
    0.3463   -0.1652   -1.0647 C   0  0  0  0  0  0  0  0  0  0  0  0
    0.0312   -1.1155   -1.5053 H   0  0  0  0  0  0  0  0  0  0  0  0
    0.0404    0.6294   -1.7537 H   0  0  0  0  0  0  0  0  0  0  0  0
    1.8724   -0.1847   -0.9211 C   0  0  0  0  0  0  0  0  0  0  0  0
    2.2345    0.8266   -0.7096 H   0  0  0  0  0  0  0  0  0  0  0  0
    2.1704   -0.8318   -0.0898 H   0  0  0  0  0  0  0  0  0  0  0  0
    2.6582   -0.8119   -2.4595 S   0  0  0  0  0  0  0  0  0  0  0  0
    2.3561   -2.6227   -2.3648 C   0  0  0  0  0  0  0  0  0  0  0  0
    1.2855   -2.8387   -2.4188 H   0  0  0  0  0  0  0  0  0  0  0  0
    2.8541   -3.1284   -3.1974 H   0  0  0  0  0  0  0  0  0  0  0  0
    2.7488   -3.0246   -1.4263 H   0  0  0  0  0  0  0  0  0  0  0  0
   -0.4904    1.4827    0.6809 C   0  0  0  0  0  0  0  0  0  0  0  0
   -1.3991    2.1501    0.2009 O   0  0  0  0  0  0  0  0  0  0  0  0
    0.3546    2.0545    1.6143 N   0  0  0  0  0  0  0  0  0  0  0  0
    1.0533    1.4581    2.0483 H   0  0  0  0  0  0  0  0  0  0  0  0
    0.2358    3.4392    2.0549 C   0  0  0  0  0  0  0  0  0  0  0  0
   -0.7433    3.6128    2.5139 H   0  0  0  0  0  0  0  0  0  0  0  0
    1.0098    3.6701    2.7932 H   0  0  0  0  0  0  0  0  0  0  0  0
    0.3532    4.1220    1.2068 H   0  0  0  0  0  0  0  0  0  0  0  0
  1  2  1  0  0  0  0
  2  3  1  0  0  0  0
  2  4  1  0  0  0  0
  2  5  1  0  0  0  0
  5  6  2  0  0  0  0
  5  7  1  0  0  0  0
  7  8  1  0  0  0  0
  7  9  1  0  0  0  0
  9 10  1  0  0  0  0
  9 11  1  0  0  0  0
  9 22  1  0  0  0  0
 11 12  1  0  0  0  0
 11 13  1  0  0  0  0
 11 14  1  0  0  0  0
 14 15  1  0  0  0  0
 14 16  1  0  0  0  0
 14 17  1  0  0  0  0
 17 18  1  0  0  0  0
 18 19  1  0  0  0  0
 18 20  1  0  0  0  0
 18 21  1  0  0  0  0
 22 23  2  0  0  0  0
 22 24  1  0  0  0  0
 24 25  1  0  0  0  0
 24 26  1  0  0  0  0
 26 27  1  0  0  0  0
 26 28  1  0  0  0  0
 26 29  1  0  0  0  0
M  END
$$$$

  -OEChem-02102214153D

 29 28  0     1  0  0  0  0  0999 V2000
   -3.3698   -3.4192    1.3305 H   0  0  0  0  0  0  0  0  0  0  0  0
   -3.3360   -2.4541    0.8174 C   0  0  0  0  0  0  0  0  0  0  0  0
   -3.9914   -1.7540    1.3411 H   0  0  0  0  0  0  0  0  0  0  0  0
   -3.6969   -2.5855   -0.2055 H   0  0  0  0  0  0  0  0  0  0  0  0
   -1.9156   -1.9222    0.8005 C   0  0  0  0  0  0  0  0  0  0  0  0
   -1.0070   -2.5891    1.2700 O   0  0  0  0  0  0  0  0  0  0  0  0
   -1.6522   -0.6841    0.2533 N   0  0  0  0  0  0  0  0  0  0  0  0
   -2.4489   -0.1238   -0.0465 H   0  0  0  0  0  0  0  0  0  0  0  0
   -0.3458   -0.0112    0.2981 C   0  0  1  0  0  0  0  0  0  0  0  0
    0.2633   -0.4784    1.0792 H   0  0  0  0  0  0  0  0  0  0  0  0
    0.3601   -0.1746   -1.0627 C   0  0  0  0  0  0  0  0  0  0  0  0
   -0.1343   -0.9630   -1.6378 H   0  0  0  0  0  0  0  0  0  0  0  0
    0.2847    0.7488   -1.6473 H   0  0  0  0  0  0  0  0  0  0  0  0
    1.8309   -0.5579   -0.8778 C   0  0  0  0  0  0  0  0  0  0  0  0
    2.3450    0.2218   -0.3072 H   0  0  0  0  0  0  0  0  0  0  0  0
    1.9078   -1.4957   -0.3170 H   0  0  0  0  0  0  0  0  0  0  0  0
    2.6601   -0.7490   -2.5064 S   0  0  0  0  0  0  0  0  0  0  0  0
    1.9525   -2.3202   -3.1440 C   0  0  0  0  0  0  0  0  0  0  0  0
    0.8825   -2.2082   -3.3392 H   0  0  0  0  0  0  0  0  0  0  0  0
    2.4480   -2.6012   -4.0780 H   0  0  0  0  0  0  0  0  0  0  0  0
    2.0960   -3.1241   -2.4159 H   0  0  0  0  0  0  0  0  0  0  0  0
   -0.4916    1.4749    0.6804 C   0  0  0  0  0  0  0  0  0  0  0  0
   -1.4095    2.1357    0.2087 O   0  0  0  0  0  0  0  0  0  0  0  0
    0.3522    2.0499    1.6127 N   0  0  0  0  0  0  0  0  0  0  0  0
    1.0688    1.4624    2.0292 H   0  0  0  0  0  0  0  0  0  0  0  0
    0.2335    3.4357    2.0496 C   0  0  0  0  0  0  0  0  0  0  0  0
   -0.7469    3.6124    2.5044 H   0  0  0  0  0  0  0  0  0  0  0  0
    1.0049    3.6669    2.7905 H   0  0  0  0  0  0  0  0  0  0  0  0
    0.3556    4.1163    1.2004 H   0  0  0  0  0  0  0  0  0  0  0  0
  1  2  1  0  0  0  0
  2  3  1  0  0  0  0
  2  4  1  0  0  0  0
  2  5  1  0  0  0  0
  5  6  2  0  0  0  0
  5  7  1  0  0  0  0
  7  8  1  0  0  0  0
  7  9  1  0  0  0  0
  9 10  1  0  0  0  0
  9 11  1  0  0  0  0
  9 22  1  0  0  0  0
 11 12  1  0  0  0  0
 11 13  1  0  0  0  0
 11 14  1  0  0  0  0
 14 15  1  0  0  0  0
 14 16  1  0  0  0  0
 14 17  1  0  0  0  0
 17 18  1  0  0  0  0
 18 19  1  0  0  0  0
 18 20  1  0  0  0  0
 18 21  1  0  0  0  0
 22 23  2  0  0  0  0
 22 24  1  0  0  0  0
 24 25  1  0  0  0  0
 24 26  1  0  0  0  0
 26 27  1  0  0  0  0
 26 28  1  0  0  0  0
 26 29  1  0  0  0  0
M  END
$$$$

  -OEChem-02102214153D

 29 28  0     1  0  0  0  0  0999 V2000
   -3.3663   -3.4299    1.3256 H   0  0  0  0  0  0  0  0  0  0  0  0
   -3.3298   -2.4632    0.8152 C   0  0  0  0  0  0  0  0  0  0  0  0
   -3.9861   -1.7637    1.3388 H   0  0  0  0  0  0  0  0  0  0  0  0
   -3.6879   -2.5919   -0.2092 H   0  0  0  0  0  0  0  0  0  0  0  0
   -1.9091   -1.9315    0.8039 C   0  0  0  0  0  0  0  0  0  0  0  0
   -1.0040   -2.5947    1.2852 O   0  0  0  0  0  0  0  0  0  0  0  0
   -1.6420   -0.6982    0.2476 N   0  0  0  0  0  0  0  0  0  0  0  0
   -2.4372   -0.1391   -0.0581 H   0  0  0  0  0  0  0  0  0  0  0  0
   -0.3366   -0.0238    0.2989 C   0  0  1  0  0  0  0  0  0  0  0  0
    0.2640   -0.4835    1.0908 H   0  0  0  0  0  0  0  0  0  0  0  0
    0.3819   -0.2053   -1.0531 C   0  0  0  0  0  0  0  0  0  0  0  0
   -0.1046   -0.9942   -1.6351 H   0  0  0  0  0  0  0  0  0  0  0  0
    0.3136    0.7190   -1.6375 H   0  0  0  0  0  0  0  0  0  0  0  0
    1.8515   -0.5863   -0.8513 C   0  0  0  0  0  0  0  0  0  0  0  0
    2.2998    0.0580   -0.0885 H   0  0  0  0  0  0  0  0  0  0  0  0
    1.9262   -1.6225   -0.5043 H   0  0  0  0  0  0  0  0  0  0  0  0
    2.7970   -0.3687   -2.4117 S   0  0  0  0  0  0  0  0  0  0  0  0
    2.0856   -1.6651   -3.5015 C   0  0  0  0  0  0  0  0  0  0  0  0
    1.0311   -1.4587   -3.7048 H   0  0  0  0  0  0  0  0  0  0  0  0
    2.6245   -1.6900   -4.4532 H   0  0  0  0  0  0  0  0  0  0  0  0
    2.1684   -2.6470   -3.0261 H   0  0  0  0  0  0  0  0  0  0  0  0
   -0.4859    1.4665    0.6660 C   0  0  0  0  0  0  0  0  0  0  0  0
   -1.4025    2.1214    0.1833 O   0  0  0  0  0  0  0  0  0  0  0  0
    0.3494    2.0500    1.6009 N   0  0  0  0  0  0  0  0  0  0  0  0
    1.0639    1.4668    2.0268 H   0  0  0  0  0  0  0  0  0  0  0  0
    0.2247    3.4384    2.0287 C   0  0  0  0  0  0  0  0  0  0  0  0
   -0.7580    3.6145    2.4790 H   0  0  0  0  0  0  0  0  0  0  0  0
    0.9926    3.6762    2.7712 H   0  0  0  0  0  0  0  0  0  0  0  0
    0.3482    4.1144    1.1760 H   0  0  0  0  0  0  0  0  0  0  0  0
  1  2  1  0  0  0  0
  2  3  1  0  0  0  0
  2  4  1  0  0  0  0
  2  5  1  0  0  0  0
  5  6  2  0  0  0  0
  5  7  1  0  0  0  0
  7  8  1  0  0  0  0
  7  9  1  0  0  0  0
  9 10  1  0  0  0  0
  9 11  1  0  0  0  0
  9 22  1  0  0  0  0
 11 12  1  0  0  0  0
 11 13  1  0  0  0  0
 11 14  1  0  0  0  0
 14 15  1  0  0  0  0
 14 16  1  0  0  0  0
 14 17  1  0  0  0  0
 17 18  1  0  0  0  0
 18 19  1  0  0  0  0
 18 20  1  0  0  0  0
 18 21  1  0  0  0  0
 22 23  2  0  0  0  0
 22 24  1  0  0  0  0
 24 25  1  0  0  0  0
 24 26  1  0  0  0  0
 26 27  1  0  0  0  0
 26 28  1  0  0  0  0
 26 29  1  0  0  0  0
M  END
$$$$

  -OEChem-02102214153D

 29 28  0     1  0  0  0  0  0999 V2000
   -3.3805   -3.4227    1.3340 H   0  0  0  0  0  0  0  0  0  0  0  0
   -3.3379   -2.4584    0.8202 C   0  0  0  0  0  0  0  0  0  0  0  0
   -3.9844   -1.7510    1.3452 H   0  0  0  0  0  0  0  0  0  0  0  0
   -3.7028   -2.5865   -0.2017 H   0  0  0  0  0  0  0  0  0  0  0  0
   -1.9125   -1.9403    0.7997 C   0  0  0  0  0  0  0  0  0  0  0  0
   -1.0114   -2.6088    1.2811 O   0  0  0  0  0  0  0  0  0  0  0  0
   -1.6382   -0.7107    0.2390 N   0  0  0  0  0  0  0  0  0  0  0  0
   -2.4313   -0.1471   -0.0643 H   0  0  0  0  0  0  0  0  0  0  0  0
   -0.3320   -0.0386    0.2965 C   0  0  1  0  0  0  0  0  0  0  0  0
    0.2590   -0.4966    1.0963 H   0  0  0  0  0  0  0  0  0  0  0  0
    0.3981   -0.2275   -1.0491 C   0  0  0  0  0  0  0  0  0  0  0  0
   -0.0852   -1.0129   -1.6394 H   0  0  0  0  0  0  0  0  0  0  0  0
    0.3305    0.6992   -1.6298 H   0  0  0  0  0  0  0  0  0  0  0  0
    1.8698   -0.6105   -0.8461 C   0  0  0  0  0  0  0  0  0  0  0  0
    2.2538   -0.1586    0.0736 H   0  0  0  0  0  0  0  0  0  0  0  0
    1.9646   -1.6972   -0.7490 H   0  0  0  0  0  0  0  0  0  0  0  0
    2.8997    0.0070   -2.2372 S   0  0  0  0  0  0  0  0  0  0  0  0
    2.2474   -0.9442   -3.6669 C   0  0  0  0  0  0  0  0  0  0  0  0
    1.1970   -0.6964   -3.8448 H   0  0  0  0  0  0  0  0  0  0  0  0
    2.8192   -0.7038   -4.5682 H   0  0  0  0  0  0  0  0  0  0  0  0
    2.3295   -2.0184   -3.4763 H   0  0  0  0  0  0  0  0  0  0  0  0
   -0.4836    1.4535    0.6546 C   0  0  0  0  0  0  0  0  0  0  0  0
   -1.4037    2.1023    0.1700 O   0  0  0  0  0  0  0  0  0  0  0  0
    0.3442    2.0420    1.5927 N   0  0  0  0  0  0  0  0  0  0  0  0
    1.0748    1.4693    2.0053 H   0  0  0  0  0  0  0  0  0  0  0  0
    0.2191    3.4339    2.0080 C   0  0  0  0  0  0  0  0  0  0  0  0
   -0.7655    3.6148    2.4520 H   0  0  0  0  0  0  0  0  0  0  0  0
    0.9836    3.6769    2.7524 H   0  0  0  0  0  0  0  0  0  0  0  0
    0.3473    4.1024    1.1501 H   0  0  0  0  0  0  0  0  0  0  0  0
  1  2  1  0  0  0  0
  2  3  1  0  0  0  0
  2  4  1  0  0  0  0
  2  5  1  0  0  0  0
  5  6  2  0  0  0  0
  5  7  1  0  0  0  0
  7  8  1  0  0  0  0
  7  9  1  0  0  0  0
  9 10  1  0  0  0  0
  9 11  1  0  0  0  0
  9 22  1  0  0  0  0
 11 12  1  0  0  0  0
 11 13  1  0  0  0  0
 11 14  1  0  0  0  0
 14 15  1  0  0  0  0
 14 16  1  0  0  0  0
 14 17  1  0  0  0  0
 17 18  1  0  0  0  0
 18 19  1  0  0  0  0
 18 20  1  0  0  0  0
 18 21  1  0  0  0  0
 22 23  2  0  0  0  0
 22 24  1  0  0  0  0
 24 25  1  0  0  0  0
 24 26  1  0  0  0  0
 26 27  1  0  0  0  0
 26 28  1  0  0  0  0
 26 29  1  0  0  0  0
M  END
$$$$

  -OEChem-02102214153D

 29 28  0     1  0  0  0  0  0999 V2000
   -3.3926   -3.4237    1.3344 H   0  0  0  0  0  0  0  0  0  0  0  0
   -3.3457   -2.4607    0.8182 C   0  0  0  0  0  0  0  0  0  0  0  0
   -3.9924   -1.7504    1.3389 H   0  0  0  0  0  0  0  0  0  0  0  0
   -3.7083   -2.5907   -0.2043 H   0  0  0  0  0  0  0  0  0  0  0  0
   -1.9188   -1.9455    0.8000 C   0  0  0  0  0  0  0  0  0  0  0  0
   -1.0187   -2.6177    1.2781 O   0  0  0  0  0  0  0  0  0  0  0  0
   -1.6420   -0.7154    0.2414 N   0  0  0  0  0  0  0  0  0  0  0  0
   -2.4346   -0.1495   -0.0589 H   0  0  0  0  0  0  0  0  0  0  0  0
   -0.3358   -0.0432    0.3000 C   0  0  1  0  0  0  0  0  0  0  0  0
    0.2505   -0.5024    1.1021 H   0  0  0  0  0  0  0  0  0  0  0  0
    0.3939   -0.2268   -1.0469 C   0  0  0  0  0  0  0  0  0  0  0  0
   -0.0910   -1.0124   -1.6358 H   0  0  0  0  0  0  0  0  0  0  0  0
    0.3130    0.6991   -1.6265 H   0  0  0  0  0  0  0  0  0  0  0  0
    1.8713   -0.6110   -0.8642 C   0  0  0  0  0  0  0  0  0  0  0  0
    2.2005   -0.4121    0.1600 H   0  0  0  0  0  0  0  0  0  0  0  0
    2.0032   -1.6822   -1.0487 H   0  0  0  0  0  0  0  0  0  0  0  0
    2.9437    0.3685   -1.9907 S   0  0  0  0  0  0  0  0  0  0  0  0
    2.4236   -0.2309   -3.6475 C   0  0  0  0  0  0  0  0  0  0  0  0
    1.3675   -0.0064   -3.8227 H   0  0  0  0  0  0  0  0  0  0  0  0
    3.0172    0.2584   -4.4253 H   0  0  0  0  0  0  0  0  0  0  0  0
    2.5714   -1.3123   -3.7226 H   0  0  0  0  0  0  0  0  0  0  0  0
   -0.4861    1.4486    0.6592 C   0  0  0  0  0  0  0  0  0  0  0  0
   -1.4108    2.0954    0.1804 O   0  0  0  0  0  0  0  0  0  0  0  0
    0.3415    2.0368    1.5974 N   0  0  0  0  0  0  0  0  0  0  0  0
    1.0949    1.4743    1.9824 H   0  0  0  0  0  0  0  0  0  0  0  0
    0.2262    3.4329    2.0010 C   0  0  0  0  0  0  0  0  0  0  0  0
   -0.7605    3.6263    2.4352 H   0  0  0  0  0  0  0  0  0  0  0  0
    0.9862    3.6739    2.7504 H   0  0  0  0  0  0  0  0  0  0  0  0
    0.3683    4.0939    1.1394 H   0  0  0  0  0  0  0  0  0  0  0  0
  1  2  1  0  0  0  0
  2  3  1  0  0  0  0
  2  4  1  0  0  0  0
  2  5  1  0  0  0  0
  5  6  2  0  0  0  0
  5  7  1  0  0  0  0
  7  8  1  0  0  0  0
  7  9  1  0  0  0  0
  9 10  1  0  0  0  0
  9 11  1  0  0  0  0
  9 22  1  0  0  0  0
 11 12  1  0  0  0  0
 11 13  1  0  0  0  0
 11 14  1  0  0  0  0
 14 15  1  0  0  0  0
 14 16  1  0  0  0  0
 14 17  1  0  0  0  0
 17 18  1  0  0  0  0
 18 19  1  0  0  0  0
 18 20  1  0  0  0  0
 18 21  1  0  0  0  0
 22 23  2  0  0  0  0
 22 24  1  0  0  0  0
 24 25  1  0  0  0  0
 24 26  1  0  0  0  0
 26 27  1  0  0  0  0
 26 28  1  0  0  0  0
 26 29  1  0  0  0  0
M  END
$$$$

  -OEChem-02102214153D

 29 28  0     1  0  0  0  0  0999 V2000
   -3.3918   -3.4351    1.3439 H   0  0  0  0  0  0  0  0  0  0  0  0
   -3.3502   -2.4729    0.8260 C   0  0  0  0  0  0  0  0  0  0  0  0
   -4.0007   -1.7652    1.3453 H   0  0  0  0  0  0  0  0  0  0  0  0
   -3.7116   -2.6065   -0.1964 H   0  0  0  0  0  0  0  0  0  0  0  0
   -1.9261   -1.9508    0.8069 C   0  0  0  0  0  0  0  0  0  0  0  0
   -1.0214   -2.6221    1.2773 O   0  0  0  0  0  0  0  0  0  0  0  0
   -1.6565   -0.7173    0.2523 N   0  0  0  0  0  0  0  0  0  0  0  0
   -2.4527   -0.1513   -0.0378 H   0  0  0  0  0  0  0  0  0  0  0  0
   -0.3509   -0.0426    0.3040 C   0  0  1  0  0  0  0  0  0  0  0  0
    0.2394   -0.5037    1.1015 H   0  0  0  0  0  0  0  0  0  0  0  0
    0.3717   -0.2101   -1.0495 C   0  0  0  0  0  0  0  0  0  0  0  0
   -0.1145   -1.0060   -1.6233 H   0  0  0  0  0  0  0  0  0  0  0  0
    0.2693    0.7080   -1.6377 H   0  0  0  0  0  0  0  0  0  0  0  0
    1.8547   -0.5916   -0.8913 C   0  0  0  0  0  0  0  0  0  0  0  0
    2.1312   -0.6965    0.1619 H   0  0  0  0  0  0  0  0  0  0  0  0
    2.0352   -1.5601   -1.3689 H   0  0  0  0  0  0  0  0  0  0  0  0
    2.9404    0.6773   -1.6593 S   0  0  0  0  0  0  0  0  0  0  0  0
    2.6120    0.4497   -3.4529 C   0  0  0  0  0  0  0  0  0  0  0  0
    1.5624    0.6563   -3.6805 H   0  0  0  0  0  0  0  0  0  0  0  0
    3.2355    1.1332   -4.0369 H   0  0  0  0  0  0  0  0  0  0  0  0
    2.8426   -0.5767   -3.7535 H   0  0  0  0  0  0  0  0  0  0  0  0
   -0.4987    1.4474    0.6719 C   0  0  0  0  0  0  0  0  0  0  0  0
   -1.4303    2.0949    0.2070 O   0  0  0  0  0  0  0  0  0  0  0  0
    0.3368    2.0308    1.6060 N   0  0  0  0  0  0  0  0  0  0  0  0
    1.1111    1.4748    1.9575 H   0  0  0  0  0  0  0  0  0  0  0  0
    0.2386    3.4306    2.0002 C   0  0  0  0  0  0  0  0  0  0  0  0
   -0.7477    3.6405    2.4274 H   0  0  0  0  0  0  0  0  0  0  0  0
    0.9972    3.6657    2.7529 H   0  0  0  0  0  0  0  0  0  0  0  0
    0.3950    4.0839    1.1353 H   0  0  0  0  0  0  0  0  0  0  0  0
  1  2  1  0  0  0  0
  2  3  1  0  0  0  0
  2  4  1  0  0  0  0
  2  5  1  0  0  0  0
  5  6  2  0  0  0  0
  5  7  1  0  0  0  0
  7  8  1  0  0  0  0
  7  9  1  0  0  0  0
  9 10  1  0  0  0  0
  9 11  1  0  0  0  0
  9 22  1  0  0  0  0
 11 12  1  0  0  0  0
 11 13  1  0  0  0  0
 11 14  1  0  0  0  0
 14 15  1  0  0  0  0
 14 16  1  0  0  0  0
 14 17  1  0  0  0  0
 17 18  1  0  0  0  0
 18 19  1  0  0  0  0
 18 20  1  0  0  0  0
 18 21  1  0  0  0  0
 22 23  2  0  0  0  0
 22 24  1  0  0  0  0
 24 25  1  0  0  0  0
 24 26  1  0  0  0  0
 26 27  1  0  0  0  0
 26 28  1  0  0  0  0
 26 29  1  0  0  0  0
M  END
$$$$

  -OEChem-02102214153D

 29 28  0     1  0  0  0  0  0999 V2000
   -3.3806   -3.4509    1.3660 H   0  0  0  0  0  0  0  0  0  0  0  0
   -3.3505   -2.4892    0.8462 C   0  0  0  0  0  0  0  0  0  0  0  0
   -3.9965   -1.7837    1.3743 H   0  0  0  0  0  0  0  0  0  0  0  0
   -3.7260   -2.6260   -0.1707 H   0  0  0  0  0  0  0  0  0  0  0  0
   -1.9286   -1.9618    0.8055 C   0  0  0  0  0  0  0  0  0  0  0  0
   -1.0137   -2.6369    1.2502 O   0  0  0  0  0  0  0  0  0  0  0  0
   -1.6718   -0.7236    0.2548 N   0  0  0  0  0  0  0  0  0  0  0  0
   -2.4748   -0.1551   -0.0106 H   0  0  0  0  0  0  0  0  0  0  0  0
   -0.3680   -0.0443    0.2971 C   0  0  1  0  0  0  0  0  0  0  0  0
    0.2318   -0.5048    1.0876 H   0  0  0  0  0  0  0  0  0  0  0  0
    0.3468   -0.1942   -1.0622 C   0  0  0  0  0  0  0  0  0  0  0  0
   -0.1345   -1.0026   -1.6227 H   0  0  0  0  0  0  0  0  0  0  0  0
    0.2288    0.7150   -1.6604 H   0  0  0  0  0  0  0  0  0  0  0  0
    1.8305   -0.5688   -0.9087 C   0  0  0  0  0  0  0  0  0  0  0  0
    2.0450   -0.9684    0.0872 H   0  0  0  0  0  0  0  0  0  0  0  0
    2.0773   -1.3577   -1.6267 H   0  0  0  0  0  0  0  0  0  0  0  0
    2.9068    0.8830   -1.2465 S   0  0  0  0  0  0  0  0  0  0  0  0
    2.7755    1.0730   -3.0697 C   0  0  0  0  0  0  0  0  0  0  0  0
    1.7477    1.3083   -3.3597 H   0  0  0  0  0  0  0  0  0  0  0  0
    3.4261    1.8846   -3.4087 H   0  0  0  0  0  0  0  0  0  0  0  0
    3.0801    0.1491   -3.5701 H   0  0  0  0  0  0  0  0  0  0  0  0
   -0.5153    1.4429    0.6753 C   0  0  0  0  0  0  0  0  0  0  0  0
   -1.4546    2.0906    0.2258 O   0  0  0  0  0  0  0  0  0  0  0  0
    0.3298    2.0211    1.6038 N   0  0  0  0  0  0  0  0  0  0  0  0
    1.1290    1.4742    1.9118 H   0  0  0  0  0  0  0  0  0  0  0  0
    0.2484    3.4241    1.9902 C   0  0  0  0  0  0  0  0  0  0  0  0
   -0.7356    3.6490    2.4151 H   0  0  0  0  0  0  0  0  0  0  0  0
    1.0086    3.6536    2.7430 H   0  0  0  0  0  0  0  0  0  0  0  0
    0.4141    4.0706    1.1220 H   0  0  0  0  0  0  0  0  0  0  0  0
  1  2  1  0  0  0  0
  2  3  1  0  0  0  0
  2  4  1  0  0  0  0
  2  5  1  0  0  0  0
  5  6  2  0  0  0  0
  5  7  1  0  0  0  0
  7  8  1  0  0  0  0
  7  9  1  0  0  0  0
  9 10  1  0  0  0  0
  9 11  1  0  0  0  0
  9 22  1  0  0  0  0
 11 12  1  0  0  0  0
 11 13  1  0  0  0  0
 11 14  1  0  0  0  0
 14 15  1  0  0  0  0
 14 16  1  0  0  0  0
 14 17  1  0  0  0  0
 17 18  1  0  0  0  0
 18 19  1  0  0  0  0
 18 20  1  0  0  0  0
 18 21  1  0  0  0  0
 22 23  2  0  0  0  0
 22 24  1  0  0  0  0
 24 25  1  0  0  0  0
 24 26  1  0  0  0  0
 26 27  1  0  0  0  0
 26 28  1  0  0  0  0
 26 29  1  0  0  0  0
M  END
$$$$

  -OEChem-02102214153D

 29 28  0     1  0  0  0  0  0999 V2000
   -3.3690   -3.4590    1.3704 H   0  0  0  0  0  0  0  0  0  0  0  0
   -3.3455   -2.4934    0.8575 C   0  0  0  0  0  0  0  0  0  0  0  0
   -3.9786   -1.7898    1.4034 H   0  0  0  0  0  0  0  0  0  0  0  0
   -3.7409   -2.6211   -0.1531 H   0  0  0  0  0  0  0  0  0  0  0  0
   -1.9231   -1.9701    0.7941 C   0  0  0  0  0  0  0  0  0  0  0  0
   -1.0023   -2.6495    1.2198 O   0  0  0  0  0  0  0  0  0  0  0  0
   -1.6725   -0.7304    0.2448 N   0  0  0  0  0  0  0  0  0  0  0  0
   -2.4787   -0.1578   -0.0015 H   0  0  0  0  0  0  0  0  0  0  0  0
   -0.3691   -0.0507    0.2814 C   0  0  1  0  0  0  0  0  0  0  0  0
    0.2393   -0.5108    1.0660 H   0  0  0  0  0  0  0  0  0  0  0  0
    0.3406   -0.1947   -1.0793 C   0  0  0  0  0  0  0  0  0  0  0  0
   -0.1376   -1.0063   -1.6376 H   0  0  0  0  0  0  0  0  0  0  0  0
    0.2235    0.7127   -1.6793 H   0  0  0  0  0  0  0  0  0  0  0  0
    1.8204   -0.5677   -0.9120 C   0  0  0  0  0  0  0  0  0  0  0  0
    1.9695   -1.2072   -0.0358 H   0  0  0  0  0  0  0  0  0  0  0  0
    2.1449   -1.1426   -1.7851 H   0  0  0  0  0  0  0  0  0  0  0  0
    2.8658    0.9408   -0.7932 S   0  0  0  0  0  0  0  0  0  0  0  0
    2.8587    1.5943   -2.5108 C   0  0  0  0  0  0  0  0  0  0  0  0
    1.8499    1.8964   -2.8051 H   0  0  0  0  0  0  0  0  0  0  0  0
    3.5151    2.4667   -2.5809 H   0  0  0  0  0  0  0  0  0  0  0  0
    3.2163    0.8312   -3.2084 H   0  0  0  0  0  0  0  0  0  0  0  0
   -0.5191    1.4351    0.6649 C   0  0  0  0  0  0  0  0  0  0  0  0
   -1.4653    2.0794    0.2246 O   0  0  0  0  0  0  0  0  0  0  0  0
    0.3285    2.0143    1.5905 N   0  0  0  0  0  0  0  0  0  0  0  0
    1.1539    1.4833    1.8564 H   0  0  0  0  0  0  0  0  0  0  0  0
    0.2495    3.4196    1.9686 C   0  0  0  0  0  0  0  0  0  0  0  0
   -0.7359    3.6496    2.3872 H   0  0  0  0  0  0  0  0  0  0  0  0
    1.0065    3.6508    2.7240 H   0  0  0  0  0  0  0  0  0  0  0  0
    0.4210    4.0608    1.0976 H   0  0  0  0  0  0  0  0  0  0  0  0
  1  2  1  0  0  0  0
  2  3  1  0  0  0  0
  2  4  1  0  0  0  0
  2  5  1  0  0  0  0
  5  6  2  0  0  0  0
  5  7  1  0  0  0  0
  7  8  1  0  0  0  0
  7  9  1  0  0  0  0
  9 10  1  0  0  0  0
  9 11  1  0  0  0  0
  9 22  1  0  0  0  0
 11 12  1  0  0  0  0
 11 13  1  0  0  0  0
 11 14  1  0  0  0  0
 14 15  1  0  0  0  0
 14 16  1  0  0  0  0
 14 17  1  0  0  0  0
 17 18  1  0  0  0  0
 18 19  1  0  0  0  0
 18 20  1  0  0  0  0
 18 21  1  0  0  0  0
 22 23  2  0  0  0  0
 22 24  1  0  0  0  0
 24 25  1  0  0  0  0
 24 26  1  0  0  0  0
 26 27  1  0  0  0  0
 26 28  1  0  0  0  0
 26 29  1  0  0  0  0
M  END
$$$$

  -OEChem-02102214153D

 29 28  0     1  0  0  0  0  0999 V2000
   -3.3691   -3.4651    1.2870 H   0  0  0  0  0  0  0  0  0  0  0  0
   -3.3399   -2.4672    0.8407 C   0  0  0  0  0  0  0  0  0  0  0  0
   -3.9490   -1.7922    1.4467 H   0  0  0  0  0  0  0  0  0  0  0  0
   -3.7593   -2.5201   -0.1669 H   0  0  0  0  0  0  0  0  0  0  0  0
   -1.9109   -1.9617    0.7816 C   0  0  0  0  0  0  0  0  0  0  0  0
   -1.0014   -2.6450    1.2247 O   0  0  0  0  0  0  0  0  0  0  0  0
   -1.6433   -0.7324    0.2171 N   0  0  0  0  0  0  0  0  0  0  0  0
   -2.4420   -0.1560   -0.0442 H   0  0  0  0  0  0  0  0  0  0  0  0
   -0.3344   -0.0635    0.2583 C   0  0  1  0  0  0  0  0  0  0  0  0
    0.2678   -0.5173    1.0525 H   0  0  0  0  0  0  0  0  0  0  0  0
    0.3837   -0.2408   -1.0940 C   0  0  0  0  0  0  0  0  0  0  0  0
   -0.0961   -1.0558   -1.6458 H   0  0  0  0  0  0  0  0  0  0  0  0
    0.2851    0.6571   -1.7106 H   0  0  0  0  0  0  0  0  0  0  0  0
    1.8558   -0.6259   -0.9016 C   0  0  0  0  0  0  0  0  0  0  0  0
    1.9397   -1.4405   -0.1739 H   0  0  0  0  0  0  0  0  0  0  0  0
    2.2536   -0.9975   -1.8513 H   0  0  0  0  0  0  0  0  0  0  0  0
    2.8780    0.8072   -0.3603 S   0  0  0  0  0  0  0  0  0  0  0  0
    2.7547    2.0003   -1.7529 C   0  0  0  0  0  0  0  0  0  0  0  0
    1.7476    2.4236   -1.8100 H   0  0  0  0  0  0  0  0  0  0  0  0
    3.4649    2.8196   -1.6062 H   0  0  0  0  0  0  0  0  0  0  0  0
    2.9849    1.5038   -2.7002 H   0  0  0  0  0  0  0  0  0  0  0  0
   -0.4837    1.4287    0.6189 C   0  0  0  0  0  0  0  0  0  0  0  0
   -1.4139    2.0740    0.1471 O   0  0  0  0  0  0  0  0  0  0  0  0
    0.3535    2.0188    1.5466 N   0  0  0  0  0  0  0  0  0  0  0  0
    1.1771    1.4891    1.8230 H   0  0  0  0  0  0  0  0  0  0  0  0
    0.2782    3.4298    1.9033 C   0  0  0  0  0  0  0  0  0  0  0  0
   -0.7144    3.6735    2.2965 H   0  0  0  0  0  0  0  0  0  0  0  0
    1.0198    3.6644    2.6729 H   0  0  0  0  0  0  0  0  0  0  0  0
    0.4750    4.0578    1.0282 H   0  0  0  0  0  0  0  0  0  0  0  0
  1  2  1  0  0  0  0
  2  3  1  0  0  0  0
  2  4  1  0  0  0  0
  2  5  1  0  0  0  0
  5  6  2  0  0  0  0
  5  7  1  0  0  0  0
  7  8  1  0  0  0  0
  7  9  1  0  0  0  0
  9 10  1  0  0  0  0
  9 11  1  0  0  0  0
  9 22  1  0  0  0  0
 11 12  1  0  0  0  0
 11 13  1  0  0  0  0
 11 14  1  0  0  0  0
 14 15  1  0  0  0  0
 14 16  1  0  0  0  0
 14 17  1  0  0  0  0
 17 18  1  0  0  0  0
 18 19  1  0  0  0  0
 18 20  1  0  0  0  0
 18 21  1  0  0  0  0
 22 23  2  0  0  0  0
 22 24  1  0  0  0  0
 24 25  1  0  0  0  0
 24 26  1  0  0  0  0
 26 27  1  0  0  0  0
 26 28  1  0  0  0  0
 26 29  1  0  0  0  0
M  END
$$$$

  -OEChem-02102214153D

 29 28  0     1  0  0  0  0  0999 V2000
   -3.3613   -3.4283    1.3322 H   0  0  0  0  0  0  0  0  0  0  0  0
   -3.3248   -2.4588    0.8276 C   0  0  0  0  0  0  0  0  0  0  0  0
   -3.9499   -1.7519    1.3784 H   0  0  0  0  0  0  0  0  0  0  0  0
   -3.7198   -2.5729   -0.1847 H   0  0  0  0  0  0  0  0  0  0  0  0
   -1.8961   -1.9520    0.7718 C   0  0  0  0  0  0  0  0  0  0  0  0
   -0.9869   -2.6381    1.2105 O   0  0  0  0  0  0  0  0  0  0  0  0
   -1.6293   -0.7167    0.2201 N   0  0  0  0  0  0  0  0  0  0  0  0
   -2.4280   -0.1396   -0.0394 H   0  0  0  0  0  0  0  0  0  0  0  0
   -0.3212   -0.0464    0.2677 C   0  0  1  0  0  0  0  0  0  0  0  0
    0.2883   -0.5082    1.0520 H   0  0  0  0  0  0  0  0  0  0  0  0
    0.3841   -0.2189   -1.0941 C   0  0  0  0  0  0  0  0  0  0  0  0
   -0.1090   -1.0145   -1.6626 H   0  0  0  0  0  0  0  0  0  0  0  0
    0.2929    0.6967   -1.6867 H   0  0  0  0  0  0  0  0  0  0  0  0
    1.8600   -0.6092   -0.9392 C   0  0  0  0  0  0  0  0  0  0  0  0
    1.9238   -1.5692   -0.4150 H   0  0  0  0  0  0  0  0  0  0  0  0
    2.3034   -0.7456   -1.9305 H   0  0  0  0  0  0  0  0  0  0  0  0
    2.8350    0.6462   -0.0093 S   0  0  0  0  0  0  0  0  0  0  0  0
    2.7635    2.1242   -1.0994 C   0  0  0  0  0  0  0  0  0  0  0  0
    1.7372    2.4934   -1.1822 H   0  0  0  0  0  0  0  0  0  0  0  0
    3.3861    2.9235   -0.6864 H   0  0  0  0  0  0  0  0  0  0  0  0
    3.1311    1.8761   -2.0995 H   0  0  0  0  0  0  0  0  0  0  0  0
   -0.4895    1.4405    0.6450 C   0  0  0  0  0  0  0  0  0  0  0  0
   -1.4193    2.0836    0.1693 O   0  0  0  0  0  0  0  0  0  0  0  0
    0.3363    2.0332    1.5810 N   0  0  0  0  0  0  0  0  0  0  0  0
    1.1615    1.5069    1.8610 H   0  0  0  0  0  0  0  0  0  0  0  0
    0.2388    3.4373    1.9583 C   0  0  0  0  0  0  0  0  0  0  0  0
   -0.7561    3.6582    2.3593 H   0  0  0  0  0  0  0  0  0  0  0  0
    0.9800    3.6732    2.7280 H   0  0  0  0  0  0  0  0  0  0  0  0
    0.4209    4.0809    1.0915 H   0  0  0  0  0  0  0  0  0  0  0  0
  1  2  1  0  0  0  0
  2  3  1  0  0  0  0
  2  4  1  0  0  0  0
  2  5  1  0  0  0  0
  5  6  2  0  0  0  0
  5  7  1  0  0  0  0
  7  8  1  0  0  0  0
  7  9  1  0  0  0  0
  9 10  1  0  0  0  0
  9 11  1  0  0  0  0
  9 22  1  0  0  0  0
 11 12  1  0  0  0  0
 11 13  1  0  0  0  0
 11 14  1  0  0  0  0
 14 15  1  0  0  0  0
 14 16  1  0  0  0  0
 14 17  1  0  0  0  0
 17 18  1  0  0  0  0
 18 19  1  0  0  0  0
 18 20  1  0  0  0  0
 18 21  1  0  0  0  0
 22 23  2  0  0  0  0
 22 24  1  0  0  0  0
 24 25  1  0  0  0  0
 24 26  1  0  0  0  0
 26 27  1  0  0  0  0
 26 28  1  0  0  0  0
 26 29  1  0  0  0  0
M  END
$$$$

  -OEChem-02102214153D

 29 28  0     1  0  0  0  0  0999 V2000
   -3.3440   -3.4665    1.3124 H   0  0  0  0  0  0  0  0  0  0  0  0
   -3.3192   -2.4939    0.8131 C   0  0  0  0  0  0  0  0  0  0  0  0
   -3.9661   -1.8023    1.3583 H   0  0  0  0  0  0  0  0  0  0  0  0
   -3.6972   -2.6106   -0.2053 H   0  0  0  0  0  0  0  0  0  0  0  0
   -1.8997   -1.9600    0.7795 C   0  0  0  0  0  0  0  0  0  0  0  0
   -0.9830   -2.6378    1.2152 O   0  0  0  0  0  0  0  0  0  0  0  0
   -1.6501   -0.7135    0.2448 N   0  0  0  0  0  0  0  0  0  0  0  0
   -2.4572   -0.1480   -0.0143 H   0  0  0  0  0  0  0  0  0  0  0  0
   -0.3534   -0.0215    0.3046 C   0  0  1  0  0  0  0  0  0  0  0  0
    0.2568   -0.4873    1.0856 H   0  0  0  0  0  0  0  0  0  0  0  0
    0.3537   -0.1764   -1.0611 C   0  0  0  0  0  0  0  0  0  0  0  0
   -0.1401   -0.9571   -1.6492 H   0  0  0  0  0  0  0  0  0  0  0  0
    0.2547    0.7564   -1.6259 H   0  0  0  0  0  0  0  0  0  0  0  0
    1.8420   -0.5461   -0.9520 C   0  0  0  0  0  0  0  0  0  0  0  0
    1.9115   -1.6011   -0.6653 H   0  0  0  0  0  0  0  0  0  0  0  0
    2.3211   -0.4394   -1.9303 H   0  0  0  0  0  0  0  0  0  0  0  0
    2.7605    0.4417    0.3024 S   0  0  0  0  0  0  0  0  0  0  0  0
    2.9101    2.0685   -0.5389 C   0  0  0  0  0  0  0  0  0  0  0  0
    1.9209    2.4783   -0.7634 H   0  0  0  0  0  0  0  0  0  0  0  0
    3.4428    2.7753    0.1041 H   0  0  0  0  0  0  0  0  0  0  0  0
    3.4659    1.9604   -1.4751 H   0  0  0  0  0  0  0  0  0  0  0  0
   -0.5481    1.4574    0.6999 C   0  0  0  0  0  0  0  0  0  0  0  0
   -1.4789    2.0958    0.2199 O   0  0  0  0  0  0  0  0  0  0  0  0
    0.2648    2.0517    1.6460 N   0  0  0  0  0  0  0  0  0  0  0  0
    1.0785    1.5202    1.9501 H   0  0  0  0  0  0  0  0  0  0  0  0
    0.1447    3.4482    2.0443 C   0  0  0  0  0  0  0  0  0  0  0  0
   -0.8565    3.6499    2.4396 H   0  0  0  0  0  0  0  0  0  0  0  0
    0.8757    3.6823    2.8241 H   0  0  0  0  0  0  0  0  0  0  0  0
    0.3256    4.1071    1.1889 H   0  0  0  0  0  0  0  0  0  0  0  0
  1  2  1  0  0  0  0
  2  3  1  0  0  0  0
  2  4  1  0  0  0  0
  2  5  1  0  0  0  0
  5  6  2  0  0  0  0
  5  7  1  0  0  0  0
  7  8  1  0  0  0  0
  7  9  1  0  0  0  0
  9 10  1  0  0  0  0
  9 11  1  0  0  0  0
  9 22  1  0  0  0  0
 11 12  1  0  0  0  0
 11 13  1  0  0  0  0
 11 14  1  0  0  0  0
 14 15  1  0  0  0  0
 14 16  1  0  0  0  0
 14 17  1  0  0  0  0
 17 18  1  0  0  0  0
 18 19  1  0  0  0  0
 18 20  1  0  0  0  0
 18 21  1  0  0  0  0
 22 23  2  0  0  0  0
 22 24  1  0  0  0  0
 24 25  1  0  0  0  0
 24 26  1  0  0  0  0
 26 27  1  0  0  0  0
 26 28  1  0  0  0  0
 26 29  1  0  0  0  0
M  END
$$$$

  -OEChem-02102214153D

 29 28  0     1  0  0  0  0  0999 V2000
   -3.3482   -3.5210    1.2659 H   0  0  0  0  0  0  0  0  0  0  0  0
   -3.3352   -2.5389    0.7852 C   0  0  0  0  0  0  0  0  0  0  0  0
   -4.0058   -1.8709    1.3309 H   0  0  0  0  0  0  0  0  0  0  0  0
   -3.6927   -2.6447   -0.2418 H   0  0  0  0  0  0  0  0  0  0  0  0
   -1.9272   -1.9745    0.7878 C   0  0  0  0  0  0  0  0  0  0  0  0
   -1.0079   -2.6330    1.2464 O   0  0  0  0  0  0  0  0  0  0  0  0
   -1.6937   -0.7221    0.2593 N   0  0  0  0  0  0  0  0  0  0  0  0
   -2.5077   -0.1776   -0.0215 H   0  0  0  0  0  0  0  0  0  0  0  0
   -0.4146    0.0005    0.3379 C   0  0  1  0  0  0  0  0  0  0  0  0
    0.1754   -0.4592    1.1360 H   0  0  0  0  0  0  0  0  0  0  0  0
    0.3242   -0.1558   -1.0124 C   0  0  0  0  0  0  0  0  0  0  0  0
   -0.1504   -0.9452   -1.6051 H   0  0  0  0  0  0  0  0  0  0  0  0
    0.2097    0.7739   -1.5796 H   0  0  0  0  0  0  0  0  0  0  0  0
    1.8261   -0.4886   -0.9177 C   0  0  0  0  0  0  0  0  0  0  0  0
    1.9201   -1.5791   -0.8767 H   0  0  0  0  0  0  0  0  0  0  0  0
    2.3377   -0.1532   -1.8253 H   0  0  0  0  0  0  0  0  0  0  0  0
    2.6810    0.1793    0.5728 S   0  0  0  0  0  0  0  0  0  0  0  0
    3.0993    1.8766    0.0069 C   0  0  0  0  0  0  0  0  0  0  0  0
    2.1964    2.4124   -0.3006 H   0  0  0  0  0  0  0  0  0  0  0  0
    3.5802    2.4351    0.8154 H   0  0  0  0  0  0  0  0  0  0  0  0
    3.7864    1.8322   -0.8433 H   0  0  0  0  0  0  0  0  0  0  0  0
   -0.6249    1.4762    0.7296 C   0  0  0  0  0  0  0  0  0  0  0  0
   -1.5548    2.1089    0.2414 O   0  0  0  0  0  0  0  0  0  0  0  0
    0.1771    2.0711    1.6843 N   0  0  0  0  0  0  0  0  0  0  0  0
    0.9642    1.5253    2.0306 H   0  0  0  0  0  0  0  0  0  0  0  0
    0.0309    3.4568    2.1101 C   0  0  0  0  0  0  0  0  0  0  0  0
   -0.9740    3.6317    2.5086 H   0  0  0  0  0  0  0  0  0  0  0  0
    0.7576    3.6892    2.8945 H   0  0  0  0  0  0  0  0  0  0  0  0
    0.1996    4.1360    1.2680 H   0  0  0  0  0  0  0  0  0  0  0  0
  1  2  1  0  0  0  0
  2  3  1  0  0  0  0
  2  4  1  0  0  0  0
  2  5  1  0  0  0  0
  5  6  2  0  0  0  0
  5  7  1  0  0  0  0
  7  8  1  0  0  0  0
  7  9  1  0  0  0  0
  9 10  1  0  0  0  0
  9 11  1  0  0  0  0
  9 22  1  0  0  0  0
 11 12  1  0  0  0  0
 11 13  1  0  0  0  0
 11 14  1  0  0  0  0
 14 15  1  0  0  0  0
 14 16  1  0  0  0  0
 14 17  1  0  0  0  0
 17 18  1  0  0  0  0
 18 19  1  0  0  0  0
 18 20  1  0  0  0  0
 18 21  1  0  0  0  0
 22 23  2  0  0  0  0
 22 24  1  0  0  0  0
 24 25  1  0  0  0  0
 24 26  1  0  0  0  0
 26 27  1  0  0  0  0
 26 28  1  0  0  0  0
 26 29  1  0  0  0  0
M  END
$$$$

  -OEChem-02102214153D

 29 28  0     1  0  0  0  0  0999 V2000
   -3.3899   -3.5590    1.2224 H   0  0  0  0  0  0  0  0  0  0  0  0
   -3.3793   -2.5757    0.7439 C   0  0  0  0  0  0  0  0  0  0  0  0
   -4.0828   -1.9227    1.2660 H   0  0  0  0  0  0  0  0  0  0  0  0
   -3.6974   -2.6862   -0.2955 H   0  0  0  0  0  0  0  0  0  0  0  0
   -1.9832   -1.9840    0.7977 C   0  0  0  0  0  0  0  0  0  0  0  0
   -1.0744   -2.6185    1.3074 O   0  0  0  0  0  0  0  0  0  0  0  0
   -1.7510   -0.7348    0.2601 N   0  0  0  0  0  0  0  0  0  0  0  0
   -2.5618   -0.2153   -0.0715 H   0  0  0  0  0  0  0  0  0  0  0  0
   -0.4862    0.0115    0.3633 C   0  0  1  0  0  0  0  0  0  0  0  0
    0.0697   -0.4332    1.1911 H   0  0  0  0  0  0  0  0  0  0  0  0
    0.3027   -0.1534   -0.9591 C   0  0  0  0  0  0  0  0  0  0  0  0
   -0.1445   -0.9631   -1.5458 H   0  0  0  0  0  0  0  0  0  0  0  0
    0.1773    0.7601   -1.5499 H   0  0  0  0  0  0  0  0  0  0  0  0
    1.8147   -0.4550   -0.8492 C   0  0  0  0  0  0  0  0  0  0  0  0
    1.9520   -1.5184   -1.0717 H   0  0  0  0  0  0  0  0  0  0  0  0
    2.3546    0.1046   -1.6194 H   0  0  0  0  0  0  0  0  0  0  0  0
    2.5941   -0.1555    0.7956 S   0  0  0  0  0  0  0  0  0  0  0  0
    3.2902    1.5282    0.5610 C   0  0  0  0  0  0  0  0  0  0  0  0
    2.5051    2.2293    0.2632 H   0  0  0  0  0  0  0  0  0  0  0  0
    3.7424    1.8815    1.4924 H   0  0  0  0  0  0  0  0  0  0  0  0
    4.0594    1.5141   -0.2169 H   0  0  0  0  0  0  0  0  0  0  0  0
   -0.7027    1.4914    0.7273 C   0  0  0  0  0  0  0  0  0  0  0  0
   -1.6120    2.1240    0.2023 O   0  0  0  0  0  0  0  0  0  0  0  0
    0.0826    2.0923    1.6920 N   0  0  0  0  0  0  0  0  0  0  0  0
    0.8230    1.5281    2.1043 H   0  0  0  0  0  0  0  0  0  0  0  0
   -0.0803    3.4762    2.1172 C   0  0  0  0  0  0  0  0  0  0  0  0
   -1.0900    3.6407    2.5081 H   0  0  0  0  0  0  0  0  0  0  0  0
    0.6385    3.7164    2.9064 H   0  0  0  0  0  0  0  0  0  0  0  0
    0.0880    4.1570    1.2762 H   0  0  0  0  0  0  0  0  0  0  0  0
  1  2  1  0  0  0  0
  2  3  1  0  0  0  0
  2  4  1  0  0  0  0
  2  5  1  0  0  0  0
  5  6  2  0  0  0  0
  5  7  1  0  0  0  0
  7  8  1  0  0  0  0
  7  9  1  0  0  0  0
  9 10  1  0  0  0  0
  9 11  1  0  0  0  0
  9 22  1  0  0  0  0
 11 12  1  0  0  0  0
 11 13  1  0  0  0  0
 11 14  1  0  0  0  0
 14 15  1  0  0  0  0
 14 16  1  0  0  0  0
 14 17  1  0  0  0  0
 17 18  1  0  0  0  0
 18 19  1  0  0  0  0
 18 20  1  0  0  0  0
 18 21  1  0  0  0  0
 22 23  2  0  0  0  0
 22 24  1  0  0  0  0
 24 25  1  0  0  0  0
 24 26  1  0  0  0  0
 26 27  1  0  0  0  0
 26 28  1  0  0  0  0
 26 29  1  0  0  0  0
M  END
$$$$

  -OEChem-02102214153D

 29 28  0     1  0  0  0  0  0999 V2000
   -3.5522   -3.4795    1.1636 H   0  0  0  0  0  0  0  0  0  0  0  0
   -3.5022   -2.5019    0.6761 C   0  0  0  0  0  0  0  0  0  0  0  0
   -4.2190   -1.8317    1.1568 H   0  0  0  0  0  0  0  0  0  0  0  0
   -3.7713   -2.6190   -0.3763 H   0  0  0  0  0  0  0  0  0  0  0  0
   -2.1010   -1.9319    0.7915 C   0  0  0  0  0  0  0  0  0  0  0  0
   -1.2358   -2.5634    1.3750 O   0  0  0  0  0  0  0  0  0  0  0  0
   -1.8176   -0.7026    0.2323 N   0  0  0  0  0  0  0  0  0  0  0  0
   -2.5986   -0.1834   -0.1644 H   0  0  0  0  0  0  0  0  0  0  0  0
   -0.5446    0.0236    0.3732 C   0  0  1  0  0  0  0  0  0  0  0  0
   -0.0450   -0.4046    1.2422 H   0  0  0  0  0  0  0  0  0  0  0  0
    0.3052   -0.1847   -0.9060 C   0  0  0  0  0  0  0  0  0  0  0  0
   -0.1288   -1.0162   -1.4717 H   0  0  0  0  0  0  0  0  0  0  0  0
    0.2070    0.7009   -1.5428 H   0  0  0  0  0  0  0  0  0  0  0  0
    1.8099   -0.5079   -0.7415 C   0  0  0  0  0  0  0  0  0  0  0  0
    1.9979   -1.4750   -1.2194 H   0  0  0  0  0  0  0  0  0  0  0  0
    2.3906    0.2363   -1.2953 H   0  0  0  0  0  0  0  0  0  0  0  0
    2.4688   -0.6129    0.9775 S   0  0  0  0  0  0  0  0  0  0  0  0
    3.4415    0.9404    1.0976 C   0  0  0  0  0  0  0  0  0  0  0  0
    4.2591    0.9316    0.3708 H   0  0  0  0  0  0  0  0  0  0  0  0
    3.8676    1.0400    2.1005 H   0  0  0  0  0  0  0  0  0  0  0  0
    2.8043    1.8070    0.8985 H   0  0  0  0  0  0  0  0  0  0  0  0
   -0.7359    1.5177    0.6863 C   0  0  0  0  0  0  0  0  0  0  0  0
   -1.5996    2.1616    0.1018 O   0  0  0  0  0  0  0  0  0  0  0  0
    0.0252    2.1215    1.6689 N   0  0  0  0  0  0  0  0  0  0  0  0
    0.6942    1.5353    2.1631 H   0  0  0  0  0  0  0  0  0  0  0  0
   -0.1343    3.5135    2.0688 C   0  0  0  0  0  0  0  0  0  0  0  0
   -1.1475    3.6906    2.4448 H   0  0  0  0  0  0  0  0  0  0  0  0
    0.5774    3.7628    2.8618 H   0  0  0  0  0  0  0  0  0  0  0  0
    0.0480    4.1795    1.2189 H   0  0  0  0  0  0  0  0  0  0  0  0
  1  2  1  0  0  0  0
  2  3  1  0  0  0  0
  2  4  1  0  0  0  0
  2  5  1  0  0  0  0
  5  6  2  0  0  0  0
  5  7  1  0  0  0  0
  7  8  1  0  0  0  0
  7  9  1  0  0  0  0
  9 10  1  0  0  0  0
  9 11  1  0  0  0  0
  9 22  1  0  0  0  0
 11 12  1  0  0  0  0
 11 13  1  0  0  0  0
 11 14  1  0  0  0  0
 14 15  1  0  0  0  0
 14 16  1  0  0  0  0
 14 17  1  0  0  0  0
 17 18  1  0  0  0  0
 18 19  1  0  0  0  0
 18 20  1  0  0  0  0
 18 21  1  0  0  0  0
 22 23  2  0  0  0  0
 22 24  1  0  0  0  0
 24 25  1  0  0  0  0
 24 26  1  0  0  0  0
 26 27  1  0  0  0  0
 26 28  1  0  0  0  0
 26 29  1  0  0  0  0
M  END
$$$$

  -OEChem-02102214153D

 29 28  0     1  0  0  0  0  0999 V2000
   -3.4789   -3.4636    1.0091 H   0  0  0  0  0  0  0  0  0  0  0  0
   -3.4550   -2.4831    0.5253 C   0  0  0  0  0  0  0  0  0  0  0  0
   -4.2582   -1.8673    0.9370 H   0  0  0  0  0  0  0  0  0  0  0  0
   -3.6184   -2.6154   -0.5469 H   0  0  0  0  0  0  0  0  0  0  0  0
   -2.1147   -1.8147    0.7659 C   0  0  0  0  0  0  0  0  0  0  0  0
   -1.2697   -2.3777    1.4416 O   0  0  0  0  0  0  0  0  0  0  0  0
   -1.8671   -0.5731    0.2181 N   0  0  0  0  0  0  0  0  0  0  0  0
   -2.6425   -0.1126   -0.2548 H   0  0  0  0  0  0  0  0  0  0  0  0
   -0.6673    0.2428    0.4668 C   0  0  1  0  0  0  0  0  0  0  0  0
   -0.2160   -0.1331    1.3845 H   0  0  0  0  0  0  0  0  0  0  0  0
    0.3063    0.1104   -0.7325 C   0  0  0  0  0  0  0  0  0  0  0  0
   -0.0086   -0.7629   -1.3136 H   0  0  0  0  0  0  0  0  0  0  0  0
    0.1927    0.9753   -1.3952 H   0  0  0  0  0  0  0  0  0  0  0  0
    1.8097   -0.1020   -0.4363 C   0  0  0  0  0  0  0  0  0  0  0  0
    2.1968   -0.8513   -1.1345 H   0  0  0  0  0  0  0  0  0  0  0  0
    2.3295    0.8372   -0.6506 H   0  0  0  0  0  0  0  0  0  0  0  0
    2.2707   -0.6025    1.2752 S   0  0  0  0  0  0  0  0  0  0  0  0
    4.0870   -0.8112    1.1142 C   0  0  0  0  0  0  0  0  0  0  0  0
    4.5519    0.1299    0.8066 H   0  0  0  0  0  0  0  0  0  0  0  0
    4.5157   -1.1175    2.0729 H   0  0  0  0  0  0  0  0  0  0  0  0
    4.3163   -1.5781    0.3684 H   0  0  0  0  0  0  0  0  0  0  0  0
   -1.0055    1.7193    0.7379 C   0  0  0  0  0  0  0  0  0  0  0  0
   -1.8655    2.2822    0.0696 O   0  0  0  0  0  0  0  0  0  0  0  0
   -0.3942    2.3931    1.7780 N   0  0  0  0  0  0  0  0  0  0  0  0
    0.2974    1.8824    2.3220 H   0  0  0  0  0  0  0  0  0  0  0  0
   -0.6970    3.7745    2.1296 C   0  0  0  0  0  0  0  0  0  0  0  0
   -1.7564    3.8816    2.3852 H   0  0  0  0  0  0  0  0  0  0  0  0
   -0.1005    4.0844    2.9931 H   0  0  0  0  0  0  0  0  0  0  0  0
   -0.4670    4.4422    1.2928 H   0  0  0  0  0  0  0  0  0  0  0  0
  1  2  1  0  0  0  0
  2  3  1  0  0  0  0
  2  4  1  0  0  0  0
  2  5  1  0  0  0  0
  5  6  2  0  0  0  0
  5  7  1  0  0  0  0
  7  8  1  0  0  0  0
  7  9  1  0  0  0  0
  9 10  1  0  0  0  0
  9 11  1  0  0  0  0
  9 22  1  0  0  0  0
 11 12  1  0  0  0  0
 11 13  1  0  0  0  0
 11 14  1  0  0  0  0
 14 15  1  0  0  0  0
 14 16  1  0  0  0  0
 14 17  1  0  0  0  0
 17 18  1  0  0  0  0
 18 19  1  0  0  0  0
 18 20  1  0  0  0  0
 18 21  1  0  0  0  0
 22 23  2  0  0  0  0
 22 24  1  0  0  0  0
 24 25  1  0  0  0  0
 24 26  1  0  0  0  0
 26 27  1  0  0  0  0
 26 28  1  0  0  0  0
 26 29  1  0  0  0  0
M  END
$$$$

  -OEChem-02102214153D

 29 28  0     1  0  0  0  0  0999 V2000
   -3.6261   -3.4061    1.0415 H   0  0  0  0  0  0  0  0  0  0  0  0
   -3.5143   -2.4817    0.4680 C   0  0  0  0  0  0  0  0  0  0  0  0
   -4.3395   -1.8103    0.7175 H   0  0  0  0  0  0  0  0  0  0  0  0
   -3.5565   -2.7210   -0.5972 H   0  0  0  0  0  0  0  0  0  0  0  0
   -2.1901   -1.8190    0.7975 C   0  0  0  0  0  0  0  0  0  0  0  0
   -1.4421   -2.3321    1.6122 O   0  0  0  0  0  0  0  0  0  0  0  0
   -1.8569   -0.6290    0.1849 N   0  0  0  0  0  0  0  0  0  0  0  0
   -2.5638   -0.1987   -0.4082 H   0  0  0  0  0  0  0  0  0  0  0  0
   -0.6540    0.1709    0.4681 C   0  0  1  0  0  0  0  0  0  0  0  0
   -0.2671   -0.1423    1.4387 H   0  0  0  0  0  0  0  0  0  0  0  0
    0.3940   -0.0593   -0.6517 C   0  0  0  0  0  0  0  0  0  0  0  0
    0.0990   -0.9631   -1.1953 H   0  0  0  0  0  0  0  0  0  0  0  0
    0.3564    0.7623   -1.3752 H   0  0  0  0  0  0  0  0  0  0  0  0
    1.8580   -0.2889   -0.2198 C   0  0  0  0  0  0  0  0  0  0  0  0
    2.3622   -0.8799   -0.9910 H   0  0  0  0  0  0  0  0  0  0  0  0
    2.3532    0.6863   -0.1804 H   0  0  0  0  0  0  0  0  0  0  0  0
    2.1102   -1.0984    1.4137 S   0  0  0  0  0  0  0  0  0  0  0  0
    3.9411   -1.2022    1.4916 C   0  0  0  0  0  0  0  0  0  0  0  0
    4.3813   -0.2023    1.4341 H   0  0  0  0  0  0  0  0  0  0  0  0
    4.2501   -1.6680    2.4322 H   0  0  0  0  0  0  0  0  0  0  0  0
    4.3223   -1.8042    0.6615 H   0  0  0  0  0  0  0  0  0  0  0  0
   -0.9770    1.6701    0.6019 C   0  0  0  0  0  0  0  0  0  0  0  0
   -1.7548    2.2008   -0.1833 O   0  0  0  0  0  0  0  0  0  0  0  0
   -0.4344    2.4108    1.6349 N   0  0  0  0  0  0  0  0  0  0  0  0
    0.1572    1.9199    2.3007 H   0  0  0  0  0  0  0  0  0  0  0  0
   -0.7440    3.8166    1.8633 C   0  0  0  0  0  0  0  0  0  0  0  0
   -1.8112    3.9453    2.0722 H   0  0  0  0  0  0  0  0  0  0  0  0
   -0.1757    4.1948    2.7186 H   0  0  0  0  0  0  0  0  0  0  0  0
   -0.4822    4.4145    0.9841 H   0  0  0  0  0  0  0  0  0  0  0  0
  1  2  1  0  0  0  0
  2  3  1  0  0  0  0
  2  4  1  0  0  0  0
  2  5  1  0  0  0  0
  5  6  2  0  0  0  0
  5  7  1  0  0  0  0
  7  8  1  0  0  0  0
  7  9  1  0  0  0  0
  9 10  1  0  0  0  0
  9 11  1  0  0  0  0
  9 22  1  0  0  0  0
 11 12  1  0  0  0  0
 11 13  1  0  0  0  0
 11 14  1  0  0  0  0
 14 15  1  0  0  0  0
 14 16  1  0  0  0  0
 14 17  1  0  0  0  0
 17 18  1  0  0  0  0
 18 19  1  0  0  0  0
 18 20  1  0  0  0  0
 18 21  1  0  0  0  0
 22 23  2  0  0  0  0
 22 24  1  0  0  0  0
 24 25  1  0  0  0  0
 24 26  1  0  0  0  0
 26 27  1  0  0  0  0
 26 28  1  0  0  0  0
 26 29  1  0  0  0  0
M  END
$$$$

  -OEChem-02102214153D

 29 28  0     1  0  0  0  0  0999 V2000
   -3.2084   -3.4852    1.2752 H   0  0  0  0  0  0  0  0  0  0  0  0
   -3.2585   -2.4298    0.9924 C   0  0  0  0  0  0  0  0  0  0  0  0
   -3.6200   -1.8539    1.8479 H   0  0  0  0  0  0  0  0  0  0  0  0
   -3.9635   -2.3218    0.1647 H   0  0  0  0  0  0  0  0  0  0  0  0
   -1.8874   -1.9315    0.5744 C   0  0  0  0  0  0  0  0  0  0  0  0
   -0.9485   -2.7041    0.6461 O   0  0  0  0  0  0  0  0  0  0  0  0
   -1.7713   -0.6070    0.1902 N   0  0  0  0  0  0  0  0  0  0  0  0
   -2.6297   -0.0698    0.3097 H   0  0  0  0  0  0  0  0  0  0  0  0
   -0.6201    0.2194   -0.2502 C   0  0  1  0  0  0  0  0  0  0  0  0
   -1.0110    0.5672   -1.2124 H   0  0  0  0  0  0  0  0  0  0  0  0
    0.6697   -0.4923   -0.8097 C   0  0  0  0  0  0  0  0  0  0  0  0
    0.5996   -1.5606   -0.6323 H   0  0  0  0  0  0  0  0  0  0  0  0
    0.6390   -0.3890   -1.8998 H   0  0  0  0  0  0  0  0  0  0  0  0
    2.1112   -0.1200   -0.4013 C   0  0  0  0  0  0  0  0  0  0  0  0
    2.7822   -0.9014   -0.7737 H   0  0  0  0  0  0  0  0  0  0  0  0
    2.3823    0.8081   -0.9151 H   0  0  0  0  0  0  0  0  0  0  0  0
    2.4536    0.1227    1.3937 S   0  0  0  0  0  0  0  0  0  0  0  0
    1.6661   -1.3370    2.1816 C   0  0  0  0  0  0  0  0  0  0  0  0
    1.9943   -1.4267    3.2211 H   0  0  0  0  0  0  0  0  0  0  0  0
    1.9356   -2.2538    1.6484 H   0  0  0  0  0  0  0  0  0  0  0  0
    0.5786   -1.2302    2.1721 H   0  0  0  0  0  0  0  0  0  0  0  0
   -0.6376    1.6013    0.4632 C   0  0  0  0  0  0  0  0  0  0  0  0
   -1.7346    2.1439    0.5583 O   0  0  0  0  0  0  0  0  0  0  0  0
    0.4298    2.2561    1.0406 N   0  0  0  0  0  0  0  0  0  0  0  0
    1.3139    1.7570    1.0717 H   0  0  0  0  0  0  0  0  0  0  0  0
    0.3114    3.5010    1.7906 C   0  0  0  0  0  0  0  0  0  0  0  0
   -0.3411    3.3646    2.6593 H   0  0  0  0  0  0  0  0  0  0  0  0
    1.2957    3.8226    2.1444 H   0  0  0  0  0  0  0  0  0  0  0  0
   -0.1030    4.2924    1.1573 H   0  0  0  0  0  0  0  0  0  0  0  0
  1  2  1  0  0  0  0
  2  3  1  0  0  0  0
  2  4  1  0  0  0  0
  2  5  1  0  0  0  0
  5  6  2  0  0  0  0
  5  7  1  0  0  0  0
  7  8  1  0  0  0  0
  7  9  1  0  0  0  0
  9 10  1  0  0  0  0
  9 11  1  0  0  0  0
  9 22  1  0  0  0  0
 11 12  1  0  0  0  0
 11 13  1  0  0  0  0
 11 14  1  0  0  0  0
 14 15  1  0  0  0  0
 14 16  1  0  0  0  0
 14 17  1  0  0  0  0
 17 18  1  0  0  0  0
 18 19  1  0  0  0  0
 18 20  1  0  0  0  0
 18 21  1  0  0  0  0
 22 23  2  0  0  0  0
 22 24  1  0  0  0  0
 24 25  1  0  0  0  0
 24 26  1  0  0  0  0
 26 27  1  0  0  0  0
 26 28  1  0  0  0  0
 26 29  1  0  0  0  0
M  END
$$$$

  -OEChem-02102214153D

 29 28  0     1  0  0  0  0  0999 V2000
   -3.5740   -3.2457    1.1393 H   0  0  0  0  0  0  0  0  0  0  0  0
   -3.5032   -2.1638    0.9949 C   0  0  0  0  0  0  0  0  0  0  0  0
   -3.6431   -1.6707    1.9600 H   0  0  0  0  0  0  0  0  0  0  0  0
   -4.2974   -1.8486    0.3138 H   0  0  0  0  0  0  0  0  0  0  0  0
   -2.1484   -1.7973    0.4170 C   0  0  0  0  0  0  0  0  0  0  0  0
   -1.3540   -2.6968    0.2115 O   0  0  0  0  0  0  0  0  0  0  0  0
   -1.9043   -0.4594    0.1577 N   0  0  0  0  0  0  0  0  0  0  0  0
   -2.6632    0.1506    0.4624 H   0  0  0  0  0  0  0  0  0  0  0  0
   -0.7117    0.3019   -0.2960 C   0  0  1  0  0  0  0  0  0  0  0  0
   -1.0747    0.7566   -1.2236 H   0  0  0  0  0  0  0  0  0  0  0  0
    0.5317   -0.4871   -0.8558 C   0  0  0  0  0  0  0  0  0  0  0  0
    0.4249   -1.5486   -0.6678 H   0  0  0  0  0  0  0  0  0  0  0  0
    0.4990   -0.3847   -1.9455 H   0  0  0  0  0  0  0  0  0  0  0  0
    1.9771   -0.1591   -0.4374 C   0  0  0  0  0  0  0  0  0  0  0  0
    2.6519   -0.8273   -0.9826 H   0  0  0  0  0  0  0  0  0  0  0  0
    2.2167    0.8628   -0.7483 H   0  0  0  0  0  0  0  0  0  0  0  0
    2.3314   -0.3347    1.3660 S   0  0  0  0  0  0  0  0  0  0  0  0
    1.7774   -2.0406    1.7614 C   0  0  0  0  0  0  0  0  0  0  0  0
    2.2004   -2.7551    1.0491 H   0  0  0  0  0  0  0  0  0  0  0  0
    2.1019   -2.3163    2.7690 H   0  0  0  0  0  0  0  0  0  0  0  0
    0.6872   -2.1053    1.7209 H   0  0  0  0  0  0  0  0  0  0  0  0
   -0.5770    1.5796    0.5826 C   0  0  0  0  0  0  0  0  0  0  0  0
   -1.6168    2.1903    0.8125 O   0  0  0  0  0  0  0  0  0  0  0  0
    0.5763    2.0750    1.1555 N   0  0  0  0  0  0  0  0  0  0  0  0
    1.3970    1.4770    1.1115 H   0  0  0  0  0  0  0  0  0  0  0  0
    0.6018    3.2078    2.0737 C   0  0  0  0  0  0  0  0  0  0  0  0
    0.0204    2.9843    2.9743 H   0  0  0  0  0  0  0  0  0  0  0  0
    1.6318    3.4270    2.3712 H   0  0  0  0  0  0  0  0  0  0  0  0
    0.1847    4.1007    1.5963 H   0  0  0  0  0  0  0  0  0  0  0  0
  1  2  1  0  0  0  0
  2  3  1  0  0  0  0
  2  4  1  0  0  0  0
  2  5  1  0  0  0  0
  5  6  2  0  0  0  0
  5  7  1  0  0  0  0
  7  8  1  0  0  0  0
  7  9  1  0  0  0  0
  9 10  1  0  0  0  0
  9 11  1  0  0  0  0
  9 22  1  0  0  0  0
 11 12  1  0  0  0  0
 11 13  1  0  0  0  0
 11 14  1  0  0  0  0
 14 15  1  0  0  0  0
 14 16  1  0  0  0  0
 14 17  1  0  0  0  0
 17 18  1  0  0  0  0
 18 19  1  0  0  0  0
 18 20  1  0  0  0  0
 18 21  1  0  0  0  0
 22 23  2  0  0  0  0
 22 24  1  0  0  0  0
 24 25  1  0  0  0  0
 24 26  1  0  0  0  0
 26 27  1  0  0  0  0
 26 28  1  0  0  0  0
 26 29  1  0  0  0  0
M  END
$$$$

  -OEChem-02102214153D

 29 28  0     1  0  0  0  0  0999 V2000
   -3.6562   -3.3229    1.0973 H   0  0  0  0  0  0  0  0  0  0  0  0
   -3.5500   -2.3571    0.5955 C   0  0  0  0  0  0  0  0  0  0  0  0
   -4.2783   -1.6591    1.0153 H   0  0  0  0  0  0  0  0  0  0  0  0
   -3.7540   -2.4900   -0.4697 H   0  0  0  0  0  0  0  0  0  0  0  0
   -2.1452   -1.8191    0.7903 C   0  0  0  0  0  0  0  0  0  0  0  0
   -1.3472   -2.4362    1.4778 O   0  0  0  0  0  0  0  0  0  0  0  0
   -1.7949   -0.6083    0.2293 N   0  0  0  0  0  0  0  0  0  0  0  0
   -2.5218   -0.0835   -0.2531 H   0  0  0  0  0  0  0  0  0  0  0  0
   -0.4637    0.0089    0.3194 C   0  0  1  0  0  0  0  0  0  0  0  0
    0.1000   -0.4678    1.1241 H   0  0  0  0  0  0  0  0  0  0  0  0
    0.2799   -0.1822   -1.0220 C   0  0  0  0  0  0  0  0  0  0  0  0
   -0.2329   -0.9361   -1.6290 H   0  0  0  0  0  0  0  0  0  0  0  0
    0.2587    0.7519   -1.5935 H   0  0  0  0  0  0  0  0  0  0  0  0
    1.7356   -0.6297   -0.8427 C   0  0  0  0  0  0  0  0  0  0  0  0
    2.2600   -0.5036   -1.7953 H   0  0  0  0  0  0  0  0  0  0  0  0
    2.2438   -0.0053   -0.1014 H   0  0  0  0  0  0  0  0  0  0  0  0
    1.8295   -2.4043   -0.3677 S   0  0  0  0  0  0  0  0  0  0  0  0
    2.2941   -2.3849    1.4094 C   0  0  0  0  0  0  0  0  0  0  0  0
    1.4878   -1.9627    2.0146 H   0  0  0  0  0  0  0  0  0  0  0  0
    2.4802   -3.4064    1.7540 H   0  0  0  0  0  0  0  0  0  0  0  0
    3.2016   -1.7937    1.5606 H   0  0  0  0  0  0  0  0  0  0  0  0
   -0.5661    1.5086    0.6613 C   0  0  0  0  0  0  0  0  0  0  0  0
   -1.3970    2.2102    0.0958 O   0  0  0  0  0  0  0  0  0  0  0  0
    0.2578    2.0685    1.6204 N   0  0  0  0  0  0  0  0  0  0  0  0
    0.8717    1.4432    2.1343 H   0  0  0  0  0  0  0  0  0  0  0  0
    0.1652    3.4632    2.0349 C   0  0  0  0  0  0  0  0  0  0  0  0
   -0.8182    3.6687    2.4707 H   0  0  0  0  0  0  0  0  0  0  0  0
    0.9301    3.6872    2.7846 H   0  0  0  0  0  0  0  0  0  0  0  0
    0.3172    4.1288    1.1786 H   0  0  0  0  0  0  0  0  0  0  0  0
  1  2  1  0  0  0  0
  2  3  1  0  0  0  0
  2  4  1  0  0  0  0
  2  5  1  0  0  0  0
  5  6  2  0  0  0  0
  5  7  1  0  0  0  0
  7  8  1  0  0  0  0
  7  9  1  0  0  0  0
  9 10  1  0  0  0  0
  9 11  1  0  0  0  0
  9 22  1  0  0  0  0
 11 12  1  0  0  0  0
 11 13  1  0  0  0  0
 11 14  1  0  0  0  0
 14 15  1  0  0  0  0
 14 16  1  0  0  0  0
 14 17  1  0  0  0  0
 17 18  1  0  0  0  0
 18 19  1  0  0  0  0
 18 20  1  0  0  0  0
 18 21  1  0  0  0  0
 22 23  2  0  0  0  0
 22 24  1  0  0  0  0
 24 25  1  0  0  0  0
 24 26  1  0  0  0  0
 26 27  1  0  0  0  0
 26 28  1  0  0  0  0
 26 29  1  0  0  0  0
M  END
$$$$

  -OEChem-02102214153D

 29 28  0     1  0  0  0  0  0999 V2000
   -3.6570   -3.3096    1.1172 H   0  0  0  0  0  0  0  0  0  0  0  0
   -3.5482   -2.3430    0.6172 C   0  0  0  0  0  0  0  0  0  0  0  0
   -4.2599   -1.6381    1.0537 H   0  0  0  0  0  0  0  0  0  0  0  0
   -3.7737   -2.4688   -0.4445 H   0  0  0  0  0  0  0  0  0  0  0  0
   -2.1333   -1.8236    0.7865 C   0  0  0  0  0  0  0  0  0  0  0  0
   -1.3232   -2.4662    1.4348 O   0  0  0  0  0  0  0  0  0  0  0  0
   -1.7842   -0.6056    0.2416 N   0  0  0  0  0  0  0  0  0  0  0  0
   -2.5192   -0.0643   -0.2094 H   0  0  0  0  0  0  0  0  0  0  0  0
   -0.4487    0.0053    0.3133 C   0  0  1  0  0  0  0  0  0  0  0  0
    0.1304   -0.4914    1.0972 H   0  0  0  0  0  0  0  0  0  0  0  0
    0.2610   -0.1763   -1.0475 C   0  0  0  0  0  0  0  0  0  0  0  0
   -0.2730   -0.9104   -1.6605 H   0  0  0  0  0  0  0  0  0  0  0  0
    0.2371    0.7695   -1.5996 H   0  0  0  0  0  0  0  0  0  0  0  0
    1.7181   -0.6329   -0.8996 C   0  0  0  0  0  0  0  0  0  0  0  0
    2.2840   -0.2735   -1.7652 H   0  0  0  0  0  0  0  0  0  0  0  0
    2.1814   -0.2039   -0.0059 H   0  0  0  0  0  0  0  0  0  0  0  0
    1.8265   -2.4677   -0.8815 S   0  0  0  0  0  0  0  0  0  0  0  0
    2.1327   -2.8549    0.8874 C   0  0  0  0  0  0  0  0  0  0  0  0
    1.3144   -2.4841    1.5097 H   0  0  0  0  0  0  0  0  0  0  0  0
    2.2060   -3.9378    1.0240 H   0  0  0  0  0  0  0  0  0  0  0  0
    3.0671   -2.3954    1.2216 H   0  0  0  0  0  0  0  0  0  0  0  0
   -0.5362    1.4996    0.6831 C   0  0  0  0  0  0  0  0  0  0  0  0
   -1.3800    2.2121    0.1513 O   0  0  0  0  0  0  0  0  0  0  0  0
    0.3108    2.0406    1.6331 N   0  0  0  0  0  0  0  0  0  0  0  0
    0.9326    1.4046    2.1241 H   0  0  0  0  0  0  0  0  0  0  0  0
    0.2236    3.4254    2.0815 C   0  0  0  0  0  0  0  0  0  0  0  0
   -0.7467    3.6155    2.5522 H   0  0  0  0  0  0  0  0  0  0  0  0
    1.0102    3.6370    2.8120 H   0  0  0  0  0  0  0  0  0  0  0  0
    0.3456    4.1109    1.2362 H   0  0  0  0  0  0  0  0  0  0  0  0
  1  2  1  0  0  0  0
  2  3  1  0  0  0  0
  2  4  1  0  0  0  0
  2  5  1  0  0  0  0
  5  6  2  0  0  0  0
  5  7  1  0  0  0  0
  7  8  1  0  0  0  0
  7  9  1  0  0  0  0
  9 10  1  0  0  0  0
  9 11  1  0  0  0  0
  9 22  1  0  0  0  0
 11 12  1  0  0  0  0
 11 13  1  0  0  0  0
 11 14  1  0  0  0  0
 14 15  1  0  0  0  0
 14 16  1  0  0  0  0
 14 17  1  0  0  0  0
 17 18  1  0  0  0  0
 18 19  1  0  0  0  0
 18 20  1  0  0  0  0
 18 21  1  0  0  0  0
 22 23  2  0  0  0  0
 22 24  1  0  0  0  0
 24 25  1  0  0  0  0
 24 26  1  0  0  0  0
 26 27  1  0  0  0  0
 26 28  1  0  0  0  0
 26 29  1  0  0  0  0
M  END
$$$$

  -OEChem-02102214153D

 29 28  0     1  0  0  0  0  0999 V2000
   -3.3494   -3.4356    1.3272 H   0  0  0  0  0  0  0  0  0  0  0  0
   -3.2782   -2.4858    0.7897 C   0  0  0  0  0  0  0  0  0  0  0  0
   -4.0373   -1.8029    1.1791 H   0  0  0  0  0  0  0  0  0  0  0  0
   -3.4692   -2.6664   -0.2709 H   0  0  0  0  0  0  0  0  0  0  0  0
   -1.8978   -1.8839    0.9717 C   0  0  0  0  0  0  0  0  0  0  0  0
   -1.0876   -2.4296    1.7026 O   0  0  0  0  0  0  0  0  0  0  0  0
   -1.5927   -0.6825    0.3684 N   0  0  0  0  0  0  0  0  0  0  0  0
   -2.3438   -0.2110   -0.1328 H   0  0  0  0  0  0  0  0  0  0  0  0
   -0.2886   -0.0006    0.3997 C   0  0  1  0  0  0  0  0  0  0  0  0
    0.3224   -0.4330    1.1985 H   0  0  0  0  0  0  0  0  0  0  0  0
    0.4364   -0.1583   -0.9630 C   0  0  0  0  0  0  0  0  0  0  0  0
   -0.0591   -0.9357   -1.5538 H   0  0  0  0  0  0  0  0  0  0  0  0
    0.3445    0.7692   -1.5389 H   0  0  0  0  0  0  0  0  0  0  0  0
    1.9282   -0.5228   -0.8448 C   0  0  0  0  0  0  0  0  0  0  0  0
    2.4910    0.1022   -1.5458 H   0  0  0  0  0  0  0  0  0  0  0  0
    2.3006   -0.2925    0.1580 H   0  0  0  0  0  0  0  0  0  0  0  0
    2.3073   -2.2794   -1.2457 S   0  0  0  0  0  0  0  0  0  0  0  0
    1.3376   -3.2822   -0.0591 C   0  0  0  0  0  0  0  0  0  0  0  0
    0.2778   -3.2465   -0.3206 H   0  0  0  0  0  0  0  0  0  0  0  0
    1.6651   -4.3252   -0.0928 H   0  0  0  0  0  0  0  0  0  0  0  0
    1.4707   -2.9068    0.9597 H   0  0  0  0  0  0  0  0  0  0  0  0
   -0.4690    1.5031    0.6941 C   0  0  0  0  0  0  0  0  0  0  0  0
   -1.3602    2.1335    0.1361 O   0  0  0  0  0  0  0  0  0  0  0  0
    0.3453    2.1403    1.6118 N   0  0  0  0  0  0  0  0  0  0  0  0
    1.0142    1.5703    2.1218 H   0  0  0  0  0  0  0  0  0  0  0  0
    0.1793    3.5386    1.9891 C   0  0  0  0  0  0  0  0  0  0  0  0
   -0.7980    3.6953    2.4576 H   0  0  0  0  0  0  0  0  0  0  0  0
    0.9565    3.8331    2.7007 H   0  0  0  0  0  0  0  0  0  0  0  0
    0.2557    4.1855    1.1086 H   0  0  0  0  0  0  0  0  0  0  0  0
  1  2  1  0  0  0  0
  2  3  1  0  0  0  0
  2  4  1  0  0  0  0
  2  5  1  0  0  0  0
  5  6  2  0  0  0  0
  5  7  1  0  0  0  0
  7  8  1  0  0  0  0
  7  9  1  0  0  0  0
  9 10  1  0  0  0  0
  9 11  1  0  0  0  0
  9 22  1  0  0  0  0
 11 12  1  0  0  0  0
 11 13  1  0  0  0  0
 11 14  1  0  0  0  0
 14 15  1  0  0  0  0
 14 16  1  0  0  0  0
 14 17  1  0  0  0  0
 17 18  1  0  0  0  0
 18 19  1  0  0  0  0
 18 20  1  0  0  0  0
 18 21  1  0  0  0  0
 22 23  2  0  0  0  0
 22 24  1  0  0  0  0
 24 25  1  0  0  0  0
 24 26  1  0  0  0  0
 26 27  1  0  0  0  0
 26 28  1  0  0  0  0
 26 29  1  0  0  0  0
M  END
$$$$

  -OEChem-02102214153D

 29 28  0     1  0  0  0  0  0999 V2000
   -3.3334   -3.4474    1.3007 H   0  0  0  0  0  0  0  0  0  0  0  0
   -3.2871   -2.4815    0.7901 C   0  0  0  0  0  0  0  0  0  0  0  0
   -3.9910   -1.7963    1.2689 H   0  0  0  0  0  0  0  0  0  0  0  0
   -3.5774   -2.6208   -0.2540 H   0  0  0  0  0  0  0  0  0  0  0  0
   -1.8812   -1.9171    0.8656 C   0  0  0  0  0  0  0  0  0  0  0  0
   -1.0064   -2.5360    1.4503 O   0  0  0  0  0  0  0  0  0  0  0  0
   -1.6027   -0.6945    0.2918 N   0  0  0  0  0  0  0  0  0  0  0  0
   -2.3843   -0.1730   -0.1021 H   0  0  0  0  0  0  0  0  0  0  0  0
   -0.3030   -0.0077    0.3437 C   0  0  1  0  0  0  0  0  0  0  0  0
    0.2925   -0.4529    1.1465 H   0  0  0  0  0  0  0  0  0  0  0  0
    0.4280   -0.1745   -1.0101 C   0  0  0  0  0  0  0  0  0  0  0  0
   -0.0665   -0.9567   -1.5947 H   0  0  0  0  0  0  0  0  0  0  0  0
    0.3416    0.7458   -1.5979 H   0  0  0  0  0  0  0  0  0  0  0  0
    1.9162   -0.5406   -0.8575 C   0  0  0  0  0  0  0  0  0  0  0  0
    2.5224    0.2394   -1.3292 H   0  0  0  0  0  0  0  0  0  0  0  0
    2.2113   -0.5854    0.1949 H   0  0  0  0  0  0  0  0  0  0  0  0
    2.3129   -2.1514   -1.6522 S   0  0  0  0  0  0  0  0  0  0  0  0
    1.3563   -3.3562   -0.6491 C   0  0  0  0  0  0  0  0  0  0  0  0
    0.2843   -3.2296   -0.8219 H   0  0  0  0  0  0  0  0  0  0  0  0
    1.6329   -4.3778   -0.9247 H   0  0  0  0  0  0  0  0  0  0  0  0
    1.5601   -3.2135    0.4163 H   0  0  0  0  0  0  0  0  0  0  0  0
   -0.4742    1.4872    0.6796 C   0  0  0  0  0  0  0  0  0  0  0  0
   -1.3737    2.1310    0.1520 O   0  0  0  0  0  0  0  0  0  0  0  0
    0.3436    2.0968    1.6128 N   0  0  0  0  0  0  0  0  0  0  0  0
    1.0316    1.5185    2.0866 H   0  0  0  0  0  0  0  0  0  0  0  0
    0.1926    3.4886    2.0195 C   0  0  0  0  0  0  0  0  0  0  0  0
   -0.7908    3.6516    2.4729 H   0  0  0  0  0  0  0  0  0  0  0  0
    0.9600    3.7533    2.7533 H   0  0  0  0  0  0  0  0  0  0  0  0
    0.2972    4.1540    1.1560 H   0  0  0  0  0  0  0  0  0  0  0  0
  1  2  1  0  0  0  0
  2  3  1  0  0  0  0
  2  4  1  0  0  0  0
  2  5  1  0  0  0  0
  5  6  2  0  0  0  0
  5  7  1  0  0  0  0
  7  8  1  0  0  0  0
  7  9  1  0  0  0  0
  9 10  1  0  0  0  0
  9 11  1  0  0  0  0
  9 22  1  0  0  0  0
 11 12  1  0  0  0  0
 11 13  1  0  0  0  0
 11 14  1  0  0  0  0
 14 15  1  0  0  0  0
 14 16  1  0  0  0  0
 14 17  1  0  0  0  0
 17 18  1  0  0  0  0
 18 19  1  0  0  0  0
 18 20  1  0  0  0  0
 18 21  1  0  0  0  0
 22 23  2  0  0  0  0
 22 24  1  0  0  0  0
 24 25  1  0  0  0  0
 24 26  1  0  0  0  0
 26 27  1  0  0  0  0
 26 28  1  0  0  0  0
 26 29  1  0  0  0  0
M  END
$$$$

  -OEChem-02102214153D

 29 28  0     1  0  0  0  0  0999 V2000
   -3.3650   -3.4195    1.2866 H   0  0  0  0  0  0  0  0  0  0  0  0
   -3.3238   -2.4515    0.7795 C   0  0  0  0  0  0  0  0  0  0  0  0
   -3.9875   -1.7549    1.2974 H   0  0  0  0  0  0  0  0  0  0  0  0
   -3.6699   -2.5773   -0.2493 H   0  0  0  0  0  0  0  0  0  0  0  0
   -1.9039   -1.9174    0.7856 C   0  0  0  0  0  0  0  0  0  0  0  0
   -1.0007   -2.5844    1.2661 O   0  0  0  0  0  0  0  0  0  0  0  0
   -1.6352   -0.6801    0.2390 N   0  0  0  0  0  0  0  0  0  0  0  0
   -2.4284   -0.1255   -0.0795 H   0  0  0  0  0  0  0  0  0  0  0  0
   -0.3322   -0.0016    0.3005 C   0  0  1  0  0  0  0  0  0  0  0  0
    0.2578   -0.4644    1.0972 H   0  0  0  0  0  0  0  0  0  0  0  0
    0.3909   -0.1669   -1.0541 C   0  0  0  0  0  0  0  0  0  0  0  0
   -0.1113   -0.9523   -1.6273 H   0  0  0  0  0  0  0  0  0  0  0  0
    0.3072    0.7490   -1.6490 H   0  0  0  0  0  0  0  0  0  0  0  0
    1.8736   -0.5470   -0.8962 C   0  0  0  0  0  0  0  0  0  0  0  0
    2.4958    0.3316   -1.0946 H   0  0  0  0  0  0  0  0  0  0  0  0
    2.0957   -0.8852    0.1200 H   0  0  0  0  0  0  0  0  0  0  0  0
    2.3267   -1.8987   -2.0553 S   0  0  0  0  0  0  0  0  0  0  0  0
    1.5173   -3.3476   -1.2636 C   0  0  0  0  0  0  0  0  0  0  0  0
    0.4323   -3.2138   -1.2304 H   0  0  0  0  0  0  0  0  0  0  0  0
    1.7390   -4.2561   -1.8307 H   0  0  0  0  0  0  0  0  0  0  0  0
    1.8830   -3.4754   -0.2404 H   0  0  0  0  0  0  0  0  0  0  0  0
   -0.4853    1.4853    0.6751 C   0  0  0  0  0  0  0  0  0  0  0  0
   -1.3922    2.1452    0.1817 O   0  0  0  0  0  0  0  0  0  0  0  0
    0.3443    2.0656    1.6169 N   0  0  0  0  0  0  0  0  0  0  0  0
    1.0498    1.4782    2.0522 H   0  0  0  0  0  0  0  0  0  0  0  0
    0.2118    3.4508    2.0520 C   0  0  0  0  0  0  0  0  0  0  0  0
   -0.7739    3.6202    2.4981 H   0  0  0  0  0  0  0  0  0  0  0  0
    0.9748    3.6870    2.7999 H   0  0  0  0  0  0  0  0  0  0  0  0
    0.3366    4.1323    1.2039 H   0  0  0  0  0  0  0  0  0  0  0  0
  1  2  1  0  0  0  0
  2  3  1  0  0  0  0
  2  4  1  0  0  0  0
  2  5  1  0  0  0  0
  5  6  2  0  0  0  0
  5  7  1  0  0  0  0
  7  8  1  0  0  0  0
  7  9  1  0  0  0  0
  9 10  1  0  0  0  0
  9 11  1  0  0  0  0
  9 22  1  0  0  0  0
 11 12  1  0  0  0  0
 11 13  1  0  0  0  0
 11 14  1  0  0  0  0
 14 15  1  0  0  0  0
 14 16  1  0  0  0  0
 14 17  1  0  0  0  0
 17 18  1  0  0  0  0
 18 19  1  0  0  0  0
 18 20  1  0  0  0  0
 18 21  1  0  0  0  0
 22 23  2  0  0  0  0
 22 24  1  0  0  0  0
 24 25  1  0  0  0  0
 24 26  1  0  0  0  0
 26 27  1  0  0  0  0
 26 28  1  0  0  0  0
 26 29  1  0  0  0  0
M  END
$$$$

  -OEChem-02102214153D

 29 28  0     1  0  0  0  0  0999 V2000
   -3.3838   -3.4014    1.2950 H   0  0  0  0  0  0  0  0  0  0  0  0
   -3.3459   -2.4306    0.7930 C   0  0  0  0  0  0  0  0  0  0  0  0
   -3.9939   -1.7322    1.3282 H   0  0  0  0  0  0  0  0  0  0  0  0
   -3.7133   -2.5476   -0.2294 H   0  0  0  0  0  0  0  0  0  0  0  0
   -1.9225   -1.9070    0.7744 C   0  0  0  0  0  0  0  0  0  0  0  0
   -1.0147   -2.5842    1.2311 O   0  0  0  0  0  0  0  0  0  0  0  0
   -1.6556   -0.6669    0.2337 N   0  0  0  0  0  0  0  0  0  0  0  0
   -2.4510   -0.1024   -0.0613 H   0  0  0  0  0  0  0  0  0  0  0  0
   -0.3485    0.0038    0.2883 C   0  0  1  0  0  0  0  0  0  0  0  0
    0.2492   -0.4658    1.0756 H   0  0  0  0  0  0  0  0  0  0  0  0
    0.3623   -0.1563   -1.0721 C   0  0  0  0  0  0  0  0  0  0  0  0
   -0.1423   -0.9451   -1.6380 H   0  0  0  0  0  0  0  0  0  0  0  0
    0.2789    0.7591   -1.6680 H   0  0  0  0  0  0  0  0  0  0  0  0
    1.8396   -0.5449   -0.9133 C   0  0  0  0  0  0  0  0  0  0  0  0
    2.4498    0.3599   -0.8285 H   0  0  0  0  0  0  0  0  0  0  0  0
    1.9927   -1.1396   -0.0071 H   0  0  0  0  0  0  0  0  0  0  0  0
    2.3985   -1.5500   -2.3464 S   0  0  0  0  0  0  0  0  0  0  0  0
    1.6857   -3.1991   -1.9546 C   0  0  0  0  0  0  0  0  0  0  0  0
    0.5939   -3.1481   -1.9133 H   0  0  0  0  0  0  0  0  0  0  0  0
    1.9718   -3.9224   -2.7238 H   0  0  0  0  0  0  0  0  0  0  0  0
    2.0554   -3.5521   -0.9874 H   0  0  0  0  0  0  0  0  0  0  0  0
   -0.4904    1.4888    0.6756 C   0  0  0  0  0  0  0  0  0  0  0  0
   -1.4003    2.1567    0.1986 O   0  0  0  0  0  0  0  0  0  0  0  0
    0.3513    2.0565    1.6144 N   0  0  0  0  0  0  0  0  0  0  0  0
    1.0553    1.4603    2.0399 H   0  0  0  0  0  0  0  0  0  0  0  0
    0.2261    3.4359    2.0696 C   0  0  0  0  0  0  0  0  0  0  0  0
   -0.7532    3.6006    2.5314 H   0  0  0  0  0  0  0  0  0  0  0  0
    0.9996    3.6612    2.8101 H   0  0  0  0  0  0  0  0  0  0  0  0
    0.3404    4.1288    1.2293 H   0  0  0  0  0  0  0  0  0  0  0  0
  1  2  1  0  0  0  0
  2  3  1  0  0  0  0
  2  4  1  0  0  0  0
  2  5  1  0  0  0  0
  5  6  2  0  0  0  0
  5  7  1  0  0  0  0
  7  8  1  0  0  0  0
  7  9  1  0  0  0  0
  9 10  1  0  0  0  0
  9 11  1  0  0  0  0
  9 22  1  0  0  0  0
 11 12  1  0  0  0  0
 11 13  1  0  0  0  0
 11 14  1  0  0  0  0
 14 15  1  0  0  0  0
 14 16  1  0  0  0  0
 14 17  1  0  0  0  0
 17 18  1  0  0  0  0
 18 19  1  0  0  0  0
 18 20  1  0  0  0  0
 18 21  1  0  0  0  0
 22 23  2  0  0  0  0
 22 24  1  0  0  0  0
 24 25  1  0  0  0  0
 24 26  1  0  0  0  0
 26 27  1  0  0  0  0
 26 28  1  0  0  0  0
 26 29  1  0  0  0  0
M  END
$$$$

  -OEChem-02102214153D

 29 28  0     1  0  0  0  0  0999 V2000
   -3.3803   -3.4109    1.2808 H   0  0  0  0  0  0  0  0  0  0  0  0
   -3.3472   -2.4270    0.8046 C   0  0  0  0  0  0  0  0  0  0  0  0
   -3.9887   -1.7427    1.3651 H   0  0  0  0  0  0  0  0  0  0  0  0
   -3.7256   -2.5167   -0.2165 H   0  0  0  0  0  0  0  0  0  0  0  0
   -1.9237   -1.9036    0.7845 C   0  0  0  0  0  0  0  0  0  0  0  0
   -1.0155   -2.5800    1.2411 O   0  0  0  0  0  0  0  0  0  0  0  0
   -1.6573   -0.6633    0.2443 N   0  0  0  0  0  0  0  0  0  0  0  0
   -2.4531   -0.0963   -0.0449 H   0  0  0  0  0  0  0  0  0  0  0  0
   -0.3483    0.0039    0.2877 C   0  0  1  0  0  0  0  0  0  0  0  0
    0.2609   -0.4683    1.0652 H   0  0  0  0  0  0  0  0  0  0  0  0
    0.3483   -0.1548   -1.0792 C   0  0  0  0  0  0  0  0  0  0  0  0
   -0.1570   -0.9418   -1.6467 H   0  0  0  0  0  0  0  0  0  0  0  0
    0.2675    0.7654   -1.6676 H   0  0  0  0  0  0  0  0  0  0  0  0
    1.8212   -0.5466   -0.9190 C   0  0  0  0  0  0  0  0  0  0  0  0
    2.3975    0.3196   -0.5790 H   0  0  0  0  0  0  0  0  0  0  0  0
    1.9265   -1.3399   -0.1713 H   0  0  0  0  0  0  0  0  0  0  0  0
    2.4999   -1.1545   -2.5146 S   0  0  0  0  0  0  0  0  0  0  0  0
    1.8363   -2.8668   -2.5971 C   0  0  0  0  0  0  0  0  0  0  0  0
    0.7434   -2.8559   -2.6351 H   0  0  0  0  0  0  0  0  0  0  0  0
    2.2101   -3.3698   -3.4938 H   0  0  0  0  0  0  0  0  0  0  0  0
    2.1510   -3.4379   -1.7186 H   0  0  0  0  0  0  0  0  0  0  0  0
   -0.4895    1.4881    0.6800 C   0  0  0  0  0  0  0  0  0  0  0  0
   -1.4112    2.1520    0.2201 O   0  0  0  0  0  0  0  0  0  0  0  0
    0.3587    2.0561    1.6127 N   0  0  0  0  0  0  0  0  0  0  0  0
    1.0726    1.4630    2.0260 H   0  0  0  0  0  0  0  0  0  0  0  0
    0.2266    3.4314    2.0789 C   0  0  0  0  0  0  0  0  0  0  0  0
   -0.7430    3.5798    2.5661 H   0  0  0  0  0  0  0  0  0  0  0  0
    1.0154    3.6641    2.8008 H   0  0  0  0  0  0  0  0  0  0  0  0
    0.3100    4.1301    1.2397 H   0  0  0  0  0  0  0  0  0  0  0  0
  1  2  1  0  0  0  0
  2  3  1  0  0  0  0
  2  4  1  0  0  0  0
  2  5  1  0  0  0  0
  5  6  2  0  0  0  0
  5  7  1  0  0  0  0
  7  8  1  0  0  0  0
  7  9  1  0  0  0  0
  9 10  1  0  0  0  0
  9 11  1  0  0  0  0
  9 22  1  0  0  0  0
 11 12  1  0  0  0  0
 11 13  1  0  0  0  0
 11 14  1  0  0  0  0
 14 15  1  0  0  0  0
 14 16  1  0  0  0  0
 14 17  1  0  0  0  0
 17 18  1  0  0  0  0
 18 19  1  0  0  0  0
 18 20  1  0  0  0  0
 18 21  1  0  0  0  0
 22 23  2  0  0  0  0
 22 24  1  0  0  0  0
 24 25  1  0  0  0  0
 24 26  1  0  0  0  0
 26 27  1  0  0  0  0
 26 28  1  0  0  0  0
 26 29  1  0  0  0  0
M  END
$$$$

  -OEChem-02102214153D

 29 28  0     1  0  0  0  0  0999 V2000
   -3.3672   -3.4094    1.3383 H   0  0  0  0  0  0  0  0  0  0  0  0
   -3.3315   -2.4437    0.8262 C   0  0  0  0  0  0  0  0  0  0  0  0
   -3.9789   -1.7406    1.3559 H   0  0  0  0  0  0  0  0  0  0  0  0
   -3.7009   -2.5717   -0.1942 H   0  0  0  0  0  0  0  0  0  0  0  0
   -1.9086   -1.9188    0.7991 C   0  0  0  0  0  0  0  0  0  0  0  0
   -0.9992   -2.5913    1.2593 O   0  0  0  0  0  0  0  0  0  0  0  0
   -1.6431   -0.6814    0.2516 N   0  0  0  0  0  0  0  0  0  0  0  0
   -2.4393   -0.1130   -0.0345 H   0  0  0  0  0  0  0  0  0  0  0  0
   -0.3340   -0.0144    0.3007 C   0  0  1  0  0  0  0  0  0  0  0  0
    0.2773   -0.4738    1.0845 H   0  0  0  0  0  0  0  0  0  0  0  0
    0.3702   -0.1700   -1.0637 C   0  0  0  0  0  0  0  0  0  0  0  0
   -0.2729   -0.7215   -1.7559 H   0  0  0  0  0  0  0  0  0  0  0  0
    0.5561    0.8123   -1.5118 H   0  0  0  0  0  0  0  0  0  0  0  0
    1.7015   -0.9102   -0.9093 C   0  0  0  0  0  0  0  0  0  0  0  0
    2.3581   -0.3514   -0.2351 H   0  0  0  0  0  0  0  0  0  0  0  0
    1.5313   -1.9005   -0.4722 H   0  0  0  0  0  0  0  0  0  0  0  0
    2.5323   -1.0900   -2.5384 S   0  0  0  0  0  0  0  0  0  0  0  0
    1.5203   -2.3790   -3.3686 C   0  0  0  0  0  0  0  0  0  0  0  0
    0.5064   -2.0128   -3.5521 H   0  0  0  0  0  0  0  0  0  0  0  0
    1.9716   -2.6466   -4.3285 H   0  0  0  0  0  0  0  0  0  0  0  0
    1.4644   -3.2767   -2.7455 H   0  0  0  0  0  0  0  0  0  0  0  0
   -0.4906    1.4709    0.6840 C   0  0  0  0  0  0  0  0  0  0  0  0
   -1.4105    2.1266    0.2086 O   0  0  0  0  0  0  0  0  0  0  0  0
    0.3445    2.0498    1.6216 N   0  0  0  0  0  0  0  0  0  0  0  0
    1.0677    1.4678    2.0346 H   0  0  0  0  0  0  0  0  0  0  0  0
    0.2168    3.4346    2.0591 C   0  0  0  0  0  0  0  0  0  0  0  0
   -0.7683    3.6065    2.5055 H   0  0  0  0  0  0  0  0  0  0  0  0
    0.9802    3.6673    2.8077 H   0  0  0  0  0  0  0  0  0  0  0  0
    0.3441    4.1169    1.2121 H   0  0  0  0  0  0  0  0  0  0  0  0
  1  2  1  0  0  0  0
  2  3  1  0  0  0  0
  2  4  1  0  0  0  0
  2  5  1  0  0  0  0
  5  6  2  0  0  0  0
  5  7  1  0  0  0  0
  7  8  1  0  0  0  0
  7  9  1  0  0  0  0
  9 10  1  0  0  0  0
  9 11  1  0  0  0  0
  9 22  1  0  0  0  0
 11 12  1  0  0  0  0
 11 13  1  0  0  0  0
 11 14  1  0  0  0  0
 14 15  1  0  0  0  0
 14 16  1  0  0  0  0
 14 17  1  0  0  0  0
 17 18  1  0  0  0  0
 18 19  1  0  0  0  0
 18 20  1  0  0  0  0
 18 21  1  0  0  0  0
 22 23  2  0  0  0  0
 22 24  1  0  0  0  0
 24 25  1  0  0  0  0
 24 26  1  0  0  0  0
 26 27  1  0  0  0  0
 26 28  1  0  0  0  0
 26 29  1  0  0  0  0
M  END
$$$$

  -OEChem-02102214153D

 29 28  0     1  0  0  0  0  0999 V2000
   -3.3703   -3.4206    1.3360 H   0  0  0  0  0  0  0  0  0  0  0  0
   -3.3313   -2.4543    0.8251 C   0  0  0  0  0  0  0  0  0  0  0  0
   -3.9833   -1.7522    1.3505 H   0  0  0  0  0  0  0  0  0  0  0  0
   -3.6935   -2.5820   -0.1980 H   0  0  0  0  0  0  0  0  0  0  0  0
   -1.9082   -1.9285    0.8090 C   0  0  0  0  0  0  0  0  0  0  0  0
   -1.0029   -2.5977    1.2815 O   0  0  0  0  0  0  0  0  0  0  0  0
   -1.6367   -0.6972    0.2511 N   0  0  0  0  0  0  0  0  0  0  0  0
   -2.4303   -0.1310   -0.0457 H   0  0  0  0  0  0  0  0  0  0  0  0
   -0.3282   -0.0293    0.3043 C   0  0  1  0  0  0  0  0  0  0  0  0
    0.2749   -0.4814    1.0987 H   0  0  0  0  0  0  0  0  0  0  0  0
    0.3854   -0.2044   -1.0527 C   0  0  0  0  0  0  0  0  0  0  0  0
   -0.2508   -0.7570   -1.7511 H   0  0  0  0  0  0  0  0  0  0  0  0
    0.5752    0.7779   -1.4991 H   0  0  0  0  0  0  0  0  0  0  0  0
    1.7175   -0.9428   -0.8880 C   0  0  0  0  0  0  0  0  0  0  0  0
    2.2741   -0.5238   -0.0438 H   0  0  0  0  0  0  0  0  0  0  0  0
    1.5353   -2.0023   -0.6779 H   0  0  0  0  0  0  0  0  0  0  0  0
    2.7479   -0.7570   -2.3982 S   0  0  0  0  0  0  0  0  0  0  0  0
    1.8147   -1.7316   -3.6447 C   0  0  0  0  0  0  0  0  0  0  0  0
    0.8371   -1.2786   -3.8323 H   0  0  0  0  0  0  0  0  0  0  0  0
    2.3698   -1.7625   -4.5868 H   0  0  0  0  0  0  0  0  0  0  0  0
    1.6672   -2.7565   -3.2915 H   0  0  0  0  0  0  0  0  0  0  0  0
   -0.4867    1.4605    0.6701 C   0  0  0  0  0  0  0  0  0  0  0  0
   -1.4037    2.1110    0.1821 O   0  0  0  0  0  0  0  0  0  0  0  0
    0.3413    2.0485    1.6084 N   0  0  0  0  0  0  0  0  0  0  0  0
    1.0666    1.4728    2.0261 H   0  0  0  0  0  0  0  0  0  0  0  0
    0.2105    3.4368    2.0338 C   0  0  0  0  0  0  0  0  0  0  0  0
   -0.7766    3.6117    2.4744 H   0  0  0  0  0  0  0  0  0  0  0  0
    0.9706    3.6753    2.7839 H   0  0  0  0  0  0  0  0  0  0  0  0
    0.3412    4.1129    1.1823 H   0  0  0  0  0  0  0  0  0  0  0  0
  1  2  1  0  0  0  0
  2  3  1  0  0  0  0
  2  4  1  0  0  0  0
  2  5  1  0  0  0  0
  5  6  2  0  0  0  0
  5  7  1  0  0  0  0
  7  8  1  0  0  0  0
  7  9  1  0  0  0  0
  9 10  1  0  0  0  0
  9 11  1  0  0  0  0
  9 22  1  0  0  0  0
 11 12  1  0  0  0  0
 11 13  1  0  0  0  0
 11 14  1  0  0  0  0
 14 15  1  0  0  0  0
 14 16  1  0  0  0  0
 14 17  1  0  0  0  0
 17 18  1  0  0  0  0
 18 19  1  0  0  0  0
 18 20  1  0  0  0  0
 18 21  1  0  0  0  0
 22 23  2  0  0  0  0
 22 24  1  0  0  0  0
 24 25  1  0  0  0  0
 24 26  1  0  0  0  0
 26 27  1  0  0  0  0
 26 28  1  0  0  0  0
 26 29  1  0  0  0  0
M  END
$$$$

  -OEChem-02102214153D

 29 28  0     1  0  0  0  0  0999 V2000
   -3.3829   -3.4157    1.3421 H   0  0  0  0  0  0  0  0  0  0  0  0
   -3.3392   -2.4507    0.8292 C   0  0  0  0  0  0  0  0  0  0  0  0
   -3.9851   -1.7431    1.3546 H   0  0  0  0  0  0  0  0  0  0  0  0
   -3.7047   -2.5779   -0.1926 H   0  0  0  0  0  0  0  0  0  0  0  0
   -1.9131   -1.9340    0.8087 C   0  0  0  0  0  0  0  0  0  0  0  0
   -1.0130   -2.6029    1.2915 O   0  0  0  0  0  0  0  0  0  0  0  0
   -1.6347   -0.7073    0.2437 N   0  0  0  0  0  0  0  0  0  0  0  0
   -2.4254   -0.1390   -0.0574 H   0  0  0  0  0  0  0  0  0  0  0  0
   -0.3247   -0.0430    0.3026 C   0  0  1  0  0  0  0  0  0  0  0  0
    0.2664   -0.4900    1.1079 H   0  0  0  0  0  0  0  0  0  0  0  0
    0.3994   -0.2307   -1.0492 C   0  0  0  0  0  0  0  0  0  0  0  0
   -0.2323   -0.7781   -1.7565 H   0  0  0  0  0  0  0  0  0  0  0  0
    0.5912    0.7537   -1.4905 H   0  0  0  0  0  0  0  0  0  0  0  0
    1.7338   -0.9722   -0.8886 C   0  0  0  0  0  0  0  0  0  0  0  0
    2.1812   -0.7448    0.0837 H   0  0  0  0  0  0  0  0  0  0  0  0
    1.5693   -2.0539   -0.9334 H   0  0  0  0  0  0  0  0  0  0  0  0
    2.9277   -0.4408   -2.1810 S   0  0  0  0  0  0  0  0  0  0  0  0
    2.1365   -1.0504   -3.7227 C   0  0  0  0  0  0  0  0  0  0  0  0
    1.1713   -0.5598   -3.8777 H   0  0  0  0  0  0  0  0  0  0  0  0
    2.7781   -0.8357   -4.5825 H   0  0  0  0  0  0  0  0  0  0  0  0
    1.9782   -2.1315   -3.6653 H   0  0  0  0  0  0  0  0  0  0  0  0
   -0.4837    1.4496    0.6569 C   0  0  0  0  0  0  0  0  0  0  0  0
   -1.3999    2.0967    0.1625 O   0  0  0  0  0  0  0  0  0  0  0  0
    0.3378    2.0422    1.5979 N   0  0  0  0  0  0  0  0  0  0  0  0
    1.0662    1.4708    2.0167 H   0  0  0  0  0  0  0  0  0  0  0  0
    0.2057    3.4335    2.0130 C   0  0  0  0  0  0  0  0  0  0  0  0
   -0.7839    3.6122    2.4467 H   0  0  0  0  0  0  0  0  0  0  0  0
    0.9615    3.6773    2.7659 H   0  0  0  0  0  0  0  0  0  0  0  0
    0.3421    4.1033    1.1573 H   0  0  0  0  0  0  0  0  0  0  0  0
  1  2  1  0  0  0  0
  2  3  1  0  0  0  0
  2  4  1  0  0  0  0
  2  5  1  0  0  0  0
  5  6  2  0  0  0  0
  5  7  1  0  0  0  0
  7  8  1  0  0  0  0
  7  9  1  0  0  0  0
  9 10  1  0  0  0  0
  9 11  1  0  0  0  0
  9 22  1  0  0  0  0
 11 12  1  0  0  0  0
 11 13  1  0  0  0  0
 11 14  1  0  0  0  0
 14 15  1  0  0  0  0
 14 16  1  0  0  0  0
 14 17  1  0  0  0  0
 17 18  1  0  0  0  0
 18 19  1  0  0  0  0
 18 20  1  0  0  0  0
 18 21  1  0  0  0  0
 22 23  2  0  0  0  0
 22 24  1  0  0  0  0
 24 25  1  0  0  0  0
 24 26  1  0  0  0  0
 26 27  1  0  0  0  0
 26 28  1  0  0  0  0
 26 29  1  0  0  0  0
M  END
$$$$

  -OEChem-02102214153D

 29 28  0     1  0  0  0  0  0999 V2000
   -3.3941   -3.4141    1.3425 H   0  0  0  0  0  0  0  0  0  0  0  0
   -3.3464   -2.4512    0.8265 C   0  0  0  0  0  0  0  0  0  0  0  0
   -3.9934   -1.7407    1.3467 H   0  0  0  0  0  0  0  0  0  0  0  0
   -3.7071   -2.5810   -0.1967 H   0  0  0  0  0  0  0  0  0  0  0  0
   -1.9193   -1.9379    0.8106 C   0  0  0  0  0  0  0  0  0  0  0  0
   -1.0214   -2.6109    1.2918 O   0  0  0  0  0  0  0  0  0  0  0  0
   -1.6380   -0.7110    0.2477 N   0  0  0  0  0  0  0  0  0  0  0  0
   -2.4279   -0.1406   -0.0513 H   0  0  0  0  0  0  0  0  0  0  0  0
   -0.3274   -0.0479    0.3078 C   0  0  1  0  0  0  0  0  0  0  0  0
    0.2602   -0.4946    1.1153 H   0  0  0  0  0  0  0  0  0  0  0  0
    0.3958   -0.2301   -1.0464 C   0  0  0  0  0  0  0  0  0  0  0  0
   -0.2399   -0.7752   -1.7517 H   0  0  0  0  0  0  0  0  0  0  0  0
    0.5754    0.7566   -1.4867 H   0  0  0  0  0  0  0  0  0  0  0  0
    1.7359   -0.9732   -0.9105 C   0  0  0  0  0  0  0  0  0  0  0  0
    2.0690   -0.9956    0.1310 H   0  0  0  0  0  0  0  0  0  0  0  0
    1.6188   -2.0119   -1.2364 H   0  0  0  0  0  0  0  0  0  0  0  0
    3.0458   -0.1376   -1.8935 S   0  0  0  0  0  0  0  0  0  0  0  0
    2.4691   -0.4024   -3.6177 C   0  0  0  0  0  0  0  0  0  0  0  0
    1.4964    0.0726   -3.7743 H   0  0  0  0  0  0  0  0  0  0  0  0
    3.1854    0.0303   -4.3223 H   0  0  0  0  0  0  0  0  0  0  0  0
    2.3768   -1.4725   -3.8257 H   0  0  0  0  0  0  0  0  0  0  0  0
   -0.4869    1.4445    0.6637 C   0  0  0  0  0  0  0  0  0  0  0  0
   -1.4043    2.0907    0.1699 O   0  0  0  0  0  0  0  0  0  0  0  0
    0.3333    2.0376    1.6055 N   0  0  0  0  0  0  0  0  0  0  0  0
    1.0792    1.4742    2.0040 H   0  0  0  0  0  0  0  0  0  0  0  0
    0.2106    3.4334    2.0079 C   0  0  0  0  0  0  0  0  0  0  0  0
   -0.7805    3.6247    2.4327 H   0  0  0  0  0  0  0  0  0  0  0  0
    0.9627    3.6771    2.7646 H   0  0  0  0  0  0  0  0  0  0  0  0
    0.3590    4.0940    1.1473 H   0  0  0  0  0  0  0  0  0  0  0  0
  1  2  1  0  0  0  0
  2  3  1  0  0  0  0
  2  4  1  0  0  0  0
  2  5  1  0  0  0  0
  5  6  2  0  0  0  0
  5  7  1  0  0  0  0
  7  8  1  0  0  0  0
  7  9  1  0  0  0  0
  9 10  1  0  0  0  0
  9 11  1  0  0  0  0
  9 22  1  0  0  0  0
 11 12  1  0  0  0  0
 11 13  1  0  0  0  0
 11 14  1  0  0  0  0
 14 15  1  0  0  0  0
 14 16  1  0  0  0  0
 14 17  1  0  0  0  0
 17 18  1  0  0  0  0
 18 19  1  0  0  0  0
 18 20  1  0  0  0  0
 18 21  1  0  0  0  0
 22 23  2  0  0  0  0
 22 24  1  0  0  0  0
 24 25  1  0  0  0  0
 24 26  1  0  0  0  0
 26 27  1  0  0  0  0
 26 28  1  0  0  0  0
 26 29  1  0  0  0  0
M  END
$$$$

  -OEChem-02102214153D

 29 28  0     1  0  0  0  0  0999 V2000
   -3.3921   -3.4221    1.3600 H   0  0  0  0  0  0  0  0  0  0  0  0
   -3.3505   -2.4608    0.8404 C   0  0  0  0  0  0  0  0  0  0  0  0
   -3.9932   -1.7493    1.3645 H   0  0  0  0  0  0  0  0  0  0  0  0
   -3.7209   -2.5944   -0.1788 H   0  0  0  0  0  0  0  0  0  0  0  0
   -1.9242   -1.9453    0.8089 C   0  0  0  0  0  0  0  0  0  0  0  0
   -1.0185   -2.6210    1.2712 O   0  0  0  0  0  0  0  0  0  0  0  0
   -1.6528   -0.7133    0.2526 N   0  0  0  0  0  0  0  0  0  0  0  0
   -2.4478   -0.1412   -0.0290 H   0  0  0  0  0  0  0  0  0  0  0  0
   -0.3436   -0.0463    0.3060 C   0  0  1  0  0  0  0  0  0  0  0  0
    0.2516   -0.4943    1.1071 H   0  0  0  0  0  0  0  0  0  0  0  0
    0.3735   -0.2073   -1.0541 C   0  0  0  0  0  0  0  0  0  0  0  0
   -0.2663   -0.7661   -1.7449 H   0  0  0  0  0  0  0  0  0  0  0  0
    0.5285    0.7786   -1.5048 H   0  0  0  0  0  0  0  0  0  0  0  0
    1.7198   -0.9454   -0.9385 C   0  0  0  0  0  0  0  0  0  0  0  0
    1.9236   -1.2524    0.0915 H   0  0  0  0  0  0  0  0  0  0  0  0
    1.6857   -1.8596   -1.5401 H   0  0  0  0  0  0  0  0  0  0  0  0
    3.1006    0.1185   -1.5245 S   0  0  0  0  0  0  0  0  0  0  0  0
    2.8058    0.1913   -3.3366 C   0  0  0  0  0  0  0  0  0  0  0  0
    1.8390    0.6561   -3.5500 H   0  0  0  0  0  0  0  0  0  0  0  0
    3.5903    0.7813   -3.8197 H   0  0  0  0  0  0  0  0  0  0  0  0
    2.8140   -0.8163   -3.7622 H   0  0  0  0  0  0  0  0  0  0  0  0
   -0.5026    1.4427    0.6746 C   0  0  0  0  0  0  0  0  0  0  0  0
   -1.4272    2.0906    0.1964 O   0  0  0  0  0  0  0  0  0  0  0  0
    0.3260    2.0289    1.6131 N   0  0  0  0  0  0  0  0  0  0  0  0
    1.0919    1.4702    1.9794 H   0  0  0  0  0  0  0  0  0  0  0  0
    0.2206    3.4273    2.0106 C   0  0  0  0  0  0  0  0  0  0  0  0
   -0.7683    3.6328    2.4339 H   0  0  0  0  0  0  0  0  0  0  0  0
    0.9752    3.6633    2.7672 H   0  0  0  0  0  0  0  0  0  0  0  0
    0.3785    4.0830    1.1478 H   0  0  0  0  0  0  0  0  0  0  0  0
  1  2  1  0  0  0  0
  2  3  1  0  0  0  0
  2  4  1  0  0  0  0
  2  5  1  0  0  0  0
  5  6  2  0  0  0  0
  5  7  1  0  0  0  0
  7  8  1  0  0  0  0
  7  9  1  0  0  0  0
  9 10  1  0  0  0  0
  9 11  1  0  0  0  0
  9 22  1  0  0  0  0
 11 12  1  0  0  0  0
 11 13  1  0  0  0  0
 11 14  1  0  0  0  0
 14 15  1  0  0  0  0
 14 16  1  0  0  0  0
 14 17  1  0  0  0  0
 17 18  1  0  0  0  0
 18 19  1  0  0  0  0
 18 20  1  0  0  0  0
 18 21  1  0  0  0  0
 22 23  2  0  0  0  0
 22 24  1  0  0  0  0
 24 25  1  0  0  0  0
 24 26  1  0  0  0  0
 26 27  1  0  0  0  0
 26 28  1  0  0  0  0
 26 29  1  0  0  0  0
M  END
$$$$

  -OEChem-02102214153D

 29 28  0     1  0  0  0  0  0999 V2000
   -3.3727   -3.4437    1.3739 H   0  0  0  0  0  0  0  0  0  0  0  0
   -3.3457   -2.4819    0.8537 C   0  0  0  0  0  0  0  0  0  0  0  0
   -3.9867   -1.7757    1.3870 H   0  0  0  0  0  0  0  0  0  0  0  0
   -3.7295   -2.6182   -0.1601 H   0  0  0  0  0  0  0  0  0  0  0  0
   -1.9239   -1.9554    0.8015 C   0  0  0  0  0  0  0  0  0  0  0  0
   -1.0052   -2.6322    1.2356 O   0  0  0  0  0  0  0  0  0  0  0  0
   -1.6704   -0.7158    0.2534 N   0  0  0  0  0  0  0  0  0  0  0  0
   -2.4742   -0.1434   -0.0013 H   0  0  0  0  0  0  0  0  0  0  0  0
   -0.3645   -0.0410    0.2949 C   0  0  1  0  0  0  0  0  0  0  0  0
    0.2444   -0.4920    1.0844 H   0  0  0  0  0  0  0  0  0  0  0  0
    0.3449   -0.1797   -1.0703 C   0  0  0  0  0  0  0  0  0  0  0  0
   -0.2929   -0.7562   -1.7486 H   0  0  0  0  0  0  0  0  0  0  0  0
    0.4804    0.8034   -1.5325 H   0  0  0  0  0  0  0  0  0  0  0  0
    1.6944   -0.9079   -0.9547 C   0  0  0  0  0  0  0  0  0  0  0  0
    1.7694   -1.4717   -0.0194 H   0  0  0  0  0  0  0  0  0  0  0  0
    1.7805   -1.6353   -1.7683 H   0  0  0  0  0  0  0  0  0  0  0  0
    3.0872    0.2852   -1.0903 S   0  0  0  0  0  0  0  0  0  0  0  0
    3.0893    0.7025   -2.8802 C   0  0  0  0  0  0  0  0  0  0  0  0
    2.1523    1.1899   -3.1643 H   0  0  0  0  0  0  0  0  0  0  0  0
    3.9163    1.3829   -3.1043 H   0  0  0  0  0  0  0  0  0  0  0  0
    3.2104   -0.2043   -3.4802 H   0  0  0  0  0  0  0  0  0  0  0  0
   -0.5202    1.4437    0.6803 C   0  0  0  0  0  0  0  0  0  0  0  0
   -1.4552    2.0932    0.2248 O   0  0  0  0  0  0  0  0  0  0  0  0
    0.3223    2.0219    1.6114 N   0  0  0  0  0  0  0  0  0  0  0  0
    1.1118    1.4692    1.9349 H   0  0  0  0  0  0  0  0  0  0  0  0
    0.2312    3.4208    2.0111 C   0  0  0  0  0  0  0  0  0  0  0  0
   -0.7543    3.6347    2.4381 H   0  0  0  0  0  0  0  0  0  0  0  0
    0.9901    3.6487    2.7659 H   0  0  0  0  0  0  0  0  0  0  0  0
    0.3922    4.0767    1.1491 H   0  0  0  0  0  0  0  0  0  0  0  0
  1  2  1  0  0  0  0
  2  3  1  0  0  0  0
  2  4  1  0  0  0  0
  2  5  1  0  0  0  0
  5  6  2  0  0  0  0
  5  7  1  0  0  0  0
  7  8  1  0  0  0  0
  7  9  1  0  0  0  0
  9 10  1  0  0  0  0
  9 11  1  0  0  0  0
  9 22  1  0  0  0  0
 11 12  1  0  0  0  0
 11 13  1  0  0  0  0
 11 14  1  0  0  0  0
 14 15  1  0  0  0  0
 14 16  1  0  0  0  0
 14 17  1  0  0  0  0
 17 18  1  0  0  0  0
 18 19  1  0  0  0  0
 18 20  1  0  0  0  0
 18 21  1  0  0  0  0
 22 23  2  0  0  0  0
 22 24  1  0  0  0  0
 24 25  1  0  0  0  0
 24 26  1  0  0  0  0
 26 27  1  0  0  0  0
 26 28  1  0  0  0  0
 26 29  1  0  0  0  0
M  END
$$$$

  -OEChem-02102214153D

 29 28  0     1  0  0  0  0  0999 V2000
   -3.3559   -3.4585    1.3726 H   0  0  0  0  0  0  0  0  0  0  0  0
   -3.3383   -2.4921    0.8606 C   0  0  0  0  0  0  0  0  0  0  0  0
   -3.9696   -1.7908    1.4118 H   0  0  0  0  0  0  0  0  0  0  0  0
   -3.7405   -2.6196   -0.1474 H   0  0  0  0  0  0  0  0  0  0  0  0
   -1.9177   -1.9647    0.7881 C   0  0  0  0  0  0  0  0  0  0  0  0
   -0.9915   -2.6441    1.2016 O   0  0  0  0  0  0  0  0  0  0  0  0
   -1.6751   -0.7212    0.2438 N   0  0  0  0  0  0  0  0  0  0  0  0
   -2.4845   -0.1497    0.0058 H   0  0  0  0  0  0  0  0  0  0  0  0
   -0.3727   -0.0396    0.2764 C   0  0  1  0  0  0  0  0  0  0  0  0
    0.2467   -0.4925    1.0574 H   0  0  0  0  0  0  0  0  0  0  0  0
    0.3315   -0.1707   -1.0898 C   0  0  0  0  0  0  0  0  0  0  0  0
   -0.3009   -0.7585   -1.7633 H   0  0  0  0  0  0  0  0  0  0  0  0
    0.4627    0.8093   -1.5585 H   0  0  0  0  0  0  0  0  0  0  0  0
    1.6794   -0.8907   -0.9546 C   0  0  0  0  0  0  0  0  0  0  0  0
    1.6429   -1.6460   -0.1618 H   0  0  0  0  0  0  0  0  0  0  0  0
    1.9026   -1.4169   -1.8881 H   0  0  0  0  0  0  0  0  0  0  0  0
    3.0238    0.3231   -0.6329 S   0  0  0  0  0  0  0  0  0  0  0  0
    3.2678    1.1171   -2.2723 C   0  0  0  0  0  0  0  0  0  0  0  0
    2.3645    1.6503   -2.5812 H   0  0  0  0  0  0  0  0  0  0  0  0
    4.0929    1.8336   -2.2209 H   0  0  0  0  0  0  0  0  0  0  0  0
    3.5074    0.3624   -3.0272 H   0  0  0  0  0  0  0  0  0  0  0  0
   -0.5268    1.4426    0.6696 C   0  0  0  0  0  0  0  0  0  0  0  0
   -1.4684    2.0923    0.2280 O   0  0  0  0  0  0  0  0  0  0  0  0
    0.3250    2.0165    1.5944 N   0  0  0  0  0  0  0  0  0  0  0  0
    1.1317    1.4699    1.8858 H   0  0  0  0  0  0  0  0  0  0  0  0
    0.2383    3.4137    2.0002 C   0  0  0  0  0  0  0  0  0  0  0  0
   -0.7448    3.6273    2.4330 H   0  0  0  0  0  0  0  0  0  0  0  0
    1.0011    3.6367    2.7524 H   0  0  0  0  0  0  0  0  0  0  0  0
    0.3959    4.0729    1.1401 H   0  0  0  0  0  0  0  0  0  0  0  0
  1  2  1  0  0  0  0
  2  3  1  0  0  0  0
  2  4  1  0  0  0  0
  2  5  1  0  0  0  0
  5  6  2  0  0  0  0
  5  7  1  0  0  0  0
  7  8  1  0  0  0  0
  7  9  1  0  0  0  0
  9 10  1  0  0  0  0
  9 11  1  0  0  0  0
  9 22  1  0  0  0  0
 11 12  1  0  0  0  0
 11 13  1  0  0  0  0
 11 14  1  0  0  0  0
 14 15  1  0  0  0  0
 14 16  1  0  0  0  0
 14 17  1  0  0  0  0
 17 18  1  0  0  0  0
 18 19  1  0  0  0  0
 18 20  1  0  0  0  0
 18 21  1  0  0  0  0
 22 23  2  0  0  0  0
 22 24  1  0  0  0  0
 24 25  1  0  0  0  0
 24 26  1  0  0  0  0
 26 27  1  0  0  0  0
 26 28  1  0  0  0  0
 26 29  1  0  0  0  0
M  END
$$$$

  -OEChem-02102214153D

 29 28  0     1  0  0  0  0  0999 V2000
   -3.3497   -3.4583    1.3642 H   0  0  0  0  0  0  0  0  0  0  0  0
   -3.3318   -2.4944    0.8480 C   0  0  0  0  0  0  0  0  0  0  0  0
   -3.9653   -1.7915    1.3944 H   0  0  0  0  0  0  0  0  0  0  0  0
   -3.7309   -2.6267   -0.1604 H   0  0  0  0  0  0  0  0  0  0  0  0
   -1.9116   -1.9659    0.7764 C   0  0  0  0  0  0  0  0  0  0  0  0
   -0.9854   -2.6463    1.1880 O   0  0  0  0  0  0  0  0  0  0  0  0
   -1.6697   -0.7231    0.2301 N   0  0  0  0  0  0  0  0  0  0  0  0
   -2.4798   -0.1534   -0.0095 H   0  0  0  0  0  0  0  0  0  0  0  0
   -0.3681   -0.0396    0.2598 C   0  0  1  0  0  0  0  0  0  0  0  0
    0.2503   -0.4936    1.0416 H   0  0  0  0  0  0  0  0  0  0  0  0
    0.3398   -0.1839   -1.1023 C   0  0  0  0  0  0  0  0  0  0  0  0
   -0.2866   -0.7756   -1.7777 H   0  0  0  0  0  0  0  0  0  0  0  0
    0.4798    0.7921   -1.5759 H   0  0  0  0  0  0  0  0  0  0  0  0
    1.6845   -0.9003   -0.9427 C   0  0  0  0  0  0  0  0  0  0  0  0
    1.5631   -1.7948   -0.3210 H   0  0  0  0  0  0  0  0  0  0  0  0
    2.0426   -1.2294   -1.9232 H   0  0  0  0  0  0  0  0  0  0  0  0
    2.9350    0.2268   -0.1959 S   0  0  0  0  0  0  0  0  0  0  0  0
    3.3047    1.4094   -1.5530 C   0  0  0  0  0  0  0  0  0  0  0  0
    2.4249    2.0148   -1.7883 H   0  0  0  0  0  0  0  0  0  0  0  0
    4.1156    2.0798   -1.2533 H   0  0  0  0  0  0  0  0  0  0  0  0
    3.6131    0.8695   -2.4532 H   0  0  0  0  0  0  0  0  0  0  0  0
   -0.5166    1.4436    0.6498 C   0  0  0  0  0  0  0  0  0  0  0  0
   -1.4552    2.0970    0.2074 O   0  0  0  0  0  0  0  0  0  0  0  0
    0.3403    2.0149    1.5713 N   0  0  0  0  0  0  0  0  0  0  0  0
    1.1489    1.4655    1.8540 H   0  0  0  0  0  0  0  0  0  0  0  0
    0.2609    3.4120    1.9780 C   0  0  0  0  0  0  0  0  0  0  0  0
   -0.7193    3.6290    2.4154 H   0  0  0  0  0  0  0  0  0  0  0  0
    1.0278    3.6314    2.7269 H   0  0  0  0  0  0  0  0  0  0  0  0
    0.4170    4.0714    1.1180 H   0  0  0  0  0  0  0  0  0  0  0  0
  1  2  1  0  0  0  0
  2  3  1  0  0  0  0
  2  4  1  0  0  0  0
  2  5  1  0  0  0  0
  5  6  2  0  0  0  0
  5  7  1  0  0  0  0
  7  8  1  0  0  0  0
  7  9  1  0  0  0  0
  9 10  1  0  0  0  0
  9 11  1  0  0  0  0
  9 22  1  0  0  0  0
 11 12  1  0  0  0  0
 11 13  1  0  0  0  0
 11 14  1  0  0  0  0
 14 15  1  0  0  0  0
 14 16  1  0  0  0  0
 14 17  1  0  0  0  0
 17 18  1  0  0  0  0
 18 19  1  0  0  0  0
 18 20  1  0  0  0  0
 18 21  1  0  0  0  0
 22 23  2  0  0  0  0
 22 24  1  0  0  0  0
 24 25  1  0  0  0  0
 24 26  1  0  0  0  0
 26 27  1  0  0  0  0
 26 28  1  0  0  0  0
 26 29  1  0  0  0  0
M  END
$$$$

  -OEChem-02102214153D

 29 28  0     1  0  0  0  0  0999 V2000
   -3.3531   -3.4532    1.3131 H   0  0  0  0  0  0  0  0  0  0  0  0
   -3.3287   -2.4727    0.8293 C   0  0  0  0  0  0  0  0  0  0  0  0
   -3.9537   -1.7826    1.4013 H   0  0  0  0  0  0  0  0  0  0  0  0
   -3.7332   -2.5683   -0.1812 H   0  0  0  0  0  0  0  0  0  0  0  0
   -1.9041   -1.9543    0.7701 C   0  0  0  0  0  0  0  0  0  0  0  0
   -0.9889   -2.6348    1.2048 O   0  0  0  0  0  0  0  0  0  0  0  0
   -1.6490   -0.7176    0.2157 N   0  0  0  0  0  0  0  0  0  0  0  0
   -2.4535   -0.1498   -0.0457 H   0  0  0  0  0  0  0  0  0  0  0  0
   -0.3449   -0.0384    0.2500 C   0  0  1  0  0  0  0  0  0  0  0  0
    0.2581   -0.4941    1.0421 H   0  0  0  0  0  0  0  0  0  0  0  0
    0.3729   -0.2145   -1.1053 C   0  0  0  0  0  0  0  0  0  0  0  0
   -0.2531   -0.8037   -1.7834 H   0  0  0  0  0  0  0  0  0  0  0  0
    0.5270    0.7571   -1.5845 H   0  0  0  0  0  0  0  0  0  0  0  0
    1.7178   -0.9330   -0.9446 C   0  0  0  0  0  0  0  0  0  0  0  0
    1.5463   -1.9297   -0.5224 H   0  0  0  0  0  0  0  0  0  0  0  0
    2.1845   -1.0643   -1.9259 H   0  0  0  0  0  0  0  0  0  0  0  0
    2.8624    0.0022    0.1587 S   0  0  0  0  0  0  0  0  0  0  0  0
    3.1970    1.5400   -0.7900 C   0  0  0  0  0  0  0  0  0  0  0  0
    2.2867    2.1379   -0.8894 H   0  0  0  0  0  0  0  0  0  0  0  0
    3.9511    2.1410   -0.2735 H   0  0  0  0  0  0  0  0  0  0  0  0
    3.5698    1.2955   -1.7891 H   0  0  0  0  0  0  0  0  0  0  0  0
   -0.4836    1.4493    0.6247 C   0  0  0  0  0  0  0  0  0  0  0  0
   -1.4051    2.1114    0.1606 O   0  0  0  0  0  0  0  0  0  0  0  0
    0.3723    2.0198    1.5474 N   0  0  0  0  0  0  0  0  0  0  0  0
    1.1513    1.4503    1.8719 H   0  0  0  0  0  0  0  0  0  0  0  0
    0.2896    3.4128    1.9662 C   0  0  0  0  0  0  0  0  0  0  0  0
   -0.6893    3.6218    2.4107 H   0  0  0  0  0  0  0  0  0  0  0  0
    1.0598    3.6295    2.7126 H   0  0  0  0  0  0  0  0  0  0  0  0
    0.4383    4.0797    1.1105 H   0  0  0  0  0  0  0  0  0  0  0  0
  1  2  1  0  0  0  0
  2  3  1  0  0  0  0
  2  4  1  0  0  0  0
  2  5  1  0  0  0  0
  5  6  2  0  0  0  0
  5  7  1  0  0  0  0
  7  8  1  0  0  0  0
  7  9  1  0  0  0  0
  9 10  1  0  0  0  0
  9 11  1  0  0  0  0
  9 22  1  0  0  0  0
 11 12  1  0  0  0  0
 11 13  1  0  0  0  0
 11 14  1  0  0  0  0
 14 15  1  0  0  0  0
 14 16  1  0  0  0  0
 14 17  1  0  0  0  0
 17 18  1  0  0  0  0
 18 19  1  0  0  0  0
 18 20  1  0  0  0  0
 18 21  1  0  0  0  0
 22 23  2  0  0  0  0
 22 24  1  0  0  0  0
 24 25  1  0  0  0  0
 24 26  1  0  0  0  0
 26 27  1  0  0  0  0
 26 28  1  0  0  0  0
 26 29  1  0  0  0  0
M  END
$$$$

  -OEChem-02102214153D

 29 28  0     1  0  0  0  0  0999 V2000
   -3.3529   -3.4681    1.3024 H   0  0  0  0  0  0  0  0  0  0  0  0
   -3.3280   -2.4964    0.8010 C   0  0  0  0  0  0  0  0  0  0  0  0
   -3.9835   -1.8066    1.3380 H   0  0  0  0  0  0  0  0  0  0  0  0
   -3.6957   -2.6178   -0.2207 H   0  0  0  0  0  0  0  0  0  0  0  0
   -1.9109   -1.9553    0.7798 C   0  0  0  0  0  0  0  0  0  0  0  0
   -0.9961   -2.6267    1.2287 O   0  0  0  0  0  0  0  0  0  0  0  0
   -1.6635   -0.7118    0.2368 N   0  0  0  0  0  0  0  0  0  0  0  0
   -2.4712   -0.1580   -0.0433 H   0  0  0  0  0  0  0  0  0  0  0  0
   -0.3704   -0.0123    0.2915 C   0  0  1  0  0  0  0  0  0  0  0  0
    0.2169   -0.4691    1.0929 H   0  0  0  0  0  0  0  0  0  0  0  0
    0.3600   -0.1862   -1.0612 C   0  0  0  0  0  0  0  0  0  0  0  0
   -0.2639   -0.7600   -1.7544 H   0  0  0  0  0  0  0  0  0  0  0  0
    0.5109    0.7977   -1.5171 H   0  0  0  0  0  0  0  0  0  0  0  0
    1.7251   -0.8840   -0.9484 C   0  0  0  0  0  0  0  0  0  0  0  0
    1.5513   -1.9508   -0.7697 H   0  0  0  0  0  0  0  0  0  0  0  0
    2.2682   -0.7918   -1.8941 H   0  0  0  0  0  0  0  0  0  0  0  0
    2.7603   -0.2378    0.4352 S   0  0  0  0  0  0  0  0  0  0  0  0
    3.2701    1.4048   -0.2111 C   0  0  0  0  0  0  0  0  0  0  0  0
    2.3942    2.0276   -0.4147 H   0  0  0  0  0  0  0  0  0  0  0  0
    3.9001    1.9168    0.5223 H   0  0  0  0  0  0  0  0  0  0  0  0
    3.8392    1.2862   -1.1380 H   0  0  0  0  0  0  0  0  0  0  0  0
   -0.5305    1.4713    0.6717 C   0  0  0  0  0  0  0  0  0  0  0  0
   -1.4415    2.1317    0.1855 O   0  0  0  0  0  0  0  0  0  0  0  0
    0.3084    2.0452    1.6079 N   0  0  0  0  0  0  0  0  0  0  0  0
    1.0607    1.4656    1.9749 H   0  0  0  0  0  0  0  0  0  0  0  0
    0.2090    3.4353    2.0334 C   0  0  0  0  0  0  0  0  0  0  0  0
   -0.7772    3.6340    2.4661 H   0  0  0  0  0  0  0  0  0  0  0  0
    0.9681    3.6538    2.7906 H   0  0  0  0  0  0  0  0  0  0  0  0
    0.3636    4.1081    1.1833 H   0  0  0  0  0  0  0  0  0  0  0  0
  1  2  1  0  0  0  0
  2  3  1  0  0  0  0
  2  4  1  0  0  0  0
  2  5  1  0  0  0  0
  5  6  2  0  0  0  0
  5  7  1  0  0  0  0
  7  8  1  0  0  0  0
  7  9  1  0  0  0  0
  9 10  1  0  0  0  0
  9 11  1  0  0  0  0
  9 22  1  0  0  0  0
 11 12  1  0  0  0  0
 11 13  1  0  0  0  0
 11 14  1  0  0  0  0
 14 15  1  0  0  0  0
 14 16  1  0  0  0  0
 14 17  1  0  0  0  0
 17 18  1  0  0  0  0
 18 19  1  0  0  0  0
 18 20  1  0  0  0  0
 18 21  1  0  0  0  0
 22 23  2  0  0  0  0
 22 24  1  0  0  0  0
 24 25  1  0  0  0  0
 24 26  1  0  0  0  0
 26 27  1  0  0  0  0
 26 28  1  0  0  0  0
 26 29  1  0  0  0  0
M  END
$$$$

  -OEChem-02102214153D

 29 28  0     1  0  0  0  0  0999 V2000
   -3.3721   -3.4876    1.2628 H   0  0  0  0  0  0  0  0  0  0  0  0
   -3.3467   -2.5100    0.7732 C   0  0  0  0  0  0  0  0  0  0  0  0
   -4.0267   -1.8354    1.2988 H   0  0  0  0  0  0  0  0  0  0  0  0
   -3.6834   -2.6244   -0.2599 H   0  0  0  0  0  0  0  0  0  0  0  0
   -1.9374   -1.9493    0.7993 C   0  0  0  0  0  0  0  0  0  0  0  0
   -1.0336   -2.6003    1.2970 O   0  0  0  0  0  0  0  0  0  0  0  0
   -1.6874   -0.7079    0.2524 N   0  0  0  0  0  0  0  0  0  0  0  0
   -2.4916   -0.1715   -0.0685 H   0  0  0  0  0  0  0  0  0  0  0  0
   -0.4052    0.0096    0.3336 C   0  0  1  0  0  0  0  0  0  0  0  0
    0.1586   -0.4318    1.1573 H   0  0  0  0  0  0  0  0  0  0  0  0
    0.3513   -0.1701   -1.0075 C   0  0  0  0  0  0  0  0  0  0  0  0
   -0.2662   -0.7379   -1.7115 H   0  0  0  0  0  0  0  0  0  0  0  0
    0.4952    0.8195   -1.4538 H   0  0  0  0  0  0  0  0  0  0  0  0
    1.7346   -0.8478   -0.9302 C   0  0  0  0  0  0  0  0  0  0  0  0
    1.5753   -1.9280   -1.0146 H   0  0  0  0  0  0  0  0  0  0  0  0
    2.3449   -0.5418   -1.7857 H   0  0  0  0  0  0  0  0  0  0  0  0
    2.6650   -0.5678    0.6374 S   0  0  0  0  0  0  0  0  0  0  0  0
    3.3781    1.0976    0.3342 C   0  0  0  0  0  0  0  0  0  0  0  0
    2.5869    1.8232    0.1247 H   0  0  0  0  0  0  0  0  0  0  0  0
    3.9382    1.4321    1.2125 H   0  0  0  0  0  0  0  0  0  0  0  0
    4.0586    1.0658   -0.5219 H   0  0  0  0  0  0  0  0  0  0  0  0
   -0.5949    1.4937    0.6948 C   0  0  0  0  0  0  0  0  0  0  0  0
   -1.4967    2.1400    0.1742 O   0  0  0  0  0  0  0  0  0  0  0  0
    0.2127    2.0854    1.6472 N   0  0  0  0  0  0  0  0  0  0  0  0
    0.9237    1.5016    2.0825 H   0  0  0  0  0  0  0  0  0  0  0  0
    0.0645    3.4689    2.0798 C   0  0  0  0  0  0  0  0  0  0  0  0
   -0.9342    3.6352    2.4971 H   0  0  0  0  0  0  0  0  0  0  0  0
    0.8047    3.7051    2.8503 H   0  0  0  0  0  0  0  0  0  0  0  0
    0.2129    4.1516    1.2366 H   0  0  0  0  0  0  0  0  0  0  0  0
  1  2  1  0  0  0  0
  2  3  1  0  0  0  0
  2  4  1  0  0  0  0
  2  5  1  0  0  0  0
  5  6  2  0  0  0  0
  5  7  1  0  0  0  0
  7  8  1  0  0  0  0
  7  9  1  0  0  0  0
  9 10  1  0  0  0  0
  9 11  1  0  0  0  0
  9 22  1  0  0  0  0
 11 12  1  0  0  0  0
 11 13  1  0  0  0  0
 11 14  1  0  0  0  0
 14 15  1  0  0  0  0
 14 16  1  0  0  0  0
 14 17  1  0  0  0  0
 17 18  1  0  0  0  0
 18 19  1  0  0  0  0
 18 20  1  0  0  0  0
 18 21  1  0  0  0  0
 22 23  2  0  0  0  0
 22 24  1  0  0  0  0
 24 25  1  0  0  0  0
 24 26  1  0  0  0  0
 26 27  1  0  0  0  0
 26 28  1  0  0  0  0
 26 29  1  0  0  0  0
M  END
$$$$

  -OEChem-02102214153D

 29 28  0     1  0  0  0  0  0999 V2000
   -3.4293   -3.4762    1.2247 H   0  0  0  0  0  0  0  0  0  0  0  0
   -3.3865   -2.4997    0.7344 C   0  0  0  0  0  0  0  0  0  0  0  0
   -4.0963   -1.8282    1.2235 H   0  0  0  0  0  0  0  0  0  0  0  0
   -3.6710   -2.6196   -0.3138 H   0  0  0  0  0  0  0  0  0  0  0  0
   -1.9840   -1.9291    0.8285 C   0  0  0  0  0  0  0  0  0  0  0  0
   -1.1101   -2.5564    1.4032 O   0  0  0  0  0  0  0  0  0  0  0  0
   -1.7114   -0.7001    0.2653 N   0  0  0  0  0  0  0  0  0  0  0  0
   -2.4990   -0.1797   -0.1169 H   0  0  0  0  0  0  0  0  0  0  0  0
   -0.4321    0.0194    0.3726 C   0  0  1  0  0  0  0  0  0  0  0  0
    0.1123   -0.3976    1.2198 H   0  0  0  0  0  0  0  0  0  0  0  0
    0.3522   -0.1693   -0.9550 C   0  0  0  0  0  0  0  0  0  0  0  0
   -0.2616   -0.7346   -1.6642 H   0  0  0  0  0  0  0  0  0  0  0  0
    0.4975    0.8191   -1.4039 H   0  0  0  0  0  0  0  0  0  0  0  0
    1.7422   -0.8450   -0.8953 C   0  0  0  0  0  0  0  0  0  0  0  0
    1.6176   -1.8703   -1.2593 H   0  0  0  0  0  0  0  0  0  0  0  0
    2.4222   -0.3402   -1.5890 H   0  0  0  0  0  0  0  0  0  0  0  0
    2.5414   -0.9765    0.7601 S   0  0  0  0  0  0  0  0  0  0  0  0
    3.4198    0.6331    0.8618 C   0  0  0  0  0  0  0  0  0  0  0  0
    2.7188    1.4616    0.7291 H   0  0  0  0  0  0  0  0  0  0  0  0
    3.9056    0.7349    1.8369 H   0  0  0  0  0  0  0  0  0  0  0  0
    4.1854    0.6945    0.0826 H   0  0  0  0  0  0  0  0  0  0  0  0
   -0.6479    1.5092    0.6962 C   0  0  0  0  0  0  0  0  0  0  0  0
   -1.5288    2.1394    0.1223 O   0  0  0  0  0  0  0  0  0  0  0  0
    0.1198    2.1297    1.6634 N   0  0  0  0  0  0  0  0  0  0  0  0
    0.7801    1.5498    2.1754 H   0  0  0  0  0  0  0  0  0  0  0  0
   -0.0734    3.5151    2.0723 C   0  0  0  0  0  0  0  0  0  0  0  0
   -1.0835    3.6600    2.4700 H   0  0  0  0  0  0  0  0  0  0  0  0
    0.6471    3.7840    2.8508 H   0  0  0  0  0  0  0  0  0  0  0  0
    0.0702    4.1891    1.2212 H   0  0  0  0  0  0  0  0  0  0  0  0
  1  2  1  0  0  0  0
  2  3  1  0  0  0  0
  2  4  1  0  0  0  0
  2  5  1  0  0  0  0
  5  6  2  0  0  0  0
  5  7  1  0  0  0  0
  7  8  1  0  0  0  0
  7  9  1  0  0  0  0
  9 10  1  0  0  0  0
  9 11  1  0  0  0  0
  9 22  1  0  0  0  0
 11 12  1  0  0  0  0
 11 13  1  0  0  0  0
 11 14  1  0  0  0  0
 14 15  1  0  0  0  0
 14 16  1  0  0  0  0
 14 17  1  0  0  0  0
 17 18  1  0  0  0  0
 18 19  1  0  0  0  0
 18 20  1  0  0  0  0
 18 21  1  0  0  0  0
 22 23  2  0  0  0  0
 22 24  1  0  0  0  0
 24 25  1  0  0  0  0
 24 26  1  0  0  0  0
 26 27  1  0  0  0  0
 26 28  1  0  0  0  0
 26 29  1  0  0  0  0
M  END
$$$$

  -OEChem-02102214153D

 29 28  0     1  0  0  0  0  0999 V2000
   -3.5080   -3.4270    1.2105 H   0  0  0  0  0  0  0  0  0  0  0  0
   -3.4377   -2.4615    0.7015 C   0  0  0  0  0  0  0  0  0  0  0  0
   -4.1672   -1.7770    1.1411 H   0  0  0  0  0  0  0  0  0  0  0  0
   -3.6720   -2.6038   -0.3562 H   0  0  0  0  0  0  0  0  0  0  0  0
   -2.0393   -1.8928    0.8509 C   0  0  0  0  0  0  0  0  0  0  0  0
   -1.2048   -2.4987    1.5013 O   0  0  0  0  0  0  0  0  0  0  0  0
   -1.7313   -0.6828    0.2652 N   0  0  0  0  0  0  0  0  0  0  0  0
   -2.4931   -0.1719   -0.1771 H   0  0  0  0  0  0  0  0  0  0  0  0
   -0.4442    0.0200    0.3917 C   0  0  1  0  0  0  0  0  0  0  0  0
    0.0841   -0.3759    1.2585 H   0  0  0  0  0  0  0  0  0  0  0  0
    0.3632   -0.1810   -0.9222 C   0  0  0  0  0  0  0  0  0  0  0  0
   -0.2506   -0.7540   -1.6253 H   0  0  0  0  0  0  0  0  0  0  0  0
    0.5152    0.7977   -1.3901 H   0  0  0  0  0  0  0  0  0  0  0  0
    1.7460   -0.8744   -0.8555 C   0  0  0  0  0  0  0  0  0  0  0  0
    1.6959   -1.7676   -1.4868 H   0  0  0  0  0  0  0  0  0  0  0  0
    2.4955   -0.2134   -1.3020 H   0  0  0  0  0  0  0  0  0  0  0  0
    2.3539   -1.4193    0.7954 S   0  0  0  0  0  0  0  0  0  0  0  0
    3.3147    0.0457    1.3433 C   0  0  0  0  0  0  0  0  0  0  0  0
    2.6858    0.9398    1.3390 H   0  0  0  0  0  0  0  0  0  0  0  0
    3.6940   -0.1139    2.3571 H   0  0  0  0  0  0  0  0  0  0  0  0
    4.1648    0.2107    0.6747 H   0  0  0  0  0  0  0  0  0  0  0  0
   -0.6665    1.5190    0.6718 C   0  0  0  0  0  0  0  0  0  0  0  0
   -1.5207    2.1375    0.0465 O   0  0  0  0  0  0  0  0  0  0  0  0
    0.0690    2.1675    1.6462 N   0  0  0  0  0  0  0  0  0  0  0  0
    0.6882    1.5978    2.2163 H   0  0  0  0  0  0  0  0  0  0  0  0
   -0.1531    3.5595    2.0182 C   0  0  0  0  0  0  0  0  0  0  0  0
   -1.1673    3.6943    2.4088 H   0  0  0  0  0  0  0  0  0  0  0  0
    0.5594    3.8633    2.7910 H   0  0  0  0  0  0  0  0  0  0  0  0
   -0.0201    4.2144    1.1505 H   0  0  0  0  0  0  0  0  0  0  0  0
  1  2  1  0  0  0  0
  2  3  1  0  0  0  0
  2  4  1  0  0  0  0
  2  5  1  0  0  0  0
  5  6  2  0  0  0  0
  5  7  1  0  0  0  0
  7  8  1  0  0  0  0
  7  9  1  0  0  0  0
  9 10  1  0  0  0  0
  9 11  1  0  0  0  0
  9 22  1  0  0  0  0
 11 12  1  0  0  0  0
 11 13  1  0  0  0  0
 11 14  1  0  0  0  0
 14 15  1  0  0  0  0
 14 16  1  0  0  0  0
 14 17  1  0  0  0  0
 17 18  1  0  0  0  0
 18 19  1  0  0  0  0
 18 20  1  0  0  0  0
 18 21  1  0  0  0  0
 22 23  2  0  0  0  0
 22 24  1  0  0  0  0
 24 25  1  0  0  0  0
 24 26  1  0  0  0  0
 26 27  1  0  0  0  0
 26 28  1  0  0  0  0
 26 29  1  0  0  0  0
M  END
$$$$

  -OEChem-02102214153D

 29 28  0     1  0  0  0  0  0999 V2000
   -3.5849   -3.3868    1.1444 H   0  0  0  0  0  0  0  0  0  0  0  0
   -3.4899   -2.4229    0.6366 C   0  0  0  0  0  0  0  0  0  0  0  0
   -4.2386   -1.7365    1.0391 H   0  0  0  0  0  0  0  0  0  0  0  0
   -3.6740   -2.5682   -0.4306 H   0  0  0  0  0  0  0  0  0  0  0  0
   -2.0992   -1.8556    0.8497 C   0  0  0  0  0  0  0  0  0  0  0  0
   -1.3099   -2.4421    1.5702 O   0  0  0  0  0  0  0  0  0  0  0  0
   -1.7546   -0.6598    0.2552 N   0  0  0  0  0  0  0  0  0  0  0  0
   -2.4875   -0.1577   -0.2423 H   0  0  0  0  0  0  0  0  0  0  0  0
   -0.4567    0.0203    0.3942 C   0  0  1  0  0  0  0  0  0  0  0  0
    0.0621   -0.3723    1.2693 H   0  0  0  0  0  0  0  0  0  0  0  0
    0.3687   -0.1881   -0.9074 C   0  0  0  0  0  0  0  0  0  0  0  0
   -0.2422   -0.7756   -1.6008 H   0  0  0  0  0  0  0  0  0  0  0  0
    0.5289    0.7784   -1.3971 H   0  0  0  0  0  0  0  0  0  0  0  0
    1.7379   -0.9020   -0.8156 C   0  0  0  0  0  0  0  0  0  0  0  0
    1.8101   -1.6042   -1.6524 H   0  0  0  0  0  0  0  0  0  0  0  0
    2.5267   -0.1567   -0.9579 H   0  0  0  0  0  0  0  0  0  0  0  0
    2.1094   -1.8275    0.7318 S   0  0  0  0  0  0  0  0  0  0  0  0
    3.0637   -0.5980    1.7058 C   0  0  0  0  0  0  0  0  0  0  0  0
    2.4797    0.3151    1.8467 H   0  0  0  0  0  0  0  0  0  0  0  0
    3.3111   -1.0115    2.6882 H   0  0  0  0  0  0  0  0  0  0  0  0
    3.9942   -0.3454    1.1886 H   0  0  0  0  0  0  0  0  0  0  0  0
   -0.6640    1.5256    0.6514 C   0  0  0  0  0  0  0  0  0  0  0  0
   -1.4925    2.1504   -0.0016 O   0  0  0  0  0  0  0  0  0  0  0  0
    0.0638    2.1757    1.6308 N   0  0  0  0  0  0  0  0  0  0  0  0
    0.6608    1.6049    2.2224 H   0  0  0  0  0  0  0  0  0  0  0  0
   -0.1369    3.5777    1.9756 C   0  0  0  0  0  0  0  0  0  0  0  0
   -1.1567    3.7406    2.3399 H   0  0  0  0  0  0  0  0  0  0  0  0
    0.5638    3.8784    2.7606 H   0  0  0  0  0  0  0  0  0  0  0  0
    0.0314    4.2151    1.1010 H   0  0  0  0  0  0  0  0  0  0  0  0
  1  2  1  0  0  0  0
  2  3  1  0  0  0  0
  2  4  1  0  0  0  0
  2  5  1  0  0  0  0
  5  6  2  0  0  0  0
  5  7  1  0  0  0  0
  7  8  1  0  0  0  0
  7  9  1  0  0  0  0
  9 10  1  0  0  0  0
  9 11  1  0  0  0  0
  9 22  1  0  0  0  0
 11 12  1  0  0  0  0
 11 13  1  0  0  0  0
 11 14  1  0  0  0  0
 14 15  1  0  0  0  0
 14 16  1  0  0  0  0
 14 17  1  0  0  0  0
 17 18  1  0  0  0  0
 18 19  1  0  0  0  0
 18 20  1  0  0  0  0
 18 21  1  0  0  0  0
 22 23  2  0  0  0  0
 22 24  1  0  0  0  0
 24 25  1  0  0  0  0
 24 26  1  0  0  0  0
 26 27  1  0  0  0  0
 26 28  1  0  0  0  0
 26 29  1  0  0  0  0
M  END
$$$$

  -OEChem-02102214153D

 29 28  0     1  0  0  0  0  0999 V2000
   -3.5520   -3.7089    0.7018 H   0  0  0  0  0  0  0  0  0  0  0  0
   -3.6153   -2.6384    0.4875 C   0  0  0  0  0  0  0  0  0  0  0  0
   -4.0983   -2.1391    1.3310 H   0  0  0  0  0  0  0  0  0  0  0  0
   -4.2228   -2.4950   -0.4092 H   0  0  0  0  0  0  0  0  0  0  0  0
   -2.2276   -2.0637    0.2710 C   0  0  0  0  0  0  0  0  0  0  0  0
   -1.2641   -2.7964    0.4136 O   0  0  0  0  0  0  0  0  0  0  0  0
   -2.1173   -0.7167   -0.0229 N   0  0  0  0  0  0  0  0  0  0  0  0
   -2.9919   -0.1970    0.0238 H   0  0  0  0  0  0  0  0  0  0  0  0
   -0.9202    0.1140   -0.2787 C   0  0  1  0  0  0  0  0  0  0  0  0
   -1.2371    0.5129   -1.2483 H   0  0  0  0  0  0  0  0  0  0  0  0
    0.3880   -0.5734   -0.8026 C   0  0  0  0  0  0  0  0  0  0  0  0
    0.1799   -1.6163   -1.0406 H   0  0  0  0  0  0  0  0  0  0  0  0
    0.6233   -0.1131   -1.7685 H   0  0  0  0  0  0  0  0  0  0  0  0
    1.7118   -0.5344   -0.0100 C   0  0  0  0  0  0  0  0  0  0  0  0
    2.3038   -1.4147   -0.2813 H   0  0  0  0  0  0  0  0  0  0  0  0
    2.2764    0.3483   -0.3268 H   0  0  0  0  0  0  0  0  0  0  0  0
    1.5527   -0.4656    1.8227 S   0  0  0  0  0  0  0  0  0  0  0  0
    3.3099   -0.5635    2.3438 C   0  0  0  0  0  0  0  0  0  0  0  0
    3.7530   -1.5050    2.0054 H   0  0  0  0  0  0  0  0  0  0  0  0
    3.3806   -0.5168    3.4347 H   0  0  0  0  0  0  0  0  0  0  0  0
    3.8803    0.2680    1.9196 H   0  0  0  0  0  0  0  0  0  0  0  0
   -0.9418    1.4749    0.4706 C   0  0  0  0  0  0  0  0  0  0  0  0
   -2.0059    2.0862    0.4673 O   0  0  0  0  0  0  0  0  0  0  0  0
    0.1105    2.0401    1.1626 N   0  0  0  0  0  0  0  0  0  0  0  0
    0.9120    1.4358    1.3237 H   0  0  0  0  0  0  0  0  0  0  0  0
   -0.0173    3.2454    1.9732 C   0  0  0  0  0  0  0  0  0  0  0  0
   -0.7288    3.0841    2.7898 H   0  0  0  0  0  0  0  0  0  0  0  0
    0.9516    3.5136    2.4051 H   0  0  0  0  0  0  0  0  0  0  0  0
   -0.3660    4.0844    1.3619 H   0  0  0  0  0  0  0  0  0  0  0  0
  1  2  1  0  0  0  0
  2  3  1  0  0  0  0
  2  4  1  0  0  0  0
  2  5  1  0  0  0  0
  5  6  2  0  0  0  0
  5  7  1  0  0  0  0
  7  8  1  0  0  0  0
  7  9  1  0  0  0  0
  9 10  1  0  0  0  0
  9 11  1  0  0  0  0
  9 22  1  0  0  0  0
 11 12  1  0  0  0  0
 11 13  1  0  0  0  0
 11 14  1  0  0  0  0
 14 15  1  0  0  0  0
 14 16  1  0  0  0  0
 14 17  1  0  0  0  0
 17 18  1  0  0  0  0
 18 19  1  0  0  0  0
 18 20  1  0  0  0  0
 18 21  1  0  0  0  0
 22 23  2  0  0  0  0
 22 24  1  0  0  0  0
 24 25  1  0  0  0  0
 24 26  1  0  0  0  0
 26 27  1  0  0  0  0
 26 28  1  0  0  0  0
 26 29  1  0  0  0  0
M  END
$$$$

  -OEChem-02102214153D

 29 28  0     1  0  0  0  0  0999 V2000
   -3.5833   -3.1897    1.0592 H   0  0  0  0  0  0  0  0  0  0  0  0
   -3.5026   -2.1100    0.9041 C   0  0  0  0  0  0  0  0  0  0  0  0
   -3.6529   -1.6054    1.8617 H   0  0  0  0  0  0  0  0  0  0  0  0
   -4.2837   -1.7959    0.2075 H   0  0  0  0  0  0  0  0  0  0  0  0
   -2.1372   -1.7590    0.3424 C   0  0  0  0  0  0  0  0  0  0  0  0
   -1.3456   -2.6646    0.1521 O   0  0  0  0  0  0  0  0  0  0  0  0
   -1.8802   -0.4271    0.0686 N   0  0  0  0  0  0  0  0  0  0  0  0
   -2.6406    0.1939    0.3445 H   0  0  0  0  0  0  0  0  0  0  0  0
   -0.6618    0.3093   -0.3506 C   0  0  1  0  0  0  0  0  0  0  0  0
   -1.0005    0.7363   -1.3002 H   0  0  0  0  0  0  0  0  0  0  0  0
    0.5901   -0.4931   -0.8588 C   0  0  0  0  0  0  0  0  0  0  0  0
    0.3494   -1.5474   -0.9582 H   0  0  0  0  0  0  0  0  0  0  0  0
    0.7753   -0.1554   -1.8841 H   0  0  0  0  0  0  0  0  0  0  0  0
    1.9611   -0.4143   -0.1553 C   0  0  0  0  0  0  0  0  0  0  0  0
    2.5999   -1.2092   -0.5545 H   0  0  0  0  0  0  0  0  0  0  0  0
    2.4312    0.5367   -0.4257 H   0  0  0  0  0  0  0  0  0  0  0  0
    1.9577   -0.5388    1.6857 S   0  0  0  0  0  0  0  0  0  0  0  0
    1.2922   -2.2151    2.0219 C   0  0  0  0  0  0  0  0  0  0  0  0
    1.6772   -2.5872    2.9755 H   0  0  0  0  0  0  0  0  0  0  0  0
    1.5808   -2.9125    1.2298 H   0  0  0  0  0  0  0  0  0  0  0  0
    0.2028   -2.1805    2.0840 H   0  0  0  0  0  0  0  0  0  0  0  0
   -0.5109    1.6129    0.4828 C   0  0  0  0  0  0  0  0  0  0  0  0
   -1.5331    2.2698    0.6543 O   0  0  0  0  0  0  0  0  0  0  0  0
    0.6494    2.0838    1.0644 N   0  0  0  0  0  0  0  0  0  0  0  0
    1.4236    1.4257    1.1109 H   0  0  0  0  0  0  0  0  0  0  0  0
    0.6908    3.2503    1.9385 C   0  0  0  0  0  0  0  0  0  0  0  0
    0.0841    3.0802    2.8340 H   0  0  0  0  0  0  0  0  0  0  0  0
    1.7204    3.4516    2.2498 H   0  0  0  0  0  0  0  0  0  0  0  0
    0.3106    4.1352    1.4172 H   0  0  0  0  0  0  0  0  0  0  0  0
  1  2  1  0  0  0  0
  2  3  1  0  0  0  0
  2  4  1  0  0  0  0
  2  5  1  0  0  0  0
  5  6  2  0  0  0  0
  5  7  1  0  0  0  0
  7  8  1  0  0  0  0
  7  9  1  0  0  0  0
  9 10  1  0  0  0  0
  9 11  1  0  0  0  0
  9 22  1  0  0  0  0
 11 12  1  0  0  0  0
 11 13  1  0  0  0  0
 11 14  1  0  0  0  0
 14 15  1  0  0  0  0
 14 16  1  0  0  0  0
 14 17  1  0  0  0  0
 17 18  1  0  0  0  0
 18 19  1  0  0  0  0
 18 20  1  0  0  0  0
 18 21  1  0  0  0  0
 22 23  2  0  0  0  0
 22 24  1  0  0  0  0
 24 25  1  0  0  0  0
 24 26  1  0  0  0  0
 26 27  1  0  0  0  0
 26 28  1  0  0  0  0
 26 29  1  0  0  0  0
M  END
$$$$

  -OEChem-02102214153D

 29 28  0     1  0  0  0  0  0999 V2000
   -3.6878   -3.2812    1.0886 H   0  0  0  0  0  0  0  0  0  0  0  0
   -3.5543   -2.3370    0.5534 C   0  0  0  0  0  0  0  0  0  0  0  0
   -4.3373   -1.6411    0.8639 H   0  0  0  0  0  0  0  0  0  0  0  0
   -3.6459   -2.5253   -0.5190 H   0  0  0  0  0  0  0  0  0  0  0  0
   -2.1895   -1.7511    0.8610 C   0  0  0  0  0  0  0  0  0  0  0  0
   -1.4736   -2.2843    1.6936 O   0  0  0  0  0  0  0  0  0  0  0  0
   -1.8054   -0.5692    0.2621 N   0  0  0  0  0  0  0  0  0  0  0  0
   -2.4828   -0.1040   -0.3383 H   0  0  0  0  0  0  0  0  0  0  0  0
   -0.4716    0.0401    0.3742 C   0  0  1  0  0  0  0  0  0  0  0  0
    0.0763   -0.4008    1.2109 H   0  0  0  0  0  0  0  0  0  0  0  0
    0.3119   -0.1675   -0.9484 C   0  0  0  0  0  0  0  0  0  0  0  0
   -0.3202   -0.7006   -1.6662 H   0  0  0  0  0  0  0  0  0  0  0  0
    0.5504    0.8014   -1.4004 H   0  0  0  0  0  0  0  0  0  0  0  0
    1.6187   -0.9558   -0.7891 C   0  0  0  0  0  0  0  0  0  0  0  0
    2.1028   -1.0439   -1.7669 H   0  0  0  0  0  0  0  0  0  0  0  0
    2.3018   -0.4107   -0.1303 H   0  0  0  0  0  0  0  0  0  0  0  0
    1.3280   -2.6435   -0.1222 S   0  0  0  0  0  0  0  0  0  0  0  0
    2.0904   -2.5908    1.5474 C   0  0  0  0  0  0  0  0  0  0  0  0
    1.5983   -1.8390    2.1702 H   0  0  0  0  0  0  0  0  0  0  0  0
    1.9831   -3.5645    2.0346 H   0  0  0  0  0  0  0  0  0  0  0  0
    3.1549   -2.3503    1.4732 H   0  0  0  0  0  0  0  0  0  0  0  0
   -0.6022    1.5524    0.6487 C   0  0  0  0  0  0  0  0  0  0  0  0
   -1.3971    2.2277    0.0041 O   0  0  0  0  0  0  0  0  0  0  0  0
    0.1780    2.1586    1.6160 N   0  0  0  0  0  0  0  0  0  0  0  0
    0.7577    1.5565    2.1934 H   0  0  0  0  0  0  0  0  0  0  0  0
    0.0593    3.5687    1.9668 C   0  0  0  0  0  0  0  0  0  0  0  0
   -0.9422    3.7844    2.3537 H   0  0  0  0  0  0  0  0  0  0  0  0
    0.7919    3.8300    2.7365 H   0  0  0  0  0  0  0  0  0  0  0  0
    0.2412    4.1992    1.0900 H   0  0  0  0  0  0  0  0  0  0  0  0
  1  2  1  0  0  0  0
  2  3  1  0  0  0  0
  2  4  1  0  0  0  0
  2  5  1  0  0  0  0
  5  6  2  0  0  0  0
  5  7  1  0  0  0  0
  7  8  1  0  0  0  0
  7  9  1  0  0  0  0
  9 10  1  0  0  0  0
  9 11  1  0  0  0  0
  9 22  1  0  0  0  0
 11 12  1  0  0  0  0
 11 13  1  0  0  0  0
 11 14  1  0  0  0  0
 14 15  1  0  0  0  0
 14 16  1  0  0  0  0
 14 17  1  0  0  0  0
 17 18  1  0  0  0  0
 18 19  1  0  0  0  0
 18 20  1  0  0  0  0
 18 21  1  0  0  0  0
 22 23  2  0  0  0  0
 22 24  1  0  0  0  0
 24 25  1  0  0  0  0
 24 26  1  0  0  0  0
 26 27  1  0  0  0  0
 26 28  1  0  0  0  0
 26 29  1  0  0  0  0
M  END
$$$$

  -OEChem-02102214153D

 29 28  0     1  0  0  0  0  0999 V2000
   -3.5477   -3.4310    1.1188 H   0  0  0  0  0  0  0  0  0  0  0  0
   -3.4960   -2.4373    0.6653 C   0  0  0  0  0  0  0  0  0  0  0  0
   -4.2617   -1.8024    1.1175 H   0  0  0  0  0  0  0  0  0  0  0  0
   -3.6934   -2.5296   -0.4055 H   0  0  0  0  0  0  0  0  0  0  0  0
   -2.1232   -1.8320    0.8884 C   0  0  0  0  0  0  0  0  0  0  0  0
   -1.3235   -2.3931    1.6205 O   0  0  0  0  0  0  0  0  0  0  0  0
   -1.8153   -0.6129    0.3212 N   0  0  0  0  0  0  0  0  0  0  0  0
   -2.5496   -0.1358   -0.1976 H   0  0  0  0  0  0  0  0  0  0  0  0
   -0.4968    0.0353    0.3735 C   0  0  1  0  0  0  0  0  0  0  0  0
    0.1166   -0.4261    1.1533 H   0  0  0  0  0  0  0  0  0  0  0  0
    0.2008   -0.1101   -1.0024 C   0  0  0  0  0  0  0  0  0  0  0  0
   -0.4567   -0.6275   -1.7092 H   0  0  0  0  0  0  0  0  0  0  0  0
    0.3956    0.8819   -1.4242 H   0  0  0  0  0  0  0  0  0  0  0  0
    1.5318   -0.8651   -0.9229 C   0  0  0  0  0  0  0  0  0  0  0  0
    2.0820   -0.7160   -1.8575 H   0  0  0  0  0  0  0  0  0  0  0  0
    2.1498   -0.4719   -0.1099 H   0  0  0  0  0  0  0  0  0  0  0  0
    1.2414   -2.6657   -0.7042 S   0  0  0  0  0  0  0  0  0  0  0  0
    1.9437   -2.9906    0.9609 C   0  0  0  0  0  0  0  0  0  0  0  0
    3.0100   -2.7485    0.9779 H   0  0  0  0  0  0  0  0  0  0  0  0
    1.8184   -4.0464    1.2187 H   0  0  0  0  0  0  0  0  0  0  0  0
    1.4309   -2.3879    1.7158 H   0  0  0  0  0  0  0  0  0  0  0  0
   -0.6472    1.5299    0.7240 C   0  0  0  0  0  0  0  0  0  0  0  0
   -1.5046    2.2078    0.1690 O   0  0  0  0  0  0  0  0  0  0  0  0
    0.1809    2.1159    1.6636 N   0  0  0  0  0  0  0  0  0  0  0  0
    0.8217    1.5090    2.1667 H   0  0  0  0  0  0  0  0  0  0  0  0
    0.0537    3.5068    2.0812 C   0  0  0  0  0  0  0  0  0  0  0  0
   -0.9356    3.6886    2.5141 H   0  0  0  0  0  0  0  0  0  0  0  0
    0.8102    3.7466    2.8345 H   0  0  0  0  0  0  0  0  0  0  0  0
    0.1932    4.1774    1.2268 H   0  0  0  0  0  0  0  0  0  0  0  0
  1  2  1  0  0  0  0
  2  3  1  0  0  0  0
  2  4  1  0  0  0  0
  2  5  1  0  0  0  0
  5  6  2  0  0  0  0
  5  7  1  0  0  0  0
  7  8  1  0  0  0  0
  7  9  1  0  0  0  0
  9 10  1  0  0  0  0
  9 11  1  0  0  0  0
  9 22  1  0  0  0  0
 11 12  1  0  0  0  0
 11 13  1  0  0  0  0
 11 14  1  0  0  0  0
 14 15  1  0  0  0  0
 14 16  1  0  0  0  0
 14 17  1  0  0  0  0
 17 18  1  0  0  0  0
 18 19  1  0  0  0  0
 18 20  1  0  0  0  0
 18 21  1  0  0  0  0
 22 23  2  0  0  0  0
 22 24  1  0  0  0  0
 24 25  1  0  0  0  0
 24 26  1  0  0  0  0
 26 27  1  0  0  0  0
 26 28  1  0  0  0  0
 26 29  1  0  0  0  0
M  END
$$$$

  -OEChem-02102214153D

 29 28  0     1  0  0  0  0  0999 V2000
   -3.8455   -3.0900    1.1800 H   0  0  0  0  0  0  0  0  0  0  0  0
   -3.6725   -2.1637    0.6252 C   0  0  0  0  0  0  0  0  0  0  0  0
   -4.3752   -1.4051    0.9781 H   0  0  0  0  0  0  0  0  0  0  0  0
   -3.8502   -2.3507   -0.4366 H   0  0  0  0  0  0  0  0  0  0  0  0
   -2.2472   -1.6884    0.8335 C   0  0  0  0  0  0  0  0  0  0  0  0
   -1.4833   -2.3411    1.5274 O   0  0  0  0  0  0  0  0  0  0  0  0
   -1.8375   -0.4942    0.2779 N   0  0  0  0  0  0  0  0  0  0  0  0
   -2.5336    0.0614   -0.2152 H   0  0  0  0  0  0  0  0  0  0  0  0
   -0.4722    0.0453    0.3536 C   0  0  1  0  0  0  0  0  0  0  0  0
    0.0851   -0.4672    1.1437 H   0  0  0  0  0  0  0  0  0  0  0  0
    0.2257   -0.1662   -1.0121 C   0  0  0  0  0  0  0  0  0  0  0  0
   -0.4630   -0.6143   -1.7364 H   0  0  0  0  0  0  0  0  0  0  0  0
    0.5177    0.8064   -1.4226 H   0  0  0  0  0  0  0  0  0  0  0  0
    1.4868   -1.0312   -0.9021 C   0  0  0  0  0  0  0  0  0  0  0  0
    2.1801   -0.7535   -1.7025 H   0  0  0  0  0  0  0  0  0  0  0  0
    2.0024   -0.8671    0.0492 H   0  0  0  0  0  0  0  0  0  0  0  0
    1.0474   -2.8014   -1.1205 S   0  0  0  0  0  0  0  0  0  0  0  0
    1.6047   -3.5364    0.4671 C   0  0  0  0  0  0  0  0  0  0  0  0
    1.3624   -4.6029    0.4914 H   0  0  0  0  0  0  0  0  0  0  0  0
    2.6861   -3.4196    0.5819 H   0  0  0  0  0  0  0  0  0  0  0  0
    1.1049   -3.0479    1.3088 H   0  0  0  0  0  0  0  0  0  0  0  0
   -0.5034    1.5456    0.7111 C   0  0  0  0  0  0  0  0  0  0  0  0
   -1.3003    2.2916    0.1535 O   0  0  0  0  0  0  0  0  0  0  0  0
    0.3554    2.0592    1.6654 N   0  0  0  0  0  0  0  0  0  0  0  0
    0.9436    1.4021    2.1698 H   0  0  0  0  0  0  0  0  0  0  0  0
    0.3298    3.4529    2.0928 C   0  0  0  0  0  0  0  0  0  0  0  0
   -0.6342    3.6949    2.5524 H   0  0  0  0  0  0  0  0  0  0  0  0
    1.1201    3.6386    2.8265 H   0  0  0  0  0  0  0  0  0  0  0  0
    0.4898    4.1192    1.2385 H   0  0  0  0  0  0  0  0  0  0  0  0
  1  2  1  0  0  0  0
  2  3  1  0  0  0  0
  2  4  1  0  0  0  0
  2  5  1  0  0  0  0
  5  6  2  0  0  0  0
  5  7  1  0  0  0  0
  7  8  1  0  0  0  0
  7  9  1  0  0  0  0
  9 10  1  0  0  0  0
  9 11  1  0  0  0  0
  9 22  1  0  0  0  0
 11 12  1  0  0  0  0
 11 13  1  0  0  0  0
 11 14  1  0  0  0  0
 14 15  1  0  0  0  0
 14 16  1  0  0  0  0
 14 17  1  0  0  0  0
 17 18  1  0  0  0  0
 18 19  1  0  0  0  0
 18 20  1  0  0  0  0
 18 21  1  0  0  0  0
 22 23  2  0  0  0  0
 22 24  1  0  0  0  0
 24 25  1  0  0  0  0
 24 26  1  0  0  0  0
 26 27  1  0  0  0  0
 26 28  1  0  0  0  0
 26 29  1  0  0  0  0
M  END
$$$$

  -OEChem-02102214153D

 29 28  0     1  0  0  0  0  0999 V2000
   -3.4748   -3.3540    1.3150 H   0  0  0  0  0  0  0  0  0  0  0  0
   -3.3790   -2.4043    0.7811 C   0  0  0  0  0  0  0  0  0  0  0  0
   -4.1217   -1.7041    1.1715 H   0  0  0  0  0  0  0  0  0  0  0  0
   -3.5724   -2.5762   -0.2805 H   0  0  0  0  0  0  0  0  0  0  0  0
   -1.9844   -1.8377    0.9677 C   0  0  0  0  0  0  0  0  0  0  0  0
   -1.1894   -2.4029    1.7014 O   0  0  0  0  0  0  0  0  0  0  0  0
   -1.6464   -0.6430    0.3706 N   0  0  0  0  0  0  0  0  0  0  0  0
   -2.3812   -0.1464   -0.1302 H   0  0  0  0  0  0  0  0  0  0  0  0
   -0.3189   -0.0105    0.4033 C   0  0  1  0  0  0  0  0  0  0  0  0
    0.2906   -0.4577    1.1948 H   0  0  0  0  0  0  0  0  0  0  0  0
    0.3956   -0.1461   -0.9710 C   0  0  0  0  0  0  0  0  0  0  0  0
   -0.2707   -0.6424   -1.6840 H   0  0  0  0  0  0  0  0  0  0  0  0
    0.5893    0.8515   -1.3810 H   0  0  0  0  0  0  0  0  0  0  0  0
    1.7375   -0.9013   -0.9411 C   0  0  0  0  0  0  0  0  0  0  0  0
    2.4559   -0.3431   -1.5503 H   0  0  0  0  0  0  0  0  0  0  0  0
    2.1412   -0.9388    0.0751 H   0  0  0  0  0  0  0  0  0  0  0  0
    1.6447   -2.6066   -1.6310 S   0  0  0  0  0  0  0  0  0  0  0  0
    0.8088   -3.6294   -0.3631 C   0  0  0  0  0  0  0  0  0  0  0  0
   -0.2724   -3.4983   -0.4355 H   0  0  0  0  0  0  0  0  0  0  0  0
    1.0363   -4.6869   -0.5251 H   0  0  0  0  0  0  0  0  0  0  0  0
    1.1417   -3.3498    0.6408 H   0  0  0  0  0  0  0  0  0  0  0  0
   -0.4790    1.4936    0.7140 C   0  0  0  0  0  0  0  0  0  0  0  0
   -1.3515    2.1468    0.1522 O   0  0  0  0  0  0  0  0  0  0  0  0
    0.3421    2.1112    1.6391 N   0  0  0  0  0  0  0  0  0  0  0  0
    1.0001    1.5276    2.1476 H   0  0  0  0  0  0  0  0  0  0  0  0
    0.2075    3.5137    2.0143 C   0  0  0  0  0  0  0  0  0  0  0  0
   -0.7761    3.6985    2.4589 H   0  0  0  0  0  0  0  0  0  0  0  0
    0.9751    3.7852    2.7454 H   0  0  0  0  0  0  0  0  0  0  0  0
    0.3243    4.1586    1.1368 H   0  0  0  0  0  0  0  0  0  0  0  0
  1  2  1  0  0  0  0
  2  3  1  0  0  0  0
  2  4  1  0  0  0  0
  2  5  1  0  0  0  0
  5  6  2  0  0  0  0
  5  7  1  0  0  0  0
  7  8  1  0  0  0  0
  7  9  1  0  0  0  0
  9 10  1  0  0  0  0
  9 11  1  0  0  0  0
  9 22  1  0  0  0  0
 11 12  1  0  0  0  0
 11 13  1  0  0  0  0
 11 14  1  0  0  0  0
 14 15  1  0  0  0  0
 14 16  1  0  0  0  0
 14 17  1  0  0  0  0
 17 18  1  0  0  0  0
 18 19  1  0  0  0  0
 18 20  1  0  0  0  0
 18 21  1  0  0  0  0
 22 23  2  0  0  0  0
 22 24  1  0  0  0  0
 24 25  1  0  0  0  0
 24 26  1  0  0  0  0
 26 27  1  0  0  0  0
 26 28  1  0  0  0  0
 26 29  1  0  0  0  0
M  END
$$$$

  -OEChem-02102214153D

 29 28  0     1  0  0  0  0  0999 V2000
   -3.3912   -3.4013    1.3299 H   0  0  0  0  0  0  0  0  0  0  0  0
   -3.3255   -2.4401    0.8125 C   0  0  0  0  0  0  0  0  0  0  0  0
   -4.0210   -1.7395    1.2811 H   0  0  0  0  0  0  0  0  0  0  0  0
   -3.6107   -2.5823   -0.2327 H   0  0  0  0  0  0  0  0  0  0  0  0
   -1.9114   -1.8981    0.8938 C   0  0  0  0  0  0  0  0  0  0  0  0
   -1.0513   -2.5224    1.4943 O   0  0  0  0  0  0  0  0  0  0  0  0
   -1.6093   -0.6865    0.3101 N   0  0  0  0  0  0  0  0  0  0  0  0
   -2.3798   -0.1529   -0.0899 H   0  0  0  0  0  0  0  0  0  0  0  0
   -0.2972   -0.0243    0.3614 C   0  0  1  0  0  0  0  0  0  0  0  0
    0.2991   -0.4594    1.1688 H   0  0  0  0  0  0  0  0  0  0  0  0
    0.4348   -0.1796   -0.9973 C   0  0  0  0  0  0  0  0  0  0  0  0
   -0.2132   -0.7117   -1.7012 H   0  0  0  0  0  0  0  0  0  0  0  0
    0.6147    0.8070   -1.4384 H   0  0  0  0  0  0  0  0  0  0  0  0
    1.7853   -0.9146   -0.8998 C   0  0  0  0  0  0  0  0  0  0  0  0
    2.5784   -0.2463   -1.2503 H   0  0  0  0  0  0  0  0  0  0  0  0
    2.0205   -1.1820    0.1345 H   0  0  0  0  0  0  0  0  0  0  0  0
    1.8146   -2.4442   -1.9227 S   0  0  0  0  0  0  0  0  0  0  0  0
    0.6702   -3.5768   -1.0435 C   0  0  0  0  0  0  0  0  0  0  0  0
   -0.3538   -3.2003   -1.1017 H   0  0  0  0  0  0  0  0  0  0  0  0
    0.7011   -4.5701   -1.5002 H   0  0  0  0  0  0  0  0  0  0  0  0
    0.9565   -3.6667    0.0087 H   0  0  0  0  0  0  0  0  0  0  0  0
   -0.4749    1.4734    0.6861 C   0  0  0  0  0  0  0  0  0  0  0  0
   -1.3701    2.1127    0.1454 O   0  0  0  0  0  0  0  0  0  0  0  0
    0.3333    2.0921    1.6220 N   0  0  0  0  0  0  0  0  0  0  0  0
    1.0207    1.5199    2.1041 H   0  0  0  0  0  0  0  0  0  0  0  0
    0.1761    3.4872    2.0153 C   0  0  0  0  0  0  0  0  0  0  0  0
   -0.8127    3.6522    2.4564 H   0  0  0  0  0  0  0  0  0  0  0  0
    0.9348    3.7599    2.7552 H   0  0  0  0  0  0  0  0  0  0  0  0
    0.2890    4.1454    1.1472 H   0  0  0  0  0  0  0  0  0  0  0  0
  1  2  1  0  0  0  0
  2  3  1  0  0  0  0
  2  4  1  0  0  0  0
  2  5  1  0  0  0  0
  5  6  2  0  0  0  0
  5  7  1  0  0  0  0
  7  8  1  0  0  0  0
  7  9  1  0  0  0  0
  9 10  1  0  0  0  0
  9 11  1  0  0  0  0
  9 22  1  0  0  0  0
 11 12  1  0  0  0  0
 11 13  1  0  0  0  0
 11 14  1  0  0  0  0
 14 15  1  0  0  0  0
 14 16  1  0  0  0  0
 14 17  1  0  0  0  0
 17 18  1  0  0  0  0
 18 19  1  0  0  0  0
 18 20  1  0  0  0  0
 18 21  1  0  0  0  0
 22 23  2  0  0  0  0
 22 24  1  0  0  0  0
 24 25  1  0  0  0  0
 24 26  1  0  0  0  0
 26 27  1  0  0  0  0
 26 28  1  0  0  0  0
 26 29  1  0  0  0  0
M  END
$$$$

  -OEChem-02102214153D

 29 28  0     1  0  0  0  0  0999 V2000
   -3.3663   -3.4038    1.2982 H   0  0  0  0  0  0  0  0  0  0  0  0
   -3.3214   -2.4351    0.7926 C   0  0  0  0  0  0  0  0  0  0  0  0
   -3.9809   -1.7360    1.3123 H   0  0  0  0  0  0  0  0  0  0  0  0
   -3.6692   -2.5581   -0.2360 H   0  0  0  0  0  0  0  0  0  0  0  0
   -1.8994   -1.9076    0.7983 C   0  0  0  0  0  0  0  0  0  0  0  0
   -1.0007   -2.5761    1.2846 O   0  0  0  0  0  0  0  0  0  0  0  0
   -1.6218   -0.6762    0.2439 N   0  0  0  0  0  0  0  0  0  0  0  0
   -2.4106   -0.1142   -0.0731 H   0  0  0  0  0  0  0  0  0  0  0  0
   -0.3135   -0.0090    0.3094 C   0  0  1  0  0  0  0  0  0  0  0  0
    0.2793   -0.4560    1.1128 H   0  0  0  0  0  0  0  0  0  0  0  0
    0.4101   -0.1732   -1.0479 C   0  0  0  0  0  0  0  0  0  0  0  0
   -0.2405   -0.7190   -1.7387 H   0  0  0  0  0  0  0  0  0  0  0  0
    0.5893    0.8053   -1.5068 H   0  0  0  0  0  0  0  0  0  0  0  0
    1.7535   -0.9133   -0.9211 C   0  0  0  0  0  0  0  0  0  0  0  0
    2.5754   -0.1938   -0.9910 H   0  0  0  0  0  0  0  0  0  0  0  0
    1.8394   -1.4227    0.0436 H   0  0  0  0  0  0  0  0  0  0  0  0
    1.9245   -2.1788   -2.2422 S   0  0  0  0  0  0  0  0  0  0  0  0
    0.7809   -3.4869   -1.6418 C   0  0  0  0  0  0  0  0  0  0  0  0
   -0.2452   -3.1111   -1.6022 H   0  0  0  0  0  0  0  0  0  0  0  0
    0.8112   -4.3492   -2.3140 H   0  0  0  0  0  0  0  0  0  0  0  0
    1.0703   -3.8140   -0.6384 H   0  0  0  0  0  0  0  0  0  0  0  0
   -0.4803    1.4797    0.6751 C   0  0  0  0  0  0  0  0  0  0  0  0
   -1.3870    2.1322    0.1709 O   0  0  0  0  0  0  0  0  0  0  0  0
    0.3367    2.0688    1.6224 N   0  0  0  0  0  0  0  0  0  0  0  0
    1.0414    1.4871    2.0666 H   0  0  0  0  0  0  0  0  0  0  0  0
    0.1909    3.4540    2.0535 C   0  0  0  0  0  0  0  0  0  0  0  0
   -0.7991    3.6174    2.4921 H   0  0  0  0  0  0  0  0  0  0  0  0
    0.9468    3.6978    2.8063 H   0  0  0  0  0  0  0  0  0  0  0  0
    0.3171    4.1344    1.2048 H   0  0  0  0  0  0  0  0  0  0  0  0
  1  2  1  0  0  0  0
  2  3  1  0  0  0  0
  2  4  1  0  0  0  0
  2  5  1  0  0  0  0
  5  6  2  0  0  0  0
  5  7  1  0  0  0  0
  7  8  1  0  0  0  0
  7  9  1  0  0  0  0
  9 10  1  0  0  0  0
  9 11  1  0  0  0  0
  9 22  1  0  0  0  0
 11 12  1  0  0  0  0
 11 13  1  0  0  0  0
 11 14  1  0  0  0  0
 14 15  1  0  0  0  0
 14 16  1  0  0  0  0
 14 17  1  0  0  0  0
 17 18  1  0  0  0  0
 18 19  1  0  0  0  0
 18 20  1  0  0  0  0
 18 21  1  0  0  0  0
 22 23  2  0  0  0  0
 22 24  1  0  0  0  0
 24 25  1  0  0  0  0
 24 26  1  0  0  0  0
 26 27  1  0  0  0  0
 26 28  1  0  0  0  0
 26 29  1  0  0  0  0
M  END
$$$$

  -OEChem-02102214153D

 29 28  0     1  0  0  0  0  0999 V2000
   -3.3781   -3.3898    1.3057 H   0  0  0  0  0  0  0  0  0  0  0  0
   -3.3369   -2.4205    0.8010 C   0  0  0  0  0  0  0  0  0  0  0  0
   -3.9816   -1.7185    1.3352 H   0  0  0  0  0  0  0  0  0  0  0  0
   -3.7059   -2.5390   -0.2205 H   0  0  0  0  0  0  0  0  0  0  0  0
   -1.9117   -1.9012    0.7788 C   0  0  0  0  0  0  0  0  0  0  0  0
   -1.0047   -2.5805    1.2338 O   0  0  0  0  0  0  0  0  0  0  0  0
   -1.6403   -0.6634    0.2350 N   0  0  0  0  0  0  0  0  0  0  0  0
   -2.4332   -0.0927   -0.0551 H   0  0  0  0  0  0  0  0  0  0  0  0
   -0.3296    0.0000    0.2936 C   0  0  1  0  0  0  0  0  0  0  0  0
    0.2726   -0.4578    1.0846 H   0  0  0  0  0  0  0  0  0  0  0  0
    0.3817   -0.1544   -1.0689 C   0  0  0  0  0  0  0  0  0  0  0  0
   -0.2708   -0.7056   -1.7529 H   0  0  0  0  0  0  0  0  0  0  0  0
    0.5603    0.8232   -1.5296 H   0  0  0  0  0  0  0  0  0  0  0  0
    1.7180   -0.8989   -0.9358 C   0  0  0  0  0  0  0  0  0  0  0  0
    2.5199   -0.1853   -0.7222 H   0  0  0  0  0  0  0  0  0  0  0  0
    1.6795   -1.6196   -0.1119 H   0  0  0  0  0  0  0  0  0  0  0  0
    2.0922   -1.8263   -2.4769 S   0  0  0  0  0  0  0  0  0  0  0  0
    1.0019   -3.2956   -2.2985 C   0  0  0  0  0  0  0  0  0  0  0  0
   -0.0489   -2.9940   -2.2694 H   0  0  0  0  0  0  0  0  0  0  0  0
    1.1469   -3.9742   -3.1441 H   0  0  0  0  0  0  0  0  0  0  0  0
    1.2367   -3.8322   -1.3743 H   0  0  0  0  0  0  0  0  0  0  0  0
   -0.4852    1.4850    0.6784 C   0  0  0  0  0  0  0  0  0  0  0  0
   -1.3979    2.1460    0.1969 O   0  0  0  0  0  0  0  0  0  0  0  0
    0.3457    2.0591    1.6227 N   0  0  0  0  0  0  0  0  0  0  0  0
    1.0555    1.4700    2.0487 H   0  0  0  0  0  0  0  0  0  0  0  0
    0.2092    3.4385    2.0745 C   0  0  0  0  0  0  0  0  0  0  0  0
   -0.7771    3.5999    2.5223 H   0  0  0  0  0  0  0  0  0  0  0  0
    0.9712    3.6676    2.8257 H   0  0  0  0  0  0  0  0  0  0  0  0
    0.3326    4.1308    1.2349 H   0  0  0  0  0  0  0  0  0  0  0  0
  1  2  1  0  0  0  0
  2  3  1  0  0  0  0
  2  4  1  0  0  0  0
  2  5  1  0  0  0  0
  5  6  2  0  0  0  0
  5  7  1  0  0  0  0
  7  8  1  0  0  0  0
  7  9  1  0  0  0  0
  9 10  1  0  0  0  0
  9 11  1  0  0  0  0
  9 22  1  0  0  0  0
 11 12  1  0  0  0  0
 11 13  1  0  0  0  0
 11 14  1  0  0  0  0
 14 15  1  0  0  0  0
 14 16  1  0  0  0  0
 14 17  1  0  0  0  0
 17 18  1  0  0  0  0
 18 19  1  0  0  0  0
 18 20  1  0  0  0  0
 18 21  1  0  0  0  0
 22 23  2  0  0  0  0
 22 24  1  0  0  0  0
 24 25  1  0  0  0  0
 24 26  1  0  0  0  0
 26 27  1  0  0  0  0
 26 28  1  0  0  0  0
 26 29  1  0  0  0  0
M  END
$$$$

  -OEChem-02102214153D

 29 28  0     1  0  0  0  0  0999 V2000
   -3.3734   -3.4001    1.2891 H   0  0  0  0  0  0  0  0  0  0  0  0
   -3.3378   -2.4178    0.8099 C   0  0  0  0  0  0  0  0  0  0  0  0
   -3.9750   -1.7291    1.3701 H   0  0  0  0  0  0  0  0  0  0  0  0
   -3.7192   -2.5089   -0.2099 H   0  0  0  0  0  0  0  0  0  0  0  0
   -1.9124   -1.9001    0.7854 C   0  0  0  0  0  0  0  0  0  0  0  0
   -1.0058   -2.5777    1.2436 O   0  0  0  0  0  0  0  0  0  0  0  0
   -1.6425   -0.6616    0.2436 N   0  0  0  0  0  0  0  0  0  0  0  0
   -2.4364   -0.0911   -0.0446 H   0  0  0  0  0  0  0  0  0  0  0  0
   -0.3311    0.0007    0.2920 C   0  0  1  0  0  0  0  0  0  0  0  0
    0.2818   -0.4627    1.0721 H   0  0  0  0  0  0  0  0  0  0  0  0
    0.3669   -0.1489   -1.0765 C   0  0  0  0  0  0  0  0  0  0  0  0
   -0.2860   -0.6996   -1.7602 H   0  0  0  0  0  0  0  0  0  0  0  0
    0.5470    0.8313   -1.5311 H   0  0  0  0  0  0  0  0  0  0  0  0
    1.6989   -0.8944   -0.9415 C   0  0  0  0  0  0  0  0  0  0  0  0
    2.4449   -0.2381   -0.4825 H   0  0  0  0  0  0  0  0  0  0  0  0
    1.5781   -1.7730   -0.2979 H   0  0  0  0  0  0  0  0  0  0  0  0
    2.2908   -1.4490   -2.5900 S   0  0  0  0  0  0  0  0  0  0  0  0
    1.2535   -2.9358   -2.8911 C   0  0  0  0  0  0  0  0  0  0  0  0
    0.1955   -2.6640   -2.9385 H   0  0  0  0  0  0  0  0  0  0  0  0
    1.5354   -3.4029   -3.8392 H   0  0  0  0  0  0  0  0  0  0  0  0
    1.3930   -3.6642   -2.0866 H   0  0  0  0  0  0  0  0  0  0  0  0
   -0.4849    1.4842    0.6830 C   0  0  0  0  0  0  0  0  0  0  0  0
   -1.4067    2.1430    0.2155 O   0  0  0  0  0  0  0  0  0  0  0  0
    0.3533    2.0571    1.6215 N   0  0  0  0  0  0  0  0  0  0  0  0
    1.0705    1.4693    2.0368 H   0  0  0  0  0  0  0  0  0  0  0  0
    0.2105    3.4315    2.0863 C   0  0  0  0  0  0  0  0  0  0  0  0
   -0.7670    3.5767    2.5581 H   0  0  0  0  0  0  0  0  0  0  0  0
    0.9871    3.6657    2.8206 H   0  0  0  0  0  0  0  0  0  0  0  0
    0.3052    4.1308    1.2489 H   0  0  0  0  0  0  0  0  0  0  0  0
  1  2  1  0  0  0  0
  2  3  1  0  0  0  0
  2  4  1  0  0  0  0
  2  5  1  0  0  0  0
  5  6  2  0  0  0  0
  5  7  1  0  0  0  0
  7  8  1  0  0  0  0
  7  9  1  0  0  0  0
  9 10  1  0  0  0  0
  9 11  1  0  0  0  0
  9 22  1  0  0  0  0
 11 12  1  0  0  0  0
 11 13  1  0  0  0  0
 11 14  1  0  0  0  0
 14 15  1  0  0  0  0
 14 16  1  0  0  0  0
 14 17  1  0  0  0  0
 17 18  1  0  0  0  0
 18 19  1  0  0  0  0
 18 20  1  0  0  0  0
 18 21  1  0  0  0  0
 22 23  2  0  0  0  0
 22 24  1  0  0  0  0
 24 25  1  0  0  0  0
 24 26  1  0  0  0  0
 26 27  1  0  0  0  0
 26 28  1  0  0  0  0
 26 29  1  0  0  0  0
M  END
$$$$

  -OEChem-02102214153D

 29 28  0     1  0  0  0  0  0999 V2000
   -3.3730   -3.3972    1.3402 H   0  0  0  0  0  0  0  0  0  0  0  0
   -3.3275   -2.4321    0.8280 C   0  0  0  0  0  0  0  0  0  0  0  0
   -3.9722   -1.7240    1.3542 H   0  0  0  0  0  0  0  0  0  0  0  0
   -3.6930   -2.5575   -0.1939 H   0  0  0  0  0  0  0  0  0  0  0  0
   -1.9006   -1.9181    0.8077 C   0  0  0  0  0  0  0  0  0  0  0  0
   -0.9992   -2.5935    1.2788 O   0  0  0  0  0  0  0  0  0  0  0  0
   -1.6228   -0.6858    0.2557 N   0  0  0  0  0  0  0  0  0  0  0  0
   -2.4138   -0.1123   -0.0349 H   0  0  0  0  0  0  0  0  0  0  0  0
   -0.3106   -0.0257    0.3130 C   0  0  1  0  0  0  0  0  0  0  0  0
    0.3061   -0.4771    1.0972 H   0  0  0  0  0  0  0  0  0  0  0  0
    0.3891   -0.1714   -1.0531 C   0  0  0  0  0  0  0  0  0  0  0  0
   -0.3395   -0.4410   -1.8234 H   0  0  0  0  0  0  0  0  0  0  0  0
    0.8348    0.7838   -1.3517 H   0  0  0  0  0  0  0  0  0  0  0  0
    1.5025   -1.2202   -0.9853 C   0  0  0  0  0  0  0  0  0  0  0  0
    2.2460   -0.9230   -0.2392 H   0  0  0  0  0  0  0  0  0  0  0  0
    1.0891   -2.1881   -0.6809 H   0  0  0  0  0  0  0  0  0  0  0  0
    2.3286   -1.3843   -2.6186 S   0  0  0  0  0  0  0  0  0  0  0  0
    1.0822   -2.3022   -3.6081 C   0  0  0  0  0  0  0  0  0  0  0  0
    0.1787   -1.7008   -3.7416 H   0  0  0  0  0  0  0  0  0  0  0  0
    1.4904   -2.5397   -4.5950 H   0  0  0  0  0  0  0  0  0  0  0  0
    0.8136   -3.2366   -3.1063 H   0  0  0  0  0  0  0  0  0  0  0  0
   -0.4821    1.4606    0.6873 C   0  0  0  0  0  0  0  0  0  0  0  0
   -1.3975    2.1095    0.1940 O   0  0  0  0  0  0  0  0  0  0  0  0
    0.3374    2.0499    1.6323 N   0  0  0  0  0  0  0  0  0  0  0  0
    1.0603    1.4755    2.0565 H   0  0  0  0  0  0  0  0  0  0  0  0
    0.1938    3.4360    2.0613 C   0  0  0  0  0  0  0  0  0  0  0  0
   -0.7988    3.6030    2.4928 H   0  0  0  0  0  0  0  0  0  0  0  0
    0.9449    3.6780    2.8194 H   0  0  0  0  0  0  0  0  0  0  0  0
    0.3282    4.1151    1.2126 H   0  0  0  0  0  0  0  0  0  0  0  0
  1  2  1  0  0  0  0
  2  3  1  0  0  0  0
  2  4  1  0  0  0  0
  2  5  1  0  0  0  0
  5  6  2  0  0  0  0
  5  7  1  0  0  0  0
  7  8  1  0  0  0  0
  7  9  1  0  0  0  0
  9 10  1  0  0  0  0
  9 11  1  0  0  0  0
  9 22  1  0  0  0  0
 11 12  1  0  0  0  0
 11 13  1  0  0  0  0
 11 14  1  0  0  0  0
 14 15  1  0  0  0  0
 14 16  1  0  0  0  0
 14 17  1  0  0  0  0
 17 18  1  0  0  0  0
 18 19  1  0  0  0  0
 18 20  1  0  0  0  0
 18 21  1  0  0  0  0
 22 23  2  0  0  0  0
 22 24  1  0  0  0  0
 24 25  1  0  0  0  0
 24 26  1  0  0  0  0
 26 27  1  0  0  0  0
 26 28  1  0  0  0  0
 26 29  1  0  0  0  0
M  END
$$$$

  -OEChem-02102214153D

 29 28  0     1  0  0  0  0  0999 V2000
   -3.3806   -3.3976    1.3588 H   0  0  0  0  0  0  0  0  0  0  0  0
   -3.3337   -2.4336    0.8445 C   0  0  0  0  0  0  0  0  0  0  0  0
   -3.9708   -1.7212    1.3741 H   0  0  0  0  0  0  0  0  0  0  0  0
   -3.7073   -2.5590   -0.1745 H   0  0  0  0  0  0  0  0  0  0  0  0
   -1.9043   -1.9267    0.8134 C   0  0  0  0  0  0  0  0  0  0  0  0
   -1.0044   -2.6020    1.2873 O   0  0  0  0  0  0  0  0  0  0  0  0
   -1.6221   -0.7005    0.2501 N   0  0  0  0  0  0  0  0  0  0  0  0
   -2.4112   -0.1250   -0.0416 H   0  0  0  0  0  0  0  0  0  0  0  0
   -0.3091   -0.0428    0.3108 C   0  0  1  0  0  0  0  0  0  0  0  0
    0.2981   -0.4862    1.1067 H   0  0  0  0  0  0  0  0  0  0  0  0
    0.3987   -0.2086   -1.0495 C   0  0  0  0  0  0  0  0  0  0  0  0
   -0.3212   -0.4754   -1.8298 H   0  0  0  0  0  0  0  0  0  0  0  0
    0.8515    0.7456   -1.3407 H   0  0  0  0  0  0  0  0  0  0  0  0
    1.5118   -1.2592   -0.9728 C   0  0  0  0  0  0  0  0  0  0  0  0
    2.1173   -1.0985   -0.0755 H   0  0  0  0  0  0  0  0  0  0  0  0
    1.0775   -2.2628   -0.9074 H   0  0  0  0  0  0  0  0  0  0  0  0
    2.6173   -1.1318   -2.4356 S   0  0  0  0  0  0  0  0  0  0  0  0
    1.5384   -1.7094   -3.8054 C   0  0  0  0  0  0  0  0  0  0  0  0
    0.6944   -1.0274   -3.9421 H   0  0  0  0  0  0  0  0  0  0  0  0
    2.1079   -1.7491   -4.7386 H   0  0  0  0  0  0  0  0  0  0  0  0
    1.1532   -2.7101   -3.5876 H   0  0  0  0  0  0  0  0  0  0  0  0
   -0.4810    1.4476    0.6687 C   0  0  0  0  0  0  0  0  0  0  0  0
   -1.3959    2.0912    0.1670 O   0  0  0  0  0  0  0  0  0  0  0  0
    0.3321    2.0446    1.6141 N   0  0  0  0  0  0  0  0  0  0  0  0
    1.0563    1.4753    2.0431 H   0  0  0  0  0  0  0  0  0  0  0  0
    0.1823    3.4324    2.0350 C   0  0  0  0  0  0  0  0  0  0  0  0
   -0.8118    3.5981    2.4633 H   0  0  0  0  0  0  0  0  0  0  0  0
    0.9306    3.6811    2.7936 H   0  0  0  0  0  0  0  0  0  0  0  0
    0.3160    4.1074    1.1831 H   0  0  0  0  0  0  0  0  0  0  0  0
  1  2  1  0  0  0  0
  2  3  1  0  0  0  0
  2  4  1  0  0  0  0
  2  5  1  0  0  0  0
  5  6  2  0  0  0  0
  5  7  1  0  0  0  0
  7  8  1  0  0  0  0
  7  9  1  0  0  0  0
  9 10  1  0  0  0  0
  9 11  1  0  0  0  0
  9 22  1  0  0  0  0
 11 12  1  0  0  0  0
 11 13  1  0  0  0  0
 11 14  1  0  0  0  0
 14 15  1  0  0  0  0
 14 16  1  0  0  0  0
 14 17  1  0  0  0  0
 17 18  1  0  0  0  0
 18 19  1  0  0  0  0
 18 20  1  0  0  0  0
 18 21  1  0  0  0  0
 22 23  2  0  0  0  0
 22 24  1  0  0  0  0
 24 25  1  0  0  0  0
 24 26  1  0  0  0  0
 26 27  1  0  0  0  0
 26 28  1  0  0  0  0
 26 29  1  0  0  0  0
M  END
$$$$

  -OEChem-02102214153D

 29 28  0     1  0  0  0  0  0999 V2000
   -3.3931   -3.3962    1.3599 H   0  0  0  0  0  0  0  0  0  0  0  0
   -3.3416   -2.4316    0.8469 C   0  0  0  0  0  0  0  0  0  0  0  0
   -3.9775   -1.7174    1.3757 H   0  0  0  0  0  0  0  0  0  0  0  0
   -3.7128   -2.5547   -0.1734 H   0  0  0  0  0  0  0  0  0  0  0  0
   -1.9103   -1.9302    0.8197 C   0  0  0  0  0  0  0  0  0  0  0  0
   -1.0148   -2.6058    1.3015 O   0  0  0  0  0  0  0  0  0  0  0  0
   -1.6213   -0.7103    0.2466 N   0  0  0  0  0  0  0  0  0  0  0  0
   -2.4075   -0.1340   -0.0514 H   0  0  0  0  0  0  0  0  0  0  0  0
   -0.3070   -0.0561    0.3091 C   0  0  1  0  0  0  0  0  0  0  0  0
    0.2916   -0.4905    1.1159 H   0  0  0  0  0  0  0  0  0  0  0  0
    0.4050   -0.2390   -1.0477 C   0  0  0  0  0  0  0  0  0  0  0  0
   -0.3106   -0.5013   -1.8336 H   0  0  0  0  0  0  0  0  0  0  0  0
    0.8584    0.7159   -1.3355 H   0  0  0  0  0  0  0  0  0  0  0  0
    1.5198   -1.2925   -0.9758 C   0  0  0  0  0  0  0  0  0  0  0  0
    1.9687   -1.3100    0.0219 H   0  0  0  0  0  0  0  0  0  0  0  0
    1.1056   -2.2880   -1.1669 H   0  0  0  0  0  0  0  0  0  0  0  0
    2.8559   -0.9022   -2.1768 S   0  0  0  0  0  0  0  0  0  0  0  0
    2.0064   -1.1091   -3.7923 C   0  0  0  0  0  0  0  0  0  0  0  0
    1.1865   -0.3915   -3.8885 H   0  0  0  0  0  0  0  0  0  0  0  0
    2.7131   -0.9424   -4.6107 H   0  0  0  0  0  0  0  0  0  0  0  0
    1.6016   -2.1217   -3.8801 H   0  0  0  0  0  0  0  0  0  0  0  0
   -0.4778    1.4382    0.6519 C   0  0  0  0  0  0  0  0  0  0  0  0
   -1.3904    2.0783    0.1415 O   0  0  0  0  0  0  0  0  0  0  0  0
    0.3314    2.0411    1.5968 N   0  0  0  0  0  0  0  0  0  0  0  0
    1.0561    1.4744    2.0284 H   0  0  0  0  0  0  0  0  0  0  0  0
    0.1816    3.4307    2.0109 C   0  0  0  0  0  0  0  0  0  0  0  0
   -0.8136    3.5989    2.4359 H   0  0  0  0  0  0  0  0  0  0  0  0
    0.9283    3.6809    2.7706 H   0  0  0  0  0  0  0  0  0  0  0  0
    0.3189    4.1025    1.1570 H   0  0  0  0  0  0  0  0  0  0  0  0
  1  2  1  0  0  0  0
  2  3  1  0  0  0  0
  2  4  1  0  0  0  0
  2  5  1  0  0  0  0
  5  6  2  0  0  0  0
  5  7  1  0  0  0  0
  7  8  1  0  0  0  0
  7  9  1  0  0  0  0
  9 10  1  0  0  0  0
  9 11  1  0  0  0  0
  9 22  1  0  0  0  0
 11 12  1  0  0  0  0
 11 13  1  0  0  0  0
 11 14  1  0  0  0  0
 14 15  1  0  0  0  0
 14 16  1  0  0  0  0
 14 17  1  0  0  0  0
 17 18  1  0  0  0  0
 18 19  1  0  0  0  0
 18 20  1  0  0  0  0
 18 21  1  0  0  0  0
 22 23  2  0  0  0  0
 22 24  1  0  0  0  0
 24 25  1  0  0  0  0
 24 26  1  0  0  0  0
 26 27  1  0  0  0  0
 26 28  1  0  0  0  0
 26 29  1  0  0  0  0
M  END
$$$$

  -OEChem-02102214153D

 29 28  0     1  0  0  0  0  0999 V2000
   -3.4006   -3.3941    1.3652 H   0  0  0  0  0  0  0  0  0  0  0  0
   -3.3475   -2.4326    0.8471 C   0  0  0  0  0  0  0  0  0  0  0  0
   -3.9826   -1.7148    1.3717 H   0  0  0  0  0  0  0  0  0  0  0  0
   -3.7185   -2.5604   -0.1725 H   0  0  0  0  0  0  0  0  0  0  0  0
   -1.9158   -1.9328    0.8180 C   0  0  0  0  0  0  0  0  0  0  0  0
   -1.0211   -2.6085    1.3012 O   0  0  0  0  0  0  0  0  0  0  0  0
   -1.6266   -0.7118    0.2473 N   0  0  0  0  0  0  0  0  0  0  0  0
   -2.4120   -0.1346   -0.0505 H   0  0  0  0  0  0  0  0  0  0  0  0
   -0.3111   -0.0599    0.3108 C   0  0  1  0  0  0  0  0  0  0  0  0
    0.2877   -0.4944    1.1170 H   0  0  0  0  0  0  0  0  0  0  0  0
    0.3994   -0.2327   -1.0494 C   0  0  0  0  0  0  0  0  0  0  0  0
   -0.3190   -0.4885   -1.8351 H   0  0  0  0  0  0  0  0  0  0  0  0
    0.8440    0.7281   -1.3313 H   0  0  0  0  0  0  0  0  0  0  0  0
    1.5187   -1.2875   -1.0026 C   0  0  0  0  0  0  0  0  0  0  0  0
    1.7899   -1.5283    0.0297 H   0  0  0  0  0  0  0  0  0  0  0  0
    1.1717   -2.2156   -1.4685 H   0  0  0  0  0  0  0  0  0  0  0  0
    3.0289   -0.6729   -1.8531 S   0  0  0  0  0  0  0  0  0  0  0  0
    2.4750   -0.5753   -3.6020 C   0  0  0  0  0  0  0  0  0  0  0  0
    1.6470    0.1323   -3.7034 H   0  0  0  0  0  0  0  0  0  0  0  0
    3.2997   -0.2400   -4.2378 H   0  0  0  0  0  0  0  0  0  0  0  0
    2.1430   -1.5583   -3.9489 H   0  0  0  0  0  0  0  0  0  0  0  0
   -0.4817    1.4334    0.6576 C   0  0  0  0  0  0  0  0  0  0  0  0
   -1.3922    2.0761    0.1463 O   0  0  0  0  0  0  0  0  0  0  0  0
    0.3275    2.0342    1.6040 N   0  0  0  0  0  0  0  0  0  0  0  0
    1.0610    1.4704    2.0247 H   0  0  0  0  0  0  0  0  0  0  0  0
    0.1877    3.4277    2.0088 C   0  0  0  0  0  0  0  0  0  0  0  0
   -0.8084    3.6076    2.4269 H   0  0  0  0  0  0  0  0  0  0  0  0
    0.9320    3.6769    2.7714 H   0  0  0  0  0  0  0  0  0  0  0  0
    0.3355    4.0923    1.1511 H   0  0  0  0  0  0  0  0  0  0  0  0
  1  2  1  0  0  0  0
  2  3  1  0  0  0  0
  2  4  1  0  0  0  0
  2  5  1  0  0  0  0
  5  6  2  0  0  0  0
  5  7  1  0  0  0  0
  7  8  1  0  0  0  0
  7  9  1  0  0  0  0
  9 10  1  0  0  0  0
  9 11  1  0  0  0  0
  9 22  1  0  0  0  0
 11 12  1  0  0  0  0
 11 13  1  0  0  0  0
 11 14  1  0  0  0  0
 14 15  1  0  0  0  0
 14 16  1  0  0  0  0
 14 17  1  0  0  0  0
 17 18  1  0  0  0  0
 18 19  1  0  0  0  0
 18 20  1  0  0  0  0
 18 21  1  0  0  0  0
 22 23  2  0  0  0  0
 22 24  1  0  0  0  0
 24 25  1  0  0  0  0
 24 26  1  0  0  0  0
 26 27  1  0  0  0  0
 26 28  1  0  0  0  0
 26 29  1  0  0  0  0
M  END
$$$$

  -OEChem-02102214153D

 29 28  0     1  0  0  0  0  0999 V2000
   -3.3872   -3.4151    1.3572 H   0  0  0  0  0  0  0  0  0  0  0  0
   -3.3430   -2.4519    0.8411 C   0  0  0  0  0  0  0  0  0  0  0  0
   -3.9865   -1.7419    1.3662 H   0  0  0  0  0  0  0  0  0  0  0  0
   -3.7114   -2.5819   -0.1793 H   0  0  0  0  0  0  0  0  0  0  0  0
   -1.9160   -1.9375    0.8144 C   0  0  0  0  0  0  0  0  0  0  0  0
   -1.0123   -2.6130    1.2809 O   0  0  0  0  0  0  0  0  0  0  0  0
   -1.6393   -0.7082    0.2548 N   0  0  0  0  0  0  0  0  0  0  0  0
   -2.4312   -0.1326   -0.0288 H   0  0  0  0  0  0  0  0  0  0  0  0
   -0.3269   -0.0482    0.3107 C   0  0  1  0  0  0  0  0  0  0  0  0
    0.2837   -0.4865    1.1064 H   0  0  0  0  0  0  0  0  0  0  0  0
    0.3753   -0.1988   -1.0557 C   0  0  0  0  0  0  0  0  0  0  0  0
   -0.3538   -0.4713   -1.8258 H   0  0  0  0  0  0  0  0  0  0  0  0
    0.7951    0.7680   -1.3523 H   0  0  0  0  0  0  0  0  0  0  0  0
    1.5026   -1.2462   -1.0246 C   0  0  0  0  0  0  0  0  0  0  0  0
    1.5819   -1.7185   -0.0404 H   0  0  0  0  0  0  0  0  0  0  0  0
    1.2763   -2.0434   -1.7397 H   0  0  0  0  0  0  0  0  0  0  0  0
    3.1186   -0.4818   -1.4570 S   0  0  0  0  0  0  0  0  0  0  0  0
    2.9160   -0.1285   -3.2488 C   0  0  0  0  0  0  0  0  0  0  0  0
    2.0920    0.5721   -3.4115 H   0  0  0  0  0  0  0  0  0  0  0  0
    3.8335    0.3134   -3.6488 H   0  0  0  0  0  0  0  0  0  0  0  0
    2.7060   -1.0525   -3.7958 H   0  0  0  0  0  0  0  0  0  0  0  0
   -0.4969    1.4407    0.6758 C   0  0  0  0  0  0  0  0  0  0  0  0
   -1.4146    2.0867    0.1818 O   0  0  0  0  0  0  0  0  0  0  0  0
    0.3229    2.0327    1.6184 N   0  0  0  0  0  0  0  0  0  0  0  0
    1.0745    1.4705    2.0085 H   0  0  0  0  0  0  0  0  0  0  0  0
    0.2008    3.4275    2.0234 C   0  0  0  0  0  0  0  0  0  0  0  0
   -0.7922    3.6198    2.4433 H   0  0  0  0  0  0  0  0  0  0  0  0
    0.9493    3.6666    2.7849 H   0  0  0  0  0  0  0  0  0  0  0  0
    0.3557    4.0904    1.1656 H   0  0  0  0  0  0  0  0  0  0  0  0
  1  2  1  0  0  0  0
  2  3  1  0  0  0  0
  2  4  1  0  0  0  0
  2  5  1  0  0  0  0
  5  6  2  0  0  0  0
  5  7  1  0  0  0  0
  7  8  1  0  0  0  0
  7  9  1  0  0  0  0
  9 10  1  0  0  0  0
  9 11  1  0  0  0  0
  9 22  1  0  0  0  0
 11 12  1  0  0  0  0
 11 13  1  0  0  0  0
 11 14  1  0  0  0  0
 14 15  1  0  0  0  0
 14 16  1  0  0  0  0
 14 17  1  0  0  0  0
 17 18  1  0  0  0  0
 18 19  1  0  0  0  0
 18 20  1  0  0  0  0
 18 21  1  0  0  0  0
 22 23  2  0  0  0  0
 22 24  1  0  0  0  0
 24 25  1  0  0  0  0
 24 26  1  0  0  0  0
 26 27  1  0  0  0  0
 26 28  1  0  0  0  0
 26 29  1  0  0  0  0
M  END
$$$$

  -OEChem-02102214153D

 29 28  0     1  0  0  0  0  0999 V2000
   -3.3655   -3.4354    1.3576 H   0  0  0  0  0  0  0  0  0  0  0  0
   -3.3354   -2.4681    0.8479 C   0  0  0  0  0  0  0  0  0  0  0  0
   -3.9751   -1.7660    1.3881 H   0  0  0  0  0  0  0  0  0  0  0  0
   -3.7188   -2.5928   -0.1677 H   0  0  0  0  0  0  0  0  0  0  0  0
   -1.9121   -1.9451    0.8036 C   0  0  0  0  0  0  0  0  0  0  0  0
   -0.9983   -2.6219    1.2473 O   0  0  0  0  0  0  0  0  0  0  0  0
   -1.6518   -0.7074    0.2548 N   0  0  0  0  0  0  0  0  0  0  0  0
   -2.4522   -0.1346   -0.0095 H   0  0  0  0  0  0  0  0  0  0  0  0
   -0.3441   -0.0367    0.2996 C   0  0  1  0  0  0  0  0  0  0  0  0
    0.2817   -0.4806    1.0810 H   0  0  0  0  0  0  0  0  0  0  0  0
    0.3513   -0.1638   -1.0711 C   0  0  0  0  0  0  0  0  0  0  0  0
   -0.3834   -0.4586   -1.8273 H   0  0  0  0  0  0  0  0  0  0  0  0
    0.7493    0.8068   -1.3839 H   0  0  0  0  0  0  0  0  0  0  0  0
    1.4853   -1.2008   -1.0392 C   0  0  0  0  0  0  0  0  0  0  0  0
    1.3887   -1.8687   -0.1762 H   0  0  0  0  0  0  0  0  0  0  0  0
    1.4251   -1.8287   -1.9337 H   0  0  0  0  0  0  0  0  0  0  0  0
    3.1251   -0.3675   -1.0149 S   0  0  0  0  0  0  0  0  0  0  0  0
    3.2913    0.2369   -2.7422 C   0  0  0  0  0  0  0  0  0  0  0  0
    2.4949    0.9477   -2.9798 H   0  0  0  0  0  0  0  0  0  0  0  0
    4.2551    0.7379   -2.8722 H   0  0  0  0  0  0  0  0  0  0  0  0
    3.2358   -0.6014   -3.4428 H   0  0  0  0  0  0  0  0  0  0  0  0
   -0.5154    1.4465    0.6835 C   0  0  0  0  0  0  0  0  0  0  0  0
   -1.4436    2.0936    0.2109 O   0  0  0  0  0  0  0  0  0  0  0  0
    0.3166    2.0305    1.6201 N   0  0  0  0  0  0  0  0  0  0  0  0
    1.0876    1.4717    1.9764 H   0  0  0  0  0  0  0  0  0  0  0  0
    0.2000    3.4217    2.0390 C   0  0  0  0  0  0  0  0  0  0  0  0
   -0.7902    3.6123    2.4661 H   0  0  0  0  0  0  0  0  0  0  0  0
    0.9530    3.6513    2.7990 H   0  0  0  0  0  0  0  0  0  0  0  0
    0.3521    4.0924    1.1868 H   0  0  0  0  0  0  0  0  0  0  0  0
  1  2  1  0  0  0  0
  2  3  1  0  0  0  0
  2  4  1  0  0  0  0
  2  5  1  0  0  0  0
  5  6  2  0  0  0  0
  5  7  1  0  0  0  0
  7  8  1  0  0  0  0
  7  9  1  0  0  0  0
  9 10  1  0  0  0  0
  9 11  1  0  0  0  0
  9 22  1  0  0  0  0
 11 12  1  0  0  0  0
 11 13  1  0  0  0  0
 11 14  1  0  0  0  0
 14 15  1  0  0  0  0
 14 16  1  0  0  0  0
 14 17  1  0  0  0  0
 17 18  1  0  0  0  0
 18 19  1  0  0  0  0
 18 20  1  0  0  0  0
 18 21  1  0  0  0  0
 22 23  2  0  0  0  0
 22 24  1  0  0  0  0
 24 25  1  0  0  0  0
 24 26  1  0  0  0  0
 26 27  1  0  0  0  0
 26 28  1  0  0  0  0
 26 29  1  0  0  0  0
M  END
$$$$

  -OEChem-02102214153D

 29 28  0     1  0  0  0  0  0999 V2000
   -3.3526   -3.4521    1.3499 H   0  0  0  0  0  0  0  0  0  0  0  0
   -3.3283   -2.4830    0.8434 C   0  0  0  0  0  0  0  0  0  0  0  0
   -3.9685   -1.7850    1.3884 H   0  0  0  0  0  0  0  0  0  0  0  0
   -3.7148   -2.6056   -0.1712 H   0  0  0  0  0  0  0  0  0  0  0  0
   -1.9072   -1.9544    0.7953 C   0  0  0  0  0  0  0  0  0  0  0  0
   -0.9888   -2.6301    1.2307 O   0  0  0  0  0  0  0  0  0  0  0  0
   -1.6572   -0.7122    0.2519 N   0  0  0  0  0  0  0  0  0  0  0  0
   -2.4633   -0.1449   -0.0061 H   0  0  0  0  0  0  0  0  0  0  0  0
   -0.3548   -0.0307    0.2889 C   0  0  1  0  0  0  0  0  0  0  0  0
    0.2793   -0.4784    1.0618 H   0  0  0  0  0  0  0  0  0  0  0  0
    0.3375   -0.1497   -1.0831 C   0  0  0  0  0  0  0  0  0  0  0  0
   -0.3957   -0.4621   -1.8338 H   0  0  0  0  0  0  0  0  0  0  0  0
    0.7253    0.8212   -1.4064 H   0  0  0  0  0  0  0  0  0  0  0  0
    1.4760   -1.1760   -1.0379 C   0  0  0  0  0  0  0  0  0  0  0  0
    1.2408   -1.9859   -0.3382 H   0  0  0  0  0  0  0  0  0  0  0  0
    1.5991   -1.6281   -2.0270 H   0  0  0  0  0  0  0  0  0  0  0  0
    3.0524   -0.3544   -0.5636 S   0  0  0  0  0  0  0  0  0  0  0  0
    3.5383    0.5214   -2.1046 C   0  0  0  0  0  0  0  0  0  0  0  0
    2.7912    1.2731   -2.3736 H   0  0  0  0  0  0  0  0  0  0  0  0
    4.4997    1.0236   -1.9616 H   0  0  0  0  0  0  0  0  0  0  0  0
    3.6353   -0.1898   -2.9303 H   0  0  0  0  0  0  0  0  0  0  0  0
   -0.5256    1.4498    0.6808 C   0  0  0  0  0  0  0  0  0  0  0  0
   -1.4572    2.0986    0.2175 O   0  0  0  0  0  0  0  0  0  0  0  0
    0.3156    2.0296    1.6118 N   0  0  0  0  0  0  0  0  0  0  0  0
    1.0917    1.4690    1.9548 H   0  0  0  0  0  0  0  0  0  0  0  0
    0.2056    3.4195    2.0364 C   0  0  0  0  0  0  0  0  0  0  0  0
   -0.7812    3.6113    2.4709 H   0  0  0  0  0  0  0  0  0  0  0  0
    0.9644    3.6445    2.7921 H   0  0  0  0  0  0  0  0  0  0  0  0
    0.3536    4.0929    1.1855 H   0  0  0  0  0  0  0  0  0  0  0  0
  1  2  1  0  0  0  0
  2  3  1  0  0  0  0
  2  4  1  0  0  0  0
  2  5  1  0  0  0  0
  5  6  2  0  0  0  0
  5  7  1  0  0  0  0
  7  8  1  0  0  0  0
  7  9  1  0  0  0  0
  9 10  1  0  0  0  0
  9 11  1  0  0  0  0
  9 22  1  0  0  0  0
 11 12  1  0  0  0  0
 11 13  1  0  0  0  0
 11 14  1  0  0  0  0
 14 15  1  0  0  0  0
 14 16  1  0  0  0  0
 14 17  1  0  0  0  0
 17 18  1  0  0  0  0
 18 19  1  0  0  0  0
 18 20  1  0  0  0  0
 18 21  1  0  0  0  0
 22 23  2  0  0  0  0
 22 24  1  0  0  0  0
 24 25  1  0  0  0  0
 24 26  1  0  0  0  0
 26 27  1  0  0  0  0
 26 28  1  0  0  0  0
 26 29  1  0  0  0  0
M  END
$$$$

  -OEChem-02102214153D

 29 28  0     1  0  0  0  0  0999 V2000
   -3.3488   -3.4556    1.3461 H   0  0  0  0  0  0  0  0  0  0  0  0
   -3.3272   -2.4851    0.8425 C   0  0  0  0  0  0  0  0  0  0  0  0
   -3.9604   -1.7877    1.3961 H   0  0  0  0  0  0  0  0  0  0  0  0
   -3.7240   -2.6035   -0.1686 H   0  0  0  0  0  0  0  0  0  0  0  0
   -1.9057   -1.9588    0.7826 C   0  0  0  0  0  0  0  0  0  0  0  0
   -0.9863   -2.6344    1.2157 O   0  0  0  0  0  0  0  0  0  0  0  0
   -1.6585   -0.7168    0.2372 N   0  0  0  0  0  0  0  0  0  0  0  0
   -2.4666   -0.1512   -0.0180 H   0  0  0  0  0  0  0  0  0  0  0  0
   -0.3575   -0.0314    0.2711 C   0  0  1  0  0  0  0  0  0  0  0  0
    0.2710   -0.4809    1.0476 H   0  0  0  0  0  0  0  0  0  0  0  0
    0.3413   -0.1606   -1.0971 C   0  0  0  0  0  0  0  0  0  0  0  0
   -0.3850   -0.4792   -1.8517 H   0  0  0  0  0  0  0  0  0  0  0  0
    0.7333    0.8070   -1.4238 H   0  0  0  0  0  0  0  0  0  0  0  0
    1.4815   -1.1809   -1.0339 C   0  0  0  0  0  0  0  0  0  0  0  0
    1.1420   -2.0920   -0.5284 H   0  0  0  0  0  0  0  0  0  0  0  0
    1.7845   -1.4596   -2.0479 H   0  0  0  0  0  0  0  0  0  0  0  0
    2.9294   -0.4685   -0.1454 S   0  0  0  0  0  0  0  0  0  0  0  0
    3.6351    0.7113   -1.3648 C   0  0  0  0  0  0  0  0  0  0  0  0
    2.9304    1.5212   -1.5719 H   0  0  0  0  0  0  0  0  0  0  0  0
    4.5580    1.1472   -0.9709 H   0  0  0  0  0  0  0  0  0  0  0  0
    3.8652    0.1954   -2.3016 H   0  0  0  0  0  0  0  0  0  0  0  0
   -0.5209    1.4499    0.6600 C   0  0  0  0  0  0  0  0  0  0  0  0
   -1.4516    2.1022    0.2001 O   0  0  0  0  0  0  0  0  0  0  0  0
    0.3269    2.0262    1.5869 N   0  0  0  0  0  0  0  0  0  0  0  0
    1.0986    1.4592    1.9306 H   0  0  0  0  0  0  0  0  0  0  0  0
    0.2202    3.4145    2.0172 C   0  0  0  0  0  0  0  0  0  0  0  0
   -0.7615    3.6031    2.4643 H   0  0  0  0  0  0  0  0  0  0  0  0
    0.9876    3.6390    2.7640 H   0  0  0  0  0  0  0  0  0  0  0  0
    0.3561    4.0904    1.1665 H   0  0  0  0  0  0  0  0  0  0  0  0
  1  2  1  0  0  0  0
  2  3  1  0  0  0  0
  2  4  1  0  0  0  0
  2  5  1  0  0  0  0
  5  6  2  0  0  0  0
  5  7  1  0  0  0  0
  7  8  1  0  0  0  0
  7  9  1  0  0  0  0
  9 10  1  0  0  0  0
  9 11  1  0  0  0  0
  9 22  1  0  0  0  0
 11 12  1  0  0  0  0
 11 13  1  0  0  0  0
 11 14  1  0  0  0  0
 14 15  1  0  0  0  0
 14 16  1  0  0  0  0
 14 17  1  0  0  0  0
 17 18  1  0  0  0  0
 18 19  1  0  0  0  0
 18 20  1  0  0  0  0
 18 21  1  0  0  0  0
 22 23  2  0  0  0  0
 22 24  1  0  0  0  0
 24 25  1  0  0  0  0
 24 26  1  0  0  0  0
 26 27  1  0  0  0  0
 26 28  1  0  0  0  0
 26 29  1  0  0  0  0
M  END
$$$$

  -OEChem-02102214153D

 29 28  0     1  0  0  0  0  0999 V2000
   -3.3561   -3.4398    1.3223 H   0  0  0  0  0  0  0  0  0  0  0  0
   -3.3247   -2.4642    0.8293 C   0  0  0  0  0  0  0  0  0  0  0  0
   -3.9589   -1.7688    1.3844 H   0  0  0  0  0  0  0  0  0  0  0  0
   -3.7124   -2.5699   -0.1867 H   0  0  0  0  0  0  0  0  0  0  0  0
   -1.9000   -1.9454    0.7873 C   0  0  0  0  0  0  0  0  0  0  0  0
   -0.9914   -2.6213    1.2414 O   0  0  0  0  0  0  0  0  0  0  0  0
   -1.6397   -0.7122    0.2283 N   0  0  0  0  0  0  0  0  0  0  0  0
   -2.4417   -0.1489   -0.0497 H   0  0  0  0  0  0  0  0  0  0  0  0
   -0.3358   -0.0326    0.2630 C   0  0  1  0  0  0  0  0  0  0  0  0
    0.2733   -0.4786    1.0551 H   0  0  0  0  0  0  0  0  0  0  0  0
    0.3668   -0.1999   -1.1017 C   0  0  0  0  0  0  0  0  0  0  0  0
   -0.3592   -0.5136   -1.8588 H   0  0  0  0  0  0  0  0  0  0  0  0
    0.7719    0.7604   -1.4343 H   0  0  0  0  0  0  0  0  0  0  0  0
    1.5081   -1.2224   -1.0444 C   0  0  0  0  0  0  0  0  0  0  0  0
    1.1021   -2.1975   -0.7527 H   0  0  0  0  0  0  0  0  0  0  0  0
    1.9561   -1.3320   -2.0368 H   0  0  0  0  0  0  0  0  0  0  0  0
    2.8103   -0.7296    0.1658 S   0  0  0  0  0  0  0  0  0  0  0  0
    3.5454    0.7732   -0.5942 C   0  0  0  0  0  0  0  0  0  0  0  0
    2.8111    1.5825   -0.6380 H   0  0  0  0  0  0  0  0  0  0  0  0
    4.3993    1.1119   -0.0001 H   0  0  0  0  0  0  0  0  0  0  0  0
    3.8909    0.5543   -1.6090 H   0  0  0  0  0  0  0  0  0  0  0  0
   -0.4857    1.4549    0.6298 C   0  0  0  0  0  0  0  0  0  0  0  0
   -1.4013    2.1137    0.1500 O   0  0  0  0  0  0  0  0  0  0  0  0
    0.3639    2.0323    1.5544 N   0  0  0  0  0  0  0  0  0  0  0  0
    1.0904    1.4427    1.9542 H   0  0  0  0  0  0  0  0  0  0  0  0
    0.2413    3.4128    2.0047 C   0  0  0  0  0  0  0  0  0  0  0  0
   -0.7368    3.5785    2.4684 H   0  0  0  0  0  0  0  0  0  0  0  0
    1.0167    3.6399    2.7427 H   0  0  0  0  0  0  0  0  0  0  0  0
    0.3532    4.1028    1.1618 H   0  0  0  0  0  0  0  0  0  0  0  0
  1  2  1  0  0  0  0
  2  3  1  0  0  0  0
  2  4  1  0  0  0  0
  2  5  1  0  0  0  0
  5  6  2  0  0  0  0
  5  7  1  0  0  0  0
  7  8  1  0  0  0  0
  7  9  1  0  0  0  0
  9 10  1  0  0  0  0
  9 11  1  0  0  0  0
  9 22  1  0  0  0  0
 11 12  1  0  0  0  0
 11 13  1  0  0  0  0
 11 14  1  0  0  0  0
 14 15  1  0  0  0  0
 14 16  1  0  0  0  0
 14 17  1  0  0  0  0
 17 18  1  0  0  0  0
 18 19  1  0  0  0  0
 18 20  1  0  0  0  0
 18 21  1  0  0  0  0
 22 23  2  0  0  0  0
 22 24  1  0  0  0  0
 24 25  1  0  0  0  0
 24 26  1  0  0  0  0
 26 27  1  0  0  0  0
 26 28  1  0  0  0  0
 26 29  1  0  0  0  0
M  END
$$$$

  -OEChem-02102214153D

 29 28  0     1  0  0  0  0  0999 V2000
   -3.3672   -3.4306    1.3123 H   0  0  0  0  0  0  0  0  0  0  0  0
   -3.3250   -2.4607    0.8087 C   0  0  0  0  0  0  0  0  0  0  0  0
   -3.9775   -1.7612    1.3368 H   0  0  0  0  0  0  0  0  0  0  0  0
   -3.6838   -2.5799   -0.2165 H   0  0  0  0  0  0  0  0  0  0  0  0
   -1.9013   -1.9367    0.8018 C   0  0  0  0  0  0  0  0  0  0  0  0
   -1.0044   -2.6044    1.2890 O   0  0  0  0  0  0  0  0  0  0  0  0
   -1.6314   -0.7060    0.2418 N   0  0  0  0  0  0  0  0  0  0  0  0
   -2.4281   -0.1512   -0.0666 H   0  0  0  0  0  0  0  0  0  0  0  0
   -0.3318   -0.0194    0.3011 C   0  0  1  0  0  0  0  0  0  0  0  0
    0.2577   -0.4566    1.1100 H   0  0  0  0  0  0  0  0  0  0  0  0
    0.3813   -0.1933   -1.0616 C   0  0  0  0  0  0  0  0  0  0  0  0
   -0.3436   -0.4788   -1.8309 H   0  0  0  0  0  0  0  0  0  0  0  0
    0.7949    0.7734   -1.3668 H   0  0  0  0  0  0  0  0  0  0  0  0
    1.5392   -1.2057   -1.0608 C   0  0  0  0  0  0  0  0  0  0  0  0
    1.1114   -2.2135   -1.0291 H   0  0  0  0  0  0  0  0  0  0  0  0
    2.1064   -1.1169   -1.9926 H   0  0  0  0  0  0  0  0  0  0  0  0
    2.6799   -1.0356    0.3783 S   0  0  0  0  0  0  0  0  0  0  0  0
    3.4909    0.5770    0.0367 C   0  0  0  0  0  0  0  0  0  0  0  0
    2.7530    1.3841    0.0241 H   0  0  0  0  0  0  0  0  0  0  0  0
    4.2328    0.7941    0.8109 H   0  0  0  0  0  0  0  0  0  0  0  0
    3.9966    0.5474   -0.9330 H   0  0  0  0  0  0  0  0  0  0  0  0
   -0.5035    1.4691    0.6551 C   0  0  0  0  0  0  0  0  0  0  0  0
   -1.3988    2.1232    0.1326 O   0  0  0  0  0  0  0  0  0  0  0  0
    0.3183    2.0606    1.5960 N   0  0  0  0  0  0  0  0  0  0  0  0
    1.0053    1.4668    2.0545 H   0  0  0  0  0  0  0  0  0  0  0  0
    0.1732    3.4443    2.0304 C   0  0  0  0  0  0  0  0  0  0  0  0
   -0.8130    3.6038    2.4792 H   0  0  0  0  0  0  0  0  0  0  0  0
    0.9361    3.6885    2.7759 H   0  0  0  0  0  0  0  0  0  0  0  0
    0.2889    4.1266    1.1816 H   0  0  0  0  0  0  0  0  0  0  0  0
  1  2  1  0  0  0  0
  2  3  1  0  0  0  0
  2  4  1  0  0  0  0
  2  5  1  0  0  0  0
  5  6  2  0  0  0  0
  5  7  1  0  0  0  0
  7  8  1  0  0  0  0
  7  9  1  0  0  0  0
  9 10  1  0  0  0  0
  9 11  1  0  0  0  0
  9 22  1  0  0  0  0
 11 12  1  0  0  0  0
 11 13  1  0  0  0  0
 11 14  1  0  0  0  0
 14 15  1  0  0  0  0
 14 16  1  0  0  0  0
 14 17  1  0  0  0  0
 17 18  1  0  0  0  0
 18 19  1  0  0  0  0
 18 20  1  0  0  0  0
 18 21  1  0  0  0  0
 22 23  2  0  0  0  0
 22 24  1  0  0  0  0
 24 25  1  0  0  0  0
 24 26  1  0  0  0  0
 26 27  1  0  0  0  0
 26 28  1  0  0  0  0
 26 29  1  0  0  0  0
M  END
$$$$

  -OEChem-02102214153D

 29 28  0     1  0  0  0  0  0999 V2000
   -3.3861   -3.4389    1.2740 H   0  0  0  0  0  0  0  0  0  0  0  0
   -3.3359   -2.4683    0.7727 C   0  0  0  0  0  0  0  0  0  0  0  0
   -4.0325   -1.7831    1.2616 H   0  0  0  0  0  0  0  0  0  0  0  0
   -3.6323   -2.5961   -0.2711 H   0  0  0  0  0  0  0  0  0  0  0  0
   -1.9254   -1.9144    0.8465 C   0  0  0  0  0  0  0  0  0  0  0  0
   -1.0535   -2.5487    1.4160 O   0  0  0  0  0  0  0  0  0  0  0  0
   -1.6421   -0.6920    0.2747 N   0  0  0  0  0  0  0  0  0  0  0  0
   -2.4253   -0.1601   -0.1007 H   0  0  0  0  0  0  0  0  0  0  0  0
   -0.3471    0.0009    0.3573 C   0  0  1  0  0  0  0  0  0  0  0  0
    0.2304   -0.4143    1.1844 H   0  0  0  0  0  0  0  0  0  0  0  0
    0.3800   -0.1742   -1.0017 C   0  0  0  0  0  0  0  0  0  0  0  0
   -0.3418   -0.4342   -1.7830 H   0  0  0  0  0  0  0  0  0  0  0  0
    0.7990    0.7980   -1.2821 H   0  0  0  0  0  0  0  0  0  0  0  0
    1.5520   -1.1764   -1.0492 C   0  0  0  0  0  0  0  0  0  0  0  0
    1.1329   -2.1581   -1.2938 H   0  0  0  0  0  0  0  0  0  0  0  0
    2.2343   -0.9034   -1.8604 H   0  0  0  0  0  0  0  0  0  0  0  0
    2.5036   -1.3836    0.5150 S   0  0  0  0  0  0  0  0  0  0  0  0
    3.4527    0.1872    0.5758 C   0  0  0  0  0  0  0  0  0  0  0  0
    2.7746    1.0448    0.5900 H   0  0  0  0  0  0  0  0  0  0  0  0
    4.0734    0.2150    1.4762 H   0  0  0  0  0  0  0  0  0  0  0  0
    4.1038    0.2691   -0.2996 H   0  0  0  0  0  0  0  0  0  0  0  0
   -0.5509    1.4927    0.6831 C   0  0  0  0  0  0  0  0  0  0  0  0
   -1.4282    2.1299    0.1110 O   0  0  0  0  0  0  0  0  0  0  0  0
    0.2334    2.1122    1.6380 N   0  0  0  0  0  0  0  0  0  0  0  0
    0.8871    1.5287    2.1539 H   0  0  0  0  0  0  0  0  0  0  0  0
    0.0542    3.5014    2.0416 C   0  0  0  0  0  0  0  0  0  0  0  0
   -0.9486    3.6553    2.4541 H   0  0  0  0  0  0  0  0  0  0  0  0
    0.7883    3.7704    2.8071 H   0  0  0  0  0  0  0  0  0  0  0  0
    0.1890    4.1692    1.1841 H   0  0  0  0  0  0  0  0  0  0  0  0
  1  2  1  0  0  0  0
  2  3  1  0  0  0  0
  2  4  1  0  0  0  0
  2  5  1  0  0  0  0
  5  6  2  0  0  0  0
  5  7  1  0  0  0  0
  7  8  1  0  0  0  0
  7  9  1  0  0  0  0
  9 10  1  0  0  0  0
  9 11  1  0  0  0  0
  9 22  1  0  0  0  0
 11 12  1  0  0  0  0
 11 13  1  0  0  0  0
 11 14  1  0  0  0  0
 14 15  1  0  0  0  0
 14 16  1  0  0  0  0
 14 17  1  0  0  0  0
 17 18  1  0  0  0  0
 18 19  1  0  0  0  0
 18 20  1  0  0  0  0
 18 21  1  0  0  0  0
 22 23  2  0  0  0  0
 22 24  1  0  0  0  0
 24 25  1  0  0  0  0
 24 26  1  0  0  0  0
 26 27  1  0  0  0  0
 26 28  1  0  0  0  0
 26 29  1  0  0  0  0
M  END
$$$$

  -OEChem-02102214153D

 29 28  0     1  0  0  0  0  0999 V2000
   -3.4248   -3.4314    1.2366 H   0  0  0  0  0  0  0  0  0  0  0  0
   -3.3617   -2.4600    0.7382 C   0  0  0  0  0  0  0  0  0  0  0  0
   -4.0947   -1.7853    1.1867 H   0  0  0  0  0  0  0  0  0  0  0  0
   -3.5973   -2.5924   -0.3204 H   0  0  0  0  0  0  0  0  0  0  0  0
   -1.9662   -1.8848    0.8903 C   0  0  0  0  0  0  0  0  0  0  0  0
   -1.1340   -2.4807    1.5525 O   0  0  0  0  0  0  0  0  0  0  0  0
   -1.6603   -0.6764    0.3005 N   0  0  0  0  0  0  0  0  0  0  0  0
   -2.4206   -0.1701   -0.1496 H   0  0  0  0  0  0  0  0  0  0  0  0
   -0.3645    0.0133    0.3980 C   0  0  1  0  0  0  0  0  0  0  0  0
    0.2047   -0.3814    1.2403 H   0  0  0  0  0  0  0  0  0  0  0  0
    0.3807   -0.1672   -0.9531 C   0  0  0  0  0  0  0  0  0  0  0  0
   -0.3383   -0.4173   -1.7403 H   0  0  0  0  0  0  0  0  0  0  0  0
    0.8022    0.8058   -1.2278 H   0  0  0  0  0  0  0  0  0  0  0  0
    1.5577   -1.1676   -1.0206 C   0  0  0  0  0  0  0  0  0  0  0  0
    1.1917   -2.0613   -1.5364 H   0  0  0  0  0  0  0  0  0  0  0  0
    2.3571   -0.7463   -1.6385 H   0  0  0  0  0  0  0  0  0  0  0  0
    2.2673   -1.7462    0.5763 S   0  0  0  0  0  0  0  0  0  0  0  0
    3.2939   -0.3051    1.0655 C   0  0  0  0  0  0  0  0  0  0  0  0
    2.6789    0.5953    1.1425 H   0  0  0  0  0  0  0  0  0  0  0  0
    3.7644   -0.4938    2.0350 H   0  0  0  0  0  0  0  0  0  0  0  0
    4.0792   -0.1317    0.3238 H   0  0  0  0  0  0  0  0  0  0  0  0
   -0.5854    1.5113    0.6876 C   0  0  0  0  0  0  0  0  0  0  0  0
   -1.4399    2.1354    0.0683 O   0  0  0  0  0  0  0  0  0  0  0  0
    0.1699    2.1576    1.6485 N   0  0  0  0  0  0  0  0  0  0  0  0
    0.7912    1.5855    2.2138 H   0  0  0  0  0  0  0  0  0  0  0  0
   -0.0312    3.5541    2.0153 C   0  0  0  0  0  0  0  0  0  0  0  0
   -1.0439    3.7066    2.4030 H   0  0  0  0  0  0  0  0  0  0  0  0
    0.6842    3.8490    2.7890 H   0  0  0  0  0  0  0  0  0  0  0  0
    0.1148    4.2036    1.1457 H   0  0  0  0  0  0  0  0  0  0  0  0
  1  2  1  0  0  0  0
  2  3  1  0  0  0  0
  2  4  1  0  0  0  0
  2  5  1  0  0  0  0
  5  6  2  0  0  0  0
  5  7  1  0  0  0  0
  7  8  1  0  0  0  0
  7  9  1  0  0  0  0
  9 10  1  0  0  0  0
  9 11  1  0  0  0  0
  9 22  1  0  0  0  0
 11 12  1  0  0  0  0
 11 13  1  0  0  0  0
 11 14  1  0  0  0  0
 14 15  1  0  0  0  0
 14 16  1  0  0  0  0
 14 17  1  0  0  0  0
 17 18  1  0  0  0  0
 18 19  1  0  0  0  0
 18 20  1  0  0  0  0
 18 21  1  0  0  0  0
 22 23  2  0  0  0  0
 22 24  1  0  0  0  0
 24 25  1  0  0  0  0
 24 26  1  0  0  0  0
 26 27  1  0  0  0  0
 26 28  1  0  0  0  0
 26 29  1  0  0  0  0
M  END
$$$$

  -OEChem-02102214153D

 29 28  0     1  0  0  0  0  0999 V2000
   -3.4887   -3.4070    1.1974 H   0  0  0  0  0  0  0  0  0  0  0  0
   -3.4067   -2.4407    0.6919 C   0  0  0  0  0  0  0  0  0  0  0  0
   -4.1748   -1.7703    1.0850 H   0  0  0  0  0  0  0  0  0  0  0  0
   -3.5731   -2.5887   -0.3777 H   0  0  0  0  0  0  0  0  0  0  0  0
   -2.0311   -1.8449    0.9237 C   0  0  0  0  0  0  0  0  0  0  0  0
   -1.2535   -2.3951    1.6843 O   0  0  0  0  0  0  0  0  0  0  0  0
   -1.6960   -0.6536    0.3155 N   0  0  0  0  0  0  0  0  0  0  0  0
   -2.4249   -0.1770   -0.2122 H   0  0  0  0  0  0  0  0  0  0  0  0
   -0.3962    0.0276    0.4254 C   0  0  1  0  0  0  0  0  0  0  0  0
    0.1629   -0.3519    1.2818 H   0  0  0  0  0  0  0  0  0  0  0  0
    0.3776   -0.1609   -0.9099 C   0  0  0  0  0  0  0  0  0  0  0  0
   -0.3349   -0.4293   -1.6973 H   0  0  0  0  0  0  0  0  0  0  0  0
    0.7943    0.8091   -1.2023 H   0  0  0  0  0  0  0  0  0  0  0  0
    1.5542   -1.1644   -0.9606 C   0  0  0  0  0  0  0  0  0  0  0  0
    1.3120   -1.9162   -1.7187 H   0  0  0  0  0  0  0  0  0  0  0  0
    2.4527   -0.6436   -1.3067 H   0  0  0  0  0  0  0  0  0  0  0  0
    1.9646   -2.0756    0.5842 S   0  0  0  0  0  0  0  0  0  0  0  0
    3.0795   -0.8961    1.4433 C   0  0  0  0  0  0  0  0  0  0  0  0
    2.5761    0.0612    1.6014 H   0  0  0  0  0  0  0  0  0  0  0  0
    3.3747   -1.3025    2.4153 H   0  0  0  0  0  0  0  0  0  0  0  0
    3.9809   -0.7255    0.8474 H   0  0  0  0  0  0  0  0  0  0  0  0
   -0.6223    1.5321    0.6765 C   0  0  0  0  0  0  0  0  0  0  0  0
   -1.4566    2.1455    0.0197 O   0  0  0  0  0  0  0  0  0  0  0  0
    0.1118    2.1987    1.6400 N   0  0  0  0  0  0  0  0  0  0  0  0
    0.7170    1.6389    2.2341 H   0  0  0  0  0  0  0  0  0  0  0  0
   -0.0951    3.6034    1.9694 C   0  0  0  0  0  0  0  0  0  0  0  0
   -1.1124    3.7641    2.3411 H   0  0  0  0  0  0  0  0  0  0  0  0
    0.6108    3.9185    2.7438 H   0  0  0  0  0  0  0  0  0  0  0  0
    0.0607    4.2306    1.0854 H   0  0  0  0  0  0  0  0  0  0  0  0
  1  2  1  0  0  0  0
  2  3  1  0  0  0  0
  2  4  1  0  0  0  0
  2  5  1  0  0  0  0
  5  6  2  0  0  0  0
  5  7  1  0  0  0  0
  7  8  1  0  0  0  0
  7  9  1  0  0  0  0
  9 10  1  0  0  0  0
  9 11  1  0  0  0  0
  9 22  1  0  0  0  0
 11 12  1  0  0  0  0
 11 13  1  0  0  0  0
 11 14  1  0  0  0  0
 14 15  1  0  0  0  0
 14 16  1  0  0  0  0
 14 17  1  0  0  0  0
 17 18  1  0  0  0  0
 18 19  1  0  0  0  0
 18 20  1  0  0  0  0
 18 21  1  0  0  0  0
 22 23  2  0  0  0  0
 22 24  1  0  0  0  0
 24 25  1  0  0  0  0
 24 26  1  0  0  0  0
 26 27  1  0  0  0  0
 26 28  1  0  0  0  0
 26 29  1  0  0  0  0
M  END
$$$$

  -OEChem-02102214153D

 29 28  0     1  0  0  0  0  0999 V2000
   -3.3463   -3.7284    0.7400 H   0  0  0  0  0  0  0  0  0  0  0  0
   -3.4700   -2.6474    0.6288 C   0  0  0  0  0  0  0  0  0  0  0  0
   -3.8099   -2.2328    1.5809 H   0  0  0  0  0  0  0  0  0  0  0  0
   -4.2273   -2.4571   -0.1355 H   0  0  0  0  0  0  0  0  0  0  0  0
   -2.1549   -2.0069    0.2259 C   0  0  0  0  0  0  0  0  0  0  0  0
   -1.1711   -2.7181    0.1111 O   0  0  0  0  0  0  0  0  0  0  0  0
   -2.1273   -0.6361    0.0404 N   0  0  0  0  0  0  0  0  0  0  0  0
   -2.9907   -0.1546    0.2848 H   0  0  0  0  0  0  0  0  0  0  0  0
   -0.9982    0.2567   -0.2981 C   0  0  1  0  0  0  0  0  0  0  0  0
   -1.4174    0.7050   -1.2051 H   0  0  0  0  0  0  0  0  0  0  0  0
    0.2676   -0.3753   -0.9574 C   0  0  0  0  0  0  0  0  0  0  0  0
   -0.0102   -1.3079   -1.4532 H   0  0  0  0  0  0  0  0  0  0  0  0
    0.5541    0.2979   -1.7724 H   0  0  0  0  0  0  0  0  0  0  0  0
    1.5707   -0.6150   -0.1584 C   0  0  0  0  0  0  0  0  0  0  0  0
    1.9564   -1.6017   -0.4362 H   0  0  0  0  0  0  0  0  0  0  0  0
    2.3134    0.1235   -0.4762 H   0  0  0  0  0  0  0  0  0  0  0  0
    1.4593   -0.5436    1.6776 S   0  0  0  0  0  0  0  0  0  0  0  0
    3.1458   -1.0824    2.1609 C   0  0  0  0  0  0  0  0  0  0  0  0
    3.8965   -0.4031    1.7462 H   0  0  0  0  0  0  0  0  0  0  0  0
    3.2401   -1.0867    3.2509 H   0  0  0  0  0  0  0  0  0  0  0  0
    3.3401   -2.0933    1.7895 H   0  0  0  0  0  0  0  0  0  0  0  0
   -0.9366    1.5537    0.5516 C   0  0  0  0  0  0  0  0  0  0  0  0
   -1.9970    2.1395    0.7448 O   0  0  0  0  0  0  0  0  0  0  0  0
    0.2029    2.0805    1.1265 N   0  0  0  0  0  0  0  0  0  0  0  0
    1.0117    1.4638    1.1432 H   0  0  0  0  0  0  0  0  0  0  0  0
    0.1832    3.2129    2.0444 C   0  0  0  0  0  0  0  0  0  0  0  0
   -0.3989    2.9699    2.9394 H   0  0  0  0  0  0  0  0  0  0  0  0
    1.2023    3.4673    2.3510 H   0  0  0  0  0  0  0  0  0  0  0  0
   -0.2599    4.0908    1.5627 H   0  0  0  0  0  0  0  0  0  0  0  0
  1  2  1  0  0  0  0
  2  3  1  0  0  0  0
  2  4  1  0  0  0  0
  2  5  1  0  0  0  0
  5  6  2  0  0  0  0
  5  7  1  0  0  0  0
  7  8  1  0  0  0  0
  7  9  1  0  0  0  0
  9 10  1  0  0  0  0
  9 11  1  0  0  0  0
  9 22  1  0  0  0  0
 11 12  1  0  0  0  0
 11 13  1  0  0  0  0
 11 14  1  0  0  0  0
 14 15  1  0  0  0  0
 14 16  1  0  0  0  0
 14 17  1  0  0  0  0
 17 18  1  0  0  0  0
 18 19  1  0  0  0  0
 18 20  1  0  0  0  0
 18 21  1  0  0  0  0
 22 23  2  0  0  0  0
 22 24  1  0  0  0  0
 24 25  1  0  0  0  0
 24 26  1  0  0  0  0
 26 27  1  0  0  0  0
 26 28  1  0  0  0  0
 26 29  1  0  0  0  0
M  END
$$$$

  -OEChem-02102214153D

 29 28  0     1  0  0  0  0  0999 V2000
   -3.6685   -3.5862    0.5212 H   0  0  0  0  0  0  0  0  0  0  0  0
   -3.6793   -2.4974    0.4182 C   0  0  0  0  0  0  0  0  0  0  0  0
   -3.9964   -2.0578    1.3670 H   0  0  0  0  0  0  0  0  0  0  0  0
   -4.3961   -2.2254   -0.3602 H   0  0  0  0  0  0  0  0  0  0  0  0
   -2.2969   -1.9913    0.0502 C   0  0  0  0  0  0  0  0  0  0  0  0
   -1.3871   -2.7987   -0.0248 O   0  0  0  0  0  0  0  0  0  0  0  0
   -2.1391   -0.6321   -0.1581 N   0  0  0  0  0  0  0  0  0  0  0  0
   -2.9700   -0.0780    0.0421 H   0  0  0  0  0  0  0  0  0  0  0  0
   -0.9336    0.1726   -0.4595 C   0  0  1  0  0  0  0  0  0  0  0  0
   -1.2330    0.6079   -1.4185 H   0  0  0  0  0  0  0  0  0  0  0  0
    0.3643   -0.5635   -0.9204 C   0  0  0  0  0  0  0  0  0  0  0  0
    0.1098   -1.5339   -1.3478 H   0  0  0  0  0  0  0  0  0  0  0  0
    0.7689    0.0112   -1.7600 H   0  0  0  0  0  0  0  0  0  0  0  0
    1.5439   -0.7456    0.0566 C   0  0  0  0  0  0  0  0  0  0  0  0
    2.0969   -1.6452   -0.2331 H   0  0  0  0  0  0  0  0  0  0  0  0
    2.2264    0.1034   -0.0490 H   0  0  0  0  0  0  0  0  0  0  0  0
    1.0651   -0.8854    1.8303 S   0  0  0  0  0  0  0  0  0  0  0  0
    2.6790   -1.2762    2.6118 C   0  0  0  0  0  0  0  0  0  0  0  0
    3.0713   -2.2186    2.2177 H   0  0  0  0  0  0  0  0  0  0  0  0
    2.5571   -1.3746    3.6946 H   0  0  0  0  0  0  0  0  0  0  0  0
    3.4026   -0.4808    2.4109 H   0  0  0  0  0  0  0  0  0  0  0  0
   -0.8524    1.4678    0.3903 C   0  0  0  0  0  0  0  0  0  0  0  0
   -1.8790    2.1300    0.5001 O   0  0  0  0  0  0  0  0  0  0  0  0
    0.2871    1.9230    1.0260 N   0  0  0  0  0  0  0  0  0  0  0  0
    1.0202    1.2279    1.1441 H   0  0  0  0  0  0  0  0  0  0  0  0
    0.2848    3.0695    1.9267 C   0  0  0  0  0  0  0  0  0  0  0  0
   -0.3673    2.8798    2.7858 H   0  0  0  0  0  0  0  0  0  0  0  0
    1.2972    3.2624    2.2942 H   0  0  0  0  0  0  0  0  0  0  0  0
   -0.0682    3.9664    1.4069 H   0  0  0  0  0  0  0  0  0  0  0  0
  1  2  1  0  0  0  0
  2  3  1  0  0  0  0
  2  4  1  0  0  0  0
  2  5  1  0  0  0  0
  5  6  2  0  0  0  0
  5  7  1  0  0  0  0
  7  8  1  0  0  0  0
  7  9  1  0  0  0  0
  9 10  1  0  0  0  0
  9 11  1  0  0  0  0
  9 22  1  0  0  0  0
 11 12  1  0  0  0  0
 11 13  1  0  0  0  0
 11 14  1  0  0  0  0
 14 15  1  0  0  0  0
 14 16  1  0  0  0  0
 14 17  1  0  0  0  0
 17 18  1  0  0  0  0
 18 19  1  0  0  0  0
 18 20  1  0  0  0  0
 18 21  1  0  0  0  0
 22 23  2  0  0  0  0
 22 24  1  0  0  0  0
 24 25  1  0  0  0  0
 24 26  1  0  0  0  0
 26 27  1  0  0  0  0
 26 28  1  0  0  0  0
 26 29  1  0  0  0  0
M  END
$$$$

  -OEChem-02102214153D

 29 28  0     1  0  0  0  0  0999 V2000
   -3.9947   -3.3166    0.2356 H   0  0  0  0  0  0  0  0  0  0  0  0
   -3.8917   -2.2289    0.2858 C   0  0  0  0  0  0  0  0  0  0  0  0
   -4.0390   -1.9101    1.3206 H   0  0  0  0  0  0  0  0  0  0  0  0
   -4.6611   -1.7736   -0.3424 H   0  0  0  0  0  0  0  0  0  0  0  0
   -2.5146   -1.8079   -0.1935 C   0  0  0  0  0  0  0  0  0  0  0  0
   -1.7340   -2.6794   -0.5322 O   0  0  0  0  0  0  0  0  0  0  0  0
   -2.2285   -0.4533   -0.2146 N   0  0  0  0  0  0  0  0  0  0  0  0
   -2.9723    0.1286    0.1689 H   0  0  0  0  0  0  0  0  0  0  0  0
   -0.9806    0.2967   -0.4947 C   0  0  1  0  0  0  0  0  0  0  0  0
   -1.2550    0.8794   -1.3799 H   0  0  0  0  0  0  0  0  0  0  0  0
    0.2650   -0.4877   -1.0277 C   0  0  0  0  0  0  0  0  0  0  0  0
   -0.0386   -1.4139   -1.5127 H   0  0  0  0  0  0  0  0  0  0  0  0
    0.6883    0.1192   -1.8346 H   0  0  0  0  0  0  0  0  0  0  0  0
    1.4418   -0.7835   -0.0831 C   0  0  0  0  0  0  0  0  0  0  0  0
    2.0745   -1.5459   -0.5496 H   0  0  0  0  0  0  0  0  0  0  0  0
    2.0609    0.1098    0.0390 H   0  0  0  0  0  0  0  0  0  0  0  0
    0.8945   -1.3973    1.5627 S   0  0  0  0  0  0  0  0  0  0  0  0
    2.4993   -1.8185    2.3471 C   0  0  0  0  0  0  0  0  0  0  0  0
    3.1383   -0.9328    2.4089 H   0  0  0  0  0  0  0  0  0  0  0  0
    2.3327   -2.2019    3.3585 H   0  0  0  0  0  0  0  0  0  0  0  0
    3.0150   -2.5867    1.7631 H   0  0  0  0  0  0  0  0  0  0  0  0
   -0.8045    1.4104    0.5736 C   0  0  0  0  0  0  0  0  0  0  0  0
   -1.7894    2.0929    0.8372 O   0  0  0  0  0  0  0  0  0  0  0  0
    0.3764    1.7003    1.2310 N   0  0  0  0  0  0  0  0  0  0  0  0
    1.0623    0.9508    1.2234 H   0  0  0  0  0  0  0  0  0  0  0  0
    0.4572    2.6782    2.3101 C   0  0  0  0  0  0  0  0  0  0  0  0
   -0.1752    2.3747    3.1512 H   0  0  0  0  0  0  0  0  0  0  0  0
    1.4891    2.7649    2.6636 H   0  0  0  0  0  0  0  0  0  0  0  0
    0.1302    3.6635    1.9615 H   0  0  0  0  0  0  0  0  0  0  0  0
  1  2  1  0  0  0  0
  2  3  1  0  0  0  0
  2  4  1  0  0  0  0
  2  5  1  0  0  0  0
  5  6  2  0  0  0  0
  5  7  1  0  0  0  0
  7  8  1  0  0  0  0
  7  9  1  0  0  0  0
  9 10  1  0  0  0  0
  9 11  1  0  0  0  0
  9 22  1  0  0  0  0
 11 12  1  0  0  0  0
 11 13  1  0  0  0  0
 11 14  1  0  0  0  0
 14 15  1  0  0  0  0
 14 16  1  0  0  0  0
 14 17  1  0  0  0  0
 17 18  1  0  0  0  0
 18 19  1  0  0  0  0
 18 20  1  0  0  0  0
 18 21  1  0  0  0  0
 22 23  2  0  0  0  0
 22 24  1  0  0  0  0
 24 25  1  0  0  0  0
 24 26  1  0  0  0  0
 26 27  1  0  0  0  0
 26 28  1  0  0  0  0
 26 29  1  0  0  0  0
M  END
$$$$

  -OEChem-02102214153D

 29 28  0     1  0  0  0  0  0999 V2000
   -3.4626   -2.6731   -0.5013 H   0  0  0  0  0  0  0  0  0  0  0  0
   -3.4707   -2.4186    0.5612 C   0  0  0  0  0  0  0  0  0  0  0  0
   -3.5969   -3.3369    1.1414 H   0  0  0  0  0  0  0  0  0  0  0  0
   -4.3133   -1.7534    0.7644 H   0  0  0  0  0  0  0  0  0  0  0  0
   -2.1691   -1.7382    0.9394 C   0  0  0  0  0  0  0  0  0  0  0  0
   -1.5084   -2.1659    1.8736 O   0  0  0  0  0  0  0  0  0  0  0  0
   -1.7923   -0.5777    0.2959 N   0  0  0  0  0  0  0  0  0  0  0  0
   -2.4306   -0.2011   -0.4011 H   0  0  0  0  0  0  0  0  0  0  0  0
   -0.4735    0.0627    0.4164 C   0  0  1  0  0  0  0  0  0  0  0  0
    0.0790   -0.3296    1.2757 H   0  0  0  0  0  0  0  0  0  0  0  0
    0.3428   -0.1468   -0.8873 C   0  0  0  0  0  0  0  0  0  0  0  0
   -0.3348   -0.4316   -1.6990 H   0  0  0  0  0  0  0  0  0  0  0  0
    0.8099    0.7981   -1.1858 H   0  0  0  0  0  0  0  0  0  0  0  0
    1.4631   -1.1906   -0.7869 C   0  0  0  0  0  0  0  0  0  0  0  0
    1.9815   -1.2507   -1.7491 H   0  0  0  0  0  0  0  0  0  0  0  0
    2.1949   -0.8721   -0.0382 H   0  0  0  0  0  0  0  0  0  0  0  0
    0.8297   -2.8596   -0.3554 S   0  0  0  0  0  0  0  0  0  0  0  0
    1.5751   -3.1624    1.2954 C   0  0  0  0  0  0  0  0  0  0  0  0
    1.2619   -2.3889    2.0026 H   0  0  0  0  0  0  0  0  0  0  0  0
    1.2482   -4.1334    1.6790 H   0  0  0  0  0  0  0  0  0  0  0  0
    2.6666   -3.1601    1.2272 H   0  0  0  0  0  0  0  0  0  0  0  0
   -0.6636    1.5811    0.6170 C   0  0  0  0  0  0  0  0  0  0  0  0
   -1.4392    2.2057   -0.0985 O   0  0  0  0  0  0  0  0  0  0  0  0
    0.0663    2.2550    1.5787 N   0  0  0  0  0  0  0  0  0  0  0  0
    0.6286    1.6958    2.2138 H   0  0  0  0  0  0  0  0  0  0  0  0
   -0.0965    3.6781    1.8498 C   0  0  0  0  0  0  0  0  0  0  0  0
   -1.1163    3.8893    2.1884 H   0  0  0  0  0  0  0  0  0  0  0  0
    0.6013    3.9966    2.6301 H   0  0  0  0  0  0  0  0  0  0  0  0
    0.1043    4.2654    0.9476 H   0  0  0  0  0  0  0  0  0  0  0  0
  1  2  1  0  0  0  0
  2  3  1  0  0  0  0
  2  4  1  0  0  0  0
  2  5  1  0  0  0  0
  5  6  2  0  0  0  0
  5  7  1  0  0  0  0
  7  8  1  0  0  0  0
  7  9  1  0  0  0  0
  9 10  1  0  0  0  0
  9 11  1  0  0  0  0
  9 22  1  0  0  0  0
 11 12  1  0  0  0  0
 11 13  1  0  0  0  0
 11 14  1  0  0  0  0
 14 15  1  0  0  0  0
 14 16  1  0  0  0  0
 14 17  1  0  0  0  0
 17 18  1  0  0  0  0
 18 19  1  0  0  0  0
 18 20  1  0  0  0  0
 18 21  1  0  0  0  0
 22 23  2  0  0  0  0
 22 24  1  0  0  0  0
 24 25  1  0  0  0  0
 24 26  1  0  0  0  0
 26 27  1  0  0  0  0
 26 28  1  0  0  0  0
 26 29  1  0  0  0  0
M  END
$$$$

  -OEChem-02102214153D

 29 28  0     1  0  0  0  0  0999 V2000
   -3.5948   -3.3635    1.5738 H   0  0  0  0  0  0  0  0  0  0  0  0
   -3.5552   -2.4067    1.0459 C   0  0  0  0  0  0  0  0  0  0  0  0
   -4.3444   -1.7572    1.4319 H   0  0  0  0  0  0  0  0  0  0  0  0
   -3.7260   -2.5854   -0.0184 H   0  0  0  0  0  0  0  0  0  0  0  0
   -2.2006   -1.7549    1.2478 C   0  0  0  0  0  0  0  0  0  0  0  0
   -1.3736   -2.2815    1.9763 O   0  0  0  0  0  0  0  0  0  0  0  0
   -1.9368   -0.5324    0.6652 N   0  0  0  0  0  0  0  0  0  0  0  0
   -2.6855   -0.0894    0.1378 H   0  0  0  0  0  0  0  0  0  0  0  0
   -0.6194    0.1192    0.6501 C   0  0  1  0  0  0  0  0  0  0  0  0
    0.0512   -0.3377    1.3852 H   0  0  0  0  0  0  0  0  0  0  0  0
   -0.0093    0.0141   -0.7705 C   0  0  0  0  0  0  0  0  0  0  0  0
   -0.7892   -0.2059   -1.5069 H   0  0  0  0  0  0  0  0  0  0  0  0
    0.4237    0.9809   -1.0495 H   0  0  0  0  0  0  0  0  0  0  0  0
    1.1091   -1.0282   -0.8730 C   0  0  0  0  0  0  0  0  0  0  0  0
    1.6662   -0.8730   -1.8025 H   0  0  0  0  0  0  0  0  0  0  0  0
    1.8098   -0.9145   -0.0399 H   0  0  0  0  0  0  0  0  0  0  0  0
    0.4100   -2.7263   -0.8812 S   0  0  0  0  0  0  0  0  0  0  0  0
    1.9276   -3.7519   -0.7747 C   0  0  0  0  0  0  0  0  0  0  0  0
    2.5827   -3.5520   -1.6275 H   0  0  0  0  0  0  0  0  0  0  0  0
    1.6625   -4.8133   -0.7769 H   0  0  0  0  0  0  0  0  0  0  0  0
    2.4700   -3.5297    0.1489 H   0  0  0  0  0  0  0  0  0  0  0  0
   -0.7773    1.6101    1.0147 C   0  0  0  0  0  0  0  0  0  0  0  0
   -1.6526    2.2847    0.4834 O   0  0  0  0  0  0  0  0  0  0  0  0
    0.0863    2.2057    1.9154 N   0  0  0  0  0  0  0  0  0  0  0  0
    0.7399    1.6012    2.4052 H   0  0  0  0  0  0  0  0  0  0  0  0
   -0.0340    3.5976    2.3323 C   0  0  0  0  0  0  0  0  0  0  0  0
   -0.9870    3.7629    2.8461 H   0  0  0  0  0  0  0  0  0  0  0  0
    0.7790    3.8597    3.0162 H   0  0  0  0  0  0  0  0  0  0  0  0
    0.0184    4.2637    1.4645 H   0  0  0  0  0  0  0  0  0  0  0  0
  1  2  1  0  0  0  0
  2  3  1  0  0  0  0
  2  4  1  0  0  0  0
  2  5  1  0  0  0  0
  5  6  2  0  0  0  0
  5  7  1  0  0  0  0
  7  8  1  0  0  0  0
  7  9  1  0  0  0  0
  9 10  1  0  0  0  0
  9 11  1  0  0  0  0
  9 22  1  0  0  0  0
 11 12  1  0  0  0  0
 11 13  1  0  0  0  0
 11 14  1  0  0  0  0
 14 15  1  0  0  0  0
 14 16  1  0  0  0  0
 14 17  1  0  0  0  0
 17 18  1  0  0  0  0
 18 19  1  0  0  0  0
 18 20  1  0  0  0  0
 18 21  1  0  0  0  0
 22 23  2  0  0  0  0
 22 24  1  0  0  0  0
 24 25  1  0  0  0  0
 24 26  1  0  0  0  0
 26 27  1  0  0  0  0
 26 28  1  0  0  0  0
 26 29  1  0  0  0  0
M  END
$$$$

  -OEChem-02102214153D

 29 28  0     1  0  0  0  0  0999 V2000
   -3.9016   -2.9689    1.3022 H   0  0  0  0  0  0  0  0  0  0  0  0
   -3.7249   -2.0400    0.7528 C   0  0  0  0  0  0  0  0  0  0  0  0
   -4.4148   -1.2764    1.1197 H   0  0  0  0  0  0  0  0  0  0  0  0
   -3.9172   -2.2172   -0.3082 H   0  0  0  0  0  0  0  0  0  0  0  0
   -2.2923   -1.5819    0.9477 C   0  0  0  0  0  0  0  0  0  0  0  0
   -1.5347   -2.2323    1.6523 O   0  0  0  0  0  0  0  0  0  0  0  0
   -1.8645   -0.4076    0.3635 N   0  0  0  0  0  0  0  0  0  0  0  0
   -2.5472    0.1440   -0.1520 H   0  0  0  0  0  0  0  0  0  0  0  0
   -0.4835    0.0907    0.4120 C   0  0  1  0  0  0  0  0  0  0  0  0
    0.0836   -0.4163    1.1987 H   0  0  0  0  0  0  0  0  0  0  0  0
    0.1760   -0.1422   -0.9681 C   0  0  0  0  0  0  0  0  0  0  0  0
   -0.5801   -0.2865   -1.7472 H   0  0  0  0  0  0  0  0  0  0  0  0
    0.7432    0.7532   -1.2448 H   0  0  0  0  0  0  0  0  0  0  0  0
    1.1620   -1.3158   -0.9526 C   0  0  0  0  0  0  0  0  0  0  0  0
    1.9399   -1.1498   -1.7044 H   0  0  0  0  0  0  0  0  0  0  0  0
    1.6565   -1.4039    0.0196 H   0  0  0  0  0  0  0  0  0  0  0  0
    0.2692   -2.8657   -1.3748 S   0  0  0  0  0  0  0  0  0  0  0  0
    0.9683   -4.0432   -0.1529 C   0  0  0  0  0  0  0  0  0  0  0  0
    0.5295   -5.0352   -0.2940 H   0  0  0  0  0  0  0  0  0  0  0  0
    2.0528   -4.1183   -0.2725 H   0  0  0  0  0  0  0  0  0  0  0  0
    0.7460   -3.7060    0.8643 H   0  0  0  0  0  0  0  0  0  0  0  0
   -0.4822    1.5972    0.7459 C   0  0  0  0  0  0  0  0  0  0  0  0
   -1.2639    2.3525    0.1789 O   0  0  0  0  0  0  0  0  0  0  0  0
    0.3970    2.1087    1.6828 N   0  0  0  0  0  0  0  0  0  0  0  0
    0.9710    1.4472    2.1977 H   0  0  0  0  0  0  0  0  0  0  0  0
    0.4106    3.5118    2.0793 C   0  0  0  0  0  0  0  0  0  0  0  0
   -0.5443    3.7897    2.5377 H   0  0  0  0  0  0  0  0  0  0  0  0
    1.2092    3.6929    2.8050 H   0  0  0  0  0  0  0  0  0  0  0  0
    0.5839    4.1545    1.2096 H   0  0  0  0  0  0  0  0  0  0  0  0
  1  2  1  0  0  0  0
  2  3  1  0  0  0  0
  2  4  1  0  0  0  0
  2  5  1  0  0  0  0
  5  6  2  0  0  0  0
  5  7  1  0  0  0  0
  7  8  1  0  0  0  0
  7  9  1  0  0  0  0
  9 10  1  0  0  0  0
  9 11  1  0  0  0  0
  9 22  1  0  0  0  0
 11 12  1  0  0  0  0
 11 13  1  0  0  0  0
 11 14  1  0  0  0  0
 14 15  1  0  0  0  0
 14 16  1  0  0  0  0
 14 17  1  0  0  0  0
 17 18  1  0  0  0  0
 18 19  1  0  0  0  0
 18 20  1  0  0  0  0
 18 21  1  0  0  0  0
 22 23  2  0  0  0  0
 22 24  1  0  0  0  0
 24 25  1  0  0  0  0
 24 26  1  0  0  0  0
 26 27  1  0  0  0  0
 26 28  1  0  0  0  0
 26 29  1  0  0  0  0
M  END
$$$$

  -OEChem-02102214153D

 29 28  0     1  0  0  0  0  0999 V2000
   -3.9380   -2.9695    1.2507 H   0  0  0  0  0  0  0  0  0  0  0  0
   -3.7667   -2.0254    0.7262 C   0  0  0  0  0  0  0  0  0  0  0  0
   -4.4244   -1.2624    1.1491 H   0  0  0  0  0  0  0  0  0  0  0  0
   -4.0082   -2.1610   -0.3308 H   0  0  0  0  0  0  0  0  0  0  0  0
   -2.3183   -1.6012    0.8740 C   0  0  0  0  0  0  0  0  0  0  0  0
   -1.5384   -2.2999    1.5042 O   0  0  0  0  0  0  0  0  0  0  0  0
   -1.8909   -0.4168    0.3110 N   0  0  0  0  0  0  0  0  0  0  0  0
   -2.5850    0.1747   -0.1422 H   0  0  0  0  0  0  0  0  0  0  0  0
   -0.5132    0.0859    0.3869 C   0  0  1  0  0  0  0  0  0  0  0  0
    0.0374   -0.4211    1.1849 H   0  0  0  0  0  0  0  0  0  0  0  0
    0.1625   -0.1488   -0.9836 C   0  0  0  0  0  0  0  0  0  0  0  0
   -0.5860   -0.2894   -1.7708 H   0  0  0  0  0  0  0  0  0  0  0  0
    0.7313    0.7473   -1.2542 H   0  0  0  0  0  0  0  0  0  0  0  0
    1.1505   -1.3242   -0.9553 C   0  0  0  0  0  0  0  0  0  0  0  0
    2.0678   -1.0477   -1.4844 H   0  0  0  0  0  0  0  0  0  0  0  0
    1.4292   -1.5912    0.0684 H   0  0  0  0  0  0  0  0  0  0  0  0
    0.3963   -2.7688   -1.8055 S   0  0  0  0  0  0  0  0  0  0  0  0
    1.0277   -4.1620   -0.7913 C   0  0  0  0  0  0  0  0  0  0  0  0
    0.6668   -4.0714    0.2382 H   0  0  0  0  0  0  0  0  0  0  0  0
    0.6770   -5.1136   -1.2013 H   0  0  0  0  0  0  0  0  0  0  0  0
    2.1215   -4.1640   -0.7848 H   0  0  0  0  0  0  0  0  0  0  0  0
   -0.5180    1.5880    0.7398 C   0  0  0  0  0  0  0  0  0  0  0  0
   -1.3065    2.3452    0.1852 O   0  0  0  0  0  0  0  0  0  0  0  0
    0.3470    2.0888    1.6956 N   0  0  0  0  0  0  0  0  0  0  0  0
    0.9336    1.4247    2.1926 H   0  0  0  0  0  0  0  0  0  0  0  0
    0.3471    3.4840    2.1192 C   0  0  0  0  0  0  0  0  0  0  0  0
   -0.6106    3.7438    2.5822 H   0  0  0  0  0  0  0  0  0  0  0  0
    1.1433    3.6576    2.8494 H   0  0  0  0  0  0  0  0  0  0  0  0
    0.5158    4.1454    1.2626 H   0  0  0  0  0  0  0  0  0  0  0  0
  1  2  1  0  0  0  0
  2  3  1  0  0  0  0
  2  4  1  0  0  0  0
  2  5  1  0  0  0  0
  5  6  2  0  0  0  0
  5  7  1  0  0  0  0
  7  8  1  0  0  0  0
  7  9  1  0  0  0  0
  9 10  1  0  0  0  0
  9 11  1  0  0  0  0
  9 22  1  0  0  0  0
 11 12  1  0  0  0  0
 11 13  1  0  0  0  0
 11 14  1  0  0  0  0
 14 15  1  0  0  0  0
 14 16  1  0  0  0  0
 14 17  1  0  0  0  0
 17 18  1  0  0  0  0
 18 19  1  0  0  0  0
 18 20  1  0  0  0  0
 18 21  1  0  0  0  0
 22 23  2  0  0  0  0
 22 24  1  0  0  0  0
 24 25  1  0  0  0  0
 24 26  1  0  0  0  0
 26 27  1  0  0  0  0
 26 28  1  0  0  0  0
 26 29  1  0  0  0  0
M  END
$$$$

  -OEChem-02102214153D

 29 28  0     1  0  0  0  0  0999 V2000
   -3.4162   -3.3733    1.3643 H   0  0  0  0  0  0  0  0  0  0  0  0
   -3.3458   -2.4122    0.8476 C   0  0  0  0  0  0  0  0  0  0  0  0
   -4.0290   -1.7051    1.3242 H   0  0  0  0  0  0  0  0  0  0  0  0
   -3.6437   -2.5497   -0.1945 H   0  0  0  0  0  0  0  0  0  0  0  0
   -1.9250   -1.8856    0.9147 C   0  0  0  0  0  0  0  0  0  0  0  0
   -1.0637   -2.5216    1.5011 O   0  0  0  0  0  0  0  0  0  0  0  0
   -1.6127   -0.6811    0.3226 N   0  0  0  0  0  0  0  0  0  0  0  0
   -2.3793   -0.1336   -0.0661 H   0  0  0  0  0  0  0  0  0  0  0  0
   -0.2925   -0.0374    0.3722 C   0  0  1  0  0  0  0  0  0  0  0  0
    0.3121   -0.4650    1.1777 H   0  0  0  0  0  0  0  0  0  0  0  0
    0.4376   -0.1802   -0.9869 C   0  0  0  0  0  0  0  0  0  0  0  0
   -0.2892   -0.4209   -1.7699 H   0  0  0  0  0  0  0  0  0  0  0  0
    0.8819    0.7813   -1.2664 H   0  0  0  0  0  0  0  0  0  0  0  0
    1.5689   -1.2247   -0.9816 C   0  0  0  0  0  0  0  0  0  0  0  0
    2.5139   -0.7276   -1.2224 H   0  0  0  0  0  0  0  0  0  0  0  0
    1.6810   -1.6783    0.0082 H   0  0  0  0  0  0  0  0  0  0  0  0
    1.2786   -2.5643   -2.2111 S   0  0  0  0  0  0  0  0  0  0  0  0
   -0.0632   -3.5748   -1.4761 C   0  0  0  0  0  0  0  0  0  0  0  0
   -0.9926   -3.0019   -1.4442 H   0  0  0  0  0  0  0  0  0  0  0  0
   -0.2296   -4.4725   -2.0785 H   0  0  0  0  0  0  0  0  0  0  0  0
    0.2049   -3.8809   -0.4605 H   0  0  0  0  0  0  0  0  0  0  0  0
   -0.4738    1.4619    0.6901 C   0  0  0  0  0  0  0  0  0  0  0  0
   -1.3668    2.0993    0.1433 O   0  0  0  0  0  0  0  0  0  0  0  0
    0.3299    2.0846    1.6273 N   0  0  0  0  0  0  0  0  0  0  0  0
    1.0204    1.5163    2.1095 H   0  0  0  0  0  0  0  0  0  0  0  0
    0.1769    3.4834    2.0088 C   0  0  0  0  0  0  0  0  0  0  0  0
   -0.8153    3.6575    2.4381 H   0  0  0  0  0  0  0  0  0  0  0  0
    0.9293    3.7562    2.7551 H   0  0  0  0  0  0  0  0  0  0  0  0
    0.3039    4.1344    1.1373 H   0  0  0  0  0  0  0  0  0  0  0  0
  1  2  1  0  0  0  0
  2  3  1  0  0  0  0
  2  4  1  0  0  0  0
  2  5  1  0  0  0  0
  5  6  2  0  0  0  0
  5  7  1  0  0  0  0
  7  8  1  0  0  0  0
  7  9  1  0  0  0  0
  9 10  1  0  0  0  0
  9 11  1  0  0  0  0
  9 22  1  0  0  0  0
 11 12  1  0  0  0  0
 11 13  1  0  0  0  0
 11 14  1  0  0  0  0
 14 15  1  0  0  0  0
 14 16  1  0  0  0  0
 14 17  1  0  0  0  0
 17 18  1  0  0  0  0
 18 19  1  0  0  0  0
 18 20  1  0  0  0  0
 18 21  1  0  0  0  0
 22 23  2  0  0  0  0
 22 24  1  0  0  0  0
 24 25  1  0  0  0  0
 24 26  1  0  0  0  0
 26 27  1  0  0  0  0
 26 28  1  0  0  0  0
 26 29  1  0  0  0  0
M  END
$$$$

  -OEChem-02102214153D

 29 28  0     1  0  0  0  0  0999 V2000
   -3.3663   -3.3986    1.3036 H   0  0  0  0  0  0  0  0  0  0  0  0
   -3.3142   -2.4312    0.7963 C   0  0  0  0  0  0  0  0  0  0  0  0
   -3.9781   -1.7299    1.3072 H   0  0  0  0  0  0  0  0  0  0  0  0
   -3.6515   -2.5556   -0.2355 H   0  0  0  0  0  0  0  0  0  0  0  0
   -1.8914   -1.9064    0.8160 C   0  0  0  0  0  0  0  0  0  0  0  0
   -0.9993   -2.5753    1.3135 O   0  0  0  0  0  0  0  0  0  0  0  0
   -1.6040   -0.6806    0.2551 N   0  0  0  0  0  0  0  0  0  0  0  0
   -2.3879   -0.1152   -0.0687 H   0  0  0  0  0  0  0  0  0  0  0  0
   -0.2919   -0.0211    0.3223 C   0  0  1  0  0  0  0  0  0  0  0  0
    0.3141   -0.4590    1.1217 H   0  0  0  0  0  0  0  0  0  0  0  0
    0.4211   -0.1775   -1.0384 C   0  0  0  0  0  0  0  0  0  0  0  0
   -0.3122   -0.4418   -1.8070 H   0  0  0  0  0  0  0  0  0  0  0  0
    0.8609    0.7769   -1.3472 H   0  0  0  0  0  0  0  0  0  0  0  0
    1.5447   -1.2263   -0.9890 C   0  0  0  0  0  0  0  0  0  0  0  0
    2.5162   -0.7234   -0.9522 H   0  0  0  0  0  0  0  0  0  0  0  0
    1.4600   -1.8524   -0.0946 H   0  0  0  0  0  0  0  0  0  0  0  0
    1.4690   -2.3255   -2.4597 S   0  0  0  0  0  0  0  0  0  0  0  0
    0.0385   -3.3991   -2.0381 C   0  0  0  0  0  0  0  0  0  0  0  0
   -0.8757   -2.8045   -1.9604 H   0  0  0  0  0  0  0  0  0  0  0  0
   -0.1029   -4.1576   -2.8134 H   0  0  0  0  0  0  0  0  0  0  0  0
    0.2114   -3.9031   -1.0821 H   0  0  0  0  0  0  0  0  0  0  0  0
   -0.4700    1.4691    0.6786 C   0  0  0  0  0  0  0  0  0  0  0  0
   -1.3748    2.1144    0.1617 O   0  0  0  0  0  0  0  0  0  0  0  0
    0.3360    2.0692    1.6284 N   0  0  0  0  0  0  0  0  0  0  0  0
    1.0407    1.4943    2.0815 H   0  0  0  0  0  0  0  0  0  0  0  0
    0.1811    3.4573    2.0472 C   0  0  0  0  0  0  0  0  0  0  0  0
   -0.8139    3.6205    2.4745 H   0  0  0  0  0  0  0  0  0  0  0  0
    0.9284    3.7094    2.8058 H   0  0  0  0  0  0  0  0  0  0  0  0
    0.3134    4.1321    1.1947 H   0  0  0  0  0  0  0  0  0  0  0  0
  1  2  1  0  0  0  0
  2  3  1  0  0  0  0
  2  4  1  0  0  0  0
  2  5  1  0  0  0  0
  5  6  2  0  0  0  0
  5  7  1  0  0  0  0
  7  8  1  0  0  0  0
  7  9  1  0  0  0  0
  9 10  1  0  0  0  0
  9 11  1  0  0  0  0
  9 22  1  0  0  0  0
 11 12  1  0  0  0  0
 11 13  1  0  0  0  0
 11 14  1  0  0  0  0
 14 15  1  0  0  0  0
 14 16  1  0  0  0  0
 14 17  1  0  0  0  0
 17 18  1  0  0  0  0
 18 19  1  0  0  0  0
 18 20  1  0  0  0  0
 18 21  1  0  0  0  0
 22 23  2  0  0  0  0
 22 24  1  0  0  0  0
 24 25  1  0  0  0  0
 24 26  1  0  0  0  0
 26 27  1  0  0  0  0
 26 28  1  0  0  0  0
 26 29  1  0  0  0  0
M  END
$$$$

  -OEChem-02102214153D

 29 28  0     1  0  0  0  0  0999 V2000
   -3.3771   -3.3784    1.3077 H   0  0  0  0  0  0  0  0  0  0  0  0
   -3.3267   -2.4101    0.8019 C   0  0  0  0  0  0  0  0  0  0  0  0
   -3.9713   -1.7034    1.3301 H   0  0  0  0  0  0  0  0  0  0  0  0
   -3.6883   -2.5280   -0.2223 H   0  0  0  0  0  0  0  0  0  0  0  0
   -1.8988   -1.8993    0.7902 C   0  0  0  0  0  0  0  0  0  0  0  0
   -1.0015   -2.5787    1.2635 O   0  0  0  0  0  0  0  0  0  0  0  0
   -1.6148   -0.6672    0.2413 N   0  0  0  0  0  0  0  0  0  0  0  0
   -2.4019   -0.0922   -0.0566 H   0  0  0  0  0  0  0  0  0  0  0  0
   -0.3009   -0.0112    0.3054 C   0  0  1  0  0  0  0  0  0  0  0  0
    0.3122   -0.4621    1.0928 H   0  0  0  0  0  0  0  0  0  0  0  0
    0.4027   -0.1559   -1.0595 C   0  0  0  0  0  0  0  0  0  0  0  0
   -0.3349   -0.4242   -1.8223 H   0  0  0  0  0  0  0  0  0  0  0  0
    0.8432    0.7974   -1.3709 H   0  0  0  0  0  0  0  0  0  0  0  0
    1.5178   -1.2088   -1.0054 C   0  0  0  0  0  0  0  0  0  0  0  0
    2.4562   -0.7406   -0.6919 H   0  0  0  0  0  0  0  0  0  0  0  0
    1.2733   -1.9902   -0.2774 H   0  0  0  0  0  0  0  0  0  0  0  0
    1.7266   -2.0042   -2.6482 S   0  0  0  0  0  0  0  0  0  0  0  0
    0.3221   -3.1893   -2.6600 C   0  0  0  0  0  0  0  0  0  0  0  0
   -0.6303   -2.6559   -2.5945 H   0  0  0  0  0  0  0  0  0  0  0  0
    0.3326   -3.7736   -3.5848 H   0  0  0  0  0  0  0  0  0  0  0  0
    0.3982   -3.8754   -1.8109 H   0  0  0  0  0  0  0  0  0  0  0  0
   -0.4723    1.4747    0.6811 C   0  0  0  0  0  0  0  0  0  0  0  0
   -1.3843    2.1264    0.1850 O   0  0  0  0  0  0  0  0  0  0  0  0
    0.3434    2.0608    1.6312 N   0  0  0  0  0  0  0  0  0  0  0  0
    1.0550    1.4807    2.0666 H   0  0  0  0  0  0  0  0  0  0  0  0
    0.1886    3.4409    2.0750 C   0  0  0  0  0  0  0  0  0  0  0  0
   -0.8048    3.5950    2.5096 H   0  0  0  0  0  0  0  0  0  0  0  0
    0.9390    3.6808    2.8345 H   0  0  0  0  0  0  0  0  0  0  0  0
    0.3159    4.1304    1.2338 H   0  0  0  0  0  0  0  0  0  0  0  0
  1  2  1  0  0  0  0
  2  3  1  0  0  0  0
  2  4  1  0  0  0  0
  2  5  1  0  0  0  0
  5  6  2  0  0  0  0
  5  7  1  0  0  0  0
  7  8  1  0  0  0  0
  7  9  1  0  0  0  0
  9 10  1  0  0  0  0
  9 11  1  0  0  0  0
  9 22  1  0  0  0  0
 11 12  1  0  0  0  0
 11 13  1  0  0  0  0
 11 14  1  0  0  0  0
 14 15  1  0  0  0  0
 14 16  1  0  0  0  0
 14 17  1  0  0  0  0
 17 18  1  0  0  0  0
 18 19  1  0  0  0  0
 18 20  1  0  0  0  0
 18 21  1  0  0  0  0
 22 23  2  0  0  0  0
 22 24  1  0  0  0  0
 24 25  1  0  0  0  0
 24 26  1  0  0  0  0
 26 27  1  0  0  0  0
 26 28  1  0  0  0  0
 26 29  1  0  0  0  0
M  END
$$$$

  -OEChem-02102214153D

 29 28  0     1  0  0  0  0  0999 V2000
   -3.3742   -3.3866    1.3237 H   0  0  0  0  0  0  0  0  0  0  0  0
   -3.3282   -2.4201    0.8142 C   0  0  0  0  0  0  0  0  0  0  0  0
   -3.9741   -1.7140    1.3414 H   0  0  0  0  0  0  0  0  0  0  0  0
   -3.6921   -2.5429   -0.2086 H   0  0  0  0  0  0  0  0  0  0  0  0
   -1.9014   -1.9056    0.7983 C   0  0  0  0  0  0  0  0  0  0  0  0
   -1.0015   -2.5827    1.2698 O   0  0  0  0  0  0  0  0  0  0  0  0
   -1.6218   -0.6714    0.2513 N   0  0  0  0  0  0  0  0  0  0  0  0
   -2.4114   -0.0971   -0.0415 H   0  0  0  0  0  0  0  0  0  0  0  0
   -0.3082   -0.0138    0.3096 C   0  0  1  0  0  0  0  0  0  0  0  0
    0.3106   -0.4685    1.0904 H   0  0  0  0  0  0  0  0  0  0  0  0
    0.3898   -0.1515   -1.0583 C   0  0  0  0  0  0  0  0  0  0  0  0
   -0.3456   -0.4201   -1.8226 H   0  0  0  0  0  0  0  0  0  0  0  0
    0.8317    0.8032   -1.3633 H   0  0  0  0  0  0  0  0  0  0  0  0
    1.5027   -1.2026   -1.0006 C   0  0  0  0  0  0  0  0  0  0  0  0
    2.3600   -0.8050   -0.4486 H   0  0  0  0  0  0  0  0  0  0  0  0
    1.1498   -2.0969   -0.4754 H   0  0  0  0  0  0  0  0  0  0  0  0
    2.0226   -1.6789   -2.6973 S   0  0  0  0  0  0  0  0  0  0  0  0
    0.6720   -2.8130   -3.2132 C   0  0  0  0  0  0  0  0  0  0  0  0
   -0.2815   -2.2796   -3.2583 H   0  0  0  0  0  0  0  0  0  0  0  0
    0.8874   -3.2252   -4.2033 H   0  0  0  0  0  0  0  0  0  0  0  0
    0.5797   -3.6398   -2.5025 H   0  0  0  0  0  0  0  0  0  0  0  0
   -0.4780    1.4707    0.6906 C   0  0  0  0  0  0  0  0  0  0  0  0
   -1.3919    2.1235    0.1995 O   0  0  0  0  0  0  0  0  0  0  0  0
    0.3429    2.0550    1.6373 N   0  0  0  0  0  0  0  0  0  0  0  0
    1.0611    1.4760    2.0629 H   0  0  0  0  0  0  0  0  0  0  0  0
    0.1978    3.4377    2.0764 C   0  0  0  0  0  0  0  0  0  0  0  0
   -0.7941    3.5996    2.5113 H   0  0  0  0  0  0  0  0  0  0  0  0
    0.9502    3.6756    2.8345 H   0  0  0  0  0  0  0  0  0  0  0  0
    0.3289    4.1229    1.2322 H   0  0  0  0  0  0  0  0  0  0  0  0
  1  2  1  0  0  0  0
  2  3  1  0  0  0  0
  2  4  1  0  0  0  0
  2  5  1  0  0  0  0
  5  6  2  0  0  0  0
  5  7  1  0  0  0  0
  7  8  1  0  0  0  0
  7  9  1  0  0  0  0
  9 10  1  0  0  0  0
  9 11  1  0  0  0  0
  9 22  1  0  0  0  0
 11 12  1  0  0  0  0
 11 13  1  0  0  0  0
 11 14  1  0  0  0  0
 14 15  1  0  0  0  0
 14 16  1  0  0  0  0
 14 17  1  0  0  0  0
 17 18  1  0  0  0  0
 18 19  1  0  0  0  0
 18 20  1  0  0  0  0
 18 21  1  0  0  0  0
 22 23  2  0  0  0  0
 22 24  1  0  0  0  0
 24 25  1  0  0  0  0
 24 26  1  0  0  0  0
 26 27  1  0  0  0  0
 26 28  1  0  0  0  0
 26 29  1  0  0  0  0
M  END
$$$$

  -OEChem-02102214153D

 29 28  0     1  0  0  0  0  0999 V2000
   -3.3855   -3.3953    1.3389 H   0  0  0  0  0  0  0  0  0  0  0  0
   -3.3292   -2.4311    0.8262 C   0  0  0  0  0  0  0  0  0  0  0  0
   -3.9791   -1.7200    1.3418 H   0  0  0  0  0  0  0  0  0  0  0  0
   -3.6802   -2.5567   -0.2008 H   0  0  0  0  0  0  0  0  0  0  0  0
   -1.9005   -1.9218    0.8263 C   0  0  0  0  0  0  0  0  0  0  0  0
   -1.0104   -2.5927    1.3243 O   0  0  0  0  0  0  0  0  0  0  0  0
   -1.6097   -0.6967    0.2652 N   0  0  0  0  0  0  0  0  0  0  0  0
   -2.3944   -0.1262   -0.0475 H   0  0  0  0  0  0  0  0  0  0  0  0
   -0.2957   -0.0401    0.3273 C   0  0  1  0  0  0  0  0  0  0  0  0
    0.3248   -0.4874    1.1110 H   0  0  0  0  0  0  0  0  0  0  0  0
    0.4044   -0.1802   -1.0356 C   0  0  0  0  0  0  0  0  0  0  0  0
   -0.3382   -0.1681   -1.8391 H   0  0  0  0  0  0  0  0  0  0  0  0
    1.0730    0.6720   -1.1971 H   0  0  0  0  0  0  0  0  0  0  0  0
    1.2450   -1.4588   -1.0946 C   0  0  0  0  0  0  0  0  0  0  0  0
    2.0071   -1.4385   -0.3093 H   0  0  0  0  0  0  0  0  0  0  0  0
    0.6127   -2.3364   -0.9233 H   0  0  0  0  0  0  0  0  0  0  0  0
    2.0702   -1.6018   -2.7306 S   0  0  0  0  0  0  0  0  0  0  0  0
    0.6840   -2.0833   -3.8356 C   0  0  0  0  0  0  0  0  0  0  0  0
   -0.0621   -1.2855   -3.8865 H   0  0  0  0  0  0  0  0  0  0  0  0
    1.0595   -2.2725   -4.8455 H   0  0  0  0  0  0  0  0  0  0  0  0
    0.2035   -2.9934   -3.4647 H   0  0  0  0  0  0  0  0  0  0  0  0
   -0.4723    1.4493    0.6849 C   0  0  0  0  0  0  0  0  0  0  0  0
   -1.3808    2.0939    0.1731 O   0  0  0  0  0  0  0  0  0  0  0  0
    0.3373    2.0481    1.6321 N   0  0  0  0  0  0  0  0  0  0  0  0
    1.0517    1.4759    2.0732 H   0  0  0  0  0  0  0  0  0  0  0  0
    0.1865    3.4367    2.0497 C   0  0  0  0  0  0  0  0  0  0  0  0
   -0.8091    3.6033    2.4740 H   0  0  0  0  0  0  0  0  0  0  0  0
    0.9324    3.6866    2.8103 H   0  0  0  0  0  0  0  0  0  0  0  0
    0.3235    4.1103    1.1972 H   0  0  0  0  0  0  0  0  0  0  0  0
  1  2  1  0  0  0  0
  2  3  1  0  0  0  0
  2  4  1  0  0  0  0
  2  5  1  0  0  0  0
  5  6  2  0  0  0  0
  5  7  1  0  0  0  0
  7  8  1  0  0  0  0
  7  9  1  0  0  0  0
  9 10  1  0  0  0  0
  9 11  1  0  0  0  0
  9 22  1  0  0  0  0
 11 12  1  0  0  0  0
 11 13  1  0  0  0  0
 11 14  1  0  0  0  0
 14 15  1  0  0  0  0
 14 16  1  0  0  0  0
 14 17  1  0  0  0  0
 17 18  1  0  0  0  0
 18 19  1  0  0  0  0
 18 20  1  0  0  0  0
 18 21  1  0  0  0  0
 22 23  2  0  0  0  0
 22 24  1  0  0  0  0
 24 25  1  0  0  0  0
 24 26  1  0  0  0  0
 26 27  1  0  0  0  0
 26 28  1  0  0  0  0
 26 29  1  0  0  0  0
M  END
$$$$

  -OEChem-02102214153D

 29 28  0     1  0  0  0  0  0999 V2000
   -3.3917   -3.3921    1.3629 H   0  0  0  0  0  0  0  0  0  0  0  0
   -3.3359   -2.4288    0.8482 C   0  0  0  0  0  0  0  0  0  0  0  0
   -3.9729   -1.7123    1.3724 H   0  0  0  0  0  0  0  0  0  0  0  0
   -3.7024   -2.5528   -0.1735 H   0  0  0  0  0  0  0  0  0  0  0  0
   -1.9039   -1.9297    0.8264 C   0  0  0  0  0  0  0  0  0  0  0  0
   -1.0110   -2.6048    1.3134 O   0  0  0  0  0  0  0  0  0  0  0  0
   -1.6128   -0.7090    0.2564 N   0  0  0  0  0  0  0  0  0  0  0  0
   -2.3980   -0.1348   -0.0481 H   0  0  0  0  0  0  0  0  0  0  0  0
   -0.2986   -0.0538    0.3188 C   0  0  1  0  0  0  0  0  0  0  0  0
    0.3154   -0.4932    1.1118 H   0  0  0  0  0  0  0  0  0  0  0  0
    0.4037   -0.2130   -1.0412 C   0  0  0  0  0  0  0  0  0  0  0  0
   -0.3286   -0.2006   -1.8546 H   0  0  0  0  0  0  0  0  0  0  0  0
    1.0776    0.6368   -1.1954 H   0  0  0  0  0  0  0  0  0  0  0  0
    1.2430   -1.4944   -1.0889 C   0  0  0  0  0  0  0  0  0  0  0  0
    1.8313   -1.5920   -0.1710 H   0  0  0  0  0  0  0  0  0  0  0  0
    0.5903   -2.3709   -1.1587 H   0  0  0  0  0  0  0  0  0  0  0  0
    2.4028   -1.4451   -2.5141 S   0  0  0  0  0  0  0  0  0  0  0  0
    1.2720   -1.5979   -3.9535 C   0  0  0  0  0  0  0  0  0  0  0  0
    0.6020   -0.7352   -4.0081 H   0  0  0  0  0  0  0  0  0  0  0  0
    1.8512   -1.6476   -4.8804 H   0  0  0  0  0  0  0  0  0  0  0  0
    0.6707   -2.5079   -3.8672 H   0  0  0  0  0  0  0  0  0  0  0  0
   -0.4734    1.4388    0.6647 C   0  0  0  0  0  0  0  0  0  0  0  0
   -1.3828    2.0797    0.1496 O   0  0  0  0  0  0  0  0  0  0  0  0
    0.3341    2.0429    1.6105 N   0  0  0  0  0  0  0  0  0  0  0  0
    1.0485    1.4732    2.0554 H   0  0  0  0  0  0  0  0  0  0  0  0
    0.1764    3.4309    2.0277 C   0  0  0  0  0  0  0  0  0  0  0  0
   -0.8204    3.5929    2.4515 H   0  0  0  0  0  0  0  0  0  0  0  0
    0.9206    3.6844    2.7889 H   0  0  0  0  0  0  0  0  0  0  0  0
    0.3107    4.1051    1.1751 H   0  0  0  0  0  0  0  0  0  0  0  0
  1  2  1  0  0  0  0
  2  3  1  0  0  0  0
  2  4  1  0  0  0  0
  2  5  1  0  0  0  0
  5  6  2  0  0  0  0
  5  7  1  0  0  0  0
  7  8  1  0  0  0  0
  7  9  1  0  0  0  0
  9 10  1  0  0  0  0
  9 11  1  0  0  0  0
  9 22  1  0  0  0  0
 11 12  1  0  0  0  0
 11 13  1  0  0  0  0
 11 14  1  0  0  0  0
 14 15  1  0  0  0  0
 14 16  1  0  0  0  0
 14 17  1  0  0  0  0
 17 18  1  0  0  0  0
 18 19  1  0  0  0  0
 18 20  1  0  0  0  0
 18 21  1  0  0  0  0
 22 23  2  0  0  0  0
 22 24  1  0  0  0  0
 24 25  1  0  0  0  0
 24 26  1  0  0  0  0
 26 27  1  0  0  0  0
 26 28  1  0  0  0  0
 26 29  1  0  0  0  0
M  END
$$$$

  -OEChem-02102214153D

 29 28  0     1  0  0  0  0  0999 V2000
   -3.3994   -3.4024    1.3590 H   0  0  0  0  0  0  0  0  0  0  0  0
   -3.3468   -2.4322    0.8570 C   0  0  0  0  0  0  0  0  0  0  0  0
   -3.9832   -1.7238    1.3931 H   0  0  0  0  0  0  0  0  0  0  0  0
   -3.7167   -2.5439   -0.1650 H   0  0  0  0  0  0  0  0  0  0  0  0
   -1.9151   -1.9316    0.8372 C   0  0  0  0  0  0  0  0  0  0  0  0
   -1.0248   -2.6021    1.3350 O   0  0  0  0  0  0  0  0  0  0  0  0
   -1.6197   -0.7177    0.2546 N   0  0  0  0  0  0  0  0  0  0  0  0
   -2.4025   -0.1437   -0.0561 H   0  0  0  0  0  0  0  0  0  0  0  0
   -0.3029   -0.0678    0.3121 C   0  0  1  0  0  0  0  0  0  0  0  0
    0.3072   -0.4990    1.1124 H   0  0  0  0  0  0  0  0  0  0  0  0
    0.3989   -0.2462   -1.0467 C   0  0  0  0  0  0  0  0  0  0  0  0
   -0.3269   -0.2324   -1.8664 H   0  0  0  0  0  0  0  0  0  0  0  0
    1.0749    0.6024   -1.1979 H   0  0  0  0  0  0  0  0  0  0  0  0
    1.2365   -1.5319   -1.0921 C   0  0  0  0  0  0  0  0  0  0  0  0
    1.6230   -1.7720   -0.0967 H   0  0  0  0  0  0  0  0  0  0  0  0
    0.6130   -2.3730   -1.4118 H   0  0  0  0  0  0  0  0  0  0  0  0
    2.6751   -1.3259   -2.2188 S   0  0  0  0  0  0  0  0  0  0  0  0
    1.8697   -1.1100   -3.8557 C   0  0  0  0  0  0  0  0  0  0  0  0
    1.2581   -0.2032   -3.8651 H   0  0  0  0  0  0  0  0  0  0  0  0
    2.6296   -1.0259   -4.6383 H   0  0  0  0  0  0  0  0  0  0  0  0
    1.2306   -1.9693   -4.0792 H   0  0  0  0  0  0  0  0  0  0  0  0
   -0.4717    1.4291    0.6428 C   0  0  0  0  0  0  0  0  0  0  0  0
   -1.3804    2.0681    0.1239 O   0  0  0  0  0  0  0  0  0  0  0  0
    0.3381    2.0375    1.5837 N   0  0  0  0  0  0  0  0  0  0  0  0
    1.0588    1.4713    2.0228 H   0  0  0  0  0  0  0  0  0  0  0  0
    0.1835    3.4275    1.9956 C   0  0  0  0  0  0  0  0  0  0  0  0
   -0.8077    3.5899    2.4320 H   0  0  0  0  0  0  0  0  0  0  0  0
    0.9372    3.6862    2.7455 H   0  0  0  0  0  0  0  0  0  0  0  0
    0.3056    4.0975    1.1381 H   0  0  0  0  0  0  0  0  0  0  0  0
  1  2  1  0  0  0  0
  2  3  1  0  0  0  0
  2  4  1  0  0  0  0
  2  5  1  0  0  0  0
  5  6  2  0  0  0  0
  5  7  1  0  0  0  0
  7  8  1  0  0  0  0
  7  9  1  0  0  0  0
  9 10  1  0  0  0  0
  9 11  1  0  0  0  0
  9 22  1  0  0  0  0
 11 12  1  0  0  0  0
 11 13  1  0  0  0  0
 11 14  1  0  0  0  0
 14 15  1  0  0  0  0
 14 16  1  0  0  0  0
 14 17  1  0  0  0  0
 17 18  1  0  0  0  0
 18 19  1  0  0  0  0
 18 20  1  0  0  0  0
 18 21  1  0  0  0  0
 22 23  2  0  0  0  0
 22 24  1  0  0  0  0
 24 25  1  0  0  0  0
 24 26  1  0  0  0  0
 26 27  1  0  0  0  0
 26 28  1  0  0  0  0
 26 29  1  0  0  0  0
M  END
$$$$

  -OEChem-02102214153D

 29 28  0     1  0  0  0  0  0999 V2000
   -3.4007   -3.3947    1.3605 H   0  0  0  0  0  0  0  0  0  0  0  0
   -3.3442   -2.4326    0.8438 C   0  0  0  0  0  0  0  0  0  0  0  0
   -3.9834   -1.7154    1.3642 H   0  0  0  0  0  0  0  0  0  0  0  0
   -3.7076   -2.5596   -0.1787 H   0  0  0  0  0  0  0  0  0  0  0  0
   -1.9126   -1.9324    0.8254 C   0  0  0  0  0  0  0  0  0  0  0  0
   -1.0212   -2.6066    1.3164 O   0  0  0  0  0  0  0  0  0  0  0  0
   -1.6197   -0.7131    0.2531 N   0  0  0  0  0  0  0  0  0  0  0  0
   -2.4036   -0.1364   -0.0500 H   0  0  0  0  0  0  0  0  0  0  0  0
   -0.3037   -0.0623    0.3149 C   0  0  1  0  0  0  0  0  0  0  0  0
    0.3102   -0.4975    1.1102 H   0  0  0  0  0  0  0  0  0  0  0  0
    0.3933   -0.2253   -1.0485 C   0  0  0  0  0  0  0  0  0  0  0  0
   -0.3371   -0.2037   -1.8638 H   0  0  0  0  0  0  0  0  0  0  0  0
    1.0612    0.6306   -1.1939 H   0  0  0  0  0  0  0  0  0  0  0  0
    1.2355   -1.5098   -1.1200 C   0  0  0  0  0  0  0  0  0  0  0  0
    1.3991   -1.9232   -0.1197 H   0  0  0  0  0  0  0  0  0  0  0  0
    0.7027   -2.2707   -1.6989 H   0  0  0  0  0  0  0  0  0  0  0  0
    2.8787   -1.1708   -1.8726 S   0  0  0  0  0  0  0  0  0  0  0  0
    2.4293   -0.7552   -3.6046 C   0  0  0  0  0  0  0  0  0  0  0  0
    1.7877    0.1302   -3.6320 H   0  0  0  0  0  0  0  0  0  0  0  0
    3.3326   -0.5499   -4.1865 H   0  0  0  0  0  0  0  0  0  0  0  0
    1.8966   -1.5906   -4.0685 H   0  0  0  0  0  0  0  0  0  0  0  0
   -0.4762    1.4312    0.6590 C   0  0  0  0  0  0  0  0  0  0  0  0
   -1.3833    2.0739    0.1416 O   0  0  0  0  0  0  0  0  0  0  0  0
    0.3321    2.0347    1.6044 N   0  0  0  0  0  0  0  0  0  0  0  0
    1.0553    1.4677    2.0384 H   0  0  0  0  0  0  0  0  0  0  0  0
    0.1871    3.4273    2.0106 C   0  0  0  0  0  0  0  0  0  0  0  0
   -0.8088    3.6029    2.4310 H   0  0  0  0  0  0  0  0  0  0  0  0
    0.9322    3.6789    2.7715 H   0  0  0  0  0  0  0  0  0  0  0  0
    0.3303    4.0930    1.1529 H   0  0  0  0  0  0  0  0  0  0  0  0
  1  2  1  0  0  0  0
  2  3  1  0  0  0  0
  2  4  1  0  0  0  0
  2  5  1  0  0  0  0
  5  6  2  0  0  0  0
  5  7  1  0  0  0  0
  7  8  1  0  0  0  0
  7  9  1  0  0  0  0
  9 10  1  0  0  0  0
  9 11  1  0  0  0  0
  9 22  1  0  0  0  0
 11 12  1  0  0  0  0
 11 13  1  0  0  0  0
 11 14  1  0  0  0  0
 14 15  1  0  0  0  0
 14 16  1  0  0  0  0
 14 17  1  0  0  0  0
 17 18  1  0  0  0  0
 18 19  1  0  0  0  0
 18 20  1  0  0  0  0
 18 21  1  0  0  0  0
 22 23  2  0  0  0  0
 22 24  1  0  0  0  0
 24 25  1  0  0  0  0
 24 26  1  0  0  0  0
 26 27  1  0  0  0  0
 26 28  1  0  0  0  0
 26 29  1  0  0  0  0
M  END
$$$$

  -OEChem-02102214153D

 29 28  0     1  0  0  0  0  0999 V2000
   -3.3925   -3.4155    1.3396 H   0  0  0  0  0  0  0  0  0  0  0  0
   -3.3407   -2.4513    0.8260 C   0  0  0  0  0  0  0  0  0  0  0  0
   -3.9938   -1.7427    1.3409 H   0  0  0  0  0  0  0  0  0  0  0  0
   -3.6909   -2.5798   -0.2010 H   0  0  0  0  0  0  0  0  0  0  0  0
   -1.9141   -1.9357    0.8254 C   0  0  0  0  0  0  0  0  0  0  0  0
   -1.0221   -2.6057    1.3204 O   0  0  0  0  0  0  0  0  0  0  0  0
   -1.6279   -0.7093    0.2643 N   0  0  0  0  0  0  0  0  0  0  0  0
   -2.4153   -0.1387   -0.0408 H   0  0  0  0  0  0  0  0  0  0  0  0
   -0.3149   -0.0501    0.3211 C   0  0  1  0  0  0  0  0  0  0  0  0
    0.3093   -0.4916    1.1051 H   0  0  0  0  0  0  0  0  0  0  0  0
    0.3775   -0.1909   -1.0475 C   0  0  0  0  0  0  0  0  0  0  0  0
   -0.3681   -0.1836   -1.8496 H   0  0  0  0  0  0  0  0  0  0  0  0
    1.0237    0.6784   -1.2070 H   0  0  0  0  0  0  0  0  0  0  0  0
    1.2305   -1.4678   -1.1368 C   0  0  0  0  0  0  0  0  0  0  0  0
    1.1670   -2.0467   -0.2096 H   0  0  0  0  0  0  0  0  0  0  0  0
    0.8510   -2.1075   -1.9396 H   0  0  0  0  0  0  0  0  0  0  0  0
    2.9933   -1.0551   -1.4607 S   0  0  0  0  0  0  0  0  0  0  0  0
    2.9410   -0.4676   -3.2008 C   0  0  0  0  0  0  0  0  0  0  0  0
    2.3021    0.4157   -3.2893 H   0  0  0  0  0  0  0  0  0  0  0  0
    3.9483   -0.2044   -3.5367 H   0  0  0  0  0  0  0  0  0  0  0  0
    2.5485   -1.2525   -3.8540 H   0  0  0  0  0  0  0  0  0  0  0  0
   -0.4883    1.4393    0.6809 C   0  0  0  0  0  0  0  0  0  0  0  0
   -1.3972    2.0860    0.1720 O   0  0  0  0  0  0  0  0  0  0  0  0
    0.3272    2.0361    1.6244 N   0  0  0  0  0  0  0  0  0  0  0  0
    1.0623    1.4692    2.0385 H   0  0  0  0  0  0  0  0  0  0  0  0
    0.1965    3.4304    2.0295 C   0  0  0  0  0  0  0  0  0  0  0  0
   -0.7972    3.6163    2.4505 H   0  0  0  0  0  0  0  0  0  0  0  0
    0.9446    3.6754    2.7897 H   0  0  0  0  0  0  0  0  0  0  0  0
    0.3455    4.0940    1.1713 H   0  0  0  0  0  0  0  0  0  0  0  0
  1  2  1  0  0  0  0
  2  3  1  0  0  0  0
  2  4  1  0  0  0  0
  2  5  1  0  0  0  0
  5  6  2  0  0  0  0
  5  7  1  0  0  0  0
  7  8  1  0  0  0  0
  7  9  1  0  0  0  0
  9 10  1  0  0  0  0
  9 11  1  0  0  0  0
  9 22  1  0  0  0  0
 11 12  1  0  0  0  0
 11 13  1  0  0  0  0
 11 14  1  0  0  0  0
 14 15  1  0  0  0  0
 14 16  1  0  0  0  0
 14 17  1  0  0  0  0
 17 18  1  0  0  0  0
 18 19  1  0  0  0  0
 18 20  1  0  0  0  0
 18 21  1  0  0  0  0
 22 23  2  0  0  0  0
 22 24  1  0  0  0  0
 24 25  1  0  0  0  0
 24 26  1  0  0  0  0
 26 27  1  0  0  0  0
 26 28  1  0  0  0  0
 26 29  1  0  0  0  0
M  END
$$$$

  -OEChem-02102214153D

 29 28  0     1  0  0  0  0  0999 V2000
   -3.3861   -3.4346    1.3255 H   0  0  0  0  0  0  0  0  0  0  0  0
   -3.3380   -2.4659    0.8199 C   0  0  0  0  0  0  0  0  0  0  0  0
   -3.9981   -1.7658    1.3377 H   0  0  0  0  0  0  0  0  0  0  0  0
   -3.6833   -2.5885   -0.2095 H   0  0  0  0  0  0  0  0  0  0  0  0
   -1.9145   -1.9412    0.8294 C   0  0  0  0  0  0  0  0  0  0  0  0
   -1.0228   -2.6074    1.3292 O   0  0  0  0  0  0  0  0  0  0  0  0
   -1.6347   -0.7098    0.2758 N   0  0  0  0  0  0  0  0  0  0  0  0
   -2.4260   -0.1464   -0.0321 H   0  0  0  0  0  0  0  0  0  0  0  0
   -0.3252   -0.0408    0.3226 C   0  0  1  0  0  0  0  0  0  0  0  0
    0.3115   -0.4880    1.0938 H   0  0  0  0  0  0  0  0  0  0  0  0
    0.3628   -0.1565   -1.0501 C   0  0  0  0  0  0  0  0  0  0  0  0
   -0.3982   -0.1664   -1.8374 H   0  0  0  0  0  0  0  0  0  0  0  0
    0.9897    0.7234   -1.2264 H   0  0  0  0  0  0  0  0  0  0  0  0
    1.2258   -1.4234   -1.1502 C   0  0  0  0  0  0  0  0  0  0  0  0
    0.9584   -2.1423   -0.3690 H   0  0  0  0  0  0  0  0  0  0  0  0
    1.0459   -1.9120   -2.1127 H   0  0  0  0  0  0  0  0  0  0  0  0
    3.0119   -1.0016   -1.0206 S   0  0  0  0  0  0  0  0  0  0  0  0
    3.3707   -0.2579   -2.6621 C   0  0  0  0  0  0  0  0  0  0  0  0
    2.7653    0.6391   -2.8191 H   0  0  0  0  0  0  0  0  0  0  0  0
    4.4271    0.0200   -2.7234 H   0  0  0  0  0  0  0  0  0  0  0  0
    3.1513   -0.9747   -3.4587 H   0  0  0  0  0  0  0  0  0  0  0  0
   -0.5021    1.4449    0.6939 C   0  0  0  0  0  0  0  0  0  0  0  0
   -1.4180    2.0911    0.1969 O   0  0  0  0  0  0  0  0  0  0  0  0
    0.3214    2.0394    1.6315 N   0  0  0  0  0  0  0  0  0  0  0  0
    1.0665    1.4741    2.0301 H   0  0  0  0  0  0  0  0  0  0  0  0
    0.1893    3.4305    2.0468 C   0  0  0  0  0  0  0  0  0  0  0  0
   -0.8035    3.6109    2.4724 H   0  0  0  0  0  0  0  0  0  0  0  0
    0.9391    3.6716    2.8065 H   0  0  0  0  0  0  0  0  0  0  0  0
    0.3340    4.1008    1.1930 H   0  0  0  0  0  0  0  0  0  0  0  0
  1  2  1  0  0  0  0
  2  3  1  0  0  0  0
  2  4  1  0  0  0  0
  2  5  1  0  0  0  0
  5  6  2  0  0  0  0
  5  7  1  0  0  0  0
  7  8  1  0  0  0  0
  7  9  1  0  0  0  0
  9 10  1  0  0  0  0
  9 11  1  0  0  0  0
  9 22  1  0  0  0  0
 11 12  1  0  0  0  0
 11 13  1  0  0  0  0
 11 14  1  0  0  0  0
 14 15  1  0  0  0  0
 14 16  1  0  0  0  0
 14 17  1  0  0  0  0
 17 18  1  0  0  0  0
 18 19  1  0  0  0  0
 18 20  1  0  0  0  0
 18 21  1  0  0  0  0
 22 23  2  0  0  0  0
 22 24  1  0  0  0  0
 24 25  1  0  0  0  0
 24 26  1  0  0  0  0
 26 27  1  0  0  0  0
 26 28  1  0  0  0  0
 26 29  1  0  0  0  0
M  END
$$$$

  -OEChem-02102214153D

 29 28  0     1  0  0  0  0  0999 V2000
   -3.3785   -3.4382    1.3285 H   0  0  0  0  0  0  0  0  0  0  0  0
   -3.3345   -2.4675    0.8268 C   0  0  0  0  0  0  0  0  0  0  0  0
   -3.9828   -1.7668    1.3585 H   0  0  0  0  0  0  0  0  0  0  0  0
   -3.6968   -2.5834   -0.1974 H   0  0  0  0  0  0  0  0  0  0  0  0
   -1.9093   -1.9479    0.8165 C   0  0  0  0  0  0  0  0  0  0  0  0
   -1.0134   -2.6157    1.3061 O   0  0  0  0  0  0  0  0  0  0  0  0
   -1.6378   -0.7125    0.2680 N   0  0  0  0  0  0  0  0  0  0  0  0
   -2.4345   -0.1509   -0.0289 H   0  0  0  0  0  0  0  0  0  0  0  0
   -0.3331   -0.0335    0.3120 C   0  0  1  0  0  0  0  0  0  0  0  0
    0.3076   -0.4828    1.0789 H   0  0  0  0  0  0  0  0  0  0  0  0
    0.3585   -0.1363   -1.0599 C   0  0  0  0  0  0  0  0  0  0  0  0
   -0.4045   -0.1596   -1.8449 H   0  0  0  0  0  0  0  0  0  0  0  0
    0.9760    0.7488   -1.2420 H   0  0  0  0  0  0  0  0  0  0  0  0
    1.2310   -1.3934   -1.1564 C   0  0  0  0  0  0  0  0  0  0  0  0
    0.8023   -2.2096   -0.5661 H   0  0  0  0  0  0  0  0  0  0  0  0
    1.2751   -1.7311   -2.1964 H   0  0  0  0  0  0  0  0  0  0  0  0
    2.9387   -1.0240   -0.5788 S   0  0  0  0  0  0  0  0  0  0  0  0
    3.6695   -0.1299   -2.0084 C   0  0  0  0  0  0  0  0  0  0  0  0
    3.1213    0.7954   -2.2060 H   0  0  0  0  0  0  0  0  0  0  0  0
    4.7129    0.1225   -1.7972 H   0  0  0  0  0  0  0  0  0  0  0  0
    3.6364   -0.7571   -2.9041 H   0  0  0  0  0  0  0  0  0  0  0  0
   -0.5172    1.4487    0.6899 C   0  0  0  0  0  0  0  0  0  0  0  0
   -1.4381    2.0929    0.1994 O   0  0  0  0  0  0  0  0  0  0  0  0
    0.3087    2.0411    1.6264 N   0  0  0  0  0  0  0  0  0  0  0  0
    1.0532    1.4731    2.0228 H   0  0  0  0  0  0  0  0  0  0  0  0
    0.1689    3.4265    2.0567 C   0  0  0  0  0  0  0  0  0  0  0  0
   -0.8224    3.5948    2.4906 H   0  0  0  0  0  0  0  0  0  0  0  0
    0.9220    3.6650    2.8139 H   0  0  0  0  0  0  0  0  0  0  0  0
    0.3031    4.1066    1.2090 H   0  0  0  0  0  0  0  0  0  0  0  0
  1  2  1  0  0  0  0
  2  3  1  0  0  0  0
  2  4  1  0  0  0  0
  2  5  1  0  0  0  0
  5  6  2  0  0  0  0
  5  7  1  0  0  0  0
  7  8  1  0  0  0  0
  7  9  1  0  0  0  0
  9 10  1  0  0  0  0
  9 11  1  0  0  0  0
  9 22  1  0  0  0  0
 11 12  1  0  0  0  0
 11 13  1  0  0  0  0
 11 14  1  0  0  0  0
 14 15  1  0  0  0  0
 14 16  1  0  0  0  0
 14 17  1  0  0  0  0
 17 18  1  0  0  0  0
 18 19  1  0  0  0  0
 18 20  1  0  0  0  0
 18 21  1  0  0  0  0
 22 23  2  0  0  0  0
 22 24  1  0  0  0  0
 24 25  1  0  0  0  0
 24 26  1  0  0  0  0
 26 27  1  0  0  0  0
 26 28  1  0  0  0  0
 26 29  1  0  0  0  0
M  END
$$$$

  -OEChem-02102214153D

 29 28  0     1  0  0  0  0  0999 V2000
   -3.3676   -3.4429    1.3182 H   0  0  0  0  0  0  0  0  0  0  0  0
   -3.3278   -2.4694    0.8215 C   0  0  0  0  0  0  0  0  0  0  0  0
   -3.9776   -1.7738    1.3581 H   0  0  0  0  0  0  0  0  0  0  0  0
   -3.6914   -2.5812   -0.2028 H   0  0  0  0  0  0  0  0  0  0  0  0
   -1.9044   -1.9454    0.8116 C   0  0  0  0  0  0  0  0  0  0  0  0
   -1.0072   -2.6102    1.3026 O   0  0  0  0  0  0  0  0  0  0  0  0
   -1.6363   -0.7114    0.2581 N   0  0  0  0  0  0  0  0  0  0  0  0
   -2.4340   -0.1541   -0.0437 H   0  0  0  0  0  0  0  0  0  0  0  0
   -0.3332   -0.0295    0.3005 C   0  0  1  0  0  0  0  0  0  0  0  0
    0.3019   -0.4752    1.0735 H   0  0  0  0  0  0  0  0  0  0  0  0
    0.3588   -0.1478   -1.0710 C   0  0  0  0  0  0  0  0  0  0  0  0
   -0.4001   -0.1753   -1.8597 H   0  0  0  0  0  0  0  0  0  0  0  0
    0.9807    0.7329   -1.2572 H   0  0  0  0  0  0  0  0  0  0  0  0
    1.2326   -1.4034   -1.1554 C   0  0  0  0  0  0  0  0  0  0  0  0
    0.6829   -2.2701   -0.7736 H   0  0  0  0  0  0  0  0  0  0  0  0
    1.4863   -1.6077   -2.2001 H   0  0  0  0  0  0  0  0  0  0  0  0
    2.7848   -1.1748   -0.1908 S   0  0  0  0  0  0  0  0  0  0  0  0
    3.7843   -0.0667   -1.2629 C   0  0  0  0  0  0  0  0  0  0  0  0
    3.2936    0.9035   -1.3795 H   0  0  0  0  0  0  0  0  0  0  0  0
    4.7700    0.0947   -0.8165 H   0  0  0  0  0  0  0  0  0  0  0  0
    3.9180   -0.5157   -2.2515 H   0  0  0  0  0  0  0  0  0  0  0  0
   -0.5132    1.4545    0.6720 C   0  0  0  0  0  0  0  0  0  0  0  0
   -1.4318    2.1004    0.1796 O   0  0  0  0  0  0  0  0  0  0  0  0
    0.3157    2.0469    1.6060 N   0  0  0  0  0  0  0  0  0  0  0  0
    1.0500    1.4728    2.0129 H   0  0  0  0  0  0  0  0  0  0  0  0
    0.1699    3.4288    2.0455 C   0  0  0  0  0  0  0  0  0  0  0  0
   -0.8179    3.5869    2.4912 H   0  0  0  0  0  0  0  0  0  0  0  0
    0.9294    3.6697    2.7955 H   0  0  0  0  0  0  0  0  0  0  0  0
    0.2892    4.1141    1.1998 H   0  0  0  0  0  0  0  0  0  0  0  0
  1  2  1  0  0  0  0
  2  3  1  0  0  0  0
  2  4  1  0  0  0  0
  2  5  1  0  0  0  0
  5  6  2  0  0  0  0
  5  7  1  0  0  0  0
  7  8  1  0  0  0  0
  7  9  1  0  0  0  0
  9 10  1  0  0  0  0
  9 11  1  0  0  0  0
  9 22  1  0  0  0  0
 11 12  1  0  0  0  0
 11 13  1  0  0  0  0
 11 14  1  0  0  0  0
 14 15  1  0  0  0  0
 14 16  1  0  0  0  0
 14 17  1  0  0  0  0
 17 18  1  0  0  0  0
 18 19  1  0  0  0  0
 18 20  1  0  0  0  0
 18 21  1  0  0  0  0
 22 23  2  0  0  0  0
 22 24  1  0  0  0  0
 24 25  1  0  0  0  0
 24 26  1  0  0  0  0
 26 27  1  0  0  0  0
 26 28  1  0  0  0  0
 26 29  1  0  0  0  0
M  END
$$$$

  -OEChem-02102214153D

 29 28  0     1  0  0  0  0  0999 V2000
   -3.3736   -3.4272    1.3221 H   0  0  0  0  0  0  0  0  0  0  0  0
   -3.3256   -2.4595    0.8148 C   0  0  0  0  0  0  0  0  0  0  0  0
   -3.9793   -1.7561    1.3362 H   0  0  0  0  0  0  0  0  0  0  0  0
   -3.6784   -2.5822   -0.2121 H   0  0  0  0  0  0  0  0  0  0  0  0
   -1.9003   -1.9397    0.8144 C   0  0  0  0  0  0  0  0  0  0  0  0
   -1.0096   -2.6062    1.3139 O   0  0  0  0  0  0  0  0  0  0  0  0
   -1.6227   -0.7119    0.2519 N   0  0  0  0  0  0  0  0  0  0  0  0
   -2.4158   -0.1544   -0.0610 H   0  0  0  0  0  0  0  0  0  0  0  0
   -0.3179   -0.0343    0.3000 C   0  0  1  0  0  0  0  0  0  0  0  0
    0.3008   -0.4736    1.0879 H   0  0  0  0  0  0  0  0  0  0  0  0
    0.3720   -0.1785   -1.0724 C   0  0  0  0  0  0  0  0  0  0  0  0
   -0.3841   -0.1938   -1.8642 H   0  0  0  0  0  0  0  0  0  0  0  0
    1.0053    0.6947   -1.2560 H   0  0  0  0  0  0  0  0  0  0  0  0
    1.2477   -1.4342   -1.1748 C   0  0  0  0  0  0  0  0  0  0  0  0
    0.6221   -2.3207   -1.0251 H   0  0  0  0  0  0  0  0  0  0  0  0
    1.6815   -1.4994   -2.1774 H   0  0  0  0  0  0  0  0  0  0  0  0
    2.5999   -1.4450    0.0780 S   0  0  0  0  0  0  0  0  0  0  0  0
    3.7046   -0.0934   -0.4943 C   0  0  0  0  0  0  0  0  0  0  0  0
    3.1988    0.8735   -0.4221 H   0  0  0  0  0  0  0  0  0  0  0  0
    4.6061   -0.0611    0.1247 H   0  0  0  0  0  0  0  0  0  0  0  0
    4.0007   -0.2610   -1.5342 H   0  0  0  0  0  0  0  0  0  0  0  0
   -0.4916    1.4539    0.6551 C   0  0  0  0  0  0  0  0  0  0  0  0
   -1.3936    2.1043    0.1388 O   0  0  0  0  0  0  0  0  0  0  0  0
    0.3331    2.0498    1.5907 N   0  0  0  0  0  0  0  0  0  0  0  0
    1.0308    1.4629    2.0410 H   0  0  0  0  0  0  0  0  0  0  0  0
    0.1864    3.4342    2.0226 C   0  0  0  0  0  0  0  0  0  0  0  0
   -0.7995    3.5934    2.4718 H   0  0  0  0  0  0  0  0  0  0  0  0
    0.9494    3.6808    2.7673 H   0  0  0  0  0  0  0  0  0  0  0  0
    0.3006    4.1152    1.1727 H   0  0  0  0  0  0  0  0  0  0  0  0
  1  2  1  0  0  0  0
  2  3  1  0  0  0  0
  2  4  1  0  0  0  0
  2  5  1  0  0  0  0
  5  6  2  0  0  0  0
  5  7  1  0  0  0  0
  7  8  1  0  0  0  0
  7  9  1  0  0  0  0
  9 10  1  0  0  0  0
  9 11  1  0  0  0  0
  9 22  1  0  0  0  0
 11 12  1  0  0  0  0
 11 13  1  0  0  0  0
 11 14  1  0  0  0  0
 14 15  1  0  0  0  0
 14 16  1  0  0  0  0
 14 17  1  0  0  0  0
 17 18  1  0  0  0  0
 18 19  1  0  0  0  0
 18 20  1  0  0  0  0
 18 21  1  0  0  0  0
 22 23  2  0  0  0  0
 22 24  1  0  0  0  0
 24 25  1  0  0  0  0
 24 26  1  0  0  0  0
 26 27  1  0  0  0  0
 26 28  1  0  0  0  0
 26 29  1  0  0  0  0
M  END
$$$$

  -OEChem-02102214153D

 29 28  0     1  0  0  0  0  0999 V2000
   -3.3747   -3.4313    1.2971 H   0  0  0  0  0  0  0  0  0  0  0  0
   -3.3163   -2.4648    0.7885 C   0  0  0  0  0  0  0  0  0  0  0  0
   -4.0031   -1.7682    1.2752 H   0  0  0  0  0  0  0  0  0  0  0  0
   -3.6183   -2.5962   -0.2533 H   0  0  0  0  0  0  0  0  0  0  0  0
   -1.8999   -1.9256    0.8518 C   0  0  0  0  0  0  0  0  0  0  0  0
   -1.0301   -2.5672    1.4158 O   0  0  0  0  0  0  0  0  0  0  0  0
   -1.6113   -0.7056    0.2780 N   0  0  0  0  0  0  0  0  0  0  0  0
   -2.3942   -0.1656   -0.0863 H   0  0  0  0  0  0  0  0  0  0  0  0
   -0.3068   -0.0289    0.3331 C   0  0  1  0  0  0  0  0  0  0  0  0
    0.3030   -0.4543    1.1332 H   0  0  0  0  0  0  0  0  0  0  0  0
    0.3792   -0.1855   -1.0438 C   0  0  0  0  0  0  0  0  0  0  0  0
   -0.3743   -0.1735   -1.8383 H   0  0  0  0  0  0  0  0  0  0  0  0
    1.0228    0.6847   -1.2086 H   0  0  0  0  0  0  0  0  0  0  0  0
    1.2658   -1.4334   -1.1983 C   0  0  0  0  0  0  0  0  0  0  0  0
    0.6128   -2.3059   -1.3058 H   0  0  0  0  0  0  0  0  0  0  0  0
    1.8584   -1.3496   -2.1146 H   0  0  0  0  0  0  0  0  0  0  0  0
    2.3860   -1.7498    0.2305 S   0  0  0  0  0  0  0  0  0  0  0  0
    3.5144   -0.3016    0.1727 C   0  0  0  0  0  0  0  0  0  0  0  0
    2.9581    0.6257    0.3351 H   0  0  0  0  0  0  0  0  0  0  0  0
    4.2778   -0.3914    0.9512 H   0  0  0  0  0  0  0  0  0  0  0  0
    4.0121   -0.2485   -0.8001 H   0  0  0  0  0  0  0  0  0  0  0  0
   -0.4875    1.4633    0.6674 C   0  0  0  0  0  0  0  0  0  0  0  0
   -1.3681    2.1129    0.1149 O   0  0  0  0  0  0  0  0  0  0  0  0
    0.3252    2.0703    1.6065 N   0  0  0  0  0  0  0  0  0  0  0  0
    0.9828    1.4780    2.1069 H   0  0  0  0  0  0  0  0  0  0  0  0
    0.1770    3.4622    2.0128 C   0  0  0  0  0  0  0  0  0  0  0  0
   -0.8137    3.6315    2.4474 H   0  0  0  0  0  0  0  0  0  0  0  0
    0.9323    3.7199    2.7615 H   0  0  0  0  0  0  0  0  0  0  0  0
    0.3032    4.1279    1.1525 H   0  0  0  0  0  0  0  0  0  0  0  0
  1  2  1  0  0  0  0
  2  3  1  0  0  0  0
  2  4  1  0  0  0  0
  2  5  1  0  0  0  0
  5  6  2  0  0  0  0
  5  7  1  0  0  0  0
  7  8  1  0  0  0  0
  7  9  1  0  0  0  0
  9 10  1  0  0  0  0
  9 11  1  0  0  0  0
  9 22  1  0  0  0  0
 11 12  1  0  0  0  0
 11 13  1  0  0  0  0
 11 14  1  0  0  0  0
 14 15  1  0  0  0  0
 14 16  1  0  0  0  0
 14 17  1  0  0  0  0
 17 18  1  0  0  0  0
 18 19  1  0  0  0  0
 18 20  1  0  0  0  0
 18 21  1  0  0  0  0
 22 23  2  0  0  0  0
 22 24  1  0  0  0  0
 24 25  1  0  0  0  0
 24 26  1  0  0  0  0
 26 27  1  0  0  0  0
 26 28  1  0  0  0  0
 26 29  1  0  0  0  0
M  END
$$$$

  -OEChem-02102214153D

 29 28  0     1  0  0  0  0  0999 V2000
   -3.3960   -3.4197    1.2765 H   0  0  0  0  0  0  0  0  0  0  0  0
   -3.3250   -2.4564    0.7638 C   0  0  0  0  0  0  0  0  0  0  0  0
   -4.0505   -1.7685    1.2043 H   0  0  0  0  0  0  0  0  0  0  0  0
   -3.5642   -2.6019   -0.2922 H   0  0  0  0  0  0  0  0  0  0  0  0
   -1.9241   -1.8924    0.9043 C   0  0  0  0  0  0  0  0  0  0  0  0
   -1.0954   -2.4888    1.5698 O   0  0  0  0  0  0  0  0  0  0  0  0
   -1.6144   -0.6864    0.3124 N   0  0  0  0  0  0  0  0  0  0  0  0
   -2.3744   -0.1762   -0.1337 H   0  0  0  0  0  0  0  0  0  0  0  0
   -0.3103   -0.0103    0.3855 C   0  0  1  0  0  0  0  0  0  0  0  0
    0.2907   -0.4159    1.2020 H   0  0  0  0  0  0  0  0  0  0  0  0
    0.3909   -0.1702   -0.9864 C   0  0  0  0  0  0  0  0  0  0  0  0
   -0.3520   -0.1315   -1.7901 H   0  0  0  0  0  0  0  0  0  0  0  0
    1.0432    0.6989   -1.1224 H   0  0  0  0  0  0  0  0  0  0  0  0
    1.2902   -1.4074   -1.1828 C   0  0  0  0  0  0  0  0  0  0  0  0
    0.6587   -2.2168   -1.5630 H   0  0  0  0  0  0  0  0  0  0  0  0
    2.0416   -1.1942   -1.9495 H   0  0  0  0  0  0  0  0  0  0  0  0
    2.1211   -2.0497    0.3291 S   0  0  0  0  0  0  0  0  0  0  0  0
    3.3403   -0.7224    0.6797 C   0  0  0  0  0  0  0  0  0  0  0  0
    2.8307    0.2284    0.8577 H   0  0  0  0  0  0  0  0  0  0  0  0
    3.9258   -0.9778    1.5679 H   0  0  0  0  0  0  0  0  0  0  0  0
    4.0230   -0.6029   -0.1667 H   0  0  0  0  0  0  0  0  0  0  0  0
   -0.5159    1.4879    0.6831 C   0  0  0  0  0  0  0  0  0  0  0  0
   -1.3783    2.1194    0.0823 O   0  0  0  0  0  0  0  0  0  0  0  0
    0.2623    2.1259    1.6310 N   0  0  0  0  0  0  0  0  0  0  0  0
    0.8906    1.5479    2.1826 H   0  0  0  0  0  0  0  0  0  0  0  0
    0.0714    3.5202    2.0111 C   0  0  0  0  0  0  0  0  0  0  0  0
   -0.9282    3.6692    2.4326 H   0  0  0  0  0  0  0  0  0  0  0  0
    0.8116    3.8125    2.7621 H   0  0  0  0  0  0  0  0  0  0  0  0
    0.1877    4.1744    1.1405 H   0  0  0  0  0  0  0  0  0  0  0  0
  1  2  1  0  0  0  0
  2  3  1  0  0  0  0
  2  4  1  0  0  0  0
  2  5  1  0  0  0  0
  5  6  2  0  0  0  0
  5  7  1  0  0  0  0
  7  8  1  0  0  0  0
  7  9  1  0  0  0  0
  9 10  1  0  0  0  0
  9 11  1  0  0  0  0
  9 22  1  0  0  0  0
 11 12  1  0  0  0  0
 11 13  1  0  0  0  0
 11 14  1  0  0  0  0
 14 15  1  0  0  0  0
 14 16  1  0  0  0  0
 14 17  1  0  0  0  0
 17 18  1  0  0  0  0
 18 19  1  0  0  0  0
 18 20  1  0  0  0  0
 18 21  1  0  0  0  0
 22 23  2  0  0  0  0
 22 24  1  0  0  0  0
 24 25  1  0  0  0  0
 24 26  1  0  0  0  0
 26 27  1  0  0  0  0
 26 28  1  0  0  0  0
 26 29  1  0  0  0  0
M  END
$$$$

  -OEChem-02102214153D

 29 28  0     1  0  0  0  0  0999 V2000
   -3.4200   -3.4301    1.2275 H   0  0  0  0  0  0  0  0  0  0  0  0
   -3.3432   -2.4657    0.7175 C   0  0  0  0  0  0  0  0  0  0  0  0
   -4.1282   -1.8045    1.0922 H   0  0  0  0  0  0  0  0  0  0  0  0
   -3.4883   -2.6229   -0.3539 H   0  0  0  0  0  0  0  0  0  0  0  0
   -1.9810   -1.8478    0.9709 C   0  0  0  0  0  0  0  0  0  0  0  0
   -1.2201   -2.3684    1.7682 O   0  0  0  0  0  0  0  0  0  0  0  0
   -1.6492   -0.6591    0.3558 N   0  0  0  0  0  0  0  0  0  0  0  0
   -2.3709   -0.2034   -0.1985 H   0  0  0  0  0  0  0  0  0  0  0  0
   -0.3449    0.0160    0.4409 C   0  0  1  0  0  0  0  0  0  0  0  0
    0.2485   -0.3722    1.2717 H   0  0  0  0  0  0  0  0  0  0  0  0
    0.3806   -0.1515   -0.9196 C   0  0  0  0  0  0  0  0  0  0  0  0
   -0.3530   -0.1098   -1.7317 H   0  0  0  0  0  0  0  0  0  0  0  0
    1.0310    0.7206   -1.0476 H   0  0  0  0  0  0  0  0  0  0  0  0
    1.2922   -1.3812   -1.1267 C   0  0  0  0  0  0  0  0  0  0  0  0
    0.7481   -2.0858   -1.7637 H   0  0  0  0  0  0  0  0  0  0  0  0
    2.1897   -1.0805   -1.6761 H   0  0  0  0  0  0  0  0  0  0  0  0
    1.7884   -2.3146    0.3779 S   0  0  0  0  0  0  0  0  0  0  0  0
    3.0956   -1.2348    1.0829 C   0  0  0  0  0  0  0  0  0  0  0  0
    2.6983   -0.2379    1.2914 H   0  0  0  0  0  0  0  0  0  0  0  0
    3.4708   -1.6647    2.0165 H   0  0  0  0  0  0  0  0  0  0  0  0
    3.9292   -1.1421    0.3805 H   0  0  0  0  0  0  0  0  0  0  0  0
   -0.5620    1.5215    0.6949 C   0  0  0  0  0  0  0  0  0  0  0  0
   -1.3957    2.1410    0.0428 O   0  0  0  0  0  0  0  0  0  0  0  0
    0.1920    2.1857    1.6445 N   0  0  0  0  0  0  0  0  0  0  0  0
    0.7973    1.6222    2.2350 H   0  0  0  0  0  0  0  0  0  0  0  0
   -0.0013    3.5927    1.9736 C   0  0  0  0  0  0  0  0  0  0  0  0
   -1.0120    3.7600    2.3604 H   0  0  0  0  0  0  0  0  0  0  0  0
    0.7182    3.9051    2.7365 H   0  0  0  0  0  0  0  0  0  0  0  0
    0.1445    4.2178    1.0863 H   0  0  0  0  0  0  0  0  0  0  0  0
  1  2  1  0  0  0  0
  2  3  1  0  0  0  0
  2  4  1  0  0  0  0
  2  5  1  0  0  0  0
  5  6  2  0  0  0  0
  5  7  1  0  0  0  0
  7  8  1  0  0  0  0
  7  9  1  0  0  0  0
  9 10  1  0  0  0  0
  9 11  1  0  0  0  0
  9 22  1  0  0  0  0
 11 12  1  0  0  0  0
 11 13  1  0  0  0  0
 11 14  1  0  0  0  0
 14 15  1  0  0  0  0
 14 16  1  0  0  0  0
 14 17  1  0  0  0  0
 17 18  1  0  0  0  0
 18 19  1  0  0  0  0
 18 20  1  0  0  0  0
 18 21  1  0  0  0  0
 22 23  2  0  0  0  0
 22 24  1  0  0  0  0
 24 25  1  0  0  0  0
 24 26  1  0  0  0  0
 26 27  1  0  0  0  0
 26 28  1  0  0  0  0
 26 29  1  0  0  0  0
M  END
$$$$

  -OEChem-02102214153D

 29 28  0     1  0  0  0  0  0999 V2000
   -3.4653   -3.3978    1.2302 H   0  0  0  0  0  0  0  0  0  0  0  0
   -3.3686   -2.4556    0.6836 C   0  0  0  0  0  0  0  0  0  0  0  0
   -4.1995   -1.8011    0.9575 H   0  0  0  0  0  0  0  0  0  0  0  0
   -3.4145   -2.6653   -0.3877 H   0  0  0  0  0  0  0  0  0  0  0  0
   -2.0499   -1.7879    1.0241 C   0  0  0  0  0  0  0  0  0  0  0  0
   -1.3672   -2.2270    1.9343 O   0  0  0  0  0  0  0  0  0  0  0  0
   -1.6929   -0.6203    0.3827 N   0  0  0  0  0  0  0  0  0  0  0  0
   -2.3663   -0.2219   -0.2676 H   0  0  0  0  0  0  0  0  0  0  0  0
   -0.3829    0.0425    0.4797 C   0  0  1  0  0  0  0  0  0  0  0  0
    0.1982   -0.3365    1.3239 H   0  0  0  0  0  0  0  0  0  0  0  0
    0.3760   -0.1327   -0.8636 C   0  0  0  0  0  0  0  0  0  0  0  0
   -0.3510   -0.1033   -1.6823 H   0  0  0  0  0  0  0  0  0  0  0  0
    1.0220    0.7418   -0.9988 H   0  0  0  0  0  0  0  0  0  0  0  0
    1.2899   -1.3632   -1.0616 C   0  0  0  0  0  0  0  0  0  0  0  0
    0.9115   -1.9210   -1.9243 H   0  0  0  0  0  0  0  0  0  0  0  0
    2.2976   -1.0233   -1.3209 H   0  0  0  0  0  0  0  0  0  0  0  0
    1.4142   -2.5486    0.3361 S   0  0  0  0  0  0  0  0  0  0  0  0
    2.7479   -1.8199    1.3667 C   0  0  0  0  0  0  0  0  0  0  0  0
    2.4933   -0.7979    1.6597 H   0  0  0  0  0  0  0  0  0  0  0  0
    2.8865   -2.4186    2.2720 H   0  0  0  0  0  0  0  0  0  0  0  0
    3.6897   -1.8032    0.8102 H   0  0  0  0  0  0  0  0  0  0  0  0
   -0.5999    1.5559    0.6883 C   0  0  0  0  0  0  0  0  0  0  0  0
   -1.3988    2.1659   -0.0146 O   0  0  0  0  0  0  0  0  0  0  0  0
    0.1335    2.2434    1.6377 N   0  0  0  0  0  0  0  0  0  0  0  0
    0.7110    1.6936    2.2675 H   0  0  0  0  0  0  0  0  0  0  0  0
   -0.0550    3.6623    1.9146 C   0  0  0  0  0  0  0  0  0  0  0  0
   -1.0711    3.8499    2.2773 H   0  0  0  0  0  0  0  0  0  0  0  0
    0.6536    3.9960    2.6788 H   0  0  0  0  0  0  0  0  0  0  0  0
    0.1112    4.2555    1.0089 H   0  0  0  0  0  0  0  0  0  0  0  0
  1  2  1  0  0  0  0
  2  3  1  0  0  0  0
  2  4  1  0  0  0  0
  2  5  1  0  0  0  0
  5  6  2  0  0  0  0
  5  7  1  0  0  0  0
  7  8  1  0  0  0  0
  7  9  1  0  0  0  0
  9 10  1  0  0  0  0
  9 11  1  0  0  0  0
  9 22  1  0  0  0  0
 11 12  1  0  0  0  0
 11 13  1  0  0  0  0
 11 14  1  0  0  0  0
 14 15  1  0  0  0  0
 14 16  1  0  0  0  0
 14 17  1  0  0  0  0
 17 18  1  0  0  0  0
 18 19  1  0  0  0  0
 18 20  1  0  0  0  0
 18 21  1  0  0  0  0
 22 23  2  0  0  0  0
 22 24  1  0  0  0  0
 24 25  1  0  0  0  0
 24 26  1  0  0  0  0
 26 27  1  0  0  0  0
 26 28  1  0  0  0  0
 26 29  1  0  0  0  0
M  END
$$$$

  -OEChem-02102214153D

 29 28  0     1  0  0  0  0  0999 V2000
   -3.3140   -3.7384    0.7912 H   0  0  0  0  0  0  0  0  0  0  0  0
   -3.4147   -2.6505    0.7440 C   0  0  0  0  0  0  0  0  0  0  0  0
   -3.5399   -2.2653    1.7588 H   0  0  0  0  0  0  0  0  0  0  0  0
   -4.3017   -2.4046    0.1555 H   0  0  0  0  0  0  0  0  0  0  0  0
   -2.1820   -2.0357    0.1071 C   0  0  0  0  0  0  0  0  0  0  0  0
   -1.2806   -2.7789   -0.2426 O   0  0  0  0  0  0  0  0  0  0  0  0
   -2.1502   -0.6599   -0.0468 N   0  0  0  0  0  0  0  0  0  0  0  0
   -2.9493   -0.1759    0.3593 H   0  0  0  0  0  0  0  0  0  0  0  0
   -1.0585    0.2408   -0.4822 C   0  0  1  0  0  0  0  0  0  0  0  0
   -1.4844    0.6766   -1.3917 H   0  0  0  0  0  0  0  0  0  0  0  0
    0.2319   -0.4133   -1.0548 C   0  0  0  0  0  0  0  0  0  0  0  0
   -0.0388   -1.2849   -1.6554 H   0  0  0  0  0  0  0  0  0  0  0  0
    0.6515    0.3023   -1.7693 H   0  0  0  0  0  0  0  0  0  0  0  0
    1.3927   -0.7937   -0.1058 C   0  0  0  0  0  0  0  0  0  0  0  0
    1.7565   -1.7835   -0.4012 H   0  0  0  0  0  0  0  0  0  0  0  0
    2.2165   -0.0887   -0.2538 H   0  0  0  0  0  0  0  0  0  0  0  0
    0.9925   -0.8413    1.6928 S   0  0  0  0  0  0  0  0  0  0  0  0
    2.5362   -1.5459    2.3916 C   0  0  0  0  0  0  0  0  0  0  0  0
    2.7235   -2.5379    1.9693 H   0  0  0  0  0  0  0  0  0  0  0  0
    2.4472   -1.6407    3.4779 H   0  0  0  0  0  0  0  0  0  0  0  0
    3.3878   -0.8979    2.1646 H   0  0  0  0  0  0  0  0  0  0  0  0
   -0.9239    1.5024    0.4079 C   0  0  0  0  0  0  0  0  0  0  0  0
   -1.9549    2.0934    0.7101 O   0  0  0  0  0  0  0  0  0  0  0  0
    0.2802    1.9952    0.8756 N   0  0  0  0  0  0  0  0  0  0  0  0
    1.0546    1.3369    0.8445 H   0  0  0  0  0  0  0  0  0  0  0  0
    0.3630    3.1007    1.8226 C   0  0  0  0  0  0  0  0  0  0  0  0
   -0.1260    2.8342    2.7656 H   0  0  0  0  0  0  0  0  0  0  0  0
    1.4099    3.3425    2.0295 H   0  0  0  0  0  0  0  0  0  0  0  0
   -0.1212    3.9942    1.4143 H   0  0  0  0  0  0  0  0  0  0  0  0
  1  2  1  0  0  0  0
  2  3  1  0  0  0  0
  2  4  1  0  0  0  0
  2  5  1  0  0  0  0
  5  6  2  0  0  0  0
  5  7  1  0  0  0  0
  7  8  1  0  0  0  0
  7  9  1  0  0  0  0
  9 10  1  0  0  0  0
  9 11  1  0  0  0  0
  9 22  1  0  0  0  0
 11 12  1  0  0  0  0
 11 13  1  0  0  0  0
 11 14  1  0  0  0  0
 14 15  1  0  0  0  0
 14 16  1  0  0  0  0
 14 17  1  0  0  0  0
 17 18  1  0  0  0  0
 18 19  1  0  0  0  0
 18 20  1  0  0  0  0
 18 21  1  0  0  0  0
 22 23  2  0  0  0  0
 22 24  1  0  0  0  0
 24 25  1  0  0  0  0
 24 26  1  0  0  0  0
 26 27  1  0  0  0  0
 26 28  1  0  0  0  0
 26 29  1  0  0  0  0
M  END
$$$$

  -OEChem-02102214153D

 29 28  0     1  0  0  0  0  0999 V2000
   -3.7307   -3.4462    0.4284 H   0  0  0  0  0  0  0  0  0  0  0  0
   -3.6885   -2.3556    0.4978 C   0  0  0  0  0  0  0  0  0  0  0  0
   -3.7064   -2.0699    1.5524 H   0  0  0  0  0  0  0  0  0  0  0  0
   -4.5652   -1.9369   -0.0019 H   0  0  0  0  0  0  0  0  0  0  0  0
   -2.4218   -1.8361   -0.1566 C   0  0  0  0  0  0  0  0  0  0  0  0
   -1.6560   -2.6453   -0.6516 O   0  0  0  0  0  0  0  0  0  0  0  0
   -2.2253   -0.4656   -0.1823 N   0  0  0  0  0  0  0  0  0  0  0  0
   -2.9447    0.0615    0.3108 H   0  0  0  0  0  0  0  0  0  0  0  0
   -1.0426    0.3499   -0.5464 C   0  0  1  0  0  0  0  0  0  0  0  0
   -1.3807    0.9002   -1.4300 H   0  0  0  0  0  0  0  0  0  0  0  0
    0.2162   -0.3972   -1.0832 C   0  0  0  0  0  0  0  0  0  0  0  0
   -0.0892   -1.2298   -1.7188 H   0  0  0  0  0  0  0  0  0  0  0  0
    0.7273    0.2962   -1.7586 H   0  0  0  0  0  0  0  0  0  0  0  0
    1.2901   -0.8843   -0.0872 C   0  0  0  0  0  0  0  0  0  0  0  0
    1.7754   -1.7678   -0.5151 H   0  0  0  0  0  0  0  0  0  0  0  0
    2.0625   -0.1175    0.0214 H   0  0  0  0  0  0  0  0  0  0  0  0
    0.6428   -1.3191    1.5814 S   0  0  0  0  0  0  0  0  0  0  0  0
    2.1358   -2.0251    2.3816 C   0  0  0  0  0  0  0  0  0  0  0  0
    1.9005   -2.3397    3.4027 H   0  0  0  0  0  0  0  0  0  0  0  0
    2.9358   -1.2801    2.4200 H   0  0  0  0  0  0  0  0  0  0  0  0
    2.4895   -2.8954    1.8207 H   0  0  0  0  0  0  0  0  0  0  0  0
   -0.8226    1.4773    0.4963 C   0  0  0  0  0  0  0  0  0  0  0  0
   -1.8065    2.1135    0.8585 O   0  0  0  0  0  0  0  0  0  0  0  0
    0.4062    1.8082    1.0378 N   0  0  0  0  0  0  0  0  0  0  0  0
    1.1281    1.1023    0.9345 H   0  0  0  0  0  0  0  0  0  0  0  0
    0.5559    2.7829    2.1122 C   0  0  0  0  0  0  0  0  0  0  0  0
    0.0377    2.4412    3.0143 H   0  0  0  0  0  0  0  0  0  0  0  0
    1.6145    2.9223    2.3506 H   0  0  0  0  0  0  0  0  0  0  0  0
    0.1415    3.7516    1.8134 H   0  0  0  0  0  0  0  0  0  0  0  0
  1  2  1  0  0  0  0
  2  3  1  0  0  0  0
  2  4  1  0  0  0  0
  2  5  1  0  0  0  0
  5  6  2  0  0  0  0
  5  7  1  0  0  0  0
  7  8  1  0  0  0  0
  7  9  1  0  0  0  0
  9 10  1  0  0  0  0
  9 11  1  0  0  0  0
  9 22  1  0  0  0  0
 11 12  1  0  0  0  0
 11 13  1  0  0  0  0
 11 14  1  0  0  0  0
 14 15  1  0  0  0  0
 14 16  1  0  0  0  0
 14 17  1  0  0  0  0
 17 18  1  0  0  0  0
 18 19  1  0  0  0  0
 18 20  1  0  0  0  0
 18 21  1  0  0  0  0
 22 23  2  0  0  0  0
 22 24  1  0  0  0  0
 24 25  1  0  0  0  0
 24 26  1  0  0  0  0
 26 27  1  0  0  0  0
 26 28  1  0  0  0  0
 26 29  1  0  0  0  0
M  END
$$$$

  -OEChem-02102214153D

 29 28  0     1  0  0  0  0  0999 V2000
   -3.6914   -3.1904    1.2701 H   0  0  0  0  0  0  0  0  0  0  0  0
   -3.5120   -2.3140    0.6412 C   0  0  0  0  0  0  0  0  0  0  0  0
   -4.3453   -1.6172    0.7597 H   0  0  0  0  0  0  0  0  0  0  0  0
   -3.4581   -2.6354   -0.4018 H   0  0  0  0  0  0  0  0  0  0  0  0
   -2.2121   -1.6426    1.0417 C   0  0  0  0  0  0  0  0  0  0  0  0
   -1.5948   -2.0423    2.0178 O   0  0  0  0  0  0  0  0  0  0  0  0
   -1.7903   -0.5104    0.3756 N   0  0  0  0  0  0  0  0  0  0  0  0
   -2.3920   -0.1578   -0.3648 H   0  0  0  0  0  0  0  0  0  0  0  0
   -0.4482    0.0837    0.4873 C   0  0  1  0  0  0  0  0  0  0  0  0
    0.0976   -0.3163    1.3473 H   0  0  0  0  0  0  0  0  0  0  0  0
    0.3727   -0.1280   -0.8143 C   0  0  0  0  0  0  0  0  0  0  0  0
   -0.3245   -0.1112   -1.6587 H   0  0  0  0  0  0  0  0  0  0  0  0
    1.0536    0.7193   -0.9524 H   0  0  0  0  0  0  0  0  0  0  0  0
    1.2318   -1.4004   -0.9274 C   0  0  0  0  0  0  0  0  0  0  0  0
    1.5549   -1.5107   -1.9674 H   0  0  0  0  0  0  0  0  0  0  0  0
    2.1330   -1.2693   -0.3206 H   0  0  0  0  0  0  0  0  0  0  0  0
    0.4065   -2.9546   -0.4045 S   0  0  0  0  0  0  0  0  0  0  0  0
    1.2512   -3.3421    1.1796 C   0  0  0  0  0  0  0  0  0  0  0  0
    1.1346   -2.5150    1.8856 H   0  0  0  0  0  0  0  0  0  0  0  0
    0.8145   -4.2408    1.6251 H   0  0  0  0  0  0  0  0  0  0  0  0
    2.3175   -3.5160    1.0101 H   0  0  0  0  0  0  0  0  0  0  0  0
   -0.5987    1.6111    0.6572 C   0  0  0  0  0  0  0  0  0  0  0  0
   -1.3451    2.2457   -0.0807 O   0  0  0  0  0  0  0  0  0  0  0  0
    0.1461    2.2832    1.6089 N   0  0  0  0  0  0  0  0  0  0  0  0
    0.6845    1.7204    2.2611 H   0  0  0  0  0  0  0  0  0  0  0  0
    0.0173    3.7143    1.8558 C   0  0  0  0  0  0  0  0  0  0  0  0
   -1.0022    3.9579    2.1728 H   0  0  0  0  0  0  0  0  0  0  0  0
    0.7092    4.0261    2.6441 H   0  0  0  0  0  0  0  0  0  0  0  0
    0.2496    4.2831    0.9493 H   0  0  0  0  0  0  0  0  0  0  0  0
  1  2  1  0  0  0  0
  2  3  1  0  0  0  0
  2  4  1  0  0  0  0
  2  5  1  0  0  0  0
  5  6  2  0  0  0  0
  5  7  1  0  0  0  0
  7  8  1  0  0  0  0
  7  9  1  0  0  0  0
  9 10  1  0  0  0  0
  9 11  1  0  0  0  0
  9 22  1  0  0  0  0
 11 12  1  0  0  0  0
 11 13  1  0  0  0  0
 11 14  1  0  0  0  0
 14 15  1  0  0  0  0
 14 16  1  0  0  0  0
 14 17  1  0  0  0  0
 17 18  1  0  0  0  0
 18 19  1  0  0  0  0
 18 20  1  0  0  0  0
 18 21  1  0  0  0  0
 22 23  2  0  0  0  0
 22 24  1  0  0  0  0
 24 25  1  0  0  0  0
 24 26  1  0  0  0  0
 26 27  1  0  0  0  0
 26 28  1  0  0  0  0
 26 29  1  0  0  0  0
M  END
$$$$

  -OEChem-02102214153D

 29 28  0     1  0  0  0  0  0999 V2000
   -3.5261   -3.2903    1.7920 H   0  0  0  0  0  0  0  0  0  0  0  0
   -3.4510   -2.4582    1.0864 C   0  0  0  0  0  0  0  0  0  0  0  0
   -4.3347   -1.8244    1.1912 H   0  0  0  0  0  0  0  0  0  0  0  0
   -3.4160   -2.8608    0.0712 H   0  0  0  0  0  0  0  0  0  0  0  0
   -2.1972   -1.6507    1.3635 C   0  0  0  0  0  0  0  0  0  0  0  0
   -1.4886   -1.9316    2.3186 O   0  0  0  0  0  0  0  0  0  0  0  0
   -1.9065   -0.5489    0.5855 N   0  0  0  0  0  0  0  0  0  0  0  0
   -2.5703   -0.3046   -0.1454 H   0  0  0  0  0  0  0  0  0  0  0  0
   -0.6287    0.1793    0.6088 C   0  0  1  0  0  0  0  0  0  0  0  0
   -0.0394   -0.0833    1.4932 H   0  0  0  0  0  0  0  0  0  0  0  0
    0.1988   -0.0937   -0.6748 C   0  0  0  0  0  0  0  0  0  0  0  0
   -0.4857   -0.2284   -1.5190 H   0  0  0  0  0  0  0  0  0  0  0  0
    0.8100    0.7874   -0.8982 H   0  0  0  0  0  0  0  0  0  0  0  0
    1.1587   -1.2918   -0.6132 C   0  0  0  0  0  0  0  0  0  0  0  0
    1.7056   -1.3631   -1.5588 H   0  0  0  0  0  0  0  0  0  0  0  0
    1.8906   -1.1173    0.1817 H   0  0  0  0  0  0  0  0  0  0  0  0
    0.3141   -2.8907   -0.2959 S   0  0  0  0  0  0  0  0  0  0  0  0
    1.7375   -4.0045    0.0194 C   0  0  0  0  0  0  0  0  0  0  0  0
    2.3048   -3.6560    0.8875 H   0  0  0  0  0  0  0  0  0  0  0  0
    1.3811   -5.0193    0.2195 H   0  0  0  0  0  0  0  0  0  0  0  0
    2.4008   -4.0299   -0.8499 H   0  0  0  0  0  0  0  0  0  0  0  0
   -0.9177    1.6953    0.6440 C   0  0  0  0  0  0  0  0  0  0  0  0
   -1.7404    2.1861   -0.1217 O   0  0  0  0  0  0  0  0  0  0  0  0
   -0.2232    2.5190    1.5112 N   0  0  0  0  0  0  0  0  0  0  0  0
    0.3816    2.0712    2.1939 H   0  0  0  0  0  0  0  0  0  0  0  0
   -0.4855    3.9481    1.6347 C   0  0  0  0  0  0  0  0  0  0  0  0
   -1.5131    4.1213    1.9711 H   0  0  0  0  0  0  0  0  0  0  0  0
    0.1975    4.3965    2.3625 H   0  0  0  0  0  0  0  0  0  0  0  0
   -0.3406    4.4502    0.6723 H   0  0  0  0  0  0  0  0  0  0  0  0
  1  2  1  0  0  0  0
  2  3  1  0  0  0  0
  2  4  1  0  0  0  0
  2  5  1  0  0  0  0
  5  6  2  0  0  0  0
  5  7  1  0  0  0  0
  7  8  1  0  0  0  0
  7  9  1  0  0  0  0
  9 10  1  0  0  0  0
  9 11  1  0  0  0  0
  9 22  1  0  0  0  0
 11 12  1  0  0  0  0
 11 13  1  0  0  0  0
 11 14  1  0  0  0  0
 14 15  1  0  0  0  0
 14 16  1  0  0  0  0
 14 17  1  0  0  0  0
 17 18  1  0  0  0  0
 18 19  1  0  0  0  0
 18 20  1  0  0  0  0
 18 21  1  0  0  0  0
 22 23  2  0  0  0  0
 22 24  1  0  0  0  0
 24 25  1  0  0  0  0
 24 26  1  0  0  0  0
 26 27  1  0  0  0  0
 26 28  1  0  0  0  0
 26 29  1  0  0  0  0
M  END
$$$$

  -OEChem-02102214153D

 29 28  0     1  0  0  0  0  0999 V2000
   -3.7452   -3.1401    1.5495 H   0  0  0  0  0  0  0  0  0  0  0  0
   -3.6341   -2.2253    0.9611 C   0  0  0  0  0  0  0  0  0  0  0  0
   -4.4174   -1.5210    1.2509 H   0  0  0  0  0  0  0  0  0  0  0  0
   -3.7465   -2.4720   -0.0974 H   0  0  0  0  0  0  0  0  0  0  0  0
   -2.2686   -1.6119    1.2036 C   0  0  0  0  0  0  0  0  0  0  0  0
   -1.5032   -2.1233    2.0077 O   0  0  0  0  0  0  0  0  0  0  0  0
   -1.9179   -0.4450    0.5560 N   0  0  0  0  0  0  0  0  0  0  0  0
   -2.6091   -0.0183   -0.0566 H   0  0  0  0  0  0  0  0  0  0  0  0
   -0.5768    0.1544    0.5905 C   0  0  1  0  0  0  0  0  0  0  0  0
    0.0252   -0.2711    1.3997 H   0  0  0  0  0  0  0  0  0  0  0  0
    0.1394   -0.0521   -0.7660 C   0  0  0  0  0  0  0  0  0  0  0  0
   -0.5870   -0.0144   -1.5848 H   0  0  0  0  0  0  0  0  0  0  0  0
    0.8399    0.7753   -0.9222 H   0  0  0  0  0  0  0  0  0  0  0  0
    0.9539   -1.3497   -0.8485 C   0  0  0  0  0  0  0  0  0  0  0  0
    1.6354   -1.2973   -1.7033 H   0  0  0  0  0  0  0  0  0  0  0  0
    1.5599   -1.4641    0.0557 H   0  0  0  0  0  0  0  0  0  0  0  0
   -0.1363   -2.8152   -1.0540 S   0  0  0  0  0  0  0  0  0  0  0  0
    1.0192   -4.1898   -0.6769 C   0  0  0  0  0  0  0  0  0  0  0  0
    1.8688   -4.1732   -1.3656 H   0  0  0  0  0  0  0  0  0  0  0  0
    0.5043   -5.1499   -0.7768 H   0  0  0  0  0  0  0  0  0  0  0  0
    1.3919   -4.0988    0.3479 H   0  0  0  0  0  0  0  0  0  0  0  0
   -0.7039    1.6722    0.8383 C   0  0  0  0  0  0  0  0  0  0  0  0
   -1.5152    2.3356    0.2018 O   0  0  0  0  0  0  0  0  0  0  0  0
    0.1161    2.3025    1.7561 N   0  0  0  0  0  0  0  0  0  0  0  0
    0.7191    1.7153    2.3251 H   0  0  0  0  0  0  0  0  0  0  0  0
    0.0156    3.7225    2.0705 C   0  0  0  0  0  0  0  0  0  0  0  0
   -0.9762    3.9571    2.4711 H   0  0  0  0  0  0  0  0  0  0  0  0
    0.7655    3.9988    2.8180 H   0  0  0  0  0  0  0  0  0  0  0  0
    0.1849    4.3267    1.1729 H   0  0  0  0  0  0  0  0  0  0  0  0
  1  2  1  0  0  0  0
  2  3  1  0  0  0  0
  2  4  1  0  0  0  0
  2  5  1  0  0  0  0
  5  6  2  0  0  0  0
  5  7  1  0  0  0  0
  7  8  1  0  0  0  0
  7  9  1  0  0  0  0
  9 10  1  0  0  0  0
  9 11  1  0  0  0  0
  9 22  1  0  0  0  0
 11 12  1  0  0  0  0
 11 13  1  0  0  0  0
 11 14  1  0  0  0  0
 14 15  1  0  0  0  0
 14 16  1  0  0  0  0
 14 17  1  0  0  0  0
 17 18  1  0  0  0  0
 18 19  1  0  0  0  0
 18 20  1  0  0  0  0
 18 21  1  0  0  0  0
 22 23  2  0  0  0  0
 22 24  1  0  0  0  0
 24 25  1  0  0  0  0
 24 26  1  0  0  0  0
 26 27  1  0  0  0  0
 26 28  1  0  0  0  0
 26 29  1  0  0  0  0
M  END
$$$$

  -OEChem-02102214153D

 29 28  0     1  0  0  0  0  0999 V2000
   -3.8508   -2.9580    1.4752 H   0  0  0  0  0  0  0  0  0  0  0  0
   -3.7035   -2.0278    0.9194 C   0  0  0  0  0  0  0  0  0  0  0  0
   -4.3865   -1.2704    1.3113 H   0  0  0  0  0  0  0  0  0  0  0  0
   -3.9329   -2.2071   -0.1340 H   0  0  0  0  0  0  0  0  0  0  0  0
   -2.2691   -1.5565    1.0607 C   0  0  0  0  0  0  0  0  0  0  0  0
   -1.4736   -2.2100    1.7198 O   0  0  0  0  0  0  0  0  0  0  0  0
   -1.8746   -0.3772    0.4638 N   0  0  0  0  0  0  0  0  0  0  0  0
   -2.5792    0.1657   -0.0309 H   0  0  0  0  0  0  0  0  0  0  0  0
   -0.4982    0.1338    0.4668 C   0  0  1  0  0  0  0  0  0  0  0  0
    0.1054   -0.3673    1.2298 H   0  0  0  0  0  0  0  0  0  0  0  0
    0.1171   -0.0852   -0.9319 C   0  0  0  0  0  0  0  0  0  0  0  0
   -0.6396    0.0336   -1.7151 H   0  0  0  0  0  0  0  0  0  0  0  0
    0.8755    0.6862   -1.1019 H   0  0  0  0  0  0  0  0  0  0  0  0
    0.8160   -1.4453   -1.0524 C   0  0  0  0  0  0  0  0  0  0  0  0
    1.6333   -1.3765   -1.7770 H   0  0  0  0  0  0  0  0  0  0  0  0
    1.2475   -1.7458   -0.0924 H   0  0  0  0  0  0  0  0  0  0  0  0
   -0.3823   -2.7101   -1.6402 S   0  0  0  0  0  0  0  0  0  0  0  0
    0.3083   -4.2389   -0.8959 C   0  0  0  0  0  0  0  0  0  0  0  0
    1.3312   -4.4049   -1.2459 H   0  0  0  0  0  0  0  0  0  0  0  0
   -0.3035   -5.1016   -1.1754 H   0  0  0  0  0  0  0  0  0  0  0  0
    0.3159   -4.1557    0.1957 H   0  0  0  0  0  0  0  0  0  0  0  0
   -0.4986    1.6394    0.8022 C   0  0  0  0  0  0  0  0  0  0  0  0
   -1.3050    2.3894    0.2638 O   0  0  0  0  0  0  0  0  0  0  0  0
    0.4079    2.1556    1.7101 N   0  0  0  0  0  0  0  0  0  0  0  0
    1.0088    1.4973    2.1979 H   0  0  0  0  0  0  0  0  0  0  0  0
    0.4147    3.5540    2.1223 C   0  0  0  0  0  0  0  0  0  0  0  0
   -0.5352    3.8171    2.5995 H   0  0  0  0  0  0  0  0  0  0  0  0
    1.2231    3.7336    2.8374 H   0  0  0  0  0  0  0  0  0  0  0  0
    0.5675    4.2084    1.2577 H   0  0  0  0  0  0  0  0  0  0  0  0
  1  2  1  0  0  0  0
  2  3  1  0  0  0  0
  2  4  1  0  0  0  0
  2  5  1  0  0  0  0
  5  6  2  0  0  0  0
  5  7  1  0  0  0  0
  7  8  1  0  0  0  0
  7  9  1  0  0  0  0
  9 10  1  0  0  0  0
  9 11  1  0  0  0  0
  9 22  1  0  0  0  0
 11 12  1  0  0  0  0
 11 13  1  0  0  0  0
 11 14  1  0  0  0  0
 14 15  1  0  0  0  0
 14 16  1  0  0  0  0
 14 17  1  0  0  0  0
 17 18  1  0  0  0  0
 18 19  1  0  0  0  0
 18 20  1  0  0  0  0
 18 21  1  0  0  0  0
 22 23  2  0  0  0  0
 22 24  1  0  0  0  0
 24 25  1  0  0  0  0
 24 26  1  0  0  0  0
 26 27  1  0  0  0  0
 26 28  1  0  0  0  0
 26 29  1  0  0  0  0
M  END
$$$$

  -OEChem-02102214153D

 29 28  0     1  0  0  0  0  0999 V2000
   -4.0654   -2.8052    1.4021 H   0  0  0  0  0  0  0  0  0  0  0  0
   -3.8632   -1.8808    0.8541 C   0  0  0  0  0  0  0  0  0  0  0  0
   -4.5115   -1.0917    1.2421 H   0  0  0  0  0  0  0  0  0  0  0  0
   -4.0886   -2.0421   -0.2029 H   0  0  0  0  0  0  0  0  0  0  0  0
   -2.4079   -1.4846    1.0157 C   0  0  0  0  0  0  0  0  0  0  0  0
   -1.6535   -2.1826    1.6770 O   0  0  0  0  0  0  0  0  0  0  0  0
   -1.9417   -0.3307    0.4215 N   0  0  0  0  0  0  0  0  0  0  0  0
   -2.6110    0.2529   -0.0765 H   0  0  0  0  0  0  0  0  0  0  0  0
   -0.5466    0.1249    0.4727 C   0  0  1  0  0  0  0  0  0  0  0  0
    0.0058   -0.3854    1.2680 H   0  0  0  0  0  0  0  0  0  0  0  0
    0.0979   -0.1577   -0.8988 C   0  0  0  0  0  0  0  0  0  0  0  0
   -0.6291   -0.0218   -1.7068 H   0  0  0  0  0  0  0  0  0  0  0  0
    0.8952    0.5743   -1.0665 H   0  0  0  0  0  0  0  0  0  0  0  0
    0.7368   -1.5530   -0.9583 C   0  0  0  0  0  0  0  0  0  0  0  0
    1.7202   -1.4885   -1.4347 H   0  0  0  0  0  0  0  0  0  0  0  0
    0.8798   -1.9676    0.0447 H   0  0  0  0  0  0  0  0  0  0  0  0
   -0.3282   -2.6747   -1.9510 S   0  0  0  0  0  0  0  0  0  0  0  0
    0.4363   -4.3011   -1.5804 C   0  0  0  0  0  0  0  0  0  0  0  0
    0.3868   -4.5047   -0.5064 H   0  0  0  0  0  0  0  0  0  0  0  0
   -0.0949   -5.0961   -2.1119 H   0  0  0  0  0  0  0  0  0  0  0  0
    1.4842   -4.3084   -1.8941 H   0  0  0  0  0  0  0  0  0  0  0  0
   -0.4901    1.6335    0.7885 C   0  0  0  0  0  0  0  0  0  0  0  0
   -1.2471    2.4096    0.2166 O   0  0  0  0  0  0  0  0  0  0  0  0
    0.4043    2.1216    1.7235 N   0  0  0  0  0  0  0  0  0  0  0  0
    0.9701    1.4464    2.2295 H   0  0  0  0  0  0  0  0  0  0  0  0
    0.4782    3.5277    2.1018 C   0  0  0  0  0  0  0  0  0  0  0  0
   -0.4711    3.8580    2.5363 H   0  0  0  0  0  0  0  0  0  0  0  0
    1.2692    3.6791    2.8427 H   0  0  0  0  0  0  0  0  0  0  0  0
    0.7012    4.1488    1.2279 H   0  0  0  0  0  0  0  0  0  0  0  0
  1  2  1  0  0  0  0
  2  3  1  0  0  0  0
  2  4  1  0  0  0  0
  2  5  1  0  0  0  0
  5  6  2  0  0  0  0
  5  7  1  0  0  0  0
  7  8  1  0  0  0  0
  7  9  1  0  0  0  0
  9 10  1  0  0  0  0
  9 11  1  0  0  0  0
  9 22  1  0  0  0  0
 11 12  1  0  0  0  0
 11 13  1  0  0  0  0
 11 14  1  0  0  0  0
 14 15  1  0  0  0  0
 14 16  1  0  0  0  0
 14 17  1  0  0  0  0
 17 18  1  0  0  0  0
 18 19  1  0  0  0  0
 18 20  1  0  0  0  0
 18 21  1  0  0  0  0
 22 23  2  0  0  0  0
 22 24  1  0  0  0  0
 24 25  1  0  0  0  0
 24 26  1  0  0  0  0
 26 27  1  0  0  0  0
 26 28  1  0  0  0  0
 26 29  1  0  0  0  0
M  END
$$$$

  -OEChem-02102214153D

 29 28  0     1  0  0  0  0  0999 V2000
   -3.4186   -3.3717    1.3971 H   0  0  0  0  0  0  0  0  0  0  0  0
   -3.3544   -2.4024    0.8946 C   0  0  0  0  0  0  0  0  0  0  0  0
   -4.0095   -1.6950    1.4087 H   0  0  0  0  0  0  0  0  0  0  0  0
   -3.6935   -2.5181   -0.1376 H   0  0  0  0  0  0  0  0  0  0  0  0
   -1.9251   -1.8946    0.9182 C   0  0  0  0  0  0  0  0  0  0  0  0
   -1.0531   -2.5469    1.4701 O   0  0  0  0  0  0  0  0  0  0  0  0
   -1.6157   -0.6904    0.3229 N   0  0  0  0  0  0  0  0  0  0  0  0
   -2.3873   -0.1292   -0.0358 H   0  0  0  0  0  0  0  0  0  0  0  0
   -0.2941   -0.0502    0.3705 C   0  0  1  0  0  0  0  0  0  0  0  0
    0.3170   -0.4791    1.1714 H   0  0  0  0  0  0  0  0  0  0  0  0
    0.4410   -0.1870   -0.9820 C   0  0  0  0  0  0  0  0  0  0  0  0
   -0.2878   -0.1515   -1.7986 H   0  0  0  0  0  0  0  0  0  0  0  0
    1.1062    0.6723   -1.1186 H   0  0  0  0  0  0  0  0  0  0  0  0
    1.3045   -1.4566   -1.0916 C   0  0  0  0  0  0  0  0  0  0  0  0
    2.3482   -1.1675   -1.2496 H   0  0  0  0  0  0  0  0  0  0  0  0
    1.2616   -2.0364   -0.1634 H   0  0  0  0  0  0  0  0  0  0  0  0
    0.7752   -2.5359   -2.4872 S   0  0  0  0  0  0  0  0  0  0  0  0
   -0.7821   -3.3138   -1.9135 C   0  0  0  0  0  0  0  0  0  0  0  0
   -1.5639   -2.5580   -1.8079 H   0  0  0  0  0  0  0  0  0  0  0  0
   -1.1164   -4.0600   -2.6400 H   0  0  0  0  0  0  0  0  0  0  0  0
   -0.6265   -3.8097   -0.9507 H   0  0  0  0  0  0  0  0  0  0  0  0
   -0.4735    1.4497    0.6875 C   0  0  0  0  0  0  0  0  0  0  0  0
   -1.3714    2.0861    0.1473 O   0  0  0  0  0  0  0  0  0  0  0  0
    0.3319    2.0719    1.6236 N   0  0  0  0  0  0  0  0  0  0  0  0
    1.0302    1.5050    2.0964 H   0  0  0  0  0  0  0  0  0  0  0  0
    0.1847    3.4723    2.0032 C   0  0  0  0  0  0  0  0  0  0  0  0
   -0.8074    3.6534    2.4303 H   0  0  0  0  0  0  0  0  0  0  0  0
    0.9368    3.7421    2.7508 H   0  0  0  0  0  0  0  0  0  0  0  0
    0.3168    4.1217    1.1314 H   0  0  0  0  0  0  0  0  0  0  0  0
  1  2  1  0  0  0  0
  2  3  1  0  0  0  0
  2  4  1  0  0  0  0
  2  5  1  0  0  0  0
  5  6  2  0  0  0  0
  5  7  1  0  0  0  0
  7  8  1  0  0  0  0
  7  9  1  0  0  0  0
  9 10  1  0  0  0  0
  9 11  1  0  0  0  0
  9 22  1  0  0  0  0
 11 12  1  0  0  0  0
 11 13  1  0  0  0  0
 11 14  1  0  0  0  0
 14 15  1  0  0  0  0
 14 16  1  0  0  0  0
 14 17  1  0  0  0  0
 17 18  1  0  0  0  0
 18 19  1  0  0  0  0
 18 20  1  0  0  0  0
 18 21  1  0  0  0  0
 22 23  2  0  0  0  0
 22 24  1  0  0  0  0
 24 25  1  0  0  0  0
 24 26  1  0  0  0  0
 26 27  1  0  0  0  0
 26 28  1  0  0  0  0
 26 29  1  0  0  0  0
M  END
$$$$

  -OEChem-02102214153D

 29 28  0     1  0  0  0  0  0999 V2000
   -3.3806   -3.4004    1.2995 H   0  0  0  0  0  0  0  0  0  0  0  0
   -3.3173   -2.4328    0.7937 C   0  0  0  0  0  0  0  0  0  0  0  0
   -3.9895   -1.7304    1.2925 H   0  0  0  0  0  0  0  0  0  0  0  0
   -3.6354   -2.5564   -0.2443 H   0  0  0  0  0  0  0  0  0  0  0  0
   -1.8941   -1.9106    0.8404 C   0  0  0  0  0  0  0  0  0  0  0  0
   -1.0170   -2.5726    1.3715 O   0  0  0  0  0  0  0  0  0  0  0  0
   -1.5934   -0.6910    0.2732 N   0  0  0  0  0  0  0  0  0  0  0  0
   -2.3708   -0.1292   -0.0717 H   0  0  0  0  0  0  0  0  0  0  0  0
   -0.2795   -0.0343    0.3369 C   0  0  1  0  0  0  0  0  0  0  0  0
    0.3388   -0.4738    1.1267 H   0  0  0  0  0  0  0  0  0  0  0  0
    0.4252   -0.1817   -1.0255 C   0  0  0  0  0  0  0  0  0  0  0  0
   -0.3239   -0.1678   -1.8239 H   0  0  0  0  0  0  0  0  0  0  0  0
    1.0856    0.6745   -1.1997 H   0  0  0  0  0  0  0  0  0  0  0  0
    1.2763   -1.4595   -1.1015 C   0  0  0  0  0  0  0  0  0  0  0  0
    2.3347   -1.2012   -0.9976 H   0  0  0  0  0  0  0  0  0  0  0  0
    1.0242   -2.1475   -0.2882 H   0  0  0  0  0  0  0  0  0  0  0  0
    1.0063   -2.3259   -2.6997 S   0  0  0  0  0  0  0  0  0  0  0  0
   -0.6380   -3.0975   -2.4261 C   0  0  0  0  0  0  0  0  0  0  0  0
   -1.3990   -2.3281   -2.2696 H   0  0  0  0  0  0  0  0  0  0  0  0
   -0.9209   -3.6966   -3.2965 H   0  0  0  0  0  0  0  0  0  0  0  0
   -0.6088   -3.7483   -1.5467 H   0  0  0  0  0  0  0  0  0  0  0  0
   -0.4598    1.4579    0.6816 C   0  0  0  0  0  0  0  0  0  0  0  0
   -1.3612    2.0999    0.1543 O   0  0  0  0  0  0  0  0  0  0  0  0
    0.3436    2.0655    1.6287 N   0  0  0  0  0  0  0  0  0  0  0  0
    1.0438    1.4932    2.0920 H   0  0  0  0  0  0  0  0  0  0  0  0
    0.1846    3.4560    2.0374 C   0  0  0  0  0  0  0  0  0  0  0  0
   -0.8109    3.6192    2.4635 H   0  0  0  0  0  0  0  0  0  0  0  0
    0.9312    3.7161    2.7939 H   0  0  0  0  0  0  0  0  0  0  0  0
    0.3147    4.1246    1.1798 H   0  0  0  0  0  0  0  0  0  0  0  0
  1  2  1  0  0  0  0
  2  3  1  0  0  0  0
  2  4  1  0  0  0  0
  2  5  1  0  0  0  0
  5  6  2  0  0  0  0
  5  7  1  0  0  0  0
  7  8  1  0  0  0  0
  7  9  1  0  0  0  0
  9 10  1  0  0  0  0
  9 11  1  0  0  0  0
  9 22  1  0  0  0  0
 11 12  1  0  0  0  0
 11 13  1  0  0  0  0
 11 14  1  0  0  0  0
 14 15  1  0  0  0  0
 14 16  1  0  0  0  0
 14 17  1  0  0  0  0
 17 18  1  0  0  0  0
 18 19  1  0  0  0  0
 18 20  1  0  0  0  0
 18 21  1  0  0  0  0
 22 23  2  0  0  0  0
 22 24  1  0  0  0  0
 24 25  1  0  0  0  0
 24 26  1  0  0  0  0
 26 27  1  0  0  0  0
 26 28  1  0  0  0  0
 26 29  1  0  0  0  0
M  END
$$$$

  -OEChem-02102214153D

 29 28  0     1  0  0  0  0  0999 V2000
   -3.3878   -3.3946    1.2915 H   0  0  0  0  0  0  0  0  0  0  0  0
   -3.3223   -2.4277    0.7847 C   0  0  0  0  0  0  0  0  0  0  0  0
   -3.9934   -1.7234    1.2822 H   0  0  0  0  0  0  0  0  0  0  0  0
   -3.6397   -2.5517   -0.2535 H   0  0  0  0  0  0  0  0  0  0  0  0
   -1.8981   -1.9079    0.8324 C   0  0  0  0  0  0  0  0  0  0  0  0
   -1.0229   -2.5692    1.3678 O   0  0  0  0  0  0  0  0  0  0  0  0
   -1.5966   -0.6851    0.2721 N   0  0  0  0  0  0  0  0  0  0  0  0
   -2.3737   -0.1221   -0.0711 H   0  0  0  0  0  0  0  0  0  0  0  0
   -0.2814   -0.0299    0.3356 C   0  0  1  0  0  0  0  0  0  0  0  0
    0.3411   -0.4777    1.1174 H   0  0  0  0  0  0  0  0  0  0  0  0
    0.4161   -0.1663   -1.0306 C   0  0  0  0  0  0  0  0  0  0  0  0
   -0.3401   -0.1544   -1.8220 H   0  0  0  0  0  0  0  0  0  0  0  0
    1.0764    0.6894   -1.2090 H   0  0  0  0  0  0  0  0  0  0  0  0
    1.2606   -1.4450   -1.1097 C   0  0  0  0  0  0  0  0  0  0  0  0
    2.2706   -1.2447   -0.7386 H   0  0  0  0  0  0  0  0  0  0  0  0
    0.8285   -2.2328   -0.4849 H   0  0  0  0  0  0  0  0  0  0  0  0
    1.3350   -2.0551   -2.8410 S   0  0  0  0  0  0  0  0  0  0  0  0
   -0.3059   -2.8630   -3.0185 C   0  0  0  0  0  0  0  0  0  0  0  0
   -1.1091   -2.1327   -2.8864 H   0  0  0  0  0  0  0  0  0  0  0  0
   -0.3988   -3.3081   -4.0135 H   0  0  0  0  0  0  0  0  0  0  0  0
   -0.4217   -3.6523   -2.2697 H   0  0  0  0  0  0  0  0  0  0  0  0
   -0.4587    1.4603    0.6901 C   0  0  0  0  0  0  0  0  0  0  0  0
   -1.3608    2.1059    0.1683 O   0  0  0  0  0  0  0  0  0  0  0  0
    0.3481    2.0620    1.6380 N   0  0  0  0  0  0  0  0  0  0  0  0
    1.0496    1.4868    2.0958 H   0  0  0  0  0  0  0  0  0  0  0  0
    0.1930    3.4512    2.0524 C   0  0  0  0  0  0  0  0  0  0  0  0
   -0.8029    3.6150    2.4775 H   0  0  0  0  0  0  0  0  0  0  0  0
    0.9390    3.7059    2.8113 H   0  0  0  0  0  0  0  0  0  0  0  0
    0.3264    4.1230    1.1977 H   0  0  0  0  0  0  0  0  0  0  0  0
  1  2  1  0  0  0  0
  2  3  1  0  0  0  0
  2  4  1  0  0  0  0
  2  5  1  0  0  0  0
  5  6  2  0  0  0  0
  5  7  1  0  0  0  0
  7  8  1  0  0  0  0
  7  9  1  0  0  0  0
  9 10  1  0  0  0  0
  9 11  1  0  0  0  0
  9 22  1  0  0  0  0
 11 12  1  0  0  0  0
 11 13  1  0  0  0  0
 11 14  1  0  0  0  0
 14 15  1  0  0  0  0
 14 16  1  0  0  0  0
 14 17  1  0  0  0  0
 17 18  1  0  0  0  0
 18 19  1  0  0  0  0
 18 20  1  0  0  0  0
 18 21  1  0  0  0  0
 22 23  2  0  0  0  0
 22 24  1  0  0  0  0
 24 25  1  0  0  0  0
 24 26  1  0  0  0  0
 26 27  1  0  0  0  0
 26 28  1  0  0  0  0
 26 29  1  0  0  0  0
M  END
$$$$

  -OEChem-02102214153D

 29 28  0     1  0  0  0  0  0999 V2000
   -3.3897   -3.3916    1.3155 H   0  0  0  0  0  0  0  0  0  0  0  0
   -3.3279   -2.4258    0.8060 C   0  0  0  0  0  0  0  0  0  0  0  0
   -3.9884   -1.7180    1.3127 H   0  0  0  0  0  0  0  0  0  0  0  0
   -3.6615   -2.5498   -0.2271 H   0  0  0  0  0  0  0  0  0  0  0  0
   -1.9010   -1.9120    0.8302 C   0  0  0  0  0  0  0  0  0  0  0  0
   -1.0188   -2.5794    1.3464 O   0  0  0  0  0  0  0  0  0  0  0  0
   -1.6042   -0.6872    0.2716 N   0  0  0  0  0  0  0  0  0  0  0  0
   -2.3850   -0.1189   -0.0542 H   0  0  0  0  0  0  0  0  0  0  0  0
   -0.2890   -0.0326    0.3338 C   0  0  1  0  0  0  0  0  0  0  0  0
    0.3340   -0.4834    1.1135 H   0  0  0  0  0  0  0  0  0  0  0  0
    0.4091   -0.1643   -1.0316 C   0  0  0  0  0  0  0  0  0  0  0  0
   -0.3428   -0.1519   -1.8266 H   0  0  0  0  0  0  0  0  0  0  0  0
    1.0725    0.6904   -1.2025 H   0  0  0  0  0  0  0  0  0  0  0  0
    1.2508   -1.4424   -1.1059 C   0  0  0  0  0  0  0  0  0  0  0  0
    2.1572   -1.3247   -0.5041 H   0  0  0  0  0  0  0  0  0  0  0  0
    0.6909   -2.2923   -0.7024 H   0  0  0  0  0  0  0  0  0  0  0  0
    1.7034   -1.8037   -2.8498 S   0  0  0  0  0  0  0  0  0  0  0  0
    0.1487   -2.5204   -3.5170 C   0  0  0  0  0  0  0  0  0  0  0  0
   -0.6585   -1.7831   -3.4887 H   0  0  0  0  0  0  0  0  0  0  0  0
    0.2973   -2.8335   -4.5546 H   0  0  0  0  0  0  0  0  0  0  0  0
   -0.1495   -3.3924   -2.9272 H   0  0  0  0  0  0  0  0  0  0  0  0
   -0.4652    1.4566    0.6935 C   0  0  0  0  0  0  0  0  0  0  0  0
   -1.3721    2.1024    0.1804 O   0  0  0  0  0  0  0  0  0  0  0  0
    0.3441    2.0553    1.6411 N   0  0  0  0  0  0  0  0  0  0  0  0
    1.0527    1.4809    2.0888 H   0  0  0  0  0  0  0  0  0  0  0  0
    0.1931    3.4442    2.0584 C   0  0  0  0  0  0  0  0  0  0  0  0
   -0.8018    3.6108    2.4846 H   0  0  0  0  0  0  0  0  0  0  0  0
    0.9404    3.6947    2.8175 H   0  0  0  0  0  0  0  0  0  0  0  0
    0.3283    4.1174    1.2052 H   0  0  0  0  0  0  0  0  0  0  0  0
  1  2  1  0  0  0  0
  2  3  1  0  0  0  0
  2  4  1  0  0  0  0
  2  5  1  0  0  0  0
  5  6  2  0  0  0  0
  5  7  1  0  0  0  0
  7  8  1  0  0  0  0
  7  9  1  0  0  0  0
  9 10  1  0  0  0  0
  9 11  1  0  0  0  0
  9 22  1  0  0  0  0
 11 12  1  0  0  0  0
 11 13  1  0  0  0  0
 11 14  1  0  0  0  0
 14 15  1  0  0  0  0
 14 16  1  0  0  0  0
 14 17  1  0  0  0  0
 17 18  1  0  0  0  0
 18 19  1  0  0  0  0
 18 20  1  0  0  0  0
 18 21  1  0  0  0  0
 22 23  2  0  0  0  0
 22 24  1  0  0  0  0
 24 25  1  0  0  0  0
 24 26  1  0  0  0  0
 26 27  1  0  0  0  0
 26 28  1  0  0  0  0
 26 29  1  0  0  0  0
M  END
$$$$

  -OEChem-02102214153D

 29 28  0     1  0  0  0  0  0999 V2000
   -3.4002   -3.4003    1.3578 H   0  0  0  0  0  0  0  0  0  0  0  0
   -3.3425   -2.4372    0.8428 C   0  0  0  0  0  0  0  0  0  0  0  0
   -3.9936   -1.7246    1.3551 H   0  0  0  0  0  0  0  0  0  0  0  0
   -3.6908   -2.5655   -0.1849 H   0  0  0  0  0  0  0  0  0  0  0  0
   -1.9137   -1.9282    0.8445 C   0  0  0  0  0  0  0  0  0  0  0  0
   -1.0260   -2.5971    1.3490 O   0  0  0  0  0  0  0  0  0  0  0  0
   -1.6193   -0.7072    0.2754 N   0  0  0  0  0  0  0  0  0  0  0  0
   -2.4025   -0.1374   -0.0418 H   0  0  0  0  0  0  0  0  0  0  0  0
   -0.3041   -0.0514    0.3323 C   0  0  1  0  0  0  0  0  0  0  0  0
    0.3160   -0.5007    1.1153 H   0  0  0  0  0  0  0  0  0  0  0  0
    0.4067   -0.1903   -1.0235 C   0  0  0  0  0  0  0  0  0  0  0  0
   -0.2866    0.0760   -1.8272 H   0  0  0  0  0  0  0  0  0  0  0  0
    1.2478    0.5095   -1.0687 H   0  0  0  0  0  0  0  0  0  0  0  0
    0.9477   -1.6078   -1.2357 C   0  0  0  0  0  0  0  0  0  0  0  0
    1.6590   -1.8551   -0.4414 H   0  0  0  0  0  0  0  0  0  0  0  0
    0.1340   -2.3384   -1.1925 H   0  0  0  0  0  0  0  0  0  0  0  0
    1.7888   -1.7273   -2.8654 S   0  0  0  0  0  0  0  0  0  0  0  0
    0.3808   -1.7507   -4.0452 C   0  0  0  0  0  0  0  0  0  0  0  0
   -0.1775   -0.8117   -3.9966 H   0  0  0  0  0  0  0  0  0  0  0  0
    0.7517   -1.8819   -5.0660 H   0  0  0  0  0  0  0  0  0  0  0  0
   -0.2965   -2.5770   -3.8098 H   0  0  0  0  0  0  0  0  0  0  0  0
   -0.4729    1.4409    0.6799 C   0  0  0  0  0  0  0  0  0  0  0  0
   -1.3809    2.0855    0.1671 O   0  0  0  0  0  0  0  0  0  0  0  0
    0.3414    2.0416    1.6217 N   0  0  0  0  0  0  0  0  0  0  0  0
    1.0534    1.4682    2.0654 H   0  0  0  0  0  0  0  0  0  0  0  0
    0.1964    3.4324    2.0336 C   0  0  0  0  0  0  0  0  0  0  0  0
   -0.7956    3.6033    2.4649 H   0  0  0  0  0  0  0  0  0  0  0  0
    0.9489    3.6843    2.7870 H   0  0  0  0  0  0  0  0  0  0  0  0
    0.3283    4.1011    1.1764 H   0  0  0  0  0  0  0  0  0  0  0  0
  1  2  1  0  0  0  0
  2  3  1  0  0  0  0
  2  4  1  0  0  0  0
  2  5  1  0  0  0  0
  5  6  2  0  0  0  0
  5  7  1  0  0  0  0
  7  8  1  0  0  0  0
  7  9  1  0  0  0  0
  9 10  1  0  0  0  0
  9 11  1  0  0  0  0
  9 22  1  0  0  0  0
 11 12  1  0  0  0  0
 11 13  1  0  0  0  0
 11 14  1  0  0  0  0
 14 15  1  0  0  0  0
 14 16  1  0  0  0  0
 14 17  1  0  0  0  0
 17 18  1  0  0  0  0
 18 19  1  0  0  0  0
 18 20  1  0  0  0  0
 18 21  1  0  0  0  0
 22 23  2  0  0  0  0
 22 24  1  0  0  0  0
 24 25  1  0  0  0  0
 24 26  1  0  0  0  0
 26 27  1  0  0  0  0
 26 28  1  0  0  0  0
 26 29  1  0  0  0  0
M  END
$$$$

  -OEChem-02102214153D

 29 28  0     1  0  0  0  0  0999 V2000
   -3.3991   -3.4005    1.3736 H   0  0  0  0  0  0  0  0  0  0  0  0
   -3.3454   -2.4367    0.8594 C   0  0  0  0  0  0  0  0  0  0  0  0
   -3.9845   -1.7219    1.3835 H   0  0  0  0  0  0  0  0  0  0  0  0
   -3.7119   -2.5613   -0.1623 H   0  0  0  0  0  0  0  0  0  0  0  0
   -1.9144   -1.9346    0.8396 C   0  0  0  0  0  0  0  0  0  0  0  0
   -1.0231   -2.6058    1.3347 O   0  0  0  0  0  0  0  0  0  0  0  0
   -1.6229   -0.7162    0.2642 N   0  0  0  0  0  0  0  0  0  0  0  0
   -2.4086   -0.1442   -0.0428 H   0  0  0  0  0  0  0  0  0  0  0  0
   -0.3081   -0.0600    0.3182 C   0  0  1  0  0  0  0  0  0  0  0  0
    0.3115   -0.5032    1.1050 H   0  0  0  0  0  0  0  0  0  0  0  0
    0.3968   -0.2181   -1.0383 C   0  0  0  0  0  0  0  0  0  0  0  0
   -0.2885    0.0440   -1.8506 H   0  0  0  0  0  0  0  0  0  0  0  0
    1.2423    0.4768   -1.0806 H   0  0  0  0  0  0  0  0  0  0  0  0
    0.9325   -1.6413   -1.2311 C   0  0  0  0  0  0  0  0  0  0  0  0
    1.4422   -1.9734   -0.3209 H   0  0  0  0  0  0  0  0  0  0  0  0
    0.1072   -2.3352   -1.4195 H   0  0  0  0  0  0  0  0  0  0  0  0
    2.1324   -1.6884   -2.6228 S   0  0  0  0  0  0  0  0  0  0  0  0
    1.0627   -1.4025   -4.0883 C   0  0  0  0  0  0  0  0  0  0  0  0
    0.5986   -0.4136   -4.0375 H   0  0  0  0  0  0  0  0  0  0  0  0
    1.6597   -1.4598   -5.0033 H   0  0  0  0  0  0  0  0  0  0  0  0
    0.2755   -2.1607   -4.1357 H   0  0  0  0  0  0  0  0  0  0  0  0
   -0.4744    1.4343    0.6585 C   0  0  0  0  0  0  0  0  0  0  0  0
   -1.3838    2.0769    0.1457 O   0  0  0  0  0  0  0  0  0  0  0  0
    0.3412    2.0383    1.5973 N   0  0  0  0  0  0  0  0  0  0  0  0
    1.0547    1.4664    2.0407 H   0  0  0  0  0  0  0  0  0  0  0  0
    0.1889    3.4268    2.0147 C   0  0  0  0  0  0  0  0  0  0  0  0
   -0.8025    3.5895    2.4508 H   0  0  0  0  0  0  0  0  0  0  0  0
    0.9427    3.6810    2.7661 H   0  0  0  0  0  0  0  0  0  0  0  0
    0.3126    4.1001    1.1599 H   0  0  0  0  0  0  0  0  0  0  0  0
  1  2  1  0  0  0  0
  2  3  1  0  0  0  0
  2  4  1  0  0  0  0
  2  5  1  0  0  0  0
  5  6  2  0  0  0  0
  5  7  1  0  0  0  0
  7  8  1  0  0  0  0
  7  9  1  0  0  0  0
  9 10  1  0  0  0  0
  9 11  1  0  0  0  0
  9 22  1  0  0  0  0
 11 12  1  0  0  0  0
 11 13  1  0  0  0  0
 11 14  1  0  0  0  0
 14 15  1  0  0  0  0
 14 16  1  0  0  0  0
 14 17  1  0  0  0  0
 17 18  1  0  0  0  0
 18 19  1  0  0  0  0
 18 20  1  0  0  0  0
 18 21  1  0  0  0  0
 22 23  2  0  0  0  0
 22 24  1  0  0  0  0
 24 25  1  0  0  0  0
 24 26  1  0  0  0  0
 26 27  1  0  0  0  0
 26 28  1  0  0  0  0
 26 29  1  0  0  0  0
M  END
$$$$

  -OEChem-02102214153D

 29 28  0     1  0  0  0  0  0999 V2000
   -3.4106   -3.4191    1.3533 H   0  0  0  0  0  0  0  0  0  0  0  0
   -3.3557   -2.4454    0.8586 C   0  0  0  0  0  0  0  0  0  0  0  0
   -3.9994   -1.7422    1.3925 H   0  0  0  0  0  0  0  0  0  0  0  0
   -3.7151   -2.5512   -0.1678 H   0  0  0  0  0  0  0  0  0  0  0  0
   -1.9256   -1.9398    0.8570 C   0  0  0  0  0  0  0  0  0  0  0  0
   -1.0413   -2.6019    1.3760 O   0  0  0  0  0  0  0  0  0  0  0  0
   -1.6275   -0.7289    0.2690 N   0  0  0  0  0  0  0  0  0  0  0  0
   -2.4093   -0.1631   -0.0585 H   0  0  0  0  0  0  0  0  0  0  0  0
   -0.3105   -0.0763    0.3153 C   0  0  1  0  0  0  0  0  0  0  0  0
    0.3105   -0.5131    1.1046 H   0  0  0  0  0  0  0  0  0  0  0  0
    0.3845   -0.2492   -1.0446 C   0  0  0  0  0  0  0  0  0  0  0  0
   -0.2966    0.0158   -1.8601 H   0  0  0  0  0  0  0  0  0  0  0  0
    1.2321    0.4432   -1.0860 H   0  0  0  0  0  0  0  0  0  0  0  0
    0.9159   -1.6757   -1.2373 C   0  0  0  0  0  0  0  0  0  0  0  0
    1.1996   -2.1064   -0.2715 H   0  0  0  0  0  0  0  0  0  0  0  0
    0.1354   -2.3133   -1.6643 H   0  0  0  0  0  0  0  0  0  0  0  0
    2.4062   -1.6680   -2.3143 S   0  0  0  0  0  0  0  0  0  0  0  0
    1.7365   -1.0655   -3.9151 C   0  0  0  0  0  0  0  0  0  0  0  0
    1.3570   -0.0448   -3.8119 H   0  0  0  0  0  0  0  0  0  0  0  0
    2.5239   -1.0692   -4.6747 H   0  0  0  0  0  0  0  0  0  0  0  0
    0.9217   -1.7130   -4.2522 H   0  0  0  0  0  0  0  0  0  0  0  0
   -0.4699    1.4222    0.6391 C   0  0  0  0  0  0  0  0  0  0  0  0
   -1.3715    2.0651    0.1131 O   0  0  0  0  0  0  0  0  0  0  0  0
    0.3490    2.0327    1.5707 N   0  0  0  0  0  0  0  0  0  0  0  0
    1.0570    1.4609    2.0230 H   0  0  0  0  0  0  0  0  0  0  0  0
    0.2045    3.4266    1.9724 C   0  0  0  0  0  0  0  0  0  0  0  0
   -0.7759    3.5938    2.4309 H   0  0  0  0  0  0  0  0  0  0  0  0
    0.9768    3.6916    2.7009 H   0  0  0  0  0  0  0  0  0  0  0  0
    0.3060    4.0886    1.1059 H   0  0  0  0  0  0  0  0  0  0  0  0
  1  2  1  0  0  0  0
  2  3  1  0  0  0  0
  2  4  1  0  0  0  0
  2  5  1  0  0  0  0
  5  6  2  0  0  0  0
  5  7  1  0  0  0  0
  7  8  1  0  0  0  0
  7  9  1  0  0  0  0
  9 10  1  0  0  0  0
  9 11  1  0  0  0  0
  9 22  1  0  0  0  0
 11 12  1  0  0  0  0
 11 13  1  0  0  0  0
 11 14  1  0  0  0  0
 14 15  1  0  0  0  0
 14 16  1  0  0  0  0
 14 17  1  0  0  0  0
 17 18  1  0  0  0  0
 18 19  1  0  0  0  0
 18 20  1  0  0  0  0
 18 21  1  0  0  0  0
 22 23  2  0  0  0  0
 22 24  1  0  0  0  0
 24 25  1  0  0  0  0
 24 26  1  0  0  0  0
 26 27  1  0  0  0  0
 26 28  1  0  0  0  0
 26 29  1  0  0  0  0
M  END
$$$$

  -OEChem-02102214153D

 29 28  0     1  0  0  0  0  0999 V2000
   -3.4227   -3.4036    1.3527 H   0  0  0  0  0  0  0  0  0  0  0  0
   -3.3579   -2.4411    0.8376 C   0  0  0  0  0  0  0  0  0  0  0  0
   -4.0096   -1.7258    1.3451 H   0  0  0  0  0  0  0  0  0  0  0  0
   -3.7001   -2.5689   -0.1921 H   0  0  0  0  0  0  0  0  0  0  0  0
   -1.9273   -1.9370    0.8491 C   0  0  0  0  0  0  0  0  0  0  0  0
   -1.0499   -2.6011    1.3763 O   0  0  0  0  0  0  0  0  0  0  0  0
   -1.6250   -0.7221    0.2717 N   0  0  0  0  0  0  0  0  0  0  0  0
   -2.4051   -0.1574   -0.0614 H   0  0  0  0  0  0  0  0  0  0  0  0
   -0.3085   -0.0677    0.3214 C   0  0  1  0  0  0  0  0  0  0  0  0
    0.3147   -0.5108    1.1053 H   0  0  0  0  0  0  0  0  0  0  0  0
    0.3865   -0.2248   -1.0416 C   0  0  0  0  0  0  0  0  0  0  0  0
   -0.2985    0.0450   -1.8523 H   0  0  0  0  0  0  0  0  0  0  0  0
    1.2249    0.4788   -1.0773 H   0  0  0  0  0  0  0  0  0  0  0  0
    0.9275   -1.6462   -1.2625 C   0  0  0  0  0  0  0  0  0  0  0  0
    0.9674   -2.1905   -0.3136 H   0  0  0  0  0  0  0  0  0  0  0  0
    0.2620   -2.2023   -1.9300 H   0  0  0  0  0  0  0  0  0  0  0  0
    2.6319   -1.5923   -1.9514 S   0  0  0  0  0  0  0  0  0  0  0  0
    2.3479   -0.8966   -3.6276 C   0  0  0  0  0  0  0  0  0  0  0  0
    1.9115    0.1039   -3.5583 H   0  0  0  0  0  0  0  0  0  0  0  0
    3.2959   -0.8273   -4.1694 H   0  0  0  0  0  0  0  0  0  0  0  0
    1.6675   -1.5395   -4.1939 H   0  0  0  0  0  0  0  0  0  0  0  0
   -0.4699    1.4285    0.6565 C   0  0  0  0  0  0  0  0  0  0  0  0
   -1.3722    2.0745    0.1356 O   0  0  0  0  0  0  0  0  0  0  0  0
    0.3490    2.0336    1.5917 N   0  0  0  0  0  0  0  0  0  0  0  0
    1.0607    1.4605    2.0369 H   0  0  0  0  0  0  0  0  0  0  0  0
    0.2055    3.4256    2.0006 C   0  0  0  0  0  0  0  0  0  0  0  0
   -0.7846    3.5972    2.4359 H   0  0  0  0  0  0  0  0  0  0  0  0
    0.9610    3.6797    2.7504 H   0  0  0  0  0  0  0  0  0  0  0  0
    0.3334    4.0928    1.1417 H   0  0  0  0  0  0  0  0  0  0  0  0
  1  2  1  0  0  0  0
  2  3  1  0  0  0  0
  2  4  1  0  0  0  0
  2  5  1  0  0  0  0
  5  6  2  0  0  0  0
  5  7  1  0  0  0  0
  7  8  1  0  0  0  0
  7  9  1  0  0  0  0
  9 10  1  0  0  0  0
  9 11  1  0  0  0  0
  9 22  1  0  0  0  0
 11 12  1  0  0  0  0
 11 13  1  0  0  0  0
 11 14  1  0  0  0  0
 14 15  1  0  0  0  0
 14 16  1  0  0  0  0
 14 17  1  0  0  0  0
 17 18  1  0  0  0  0
 18 19  1  0  0  0  0
 18 20  1  0  0  0  0
 18 21  1  0  0  0  0
 22 23  2  0  0  0  0
 22 24  1  0  0  0  0
 24 25  1  0  0  0  0
 24 26  1  0  0  0  0
 26 27  1  0  0  0  0
 26 28  1  0  0  0  0
 26 29  1  0  0  0  0
M  END
$$$$

  -OEChem-02102214153D

 29 28  0     1  0  0  0  0  0999 V2000
   -3.4295   -3.4139    1.3300 H   0  0  0  0  0  0  0  0  0  0  0  0
   -3.3599   -2.4507    0.8170 C   0  0  0  0  0  0  0  0  0  0  0  0
   -4.0265   -1.7398    1.3111 H   0  0  0  0  0  0  0  0  0  0  0  0
   -3.6797   -2.5800   -0.2196 H   0  0  0  0  0  0  0  0  0  0  0  0
   -1.9331   -1.9376    0.8588 C   0  0  0  0  0  0  0  0  0  0  0  0
   -1.0661   -2.5908    1.4156 O   0  0  0  0  0  0  0  0  0  0  0  0
   -1.6283   -0.7202    0.2875 N   0  0  0  0  0  0  0  0  0  0  0  0
   -2.4055   -0.1636   -0.0651 H   0  0  0  0  0  0  0  0  0  0  0  0
   -0.3128   -0.0626    0.3359 C   0  0  1  0  0  0  0  0  0  0  0  0
    0.3162   -0.5115    1.1123 H   0  0  0  0  0  0  0  0  0  0  0  0
    0.3843   -0.1953   -1.0296 C   0  0  0  0  0  0  0  0  0  0  0  0
   -0.3167    0.0707   -1.8276 H   0  0  0  0  0  0  0  0  0  0  0  0
    1.2080    0.5248   -1.0725 H   0  0  0  0  0  0  0  0  0  0  0  0
    0.9373   -1.6078   -1.2798 C   0  0  0  0  0  0  0  0  0  0  0  0
    0.7261   -2.2622   -0.4290 H   0  0  0  0  0  0  0  0  0  0  0  0
    0.4528   -2.0476   -2.1571 H   0  0  0  0  0  0  0  0  0  0  0  0
    2.7584   -1.5571   -1.5336 S   0  0  0  0  0  0  0  0  0  0  0  0
    2.8947   -0.7789   -3.1922 C   0  0  0  0  0  0  0  0  0  0  0  0
    2.4604    0.2250   -3.1821 H   0  0  0  0  0  0  0  0  0  0  0  0
    3.9464   -0.7015   -3.4837 H   0  0  0  0  0  0  0  0  0  0  0  0
    2.3686   -1.3827   -3.9377 H   0  0  0  0  0  0  0  0  0  0  0  0
   -0.4786    1.4311    0.6779 C   0  0  0  0  0  0  0  0  0  0  0  0
   -1.3789    2.0794    0.1557 O   0  0  0  0  0  0  0  0  0  0  0  0
    0.3418    2.0330    1.6134 N   0  0  0  0  0  0  0  0  0  0  0  0
    1.0549    1.4581    2.0541 H   0  0  0  0  0  0  0  0  0  0  0  0
    0.2078    3.4270    2.0177 C   0  0  0  0  0  0  0  0  0  0  0  0
   -0.7822    3.6075    2.4496 H   0  0  0  0  0  0  0  0  0  0  0  0
    0.9634    3.6772    2.7686 H   0  0  0  0  0  0  0  0  0  0  0  0
    0.3434    4.0899    1.1566 H   0  0  0  0  0  0  0  0  0  0  0  0
  1  2  1  0  0  0  0
  2  3  1  0  0  0  0
  2  4  1  0  0  0  0
  2  5  1  0  0  0  0
  5  6  2  0  0  0  0
  5  7  1  0  0  0  0
  7  8  1  0  0  0  0
  7  9  1  0  0  0  0
  9 10  1  0  0  0  0
  9 11  1  0  0  0  0
  9 22  1  0  0  0  0
 11 12  1  0  0  0  0
 11 13  1  0  0  0  0
 11 14  1  0  0  0  0
 14 15  1  0  0  0  0
 14 16  1  0  0  0  0
 14 17  1  0  0  0  0
 17 18  1  0  0  0  0
 18 19  1  0  0  0  0
 18 20  1  0  0  0  0
 18 21  1  0  0  0  0
 22 23  2  0  0  0  0
 22 24  1  0  0  0  0
 24 25  1  0  0  0  0
 24 26  1  0  0  0  0
 26 27  1  0  0  0  0
 26 28  1  0  0  0  0
 26 29  1  0  0  0  0
M  END
$$$$

  -OEChem-02102214153D

 29 28  0     1  0  0  0  0  0999 V2000
   -3.4251   -3.4261    1.3170 H   0  0  0  0  0  0  0  0  0  0  0  0
   -3.3580   -2.4605    0.8082 C   0  0  0  0  0  0  0  0  0  0  0  0
   -4.0315   -1.7554    1.3015 H   0  0  0  0  0  0  0  0  0  0  0  0
   -3.6707   -2.5875   -0.2310 H   0  0  0  0  0  0  0  0  0  0  0  0
   -1.9344   -1.9394    0.8605 C   0  0  0  0  0  0  0  0  0  0  0  0
   -1.0679   -2.5886    1.4227 O   0  0  0  0  0  0  0  0  0  0  0  0
   -1.6347   -0.7178    0.2955 N   0  0  0  0  0  0  0  0  0  0  0  0
   -2.4144   -0.1667   -0.0599 H   0  0  0  0  0  0  0  0  0  0  0  0
   -0.3222   -0.0529    0.3421 C   0  0  1  0  0  0  0  0  0  0  0  0
    0.3117   -0.5057    1.1123 H   0  0  0  0  0  0  0  0  0  0  0  0
    0.3791   -0.1653   -1.0236 C   0  0  0  0  0  0  0  0  0  0  0  0
   -0.3396    0.0874   -1.8102 H   0  0  0  0  0  0  0  0  0  0  0  0
    1.1870    0.5706   -1.0810 H   0  0  0  0  0  0  0  0  0  0  0  0
    0.9453   -1.5682   -1.2899 C   0  0  0  0  0  0  0  0  0  0  0  0
    0.5067   -2.3041   -0.6106 H   0  0  0  0  0  0  0  0  0  0  0  0
    0.6960   -1.8776   -2.3097 H   0  0  0  0  0  0  0  0  0  0  0  0
    2.7745   -1.5705   -1.0928 S   0  0  0  0  0  0  0  0  0  0  0  0
    3.3403   -0.7377   -2.6299 C   0  0  0  0  0  0  0  0  0  0  0  0
    2.9477    0.2819   -2.6818 H   0  0  0  0  0  0  0  0  0  0  0  0
    4.4332   -0.6920   -2.6493 H   0  0  0  0  0  0  0  0  0  0  0  0
    2.9985   -1.2922   -3.5089 H   0  0  0  0  0  0  0  0  0  0  0  0
   -0.4932    1.4379    0.6927 C   0  0  0  0  0  0  0  0  0  0  0  0
   -1.3945    2.0871    0.1734 O   0  0  0  0  0  0  0  0  0  0  0  0
    0.3291    2.0373    1.6281 N   0  0  0  0  0  0  0  0  0  0  0  0
    1.0445    1.4612    2.0635 H   0  0  0  0  0  0  0  0  0  0  0  0
    0.1960    3.4299    2.0373 C   0  0  0  0  0  0  0  0  0  0  0  0
   -0.7943    3.6101    2.4687 H   0  0  0  0  0  0  0  0  0  0  0  0
    0.9506    3.6763    2.7905 H   0  0  0  0  0  0  0  0  0  0  0  0
    0.3335    4.0959    1.1790 H   0  0  0  0  0  0  0  0  0  0  0  0
  1  2  1  0  0  0  0
  2  3  1  0  0  0  0
  2  4  1  0  0  0  0
  2  5  1  0  0  0  0
  5  6  2  0  0  0  0
  5  7  1  0  0  0  0
  7  8  1  0  0  0  0
  7  9  1  0  0  0  0
  9 10  1  0  0  0  0
  9 11  1  0  0  0  0
  9 22  1  0  0  0  0
 11 12  1  0  0  0  0
 11 13  1  0  0  0  0
 11 14  1  0  0  0  0
 14 15  1  0  0  0  0
 14 16  1  0  0  0  0
 14 17  1  0  0  0  0
 17 18  1  0  0  0  0
 18 19  1  0  0  0  0
 18 20  1  0  0  0  0
 18 21  1  0  0  0  0
 22 23  2  0  0  0  0
 22 24  1  0  0  0  0
 24 25  1  0  0  0  0
 24 26  1  0  0  0  0
 26 27  1  0  0  0  0
 26 28  1  0  0  0  0
 26 29  1  0  0  0  0
M  END
$$$$

  -OEChem-02102214153D

 29 28  0     1  0  0  0  0  0999 V2000
   -3.4096   -3.4315    1.3181 H   0  0  0  0  0  0  0  0  0  0  0  0
   -3.3518   -2.4634    0.8127 C   0  0  0  0  0  0  0  0  0  0  0  0
   -4.0191   -1.7619    1.3193 H   0  0  0  0  0  0  0  0  0  0  0  0
   -3.6797   -2.5859   -0.2222 H   0  0  0  0  0  0  0  0  0  0  0  0
   -1.9280   -1.9407    0.8458 C   0  0  0  0  0  0  0  0  0  0  0  0
   -1.0519   -2.5958    1.3852 O   0  0  0  0  0  0  0  0  0  0  0  0
   -1.6382   -0.7136    0.2869 N   0  0  0  0  0  0  0  0  0  0  0  0
   -2.4240   -0.1592   -0.0496 H   0  0  0  0  0  0  0  0  0  0  0  0
   -0.3290   -0.0417    0.3341 C   0  0  1  0  0  0  0  0  0  0  0  0
    0.3071   -0.4951    1.1022 H   0  0  0  0  0  0  0  0  0  0  0  0
    0.3775   -0.1429   -1.0305 C   0  0  0  0  0  0  0  0  0  0  0  0
   -0.3454    0.1015   -1.8161 H   0  0  0  0  0  0  0  0  0  0  0  0
    1.1803    0.5982   -1.0908 H   0  0  0  0  0  0  0  0  0  0  0  0
    0.9517   -1.5405   -1.2969 C   0  0  0  0  0  0  0  0  0  0  0  0
    0.3351   -2.3130   -0.8291 H   0  0  0  0  0  0  0  0  0  0  0  0
    0.9564   -1.7356   -2.3737 H   0  0  0  0  0  0  0  0  0  0  0  0
    2.6774   -1.6480   -0.6678 S   0  0  0  0  0  0  0  0  0  0  0  0
    3.6409   -0.7677   -1.9614 C   0  0  0  0  0  0  0  0  0  0  0  0
    3.3226    0.2758   -2.0362 H   0  0  0  0  0  0  0  0  0  0  0  0
    4.7062   -0.7895   -1.7128 H   0  0  0  0  0  0  0  0  0  0  0  0
    3.4991   -1.2502   -2.9330 H   0  0  0  0  0  0  0  0  0  0  0  0
   -0.5089    1.4455    0.6944 C   0  0  0  0  0  0  0  0  0  0  0  0
   -1.4159    2.0919    0.1813 O   0  0  0  0  0  0  0  0  0  0  0  0
    0.3114    2.0449    1.6316 N   0  0  0  0  0  0  0  0  0  0  0  0
    1.0288    1.4693    2.0649 H   0  0  0  0  0  0  0  0  0  0  0  0
    0.1692    3.4340    2.0499 C   0  0  0  0  0  0  0  0  0  0  0  0
   -0.8202    3.6034    2.4879 H   0  0  0  0  0  0  0  0  0  0  0  0
    0.9263    3.6826    2.7999 H   0  0  0  0  0  0  0  0  0  0  0  0
    0.2961    4.1063    1.1948 H   0  0  0  0  0  0  0  0  0  0  0  0
  1  2  1  0  0  0  0
  2  3  1  0  0  0  0
  2  4  1  0  0  0  0
  2  5  1  0  0  0  0
  5  6  2  0  0  0  0
  5  7  1  0  0  0  0
  7  8  1  0  0  0  0
  7  9  1  0  0  0  0
  9 10  1  0  0  0  0
  9 11  1  0  0  0  0
  9 22  1  0  0  0  0
 11 12  1  0  0  0  0
 11 13  1  0  0  0  0
 11 14  1  0  0  0  0
 14 15  1  0  0  0  0
 14 16  1  0  0  0  0
 14 17  1  0  0  0  0
 17 18  1  0  0  0  0
 18 19  1  0  0  0  0
 18 20  1  0  0  0  0
 18 21  1  0  0  0  0
 22 23  2  0  0  0  0
 22 24  1  0  0  0  0
 24 25  1  0  0  0  0
 24 26  1  0  0  0  0
 26 27  1  0  0  0  0
 26 28  1  0  0  0  0
 26 29  1  0  0  0  0
M  END
$$$$

  -OEChem-02102214153D

 29 28  0     1  0  0  0  0  0999 V2000
   -3.3909   -3.4373    1.2989 H   0  0  0  0  0  0  0  0  0  0  0  0
   -3.3404   -2.4620    0.8068 C   0  0  0  0  0  0  0  0  0  0  0  0
   -4.0066   -1.7699    1.3277 H   0  0  0  0  0  0  0  0  0  0  0  0
   -3.6754   -2.5714   -0.2274 H   0  0  0  0  0  0  0  0  0  0  0  0
   -1.9183   -1.9347    0.8382 C   0  0  0  0  0  0  0  0  0  0  0  0
   -1.0398   -2.5876    1.3756 O   0  0  0  0  0  0  0  0  0  0  0  0
   -1.6333   -0.7082    0.2758 N   0  0  0  0  0  0  0  0  0  0  0  0
   -2.4211   -0.1584   -0.0628 H   0  0  0  0  0  0  0  0  0  0  0  0
   -0.3275   -0.0304    0.3238 C   0  0  1  0  0  0  0  0  0  0  0  0
    0.3040   -0.4778    1.0989 H   0  0  0  0  0  0  0  0  0  0  0  0
    0.3777   -0.1446   -1.0407 C   0  0  0  0  0  0  0  0  0  0  0  0
   -0.3417    0.0948   -1.8310 H   0  0  0  0  0  0  0  0  0  0  0  0
    1.1840    0.5921   -1.1041 H   0  0  0  0  0  0  0  0  0  0  0  0
    0.9550   -1.5424   -1.2920 C   0  0  0  0  0  0  0  0  0  0  0  0
    0.2175   -2.3100   -1.0393 H   0  0  0  0  0  0  0  0  0  0  0  0
    1.1970   -1.6564   -2.3531 H   0  0  0  0  0  0  0  0  0  0  0  0
    2.4820   -1.7972   -0.2961 S   0  0  0  0  0  0  0  0  0  0  0  0
    3.7465   -0.8452   -1.2289 C   0  0  0  0  0  0  0  0  0  0  0  0
    3.4978    0.2196   -1.2392 H   0  0  0  0  0  0  0  0  0  0  0  0
    4.7271   -0.9685   -0.7598 H   0  0  0  0  0  0  0  0  0  0  0  0
    3.8054   -1.2041   -2.2607 H   0  0  0  0  0  0  0  0  0  0  0  0
   -0.5076    1.4577    0.6777 C   0  0  0  0  0  0  0  0  0  0  0  0
   -1.4121    2.1036    0.1598 O   0  0  0  0  0  0  0  0  0  0  0  0
    0.3127    2.0585    1.6140 N   0  0  0  0  0  0  0  0  0  0  0  0
    1.0130    1.4763    2.0662 H   0  0  0  0  0  0  0  0  0  0  0  0
    0.1522    3.4401    2.0496 C   0  0  0  0  0  0  0  0  0  0  0  0
   -0.8315    3.5851    2.5084 H   0  0  0  0  0  0  0  0  0  0  0  0
    0.9191    3.6956    2.7871 H   0  0  0  0  0  0  0  0  0  0  0  0
    0.2489    4.1237    1.1997 H   0  0  0  0  0  0  0  0  0  0  0  0
  1  2  1  0  0  0  0
  2  3  1  0  0  0  0
  2  4  1  0  0  0  0
  2  5  1  0  0  0  0
  5  6  2  0  0  0  0
  5  7  1  0  0  0  0
  7  8  1  0  0  0  0
  7  9  1  0  0  0  0
  9 10  1  0  0  0  0
  9 11  1  0  0  0  0
  9 22  1  0  0  0  0
 11 12  1  0  0  0  0
 11 13  1  0  0  0  0
 11 14  1  0  0  0  0
 14 15  1  0  0  0  0
 14 16  1  0  0  0  0
 14 17  1  0  0  0  0
 17 18  1  0  0  0  0
 18 19  1  0  0  0  0
 18 20  1  0  0  0  0
 18 21  1  0  0  0  0
 22 23  2  0  0  0  0
 22 24  1  0  0  0  0
 24 25  1  0  0  0  0
 24 26  1  0  0  0  0
 26 27  1  0  0  0  0
 26 28  1  0  0  0  0
 26 29  1  0  0  0  0
M  END
$$$$

  -OEChem-02102214153D

 29 28  0     1  0  0  0  0  0999 V2000
   -3.3938   -3.4372    1.2972 H   0  0  0  0  0  0  0  0  0  0  0  0
   -3.3322   -2.4705    0.7896 C   0  0  0  0  0  0  0  0  0  0  0  0
   -4.0186   -1.7729    1.2756 H   0  0  0  0  0  0  0  0  0  0  0  0
   -3.6324   -2.6002   -0.2528 H   0  0  0  0  0  0  0  0  0  0  0  0
   -1.9148   -1.9340    0.8571 C   0  0  0  0  0  0  0  0  0  0  0  0
   -1.0507   -2.5717    1.4337 O   0  0  0  0  0  0  0  0  0  0  0  0
   -1.6226   -0.7135    0.2856 N   0  0  0  0  0  0  0  0  0  0  0  0
   -2.4034   -0.1756   -0.0861 H   0  0  0  0  0  0  0  0  0  0  0  0
   -0.3148   -0.0400    0.3311 C   0  0  1  0  0  0  0  0  0  0  0  0
    0.3134   -0.4806    1.1111 H   0  0  0  0  0  0  0  0  0  0  0  0
    0.3729   -0.1701   -1.0430 C   0  0  0  0  0  0  0  0  0  0  0  0
   -0.3452    0.0841   -1.8298 H   0  0  0  0  0  0  0  0  0  0  0  0
    1.1889    0.5561   -1.1057 H   0  0  0  0  0  0  0  0  0  0  0  0
    0.9466   -1.5668   -1.3171 C   0  0  0  0  0  0  0  0  0  0  0  0
    0.1362   -2.3022   -1.2954 H   0  0  0  0  0  0  0  0  0  0  0  0
    1.3886   -1.5918   -2.3179 H   0  0  0  0  0  0  0  0  0  0  0  0
    2.2194   -2.0531   -0.0776 S   0  0  0  0  0  0  0  0  0  0  0  0
    3.6227   -0.9325   -0.4630 C   0  0  0  0  0  0  0  0  0  0  0  0
    3.3505    0.1076   -0.2638 H   0  0  0  0  0  0  0  0  0  0  0  0
    4.4867   -1.1902    0.1566 H   0  0  0  0  0  0  0  0  0  0  0  0
    3.9058   -1.0290   -1.5153 H   0  0  0  0  0  0  0  0  0  0  0  0
   -0.4882    1.4520    0.6719 C   0  0  0  0  0  0  0  0  0  0  0  0
   -1.3767    2.1035    0.1340 O   0  0  0  0  0  0  0  0  0  0  0  0
    0.3335    2.0558    1.6051 N   0  0  0  0  0  0  0  0  0  0  0  0
    1.0108    1.4672    2.0828 H   0  0  0  0  0  0  0  0  0  0  0  0
    0.1917    3.4474    2.0151 C   0  0  0  0  0  0  0  0  0  0  0  0
   -0.7955    3.6182    2.4574 H   0  0  0  0  0  0  0  0  0  0  0  0
    0.9530    3.7020    2.7587 H   0  0  0  0  0  0  0  0  0  0  0  0
    0.3129    4.1145    1.1551 H   0  0  0  0  0  0  0  0  0  0  0  0
  1  2  1  0  0  0  0
  2  3  1  0  0  0  0
  2  4  1  0  0  0  0
  2  5  1  0  0  0  0
  5  6  2  0  0  0  0
  5  7  1  0  0  0  0
  7  8  1  0  0  0  0
  7  9  1  0  0  0  0
  9 10  1  0  0  0  0
  9 11  1  0  0  0  0
  9 22  1  0  0  0  0
 11 12  1  0  0  0  0
 11 13  1  0  0  0  0
 11 14  1  0  0  0  0
 14 15  1  0  0  0  0
 14 16  1  0  0  0  0
 14 17  1  0  0  0  0
 17 18  1  0  0  0  0
 18 19  1  0  0  0  0
 18 20  1  0  0  0  0
 18 21  1  0  0  0  0
 22 23  2  0  0  0  0
 22 24  1  0  0  0  0
 24 25  1  0  0  0  0
 24 26  1  0  0  0  0
 26 27  1  0  0  0  0
 26 28  1  0  0  0  0
 26 29  1  0  0  0  0
M  END
$$$$

  -OEChem-02102214153D

 29 28  0     1  0  0  0  0  0999 V2000
   -3.3794   -3.4535    1.2664 H   0  0  0  0  0  0  0  0  0  0  0  0
   -3.3123   -2.4846    0.7636 C   0  0  0  0  0  0  0  0  0  0  0  0
   -4.0403   -1.8037    1.2109 H   0  0  0  0  0  0  0  0  0  0  0  0
   -3.5507   -2.6202   -0.2940 H   0  0  0  0  0  0  0  0  0  0  0  0
   -1.9138   -1.9160    0.9099 C   0  0  0  0  0  0  0  0  0  0  0  0
   -1.0879   -2.5073    1.5833 O   0  0  0  0  0  0  0  0  0  0  0  0
   -1.6076   -0.7069    0.3219 N   0  0  0  0  0  0  0  0  0  0  0  0
   -2.3696   -0.1988   -0.1228 H   0  0  0  0  0  0  0  0  0  0  0  0
   -0.2974   -0.0391    0.3661 C   0  0  1  0  0  0  0  0  0  0  0  0
    0.3312   -0.4689    1.1509 H   0  0  0  0  0  0  0  0  0  0  0  0
    0.3742   -0.1750   -1.0185 C   0  0  0  0  0  0  0  0  0  0  0  0
   -0.3399    0.1088   -1.7990 H   0  0  0  0  0  0  0  0  0  0  0  0
    1.2006    0.5412   -1.0670 H   0  0  0  0  0  0  0  0  0  0  0  0
    0.9519   -1.5618   -1.3471 C   0  0  0  0  0  0  0  0  0  0  0  0
    0.1214   -2.2368   -1.5768 H   0  0  0  0  0  0  0  0  0  0  0  0
    1.5769   -1.4929   -2.2427 H   0  0  0  0  0  0  0  0  0  0  0  0
    1.9252   -2.3171    0.0209 S   0  0  0  0  0  0  0  0  0  0  0  0
    3.3507   -1.1714    0.1849 C   0  0  0  0  0  0  0  0  0  0  0  0
    3.0094   -0.1756    0.4808 H   0  0  0  0  0  0  0  0  0  0  0  0
    4.0426   -1.5436    0.9464 H   0  0  0  0  0  0  0  0  0  0  0  0
    3.8859   -1.0941   -0.7661 H   0  0  0  0  0  0  0  0  0  0  0  0
   -0.4732    1.4586    0.6822 C   0  0  0  0  0  0  0  0  0  0  0  0
   -1.3424    2.1074    0.1102 O   0  0  0  0  0  0  0  0  0  0  0  0
    0.3402    2.0781    1.6127 N   0  0  0  0  0  0  0  0  0  0  0  0
    0.9847    1.4903    2.1345 H   0  0  0  0  0  0  0  0  0  0  0  0
    0.1911    3.4764    1.9968 C   0  0  0  0  0  0  0  0  0  0  0  0
   -0.7998    3.6518    2.4287 H   0  0  0  0  0  0  0  0  0  0  0  0
    0.9461    3.7470    2.7412 H   0  0  0  0  0  0  0  0  0  0  0  0
    0.3166    4.1280    1.1256 H   0  0  0  0  0  0  0  0  0  0  0  0
  1  2  1  0  0  0  0
  2  3  1  0  0  0  0
  2  4  1  0  0  0  0
  2  5  1  0  0  0  0
  5  6  2  0  0  0  0
  5  7  1  0  0  0  0
  7  8  1  0  0  0  0
  7  9  1  0  0  0  0
  9 10  1  0  0  0  0
  9 11  1  0  0  0  0
  9 22  1  0  0  0  0
 11 12  1  0  0  0  0
 11 13  1  0  0  0  0
 11 14  1  0  0  0  0
 14 15  1  0  0  0  0
 14 16  1  0  0  0  0
 14 17  1  0  0  0  0
 17 18  1  0  0  0  0
 18 19  1  0  0  0  0
 18 20  1  0  0  0  0
 18 21  1  0  0  0  0
 22 23  2  0  0  0  0
 22 24  1  0  0  0  0
 24 25  1  0  0  0  0
 24 26  1  0  0  0  0
 26 27  1  0  0  0  0
 26 28  1  0  0  0  0
 26 29  1  0  0  0  0
M  END
$$$$

  -OEChem-02102214153D

 29 28  0     1  0  0  0  0  0999 V2000
   -3.3787   -3.4673    1.2320 H   0  0  0  0  0  0  0  0  0  0  0  0
   -3.3081   -2.5007    0.7250 C   0  0  0  0  0  0  0  0  0  0  0  0
   -4.1016   -1.8480    1.0968 H   0  0  0  0  0  0  0  0  0  0  0  0
   -3.4450   -2.6567   -0.3477 H   0  0  0  0  0  0  0  0  0  0  0  0
   -1.9535   -1.8707    0.9889 C   0  0  0  0  0  0  0  0  0  0  0  0
   -1.2018   -2.3745    1.8057 O   0  0  0  0  0  0  0  0  0  0  0  0
   -1.6262   -0.6799    0.3749 N   0  0  0  0  0  0  0  0  0  0  0  0
   -2.3451   -0.2360   -0.1921 H   0  0  0  0  0  0  0  0  0  0  0  0
   -0.3148   -0.0147    0.4320 C   0  0  1  0  0  0  0  0  0  0  0  0
    0.3042   -0.4295    1.2325 H   0  0  0  0  0  0  0  0  0  0  0  0
    0.3754   -0.1574   -0.9460 C   0  0  0  0  0  0  0  0  0  0  0  0
   -0.3208    0.1469   -1.7349 H   0  0  0  0  0  0  0  0  0  0  0  0
    1.2071    0.5550   -0.9653 H   0  0  0  0  0  0  0  0  0  0  0  0
    0.9725   -1.5294   -1.3124 C   0  0  0  0  0  0  0  0  0  0  0  0
    0.1882   -2.1142   -1.8035 H   0  0  0  0  0  0  0  0  0  0  0  0
    1.7796   -1.3935   -2.0391 H   0  0  0  0  0  0  0  0  0  0  0  0
    1.5826   -2.5344    0.1006 S   0  0  0  0  0  0  0  0  0  0  0  0
    3.0617   -1.5878    0.6371 C   0  0  0  0  0  0  0  0  0  0  0  0
    2.7785   -0.5798    0.9521 H   0  0  0  0  0  0  0  0  0  0  0  0
    3.5434   -2.0947    1.4786 H   0  0  0  0  0  0  0  0  0  0  0  0
    3.7803   -1.5118   -0.1842 H   0  0  0  0  0  0  0  0  0  0  0  0
   -0.5012    1.4917    0.7030 C   0  0  0  0  0  0  0  0  0  0  0  0
   -1.3395    2.1300    0.0756 O   0  0  0  0  0  0  0  0  0  0  0  0
    0.2881    2.1373    1.6367 N   0  0  0  0  0  0  0  0  0  0  0  0
    0.9052    1.5617    2.2029 H   0  0  0  0  0  0  0  0  0  0  0  0
    0.1297    3.5460    1.9778 C   0  0  0  0  0  0  0  0  0  0  0  0
   -0.8652    3.7295    2.3968 H   0  0  0  0  0  0  0  0  0  0  0  0
    0.8783    3.8420    2.7191 H   0  0  0  0  0  0  0  0  0  0  0  0
    0.2586    4.1730    1.0891 H   0  0  0  0  0  0  0  0  0  0  0  0
  1  2  1  0  0  0  0
  2  3  1  0  0  0  0
  2  4  1  0  0  0  0
  2  5  1  0  0  0  0
  5  6  2  0  0  0  0
  5  7  1  0  0  0  0
  7  8  1  0  0  0  0
  7  9  1  0  0  0  0
  9 10  1  0  0  0  0
  9 11  1  0  0  0  0
  9 22  1  0  0  0  0
 11 12  1  0  0  0  0
 11 13  1  0  0  0  0
 11 14  1  0  0  0  0
 14 15  1  0  0  0  0
 14 16  1  0  0  0  0
 14 17  1  0  0  0  0
 17 18  1  0  0  0  0
 18 19  1  0  0  0  0
 18 20  1  0  0  0  0
 18 21  1  0  0  0  0
 22 23  2  0  0  0  0
 22 24  1  0  0  0  0
 24 25  1  0  0  0  0
 24 26  1  0  0  0  0
 26 27  1  0  0  0  0
 26 28  1  0  0  0  0
 26 29  1  0  0  0  0
M  END
$$$$

  -OEChem-02102214153D

 29 28  0     1  0  0  0  0  0999 V2000
   -3.4114   -3.4208    1.2963 H   0  0  0  0  0  0  0  0  0  0  0  0
   -3.3088   -2.5016    0.7130 C   0  0  0  0  0  0  0  0  0  0  0  0
   -4.1522   -1.8445    0.9377 H   0  0  0  0  0  0  0  0  0  0  0  0
   -3.3250   -2.7562   -0.3493 H   0  0  0  0  0  0  0  0  0  0  0  0
   -2.0051   -1.8080    1.0588 C   0  0  0  0  0  0  0  0  0  0  0  0
   -1.3253   -2.2219    1.9837 O   0  0  0  0  0  0  0  0  0  0  0  0
   -1.6640   -0.6369    0.4148 N   0  0  0  0  0  0  0  0  0  0  0  0
   -2.3354   -0.2619   -0.2508 H   0  0  0  0  0  0  0  0  0  0  0  0
   -0.3490    0.0203    0.4816 C   0  0  1  0  0  0  0  0  0  0  0  0
    0.2572   -0.3819    1.2979 H   0  0  0  0  0  0  0  0  0  0  0  0
    0.3737   -0.1324   -0.8816 C   0  0  0  0  0  0  0  0  0  0  0  0
   -0.3075    0.1768   -1.6818 H   0  0  0  0  0  0  0  0  0  0  0  0
    1.2028    0.5832   -0.8833 H   0  0  0  0  0  0  0  0  0  0  0  0
    0.9893   -1.4947   -1.2643 C   0  0  0  0  0  0  0  0  0  0  0  0
    0.3267   -1.9573   -2.0027 H   0  0  0  0  0  0  0  0  0  0  0  0
    1.9531   -1.3317   -1.7569 H   0  0  0  0  0  0  0  0  0  0  0  0
    1.2020   -2.7177    0.0889 S   0  0  0  0  0  0  0  0  0  0  0  0
    2.6833   -2.0876    0.9717 C   0  0  0  0  0  0  0  0  0  0  0  0
    2.5123   -1.0701    1.3326 H   0  0  0  0  0  0  0  0  0  0  0  0
    2.9051   -2.7295    1.8296 H   0  0  0  0  0  0  0  0  0  0  0  0
    3.5493   -2.0838    0.3035 H   0  0  0  0  0  0  0  0  0  0  0  0
   -0.5408    1.5346    0.7079 C   0  0  0  0  0  0  0  0  0  0  0  0
   -1.3500    2.1621    0.0326 O   0  0  0  0  0  0  0  0  0  0  0  0
    0.2283    2.2041    1.6418 N   0  0  0  0  0  0  0  0  0  0  0  0
    0.8136    1.6405    2.2521 H   0  0  0  0  0  0  0  0  0  0  0  0
    0.0636    3.6221    1.9383 C   0  0  0  0  0  0  0  0  0  0  0  0
   -0.9412    3.8178    2.3275 H   0  0  0  0  0  0  0  0  0  0  0  0
    0.7941    3.9394    2.6886 H   0  0  0  0  0  0  0  0  0  0  0  0
    0.2147    4.2231    1.0353 H   0  0  0  0  0  0  0  0  0  0  0  0
  1  2  1  0  0  0  0
  2  3  1  0  0  0  0
  2  4  1  0  0  0  0
  2  5  1  0  0  0  0
  5  6  2  0  0  0  0
  5  7  1  0  0  0  0
  7  8  1  0  0  0  0
  7  9  1  0  0  0  0
  9 10  1  0  0  0  0
  9 11  1  0  0  0  0
  9 22  1  0  0  0  0
 11 12  1  0  0  0  0
 11 13  1  0  0  0  0
 11 14  1  0  0  0  0
 14 15  1  0  0  0  0
 14 16  1  0  0  0  0
 14 17  1  0  0  0  0
 17 18  1  0  0  0  0
 18 19  1  0  0  0  0
 18 20  1  0  0  0  0
 18 21  1  0  0  0  0
 22 23  2  0  0  0  0
 22 24  1  0  0  0  0
 24 25  1  0  0  0  0
 24 26  1  0  0  0  0
 26 27  1  0  0  0  0
 26 28  1  0  0  0  0
 26 29  1  0  0  0  0
M  END
$$$$

  -OEChem-02102214153D

 29 28  0     1  0  0  0  0  0999 V2000
   -3.4855   -3.3456    1.3612 H   0  0  0  0  0  0  0  0  0  0  0  0
   -3.3445   -2.4681    0.7240 C   0  0  0  0  0  0  0  0  0  0  0  0
   -4.2017   -1.8017    0.8453 H   0  0  0  0  0  0  0  0  0  0  0  0
   -3.2884   -2.7955   -0.3168 H   0  0  0  0  0  0  0  0  0  0  0  0
   -2.0675   -1.7448    1.1071 C   0  0  0  0  0  0  0  0  0  0  0  0
   -1.4316   -2.1075    2.0849 O   0  0  0  0  0  0  0  0  0  0  0  0
   -1.7053   -0.5949    0.4367 N   0  0  0  0  0  0  0  0  0  0  0  0
   -2.3399   -0.2627   -0.2852 H   0  0  0  0  0  0  0  0  0  0  0  0
   -0.3830    0.0470    0.5111 C   0  0  1  0  0  0  0  0  0  0  0  0
    0.2037   -0.3441    1.3464 H   0  0  0  0  0  0  0  0  0  0  0  0
    0.3827   -0.1217   -0.8290 C   0  0  0  0  0  0  0  0  0  0  0  0
   -0.2915    0.1710   -1.6413 H   0  0  0  0  0  0  0  0  0  0  0  0
    1.2030    0.6042   -0.8304 H   0  0  0  0  0  0  0  0  0  0  0  0
    1.0136   -1.4806   -1.2089 C   0  0  0  0  0  0  0  0  0  0  0  0
    0.5630   -1.8015   -2.1536 H   0  0  0  0  0  0  0  0  0  0  0  0
    2.0813   -1.3343   -1.4006 H   0  0  0  0  0  0  0  0  0  0  0  0
    0.8257   -2.8701   -0.0249 S   0  0  0  0  0  0  0  0  0  0  0  0
    2.1818   -2.5818    1.1793 C   0  0  0  0  0  0  0  0  0  0  0  0
    2.0815   -1.5987    1.6458 H   0  0  0  0  0  0  0  0  0  0  0  0
    2.1485   -3.3435    1.9640 H   0  0  0  0  0  0  0  0  0  0  0  0
    3.1524   -2.6368    0.6781 H   0  0  0  0  0  0  0  0  0  0  0  0
   -0.5695    1.5684    0.6958 C   0  0  0  0  0  0  0  0  0  0  0  0
   -1.3542    2.1870   -0.0156 O   0  0  0  0  0  0  0  0  0  0  0  0
    0.1864    2.2559    1.6275 N   0  0  0  0  0  0  0  0  0  0  0  0
    0.7533    1.7042    2.2652 H   0  0  0  0  0  0  0  0  0  0  0  0
    0.0374    3.6849    1.8754 C   0  0  0  0  0  0  0  0  0  0  0  0
   -0.9725    3.9082    2.2351 H   0  0  0  0  0  0  0  0  0  0  0  0
    0.7561    4.0149    2.6317 H   0  0  0  0  0  0  0  0  0  0  0  0
    0.2183    4.2543    0.9576 H   0  0  0  0  0  0  0  0  0  0  0  0
  1  2  1  0  0  0  0
  2  3  1  0  0  0  0
  2  4  1  0  0  0  0
  2  5  1  0  0  0  0
  5  6  2  0  0  0  0
  5  7  1  0  0  0  0
  7  8  1  0  0  0  0
  7  9  1  0  0  0  0
  9 10  1  0  0  0  0
  9 11  1  0  0  0  0
  9 22  1  0  0  0  0
 11 12  1  0  0  0  0
 11 13  1  0  0  0  0
 11 14  1  0  0  0  0
 14 15  1  0  0  0  0
 14 16  1  0  0  0  0
 14 17  1  0  0  0  0
 17 18  1  0  0  0  0
 18 19  1  0  0  0  0
 18 20  1  0  0  0  0
 18 21  1  0  0  0  0
 22 23  2  0  0  0  0
 22 24  1  0  0  0  0
 24 25  1  0  0  0  0
 24 26  1  0  0  0  0
 26 27  1  0  0  0  0
 26 28  1  0  0  0  0
 26 29  1  0  0  0  0
M  END
$$$$

  -OEChem-02102214153D

 29 28  0     1  0  0  0  0  0999 V2000
   -3.3240   -3.6203    0.6375 H   0  0  0  0  0  0  0  0  0  0  0  0
   -3.4040   -2.5330    0.7241 C   0  0  0  0  0  0  0  0  0  0  0  0
   -3.2779   -2.2549    1.7734 H   0  0  0  0  0  0  0  0  0  0  0  0
   -4.3968   -2.2243    0.3883 H   0  0  0  0  0  0  0  0  0  0  0  0
   -2.3383   -1.8598   -0.1206 C   0  0  0  0  0  0  0  0  0  0  0  0
   -1.6422   -2.5567   -0.8408 O   0  0  0  0  0  0  0  0  0  0  0  0
   -2.2493   -0.4786   -0.0780 N   0  0  0  0  0  0  0  0  0  0  0  0
   -2.8915   -0.0453    0.5843 H   0  0  0  0  0  0  0  0  0  0  0  0
   -1.1796    0.4356   -0.5431 C   0  0  1  0  0  0  0  0  0  0  0  0
   -1.6234    0.9887   -1.3766 H   0  0  0  0  0  0  0  0  0  0  0  0
    0.0903   -0.2233   -1.1548 C   0  0  0  0  0  0  0  0  0  0  0  0
   -0.2171   -0.9364   -1.9241 H   0  0  0  0  0  0  0  0  0  0  0  0
    0.6295    0.5620   -1.6939 H   0  0  0  0  0  0  0  0  0  0  0  0
    1.1197   -0.9069   -0.2201 C   0  0  0  0  0  0  0  0  0  0  0  0
    1.4092   -1.8560   -0.6833 H   0  0  0  0  0  0  0  0  0  0  0  0
    2.0204   -0.2881   -0.1668 H   0  0  0  0  0  0  0  0  0  0  0  0
    0.5574   -1.2608    1.4995 S   0  0  0  0  0  0  0  0  0  0  0  0
    1.9480   -2.2765    2.1323 C   0  0  0  0  0  0  0  0  0  0  0  0
    2.8844   -1.7132    2.0835 H   0  0  0  0  0  0  0  0  0  0  0  0
    1.7623   -2.5593    3.1727 H   0  0  0  0  0  0  0  0  0  0  0  0
    2.0523   -3.1877    1.5355 H   0  0  0  0  0  0  0  0  0  0  0  0
   -0.8941    1.5181    0.5292 C   0  0  0  0  0  0  0  0  0  0  0  0
   -1.8534    2.0568    1.0707 O   0  0  0  0  0  0  0  0  0  0  0  0
    0.3805    1.8945    0.9143 N   0  0  0  0  0  0  0  0  0  0  0  0
    1.1276    1.2695    0.6292 H   0  0  0  0  0  0  0  0  0  0  0  0
    0.6307    2.8013    2.0282 C   0  0  0  0  0  0  0  0  0  0  0  0
    0.2586    2.3700    2.9635 H   0  0  0  0  0  0  0  0  0  0  0  0
    1.7042    2.9849    2.1324 H   0  0  0  0  0  0  0  0  0  0  0  0
    0.1331    3.7623    1.8606 H   0  0  0  0  0  0  0  0  0  0  0  0
  1  2  1  0  0  0  0
  2  3  1  0  0  0  0
  2  4  1  0  0  0  0
  2  5  1  0  0  0  0
  5  6  2  0  0  0  0
  5  7  1  0  0  0  0
  7  8  1  0  0  0  0
  7  9  1  0  0  0  0
  9 10  1  0  0  0  0
  9 11  1  0  0  0  0
  9 22  1  0  0  0  0
 11 12  1  0  0  0  0
 11 13  1  0  0  0  0
 11 14  1  0  0  0  0
 14 15  1  0  0  0  0
 14 16  1  0  0  0  0
 14 17  1  0  0  0  0
 17 18  1  0  0  0  0
 18 19  1  0  0  0  0
 18 20  1  0  0  0  0
 18 21  1  0  0  0  0
 22 23  2  0  0  0  0
 22 24  1  0  0  0  0
 24 25  1  0  0  0  0
 24 26  1  0  0  0  0
 26 27  1  0  0  0  0
 26 28  1  0  0  0  0
 26 29  1  0  0  0  0
M  END
$$$$

  -OEChem-02102214153D

 29 28  0     1  0  0  0  0  0999 V2000
   -3.6973   -3.1592    1.3749 H   0  0  0  0  0  0  0  0  0  0  0  0
   -3.4989   -2.3114    0.7133 C   0  0  0  0  0  0  0  0  0  0  0  0
   -4.3306   -1.6064    0.7824 H   0  0  0  0  0  0  0  0  0  0  0  0
   -3.4227   -2.6774   -0.3134 H   0  0  0  0  0  0  0  0  0  0  0  0
   -2.2053   -1.6284    1.1138 C   0  0  0  0  0  0  0  0  0  0  0  0
   -1.6025   -1.9969    2.1112 O   0  0  0  0  0  0  0  0  0  0  0  0
   -1.7726   -0.5176    0.4197 N   0  0  0  0  0  0  0  0  0  0  0  0
   -2.3609   -0.1955   -0.3447 H   0  0  0  0  0  0  0  0  0  0  0  0
   -0.4312    0.0796    0.5262 C   0  0  1  0  0  0  0  0  0  0  0  0
    0.1022   -0.3006    1.4026 H   0  0  0  0  0  0  0  0  0  0  0  0
    0.4266   -0.1419   -0.7514 C   0  0  0  0  0  0  0  0  0  0  0  0
   -0.2107    0.1137   -1.6050 H   0  0  0  0  0  0  0  0  0  0  0  0
    1.2492    0.5816   -0.7468 H   0  0  0  0  0  0  0  0  0  0  0  0
    1.0558   -1.5187   -1.0601 C   0  0  0  0  0  0  0  0  0  0  0  0
    1.1768   -1.6007   -2.1451 H   0  0  0  0  0  0  0  0  0  0  0  0
    2.0603   -1.5383   -0.6262 H   0  0  0  0  0  0  0  0  0  0  0  0
    0.1739   -3.0156   -0.4686 S   0  0  0  0  0  0  0  0  0  0  0  0
    1.0742   -3.4207    1.0806 C   0  0  0  0  0  0  0  0  0  0  0  0
    1.0589   -2.5682    1.7653 H   0  0  0  0  0  0  0  0  0  0  0  0
    0.5978   -4.2714    1.5771 H   0  0  0  0  0  0  0  0  0  0  0  0
    2.1140   -3.6789    0.8610 H   0  0  0  0  0  0  0  0  0  0  0  0
   -0.5828    1.6119    0.6494 C   0  0  0  0  0  0  0  0  0  0  0  0
   -1.3261    2.2251   -0.1096 O   0  0  0  0  0  0  0  0  0  0  0  0
    0.1536    2.3119    1.5879 N   0  0  0  0  0  0  0  0  0  0  0  0
    0.6892    1.7687    2.2592 H   0  0  0  0  0  0  0  0  0  0  0  0
    0.0142    3.7480    1.7972 C   0  0  0  0  0  0  0  0  0  0  0  0
   -1.0114    3.9942    2.0923 H   0  0  0  0  0  0  0  0  0  0  0  0
    0.6920    4.0832    2.5881 H   0  0  0  0  0  0  0  0  0  0  0  0
    0.2576    4.2946    0.8800 H   0  0  0  0  0  0  0  0  0  0  0  0
  1  2  1  0  0  0  0
  2  3  1  0  0  0  0
  2  4  1  0  0  0  0
  2  5  1  0  0  0  0
  5  6  2  0  0  0  0
  5  7  1  0  0  0  0
  7  8  1  0  0  0  0
  7  9  1  0  0  0  0
  9 10  1  0  0  0  0
  9 11  1  0  0  0  0
  9 22  1  0  0  0  0
 11 12  1  0  0  0  0
 11 13  1  0  0  0  0
 11 14  1  0  0  0  0
 14 15  1  0  0  0  0
 14 16  1  0  0  0  0
 14 17  1  0  0  0  0
 17 18  1  0  0  0  0
 18 19  1  0  0  0  0
 18 20  1  0  0  0  0
 18 21  1  0  0  0  0
 22 23  2  0  0  0  0
 22 24  1  0  0  0  0
 24 25  1  0  0  0  0
 24 26  1  0  0  0  0
 26 27  1  0  0  0  0
 26 28  1  0  0  0  0
 26 29  1  0  0  0  0
M  END
$$$$

  -OEChem-02102214153D

 29 28  0     1  0  0  0  0  0999 V2000
   -3.6533   -3.2022    1.4859 H   0  0  0  0  0  0  0  0  0  0  0  0
   -3.5098   -2.3297    0.8427 C   0  0  0  0  0  0  0  0  0  0  0  0
   -4.3373   -1.6341    1.0001 H   0  0  0  0  0  0  0  0  0  0  0  0
   -3.5097   -2.6572   -0.1997 H   0  0  0  0  0  0  0  0  0  0  0  0
   -2.1927   -1.6520    1.1684 C   0  0  0  0  0  0  0  0  0  0  0  0
   -1.4924   -2.0806    2.0744 O   0  0  0  0  0  0  0  0  0  0  0  0
   -1.8281   -0.5034    0.4963 N   0  0  0  0  0  0  0  0  0  0  0  0
   -2.4767   -0.1495   -0.2028 H   0  0  0  0  0  0  0  0  0  0  0  0
   -0.4968    0.1204    0.5537 C   0  0  1  0  0  0  0  0  0  0  0  0
    0.0864   -0.2796    1.3892 H   0  0  0  0  0  0  0  0  0  0  0  0
    0.3109   -0.0403   -0.7637 C   0  0  0  0  0  0  0  0  0  0  0  0
   -0.3583    0.2257   -1.5888 H   0  0  0  0  0  0  0  0  0  0  0  0
    1.1243    0.6934   -0.7649 H   0  0  0  0  0  0  0  0  0  0  0  0
    0.9442   -1.4031   -1.1089 C   0  0  0  0  0  0  0  0  0  0  0  0
    1.2743   -1.3782   -2.1522 H   0  0  0  0  0  0  0  0  0  0  0  0
    1.8387   -1.5269   -0.4910 H   0  0  0  0  0  0  0  0  0  0  0  0
   -0.1163   -2.8840   -0.8734 S   0  0  0  0  0  0  0  0  0  0  0  0
    0.7861   -3.8007    0.4373 C   0  0  0  0  0  0  0  0  0  0  0  0
    0.9025   -3.1744    1.3270 H   0  0  0  0  0  0  0  0  0  0  0  0
    0.2288   -4.6997    0.7166 H   0  0  0  0  0  0  0  0  0  0  0  0
    1.7769   -4.0975    0.0817 H   0  0  0  0  0  0  0  0  0  0  0  0
   -0.6728    1.6423    0.7474 C   0  0  0  0  0  0  0  0  0  0  0  0
   -1.4704    2.2670    0.0561 O   0  0  0  0  0  0  0  0  0  0  0  0
    0.0997    2.3218    1.6717 N   0  0  0  0  0  0  0  0  0  0  0  0
    0.6801    1.7655    2.2930 H   0  0  0  0  0  0  0  0  0  0  0  0
   -0.0482    3.7476    1.9374 C   0  0  0  0  0  0  0  0  0  0  0  0
   -1.0560    3.9661    2.3063 H   0  0  0  0  0  0  0  0  0  0  0  0
    0.6749    4.0692    2.6932 H   0  0  0  0  0  0  0  0  0  0  0  0
    0.1264    4.3277    1.0251 H   0  0  0  0  0  0  0  0  0  0  0  0
  1  2  1  0  0  0  0
  2  3  1  0  0  0  0
  2  4  1  0  0  0  0
  2  5  1  0  0  0  0
  5  6  2  0  0  0  0
  5  7  1  0  0  0  0
  7  8  1  0  0  0  0
  7  9  1  0  0  0  0
  9 10  1  0  0  0  0
  9 11  1  0  0  0  0
  9 22  1  0  0  0  0
 11 12  1  0  0  0  0
 11 13  1  0  0  0  0
 11 14  1  0  0  0  0
 14 15  1  0  0  0  0
 14 16  1  0  0  0  0
 14 17  1  0  0  0  0
 17 18  1  0  0  0  0
 18 19  1  0  0  0  0
 18 20  1  0  0  0  0
 18 21  1  0  0  0  0
 22 23  2  0  0  0  0
 22 24  1  0  0  0  0
 24 25  1  0  0  0  0
 24 26  1  0  0  0  0
 26 27  1  0  0  0  0
 26 28  1  0  0  0  0
 26 29  1  0  0  0  0
M  END
$$$$

  -OEChem-02102214153D

 29 28  0     1  0  0  0  0  0999 V2000
   -4.4041   -1.7140    0.7901 H   0  0  0  0  0  0  0  0  0  0  0  0
   -3.5498   -2.3948    0.7755 C   0  0  0  0  0  0  0  0  0  0  0  0
   -3.7418   -3.2178    1.4692 H   0  0  0  0  0  0  0  0  0  0  0  0
   -3.4329   -2.8027   -0.2314 H   0  0  0  0  0  0  0  0  0  0  0  0
   -2.2880   -1.6556    1.1784 C   0  0  0  0  0  0  0  0  0  0  0  0
   -1.6266   -2.0495    2.1281 O   0  0  0  0  0  0  0  0  0  0  0  0
   -1.9209   -0.5081    0.5050 N   0  0  0  0  0  0  0  0  0  0  0  0
   -2.5268   -0.1919   -0.2484 H   0  0  0  0  0  0  0  0  0  0  0  0
   -0.6421    0.1936    0.6869 C   0  0  1  0  0  0  0  0  0  0  0  0
   -0.1449   -0.1396    1.6035 H   0  0  0  0  0  0  0  0  0  0  0  0
    0.3231    0.0097   -0.5128 C   0  0  0  0  0  0  0  0  0  0  0  0
   -0.2336    0.2023   -1.4363 H   0  0  0  0  0  0  0  0  0  0  0  0
    1.1072    0.7712   -0.4447 H   0  0  0  0  0  0  0  0  0  0  0  0
    1.0300   -1.3505   -0.6510 C   0  0  0  0  0  0  0  0  0  0  0  0
    1.7039   -1.3156   -1.5127 H   0  0  0  0  0  0  0  0  0  0  0  0
    1.6417   -1.5142    0.2419 H   0  0  0  0  0  0  0  0  0  0  0  0
   -0.1017   -2.7852   -0.8477 S   0  0  0  0  0  0  0  0  0  0  0  0
    1.0532   -4.1963   -0.6444 C   0  0  0  0  0  0  0  0  0  0  0  0
    1.8448   -4.1519   -1.3981 H   0  0  0  0  0  0  0  0  0  0  0  0
    0.5133   -5.1413   -0.7570 H   0  0  0  0  0  0  0  0  0  0  0  0
    1.5089   -4.1709    0.3501 H   0  0  0  0  0  0  0  0  0  0  0  0
   -0.9126    1.7087    0.8027 C   0  0  0  0  0  0  0  0  0  0  0  0
   -1.6654    2.2657    0.0110 O   0  0  0  0  0  0  0  0  0  0  0  0
   -0.2837    2.4571    1.7807 N   0  0  0  0  0  0  0  0  0  0  0  0
    0.2606    1.9534    2.4754 H   0  0  0  0  0  0  0  0  0  0  0  0
   -0.5339    3.8798    1.9776 C   0  0  0  0  0  0  0  0  0  0  0  0
   -1.5810    4.0498    2.2491 H   0  0  0  0  0  0  0  0  0  0  0  0
    0.1005    4.2686    2.7799 H   0  0  0  0  0  0  0  0  0  0  0  0
   -0.3124    4.4390    1.0623 H   0  0  0  0  0  0  0  0  0  0  0  0
  1  2  1  0  0  0  0
  2  3  1  0  0  0  0
  2  4  1  0  0  0  0
  2  5  1  0  0  0  0
  5  6  2  0  0  0  0
  5  7  1  0  0  0  0
  7  8  1  0  0  0  0
  7  9  1  0  0  0  0
  9 10  1  0  0  0  0
  9 11  1  0  0  0  0
  9 22  1  0  0  0  0
 11 12  1  0  0  0  0
 11 13  1  0  0  0  0
 11 14  1  0  0  0  0
 14 15  1  0  0  0  0
 14 16  1  0  0  0  0
 14 17  1  0  0  0  0
 17 18  1  0  0  0  0
 18 19  1  0  0  0  0
 18 20  1  0  0  0  0
 18 21  1  0  0  0  0
 22 23  2  0  0  0  0
 22 24  1  0  0  0  0
 24 25  1  0  0  0  0
 24 26  1  0  0  0  0
 26 27  1  0  0  0  0
 26 28  1  0  0  0  0
 26 29  1  0  0  0  0
M  END
$$$$

  -OEChem-02102214153D

 29 28  0     1  0  0  0  0  0999 V2000
   -3.6526   -3.1327    1.7003 H   0  0  0  0  0  0  0  0  0  0  0  0
   -3.5804   -2.1867    1.1567 C   0  0  0  0  0  0  0  0  0  0  0  0
   -4.2817   -1.4729    1.5954 H   0  0  0  0  0  0  0  0  0  0  0  0
   -3.8507   -2.3589    0.1120 H   0  0  0  0  0  0  0  0  0  0  0  0
   -2.1668   -1.6430    1.2386 C   0  0  0  0  0  0  0  0  0  0  0  0
   -1.3033   -2.2719    1.8335 O   0  0  0  0  0  0  0  0  0  0  0  0
   -1.8683   -0.4246    0.6634 N   0  0  0  0  0  0  0  0  0  0  0  0
   -2.6240    0.0801    0.2057 H   0  0  0  0  0  0  0  0  0  0  0  0
   -0.5214    0.1572    0.5908 C   0  0  1  0  0  0  0  0  0  0  0  0
    0.1541   -0.3478    1.2882 H   0  0  0  0  0  0  0  0  0  0  0  0
    0.0614    0.0663   -0.8390 C   0  0  0  0  0  0  0  0  0  0  0  0
   -0.6787    0.4274   -1.5612 H   0  0  0  0  0  0  0  0  0  0  0  0
    0.9270    0.7341   -0.9016 H   0  0  0  0  0  0  0  0  0  0  0  0
    0.5330   -1.3363   -1.2506 C   0  0  0  0  0  0  0  0  0  0  0  0
    1.1737   -1.2604   -2.1348 H   0  0  0  0  0  0  0  0  0  0  0  0
    1.1312   -1.7665   -0.4409 H   0  0  0  0  0  0  0  0  0  0  0  0
   -0.8711   -2.4600   -1.6397 S   0  0  0  0  0  0  0  0  0  0  0  0
   -0.1090   -4.1041   -1.3515 C   0  0  0  0  0  0  0  0  0  0  0  0
    0.7697   -4.2345   -1.9898 H   0  0  0  0  0  0  0  0  0  0  0  0
   -0.8286   -4.8964   -1.5776 H   0  0  0  0  0  0  0  0  0  0  0  0
    0.1962   -4.1984   -0.3046 H   0  0  0  0  0  0  0  0  0  0  0  0
   -0.5794    1.6469    0.9870 C   0  0  0  0  0  0  0  0  0  0  0  0
   -1.4533    2.3736    0.5276 O   0  0  0  0  0  0  0  0  0  0  0  0
    0.3600    2.1795    1.8511 N   0  0  0  0  0  0  0  0  0  0  0  0
    1.0209    1.5370    2.2785 H   0  0  0  0  0  0  0  0  0  0  0  0
    0.3295    3.5644    2.3060 C   0  0  0  0  0  0  0  0  0  0  0  0
   -0.5977    3.7677    2.8521 H   0  0  0  0  0  0  0  0  0  0  0  0
    1.1747    3.7631    2.9720 H   0  0  0  0  0  0  0  0  0  0  0  0
    0.3937    4.2493    1.4539 H   0  0  0  0  0  0  0  0  0  0  0  0
  1  2  1  0  0  0  0
  2  3  1  0  0  0  0
  2  4  1  0  0  0  0
  2  5  1  0  0  0  0
  5  6  2  0  0  0  0
  5  7  1  0  0  0  0
  7  8  1  0  0  0  0
  7  9  1  0  0  0  0
  9 10  1  0  0  0  0
  9 11  1  0  0  0  0
  9 22  1  0  0  0  0
 11 12  1  0  0  0  0
 11 13  1  0  0  0  0
 11 14  1  0  0  0  0
 14 15  1  0  0  0  0
 14 16  1  0  0  0  0
 14 17  1  0  0  0  0
 17 18  1  0  0  0  0
 18 19  1  0  0  0  0
 18 20  1  0  0  0  0
 18 21  1  0  0  0  0
 22 23  2  0  0  0  0
 22 24  1  0  0  0  0
 24 25  1  0  0  0  0
 24 26  1  0  0  0  0
 26 27  1  0  0  0  0
 26 28  1  0  0  0  0
 26 29  1  0  0  0  0
M  END
$$$$

  -OEChem-02102214153D

 29 28  0     1  0  0  0  0  0999 V2000
   -3.8512   -2.8635    1.6623 H   0  0  0  0  0  0  0  0  0  0  0  0
   -3.7081   -1.9352    1.1026 C   0  0  0  0  0  0  0  0  0  0  0  0
   -4.3464   -1.1607    1.5345 H   0  0  0  0  0  0  0  0  0  0  0  0
   -4.0000   -2.1017    0.0627 H   0  0  0  0  0  0  0  0  0  0  0  0
   -2.2551   -1.5053    1.1648 C   0  0  0  0  0  0  0  0  0  0  0  0
   -1.4375   -2.1947    1.7572 O   0  0  0  0  0  0  0  0  0  0  0  0
   -1.8631   -0.3320    0.5548 N   0  0  0  0  0  0  0  0  0  0  0  0
   -2.5798    0.2267    0.0963 H   0  0  0  0  0  0  0  0  0  0  0  0
   -0.4798    0.1570    0.4940 C   0  0  1  0  0  0  0  0  0  0  0  0
    0.1462   -0.3614    1.2271 H   0  0  0  0  0  0  0  0  0  0  0  0
    0.0869   -0.0717   -0.9215 C   0  0  0  0  0  0  0  0  0  0  0  0
   -0.6131    0.2972   -1.6790 H   0  0  0  0  0  0  0  0  0  0  0  0
    1.0081    0.5117   -1.0206 H   0  0  0  0  0  0  0  0  0  0  0  0
    0.4342   -1.5435   -1.1854 C   0  0  0  0  0  0  0  0  0  0  0  0
    1.2608   -1.6029   -1.9003 H   0  0  0  0  0  0  0  0  0  0  0  0
    0.7589   -2.0287   -0.2591 H   0  0  0  0  0  0  0  0  0  0  0  0
   -1.0131   -2.4338   -1.8913 S   0  0  0  0  0  0  0  0  0  0  0  0
   -0.5669   -4.1746   -1.5200 C   0  0  0  0  0  0  0  0  0  0  0  0
   -1.3387   -4.8498   -1.9008 H   0  0  0  0  0  0  0  0  0  0  0  0
    0.3873   -4.4316   -1.9890 H   0  0  0  0  0  0  0  0  0  0  0  0
   -0.4790   -4.3179   -0.4384 H   0  0  0  0  0  0  0  0  0  0  0  0
   -0.4319    1.6609    0.8314 C   0  0  0  0  0  0  0  0  0  0  0  0
   -1.2500    2.4286    0.3374 O   0  0  0  0  0  0  0  0  0  0  0  0
    0.5280    2.1562    1.6949 N   0  0  0  0  0  0  0  0  0  0  0  0
    1.1447    1.4864    2.1457 H   0  0  0  0  0  0  0  0  0  0  0  0
    0.5964    3.5570    2.0928 C   0  0  0  0  0  0  0  0  0  0  0  0
   -0.3180    3.8507    2.6190 H   0  0  0  0  0  0  0  0  0  0  0  0
    1.4479    3.7197    2.7604 H   0  0  0  0  0  0  0  0  0  0  0  0
    0.7197    4.1993    1.2144 H   0  0  0  0  0  0  0  0  0  0  0  0
  1  2  1  0  0  0  0
  2  3  1  0  0  0  0
  2  4  1  0  0  0  0
  2  5  1  0  0  0  0
  5  6  2  0  0  0  0
  5  7  1  0  0  0  0
  7  8  1  0  0  0  0
  7  9  1  0  0  0  0
  9 10  1  0  0  0  0
  9 11  1  0  0  0  0
  9 22  1  0  0  0  0
 11 12  1  0  0  0  0
 11 13  1  0  0  0  0
 11 14  1  0  0  0  0
 14 15  1  0  0  0  0
 14 16  1  0  0  0  0
 14 17  1  0  0  0  0
 17 18  1  0  0  0  0
 18 19  1  0  0  0  0
 18 20  1  0  0  0  0
 18 21  1  0  0  0  0
 22 23  2  0  0  0  0
 22 24  1  0  0  0  0
 24 25  1  0  0  0  0
 24 26  1  0  0  0  0
 26 27  1  0  0  0  0
 26 28  1  0  0  0  0
 26 29  1  0  0  0  0
M  END
$$$$

  -OEChem-02102214153D

 29 28  0     1  0  0  0  0  0999 V2000
   -3.9500   -2.8610    1.3926 H   0  0  0  0  0  0  0  0  0  0  0  0
   -3.7829   -1.8948    0.9087 C   0  0  0  0  0  0  0  0  0  0  0  0
   -4.4138   -1.1444    1.3909 H   0  0  0  0  0  0  0  0  0  0  0  0
   -4.0640   -1.9754   -0.1442 H   0  0  0  0  0  0  0  0  0  0  0  0
   -2.3238   -1.4974    1.0242 C   0  0  0  0  0  0  0  0  0  0  0  0
   -1.5370   -2.2214    1.6160 O   0  0  0  0  0  0  0  0  0  0  0  0
   -1.8899   -0.3179    0.4575 N   0  0  0  0  0  0  0  0  0  0  0  0
   -2.5853    0.2749    0.0086 H   0  0  0  0  0  0  0  0  0  0  0  0
   -0.5000    0.1579    0.4650 C   0  0  1  0  0  0  0  0  0  0  0  0
    0.0912   -0.3814    1.2120 H   0  0  0  0  0  0  0  0  0  0  0  0
    0.0963   -0.0728   -0.9350 C   0  0  0  0  0  0  0  0  0  0  0  0
   -0.5782    0.3113   -1.7080 H   0  0  0  0  0  0  0  0  0  0  0  0
    1.0298    0.4942   -1.0126 H   0  0  0  0  0  0  0  0  0  0  0  0
    0.4202   -1.5543   -1.1792 C   0  0  0  0  0  0  0  0  0  0  0  0
    1.4048   -1.6410   -1.6493 H   0  0  0  0  0  0  0  0  0  0  0  0
    0.4558   -2.1084   -0.2356 H   0  0  0  0  0  0  0  0  0  0  0  0
   -0.8329   -2.2973   -2.3004 S   0  0  0  0  0  0  0  0  0  0  0  0
   -0.4925   -4.0836   -2.0530 C   0  0  0  0  0  0  0  0  0  0  0  0
   -0.6477   -4.3549   -1.0040 H   0  0  0  0  0  0  0  0  0  0  0  0
   -1.1642   -4.6841   -2.6733 H   0  0  0  0  0  0  0  0  0  0  0  0
    0.5406   -4.3152   -2.3280 H   0  0  0  0  0  0  0  0  0  0  0  0
   -0.4393    1.6539    0.8330 C   0  0  0  0  0  0  0  0  0  0  0  0
   -1.2357    2.4409    0.3347 O   0  0  0  0  0  0  0  0  0  0  0  0
    0.4931    2.1163    1.7436 N   0  0  0  0  0  0  0  0  0  0  0  0
    1.0863    1.4284    2.1986 H   0  0  0  0  0  0  0  0  0  0  0  0
    0.5555    3.5041    2.1868 C   0  0  0  0  0  0  0  0  0  0  0  0
   -0.3751    3.7873    2.6899 H   0  0  0  0  0  0  0  0  0  0  0  0
    1.3840    3.6407    2.8885 H   0  0  0  0  0  0  0  0  0  0  0  0
    0.7128    4.1731    1.3340 H   0  0  0  0  0  0  0  0  0  0  0  0
  1  2  1  0  0  0  0
  2  3  1  0  0  0  0
  2  4  1  0  0  0  0
  2  5  1  0  0  0  0
  5  6  2  0  0  0  0
  5  7  1  0  0  0  0
  7  8  1  0  0  0  0
  7  9  1  0  0  0  0
  9 10  1  0  0  0  0
  9 11  1  0  0  0  0
  9 22  1  0  0  0  0
 11 12  1  0  0  0  0
 11 13  1  0  0  0  0
 11 14  1  0  0  0  0
 14 15  1  0  0  0  0
 14 16  1  0  0  0  0
 14 17  1  0  0  0  0
 17 18  1  0  0  0  0
 18 19  1  0  0  0  0
 18 20  1  0  0  0  0
 18 21  1  0  0  0  0
 22 23  2  0  0  0  0
 22 24  1  0  0  0  0
 24 25  1  0  0  0  0
 24 26  1  0  0  0  0
 26 27  1  0  0  0  0
 26 28  1  0  0  0  0
 26 29  1  0  0  0  0
M  END
$$$$

  -OEChem-02102214153D

 29 28  0     1  0  0  0  0  0999 V2000
   -3.4294   -3.3751    1.4126 H   0  0  0  0  0  0  0  0  0  0  0  0
   -3.3675   -2.3982    0.9249 C   0  0  0  0  0  0  0  0  0  0  0  0
   -4.0014   -1.6928    1.4678 H   0  0  0  0  0  0  0  0  0  0  0  0
   -3.7345   -2.4925   -0.0997 H   0  0  0  0  0  0  0  0  0  0  0  0
   -1.9327   -1.9058    0.9206 C   0  0  0  0  0  0  0  0  0  0  0  0
   -1.0585   -2.5684    1.4556 O   0  0  0  0  0  0  0  0  0  0  0  0
   -1.6252   -0.6995    0.3283 N   0  0  0  0  0  0  0  0  0  0  0  0
   -2.4008   -0.1337   -0.0137 H   0  0  0  0  0  0  0  0  0  0  0  0
   -0.3049   -0.0555    0.3645 C   0  0  1  0  0  0  0  0  0  0  0  0
    0.3117   -0.4948    1.1555 H   0  0  0  0  0  0  0  0  0  0  0  0
    0.4311   -0.1901   -0.9848 C   0  0  0  0  0  0  0  0  0  0  0  0
   -0.2496    0.0939   -1.7946 H   0  0  0  0  0  0  0  0  0  0  0  0
    1.2649    0.5194   -1.0069 H   0  0  0  0  0  0  0  0  0  0  0  0
    1.0024   -1.5944   -1.2485 C   0  0  0  0  0  0  0  0  0  0  0  0
    2.0883   -1.5210   -1.3648 H   0  0  0  0  0  0  0  0  0  0  0  0
    0.8122   -2.2574   -0.3987 H   0  0  0  0  0  0  0  0  0  0  0  0
    0.2999   -2.3502   -2.7745 S   0  0  0  0  0  0  0  0  0  0  0  0
   -1.3991   -2.8542   -2.3069 C   0  0  0  0  0  0  0  0  0  0  0  0
   -2.0069   -1.9741   -2.0825 H   0  0  0  0  0  0  0  0  0  0  0  0
   -1.8671   -3.3982   -3.1325 H   0  0  0  0  0  0  0  0  0  0  0  0
   -1.3709   -3.5072   -1.4299 H   0  0  0  0  0  0  0  0  0  0  0  0
   -0.4730    1.4434    0.6870 C   0  0  0  0  0  0  0  0  0  0  0  0
   -1.3812    2.0820    0.1671 O   0  0  0  0  0  0  0  0  0  0  0  0
    0.3465    2.0592    1.6150 N   0  0  0  0  0  0  0  0  0  0  0  0
    1.0542    1.4904    2.0711 H   0  0  0  0  0  0  0  0  0  0  0  0
    0.2015    3.4553    2.0096 C   0  0  0  0  0  0  0  0  0  0  0  0
   -0.7877    3.6304    2.4458 H   0  0  0  0  0  0  0  0  0  0  0  0
    0.9589    3.7185    2.7544 H   0  0  0  0  0  0  0  0  0  0  0  0
    0.3261    4.1135    1.1432 H   0  0  0  0  0  0  0  0  0  0  0  0
  1  2  1  0  0  0  0
  2  3  1  0  0  0  0
  2  4  1  0  0  0  0
  2  5  1  0  0  0  0
  5  6  2  0  0  0  0
  5  7  1  0  0  0  0
  7  8  1  0  0  0  0
  7  9  1  0  0  0  0
  9 10  1  0  0  0  0
  9 11  1  0  0  0  0
  9 22  1  0  0  0  0
 11 12  1  0  0  0  0
 11 13  1  0  0  0  0
 11 14  1  0  0  0  0
 14 15  1  0  0  0  0
 14 16  1  0  0  0  0
 14 17  1  0  0  0  0
 17 18  1  0  0  0  0
 18 19  1  0  0  0  0
 18 20  1  0  0  0  0
 18 21  1  0  0  0  0
 22 23  2  0  0  0  0
 22 24  1  0  0  0  0
 24 25  1  0  0  0  0
 24 26  1  0  0  0  0
 26 27  1  0  0  0  0
 26 28  1  0  0  0  0
 26 29  1  0  0  0  0
M  END
$$$$

  -OEChem-02102214153D

 29 28  0     1  0  0  0  0  0999 V2000
   -3.3992   -3.4183    1.3030 H   0  0  0  0  0  0  0  0  0  0  0  0
   -3.3295   -2.4499    0.7995 C   0  0  0  0  0  0  0  0  0  0  0  0
   -4.0175   -1.7515    1.2821 H   0  0  0  0  0  0  0  0  0  0  0  0
   -3.6211   -2.5747   -0.2460 H   0  0  0  0  0  0  0  0  0  0  0  0
   -1.9114   -1.9186    0.8813 C   0  0  0  0  0  0  0  0  0  0  0  0
   -1.0515   -2.5598    1.4634 O   0  0  0  0  0  0  0  0  0  0  0  0
   -1.6014   -0.7060    0.3032 N   0  0  0  0  0  0  0  0  0  0  0  0
   -2.3720   -0.1568   -0.0749 H   0  0  0  0  0  0  0  0  0  0  0  0
   -0.2854   -0.0505    0.3566 C   0  0  1  0  0  0  0  0  0  0  0  0
    0.3375   -0.4950    1.1398 H   0  0  0  0  0  0  0  0  0  0  0  0
    0.4220   -0.1904   -1.0043 C   0  0  0  0  0  0  0  0  0  0  0  0
   -0.2817    0.0841   -1.7972 H   0  0  0  0  0  0  0  0  0  0  0  0
    1.2558    0.5173   -1.0610 H   0  0  0  0  0  0  0  0  0  0  0  0
    0.9759   -1.6035   -1.2484 C   0  0  0  0  0  0  0  0  0  0  0  0
    2.0612   -1.5971   -1.1086 H   0  0  0  0  0  0  0  0  0  0  0  0
    0.5619   -2.3203   -0.5343 H   0  0  0  0  0  0  0  0  0  0  0  0
    0.5797   -2.1716   -2.9509 S   0  0  0  0  0  0  0  0  0  0  0  0
   -1.2012   -2.5940   -2.7976 C   0  0  0  0  0  0  0  0  0  0  0  0
   -1.7827   -1.7079   -2.5282 H   0  0  0  0  0  0  0  0  0  0  0  0
   -1.5773   -2.9825   -3.7486 H   0  0  0  0  0  0  0  0  0  0  0  0
   -1.3426   -3.3572   -2.0264 H   0  0  0  0  0  0  0  0  0  0  0  0
   -0.4578    1.4458    0.6870 C   0  0  0  0  0  0  0  0  0  0  0  0
   -1.3543    2.0880    0.1516 O   0  0  0  0  0  0  0  0  0  0  0  0
    0.3517    2.0591    1.6250 N   0  0  0  0  0  0  0  0  0  0  0  0
    1.0446    1.4860    2.0981 H   0  0  0  0  0  0  0  0  0  0  0  0
    0.2054    3.4565    2.0145 C   0  0  0  0  0  0  0  0  0  0  0  0
   -0.7869    3.6343    2.4420 H   0  0  0  0  0  0  0  0  0  0  0  0
    0.9572    3.7212    2.7641 H   0  0  0  0  0  0  0  0  0  0  0  0
    0.3378    4.1116    1.1469 H   0  0  0  0  0  0  0  0  0  0  0  0
  1  2  1  0  0  0  0
  2  3  1  0  0  0  0
  2  4  1  0  0  0  0
  2  5  1  0  0  0  0
  5  6  2  0  0  0  0
  5  7  1  0  0  0  0
  7  8  1  0  0  0  0
  7  9  1  0  0  0  0
  9 10  1  0  0  0  0
  9 11  1  0  0  0  0
  9 22  1  0  0  0  0
 11 12  1  0  0  0  0
 11 13  1  0  0  0  0
 11 14  1  0  0  0  0
 14 15  1  0  0  0  0
 14 16  1  0  0  0  0
 14 17  1  0  0  0  0
 17 18  1  0  0  0  0
 18 19  1  0  0  0  0
 18 20  1  0  0  0  0
 18 21  1  0  0  0  0
 22 23  2  0  0  0  0
 22 24  1  0  0  0  0
 24 25  1  0  0  0  0
 24 26  1  0  0  0  0
 26 27  1  0  0  0  0
 26 28  1  0  0  0  0
 26 29  1  0  0  0  0
M  END
$$$$

  -OEChem-02102214153D

 29 28  0     1  0  0  0  0  0999 V2000
   -3.4145   -3.3980    1.3247 H   0  0  0  0  0  0  0  0  0  0  0  0
   -3.3417   -2.4354    0.8111 C   0  0  0  0  0  0  0  0  0  0  0  0
   -4.0180   -1.7266    1.2950 H   0  0  0  0  0  0  0  0  0  0  0  0
   -3.6468   -2.5674   -0.2298 H   0  0  0  0  0  0  0  0  0  0  0  0
   -1.9173   -1.9172    0.8717 C   0  0  0  0  0  0  0  0  0  0  0  0
   -1.0530   -2.5684    1.4361 O   0  0  0  0  0  0  0  0  0  0  0  0
   -1.6054   -0.7029    0.2979 N   0  0  0  0  0  0  0  0  0  0  0  0
   -2.3772   -0.1456   -0.0659 H   0  0  0  0  0  0  0  0  0  0  0  0
   -0.2873   -0.0506    0.3530 C   0  0  1  0  0  0  0  0  0  0  0  0
    0.3350   -0.4999    1.1341 H   0  0  0  0  0  0  0  0  0  0  0  0
    0.4223   -0.1835   -1.0065 C   0  0  0  0  0  0  0  0  0  0  0  0
   -0.2872    0.0869   -1.7948 H   0  0  0  0  0  0  0  0  0  0  0  0
    1.2546    0.5256   -1.0678 H   0  0  0  0  0  0  0  0  0  0  0  0
    0.9722   -1.5957   -1.2529 C   0  0  0  0  0  0  0  0  0  0  0  0
    1.9871   -1.6702   -0.8501 H   0  0  0  0  0  0  0  0  0  0  0  0
    0.3626   -2.3486   -0.7465 H   0  0  0  0  0  0  0  0  0  0  0  0
    0.9799   -1.9720   -3.0518 S   0  0  0  0  0  0  0  0  0  0  0  0
   -0.7881   -2.3636   -3.3632 C   0  0  0  0  0  0  0  0  0  0  0  0
   -1.4194   -1.5008   -3.1330 H   0  0  0  0  0  0  0  0  0  0  0  0
   -0.9326   -2.6305   -4.4142 H   0  0  0  0  0  0  0  0  0  0  0  0
   -1.1035   -3.2067   -2.7414 H   0  0  0  0  0  0  0  0  0  0  0  0
   -0.4579    1.4444    0.6896 C   0  0  0  0  0  0  0  0  0  0  0  0
   -1.3570    2.0881    0.1600 O   0  0  0  0  0  0  0  0  0  0  0  0
    0.3523    2.0537    1.6297 N   0  0  0  0  0  0  0  0  0  0  0  0
    1.0493    1.4800    2.0962 H   0  0  0  0  0  0  0  0  0  0  0  0
    0.2052    3.4490    2.0266 C   0  0  0  0  0  0  0  0  0  0  0  0
   -0.7862    3.6224    2.4582 H   0  0  0  0  0  0  0  0  0  0  0  0
    0.9587    3.7114    2.7752 H   0  0  0  0  0  0  0  0  0  0  0  0
    0.3333    4.1089    1.1621 H   0  0  0  0  0  0  0  0  0  0  0  0
  1  2  1  0  0  0  0
  2  3  1  0  0  0  0
  2  4  1  0  0  0  0
  2  5  1  0  0  0  0
  5  6  2  0  0  0  0
  5  7  1  0  0  0  0
  7  8  1  0  0  0  0
  7  9  1  0  0  0  0
  9 10  1  0  0  0  0
  9 11  1  0  0  0  0
  9 22  1  0  0  0  0
 11 12  1  0  0  0  0
 11 13  1  0  0  0  0
 11 14  1  0  0  0  0
 14 15  1  0  0  0  0
 14 16  1  0  0  0  0
 14 17  1  0  0  0  0
 17 18  1  0  0  0  0
 18 19  1  0  0  0  0
 18 20  1  0  0  0  0
 18 21  1  0  0  0  0
 22 23  2  0  0  0  0
 22 24  1  0  0  0  0
 24 25  1  0  0  0  0
 24 26  1  0  0  0  0
 26 27  1  0  0  0  0
 26 28  1  0  0  0  0
 26 29  1  0  0  0  0
M  END
$$$$

  -OEChem-02102214153D

 29 28  0     1  0  0  0  0  0999 V2000
   -3.4129   -3.3917    1.3495 H   0  0  0  0  0  0  0  0  0  0  0  0
   -3.3466   -2.4296    0.8337 C   0  0  0  0  0  0  0  0  0  0  0  0
   -4.0050   -1.7156    1.3344 H   0  0  0  0  0  0  0  0  0  0  0  0
   -3.6792   -2.5598   -0.1989 H   0  0  0  0  0  0  0  0  0  0  0  0
   -1.9178   -1.9212    0.8567 C   0  0  0  0  0  0  0  0  0  0  0  0
   -1.0402   -2.5853    1.3847 O   0  0  0  0  0  0  0  0  0  0  0  0
   -1.6145   -0.7027    0.2870 N   0  0  0  0  0  0  0  0  0  0  0  0
   -2.3924   -0.1363   -0.0489 H   0  0  0  0  0  0  0  0  0  0  0  0
   -0.2973   -0.0499    0.3433 C   0  0  1  0  0  0  0  0  0  0  0  0
    0.3235   -0.5013    1.1246 H   0  0  0  0  0  0  0  0  0  0  0  0
    0.4162   -0.1798   -1.0134 C   0  0  0  0  0  0  0  0  0  0  0  0
   -0.2862    0.0892   -1.8081 H   0  0  0  0  0  0  0  0  0  0  0  0
    1.2520    0.5258   -1.0655 H   0  0  0  0  0  0  0  0  0  0  0  0
    0.9629   -1.5927   -1.2483 C   0  0  0  0  0  0  0  0  0  0  0  0
    1.8470   -1.7550   -0.6238 H   0  0  0  0  0  0  0  0  0  0  0  0
    0.2197   -2.3464   -0.9730 H   0  0  0  0  0  0  0  0  0  0  0  0
    1.3978   -1.8156   -3.0199 S   0  0  0  0  0  0  0  0  0  0  0  0
   -0.2449   -2.0805   -3.7988 C   0  0  0  0  0  0  0  0  0  0  0  0
   -0.8785   -1.1984   -3.6712 H   0  0  0  0  0  0  0  0  0  0  0  0
   -0.1241   -2.2697   -4.8695 H   0  0  0  0  0  0  0  0  0  0  0  0
   -0.7440   -2.9416   -3.3447 H   0  0  0  0  0  0  0  0  0  0  0  0
   -0.4671    1.4429    0.6885 C   0  0  0  0  0  0  0  0  0  0  0  0
   -1.3717    2.0884    0.1706 O   0  0  0  0  0  0  0  0  0  0  0  0
    0.3461    2.0452    1.6303 N   0  0  0  0  0  0  0  0  0  0  0  0
    1.0522    1.4706    2.0818 H   0  0  0  0  0  0  0  0  0  0  0  0
    0.2025    3.4378    2.0369 C   0  0  0  0  0  0  0  0  0  0  0  0
   -0.7888    3.6107    2.4692 H   0  0  0  0  0  0  0  0  0  0  0  0
    0.9567    3.6925    2.7878 H   0  0  0  0  0  0  0  0  0  0  0  0
    0.3330    4.1035    1.1771 H   0  0  0  0  0  0  0  0  0  0  0  0
  1  2  1  0  0  0  0
  2  3  1  0  0  0  0
  2  4  1  0  0  0  0
  2  5  1  0  0  0  0
  5  6  2  0  0  0  0
  5  7  1  0  0  0  0
  7  8  1  0  0  0  0
  7  9  1  0  0  0  0
  9 10  1  0  0  0  0
  9 11  1  0  0  0  0
  9 22  1  0  0  0  0
 11 12  1  0  0  0  0
 11 13  1  0  0  0  0
 11 14  1  0  0  0  0
 14 15  1  0  0  0  0
 14 16  1  0  0  0  0
 14 17  1  0  0  0  0
 17 18  1  0  0  0  0
 18 19  1  0  0  0  0
 18 20  1  0  0  0  0
 18 21  1  0  0  0  0
 22 23  2  0  0  0  0
 22 24  1  0  0  0  0
 24 25  1  0  0  0  0
 24 26  1  0  0  0  0
 26 27  1  0  0  0  0
 26 28  1  0  0  0  0
 26 29  1  0  0  0  0
M  END
$$$$

  -OEChem-02102214153D

 29 28  0     1  0  0  0  0  0999 V2000
   -3.4162   -3.4095    1.3892 H   0  0  0  0  0  0  0  0  0  0  0  0
   -3.3623   -2.4472    0.8722 C   0  0  0  0  0  0  0  0  0  0  0  0
   -4.0114   -1.7347    1.3870 H   0  0  0  0  0  0  0  0  0  0  0  0
   -3.7169   -2.5776   -0.1531 H   0  0  0  0  0  0  0  0  0  0  0  0
   -1.9339   -1.9367    0.8646 C   0  0  0  0  0  0  0  0  0  0  0  0
   -1.0414   -2.6058    1.3599 O   0  0  0  0  0  0  0  0  0  0  0  0
   -1.6456   -0.7160    0.2914 N   0  0  0  0  0  0  0  0  0  0  0  0
   -2.4327   -0.1497   -0.0221 H   0  0  0  0  0  0  0  0  0  0  0  0
   -0.3303   -0.0567    0.3305 C   0  0  1  0  0  0  0  0  0  0  0  0
    0.2894   -0.5111    1.1107 H   0  0  0  0  0  0  0  0  0  0  0  0
    0.3954   -0.2008   -1.0183 C   0  0  0  0  0  0  0  0  0  0  0  0
   -0.2024    0.2867   -1.7944 H   0  0  0  0  0  0  0  0  0  0  0  0
    1.3594    0.3163   -0.9689 H   0  0  0  0  0  0  0  0  0  0  0  0
    0.6389   -1.6638   -1.4068 C   0  0  0  0  0  0  0  0  0  0  0  0
    1.2480   -2.1509   -0.6381 H   0  0  0  0  0  0  0  0  0  0  0  0
   -0.3064   -2.2096   -1.4778 H   0  0  0  0  0  0  0  0  0  0  0  0
    1.5088   -1.7505   -3.0239 S   0  0  0  0  0  0  0  0  0  0  0  0
    0.1823   -1.3342   -4.2247 C   0  0  0  0  0  0  0  0  0  0  0  0
   -0.1780   -0.3147   -4.0617 H   0  0  0  0  0  0  0  0  0  0  0  0
    0.5674   -1.4073   -5.2460 H   0  0  0  0  0  0  0  0  0  0  0  0
   -0.6571   -2.0274   -4.1169 H   0  0  0  0  0  0  0  0  0  0  0  0
   -0.4844    1.4372    0.6776 C   0  0  0  0  0  0  0  0  0  0  0  0
   -1.3963    2.0862    0.1776 O   0  0  0  0  0  0  0  0  0  0  0  0
    0.3476    2.0349    1.6061 N   0  0  0  0  0  0  0  0  0  0  0  0
    1.0634    1.4582    2.0394 H   0  0  0  0  0  0  0  0  0  0  0  0
    0.2158    3.4265    2.0205 C   0  0  0  0  0  0  0  0  0  0  0  0
   -0.7686    3.6027    2.4670 H   0  0  0  0  0  0  0  0  0  0  0  0
    0.9807    3.6740    2.7629 H   0  0  0  0  0  0  0  0  0  0  0  0
    0.3385    4.0952    1.1620 H   0  0  0  0  0  0  0  0  0  0  0  0
  1  2  1  0  0  0  0
  2  3  1  0  0  0  0
  2  4  1  0  0  0  0
  2  5  1  0  0  0  0
  5  6  2  0  0  0  0
  5  7  1  0  0  0  0
  7  8  1  0  0  0  0
  7  9  1  0  0  0  0
  9 10  1  0  0  0  0
  9 11  1  0  0  0  0
  9 22  1  0  0  0  0
 11 12  1  0  0  0  0
 11 13  1  0  0  0  0
 11 14  1  0  0  0  0
 14 15  1  0  0  0  0
 14 16  1  0  0  0  0
 14 17  1  0  0  0  0
 17 18  1  0  0  0  0
 18 19  1  0  0  0  0
 18 20  1  0  0  0  0
 18 21  1  0  0  0  0
 22 23  2  0  0  0  0
 22 24  1  0  0  0  0
 24 25  1  0  0  0  0
 24 26  1  0  0  0  0
 26 27  1  0  0  0  0
 26 28  1  0  0  0  0
 26 29  1  0  0  0  0
M  END
$$$$

  -OEChem-02102214153D

 29 28  0     1  0  0  0  0  0999 V2000
   -3.4150   -3.4226    1.3828 H   0  0  0  0  0  0  0  0  0  0  0  0
   -3.3646   -2.4506    0.8841 C   0  0  0  0  0  0  0  0  0  0  0  0
   -4.0060   -1.7463    1.4194 H   0  0  0  0  0  0  0  0  0  0  0  0
   -3.7303   -2.5607   -0.1396 H   0  0  0  0  0  0  0  0  0  0  0  0
   -1.9353   -1.9433    0.8714 C   0  0  0  0  0  0  0  0  0  0  0  0
   -1.0459   -2.6061    1.3805 O   0  0  0  0  0  0  0  0  0  0  0  0
   -1.6442   -0.7295    0.2854 N   0  0  0  0  0  0  0  0  0  0  0  0
   -2.4297   -0.1653   -0.0360 H   0  0  0  0  0  0  0  0  0  0  0  0
   -0.3280   -0.0726    0.3179 C   0  0  1  0  0  0  0  0  0  0  0  0
    0.2953   -0.5199    1.0995 H   0  0  0  0  0  0  0  0  0  0  0  0
    0.3818   -0.2356   -1.0367 C   0  0  0  0  0  0  0  0  0  0  0  0
   -0.2080    0.2494   -1.8210 H   0  0  0  0  0  0  0  0  0  0  0  0
    1.3517    0.2704   -0.9886 H   0  0  0  0  0  0  0  0  0  0  0  0
    0.6087   -1.7068   -1.4029 C   0  0  0  0  0  0  0  0  0  0  0  0
    0.9990   -2.2467   -0.5337 H   0  0  0  0  0  0  0  0  0  0  0  0
   -0.3353   -2.1789   -1.6914 H   0  0  0  0  0  0  0  0  0  0  0  0
    1.8270   -1.8444   -2.7728 S   0  0  0  0  0  0  0  0  0  0  0  0
    0.9233   -1.1159   -4.1966 C   0  0  0  0  0  0  0  0  0  0  0  0
    0.7219   -0.0554   -4.0211 H   0  0  0  0  0  0  0  0  0  0  0  0
    1.5228   -1.2101   -5.1070 H   0  0  0  0  0  0  0  0  0  0  0  0
   -0.0274   -1.6355   -4.3482 H   0  0  0  0  0  0  0  0  0  0  0  0
   -0.4809    1.4247    0.6490 C   0  0  0  0  0  0  0  0  0  0  0  0
   -1.3887    2.0702    0.1368 O   0  0  0  0  0  0  0  0  0  0  0  0
    0.3506    2.0317    1.5717 N   0  0  0  0  0  0  0  0  0  0  0  0
    1.0534    1.4543    2.0252 H   0  0  0  0  0  0  0  0  0  0  0  0
    0.2078    3.4232    1.9825 C   0  0  0  0  0  0  0  0  0  0  0  0
   -0.7675    3.5857    2.4536 H   0  0  0  0  0  0  0  0  0  0  0  0
    0.9883    3.6871    2.7026 H   0  0  0  0  0  0  0  0  0  0  0  0
    0.2970    4.0894    1.1179 H   0  0  0  0  0  0  0  0  0  0  0  0
  1  2  1  0  0  0  0
  2  3  1  0  0  0  0
  2  4  1  0  0  0  0
  2  5  1  0  0  0  0
  5  6  2  0  0  0  0
  5  7  1  0  0  0  0
  7  8  1  0  0  0  0
  7  9  1  0  0  0  0
  9 10  1  0  0  0  0
  9 11  1  0  0  0  0
  9 22  1  0  0  0  0
 11 12  1  0  0  0  0
 11 13  1  0  0  0  0
 11 14  1  0  0  0  0
 14 15  1  0  0  0  0
 14 16  1  0  0  0  0
 14 17  1  0  0  0  0
 17 18  1  0  0  0  0
 18 19  1  0  0  0  0
 18 20  1  0  0  0  0
 18 21  1  0  0  0  0
 22 23  2  0  0  0  0
 22 24  1  0  0  0  0
 24 25  1  0  0  0  0
 24 26  1  0  0  0  0
 26 27  1  0  0  0  0
 26 28  1  0  0  0  0
 26 29  1  0  0  0  0
M  END
$$$$

  -OEChem-02102214153D

 29 28  0     1  0  0  0  0  0999 V2000
   -3.4342   -3.4174    1.3848 H   0  0  0  0  0  0  0  0  0  0  0  0
   -3.3755   -2.4511    0.8761 C   0  0  0  0  0  0  0  0  0  0  0  0
   -4.0260   -1.7410    1.3925 H   0  0  0  0  0  0  0  0  0  0  0  0
   -3.7236   -2.5727   -0.1525 H   0  0  0  0  0  0  0  0  0  0  0  0
   -1.9461   -1.9437    0.8823 C   0  0  0  0  0  0  0  0  0  0  0  0
   -1.0682   -2.5970    1.4220 O   0  0  0  0  0  0  0  0  0  0  0  0
   -1.6460   -0.7353    0.2894 N   0  0  0  0  0  0  0  0  0  0  0  0
   -2.4267   -0.1775   -0.0534 H   0  0  0  0  0  0  0  0  0  0  0  0
   -0.3276   -0.0820    0.3150 C   0  0  1  0  0  0  0  0  0  0  0  0
    0.2987   -0.5275    1.0950 H   0  0  0  0  0  0  0  0  0  0  0  0
    0.3717   -0.2497   -1.0451 C   0  0  0  0  0  0  0  0  0  0  0  0
   -0.2125    0.2404   -1.8312 H   0  0  0  0  0  0  0  0  0  0  0  0
    1.3428    0.2539   -0.9923 H   0  0  0  0  0  0  0  0  0  0  0  0
    0.5947   -1.7210   -1.4185 C   0  0  0  0  0  0  0  0  0  0  0  0
    0.7479   -2.3157   -0.5121 H   0  0  0  0  0  0  0  0  0  0  0  0
   -0.2845   -2.1199   -1.9338 H   0  0  0  0  0  0  0  0  0  0  0  0
    2.0964   -1.8987   -2.4645 S   0  0  0  0  0  0  0  0  0  0  0  0
    1.6271   -0.9910   -3.9910 C   0  0  0  0  0  0  0  0  0  0  0  0
    1.4464    0.0646   -3.7688 H   0  0  0  0  0  0  0  0  0  0  0  0
    2.4323   -1.0586   -4.7286 H   0  0  0  0  0  0  0  0  0  0  0  0
    0.7193   -1.4213   -4.4239 H   0  0  0  0  0  0  0  0  0  0  0  0
   -0.4757    1.4176    0.6364 C   0  0  0  0  0  0  0  0  0  0  0  0
   -1.3811    2.0637    0.1209 O   0  0  0  0  0  0  0  0  0  0  0  0
    0.3606    2.0257    1.5537 N   0  0  0  0  0  0  0  0  0  0  0  0
    1.0636    1.4476    2.0060 H   0  0  0  0  0  0  0  0  0  0  0  0
    0.2235    3.4188    1.9600 C   0  0  0  0  0  0  0  0  0  0  0  0
   -0.7504    3.5865    2.4320 H   0  0  0  0  0  0  0  0  0  0  0  0
    1.0059    3.6815    2.6784 H   0  0  0  0  0  0  0  0  0  0  0  0
    0.3144    4.0817    1.0930 H   0  0  0  0  0  0  0  0  0  0  0  0
  1  2  1  0  0  0  0
  2  3  1  0  0  0  0
  2  4  1  0  0  0  0
  2  5  1  0  0  0  0
  5  6  2  0  0  0  0
  5  7  1  0  0  0  0
  7  8  1  0  0  0  0
  7  9  1  0  0  0  0
  9 10  1  0  0  0  0
  9 11  1  0  0  0  0
  9 22  1  0  0  0  0
 11 12  1  0  0  0  0
 11 13  1  0  0  0  0
 11 14  1  0  0  0  0
 14 15  1  0  0  0  0
 14 16  1  0  0  0  0
 14 17  1  0  0  0  0
 17 18  1  0  0  0  0
 18 19  1  0  0  0  0
 18 20  1  0  0  0  0
 18 21  1  0  0  0  0
 22 23  2  0  0  0  0
 22 24  1  0  0  0  0
 24 25  1  0  0  0  0
 24 26  1  0  0  0  0
 26 27  1  0  0  0  0
 26 28  1  0  0  0  0
 26 29  1  0  0  0  0
M  END
$$$$

  -OEChem-02102214153D

 29 28  0     1  0  0  0  0  0999 V2000
   -3.4616   -3.4038    1.3800 H   0  0  0  0  0  0  0  0  0  0  0  0
   -3.3884   -2.4454    0.8583 C   0  0  0  0  0  0  0  0  0  0  0  0
   -4.0473   -1.7257    1.3501 H   0  0  0  0  0  0  0  0  0  0  0  0
   -3.7150   -2.5816   -0.1754 H   0  0  0  0  0  0  0  0  0  0  0  0
   -1.9579   -1.9414    0.8873 C   0  0  0  0  0  0  0  0  0  0  0  0
   -1.0930   -2.5913    1.4514 O   0  0  0  0  0  0  0  0  0  0  0  0
   -1.6474   -0.7336    0.2981 N   0  0  0  0  0  0  0  0  0  0  0  0
   -2.4233   -0.1763   -0.0565 H   0  0  0  0  0  0  0  0  0  0  0  0
   -0.3267   -0.0837    0.3255 C   0  0  1  0  0  0  0  0  0  0  0  0
    0.2985   -0.5353    1.1033 H   0  0  0  0  0  0  0  0  0  0  0  0
    0.3771   -0.2374   -1.0356 C   0  0  0  0  0  0  0  0  0  0  0  0
   -0.2075    0.2615   -1.8157 H   0  0  0  0  0  0  0  0  0  0  0  0
    1.3424    0.2757   -0.9733 H   0  0  0  0  0  0  0  0  0  0  0  0
    0.6107   -1.7006   -1.4424 C   0  0  0  0  0  0  0  0  0  0  0  0
    0.5040   -2.3563   -0.5735 H   0  0  0  0  0  0  0  0  0  0  0  0
   -0.1302   -2.0113   -2.1855 H   0  0  0  0  0  0  0  0  0  0  0  0
    2.3158   -1.9256   -2.0938 S   0  0  0  0  0  0  0  0  0  0  0  0
    2.2597   -0.9806   -3.6679 C   0  0  0  0  0  0  0  0  0  0  0  0
    2.0308    0.0714   -3.4754 H   0  0  0  0  0  0  0  0  0  0  0  0
    3.2275   -1.0402   -4.1746 H   0  0  0  0  0  0  0  0  0  0  0  0
    1.4925   -1.3930   -4.3298 H   0  0  0  0  0  0  0  0  0  0  0  0
   -0.4727    1.4159    0.6493 C   0  0  0  0  0  0  0  0  0  0  0  0
   -1.3740    2.0657    0.1308 O   0  0  0  0  0  0  0  0  0  0  0  0
    0.3636    2.0216    1.5682 N   0  0  0  0  0  0  0  0  0  0  0  0
    1.0638    1.4414    2.0222 H   0  0  0  0  0  0  0  0  0  0  0  0
    0.2320    3.4159    1.9721 C   0  0  0  0  0  0  0  0  0  0  0  0
   -0.7460    3.5907    2.4328 H   0  0  0  0  0  0  0  0  0  0  0  0
    1.0077    3.6739    2.6994 H   0  0  0  0  0  0  0  0  0  0  0  0
    0.3373    4.0773    1.1058 H   0  0  0  0  0  0  0  0  0  0  0  0
  1  2  1  0  0  0  0
  2  3  1  0  0  0  0
  2  4  1  0  0  0  0
  2  5  1  0  0  0  0
  5  6  2  0  0  0  0
  5  7  1  0  0  0  0
  7  8  1  0  0  0  0
  7  9  1  0  0  0  0
  9 10  1  0  0  0  0
  9 11  1  0  0  0  0
  9 22  1  0  0  0  0
 11 12  1  0  0  0  0
 11 13  1  0  0  0  0
 11 14  1  0  0  0  0
 14 15  1  0  0  0  0
 14 16  1  0  0  0  0
 14 17  1  0  0  0  0
 17 18  1  0  0  0  0
 18 19  1  0  0  0  0
 18 20  1  0  0  0  0
 18 21  1  0  0  0  0
 22 23  2  0  0  0  0
 22 24  1  0  0  0  0
 24 25  1  0  0  0  0
 24 26  1  0  0  0  0
 26 27  1  0  0  0  0
 26 28  1  0  0  0  0
 26 29  1  0  0  0  0
M  END
$$$$

  -OEChem-02102214153D

 29 28  0     1  0  0  0  0  0999 V2000
   -3.4704   -3.4098    1.3554 H   0  0  0  0  0  0  0  0  0  0  0  0
   -3.3938   -2.4498    0.8371 C   0  0  0  0  0  0  0  0  0  0  0  0
   -4.0665   -1.7357    1.3180 H   0  0  0  0  0  0  0  0  0  0  0  0
   -3.7003   -2.5860   -0.2027 H   0  0  0  0  0  0  0  0  0  0  0  0
   -1.9673   -1.9372    0.8938 C   0  0  0  0  0  0  0  0  0  0  0  0
   -1.1105   -2.5825    1.4750 O   0  0  0  0  0  0  0  0  0  0  0  0
   -1.6523   -0.7275    0.3106 N   0  0  0  0  0  0  0  0  0  0  0  0
   -2.4240   -0.1769   -0.0623 H   0  0  0  0  0  0  0  0  0  0  0  0
   -0.3309   -0.0774    0.3412 C   0  0  1  0  0  0  0  0  0  0  0  0
    0.2947   -0.5340    1.1158 H   0  0  0  0  0  0  0  0  0  0  0  0
    0.3822   -0.2132   -1.0185 C   0  0  0  0  0  0  0  0  0  0  0  0
   -0.2193    0.2836   -1.7872 H   0  0  0  0  0  0  0  0  0  0  0  0
    1.3366    0.3200   -0.9625 H   0  0  0  0  0  0  0  0  0  0  0  0
    0.6312   -1.6667   -1.4564 C   0  0  0  0  0  0  0  0  0  0  0  0
    0.2566   -2.3687   -0.7076 H   0  0  0  0  0  0  0  0  0  0  0  0
    0.1024   -1.8715   -2.3923 H   0  0  0  0  0  0  0  0  0  0  0  0
    2.4312   -1.9774   -1.6741 S   0  0  0  0  0  0  0  0  0  0  0  0
    2.8029   -1.0506   -3.2161 C   0  0  0  0  0  0  0  0  0  0  0  0
    2.5793    0.0123   -3.0885 H   0  0  0  0  0  0  0  0  0  0  0  0
    3.8618   -1.1564   -3.4702 H   0  0  0  0  0  0  0  0  0  0  0  0
    2.2041   -1.4397   -4.0448 H   0  0  0  0  0  0  0  0  0  0  0  0
   -0.4780    1.4210    0.6713 C   0  0  0  0  0  0  0  0  0  0  0  0
   -1.3742    2.0750    0.1492 O   0  0  0  0  0  0  0  0  0  0  0  0
    0.3574    2.0236    1.5934 N   0  0  0  0  0  0  0  0  0  0  0  0
    1.0569    1.4415    2.0464 H   0  0  0  0  0  0  0  0  0  0  0  0
    0.2311    3.4191    1.9959 C   0  0  0  0  0  0  0  0  0  0  0  0
   -0.7511    3.6011    2.4449 H   0  0  0  0  0  0  0  0  0  0  0  0
    1.0000    3.6718    2.7324 H   0  0  0  0  0  0  0  0  0  0  0  0
    0.3511    4.0801    1.1310 H   0  0  0  0  0  0  0  0  0  0  0  0
  1  2  1  0  0  0  0
  2  3  1  0  0  0  0
  2  4  1  0  0  0  0
  2  5  1  0  0  0  0
  5  6  2  0  0  0  0
  5  7  1  0  0  0  0
  7  8  1  0  0  0  0
  7  9  1  0  0  0  0
  9 10  1  0  0  0  0
  9 11  1  0  0  0  0
  9 22  1  0  0  0  0
 11 12  1  0  0  0  0
 11 13  1  0  0  0  0
 11 14  1  0  0  0  0
 14 15  1  0  0  0  0
 14 16  1  0  0  0  0
 14 17  1  0  0  0  0
 17 18  1  0  0  0  0
 18 19  1  0  0  0  0
 18 20  1  0  0  0  0
 18 21  1  0  0  0  0
 22 23  2  0  0  0  0
 22 24  1  0  0  0  0
 24 25  1  0  0  0  0
 24 26  1  0  0  0  0
 26 27  1  0  0  0  0
 26 28  1  0  0  0  0
 26 29  1  0  0  0  0
M  END
$$$$

  -OEChem-02102214153D

 29 28  0     1  0  0  0  0  0999 V2000
   -3.4631   -3.4183    1.3413 H   0  0  0  0  0  0  0  0  0  0  0  0
   -3.3924   -2.4554    0.8274 C   0  0  0  0  0  0  0  0  0  0  0  0
   -4.0689   -1.7471    1.3118 H   0  0  0  0  0  0  0  0  0  0  0  0
   -3.6980   -2.5881   -0.2132 H   0  0  0  0  0  0  0  0  0  0  0  0
   -1.9686   -1.9357    0.8863 C   0  0  0  0  0  0  0  0  0  0  0  0
   -1.1065   -2.5841    1.4558 O   0  0  0  0  0  0  0  0  0  0  0  0
   -1.6600   -0.7205    0.3106 N   0  0  0  0  0  0  0  0  0  0  0  0
   -2.4349   -0.1693   -0.0547 H   0  0  0  0  0  0  0  0  0  0  0  0
   -0.3410   -0.0651    0.3455 C   0  0  1  0  0  0  0  0  0  0  0  0
    0.2836   -0.5248    1.1190 H   0  0  0  0  0  0  0  0  0  0  0  0
    0.3840   -0.1871   -1.0098 C   0  0  0  0  0  0  0  0  0  0  0  0
   -0.2360    0.2979   -1.7713 H   0  0  0  0  0  0  0  0  0  0  0  0
    1.3273    0.3660   -0.9653 H   0  0  0  0  0  0  0  0  0  0  0  0
    0.6495   -1.6328   -1.4618 C   0  0  0  0  0  0  0  0  0  0  0  0
    0.0388   -2.3452   -0.9028 H   0  0  0  0  0  0  0  0  0  0  0  0
    0.3895   -1.7409   -2.5194 H   0  0  0  0  0  0  0  0  0  0  0  0
    2.4250   -2.0561   -1.2352 S   0  0  0  0  0  0  0  0  0  0  0  0
    3.2229   -1.1800   -2.6393 C   0  0  0  0  0  0  0  0  0  0  0  0
    3.0540   -0.1020   -2.5661 H   0  0  0  0  0  0  0  0  0  0  0  0
    4.3011   -1.3654   -2.6309 H   0  0  0  0  0  0  0  0  0  0  0  0
    2.8141   -1.5366   -3.5893 H   0  0  0  0  0  0  0  0  0  0  0  0
   -0.4924    1.4305    0.6855 C   0  0  0  0  0  0  0  0  0  0  0  0
   -1.3886    2.0861    0.1654 O   0  0  0  0  0  0  0  0  0  0  0  0
    0.3418    2.0287    1.6112 N   0  0  0  0  0  0  0  0  0  0  0  0
    1.0399    1.4436    2.0626 H   0  0  0  0  0  0  0  0  0  0  0  0
    0.2183    3.4233    2.0177 C   0  0  0  0  0  0  0  0  0  0  0  0
   -0.7662    3.6078    2.4605 H   0  0  0  0  0  0  0  0  0  0  0  0
    0.9831    3.6698    2.7606 H   0  0  0  0  0  0  0  0  0  0  0  0
    0.3473    4.0868    1.1561 H   0  0  0  0  0  0  0  0  0  0  0  0
  1  2  1  0  0  0  0
  2  3  1  0  0  0  0
  2  4  1  0  0  0  0
  2  5  1  0  0  0  0
  5  6  2  0  0  0  0
  5  7  1  0  0  0  0
  7  8  1  0  0  0  0
  7  9  1  0  0  0  0
  9 10  1  0  0  0  0
  9 11  1  0  0  0  0
  9 22  1  0  0  0  0
 11 12  1  0  0  0  0
 11 13  1  0  0  0  0
 11 14  1  0  0  0  0
 14 15  1  0  0  0  0
 14 16  1  0  0  0  0
 14 17  1  0  0  0  0
 17 18  1  0  0  0  0
 18 19  1  0  0  0  0
 18 20  1  0  0  0  0
 18 21  1  0  0  0  0
 22 23  2  0  0  0  0
 22 24  1  0  0  0  0
 24 25  1  0  0  0  0
 24 26  1  0  0  0  0
 26 27  1  0  0  0  0
 26 28  1  0  0  0  0
 26 29  1  0  0  0  0
M  END
$$$$

  -OEChem-02102214153D

 29 28  0     1  0  0  0  0  0999 V2000
   -3.4487   -3.4197    1.3378 H   0  0  0  0  0  0  0  0  0  0  0  0
   -3.3847   -2.4549    0.8267 C   0  0  0  0  0  0  0  0  0  0  0  0
   -4.0533   -1.7481    1.3239 H   0  0  0  0  0  0  0  0  0  0  0  0
   -3.7062   -2.5837   -0.2096 H   0  0  0  0  0  0  0  0  0  0  0  0
   -1.9598   -1.9360    0.8666 C   0  0  0  0  0  0  0  0  0  0  0  0
   -1.0894   -2.5893    1.4168 O   0  0  0  0  0  0  0  0  0  0  0  0
   -1.6615   -0.7150    0.2982 N   0  0  0  0  0  0  0  0  0  0  0  0
   -2.4426   -0.1621   -0.0508 H   0  0  0  0  0  0  0  0  0  0  0  0
   -0.3468   -0.0516    0.3371 C   0  0  1  0  0  0  0  0  0  0  0  0
    0.2778   -0.5115    1.1104 H   0  0  0  0  0  0  0  0  0  0  0  0
    0.3861   -0.1647   -1.0149 C   0  0  0  0  0  0  0  0  0  0  0  0
   -0.2389    0.3128   -1.7769 H   0  0  0  0  0  0  0  0  0  0  0  0
    1.3253    0.3947   -0.9716 H   0  0  0  0  0  0  0  0  0  0  0  0
    0.6615   -1.6073   -1.4640 C   0  0  0  0  0  0  0  0  0  0  0  0
   -0.1233   -2.2879   -1.1256 H   0  0  0  0  0  0  0  0  0  0  0  0
    0.6780   -1.6519   -2.5572 H   0  0  0  0  0  0  0  0  0  0  0  0
    2.2929   -2.1683   -0.8258 S   0  0  0  0  0  0  0  0  0  0  0  0
    3.4791   -1.3537   -1.9683 C   0  0  0  0  0  0  0  0  0  0  0  0
    3.3911   -0.2657   -1.9041 H   0  0  0  0  0  0  0  0  0  0  0  0
    4.5032   -1.6361   -1.7065 H   0  0  0  0  0  0  0  0  0  0  0  0
    3.2840   -1.6630   -2.9993 H   0  0  0  0  0  0  0  0  0  0  0  0
   -0.5064    1.4404    0.6868 C   0  0  0  0  0  0  0  0  0  0  0  0
   -1.4054    2.0952    0.1707 O   0  0  0  0  0  0  0  0  0  0  0  0
    0.3252    2.0368    1.6161 N   0  0  0  0  0  0  0  0  0  0  0  0
    1.0239    1.4513    2.0659 H   0  0  0  0  0  0  0  0  0  0  0  0
    0.1926    3.4274    2.0328 C   0  0  0  0  0  0  0  0  0  0  0  0
   -0.7912    3.6011    2.4814 H   0  0  0  0  0  0  0  0  0  0  0  0
    0.9590    3.6754    2.7735 H   0  0  0  0  0  0  0  0  0  0  0  0
    0.3122    4.0974    1.1748 H   0  0  0  0  0  0  0  0  0  0  0  0
  1  2  1  0  0  0  0
  2  3  1  0  0  0  0
  2  4  1  0  0  0  0
  2  5  1  0  0  0  0
  5  6  2  0  0  0  0
  5  7  1  0  0  0  0
  7  8  1  0  0  0  0
  7  9  1  0  0  0  0
  9 10  1  0  0  0  0
  9 11  1  0  0  0  0
  9 22  1  0  0  0  0
 11 12  1  0  0  0  0
 11 13  1  0  0  0  0
 11 14  1  0  0  0  0
 14 15  1  0  0  0  0
 14 16  1  0  0  0  0
 14 17  1  0  0  0  0
 17 18  1  0  0  0  0
 18 19  1  0  0  0  0
 18 20  1  0  0  0  0
 18 21  1  0  0  0  0
 22 23  2  0  0  0  0
 22 24  1  0  0  0  0
 24 25  1  0  0  0  0
 24 26  1  0  0  0  0
 26 27  1  0  0  0  0
 26 28  1  0  0  0  0
 26 29  1  0  0  0  0
M  END
$$$$

  -OEChem-02102214153D

 29 28  0     1  0  0  0  0  0999 V2000
   -3.4272   -3.4319    1.3152 H   0  0  0  0  0  0  0  0  0  0  0  0
   -3.3667   -2.4652    0.8072 C   0  0  0  0  0  0  0  0  0  0  0  0
   -4.0501   -1.7668    1.2963 H   0  0  0  0  0  0  0  0  0  0  0  0
   -3.6714   -2.5948   -0.2340 H   0  0  0  0  0  0  0  0  0  0  0  0
   -1.9481   -1.9312    0.8692 C   0  0  0  0  0  0  0  0  0  0  0  0
   -1.0846   -2.5684    1.4472 O   0  0  0  0  0  0  0  0  0  0  0  0
   -1.6537   -0.7106    0.2978 N   0  0  0  0  0  0  0  0  0  0  0  0
   -2.4338   -0.1697   -0.0710 H   0  0  0  0  0  0  0  0  0  0  0  0
   -0.3415   -0.0428    0.3345 C   0  0  1  0  0  0  0  0  0  0  0  0
    0.2854   -0.4989    1.1080 H   0  0  0  0  0  0  0  0  0  0  0  0
    0.3809   -0.1609   -1.0232 C   0  0  0  0  0  0  0  0  0  0  0  0
   -0.2423    0.3171   -1.7863 H   0  0  0  0  0  0  0  0  0  0  0  0
    1.3243    0.3911   -0.9839 H   0  0  0  0  0  0  0  0  0  0  0  0
    0.6525   -1.6052   -1.4649 C   0  0  0  0  0  0  0  0  0  0  0  0
   -0.2417   -2.2224   -1.3418 H   0  0  0  0  0  0  0  0  0  0  0  0
    0.9134   -1.6193   -2.5275 H   0  0  0  0  0  0  0  0  0  0  0  0
    2.0427   -2.3277   -0.5003 S   0  0  0  0  0  0  0  0  0  0  0  0
    3.5245   -1.5332   -1.2403 C   0  0  0  0  0  0  0  0  0  0  0  0
    3.5059   -0.4529   -1.0735 H   0  0  0  0  0  0  0  0  0  0  0  0
    4.4317   -1.9398   -0.7837 H   0  0  0  0  0  0  0  0  0  0  0  0
    3.5595   -1.7243   -2.3169 H   0  0  0  0  0  0  0  0  0  0  0  0
   -0.5034    1.4499    0.6801 C   0  0  0  0  0  0  0  0  0  0  0  0
   -1.3994    2.1042    0.1581 O   0  0  0  0  0  0  0  0  0  0  0  0
    0.3282    2.0495    1.6074 N   0  0  0  0  0  0  0  0  0  0  0  0
    1.0142    1.4605    2.0718 H   0  0  0  0  0  0  0  0  0  0  0  0
    0.1892    3.4386    2.0268 C   0  0  0  0  0  0  0  0  0  0  0  0
   -0.7922    3.6054    2.4833 H   0  0  0  0  0  0  0  0  0  0  0  0
    0.9596    3.6909    2.7618 H   0  0  0  0  0  0  0  0  0  0  0  0
    0.2978    4.1105    1.1689 H   0  0  0  0  0  0  0  0  0  0  0  0
  1  2  1  0  0  0  0
  2  3  1  0  0  0  0
  2  4  1  0  0  0  0
  2  5  1  0  0  0  0
  5  6  2  0  0  0  0
  5  7  1  0  0  0  0
  7  8  1  0  0  0  0
  7  9  1  0  0  0  0
  9 10  1  0  0  0  0
  9 11  1  0  0  0  0
  9 22  1  0  0  0  0
 11 12  1  0  0  0  0
 11 13  1  0  0  0  0
 11 14  1  0  0  0  0
 14 15  1  0  0  0  0
 14 16  1  0  0  0  0
 14 17  1  0  0  0  0
 17 18  1  0  0  0  0
 18 19  1  0  0  0  0
 18 20  1  0  0  0  0
 18 21  1  0  0  0  0
 22 23  2  0  0  0  0
 22 24  1  0  0  0  0
 24 25  1  0  0  0  0
 24 26  1  0  0  0  0
 26 27  1  0  0  0  0
 26 28  1  0  0  0  0
 26 29  1  0  0  0  0
M  END
$$$$

  -OEChem-02102214153D

 29 28  0     1  0  0  0  0  0999 V2000
   -3.4010   -3.4635    1.2694 H   0  0  0  0  0  0  0  0  0  0  0  0
   -3.3369   -2.4940    0.7669 C   0  0  0  0  0  0  0  0  0  0  0  0
   -4.0654   -1.8147    1.2160 H   0  0  0  0  0  0  0  0  0  0  0  0
   -3.5772   -2.6291   -0.2904 H   0  0  0  0  0  0  0  0  0  0  0  0
   -1.9391   -1.9229    0.9107 C   0  0  0  0  0  0  0  0  0  0  0  0
   -1.1102   -2.5132    1.5813 O   0  0  0  0  0  0  0  0  0  0  0  0
   -1.6369   -0.7105    0.3263 N   0  0  0  0  0  0  0  0  0  0  0  0
   -2.4016   -0.2011   -0.1121 H   0  0  0  0  0  0  0  0  0  0  0  0
   -0.3233   -0.0466    0.3549 C   0  0  1  0  0  0  0  0  0  0  0  0
    0.3117   -0.4973    1.1248 H   0  0  0  0  0  0  0  0  0  0  0  0
    0.3659   -0.1718   -1.0210 C   0  0  0  0  0  0  0  0  0  0  0  0
   -0.2584    0.3222   -1.7733 H   0  0  0  0  0  0  0  0  0  0  0  0
    1.3187    0.3648   -0.9903 H   0  0  0  0  0  0  0  0  0  0  0  0
    0.6237   -1.6124   -1.4846 C   0  0  0  0  0  0  0  0  0  0  0  0
   -0.3280   -2.1449   -1.5747 H   0  0  0  0  0  0  0  0  0  0  0  0
    1.0876   -1.5996   -2.4757 H   0  0  0  0  0  0  0  0  0  0  0  0
    1.7111   -2.5321   -0.3194 S   0  0  0  0  0  0  0  0  0  0  0  0
    3.3388   -1.7051   -0.5156 C   0  0  0  0  0  0  0  0  0  0  0  0
    3.2845   -0.6656   -0.1813 H   0  0  0  0  0  0  0  0  0  0  0  0
    4.0940   -2.2231    0.0829 H   0  0  0  0  0  0  0  0  0  0  0  0
    3.6494   -1.7247   -1.5643 H   0  0  0  0  0  0  0  0  0  0  0  0
   -0.4809    1.4502    0.6838 C   0  0  0  0  0  0  0  0  0  0  0  0
   -1.3572    2.1090    0.1345 O   0  0  0  0  0  0  0  0  0  0  0  0
    0.3531    2.0562    1.6046 N   0  0  0  0  0  0  0  0  0  0  0  0
    1.0099    1.4617    2.1027 H   0  0  0  0  0  0  0  0  0  0  0  0
    0.2258    3.4536    1.9995 C   0  0  0  0  0  0  0  0  0  0  0  0
   -0.7589    3.6395    2.4410 H   0  0  0  0  0  0  0  0  0  0  0  0
    0.9906    3.7086    2.7394 H   0  0  0  0  0  0  0  0  0  0  0  0
    0.3527    4.1096    1.1319 H   0  0  0  0  0  0  0  0  0  0  0  0
  1  2  1  0  0  0  0
  2  3  1  0  0  0  0
  2  4  1  0  0  0  0
  2  5  1  0  0  0  0
  5  6  2  0  0  0  0
  5  7  1  0  0  0  0
  7  8  1  0  0  0  0
  7  9  1  0  0  0  0
  9 10  1  0  0  0  0
  9 11  1  0  0  0  0
  9 22  1  0  0  0  0
 11 12  1  0  0  0  0
 11 13  1  0  0  0  0
 11 14  1  0  0  0  0
 14 15  1  0  0  0  0
 14 16  1  0  0  0  0
 14 17  1  0  0  0  0
 17 18  1  0  0  0  0
 18 19  1  0  0  0  0
 18 20  1  0  0  0  0
 18 21  1  0  0  0  0
 22 23  2  0  0  0  0
 22 24  1  0  0  0  0
 24 25  1  0  0  0  0
 24 26  1  0  0  0  0
 26 27  1  0  0  0  0
 26 28  1  0  0  0  0
 26 29  1  0  0  0  0
M  END
$$$$

  -OEChem-02102214153D

 29 28  0     1  0  0  0  0  0999 V2000
   -3.3653   -3.4890    1.2454 H   0  0  0  0  0  0  0  0  0  0  0  0
   -3.3016   -2.5214    0.7398 C   0  0  0  0  0  0  0  0  0  0  0  0
   -4.0845   -1.8665    1.1297 H   0  0  0  0  0  0  0  0  0  0  0  0
   -3.4610   -2.6732   -0.3304 H   0  0  0  0  0  0  0  0  0  0  0  0
   -1.9395   -1.8975    0.9776 C   0  0  0  0  0  0  0  0  0  0  0  0
   -1.1723   -2.4058    1.7776 O   0  0  0  0  0  0  0  0  0  0  0  0
   -1.6251   -0.7000    0.3696 N   0  0  0  0  0  0  0  0  0  0  0  0
   -2.3564   -0.2494   -0.1755 H   0  0  0  0  0  0  0  0  0  0  0  0
   -0.3070   -0.0454    0.3920 C   0  0  1  0  0  0  0  0  0  0  0  0
    0.3312   -0.4897    1.1623 H   0  0  0  0  0  0  0  0  0  0  0  0
    0.3644   -0.1728   -0.9958 C   0  0  0  0  0  0  0  0  0  0  0  0
   -0.2493    0.3482   -1.7386 H   0  0  0  0  0  0  0  0  0  0  0  0
    1.3265    0.3474   -0.9525 H   0  0  0  0  0  0  0  0  0  0  0  0
    0.6243   -1.5979   -1.5109 C   0  0  0  0  0  0  0  0  0  0  0  0
   -0.3264   -2.0295   -1.8389 H   0  0  0  0  0  0  0  0  0  0  0  0
    1.2826   -1.5536   -2.3841 H   0  0  0  0  0  0  0  0  0  0  0  0
    1.3520   -2.7290   -0.2572 S   0  0  0  0  0  0  0  0  0  0  0  0
    2.9816   -1.9596    0.0935 C   0  0  0  0  0  0  0  0  0  0  0  0
    2.8496   -0.9672    0.5329 H   0  0  0  0  0  0  0  0  0  0  0  0
    3.5426   -2.5805    0.7982 H   0  0  0  0  0  0  0  0  0  0  0  0
    3.5620   -1.8647   -0.8288 H   0  0  0  0  0  0  0  0  0  0  0  0
   -0.4622    1.4590    0.6911 C   0  0  0  0  0  0  0  0  0  0  0  0
   -1.3185    2.1163    0.1091 O   0  0  0  0  0  0  0  0  0  0  0  0
    0.3682    2.0801    1.6056 N   0  0  0  0  0  0  0  0  0  0  0  0
    0.9995    1.4886    2.1388 H   0  0  0  0  0  0  0  0  0  0  0  0
    0.2304    3.4819    1.9823 C   0  0  0  0  0  0  0  0  0  0  0  0
   -0.7533    3.6642    2.4278 H   0  0  0  0  0  0  0  0  0  0  0  0
    0.9975    3.7547    2.7133 H   0  0  0  0  0  0  0  0  0  0  0  0
    0.3451    4.1274    1.1051 H   0  0  0  0  0  0  0  0  0  0  0  0
  1  2  1  0  0  0  0
  2  3  1  0  0  0  0
  2  4  1  0  0  0  0
  2  5  1  0  0  0  0
  5  6  2  0  0  0  0
  5  7  1  0  0  0  0
  7  8  1  0  0  0  0
  7  9  1  0  0  0  0
  9 10  1  0  0  0  0
  9 11  1  0  0  0  0
  9 22  1  0  0  0  0
 11 12  1  0  0  0  0
 11 13  1  0  0  0  0
 11 14  1  0  0  0  0
 14 15  1  0  0  0  0
 14 16  1  0  0  0  0
 14 17  1  0  0  0  0
 17 18  1  0  0  0  0
 18 19  1  0  0  0  0
 18 20  1  0  0  0  0
 18 21  1  0  0  0  0
 22 23  2  0  0  0  0
 22 24  1  0  0  0  0
 24 25  1  0  0  0  0
 24 26  1  0  0  0  0
 26 27  1  0  0  0  0
 26 28  1  0  0  0  0
 26 29  1  0  0  0  0
M  END
$$$$

  -OEChem-02102214153D

 29 28  0     1  0  0  0  0  0999 V2000
   -3.3770   -3.4600    1.3107 H   0  0  0  0  0  0  0  0  0  0  0  0
   -3.2815   -2.5423    0.7237 C   0  0  0  0  0  0  0  0  0  0  0  0
   -4.1269   -1.8881    0.9502 H   0  0  0  0  0  0  0  0  0  0  0  0
   -3.3014   -2.8010   -0.3375 H   0  0  0  0  0  0  0  0  0  0  0  0
   -1.9789   -1.8416    1.0596 C   0  0  0  0  0  0  0  0  0  0  0  0
   -1.2821   -2.2588    1.9708 O   0  0  0  0  0  0  0  0  0  0  0  0
   -1.6539   -0.6623    0.4220 N   0  0  0  0  0  0  0  0  0  0  0  0
   -2.3364   -0.2882   -0.2326 H   0  0  0  0  0  0  0  0  0  0  0  0
   -0.3330   -0.0138    0.4534 C   0  0  1  0  0  0  0  0  0  0  0  0
    0.2917   -0.4447    1.2417 H   0  0  0  0  0  0  0  0  0  0  0  0
    0.3653   -0.1519   -0.9239 C   0  0  0  0  0  0  0  0  0  0  0  0
   -0.2224    0.3843   -1.6770 H   0  0  0  0  0  0  0  0  0  0  0  0
    1.3281    0.3637   -0.8449 H   0  0  0  0  0  0  0  0  0  0  0  0
    0.6569   -1.5604   -1.4764 C   0  0  0  0  0  0  0  0  0  0  0  0
   -0.2152   -1.8783   -2.0561 H   0  0  0  0  0  0  0  0  0  0  0  0
    1.5041   -1.5104   -2.1677 H   0  0  0  0  0  0  0  0  0  0  0  0
    0.9692   -2.8658   -0.2231 S   0  0  0  0  0  0  0  0  0  0  0  0
    2.5810   -2.3548    0.4922 C   0  0  0  0  0  0  0  0  0  0  0  0
    2.5025   -1.3631    0.9451 H   0  0  0  0  0  0  0  0  0  0  0  0
    2.8881   -3.0669    1.2640 H   0  0  0  0  0  0  0  0  0  0  0  0
    3.3496   -2.3281   -0.2856 H   0  0  0  0  0  0  0  0  0  0  0  0
   -0.4909    1.4993    0.7098 C   0  0  0  0  0  0  0  0  0  0  0  0
   -1.3192    2.1501    0.0816 O   0  0  0  0  0  0  0  0  0  0  0  0
    0.3236    2.1394    1.6253 N   0  0  0  0  0  0  0  0  0  0  0  0
    0.9231    1.5553    2.2014 H   0  0  0  0  0  0  0  0  0  0  0  0
    0.1887    3.5522    1.9591 C   0  0  0  0  0  0  0  0  0  0  0  0
   -0.7957    3.7504    2.3961 H   0  0  0  0  0  0  0  0  0  0  0  0
    0.9551    3.8446    2.6833 H   0  0  0  0  0  0  0  0  0  0  0  0
    0.3076    4.1714    1.0636 H   0  0  0  0  0  0  0  0  0  0  0  0
  1  2  1  0  0  0  0
  2  3  1  0  0  0  0
  2  4  1  0  0  0  0
  2  5  1  0  0  0  0
  5  6  2  0  0  0  0
  5  7  1  0  0  0  0
  7  8  1  0  0  0  0
  7  9  1  0  0  0  0
  9 10  1  0  0  0  0
  9 11  1  0  0  0  0
  9 22  1  0  0  0  0
 11 12  1  0  0  0  0
 11 13  1  0  0  0  0
 11 14  1  0  0  0  0
 14 15  1  0  0  0  0
 14 16  1  0  0  0  0
 14 17  1  0  0  0  0
 17 18  1  0  0  0  0
 18 19  1  0  0  0  0
 18 20  1  0  0  0  0
 18 21  1  0  0  0  0
 22 23  2  0  0  0  0
 22 24  1  0  0  0  0
 24 25  1  0  0  0  0
 24 26  1  0  0  0  0
 26 27  1  0  0  0  0
 26 28  1  0  0  0  0
 26 29  1  0  0  0  0
M  END
$$$$

  -OEChem-02102214153D

 29 28  0     1  0  0  0  0  0999 V2000
   -3.4131   -3.4113    1.3763 H   0  0  0  0  0  0  0  0  0  0  0  0
   -3.3114   -2.5072    0.7697 C   0  0  0  0  0  0  0  0  0  0  0  0
   -4.1674   -1.8553    0.9594 H   0  0  0  0  0  0  0  0  0  0  0  0
   -3.3033   -2.7921   -0.2850 H   0  0  0  0  0  0  0  0  0  0  0  0
   -2.0231   -1.7872    1.1190 C   0  0  0  0  0  0  0  0  0  0  0  0
   -1.3487   -2.1672    2.0644 O   0  0  0  0  0  0  0  0  0  0  0  0
   -1.6839   -0.6276    0.4527 N   0  0  0  0  0  0  0  0  0  0  0  0
   -2.3423   -0.2851   -0.2423 H   0  0  0  0  0  0  0  0  0  0  0  0
   -0.3591    0.0120    0.4910 C   0  0  1  0  0  0  0  0  0  0  0  0
    0.2457   -0.3992    1.3039 H   0  0  0  0  0  0  0  0  0  0  0  0
    0.3884   -0.1378   -0.8625 C   0  0  0  0  0  0  0  0  0  0  0  0
   -0.1785    0.3991   -1.6313 H   0  0  0  0  0  0  0  0  0  0  0  0
    1.3417    0.3893   -0.7501 H   0  0  0  0  0  0  0  0  0  0  0  0
    0.7256   -1.5304   -1.4413 C   0  0  0  0  0  0  0  0  0  0  0  0
    0.0271   -1.7194   -2.2627 H   0  0  0  0  0  0  0  0  0  0  0  0
    1.7289   -1.5006   -1.8778 H   0  0  0  0  0  0  0  0  0  0  0  0
    0.6139   -2.9786   -0.3192 S   0  0  0  0  0  0  0  0  0  0  0  0
    2.0783   -2.7790    0.7704 C   0  0  0  0  0  0  0  0  0  0  0  0
    2.0242   -1.8364    1.3204 H   0  0  0  0  0  0  0  0  0  0  0  0
    2.1173   -3.5998    1.4929 H   0  0  0  0  0  0  0  0  0  0  0  0
    2.9974   -2.7895    0.1775 H   0  0  0  0  0  0  0  0  0  0  0  0
   -0.5258    1.5321    0.7044 C   0  0  0  0  0  0  0  0  0  0  0  0
   -1.3394    2.1661    0.0406 O   0  0  0  0  0  0  0  0  0  0  0  0
    0.2689    2.1991    1.6187 N   0  0  0  0  0  0  0  0  0  0  0  0
    0.8609    1.6342    2.2211 H   0  0  0  0  0  0  0  0  0  0  0  0
    0.1288    3.6218    1.9048 C   0  0  0  0  0  0  0  0  0  0  0  0
   -0.8650    3.8345    2.3129 H   0  0  0  0  0  0  0  0  0  0  0  0
    0.8790    3.9365    2.6365 H   0  0  0  0  0  0  0  0  0  0  0  0
    0.2692    4.2116    0.9928 H   0  0  0  0  0  0  0  0  0  0  0  0
  1  2  1  0  0  0  0
  2  3  1  0  0  0  0
  2  4  1  0  0  0  0
  2  5  1  0  0  0  0
  5  6  2  0  0  0  0
  5  7  1  0  0  0  0
  7  8  1  0  0  0  0
  7  9  1  0  0  0  0
  9 10  1  0  0  0  0
  9 11  1  0  0  0  0
  9 22  1  0  0  0  0
 11 12  1  0  0  0  0
 11 13  1  0  0  0  0
 11 14  1  0  0  0  0
 14 15  1  0  0  0  0
 14 16  1  0  0  0  0
 14 17  1  0  0  0  0
 17 18  1  0  0  0  0
 18 19  1  0  0  0  0
 18 20  1  0  0  0  0
 18 21  1  0  0  0  0
 22 23  2  0  0  0  0
 22 24  1  0  0  0  0
 24 25  1  0  0  0  0
 24 26  1  0  0  0  0
 26 27  1  0  0  0  0
 26 28  1  0  0  0  0
 26 29  1  0  0  0  0
M  END
$$$$

  -OEChem-02102214153D

 29 28  0     1  0  0  0  0  0999 V2000
   -3.5219   -3.2925    1.4865 H   0  0  0  0  0  0  0  0  0  0  0  0
   -3.3742   -2.4353    0.8239 C   0  0  0  0  0  0  0  0  0  0  0  0
   -4.2164   -1.7490    0.9400 H   0  0  0  0  0  0  0  0  0  0  0  0
   -3.3405   -2.7914   -0.2087 H   0  0  0  0  0  0  0  0  0  0  0  0
   -2.0769   -1.7282    1.1667 C   0  0  0  0  0  0  0  0  0  0  0  0
   -1.4069   -2.1048    2.1174 O   0  0  0  0  0  0  0  0  0  0  0  0
   -1.7134   -0.5899    0.4768 N   0  0  0  0  0  0  0  0  0  0  0  0
   -2.3569   -0.2596   -0.2381 H   0  0  0  0  0  0  0  0  0  0  0  0
   -0.3811    0.0344    0.5172 C   0  0  1  0  0  0  0  0  0  0  0  0
    0.2051   -0.3592    1.3519 H   0  0  0  0  0  0  0  0  0  0  0  0
    0.4095   -0.1405   -0.8111 C   0  0  0  0  0  0  0  0  0  0  0  0
   -0.1569    0.3756   -1.5945 H   0  0  0  0  0  0  0  0  0  0  0  0
    1.3510    0.4073   -0.6964 H   0  0  0  0  0  0  0  0  0  0  0  0
    0.7772   -1.5295   -1.3903 C   0  0  0  0  0  0  0  0  0  0  0  0
    0.3332   -1.5949   -2.3888 H   0  0  0  0  0  0  0  0  0  0  0  0
    1.8626   -1.5703   -1.5263 H   0  0  0  0  0  0  0  0  0  0  0  0
    0.2697   -3.0437   -0.4858 S   0  0  0  0  0  0  0  0  0  0  0  0
    1.4948   -3.1534    0.8780 C   0  0  0  0  0  0  0  0  0  0  0  0
    1.4407   -2.2681    1.5164 H   0  0  0  0  0  0  0  0  0  0  0  0
    1.2872   -4.0343    1.4929 H   0  0  0  0  0  0  0  0  0  0  0  0
    2.5077   -3.2374    0.4742 H   0  0  0  0  0  0  0  0  0  0  0  0
   -0.5438    1.5608    0.6913 C   0  0  0  0  0  0  0  0  0  0  0  0
   -1.3487    2.1821    0.0053 O   0  0  0  0  0  0  0  0  0  0  0  0
    0.2407    2.2468    1.6004 N   0  0  0  0  0  0  0  0  0  0  0  0
    0.8258    1.6946    2.2210 H   0  0  0  0  0  0  0  0  0  0  0  0
    0.0983    3.6755    1.8555 C   0  0  0  0  0  0  0  0  0  0  0  0
   -0.9037    3.8984    2.2369 H   0  0  0  0  0  0  0  0  0  0  0  0
    0.8325    4.0030    2.5978 H   0  0  0  0  0  0  0  0  0  0  0  0
    0.2605    4.2475    0.9358 H   0  0  0  0  0  0  0  0  0  0  0  0
  1  2  1  0  0  0  0
  2  3  1  0  0  0  0
  2  4  1  0  0  0  0
  2  5  1  0  0  0  0
  5  6  2  0  0  0  0
  5  7  1  0  0  0  0
  7  8  1  0  0  0  0
  7  9  1  0  0  0  0
  9 10  1  0  0  0  0
  9 11  1  0  0  0  0
  9 22  1  0  0  0  0
 11 12  1  0  0  0  0
 11 13  1  0  0  0  0
 11 14  1  0  0  0  0
 14 15  1  0  0  0  0
 14 16  1  0  0  0  0
 14 17  1  0  0  0  0
 17 18  1  0  0  0  0
 18 19  1  0  0  0  0
 18 20  1  0  0  0  0
 18 21  1  0  0  0  0
 22 23  2  0  0  0  0
 22 24  1  0  0  0  0
 24 25  1  0  0  0  0
 24 26  1  0  0  0  0
 26 27  1  0  0  0  0
 26 28  1  0  0  0  0
 26 29  1  0  0  0  0
M  END
$$$$

  -OEChem-02102214153D

 29 28  0     1  0  0  0  0  0999 V2000
   -3.6526   -3.1870    1.4801 H   0  0  0  0  0  0  0  0  0  0  0  0
   -3.4864   -2.3211    0.8333 C   0  0  0  0  0  0  0  0  0  0  0  0
   -4.3120   -1.6176    0.9639 H   0  0  0  0  0  0  0  0  0  0  0  0
   -3.4632   -2.6582   -0.2058 H   0  0  0  0  0  0  0  0  0  0  0  0
   -2.1728   -1.6503    1.1859 C   0  0  0  0  0  0  0  0  0  0  0  0
   -1.5306   -2.0326    2.1532 O   0  0  0  0  0  0  0  0  0  0  0  0
   -1.7597   -0.5399    0.4788 N   0  0  0  0  0  0  0  0  0  0  0  0
   -2.3758   -0.2107   -0.2603 H   0  0  0  0  0  0  0  0  0  0  0  0
   -0.4172    0.0598    0.5432 C   0  0  1  0  0  0  0  0  0  0  0  0
    0.1302   -0.3217    1.4106 H   0  0  0  0  0  0  0  0  0  0  0  0
    0.4368   -0.1567   -0.7415 C   0  0  0  0  0  0  0  0  0  0  0  0
   -0.1106    0.3289   -1.5573 H   0  0  0  0  0  0  0  0  0  0  0  0
    1.3708    0.4019   -0.6168 H   0  0  0  0  0  0  0  0  0  0  0  0
    0.8233   -1.5571   -1.2804 C   0  0  0  0  0  0  0  0  0  0  0  0
    0.7035   -1.5392   -2.3684 H   0  0  0  0  0  0  0  0  0  0  0  0
    1.8893   -1.7102   -1.0855 H   0  0  0  0  0  0  0  0  0  0  0  0
   -0.0581   -3.0392   -0.6536 S   0  0  0  0  0  0  0  0  0  0  0  0
    0.9584   -3.5032    0.8045 C   0  0  0  0  0  0  0  0  0  0  0  0
    1.0423   -2.6600    1.4959 H   0  0  0  0  0  0  0  0  0  0  0  0
    0.4925   -4.3399    1.3336 H   0  0  0  0  0  0  0  0  0  0  0  0
    1.9620   -3.8017    0.4888 H   0  0  0  0  0  0  0  0  0  0  0  0
   -0.5638    1.5926    0.6694 C   0  0  0  0  0  0  0  0  0  0  0  0
   -1.3398    2.2054   -0.0565 O   0  0  0  0  0  0  0  0  0  0  0  0
    0.2023    2.2922    1.5838 N   0  0  0  0  0  0  0  0  0  0  0  0
    0.7564    1.7482    2.2389 H   0  0  0  0  0  0  0  0  0  0  0  0
    0.0653    3.7270    1.8032 C   0  0  0  0  0  0  0  0  0  0  0  0
   -0.9472    3.9675    2.1443 H   0  0  0  0  0  0  0  0  0  0  0  0
    0.7762    4.0628    2.5644 H   0  0  0  0  0  0  0  0  0  0  0  0
    0.2653    4.2777    0.8779 H   0  0  0  0  0  0  0  0  0  0  0  0
  1  2  1  0  0  0  0
  2  3  1  0  0  0  0
  2  4  1  0  0  0  0
  2  5  1  0  0  0  0
  5  6  2  0  0  0  0
  5  7  1  0  0  0  0
  7  8  1  0  0  0  0
  7  9  1  0  0  0  0
  9 10  1  0  0  0  0
  9 11  1  0  0  0  0
  9 22  1  0  0  0  0
 11 12  1  0  0  0  0
 11 13  1  0  0  0  0
 11 14  1  0  0  0  0
 14 15  1  0  0  0  0
 14 16  1  0  0  0  0
 14 17  1  0  0  0  0
 17 18  1  0  0  0  0
 18 19  1  0  0  0  0
 18 20  1  0  0  0  0
 18 21  1  0  0  0  0
 22 23  2  0  0  0  0
 22 24  1  0  0  0  0
 24 25  1  0  0  0  0
 24 26  1  0  0  0  0
 26 27  1  0  0  0  0
 26 28  1  0  0  0  0
 26 29  1  0  0  0  0
M  END
$$$$

  -OEChem-02102214153D

 29 28  0     1  0  0  0  0  0999 V2000
   -3.6847   -3.1612    1.5390 H   0  0  0  0  0  0  0  0  0  0  0  0
   -3.5383   -2.2860    0.9005 C   0  0  0  0  0  0  0  0  0  0  0  0
   -4.3532   -1.5799    1.0761 H   0  0  0  0  0  0  0  0  0  0  0  0
   -3.5589   -2.6058   -0.1442 H   0  0  0  0  0  0  0  0  0  0  0  0
   -2.2069   -1.6295    1.2119 C   0  0  0  0  0  0  0  0  0  0  0  0
   -1.5205   -2.0471    2.1334 O   0  0  0  0  0  0  0  0  0  0  0  0
   -1.8146   -0.5084    0.5090 N   0  0  0  0  0  0  0  0  0  0  0  0
   -2.4497   -0.1654   -0.2077 H   0  0  0  0  0  0  0  0  0  0  0  0
   -0.4809    0.1090    0.5731 C   0  0  1  0  0  0  0  0  0  0  0  0
    0.0663   -0.2665    1.4432 H   0  0  0  0  0  0  0  0  0  0  0  0
    0.3955   -0.0941   -0.6971 C   0  0  0  0  0  0  0  0  0  0  0  0
   -0.1551    0.3719   -1.5218 H   0  0  0  0  0  0  0  0  0  0  0  0
    1.3176    0.4824   -0.5683 H   0  0  0  0  0  0  0  0  0  0  0  0
    0.8071   -1.4925   -1.2154 C   0  0  0  0  0  0  0  0  0  0  0  0
    0.9786   -1.4156   -2.2939 H   0  0  0  0  0  0  0  0  0  0  0  0
    1.7697   -1.7433   -0.7594 H   0  0  0  0  0  0  0  0  0  0  0  0
   -0.3173   -2.9145   -0.9219 S   0  0  0  0  0  0  0  0  0  0  0  0
    0.5672   -3.8392    0.3962 C   0  0  0  0  0  0  0  0  0  0  0  0
    0.7491   -3.1915    1.2590 H   0  0  0  0  0  0  0  0  0  0  0  0
   -0.0341   -4.6925    0.7234 H   0  0  0  0  0  0  0  0  0  0  0  0
    1.5270   -4.2084    0.0237 H   0  0  0  0  0  0  0  0  0  0  0  0
   -0.6475    1.6386    0.7086 C   0  0  0  0  0  0  0  0  0  0  0  0
   -1.4352    2.2442   -0.0106 O   0  0  0  0  0  0  0  0  0  0  0  0
    0.1115    2.3440    1.6245 N   0  0  0  0  0  0  0  0  0  0  0  0
    0.6849    1.8063    2.2683 H   0  0  0  0  0  0  0  0  0  0  0  0
   -0.0327    3.7787    1.8415 C   0  0  0  0  0  0  0  0  0  0  0  0
   -1.0426    4.0132    2.1940 H   0  0  0  0  0  0  0  0  0  0  0  0
    0.6851    4.1219    2.5928 H   0  0  0  0  0  0  0  0  0  0  0  0
    0.1523    4.3280    0.9121 H   0  0  0  0  0  0  0  0  0  0  0  0
  1  2  1  0  0  0  0
  2  3  1  0  0  0  0
  2  4  1  0  0  0  0
  2  5  1  0  0  0  0
  5  6  2  0  0  0  0
  5  7  1  0  0  0  0
  7  8  1  0  0  0  0
  7  9  1  0  0  0  0
  9 10  1  0  0  0  0
  9 11  1  0  0  0  0
  9 22  1  0  0  0  0
 11 12  1  0  0  0  0
 11 13  1  0  0  0  0
 11 14  1  0  0  0  0
 14 15  1  0  0  0  0
 14 16  1  0  0  0  0
 14 17  1  0  0  0  0
 17 18  1  0  0  0  0
 18 19  1  0  0  0  0
 18 20  1  0  0  0  0
 18 21  1  0  0  0  0
 22 23  2  0  0  0  0
 22 24  1  0  0  0  0
 24 25  1  0  0  0  0
 24 26  1  0  0  0  0
 26 27  1  0  0  0  0
 26 28  1  0  0  0  0
 26 29  1  0  0  0  0
M  END
$$$$

  -OEChem-02102214153D

 29 28  0     1  0  0  0  0  0999 V2000
   -3.6058   -3.1273    1.8308 H   0  0  0  0  0  0  0  0  0  0  0  0
   -3.5419   -2.2082    1.2419 C   0  0  0  0  0  0  0  0  0  0  0  0
   -4.2853   -1.4981    1.6120 H   0  0  0  0  0  0  0  0  0  0  0  0
   -3.7600   -2.4442    0.1975 H   0  0  0  0  0  0  0  0  0  0  0  0
   -2.1525   -1.6102    1.3548 C   0  0  0  0  0  0  0  0  0  0  0  0
   -1.3222   -2.1295    2.0872 O   0  0  0  0  0  0  0  0  0  0  0  0
   -1.8484   -0.4518    0.6679 N   0  0  0  0  0  0  0  0  0  0  0  0
   -2.5830   -0.0372    0.0988 H   0  0  0  0  0  0  0  0  0  0  0  0
   -0.5118    0.1550    0.5932 C   0  0  1  0  0  0  0  0  0  0  0  0
    0.1287   -0.2629    1.3760 H   0  0  0  0  0  0  0  0  0  0  0  0
    0.2135   -0.0084   -0.7721 C   0  0  0  0  0  0  0  0  0  0  0  0
   -0.4087    0.4911   -1.5229 H   0  0  0  0  0  0  0  0  0  0  0  0
    1.1590    0.5417   -0.7231 H   0  0  0  0  0  0  0  0  0  0  0  0
    0.5301   -1.4102   -1.3380 C   0  0  0  0  0  0  0  0  0  0  0  0
    0.8503   -1.3026   -2.3791 H   0  0  0  0  0  0  0  0  0  0  0  0
    1.3837   -1.8034   -0.7774 H   0  0  0  0  0  0  0  0  0  0  0  0
   -0.8054   -2.6726   -1.2712 S   0  0  0  0  0  0  0  0  0  0  0  0
    0.0330   -4.0792   -0.4405 C   0  0  0  0  0  0  0  0  0  0  0  0
    0.3767   -3.7798    0.5545 H   0  0  0  0  0  0  0  0  0  0  0  0
   -0.6612   -4.9174   -0.3309 H   0  0  0  0  0  0  0  0  0  0  0  0
    0.8941   -4.4105   -1.0279 H   0  0  0  0  0  0  0  0  0  0  0  0
   -0.6360    1.6755    0.8301 C   0  0  0  0  0  0  0  0  0  0  0  0
   -1.5067    2.3232    0.2590 O   0  0  0  0  0  0  0  0  0  0  0  0
    0.2448    2.3243    1.6763 N   0  0  0  0  0  0  0  0  0  0  0  0
    0.8975    1.7495    2.2015 H   0  0  0  0  0  0  0  0  0  0  0  0
    0.1540    3.7466    1.9834 C   0  0  0  0  0  0  0  0  0  0  0  0
   -0.8032    3.9744    2.4640 H   0  0  0  0  0  0  0  0  0  0  0  0
    0.9608    4.0396    2.6619 H   0  0  0  0  0  0  0  0  0  0  0  0
    0.2395    4.3427    1.0687 H   0  0  0  0  0  0  0  0  0  0  0  0
  1  2  1  0  0  0  0
  2  3  1  0  0  0  0
  2  4  1  0  0  0  0
  2  5  1  0  0  0  0
  5  6  2  0  0  0  0
  5  7  1  0  0  0  0
  7  8  1  0  0  0  0
  7  9  1  0  0  0  0
  9 10  1  0  0  0  0
  9 11  1  0  0  0  0
  9 22  1  0  0  0  0
 11 12  1  0  0  0  0
 11 13  1  0  0  0  0
 11 14  1  0  0  0  0
 14 15  1  0  0  0  0
 14 16  1  0  0  0  0
 14 17  1  0  0  0  0
 17 18  1  0  0  0  0
 18 19  1  0  0  0  0
 18 20  1  0  0  0  0
 18 21  1  0  0  0  0
 22 23  2  0  0  0  0
 22 24  1  0  0  0  0
 24 25  1  0  0  0  0
 24 26  1  0  0  0  0
 26 27  1  0  0  0  0
 26 28  1  0  0  0  0
 26 29  1  0  0  0  0
M  END
$$$$

  -OEChem-02102214153D

 29 28  0     1  0  0  0  0  0999 V2000
   -3.4333   -3.3497    2.2678 H   0  0  0  0  0  0  0  0  0  0  0  0
   -3.3376   -2.5102    1.5736 C   0  0  0  0  0  0  0  0  0  0  0  0
   -4.1058   -1.7692    1.8067 H   0  0  0  0  0  0  0  0  0  0  0  0
   -3.4894   -2.8768    0.5555 H   0  0  0  0  0  0  0  0  0  0  0  0
   -1.9603   -1.8869    1.6956 C   0  0  0  0  0  0  0  0  0  0  0  0
   -1.1603   -2.3264    2.5079 O   0  0  0  0  0  0  0  0  0  0  0  0
   -1.6339   -0.7920    0.9207 N   0  0  0  0  0  0  0  0  0  0  0  0
   -2.3536   -0.4146    0.3091 H   0  0  0  0  0  0  0  0  0  0  0  0
   -0.3088   -0.1593    0.8849 C   0  0  1  0  0  0  0  0  0  0  0  0
    0.2802   -0.4793    1.7502 H   0  0  0  0  0  0  0  0  0  0  0  0
    0.5022   -0.4664   -0.4006 C   0  0  0  0  0  0  0  0  0  0  0  0
   -0.0443   -0.0552   -1.2552 H   0  0  0  0  0  0  0  0  0  0  0  0
    1.4498    0.0782   -0.3378 H   0  0  0  0  0  0  0  0  0  0  0  0
    0.8391   -1.9375   -0.7209 C   0  0  0  0  0  0  0  0  0  0  0  0
    1.4502   -1.9652   -1.6284 H   0  0  0  0  0  0  0  0  0  0  0  0
    1.4493   -2.3348    0.0966 H   0  0  0  0  0  0  0  0  0  0  0  0
   -0.5926   -3.0737   -0.9548 S   0  0  0  0  0  0  0  0  0  0  0  0
   -1.4820   -2.3291   -2.3789 C   0  0  0  0  0  0  0  0  0  0  0  0
   -1.8495   -1.3314   -2.1227 H   0  0  0  0  0  0  0  0  0  0  0  0
   -0.8147   -2.2488   -3.2421 H   0  0  0  0  0  0  0  0  0  0  0  0
   -2.3366   -2.9542   -2.6543 H   0  0  0  0  0  0  0  0  0  0  0  0
   -0.4754    1.3724    0.9599 C   0  0  0  0  0  0  0  0  0  0  0  0
   -1.3148    1.9344    0.2643 O   0  0  0  0  0  0  0  0  0  0  0  0
    0.3262    2.1248    1.7986 N   0  0  0  0  0  0  0  0  0  0  0  0
    0.9494    1.6223    2.4247 H   0  0  0  0  0  0  0  0  0  0  0  0
    0.1801    3.5665    1.9586 C   0  0  0  0  0  0  0  0  0  0  0  0
   -0.8126    3.8099    2.3520 H   0  0  0  0  0  0  0  0  0  0  0  0
    0.9323    3.9479    2.6558 H   0  0  0  0  0  0  0  0  0  0  0  0
    0.3124    4.0740    0.9972 H   0  0  0  0  0  0  0  0  0  0  0  0
  1  2  1  0  0  0  0
  2  3  1  0  0  0  0
  2  4  1  0  0  0  0
  2  5  1  0  0  0  0
  5  6  2  0  0  0  0
  5  7  1  0  0  0  0
  7  8  1  0  0  0  0
  7  9  1  0  0  0  0
  9 10  1  0  0  0  0
  9 11  1  0  0  0  0
  9 22  1  0  0  0  0
 11 12  1  0  0  0  0
 11 13  1  0  0  0  0
 11 14  1  0  0  0  0
 14 15  1  0  0  0  0
 14 16  1  0  0  0  0
 14 17  1  0  0  0  0
 17 18  1  0  0  0  0
 18 19  1  0  0  0  0
 18 20  1  0  0  0  0
 18 21  1  0  0  0  0
 22 23  2  0  0  0  0
 22 24  1  0  0  0  0
 24 25  1  0  0  0  0
 24 26  1  0  0  0  0
 26 27  1  0  0  0  0
 26 28  1  0  0  0  0
 26 29  1  0  0  0  0
M  END
$$$$

  -OEChem-02102214153D

 29 28  0     1  0  0  0  0  0999 V2000
   -2.9667   -3.5731    2.5628 H   0  0  0  0  0  0  0  0  0  0  0  0
   -3.0535   -2.6925    1.9205 C   0  0  0  0  0  0  0  0  0  0  0  0
   -3.7834   -2.0071    2.3572 H   0  0  0  0  0  0  0  0  0  0  0  0
   -3.4036   -3.0092    0.9351 H   0  0  0  0  0  0  0  0  0  0  0  0
   -1.7074   -2.0054    1.7916 C   0  0  0  0  0  0  0  0  0  0  0  0
   -0.7315   -2.4587    2.3707 O   0  0  0  0  0  0  0  0  0  0  0  0
   -1.5958   -0.8518    1.0422 N   0  0  0  0  0  0  0  0  0  0  0  0
   -2.4385   -0.4940    0.5989 H   0  0  0  0  0  0  0  0  0  0  0  0
   -0.3323   -0.1559    0.7661 C   0  0  1  0  0  0  0  0  0  0  0  0
    0.4425   -0.4990    1.4590 H   0  0  0  0  0  0  0  0  0  0  0  0
    0.1598   -0.3938   -0.6798 C   0  0  0  0  0  0  0  0  0  0  0  0
   -0.5623    0.0326   -1.3820 H   0  0  0  0  0  0  0  0  0  0  0  0
    1.0960    0.1587   -0.8098 H   0  0  0  0  0  0  0  0  0  0  0  0
    0.4292   -1.8622   -1.0585 C   0  0  0  0  0  0  0  0  0  0  0  0
    1.0329   -1.8870   -1.9710 H   0  0  0  0  0  0  0  0  0  0  0  0
    1.0153   -2.3346   -0.2629 H   0  0  0  0  0  0  0  0  0  0  0  0
   -1.0921   -2.8652   -1.3486 S   0  0  0  0  0  0  0  0  0  0  0  0
   -1.8840   -2.0449   -2.7888 C   0  0  0  0  0  0  0  0  0  0  0  0
   -1.1639   -1.9311   -3.6044 H   0  0  0  0  0  0  0  0  0  0  0  0
   -2.7243   -2.6477   -3.1457 H   0  0  0  0  0  0  0  0  0  0  0  0
   -2.2610   -1.0573   -2.5086 H   0  0  0  0  0  0  0  0  0  0  0  0
   -0.5065    1.3625    0.9730 C   0  0  0  0  0  0  0  0  0  0  0  0
   -1.4851    1.9378    0.5094 O   0  0  0  0  0  0  0  0  0  0  0  0
    0.4448    2.0899    1.6647 N   0  0  0  0  0  0  0  0  0  0  0  0
    1.2027    1.5734    2.1022 H   0  0  0  0  0  0  0  0  0  0  0  0
    0.3163    3.5166    1.9363 C   0  0  0  0  0  0  0  0  0  0  0  0
   -0.5657    3.7109    2.5557 H   0  0  0  0  0  0  0  0  0  0  0  0
    1.2004    3.8814    2.4679 H   0  0  0  0  0  0  0  0  0  0  0  0
    0.2208    4.0784    1.0010 H   0  0  0  0  0  0  0  0  0  0  0  0
  1  2  1  0  0  0  0
  2  3  1  0  0  0  0
  2  4  1  0  0  0  0
  2  5  1  0  0  0  0
  5  6  2  0  0  0  0
  5  7  1  0  0  0  0
  7  8  1  0  0  0  0
  7  9  1  0  0  0  0
  9 10  1  0  0  0  0
  9 11  1  0  0  0  0
  9 22  1  0  0  0  0
 11 12  1  0  0  0  0
 11 13  1  0  0  0  0
 11 14  1  0  0  0  0
 14 15  1  0  0  0  0
 14 16  1  0  0  0  0
 14 17  1  0  0  0  0
 17 18  1  0  0  0  0
 18 19  1  0  0  0  0
 18 20  1  0  0  0  0
 18 21  1  0  0  0  0
 22 23  2  0  0  0  0
 22 24  1  0  0  0  0
 24 25  1  0  0  0  0
 24 26  1  0  0  0  0
 26 27  1  0  0  0  0
 26 28  1  0  0  0  0
 26 29  1  0  0  0  0
M  END
$$$$

  -OEChem-02102214153D

 29 28  0     1  0  0  0  0  0999 V2000
   -3.8319   -2.8916    1.5960 H   0  0  0  0  0  0  0  0  0  0  0  0
   -3.6982   -1.9284    1.0960 C   0  0  0  0  0  0  0  0  0  0  0  0
   -4.3339   -1.1854    1.5836 H   0  0  0  0  0  0  0  0  0  0  0  0
   -4.0016   -2.0290    0.0509 H   0  0  0  0  0  0  0  0  0  0  0  0
   -2.2462   -1.4967    1.1711 C   0  0  0  0  0  0  0  0  0  0  0  0
   -1.4273   -2.2001    1.7442 O   0  0  0  0  0  0  0  0  0  0  0  0
   -1.8545   -0.3143    0.5795 N   0  0  0  0  0  0  0  0  0  0  0  0
   -2.5709    0.2388    0.1136 H   0  0  0  0  0  0  0  0  0  0  0  0
   -0.4740    0.1852    0.5214 C   0  0  1  0  0  0  0  0  0  0  0  0
    0.1449   -0.3461    1.2511 H   0  0  0  0  0  0  0  0  0  0  0  0
    0.1182   -0.0412   -0.8844 C   0  0  0  0  0  0  0  0  0  0  0  0
   -0.4478    0.5308   -1.6277 H   0  0  0  0  0  0  0  0  0  0  0  0
    1.1434    0.3426   -0.8899 H   0  0  0  0  0  0  0  0  0  0  0  0
    0.1547   -1.5218   -1.2917 C   0  0  0  0  0  0  0  0  0  0  0  0
    0.9934   -1.6883   -1.9746 H   0  0  0  0  0  0  0  0  0  0  0  0
    0.3155   -2.1513   -0.4100 H   0  0  0  0  0  0  0  0  0  0  0  0
   -1.3976   -2.0122   -2.1517 S   0  0  0  0  0  0  0  0  0  0  0  0
   -1.2725   -3.8413   -2.0705 C   0  0  0  0  0  0  0  0  0  0  0  0
   -1.2469   -4.1716   -1.0274 H   0  0  0  0  0  0  0  0  0  0  0  0
   -2.1357   -4.2995   -2.5619 H   0  0  0  0  0  0  0  0  0  0  0  0
   -0.3620   -4.1830   -2.5711 H   0  0  0  0  0  0  0  0  0  0  0  0
   -0.4170    1.6840    0.8774 C   0  0  0  0  0  0  0  0  0  0  0  0
   -1.2386    2.4606    0.4045 O   0  0  0  0  0  0  0  0  0  0  0  0
    0.5507    2.1625    1.7417 N   0  0  0  0  0  0  0  0  0  0  0  0
    1.1675    1.4832    2.1778 H   0  0  0  0  0  0  0  0  0  0  0  0
    0.6201    3.5545    2.1699 C   0  0  0  0  0  0  0  0  0  0  0  0
   -0.2886    3.8335    2.7138 H   0  0  0  0  0  0  0  0  0  0  0  0
    1.4792    3.7051    2.8307 H   0  0  0  0  0  0  0  0  0  0  0  0
    0.7306    4.2169    1.3048 H   0  0  0  0  0  0  0  0  0  0  0  0
  1  2  1  0  0  0  0
  2  3  1  0  0  0  0
  2  4  1  0  0  0  0
  2  5  1  0  0  0  0
  5  6  2  0  0  0  0
  5  7  1  0  0  0  0
  7  8  1  0  0  0  0
  7  9  1  0  0  0  0
  9 10  1  0  0  0  0
  9 11  1  0  0  0  0
  9 22  1  0  0  0  0
 11 12  1  0  0  0  0
 11 13  1  0  0  0  0
 11 14  1  0  0  0  0
 14 15  1  0  0  0  0
 14 16  1  0  0  0  0
 14 17  1  0  0  0  0
 17 18  1  0  0  0  0
 18 19  1  0  0  0  0
 18 20  1  0  0  0  0
 18 21  1  0  0  0  0
 22 23  2  0  0  0  0
 22 24  1  0  0  0  0
 24 25  1  0  0  0  0
 24 26  1  0  0  0  0
 26 27  1  0  0  0  0
 26 28  1  0  0  0  0
 26 29  1  0  0  0  0
M  END
$$$$

  -OEChem-02102214153D

 29 28  0     1  0  0  0  0  0999 V2000
   -3.8967   -2.8587    1.5687 H   0  0  0  0  0  0  0  0  0  0  0  0
   -3.7432   -1.9029    1.0600 C   0  0  0  0  0  0  0  0  0  0  0  0
   -4.3633   -1.1431    1.5418 H   0  0  0  0  0  0  0  0  0  0  0  0
   -4.0494   -2.0059    0.0159 H   0  0  0  0  0  0  0  0  0  0  0  0
   -2.2828   -1.5002    1.1311 C   0  0  0  0  0  0  0  0  0  0  0  0
   -1.4741   -2.2255    1.6902 O   0  0  0  0  0  0  0  0  0  0  0  0
   -1.8733   -0.3139    0.5604 N   0  0  0  0  0  0  0  0  0  0  0  0
   -2.5876    0.2703    0.1300 H   0  0  0  0  0  0  0  0  0  0  0  0
   -0.4869    0.1736    0.5041 C   0  0  1  0  0  0  0  0  0  0  0  0
    0.1358   -0.3816    1.2130 H   0  0  0  0  0  0  0  0  0  0  0  0
    0.0694   -0.0289   -0.9181 C   0  0  0  0  0  0  0  0  0  0  0  0
   -0.5047    0.5706   -1.6332 H   0  0  0  0  0  0  0  0  0  0  0  0
    1.0995    0.3407   -0.9408 H   0  0  0  0  0  0  0  0  0  0  0  0
    0.0727   -1.5031   -1.3519 C   0  0  0  0  0  0  0  0  0  0  0  0
    1.0237   -1.7310   -1.8431 H   0  0  0  0  0  0  0  0  0  0  0  0
   -0.0121   -2.1676   -0.4869 H   0  0  0  0  0  0  0  0  0  0  0  0
   -1.2861   -1.8240   -2.5478 S   0  0  0  0  0  0  0  0  0  0  0  0
   -1.1998   -3.6522   -2.6779 C   0  0  0  0  0  0  0  0  0  0  0  0
   -1.3786   -4.1094   -1.7000 H   0  0  0  0  0  0  0  0  0  0  0  0
   -1.9573   -4.0153   -3.3787 H   0  0  0  0  0  0  0  0  0  0  0  0
   -0.2134   -3.9610   -3.0362 H   0  0  0  0  0  0  0  0  0  0  0  0
   -0.4119    1.6654    0.8857 C   0  0  0  0  0  0  0  0  0  0  0  0
   -1.2361    2.4555    0.4403 O   0  0  0  0  0  0  0  0  0  0  0  0
    0.5646    2.1207    1.7527 N   0  0  0  0  0  0  0  0  0  0  0  0
    1.1875    1.4313    2.1636 H   0  0  0  0  0  0  0  0  0  0  0  0
    0.6465    3.5042    2.2057 C   0  0  0  0  0  0  0  0  0  0  0  0
   -0.2714    3.7915    2.7295 H   0  0  0  0  0  0  0  0  0  0  0  0
    1.4895    3.6284    2.8923 H   0  0  0  0  0  0  0  0  0  0  0  0
    0.7920    4.1782    1.3548 H   0  0  0  0  0  0  0  0  0  0  0  0
  1  2  1  0  0  0  0
  2  3  1  0  0  0  0
  2  4  1  0  0  0  0
  2  5  1  0  0  0  0
  5  6  2  0  0  0  0
  5  7  1  0  0  0  0
  7  8  1  0  0  0  0
  7  9  1  0  0  0  0
  9 10  1  0  0  0  0
  9 11  1  0  0  0  0
  9 22  1  0  0  0  0
 11 12  1  0  0  0  0
 11 13  1  0  0  0  0
 11 14  1  0  0  0  0
 14 15  1  0  0  0  0
 14 16  1  0  0  0  0
 14 17  1  0  0  0  0
 17 18  1  0  0  0  0
 18 19  1  0  0  0  0
 18 20  1  0  0  0  0
 18 21  1  0  0  0  0
 22 23  2  0  0  0  0
 22 24  1  0  0  0  0
 24 25  1  0  0  0  0
 24 26  1  0  0  0  0
 26 27  1  0  0  0  0
 26 28  1  0  0  0  0
 26 29  1  0  0  0  0
M  END
$$$$

  -OEChem-02102214153D

 29 28  0     1  0  0  0  0  0999 V2000
   -3.4211   -3.4188    1.4167 H   0  0  0  0  0  0  0  0  0  0  0  0
   -3.3720   -2.4159    0.9829 C   0  0  0  0  0  0  0  0  0  0  0  0
   -3.9777   -1.7387    1.5900 H   0  0  0  0  0  0  0  0  0  0  0  0
   -3.7816   -2.4501   -0.0293 H   0  0  0  0  0  0  0  0  0  0  0  0
   -1.9344   -1.9323    0.9485 C   0  0  0  0  0  0  0  0  0  0  0  0
   -1.0583   -2.5847    1.4927 O   0  0  0  0  0  0  0  0  0  0  0  0
   -1.6315   -0.7311    0.3423 N   0  0  0  0  0  0  0  0  0  0  0  0
   -2.4117   -0.1686    0.0058 H   0  0  0  0  0  0  0  0  0  0  0  0
   -0.3122   -0.0807    0.3576 C   0  0  1  0  0  0  0  0  0  0  0  0
    0.3065   -0.5176    1.1483 H   0  0  0  0  0  0  0  0  0  0  0  0
    0.4311   -0.2275   -0.9875 C   0  0  0  0  0  0  0  0  0  0  0  0
   -0.1502    0.2754   -1.7678 H   0  0  0  0  0  0  0  0  0  0  0  0
    1.3896    0.2973   -0.9180 H   0  0  0  0  0  0  0  0  0  0  0  0
    0.7068   -1.6796   -1.4171 C   0  0  0  0  0  0  0  0  0  0  0  0
    1.7877   -1.8206   -1.5152 H   0  0  0  0  0  0  0  0  0  0  0  0
    0.3610   -2.3876   -0.6596 H   0  0  0  0  0  0  0  0  0  0  0  0
   -0.0819   -2.0786   -3.0333 S   0  0  0  0  0  0  0  0  0  0  0  0
   -1.8781   -2.1194   -2.6653 C   0  0  0  0  0  0  0  0  0  0  0  0
   -2.2215   -1.1368   -2.3308 H   0  0  0  0  0  0  0  0  0  0  0  0
   -2.4370   -2.3954   -3.5642 H   0  0  0  0  0  0  0  0  0  0  0  0
   -2.0845   -2.8573   -1.8854 H   0  0  0  0  0  0  0  0  0  0  0  0
   -0.4775    1.4209    0.6659 C   0  0  0  0  0  0  0  0  0  0  0  0
   -1.4013    2.0488    0.1605 O   0  0  0  0  0  0  0  0  0  0  0  0
    0.3522    2.0466    1.5777 N   0  0  0  0  0  0  0  0  0  0  0  0
    1.0601    1.4801    2.0364 H   0  0  0  0  0  0  0  0  0  0  0  0
    0.1821    3.4343    1.9909 C   0  0  0  0  0  0  0  0  0  0  0  0
   -0.7837    3.5699    2.4888 H   0  0  0  0  0  0  0  0  0  0  0  0
    0.9748    3.7208    2.6885 H   0  0  0  0  0  0  0  0  0  0  0  0
    0.2284    4.1018    1.1240 H   0  0  0  0  0  0  0  0  0  0  0  0
  1  2  1  0  0  0  0
  2  3  1  0  0  0  0
  2  4  1  0  0  0  0
  2  5  1  0  0  0  0
  5  6  2  0  0  0  0
  5  7  1  0  0  0  0
  7  8  1  0  0  0  0
  7  9  1  0  0  0  0
  9 10  1  0  0  0  0
  9 11  1  0  0  0  0
  9 22  1  0  0  0  0
 11 12  1  0  0  0  0
 11 13  1  0  0  0  0
 11 14  1  0  0  0  0
 14 15  1  0  0  0  0
 14 16  1  0  0  0  0
 14 17  1  0  0  0  0
 17 18  1  0  0  0  0
 18 19  1  0  0  0  0
 18 20  1  0  0  0  0
 18 21  1  0  0  0  0
 22 23  2  0  0  0  0
 22 24  1  0  0  0  0
 24 25  1  0  0  0  0
 24 26  1  0  0  0  0
 26 27  1  0  0  0  0
 26 28  1  0  0  0  0
 26 29  1  0  0  0  0
M  END
$$$$

  -OEChem-02102214153D

 29 28  0     1  0  0  0  0  0999 V2000
   -3.4250   -3.4192    1.3755 H   0  0  0  0  0  0  0  0  0  0  0  0
   -3.3601   -2.4559    0.8617 C   0  0  0  0  0  0  0  0  0  0  0  0
   -4.0374   -1.7504    1.3490 H   0  0  0  0  0  0  0  0  0  0  0  0
   -3.6697   -2.5895   -0.1775 H   0  0  0  0  0  0  0  0  0  0  0  0
   -1.9384   -1.9301    0.9148 C   0  0  0  0  0  0  0  0  0  0  0  0
   -1.0697   -2.5729    1.4823 O   0  0  0  0  0  0  0  0  0  0  0  0
   -1.6328   -0.7201    0.3276 N   0  0  0  0  0  0  0  0  0  0  0  0
   -2.4084   -0.1686   -0.0364 H   0  0  0  0  0  0  0  0  0  0  0  0
   -0.3145   -0.0650    0.3595 C   0  0  1  0  0  0  0  0  0  0  0  0
    0.3072   -0.5140    1.1411 H   0  0  0  0  0  0  0  0  0  0  0  0
    0.4116   -0.2034   -0.9939 C   0  0  0  0  0  0  0  0  0  0  0  0
   -0.1923    0.2992   -1.7568 H   0  0  0  0  0  0  0  0  0  0  0  0
    1.3696    0.3245   -0.9491 H   0  0  0  0  0  0  0  0  0  0  0  0
    0.6741   -1.6562   -1.4283 C   0  0  0  0  0  0  0  0  0  0  0  0
    1.7312   -1.8923   -1.2726 H   0  0  0  0  0  0  0  0  0  0  0  0
    0.0977   -2.3669   -0.8326 H   0  0  0  0  0  0  0  0  0  0  0  0
    0.2492   -1.8929   -3.2011 S   0  0  0  0  0  0  0  0  0  0  0  0
   -1.5863   -1.9307   -3.1444 C   0  0  0  0  0  0  0  0  0  0  0  0
   -1.9772   -0.9866   -2.7544 H   0  0  0  0  0  0  0  0  0  0  0  0
   -1.9886   -2.0865   -4.1498 H   0  0  0  0  0  0  0  0  0  0  0  0
   -1.9268   -2.7464   -2.4999 H   0  0  0  0  0  0  0  0  0  0  0  0
   -0.4734    1.4334    0.6858 C   0  0  0  0  0  0  0  0  0  0  0  0
   -1.3786    2.0767    0.1665 O   0  0  0  0  0  0  0  0  0  0  0  0
    0.3544    2.0454    1.6088 N   0  0  0  0  0  0  0  0  0  0  0  0
    1.0567    1.4718    2.0673 H   0  0  0  0  0  0  0  0  0  0  0  0
    0.2237    3.4450    1.9955 C   0  0  0  0  0  0  0  0  0  0  0  0
   -0.7606    3.6309    2.4381 H   0  0  0  0  0  0  0  0  0  0  0  0
    0.9890    3.7073    2.7323 H   0  0  0  0  0  0  0  0  0  0  0  0
    0.3469    4.0962    1.1236 H   0  0  0  0  0  0  0  0  0  0  0  0
  1  2  1  0  0  0  0
  2  3  1  0  0  0  0
  2  4  1  0  0  0  0
  2  5  1  0  0  0  0
  5  6  2  0  0  0  0
  5  7  1  0  0  0  0
  7  8  1  0  0  0  0
  7  9  1  0  0  0  0
  9 10  1  0  0  0  0
  9 11  1  0  0  0  0
  9 22  1  0  0  0  0
 11 12  1  0  0  0  0
 11 13  1  0  0  0  0
 11 14  1  0  0  0  0
 14 15  1  0  0  0  0
 14 16  1  0  0  0  0
 14 17  1  0  0  0  0
 17 18  1  0  0  0  0
 18 19  1  0  0  0  0
 18 20  1  0  0  0  0
 18 21  1  0  0  0  0
 22 23  2  0  0  0  0
 22 24  1  0  0  0  0
 24 25  1  0  0  0  0
 24 26  1  0  0  0  0
 26 27  1  0  0  0  0
 26 28  1  0  0  0  0
 26 29  1  0  0  0  0
M  END
$$$$

  -OEChem-02102214153D

 29 28  0     1  0  0  0  0  0999 V2000
   -3.4358   -3.3962    1.4006 H   0  0  0  0  0  0  0  0  0  0  0  0
   -3.3712   -2.4369    0.8795 C   0  0  0  0  0  0  0  0  0  0  0  0
   -4.0310   -1.7214    1.3761 H   0  0  0  0  0  0  0  0  0  0  0  0
   -3.7028   -2.5734   -0.1526 H   0  0  0  0  0  0  0  0  0  0  0  0
   -1.9433   -1.9265    0.9007 C   0  0  0  0  0  0  0  0  0  0  0  0
   -1.0650   -2.5855    1.4339 O   0  0  0  0  0  0  0  0  0  0  0  0
   -1.6405   -0.7136    0.3183 N   0  0  0  0  0  0  0  0  0  0  0  0
   -2.4194   -0.1521   -0.0231 H   0  0  0  0  0  0  0  0  0  0  0  0
   -0.3206   -0.0619    0.3509 C   0  0  1  0  0  0  0  0  0  0  0  0
    0.2988   -0.5149    1.1320 H   0  0  0  0  0  0  0  0  0  0  0  0
    0.4115   -0.1970   -0.9985 C   0  0  0  0  0  0  0  0  0  0  0  0
   -0.1988    0.2992   -1.7595 H   0  0  0  0  0  0  0  0  0  0  0  0
    1.3681    0.3338   -0.9576 H   0  0  0  0  0  0  0  0  0  0  0  0
    0.6720   -1.6487   -1.4309 C   0  0  0  0  0  0  0  0  0  0  0  0
    1.6299   -1.9851   -1.0219 H   0  0  0  0  0  0  0  0  0  0  0  0
   -0.0984   -2.3236   -1.0524 H   0  0  0  0  0  0  0  0  0  0  0  0
    0.6900   -1.7743   -3.2646 S   0  0  0  0  0  0  0  0  0  0  0  0
   -1.1009   -1.7402   -3.6721 C   0  0  0  0  0  0  0  0  0  0  0  0
   -1.5537   -0.8015   -3.3409 H   0  0  0  0  0  0  0  0  0  0  0  0
   -1.2391   -1.8311   -4.7534 H   0  0  0  0  0  0  0  0  0  0  0  0
   -1.6153   -2.5719   -3.1821 H   0  0  0  0  0  0  0  0  0  0  0  0
   -0.4761    1.4347    0.6858 C   0  0  0  0  0  0  0  0  0  0  0  0
   -1.3878    2.0798    0.1801 O   0  0  0  0  0  0  0  0  0  0  0  0
    0.3551    2.0394    1.6102 N   0  0  0  0  0  0  0  0  0  0  0  0
    1.0694    1.4658    2.0500 H   0  0  0  0  0  0  0  0  0  0  0  0
    0.2224    3.4341    2.0133 C   0  0  0  0  0  0  0  0  0  0  0  0
   -0.7600    3.6111    2.4637 H   0  0  0  0  0  0  0  0  0  0  0  0
    0.9910    3.6902    2.7490 H   0  0  0  0  0  0  0  0  0  0  0  0
    0.3383    4.0957    1.1483 H   0  0  0  0  0  0  0  0  0  0  0  0
  1  2  1  0  0  0  0
  2  3  1  0  0  0  0
  2  4  1  0  0  0  0
  2  5  1  0  0  0  0
  5  6  2  0  0  0  0
  5  7  1  0  0  0  0
  7  8  1  0  0  0  0
  7  9  1  0  0  0  0
  9 10  1  0  0  0  0
  9 11  1  0  0  0  0
  9 22  1  0  0  0  0
 11 12  1  0  0  0  0
 11 13  1  0  0  0  0
 11 14  1  0  0  0  0
 14 15  1  0  0  0  0
 14 16  1  0  0  0  0
 14 17  1  0  0  0  0
 17 18  1  0  0  0  0
 18 19  1  0  0  0  0
 18 20  1  0  0  0  0
 18 21  1  0  0  0  0
 22 23  2  0  0  0  0
 22 24  1  0  0  0  0
 24 25  1  0  0  0  0
 24 26  1  0  0  0  0
 26 27  1  0  0  0  0
 26 28  1  0  0  0  0
 26 29  1  0  0  0  0
M  END
$$$$

  -OEChem-02102214153D

 29 28  0     1  0  0  0  0  0999 V2000
   -3.4266   -3.3999    1.4039 H   0  0  0  0  0  0  0  0  0  0  0  0
   -3.3691   -2.4432    0.8773 C   0  0  0  0  0  0  0  0  0  0  0  0
   -4.0210   -1.7252    1.3807 H   0  0  0  0  0  0  0  0  0  0  0  0
   -3.7173   -2.5844   -0.1487 H   0  0  0  0  0  0  0  0  0  0  0  0
   -1.9405   -1.9336    0.8745 C   0  0  0  0  0  0  0  0  0  0  0  0
   -1.0516   -2.6017    1.3776 O   0  0  0  0  0  0  0  0  0  0  0  0
   -1.6471   -0.7132    0.3026 N   0  0  0  0  0  0  0  0  0  0  0  0
   -2.4317   -0.1448   -0.0136 H   0  0  0  0  0  0  0  0  0  0  0  0
   -0.3295   -0.0579    0.3430 C   0  0  1  0  0  0  0  0  0  0  0  0
    0.2886   -0.5151    1.1227 H   0  0  0  0  0  0  0  0  0  0  0  0
    0.4048   -0.1893   -1.0041 C   0  0  0  0  0  0  0  0  0  0  0  0
   -0.1995    0.3046   -1.7712 H   0  0  0  0  0  0  0  0  0  0  0  0
    1.3642    0.3360   -0.9557 H   0  0  0  0  0  0  0  0  0  0  0  0
    0.6594   -1.6440   -1.4217 C   0  0  0  0  0  0  0  0  0  0  0  0
    1.4598   -2.0678   -0.8070 H   0  0  0  0  0  0  0  0  0  0  0  0
   -0.2318   -2.2591   -1.2735 H   0  0  0  0  0  0  0  0  0  0  0  0
    1.1222   -1.7177   -3.1990 S   0  0  0  0  0  0  0  0  0  0  0  0
   -0.5013   -1.5375   -4.0399 C   0  0  0  0  0  0  0  0  0  0  0  0
   -0.9474   -0.5657   -3.8111 H   0  0  0  0  0  0  0  0  0  0  0  0
   -0.3713   -1.6142   -5.1234 H   0  0  0  0  0  0  0  0  0  0  0  0
   -1.1859   -2.3256   -3.7131 H   0  0  0  0  0  0  0  0  0  0  0  0
   -0.4856    1.4352    0.6921 C   0  0  0  0  0  0  0  0  0  0  0  0
   -1.3944    2.0858    0.1883 O   0  0  0  0  0  0  0  0  0  0  0  0
    0.3447    2.0320    1.6225 N   0  0  0  0  0  0  0  0  0  0  0  0
    1.0599    1.4553    2.0567 H   0  0  0  0  0  0  0  0  0  0  0  0
    0.2265    3.4297    2.0198 C   0  0  0  0  0  0  0  0  0  0  0  0
   -0.7561    3.6212    2.4637 H   0  0  0  0  0  0  0  0  0  0  0  0
    0.9941    3.6793    2.7587 H   0  0  0  0  0  0  0  0  0  0  0  0
    0.3556    4.0858    1.1526 H   0  0  0  0  0  0  0  0  0  0  0  0
  1  2  1  0  0  0  0
  2  3  1  0  0  0  0
  2  4  1  0  0  0  0
  2  5  1  0  0  0  0
  5  6  2  0  0  0  0
  5  7  1  0  0  0  0
  7  8  1  0  0  0  0
  7  9  1  0  0  0  0
  9 10  1  0  0  0  0
  9 11  1  0  0  0  0
  9 22  1  0  0  0  0
 11 12  1  0  0  0  0
 11 13  1  0  0  0  0
 11 14  1  0  0  0  0
 14 15  1  0  0  0  0
 14 16  1  0  0  0  0
 14 17  1  0  0  0  0
 17 18  1  0  0  0  0
 18 19  1  0  0  0  0
 18 20  1  0  0  0  0
 18 21  1  0  0  0  0
 22 23  2  0  0  0  0
 22 24  1  0  0  0  0
 24 25  1  0  0  0  0
 24 26  1  0  0  0  0
 26 27  1  0  0  0  0
 26 28  1  0  0  0  0
 26 29  1  0  0  0  0
M  END
$$$$

  -OEChem-02102214153D

 29 28  0     1  0  0  0  0  0999 V2000
   -3.4224   -3.4183    1.4230 H   0  0  0  0  0  0  0  0  0  0  0  0
   -3.3779   -2.4561    0.9054 C   0  0  0  0  0  0  0  0  0  0  0  0
   -4.0234   -1.7455    1.4271 H   0  0  0  0  0  0  0  0  0  0  0  0
   -3.7430   -2.5882   -0.1159 H   0  0  0  0  0  0  0  0  0  0  0  0
   -1.9514   -1.9414    0.8828 C   0  0  0  0  0  0  0  0  0  0  0  0
   -1.0518   -2.6096    1.3660 O   0  0  0  0  0  0  0  0  0  0  0  0
   -1.6728   -0.7192    0.3074 N   0  0  0  0  0  0  0  0  0  0  0  0
   -2.4651   -0.1549    0.0036 H   0  0  0  0  0  0  0  0  0  0  0  0
   -0.3570   -0.0585    0.3242 C   0  0  1  0  0  0  0  0  0  0  0  0
    0.2628   -0.5173    1.1017 H   0  0  0  0  0  0  0  0  0  0  0  0
    0.3816   -0.2084   -1.0207 C   0  0  0  0  0  0  0  0  0  0  0  0
   -0.0727    0.4743   -1.7452 H   0  0  0  0  0  0  0  0  0  0  0  0
    1.4259    0.0939   -0.8925 H   0  0  0  0  0  0  0  0  0  0  0  0
    0.3359   -1.6287   -1.5988 C   0  0  0  0  0  0  0  0  0  0  0  0
    0.7943   -2.3266   -0.8902 H   0  0  0  0  0  0  0  0  0  0  0  0
   -0.6960   -1.9504   -1.7660 H   0  0  0  0  0  0  0  0  0  0  0  0
    1.2462   -1.6876   -3.1949 S   0  0  0  0  0  0  0  0  0  0  0  0
    0.0842   -0.8648   -4.3564 C   0  0  0  0  0  0  0  0  0  0  0  0
   -0.0804    0.1760   -4.0642 H   0  0  0  0  0  0  0  0  0  0  0  0
    0.4961   -0.8793   -5.3698 H   0  0  0  0  0  0  0  0  0  0  0  0
   -0.8772   -1.3867   -4.3626 H   0  0  0  0  0  0  0  0  0  0  0  0
   -0.4988    1.4353    0.6763 C   0  0  0  0  0  0  0  0  0  0  0  0
   -1.4176    2.0883    0.1944 O   0  0  0  0  0  0  0  0  0  0  0  0
    0.3529    2.0284    1.5896 N   0  0  0  0  0  0  0  0  0  0  0  0
    1.0749    1.4482    2.0079 H   0  0  0  0  0  0  0  0  0  0  0  0
    0.2297    3.4180    2.0133 C   0  0  0  0  0  0  0  0  0  0  0  0
   -0.7474    3.5921    2.4763 H   0  0  0  0  0  0  0  0  0  0  0  0
    1.0066    3.6609    2.7448 H   0  0  0  0  0  0  0  0  0  0  0  0
    0.3392    4.0914    1.1566 H   0  0  0  0  0  0  0  0  0  0  0  0
  1  2  1  0  0  0  0
  2  3  1  0  0  0  0
  2  4  1  0  0  0  0
  2  5  1  0  0  0  0
  5  6  2  0  0  0  0
  5  7  1  0  0  0  0
  7  8  1  0  0  0  0
  7  9  1  0  0  0  0
  9 10  1  0  0  0  0
  9 11  1  0  0  0  0
  9 22  1  0  0  0  0
 11 12  1  0  0  0  0
 11 13  1  0  0  0  0
 11 14  1  0  0  0  0
 14 15  1  0  0  0  0
 14 16  1  0  0  0  0
 14 17  1  0  0  0  0
 17 18  1  0  0  0  0
 18 19  1  0  0  0  0
 18 20  1  0  0  0  0
 18 21  1  0  0  0  0
 22 23  2  0  0  0  0
 22 24  1  0  0  0  0
 24 25  1  0  0  0  0
 24 26  1  0  0  0  0
 26 27  1  0  0  0  0
 26 28  1  0  0  0  0
 26 29  1  0  0  0  0
M  END
$$$$

  -OEChem-02102214153D

 29 28  0     1  0  0  0  0  0999 V2000
   -3.4287   -3.4311    1.4264 H   0  0  0  0  0  0  0  0  0  0  0  0
   -3.3866   -2.4584    0.9283 C   0  0  0  0  0  0  0  0  0  0  0  0
   -4.0223   -1.7558    1.4728 H   0  0  0  0  0  0  0  0  0  0  0  0
   -3.7650   -2.5679   -0.0909 H   0  0  0  0  0  0  0  0  0  0  0  0
   -1.9582   -1.9491    0.8982 C   0  0  0  0  0  0  0  0  0  0  0  0
   -1.0637   -2.6081    1.4029 O   0  0  0  0  0  0  0  0  0  0  0  0
   -1.6757   -0.7360    0.3055 N   0  0  0  0  0  0  0  0  0  0  0  0
   -2.4664   -0.1764   -0.0108 H   0  0  0  0  0  0  0  0  0  0  0  0
   -0.3582   -0.0777    0.3067 C   0  0  1  0  0  0  0  0  0  0  0  0
    0.2686   -0.5294    1.0829 H   0  0  0  0  0  0  0  0  0  0  0  0
    0.3591   -0.2446   -1.0477 C   0  0  0  0  0  0  0  0  0  0  0  0
   -0.0902    0.4340   -1.7801 H   0  0  0  0  0  0  0  0  0  0  0  0
    1.4075    0.0460   -0.9253 H   0  0  0  0  0  0  0  0  0  0  0  0
    0.2935   -1.6725   -1.6033 C   0  0  0  0  0  0  0  0  0  0  0  0
    0.5276   -2.3869   -0.8070 H   0  0  0  0  0  0  0  0  0  0  0  0
   -0.7129   -1.8953   -1.9707 H   0  0  0  0  0  0  0  0  0  0  0  0
    1.5196   -1.8895   -2.9564 S   0  0  0  0  0  0  0  0  0  0  0  0
    0.8635   -0.8032   -4.2847 C   0  0  0  0  0  0  0  0  0  0  0  0
    0.8885    0.2442   -3.9710 H   0  0  0  0  0  0  0  0  0  0  0  0
    1.4711   -0.9098   -5.1883 H   0  0  0  0  0  0  0  0  0  0  0  0
   -0.1686   -1.0766   -4.5227 H   0  0  0  0  0  0  0  0  0  0  0  0
   -0.4971    1.4207    0.6391 C   0  0  0  0  0  0  0  0  0  0  0  0
   -1.4173    2.0678    0.1520 O   0  0  0  0  0  0  0  0  0  0  0  0
    0.3592    2.0253    1.5405 N   0  0  0  0  0  0  0  0  0  0  0  0
    1.0701    1.4449    1.9771 H   0  0  0  0  0  0  0  0  0  0  0  0
    0.2232    3.4135    1.9652 C   0  0  0  0  0  0  0  0  0  0  0  0
   -0.7383    3.5682    2.4663 H   0  0  0  0  0  0  0  0  0  0  0  0
    1.0235    3.6758    2.6641 H   0  0  0  0  0  0  0  0  0  0  0  0
    0.2840    4.0868    1.1035 H   0  0  0  0  0  0  0  0  0  0  0  0
  1  2  1  0  0  0  0
  2  3  1  0  0  0  0
  2  4  1  0  0  0  0
  2  5  1  0  0  0  0
  5  6  2  0  0  0  0
  5  7  1  0  0  0  0
  7  8  1  0  0  0  0
  7  9  1  0  0  0  0
  9 10  1  0  0  0  0
  9 11  1  0  0  0  0
  9 22  1  0  0  0  0
 11 12  1  0  0  0  0
 11 13  1  0  0  0  0
 11 14  1  0  0  0  0
 14 15  1  0  0  0  0
 14 16  1  0  0  0  0
 14 17  1  0  0  0  0
 17 18  1  0  0  0  0
 18 19  1  0  0  0  0
 18 20  1  0  0  0  0
 18 21  1  0  0  0  0
 22 23  2  0  0  0  0
 22 24  1  0  0  0  0
 24 25  1  0  0  0  0
 24 26  1  0  0  0  0
 26 27  1  0  0  0  0
 26 28  1  0  0  0  0
 26 29  1  0  0  0  0
M  END
$$$$

  -OEChem-02102214153D

 29 28  0     1  0  0  0  0  0999 V2000
   -3.4577   -3.4200    1.4306 H   0  0  0  0  0  0  0  0  0  0  0  0
   -3.4021   -2.4583    0.9127 C   0  0  0  0  0  0  0  0  0  0  0  0
   -4.0499   -1.7439    1.4264 H   0  0  0  0  0  0  0  0  0  0  0  0
   -3.7560   -2.5895   -0.1126 H   0  0  0  0  0  0  0  0  0  0  0  0
   -1.9730   -1.9501    0.9065 C   0  0  0  0  0  0  0  0  0  0  0  0
   -1.0915   -2.6003    1.4442 O   0  0  0  0  0  0  0  0  0  0  0  0
   -1.6786   -0.7415    0.3100 N   0  0  0  0  0  0  0  0  0  0  0  0
   -2.4628   -0.1871   -0.0304 H   0  0  0  0  0  0  0  0  0  0  0  0
   -0.3578   -0.0888    0.3105 C   0  0  1  0  0  0  0  0  0  0  0  0
    0.2696   -0.5430    1.0846 H   0  0  0  0  0  0  0  0  0  0  0  0
    0.3539   -0.2526   -1.0484 C   0  0  0  0  0  0  0  0  0  0  0  0
   -0.0838    0.4348   -1.7800 H   0  0  0  0  0  0  0  0  0  0  0  0
    1.4024    0.0332   -0.9150 H   0  0  0  0  0  0  0  0  0  0  0  0
    0.2871   -1.6750   -1.6217 C   0  0  0  0  0  0  0  0  0  0  0  0
    0.2778   -2.4038   -0.8053 H   0  0  0  0  0  0  0  0  0  0  0  0
   -0.6292   -1.8105   -2.2045 H   0  0  0  0  0  0  0  0  0  0  0  0
    1.7718   -2.0227   -2.6491 S   0  0  0  0  0  0  0  0  0  0  0  0
    1.5514   -0.8712   -4.0630 C   0  0  0  0  0  0  0  0  0  0  0  0
    1.5710    0.1666   -3.7183 H   0  0  0  0  0  0  0  0  0  0  0  0
    2.3571   -1.0120   -4.7897 H   0  0  0  0  0  0  0  0  0  0  0  0
    0.5953   -1.0605   -4.5597 H   0  0  0  0  0  0  0  0  0  0  0  0
   -0.4908    1.4117    0.6361 C   0  0  0  0  0  0  0  0  0  0  0  0
   -1.4007    2.0637    0.1362 O   0  0  0  0  0  0  0  0  0  0  0  0
    0.3668    2.0160    1.5362 N   0  0  0  0  0  0  0  0  0  0  0  0
    1.0699    1.4328    1.9816 H   0  0  0  0  0  0  0  0  0  0  0  0
    0.2463    3.4111    1.9422 C   0  0  0  0  0  0  0  0  0  0  0  0
   -0.7159    3.5847    2.4357 H   0  0  0  0  0  0  0  0  0  0  0  0
    1.0462    3.6722    2.6418 H   0  0  0  0  0  0  0  0  0  0  0  0
    0.3203    4.0718    1.0719 H   0  0  0  0  0  0  0  0  0  0  0  0
  1  2  1  0  0  0  0
  2  3  1  0  0  0  0
  2  4  1  0  0  0  0
  2  5  1  0  0  0  0
  5  6  2  0  0  0  0
  5  7  1  0  0  0  0
  7  8  1  0  0  0  0
  7  9  1  0  0  0  0
  9 10  1  0  0  0  0
  9 11  1  0  0  0  0
  9 22  1  0  0  0  0
 11 12  1  0  0  0  0
 11 13  1  0  0  0  0
 11 14  1  0  0  0  0
 14 15  1  0  0  0  0
 14 16  1  0  0  0  0
 14 17  1  0  0  0  0
 17 18  1  0  0  0  0
 18 19  1  0  0  0  0
 18 20  1  0  0  0  0
 18 21  1  0  0  0  0
 22 23  2  0  0  0  0
 22 24  1  0  0  0  0
 24 25  1  0  0  0  0
 24 26  1  0  0  0  0
 26 27  1  0  0  0  0
 26 28  1  0  0  0  0
 26 29  1  0  0  0  0
M  END
$$$$

  -OEChem-02102214153D

 29 28  0     1  0  0  0  0  0999 V2000
   -3.4871   -3.4049    1.4316 H   0  0  0  0  0  0  0  0  0  0  0  0
   -3.4219   -2.4467    0.9082 C   0  0  0  0  0  0  0  0  0  0  0  0
   -4.0729   -1.7267    1.4099 H   0  0  0  0  0  0  0  0  0  0  0  0
   -3.7647   -2.5833   -0.1203 H   0  0  0  0  0  0  0  0  0  0  0  0
   -1.9907   -1.9441    0.9149 C   0  0  0  0  0  0  0  0  0  0  0  0
   -1.1192   -2.5943    1.4683 O   0  0  0  0  0  0  0  0  0  0  0  0
   -1.6843   -0.7390    0.3169 N   0  0  0  0  0  0  0  0  0  0  0  0
   -2.4623   -0.1822   -0.0333 H   0  0  0  0  0  0  0  0  0  0  0  0
   -0.3582   -0.0964    0.3159 C   0  0  1  0  0  0  0  0  0  0  0  0
    0.2666   -0.5554    1.0892 H   0  0  0  0  0  0  0  0  0  0  0  0
    0.3577   -0.2540   -1.0435 C   0  0  0  0  0  0  0  0  0  0  0  0
   -0.0774    0.4421   -1.7686 H   0  0  0  0  0  0  0  0  0  0  0  0
    1.4036    0.0374   -0.9024 H   0  0  0  0  0  0  0  0  0  0  0  0
    0.2988   -1.6667   -1.6483 C   0  0  0  0  0  0  0  0  0  0  0  0
    0.0219   -2.3974   -0.8842 H   0  0  0  0  0  0  0  0  0  0  0  0
   -0.4539   -1.7105   -2.4414 H   0  0  0  0  0  0  0  0  0  0  0  0
    1.9493   -2.1629   -2.2893 S   0  0  0  0  0  0  0  0  0  0  0  0
    2.1702   -1.0258   -3.7149 C   0  0  0  0  0  0  0  0  0  0  0  0
    2.1701    0.0148   -3.3785 H   0  0  0  0  0  0  0  0  0  0  0  0
    3.1222   -1.2314   -4.2133 H   0  0  0  0  0  0  0  0  0  0  0  0
    1.3604   -1.1629   -4.4376 H   0  0  0  0  0  0  0  0  0  0  0  0
   -0.4851    1.4053    0.6400 C   0  0  0  0  0  0  0  0  0  0  0  0
   -1.3905    2.0613    0.1368 O   0  0  0  0  0  0  0  0  0  0  0  0
    0.3743    2.0080    1.5398 N   0  0  0  0  0  0  0  0  0  0  0  0
    1.0730    1.4222    1.9888 H   0  0  0  0  0  0  0  0  0  0  0  0
    0.2574    3.4038    1.9445 C   0  0  0  0  0  0  0  0  0  0  0  0
   -0.7053    3.5814    2.4352 H   0  0  0  0  0  0  0  0  0  0  0  0
    1.0563    3.6625    2.6459 H   0  0  0  0  0  0  0  0  0  0  0  0
    0.3359    4.0637    1.0742 H   0  0  0  0  0  0  0  0  0  0  0  0
  1  2  1  0  0  0  0
  2  3  1  0  0  0  0
  2  4  1  0  0  0  0
  2  5  1  0  0  0  0
  5  6  2  0  0  0  0
  5  7  1  0  0  0  0
  7  8  1  0  0  0  0
  7  9  1  0  0  0  0
  9 10  1  0  0  0  0
  9 11  1  0  0  0  0
  9 22  1  0  0  0  0
 11 12  1  0  0  0  0
 11 13  1  0  0  0  0
 11 14  1  0  0  0  0
 14 15  1  0  0  0  0
 14 16  1  0  0  0  0
 14 17  1  0  0  0  0
 17 18  1  0  0  0  0
 18 19  1  0  0  0  0
 18 20  1  0  0  0  0
 18 21  1  0  0  0  0
 22 23  2  0  0  0  0
 22 24  1  0  0  0  0
 24 25  1  0  0  0  0
 24 26  1  0  0  0  0
 26 27  1  0  0  0  0
 26 28  1  0  0  0  0
 26 29  1  0  0  0  0
M  END
$$$$

  -OEChem-02102214153D

 29 28  0     1  0  0  0  0  0999 V2000
   -3.5087   -3.3902    1.4246 H   0  0  0  0  0  0  0  0  0  0  0  0
   -3.4361   -2.4343    0.8981 C   0  0  0  0  0  0  0  0  0  0  0  0
   -4.0880   -1.7098    1.3923 H   0  0  0  0  0  0  0  0  0  0  0  0
   -3.7716   -2.5736   -0.1324 H   0  0  0  0  0  0  0  0  0  0  0  0
   -2.0032   -1.9368    0.9127 C   0  0  0  0  0  0  0  0  0  0  0  0
   -1.1345   -2.5938    1.4620 O   0  0  0  0  0  0  0  0  0  0  0  0
   -1.6923   -0.7297    0.3211 N   0  0  0  0  0  0  0  0  0  0  0  0
   -2.4688   -0.1690   -0.0263 H   0  0  0  0  0  0  0  0  0  0  0  0
   -0.3648   -0.0897    0.3251 C   0  0  1  0  0  0  0  0  0  0  0  0
    0.2543   -0.5525    1.1009 H   0  0  0  0  0  0  0  0  0  0  0  0
    0.3697   -0.2363   -1.0272 C   0  0  0  0  0  0  0  0  0  0  0  0
   -0.0820    0.4570   -1.7447 H   0  0  0  0  0  0  0  0  0  0  0  0
    1.4080    0.0807   -0.8875 H   0  0  0  0  0  0  0  0  0  0  0  0
    0.3347   -1.6393   -1.6616 C   0  0  0  0  0  0  0  0  0  0  0  0
   -0.2128   -2.3453   -1.0345 H   0  0  0  0  0  0  0  0  0  0  0  0
   -0.1713   -1.6000   -2.6312 H   0  0  0  0  0  0  0  0  0  0  0  0
    2.0426   -2.2882   -1.8717 S   0  0  0  0  0  0  0  0  0  0  0  0
    2.6741   -1.2752   -3.2680 C   0  0  0  0  0  0  0  0  0  0  0  0
    2.6546   -0.2122   -3.0111 H   0  0  0  0  0  0  0  0  0  0  0  0
    3.7048   -1.5597   -3.4999 H   0  0  0  0  0  0  0  0  0  0  0  0
    2.0589   -1.4336   -4.1587 H   0  0  0  0  0  0  0  0  0  0  0  0
   -0.4919    1.4102    0.6562 C   0  0  0  0  0  0  0  0  0  0  0  0
   -1.3962    2.0702    0.1560 O   0  0  0  0  0  0  0  0  0  0  0  0
    0.3674    2.0053    1.5608 N   0  0  0  0  0  0  0  0  0  0  0  0
    1.0647    1.4148    2.0059 H   0  0  0  0  0  0  0  0  0  0  0  0
    0.2527    3.3979    1.9762 C   0  0  0  0  0  0  0  0  0  0  0  0
   -0.7180    3.5780    2.4499 H   0  0  0  0  0  0  0  0  0  0  0  0
    1.0394    3.6439    2.6959 H   0  0  0  0  0  0  0  0  0  0  0  0
    0.3535    4.0648    1.1134 H   0  0  0  0  0  0  0  0  0  0  0  0
  1  2  1  0  0  0  0
  2  3  1  0  0  0  0
  2  4  1  0  0  0  0
  2  5  1  0  0  0  0
  5  6  2  0  0  0  0
  5  7  1  0  0  0  0
  7  8  1  0  0  0  0
  7  9  1  0  0  0  0
  9 10  1  0  0  0  0
  9 11  1  0  0  0  0
  9 22  1  0  0  0  0
 11 12  1  0  0  0  0
 11 13  1  0  0  0  0
 11 14  1  0  0  0  0
 14 15  1  0  0  0  0
 14 16  1  0  0  0  0
 14 17  1  0  0  0  0
 17 18  1  0  0  0  0
 18 19  1  0  0  0  0
 18 20  1  0  0  0  0
 18 21  1  0  0  0  0
 22 23  2  0  0  0  0
 22 24  1  0  0  0  0
 24 25  1  0  0  0  0
 24 26  1  0  0  0  0
 26 27  1  0  0  0  0
 26 28  1  0  0  0  0
 26 29  1  0  0  0  0
M  END
$$$$

  -OEChem-02102214153D

 29 28  0     1  0  0  0  0  0999 V2000
   -3.5070   -3.3928    1.4058 H   0  0  0  0  0  0  0  0  0  0  0  0
   -3.4368   -2.4354    0.8816 C   0  0  0  0  0  0  0  0  0  0  0  0
   -4.0912   -1.7139    1.3769 H   0  0  0  0  0  0  0  0  0  0  0  0
   -3.7712   -2.5728   -0.1496 H   0  0  0  0  0  0  0  0  0  0  0  0
   -2.0052   -1.9341    0.8998 C   0  0  0  0  0  0  0  0  0  0  0  0
   -1.1355   -2.5933    1.4441 O   0  0  0  0  0  0  0  0  0  0  0  0
   -1.6987   -0.7208    0.3183 N   0  0  0  0  0  0  0  0  0  0  0  0
   -2.4765   -0.1623   -0.0294 H   0  0  0  0  0  0  0  0  0  0  0  0
   -0.3740   -0.0757    0.3313 C   0  0  1  0  0  0  0  0  0  0  0  0
    0.2415   -0.5418    1.1083 H   0  0  0  0  0  0  0  0  0  0  0  0
    0.3774   -0.2109   -1.0133 C   0  0  0  0  0  0  0  0  0  0  0  0
   -0.0948    0.4738   -1.7259 H   0  0  0  0  0  0  0  0  0  0  0  0
    1.4087    0.1299   -0.8807 H   0  0  0  0  0  0  0  0  0  0  0  0
    0.3630   -1.6079   -1.6611 C   0  0  0  0  0  0  0  0  0  0  0  0
   -0.4121   -2.2479   -1.2360 H   0  0  0  0  0  0  0  0  0  0  0  0
    0.1522   -1.5130   -2.7308 H   0  0  0  0  0  0  0  0  0  0  0  0
    1.9972   -2.4233   -1.4471 S   0  0  0  0  0  0  0  0  0  0  0  0
    3.0308   -1.5701   -2.7039 C   0  0  0  0  0  0  0  0  0  0  0  0
    3.0745   -0.4962   -2.5019 H   0  0  0  0  0  0  0  0  0  0  0  0
    4.0490   -1.9701   -2.6846 H   0  0  0  0  0  0  0  0  0  0  0  0
    2.6140   -1.7236   -3.7037 H   0  0  0  0  0  0  0  0  0  0  0  0
   -0.5050    1.4212    0.6735 C   0  0  0  0  0  0  0  0  0  0  0  0
   -1.4053    2.0851    0.1715 O   0  0  0  0  0  0  0  0  0  0  0  0
    0.3510    2.0106    1.5850 N   0  0  0  0  0  0  0  0  0  0  0  0
    1.0459    1.4169    2.0298 H   0  0  0  0  0  0  0  0  0  0  0  0
    0.2389    3.4026    2.0030 C   0  0  0  0  0  0  0  0  0  0  0  0
   -0.7347    3.5856    2.4696 H   0  0  0  0  0  0  0  0  0  0  0  0
    1.0211    3.6436    2.7293 H   0  0  0  0  0  0  0  0  0  0  0  0
    0.3488    4.0711    1.1427 H   0  0  0  0  0  0  0  0  0  0  0  0
  1  2  1  0  0  0  0
  2  3  1  0  0  0  0
  2  4  1  0  0  0  0
  2  5  1  0  0  0  0
  5  6  2  0  0  0  0
  5  7  1  0  0  0  0
  7  8  1  0  0  0  0
  7  9  1  0  0  0  0
  9 10  1  0  0  0  0
  9 11  1  0  0  0  0
  9 22  1  0  0  0  0
 11 12  1  0  0  0  0
 11 13  1  0  0  0  0
 11 14  1  0  0  0  0
 14 15  1  0  0  0  0
 14 16  1  0  0  0  0
 14 17  1  0  0  0  0
 17 18  1  0  0  0  0
 18 19  1  0  0  0  0
 18 20  1  0  0  0  0
 18 21  1  0  0  0  0
 22 23  2  0  0  0  0
 22 24  1  0  0  0  0
 24 25  1  0  0  0  0
 24 26  1  0  0  0  0
 26 27  1  0  0  0  0
 26 28  1  0  0  0  0
 26 29  1  0  0  0  0
M  END
$$$$

  -OEChem-02102214153D

 29 28  0     1  0  0  0  0  0999 V2000
   -3.4808   -3.4122    1.3647 H   0  0  0  0  0  0  0  0  0  0  0  0
   -3.4159   -2.4502    0.8485 C   0  0  0  0  0  0  0  0  0  0  0  0
   -4.0894   -1.7420    1.3374 H   0  0  0  0  0  0  0  0  0  0  0  0
   -3.7305   -2.5859   -0.1891 H   0  0  0  0  0  0  0  0  0  0  0  0
   -1.9924   -1.9276    0.8937 C   0  0  0  0  0  0  0  0  0  0  0  0
   -1.1253   -2.5722    1.4589 O   0  0  0  0  0  0  0  0  0  0  0  0
   -1.6941   -0.7100    0.3170 N   0  0  0  0  0  0  0  0  0  0  0  0
   -2.4734   -0.1610   -0.0418 H   0  0  0  0  0  0  0  0  0  0  0  0
   -0.3737   -0.0572    0.3349 C   0  0  1  0  0  0  0  0  0  0  0  0
    0.2435   -0.5227    1.1106 H   0  0  0  0  0  0  0  0  0  0  0  0
    0.3790   -0.1869   -1.0095 C   0  0  0  0  0  0  0  0  0  0  0  0
   -0.1008    0.4926   -1.7222 H   0  0  0  0  0  0  0  0  0  0  0  0
    1.4095    0.1578   -0.8835 H   0  0  0  0  0  0  0  0  0  0  0  0
    0.3665   -1.5843   -1.6511 C   0  0  0  0  0  0  0  0  0  0  0  0
   -0.5603   -2.1218   -1.4394 H   0  0  0  0  0  0  0  0  0  0  0  0
    0.4352   -1.4828   -2.7385 H   0  0  0  0  0  0  0  0  0  0  0  0
    1.8073   -2.5646   -1.0640 S   0  0  0  0  0  0  0  0  0  0  0  0
    3.1974   -1.8792   -2.0509 C   0  0  0  0  0  0  0  0  0  0  0  0
    3.3385   -0.8174   -1.8317 H   0  0  0  0  0  0  0  0  0  0  0  0
    4.1235   -2.4100   -1.8109 H   0  0  0  0  0  0  0  0  0  0  0  0
    2.9960   -1.9951   -3.1198 H   0  0  0  0  0  0  0  0  0  0  0  0
   -0.5123    1.4374    0.6826 C   0  0  0  0  0  0  0  0  0  0  0  0
   -1.4093    2.1019    0.1755 O   0  0  0  0  0  0  0  0  0  0  0  0
    0.3397    2.0269    1.5978 N   0  0  0  0  0  0  0  0  0  0  0  0
    1.0277    1.4312    2.0506 H   0  0  0  0  0  0  0  0  0  0  0  0
    0.2234    3.4180    2.0176 C   0  0  0  0  0  0  0  0  0  0  0  0
   -0.7510    3.5974    2.4840 H   0  0  0  0  0  0  0  0  0  0  0  0
    1.0048    3.6607    2.7442 H   0  0  0  0  0  0  0  0  0  0  0  0
    0.3315    4.0878    1.1580 H   0  0  0  0  0  0  0  0  0  0  0  0
  1  2  1  0  0  0  0
  2  3  1  0  0  0  0
  2  4  1  0  0  0  0
  2  5  1  0  0  0  0
  5  6  2  0  0  0  0
  5  7  1  0  0  0  0
  7  8  1  0  0  0  0
  7  9  1  0  0  0  0
  9 10  1  0  0  0  0
  9 11  1  0  0  0  0
  9 22  1  0  0  0  0
 11 12  1  0  0  0  0
 11 13  1  0  0  0  0
 11 14  1  0  0  0  0
 14 15  1  0  0  0  0
 14 16  1  0  0  0  0
 14 17  1  0  0  0  0
 17 18  1  0  0  0  0
 18 19  1  0  0  0  0
 18 20  1  0  0  0  0
 18 21  1  0  0  0  0
 22 23  2  0  0  0  0
 22 24  1  0  0  0  0
 24 25  1  0  0  0  0
 24 26  1  0  0  0  0
 26 27  1  0  0  0  0
 26 28  1  0  0  0  0
 26 29  1  0  0  0  0
M  END
$$$$

  -OEChem-02102214153D

 29 28  0     1  0  0  0  0  0999 V2000
   -3.4460   -3.4476    1.3113 H   0  0  0  0  0  0  0  0  0  0  0  0
   -3.3832   -2.4829    0.8002 C   0  0  0  0  0  0  0  0  0  0  0  0
   -4.0982   -1.7947    1.2572 H   0  0  0  0  0  0  0  0  0  0  0  0
   -3.6439   -2.6248   -0.2512 H   0  0  0  0  0  0  0  0  0  0  0  0
   -1.9783   -1.9226    0.9144 C   0  0  0  0  0  0  0  0  0  0  0  0
   -1.1348   -2.5266    1.5549 O   0  0  0  0  0  0  0  0  0  0  0  0
   -1.6812   -0.7069    0.3331 N   0  0  0  0  0  0  0  0  0  0  0  0
   -2.4516   -0.1866   -0.0821 H   0  0  0  0  0  0  0  0  0  0  0  0
   -0.3636   -0.0498    0.3489 C   0  0  1  0  0  0  0  0  0  0  0  0
    0.2615   -0.5133    1.1192 H   0  0  0  0  0  0  0  0  0  0  0  0
    0.3677   -0.1776   -1.0081 C   0  0  0  0  0  0  0  0  0  0  0  0
   -0.1133    0.5063   -1.7158 H   0  0  0  0  0  0  0  0  0  0  0  0
    1.4028    0.1558   -0.8926 H   0  0  0  0  0  0  0  0  0  0  0  0
    0.3410   -1.5744   -1.6469 C   0  0  0  0  0  0  0  0  0  0  0  0
   -0.6695   -1.9914   -1.6354 H   0  0  0  0  0  0  0  0  0  0  0  0
    0.6446   -1.4978   -2.6954 H   0  0  0  0  0  0  0  0  0  0  0  0
    1.4965   -2.7135   -0.7816 S   0  0  0  0  0  0  0  0  0  0  0  0
    3.1498   -2.1446   -1.3460 C   0  0  0  0  0  0  0  0  0  0  0  0
    3.3499   -1.1296   -0.9922 H   0  0  0  0  0  0  0  0  0  0  0  0
    3.9262   -2.8080   -0.9533 H   0  0  0  0  0  0  0  0  0  0  0  0
    3.2014   -2.1553   -2.4387 H   0  0  0  0  0  0  0  0  0  0  0  0
   -0.5047    1.4464    0.6901 C   0  0  0  0  0  0  0  0  0  0  0  0
   -1.3894    2.1126    0.1640 O   0  0  0  0  0  0  0  0  0  0  0  0
    0.3461    2.0416    1.6029 N   0  0  0  0  0  0  0  0  0  0  0  0
    1.0173    1.4436    2.0773 H   0  0  0  0  0  0  0  0  0  0  0  0
    0.2389    3.4394    2.0025 C   0  0  0  0  0  0  0  0  0  0  0  0
   -0.7359    3.6328    2.4626 H   0  0  0  0  0  0  0  0  0  0  0  0
    1.0196    3.6862    2.7284 H   0  0  0  0  0  0  0  0  0  0  0  0
    0.3556    4.0962    1.1339 H   0  0  0  0  0  0  0  0  0  0  0  0
  1  2  1  0  0  0  0
  2  3  1  0  0  0  0
  2  4  1  0  0  0  0
  2  5  1  0  0  0  0
  5  6  2  0  0  0  0
  5  7  1  0  0  0  0
  7  8  1  0  0  0  0
  7  9  1  0  0  0  0
  9 10  1  0  0  0  0
  9 11  1  0  0  0  0
  9 22  1  0  0  0  0
 11 12  1  0  0  0  0
 11 13  1  0  0  0  0
 11 14  1  0  0  0  0
 14 15  1  0  0  0  0
 14 16  1  0  0  0  0
 14 17  1  0  0  0  0
 17 18  1  0  0  0  0
 18 19  1  0  0  0  0
 18 20  1  0  0  0  0
 18 21  1  0  0  0  0
 22 23  2  0  0  0  0
 22 24  1  0  0  0  0
 24 25  1  0  0  0  0
 24 26  1  0  0  0  0
 26 27  1  0  0  0  0
 26 28  1  0  0  0  0
 26 29  1  0  0  0  0
M  END
$$$$

  -OEChem-02102214153D

 29 28  0     1  0  0  0  0  0999 V2000
   -3.4023   -3.4654    1.3168 H   0  0  0  0  0  0  0  0  0  0  0  0
   -3.3270   -2.5267    0.7607 C   0  0  0  0  0  0  0  0  0  0  0  0
   -4.0996   -1.8417    1.1180 H   0  0  0  0  0  0  0  0  0  0  0  0
   -3.4920   -2.7321   -0.2996 H   0  0  0  0  0  0  0  0  0  0  0  0
   -1.9552   -1.9109    0.9598 C   0  0  0  0  0  0  0  0  0  0  0  0
   -1.1552   -2.4434    1.7110 O   0  0  0  0  0  0  0  0  0  0  0  0
   -1.6571   -0.7041    0.3608 N   0  0  0  0  0  0  0  0  0  0  0  0
   -2.4054   -0.2365   -0.1458 H   0  0  0  0  0  0  0  0  0  0  0  0
   -0.3345   -0.0570    0.3538 C   0  0  1  0  0  0  0  0  0  0  0  0
    0.3089   -0.5223    1.1076 H   0  0  0  0  0  0  0  0  0  0  0  0
    0.3475   -0.1802   -1.0312 C   0  0  0  0  0  0  0  0  0  0  0  0
   -0.1343    0.5232   -1.7191 H   0  0  0  0  0  0  0  0  0  0  0  0
    1.3921    0.1301   -0.9369 H   0  0  0  0  0  0  0  0  0  0  0  0
    0.2901   -1.5645   -1.6953 C   0  0  0  0  0  0  0  0  0  0  0  0
   -0.7520   -1.8454   -1.8740 H   0  0  0  0  0  0  0  0  0  0  0  0
    0.7849   -1.5149   -2.6702 H   0  0  0  0  0  0  0  0  0  0  0  0
    1.0970   -2.8735   -0.6866 S   0  0  0  0  0  0  0  0  0  0  0  0
    2.8534   -2.3445   -0.6068 C   0  0  0  0  0  0  0  0  0  0  0  0
    2.9475   -1.4109   -0.0456 H   0  0  0  0  0  0  0  0  0  0  0  0
    3.4500   -3.1120   -0.1049 H   0  0  0  0  0  0  0  0  0  0  0  0
    3.2510   -2.1952   -1.6149 H   0  0  0  0  0  0  0  0  0  0  0  0
   -0.4644    1.4440    0.6816 C   0  0  0  0  0  0  0  0  0  0  0  0
   -1.3393    2.1154    0.1454 O   0  0  0  0  0  0  0  0  0  0  0  0
    0.4000    2.0432    1.5791 N   0  0  0  0  0  0  0  0  0  0  0  0
    1.0465    1.4388    2.0787 H   0  0  0  0  0  0  0  0  0  0  0  0
    0.2834    3.4383    1.9861 C   0  0  0  0  0  0  0  0  0  0  0  0
   -0.6678    3.6085    2.5015 H   0  0  0  0  0  0  0  0  0  0  0  0
    1.0988    3.7039    2.6658 H   0  0  0  0  0  0  0  0  0  0  0  0
    0.3344    4.0982    1.1136 H   0  0  0  0  0  0  0  0  0  0  0  0
  1  2  1  0  0  0  0
  2  3  1  0  0  0  0
  2  4  1  0  0  0  0
  2  5  1  0  0  0  0
  5  6  2  0  0  0  0
  5  7  1  0  0  0  0
  7  8  1  0  0  0  0
  7  9  1  0  0  0  0
  9 10  1  0  0  0  0
  9 11  1  0  0  0  0
  9 22  1  0  0  0  0
 11 12  1  0  0  0  0
 11 13  1  0  0  0  0
 11 14  1  0  0  0  0
 14 15  1  0  0  0  0
 14 16  1  0  0  0  0
 14 17  1  0  0  0  0
 17 18  1  0  0  0  0
 18 19  1  0  0  0  0
 18 20  1  0  0  0  0
 18 21  1  0  0  0  0
 22 23  2  0  0  0  0
 22 24  1  0  0  0  0
 24 25  1  0  0  0  0
 24 26  1  0  0  0  0
 26 27  1  0  0  0  0
 26 28  1  0  0  0  0
 26 29  1  0  0  0  0
M  END
$$$$

  -OEChem-02102214153D

 29 28  0     1  0  0  0  0  0999 V2000
   -3.3528   -3.5015    1.3026 H   0  0  0  0  0  0  0  0  0  0  0  0
   -3.2865   -2.5601    0.7503 C   0  0  0  0  0  0  0  0  0  0  0  0
   -4.1039   -1.9070    1.0650 H   0  0  0  0  0  0  0  0  0  0  0  0
   -3.3858   -2.7714   -0.3170 H   0  0  0  0  0  0  0  0  0  0  0  0
   -1.9534   -1.8901    1.0218 C   0  0  0  0  0  0  0  0  0  0  0  0
   -1.2007   -2.3519    1.8650 O   0  0  0  0  0  0  0  0  0  0  0  0
   -1.6513   -0.6950    0.4016 N   0  0  0  0  0  0  0  0  0  0  0  0
   -2.3700   -0.2841   -0.1892 H   0  0  0  0  0  0  0  0  0  0  0  0
   -0.3266   -0.0530    0.3917 C   0  0  1  0  0  0  0  0  0  0  0  0
    0.3169   -0.5106    1.1498 H   0  0  0  0  0  0  0  0  0  0  0  0
    0.3515   -0.1718   -0.9989 C   0  0  0  0  0  0  0  0  0  0  0  0
   -0.1092    0.5526   -1.6794 H   0  0  0  0  0  0  0  0  0  0  0  0
    1.3991    0.1221   -0.8815 H   0  0  0  0  0  0  0  0  0  0  0  0
    0.3158   -1.5334   -1.7147 C   0  0  0  0  0  0  0  0  0  0  0  0
   -0.6898   -1.6874   -2.1183 H   0  0  0  0  0  0  0  0  0  0  0  0
    1.0069   -1.5086   -2.5631 H   0  0  0  0  0  0  0  0  0  0  0  0
    0.7204   -2.9784   -0.6535 S   0  0  0  0  0  0  0  0  0  0  0  0
    2.4171   -2.6071   -0.0582 C   0  0  0  0  0  0  0  0  0  0  0  0
    2.4200   -1.6992    0.5509 H   0  0  0  0  0  0  0  0  0  0  0  0
    2.7858   -3.4359    0.5536 H   0  0  0  0  0  0  0  0  0  0  0  0
    3.0946   -2.4679   -0.9056 H   0  0  0  0  0  0  0  0  0  0  0  0
   -0.4605    1.4538    0.6944 C   0  0  0  0  0  0  0  0  0  0  0  0
   -1.3209    2.1221    0.1311 O   0  0  0  0  0  0  0  0  0  0  0  0
    0.3982    2.0661    1.5884 N   0  0  0  0  0  0  0  0  0  0  0  0
    1.0290    1.4674    2.1139 H   0  0  0  0  0  0  0  0  0  0  0  0
    0.2831    3.4693    1.9663 C   0  0  0  0  0  0  0  0  0  0  0  0
   -0.6829    3.6583    2.4465 H   0  0  0  0  0  0  0  0  0  0  0  0
    1.0779    3.7393    2.6683 H   0  0  0  0  0  0  0  0  0  0  0  0
    0.3701    4.1123    1.0840 H   0  0  0  0  0  0  0  0  0  0  0  0
  1  2  1  0  0  0  0
  2  3  1  0  0  0  0
  2  4  1  0  0  0  0
  2  5  1  0  0  0  0
  5  6  2  0  0  0  0
  5  7  1  0  0  0  0
  7  8  1  0  0  0  0
  7  9  1  0  0  0  0
  9 10  1  0  0  0  0
  9 11  1  0  0  0  0
  9 22  1  0  0  0  0
 11 12  1  0  0  0  0
 11 13  1  0  0  0  0
 11 14  1  0  0  0  0
 14 15  1  0  0  0  0
 14 16  1  0  0  0  0
 14 17  1  0  0  0  0
 17 18  1  0  0  0  0
 18 19  1  0  0  0  0
 18 20  1  0  0  0  0
 18 21  1  0  0  0  0
 22 23  2  0  0  0  0
 22 24  1  0  0  0  0
 24 25  1  0  0  0  0
 24 26  1  0  0  0  0
 26 27  1  0  0  0  0
 26 28  1  0  0  0  0
 26 29  1  0  0  0  0
M  END
$$$$

  -OEChem-02102214153D

 29 28  0     1  0  0  0  0  0999 V2000
   -3.3835   -3.4565    1.3853 H   0  0  0  0  0  0  0  0  0  0  0  0
   -3.3029   -2.5372    0.7986 C   0  0  0  0  0  0  0  0  0  0  0  0
   -4.1356   -1.8784    1.0562 H   0  0  0  0  0  0  0  0  0  0  0  0
   -3.3605   -2.7920   -0.2624 H   0  0  0  0  0  0  0  0  0  0  0  0
   -1.9851   -1.8459    1.0913 C   0  0  0  0  0  0  0  0  0  0  0  0
   -1.2540   -2.2715    1.9734 O   0  0  0  0  0  0  0  0  0  0  0  0
   -1.6699   -0.6695    0.4419 N   0  0  0  0  0  0  0  0  0  0  0  0
   -2.3641   -0.2951   -0.2000 H   0  0  0  0  0  0  0  0  0  0  0  0
   -0.3429   -0.0327    0.4401 C   0  0  1  0  0  0  0  0  0  0  0  0
    0.2818   -0.4676    1.2256 H   0  0  0  0  0  0  0  0  0  0  0  0
    0.3812   -0.1631   -0.9302 C   0  0  0  0  0  0  0  0  0  0  0  0
   -0.0450    0.5706   -1.6234 H   0  0  0  0  0  0  0  0  0  0  0  0
    1.4217    0.1314   -0.7603 H   0  0  0  0  0  0  0  0  0  0  0  0
    0.4098   -1.5063   -1.6906 C   0  0  0  0  0  0  0  0  0  0  0  0
   -0.4697   -1.5350   -2.3416 H   0  0  0  0  0  0  0  0  0  0  0  0
    1.2908   -1.5258   -2.3400 H   0  0  0  0  0  0  0  0  0  0  0  0
    0.3744   -3.0477   -0.6929 S   0  0  0  0  0  0  0  0  0  0  0  0
    1.9277   -2.9502    0.2808 C   0  0  0  0  0  0  0  0  0  0  0  0
    1.9116   -2.0824    0.9447 H   0  0  0  0  0  0  0  0  0  0  0  0
    2.0399   -3.8506    0.8921 H   0  0  0  0  0  0  0  0  0  0  0  0
    2.7899   -2.8691   -0.3872 H   0  0  0  0  0  0  0  0  0  0  0  0
   -0.4898    1.4819    0.6996 C   0  0  0  0  0  0  0  0  0  0  0  0
   -1.3383    2.1344    0.1007 O   0  0  0  0  0  0  0  0  0  0  0  0
    0.3487    2.1195    1.5953 N   0  0  0  0  0  0  0  0  0  0  0  0
    0.9681    1.5355    2.1499 H   0  0  0  0  0  0  0  0  0  0  0  0
    0.2248    3.5321    1.9337 C   0  0  0  0  0  0  0  0  0  0  0  0
   -0.7487    3.7319    2.3935 H   0  0  0  0  0  0  0  0  0  0  0  0
    1.0083    3.8219    2.6404 H   0  0  0  0  0  0  0  0  0  0  0  0
    0.3245    4.1518    1.0363 H   0  0  0  0  0  0  0  0  0  0  0  0
  1  2  1  0  0  0  0
  2  3  1  0  0  0  0
  2  4  1  0  0  0  0
  2  5  1  0  0  0  0
  5  6  2  0  0  0  0
  5  7  1  0  0  0  0
  7  8  1  0  0  0  0
  7  9  1  0  0  0  0
  9 10  1  0  0  0  0
  9 11  1  0  0  0  0
  9 22  1  0  0  0  0
 11 12  1  0  0  0  0
 11 13  1  0  0  0  0
 11 14  1  0  0  0  0
 14 15  1  0  0  0  0
 14 16  1  0  0  0  0
 14 17  1  0  0  0  0
 17 18  1  0  0  0  0
 18 19  1  0  0  0  0
 18 20  1  0  0  0  0
 18 21  1  0  0  0  0
 22 23  2  0  0  0  0
 22 24  1  0  0  0  0
 24 25  1  0  0  0  0
 24 26  1  0  0  0  0
 26 27  1  0  0  0  0
 26 28  1  0  0  0  0
 26 29  1  0  0  0  0
M  END
$$$$

  -OEChem-02102214153D

 29 28  0     1  0  0  0  0  0999 V2000
   -3.4451   -3.3943    1.4474 H   0  0  0  0  0  0  0  0  0  0  0  0
   -3.3667   -2.4668    0.8735 C   0  0  0  0  0  0  0  0  0  0  0  0
   -4.1902   -1.8057    1.1535 H   0  0  0  0  0  0  0  0  0  0  0  0
   -3.4429   -2.7054   -0.1901 H   0  0  0  0  0  0  0  0  0  0  0  0
   -2.0398   -1.7891    1.1564 C   0  0  0  0  0  0  0  0  0  0  0  0
   -1.3187   -2.2064    2.0513 O   0  0  0  0  0  0  0  0  0  0  0  0
   -1.7010   -0.6351    0.4792 N   0  0  0  0  0  0  0  0  0  0  0  0
   -2.3790   -0.2755   -0.1882 H   0  0  0  0  0  0  0  0  0  0  0  0
   -0.3697   -0.0080    0.4842 C   0  0  1  0  0  0  0  0  0  0  0  0
    0.2318   -0.4199    1.2997 H   0  0  0  0  0  0  0  0  0  0  0  0
    0.4107   -0.1652   -0.8554 C   0  0  0  0  0  0  0  0  0  0  0  0
    0.0053    0.5605   -1.5696 H   0  0  0  0  0  0  0  0  0  0  0  0
    1.4388    0.1472   -0.6450 H   0  0  0  0  0  0  0  0  0  0  0  0
    0.5046   -1.5020   -1.6319 C   0  0  0  0  0  0  0  0  0  0  0  0
   -0.1575   -1.4168   -2.4997 H   0  0  0  0  0  0  0  0  0  0  0  0
    1.5223   -1.6065   -2.0207 H   0  0  0  0  0  0  0  0  0  0  0  0
    0.0457   -3.0687   -0.7925 S   0  0  0  0  0  0  0  0  0  0  0  0
    1.3860   -3.2757    0.4457 C   0  0  0  0  0  0  0  0  0  0  0  0
    1.3921   -2.4382    1.1478 H   0  0  0  0  0  0  0  0  0  0  0  0
    1.2304   -4.1987    1.0118 H   0  0  0  0  0  0  0  0  0  0  0  0
    2.3585   -3.3281   -0.0517 H   0  0  0  0  0  0  0  0  0  0  0  0
   -0.5226    1.5144    0.6966 C   0  0  0  0  0  0  0  0  0  0  0  0
   -1.3599    2.1497    0.0642 O   0  0  0  0  0  0  0  0  0  0  0  0
    0.2977    2.1779    1.5904 N   0  0  0  0  0  0  0  0  0  0  0  0
    0.9098    1.6109    2.1702 H   0  0  0  0  0  0  0  0  0  0  0  0
    0.1679    3.5994    1.8873 C   0  0  0  0  0  0  0  0  0  0  0  0
   -0.8146    3.8118    2.3217 H   0  0  0  0  0  0  0  0  0  0  0  0
    0.9370    3.9082    2.6017 H   0  0  0  0  0  0  0  0  0  0  0  0
    0.2865    4.1945    0.9757 H   0  0  0  0  0  0  0  0  0  0  0  0
  1  2  1  0  0  0  0
  2  3  1  0  0  0  0
  2  4  1  0  0  0  0
  2  5  1  0  0  0  0
  5  6  2  0  0  0  0
  5  7  1  0  0  0  0
  7  8  1  0  0  0  0
  7  9  1  0  0  0  0
  9 10  1  0  0  0  0
  9 11  1  0  0  0  0
  9 22  1  0  0  0  0
 11 12  1  0  0  0  0
 11 13  1  0  0  0  0
 11 14  1  0  0  0  0
 14 15  1  0  0  0  0
 14 16  1  0  0  0  0
 14 17  1  0  0  0  0
 17 18  1  0  0  0  0
 18 19  1  0  0  0  0
 18 20  1  0  0  0  0
 18 21  1  0  0  0  0
 22 23  2  0  0  0  0
 22 24  1  0  0  0  0
 24 25  1  0  0  0  0
 24 26  1  0  0  0  0
 26 27  1  0  0  0  0
 26 28  1  0  0  0  0
 26 29  1  0  0  0  0
M  END
$$$$

  -OEChem-02102214153D

 29 28  0     1  0  0  0  0  0999 V2000
   -3.6052   -3.2497    1.5281 H   0  0  0  0  0  0  0  0  0  0  0  0
   -3.4787   -2.3517    0.9173 C   0  0  0  0  0  0  0  0  0  0  0  0
   -4.2851   -1.6510    1.1458 H   0  0  0  0  0  0  0  0  0  0  0  0
   -3.5360   -2.6333   -0.1370 H   0  0  0  0  0  0  0  0  0  0  0  0
   -2.1356   -1.7087    1.2066 C   0  0  0  0  0  0  0  0  0  0  0  0
   -1.4383   -2.1318    2.1174 O   0  0  0  0  0  0  0  0  0  0  0  0
   -1.7511   -0.5826    0.5075 N   0  0  0  0  0  0  0  0  0  0  0  0
   -2.4060   -0.2241   -0.1832 H   0  0  0  0  0  0  0  0  0  0  0  0
   -0.4103    0.0237    0.5337 C   0  0  1  0  0  0  0  0  0  0  0  0
    0.1534   -0.3715    1.3845 H   0  0  0  0  0  0  0  0  0  0  0  0
    0.4370   -0.1767   -0.7618 C   0  0  0  0  0  0  0  0  0  0  0  0
    0.0456    0.5238   -1.5082 H   0  0  0  0  0  0  0  0  0  0  0  0
    1.4512    0.1610   -0.5253 H   0  0  0  0  0  0  0  0  0  0  0  0
    0.5801   -1.5226   -1.5211 C   0  0  0  0  0  0  0  0  0  0  0  0
    0.2220   -1.3571   -2.5425 H   0  0  0  0  0  0  0  0  0  0  0  0
    1.6462   -1.7585   -1.5988 H   0  0  0  0  0  0  0  0  0  0  0  0
   -0.2762   -3.0243   -0.9073 S   0  0  0  0  0  0  0  0  0  0  0  0
    0.8625   -3.5747    0.4246 C   0  0  0  0  0  0  0  0  0  0  0  0
    1.0159   -2.7721    1.1516 H   0  0  0  0  0  0  0  0  0  0  0  0
    0.4391   -4.4384    0.9457 H   0  0  0  0  0  0  0  0  0  0  0  0
    1.8310   -3.8588    0.0035 H   0  0  0  0  0  0  0  0  0  0  0  0
   -0.5540    1.5538    0.6946 C   0  0  0  0  0  0  0  0  0  0  0  0
   -1.3664    2.1766    0.0188 O   0  0  0  0  0  0  0  0  0  0  0  0
    0.2443    2.2387    1.5923 N   0  0  0  0  0  0  0  0  0  0  0  0
    0.8286    1.6850    2.2122 H   0  0  0  0  0  0  0  0  0  0  0  0
    0.1185    3.6705    1.8383 C   0  0  0  0  0  0  0  0  0  0  0  0
   -0.8736    3.9049    2.2382 H   0  0  0  0  0  0  0  0  0  0  0  0
    0.8707    3.9974    2.5626 H   0  0  0  0  0  0  0  0  0  0  0  0
    0.2664    4.2342    0.9111 H   0  0  0  0  0  0  0  0  0  0  0  0
  1  2  1  0  0  0  0
  2  3  1  0  0  0  0
  2  4  1  0  0  0  0
  2  5  1  0  0  0  0
  5  6  2  0  0  0  0
  5  7  1  0  0  0  0
  7  8  1  0  0  0  0
  7  9  1  0  0  0  0
  9 10  1  0  0  0  0
  9 11  1  0  0  0  0
  9 22  1  0  0  0  0
 11 12  1  0  0  0  0
 11 13  1  0  0  0  0
 11 14  1  0  0  0  0
 14 15  1  0  0  0  0
 14 16  1  0  0  0  0
 14 17  1  0  0  0  0
 17 18  1  0  0  0  0
 18 19  1  0  0  0  0
 18 20  1  0  0  0  0
 18 21  1  0  0  0  0
 22 23  2  0  0  0  0
 22 24  1  0  0  0  0
 24 25  1  0  0  0  0
 24 26  1  0  0  0  0
 26 27  1  0  0  0  0
 26 28  1  0  0  0  0
 26 29  1  0  0  0  0
M  END
$$$$

  -OEChem-02102214153D

 29 28  0     1  0  0  0  0  0999 V2000
   -3.7254   -3.1174    1.5803 H   0  0  0  0  0  0  0  0  0  0  0  0
   -3.5705   -2.2386    0.9483 C   0  0  0  0  0  0  0  0  0  0  0  0
   -4.3582   -1.5104    1.1551 H   0  0  0  0  0  0  0  0  0  0  0  0
   -3.6304   -2.5443   -0.0991 H   0  0  0  0  0  0  0  0  0  0  0  0
   -2.2118   -1.6258    1.2294 C   0  0  0  0  0  0  0  0  0  0  0  0
   -1.5195   -2.0667    2.1356 O   0  0  0  0  0  0  0  0  0  0  0  0
   -1.8012   -0.5153    0.5199 N   0  0  0  0  0  0  0  0  0  0  0  0
   -2.4390   -0.1548   -0.1860 H   0  0  0  0  0  0  0  0  0  0  0  0
   -0.4565    0.0781    0.5728 C   0  0  1  0  0  0  0  0  0  0  0  0
    0.0718   -0.3019    1.4528 H   0  0  0  0  0  0  0  0  0  0  0  0
    0.4481   -0.1583   -0.6771 C   0  0  0  0  0  0  0  0  0  0  0  0
    0.0624    0.5100   -1.4555 H   0  0  0  0  0  0  0  0  0  0  0  0
    1.4506    0.2041   -0.4270 H   0  0  0  0  0  0  0  0  0  0  0  0
    0.6216   -1.5212   -1.3990 C   0  0  0  0  0  0  0  0  0  0  0  0
    0.6100   -1.3274   -2.4766 H   0  0  0  0  0  0  0  0  0  0  0  0
    1.6221   -1.8958   -1.1610 H   0  0  0  0  0  0  0  0  0  0  0  0
   -0.5538   -2.8954   -1.0809 S   0  0  0  0  0  0  0  0  0  0  0  0
    0.3412   -3.8581    0.2024 C   0  0  0  0  0  0  0  0  0  0  0  0
    0.6232   -3.2100    1.0373 H   0  0  0  0  0  0  0  0  0  0  0  0
   -0.2986   -4.6591    0.5844 H   0  0  0  0  0  0  0  0  0  0  0  0
    1.2474   -4.3028   -0.2185 H   0  0  0  0  0  0  0  0  0  0  0  0
   -0.5917    1.6118    0.7023 C   0  0  0  0  0  0  0  0  0  0  0  0
   -1.3833    2.2285   -0.0029 O   0  0  0  0  0  0  0  0  0  0  0  0
    0.1874    2.3058    1.6100 N   0  0  0  0  0  0  0  0  0  0  0  0
    0.7569    1.7592    2.2496 H   0  0  0  0  0  0  0  0  0  0  0  0
    0.0627    3.7415    1.8315 C   0  0  0  0  0  0  0  0  0  0  0  0
   -0.9441    3.9885    2.1845 H   0  0  0  0  0  0  0  0  0  0  0  0
    0.7850    4.0725    2.5839 H   0  0  0  0  0  0  0  0  0  0  0  0
    0.2554    4.2910    0.9039 H   0  0  0  0  0  0  0  0  0  0  0  0
  1  2  1  0  0  0  0
  2  3  1  0  0  0  0
  2  4  1  0  0  0  0
  2  5  1  0  0  0  0
  5  6  2  0  0  0  0
  5  7  1  0  0  0  0
  7  8  1  0  0  0  0
  7  9  1  0  0  0  0
  9 10  1  0  0  0  0
  9 11  1  0  0  0  0
  9 22  1  0  0  0  0
 11 12  1  0  0  0  0
 11 13  1  0  0  0  0
 11 14  1  0  0  0  0
 14 15  1  0  0  0  0
 14 16  1  0  0  0  0
 14 17  1  0  0  0  0
 17 18  1  0  0  0  0
 18 19  1  0  0  0  0
 18 20  1  0  0  0  0
 18 21  1  0  0  0  0
 22 23  2  0  0  0  0
 22 24  1  0  0  0  0
 24 25  1  0  0  0  0
 24 26  1  0  0  0  0
 26 27  1  0  0  0  0
 26 28  1  0  0  0  0
 26 29  1  0  0  0  0
M  END
$$$$

  -OEChem-02102214153D

 29 28  0     1  0  0  0  0  0999 V2000
   -3.4596   -3.2884    1.8385 H   0  0  0  0  0  0  0  0  0  0  0  0
   -3.4406   -2.3500    1.2778 C   0  0  0  0  0  0  0  0  0  0  0  0
   -4.1839   -1.6700    1.7005 H   0  0  0  0  0  0  0  0  0  0  0  0
   -3.6965   -2.5574    0.2360 H   0  0  0  0  0  0  0  0  0  0  0  0
   -2.0615   -1.7228    1.3551 C   0  0  0  0  0  0  0  0  0  0  0  0
   -1.1867   -2.2546    2.0237 O   0  0  0  0  0  0  0  0  0  0  0  0
   -1.8185   -0.5237    0.7154 N   0  0  0  0  0  0  0  0  0  0  0  0
   -2.5878   -0.1066    0.1962 H   0  0  0  0  0  0  0  0  0  0  0  0
   -0.5088    0.1372    0.6254 C   0  0  1  0  0  0  0  0  0  0  0  0
    0.1572   -0.2924    1.3802 H   0  0  0  0  0  0  0  0  0  0  0  0
    0.2204    0.0547   -0.7500 C   0  0  0  0  0  0  0  0  0  0  0  0
   -0.3074    0.7531   -1.4090 H   0  0  0  0  0  0  0  0  0  0  0  0
    1.2319    0.4521   -0.6167 H   0  0  0  0  0  0  0  0  0  0  0  0
    0.3377   -1.2464   -1.5840 C   0  0  0  0  0  0  0  0  0  0  0  0
    0.4549   -0.9665   -2.6358 H   0  0  0  0  0  0  0  0  0  0  0  0
    1.2681   -1.7374   -1.2829 H   0  0  0  0  0  0  0  0  0  0  0  0
   -0.9916   -2.5130   -1.4812 S   0  0  0  0  0  0  0  0  0  0  0  0
   -0.1112   -3.9358   -0.7230 C   0  0  0  0  0  0  0  0  0  0  0  0
    0.6870   -4.2851   -1.3841 H   0  0  0  0  0  0  0  0  0  0  0  0
   -0.8097   -4.7596   -0.5497 H   0  0  0  0  0  0  0  0  0  0  0  0
    0.3277   -3.6443    0.2361 H   0  0  0  0  0  0  0  0  0  0  0  0
   -0.6784    1.6403    0.9376 C   0  0  0  0  0  0  0  0  0  0  0  0
   -1.5994    2.2779    0.4386 O   0  0  0  0  0  0  0  0  0  0  0  0
    0.2079    2.2822    1.7833 N   0  0  0  0  0  0  0  0  0  0  0  0
    0.9076    1.7113    2.2488 H   0  0  0  0  0  0  0  0  0  0  0  0
    0.0694    3.6812    2.1699 C   0  0  0  0  0  0  0  0  0  0  0  0
   -0.8700    3.8384    2.7104 H   0  0  0  0  0  0  0  0  0  0  0  0
    0.8975    3.9778    2.8208 H   0  0  0  0  0  0  0  0  0  0  0  0
    0.0788    4.3266    1.2851 H   0  0  0  0  0  0  0  0  0  0  0  0
  1  2  1  0  0  0  0
  2  3  1  0  0  0  0
  2  4  1  0  0  0  0
  2  5  1  0  0  0  0
  5  6  2  0  0  0  0
  5  7  1  0  0  0  0
  7  8  1  0  0  0  0
  7  9  1  0  0  0  0
  9 10  1  0  0  0  0
  9 11  1  0  0  0  0
  9 22  1  0  0  0  0
 11 12  1  0  0  0  0
 11 13  1  0  0  0  0
 11 14  1  0  0  0  0
 14 15  1  0  0  0  0
 14 16  1  0  0  0  0
 14 17  1  0  0  0  0
 17 18  1  0  0  0  0
 18 19  1  0  0  0  0
 18 20  1  0  0  0  0
 18 21  1  0  0  0  0
 22 23  2  0  0  0  0
 22 24  1  0  0  0  0
 24 25  1  0  0  0  0
 24 26  1  0  0  0  0
 26 27  1  0  0  0  0
 26 28  1  0  0  0  0
 26 29  1  0  0  0  0
M  END
$$$$

  -OEChem-02102214153D

 29 28  0     1  0  0  0  0  0999 V2000
   -3.7744   -2.9014    2.1388 H   0  0  0  0  0  0  0  0  0  0  0  0
   -3.6500   -2.0994    1.4062 C   0  0  0  0  0  0  0  0  0  0  0  0
   -4.4312   -1.3522    1.5638 H   0  0  0  0  0  0  0  0  0  0  0  0
   -3.7539   -2.5201    0.4030 H   0  0  0  0  0  0  0  0  0  0  0  0
   -2.2829   -1.4591    1.5592 C   0  0  0  0  0  0  0  0  0  0  0  0
   -1.5240   -1.8456    2.4362 O   0  0  0  0  0  0  0  0  0  0  0  0
   -1.9221   -0.4093    0.7375 N   0  0  0  0  0  0  0  0  0  0  0  0
   -2.5881   -0.1199    0.0245 H   0  0  0  0  0  0  0  0  0  0  0  0
   -0.6070    0.2444    0.7410 C   0  0  1  0  0  0  0  0  0  0  0  0
   -0.0940   -0.0048    1.6750 H   0  0  0  0  0  0  0  0  0  0  0  0
    0.3467   -0.1347   -0.4284 C   0  0  0  0  0  0  0  0  0  0  0  0
   -0.0260    0.3876   -1.3165 H   0  0  0  0  0  0  0  0  0  0  0  0
    1.3348    0.2805   -0.2056 H   0  0  0  0  0  0  0  0  0  0  0  0
    0.5433   -1.6031   -0.8732 C   0  0  0  0  0  0  0  0  0  0  0  0
    1.0938   -1.6073   -1.8192 H   0  0  0  0  0  0  0  0  0  0  0  0
    1.1784   -2.0853   -0.1232 H   0  0  0  0  0  0  0  0  0  0  0  0
   -0.9515   -2.6590   -1.0677 S   0  0  0  0  0  0  0  0  0  0  0  0
   -0.1957   -4.3029   -1.3750 C   0  0  0  0  0  0  0  0  0  0  0  0
    0.4219   -4.6008   -0.5224 H   0  0  0  0  0  0  0  0  0  0  0  0
   -0.9775   -5.0544   -1.5196 H   0  0  0  0  0  0  0  0  0  0  0  0
    0.4304   -4.2714   -2.2715 H   0  0  0  0  0  0  0  0  0  0  0  0
   -0.7888    1.7767    0.7068 C   0  0  0  0  0  0  0  0  0  0  0  0
   -1.5920    2.2893   -0.0648 O   0  0  0  0  0  0  0  0  0  0  0  0
   -0.0428    2.5859    1.5442 N   0  0  0  0  0  0  0  0  0  0  0  0
    0.5476    2.1278    2.2325 H   0  0  0  0  0  0  0  0  0  0  0  0
   -0.2104    4.0325    1.6122 C   0  0  0  0  0  0  0  0  0  0  0  0
   -1.2261    4.2855    1.9343 H   0  0  0  0  0  0  0  0  0  0  0  0
    0.4972    4.4626    2.3276 H   0  0  0  0  0  0  0  0  0  0  0  0
   -0.0281    4.4866    0.6324 H   0  0  0  0  0  0  0  0  0  0  0  0
  1  2  1  0  0  0  0
  2  3  1  0  0  0  0
  2  4  1  0  0  0  0
  2  5  1  0  0  0  0
  5  6  2  0  0  0  0
  5  7  1  0  0  0  0
  7  8  1  0  0  0  0
  7  9  1  0  0  0  0
  9 10  1  0  0  0  0
  9 11  1  0  0  0  0
  9 22  1  0  0  0  0
 11 12  1  0  0  0  0
 11 13  1  0  0  0  0
 11 14  1  0  0  0  0
 14 15  1  0  0  0  0
 14 16  1  0  0  0  0
 14 17  1  0  0  0  0
 17 18  1  0  0  0  0
 18 19  1  0  0  0  0
 18 20  1  0  0  0  0
 18 21  1  0  0  0  0
 22 23  2  0  0  0  0
 22 24  1  0  0  0  0
 24 25  1  0  0  0  0
 24 26  1  0  0  0  0
 26 27  1  0  0  0  0
 26 28  1  0  0  0  0
 26 29  1  0  0  0  0
M  END
$$$$

  -OEChem-02102214153D

 29 28  0     1  0  0  0  0  0999 V2000
   -2.9986   -3.6886    2.3847 H   0  0  0  0  0  0  0  0  0  0  0  0
   -3.0884   -2.7514    1.8286 C   0  0  0  0  0  0  0  0  0  0  0  0
   -3.8083   -2.1054    2.3367 H   0  0  0  0  0  0  0  0  0  0  0  0
   -3.4536   -2.9741    0.8231 H   0  0  0  0  0  0  0  0  0  0  0  0
   -1.7402   -2.0609    1.7471 C   0  0  0  0  0  0  0  0  0  0  0  0
   -0.7890   -2.5024    2.3743 O   0  0  0  0  0  0  0  0  0  0  0  0
   -1.6030   -0.9135    0.9920 N   0  0  0  0  0  0  0  0  0  0  0  0
   -2.4268   -0.5701    0.5043 H   0  0  0  0  0  0  0  0  0  0  0  0
   -0.3404   -0.1934    0.7851 C   0  0  1  0  0  0  0  0  0  0  0  0
    0.3775   -0.5104    1.5481 H   0  0  0  0  0  0  0  0  0  0  0  0
    0.3175   -0.4233   -0.6014 C   0  0  0  0  0  0  0  0  0  0  0  0
   -0.2256    0.1765   -1.3385 H   0  0  0  0  0  0  0  0  0  0  0  0
    1.3358   -0.0241   -0.5577 H   0  0  0  0  0  0  0  0  0  0  0  0
    0.3992   -1.8607   -1.1599 C   0  0  0  0  0  0  0  0  0  0  0  0
    0.9320   -1.8313   -2.1155 H   0  0  0  0  0  0  0  0  0  0  0  0
    0.9994   -2.4618   -0.4689 H   0  0  0  0  0  0  0  0  0  0  0  0
   -1.2027   -2.7382   -1.4221 S   0  0  0  0  0  0  0  0  0  0  0  0
   -2.1029   -1.6168   -2.5652 C   0  0  0  0  0  0  0  0  0  0  0  0
   -2.3268   -0.6660   -2.0727 H   0  0  0  0  0  0  0  0  0  0  0  0
   -3.0450   -2.0777   -2.8763 H   0  0  0  0  0  0  0  0  0  0  0  0
   -1.4990   -1.4196   -3.4558 H   0  0  0  0  0  0  0  0  0  0  0  0
   -0.5643    1.3221    0.9621 C   0  0  0  0  0  0  0  0  0  0  0  0
   -1.5294    1.8653    0.4356 O   0  0  0  0  0  0  0  0  0  0  0  0
    0.3234    2.0815    1.7021 N   0  0  0  0  0  0  0  0  0  0  0  0
    1.0700    1.5909    2.1863 H   0  0  0  0  0  0  0  0  0  0  0  0
    0.1397    3.5065    1.9505 C   0  0  0  0  0  0  0  0  0  0  0  0
   -0.7908    3.6830    2.5004 H   0  0  0  0  0  0  0  0  0  0  0  0
    0.9722    3.8977    2.5435 H   0  0  0  0  0  0  0  0  0  0  0  0
    0.1005    4.0588    1.0055 H   0  0  0  0  0  0  0  0  0  0  0  0
  1  2  1  0  0  0  0
  2  3  1  0  0  0  0
  2  4  1  0  0  0  0
  2  5  1  0  0  0  0
  5  6  2  0  0  0  0
  5  7  1  0  0  0  0
  7  8  1  0  0  0  0
  7  9  1  0  0  0  0
  9 10  1  0  0  0  0
  9 11  1  0  0  0  0
  9 22  1  0  0  0  0
 11 12  1  0  0  0  0
 11 13  1  0  0  0  0
 11 14  1  0  0  0  0
 14 15  1  0  0  0  0
 14 16  1  0  0  0  0
 14 17  1  0  0  0  0
 17 18  1  0  0  0  0
 18 19  1  0  0  0  0
 18 20  1  0  0  0  0
 18 21  1  0  0  0  0
 22 23  2  0  0  0  0
 22 24  1  0  0  0  0
 24 25  1  0  0  0  0
 24 26  1  0  0  0  0
 26 27  1  0  0  0  0
 26 28  1  0  0  0  0
 26 29  1  0  0  0  0
M  END
$$$$

  -OEChem-02102214153D

 29 28  0     1  0  0  0  0  0999 V2000
   -3.4262   -3.0858    0.9793 H   0  0  0  0  0  0  0  0  0  0  0  0
   -3.0710   -2.7277    1.9487 C   0  0  0  0  0  0  0  0  0  0  0  0
   -3.8070   -2.0371    2.3670 H   0  0  0  0  0  0  0  0  0  0  0  0
   -2.9647   -3.5817    2.6231 H   0  0  0  0  0  0  0  0  0  0  0  0
   -1.7370   -2.0257    1.7815 C   0  0  0  0  0  0  0  0  0  0  0  0
   -0.7371   -2.4766    2.3200 O   0  0  0  0  0  0  0  0  0  0  0  0
   -1.6597   -0.8693    1.0329 N   0  0  0  0  0  0  0  0  0  0  0  0
   -2.5133   -0.5418    0.5862 H   0  0  0  0  0  0  0  0  0  0  0  0
   -0.4177   -0.1433    0.7364 C   0  0  1  0  0  0  0  0  0  0  0  0
    0.3619   -0.4695    1.4321 H   0  0  0  0  0  0  0  0  0  0  0  0
    0.0943   -0.3975   -0.7018 C   0  0  0  0  0  0  0  0  0  0  0  0
   -0.4993    0.1971   -1.4021 H   0  0  0  0  0  0  0  0  0  0  0  0
    1.1232   -0.0287   -0.7611 H   0  0  0  0  0  0  0  0  0  0  0  0
    0.0808   -1.8631   -1.1772 C   0  0  0  0  0  0  0  0  0  0  0  0
    0.7162   -1.9544   -2.0636 H   0  0  0  0  0  0  0  0  0  0  0  0
    0.5155   -2.4957   -0.3957 H   0  0  0  0  0  0  0  0  0  0  0  0
   -1.5979   -2.5037   -1.6021 S   0  0  0  0  0  0  0  0  0  0  0  0
   -2.0690   -1.5197   -3.0805 C   0  0  0  0  0  0  0  0  0  0  0  0
   -2.1911   -0.4648   -2.8190 H   0  0  0  0  0  0  0  0  0  0  0  0
   -1.3004   -1.6061   -3.8542 H   0  0  0  0  0  0  0  0  0  0  0  0
   -3.0161   -1.8871   -3.4864 H   0  0  0  0  0  0  0  0  0  0  0  0
   -0.6089    1.3728    0.9425 C   0  0  0  0  0  0  0  0  0  0  0  0
   -1.6046    1.9332    0.4984 O   0  0  0  0  0  0  0  0  0  0  0  0
    0.3448    2.1142    1.6158 N   0  0  0  0  0  0  0  0  0  0  0  0
    1.1164    1.6083    2.0414 H   0  0  0  0  0  0  0  0  0  0  0  0
    0.1959    3.5371    1.8966 C   0  0  0  0  0  0  0  0  0  0  0  0
   -0.6829    3.7131    2.5259 H   0  0  0  0  0  0  0  0  0  0  0  0
    1.0790    3.9139    2.4214 H   0  0  0  0  0  0  0  0  0  0  0  0
    0.0815    4.1020    0.9654 H   0  0  0  0  0  0  0  0  0  0  0  0
  1  2  1  0  0  0  0
  2  3  1  0  0  0  0
  2  4  1  0  0  0  0
  2  5  1  0  0  0  0
  5  6  2  0  0  0  0
  5  7  1  0  0  0  0
  7  8  1  0  0  0  0
  7  9  1  0  0  0  0
  9 10  1  0  0  0  0
  9 11  1  0  0  0  0
  9 22  1  0  0  0  0
 11 12  1  0  0  0  0
 11 13  1  0  0  0  0
 11 14  1  0  0  0  0
 14 15  1  0  0  0  0
 14 16  1  0  0  0  0
 14 17  1  0  0  0  0
 17 18  1  0  0  0  0
 18 19  1  0  0  0  0
 18 20  1  0  0  0  0
 18 21  1  0  0  0  0
 22 23  2  0  0  0  0
 22 24  1  0  0  0  0
 24 25  1  0  0  0  0
 24 26  1  0  0  0  0
 26 27  1  0  0  0  0
 26 28  1  0  0  0  0
 26 29  1  0  0  0  0
M  END
$$$$

  -OEChem-02102214153D

 29 28  0     1  0  0  0  0  0999 V2000
   -3.7731   -2.9250    1.6822 H   0  0  0  0  0  0  0  0  0  0  0  0
   -3.6623   -1.9323    1.2371 C   0  0  0  0  0  0  0  0  0  0  0  0
   -4.2656   -1.2204    1.8058 H   0  0  0  0  0  0  0  0  0  0  0  0
   -4.0252   -1.9655    0.2066 H   0  0  0  0  0  0  0  0  0  0  0  0
   -2.2064   -1.5082    1.2582 C   0  0  0  0  0  0  0  0  0  0  0  0
   -1.3663   -2.2262    1.7792 O   0  0  0  0  0  0  0  0  0  0  0  0
   -1.8353   -0.3166    0.6733 N   0  0  0  0  0  0  0  0  0  0  0  0
   -2.5694    0.2409    0.2405 H   0  0  0  0  0  0  0  0  0  0  0  0
   -0.4592    0.1891    0.5612 C   0  0  1  0  0  0  0  0  0  0  0  0
    0.1795   -0.3577    1.2620 H   0  0  0  0  0  0  0  0  0  0  0  0
    0.1013   -0.0227   -0.8630 C   0  0  0  0  0  0  0  0  0  0  0  0
   -0.3161    0.7305   -1.5406 H   0  0  0  0  0  0  0  0  0  0  0  0
    1.1835    0.1362   -0.8293 H   0  0  0  0  0  0  0  0  0  0  0  0
   -0.1740   -1.4174   -1.4466 C   0  0  0  0  0  0  0  0  0  0  0  0
    0.6258   -1.6731   -2.1485 H   0  0  0  0  0  0  0  0  0  0  0  0
   -0.1657   -2.1722   -0.6538 H   0  0  0  0  0  0  0  0  0  0  0  0
   -1.7701   -1.4532   -2.3626 S   0  0  0  0  0  0  0  0  0  0  0  0
   -1.9270   -3.2492   -2.7066 C   0  0  0  0  0  0  0  0  0  0  0  0
   -1.9585   -3.8124   -1.7690 H   0  0  0  0  0  0  0  0  0  0  0  0
   -2.8467   -3.4463   -3.2651 H   0  0  0  0  0  0  0  0  0  0  0  0
   -1.0759   -3.5981   -3.2988 H   0  0  0  0  0  0  0  0  0  0  0  0
   -0.3792    1.6813    0.9397 C   0  0  0  0  0  0  0  0  0  0  0  0
   -1.2245    2.4675    0.5285 O   0  0  0  0  0  0  0  0  0  0  0  0
    0.6309    2.1407    1.7651 N   0  0  0  0  0  0  0  0  0  0  0  0
    1.2663    1.4517    2.1570 H   0  0  0  0  0  0  0  0  0  0  0  0
    0.7229    3.5230    2.2192 C   0  0  0  0  0  0  0  0  0  0  0  0
   -0.1565    3.7897    2.8149 H   0  0  0  0  0  0  0  0  0  0  0  0
    1.6150    3.6595    2.8381 H   0  0  0  0  0  0  0  0  0  0  0  0
    0.7893    4.2042    1.3642 H   0  0  0  0  0  0  0  0  0  0  0  0
  1  2  1  0  0  0  0
  2  3  1  0  0  0  0
  2  4  1  0  0  0  0
  2  5  1  0  0  0  0
  5  6  2  0  0  0  0
  5  7  1  0  0  0  0
  7  8  1  0  0  0  0
  7  9  1  0  0  0  0
  9 10  1  0  0  0  0
  9 11  1  0  0  0  0
  9 22  1  0  0  0  0
 11 12  1  0  0  0  0
 11 13  1  0  0  0  0
 11 14  1  0  0  0  0
 14 15  1  0  0  0  0
 14 16  1  0  0  0  0
 14 17  1  0  0  0  0
 17 18  1  0  0  0  0
 18 19  1  0  0  0  0
 18 20  1  0  0  0  0
 18 21  1  0  0  0  0
 22 23  2  0  0  0  0
 22 24  1  0  0  0  0
 24 25  1  0  0  0  0
 24 26  1  0  0  0  0
 26 27  1  0  0  0  0
 26 28  1  0  0  0  0
 26 29  1  0  0  0  0
M  END
$$$$

  -OEChem-02102214153D

 29 28  0     1  0  0  0  0  0999 V2000
   -3.4182   -3.3846    1.5568 H   0  0  0  0  0  0  0  0  0  0  0  0
   -3.3849   -2.3677    1.1559 C   0  0  0  0  0  0  0  0  0  0  0  0
   -3.8981   -1.6975    1.8497 H   0  0  0  0  0  0  0  0  0  0  0  0
   -3.9055   -2.3517    0.1960 H   0  0  0  0  0  0  0  0  0  0  0  0
   -1.9447   -1.9227    0.9817 C   0  0  0  0  0  0  0  0  0  0  0  0
   -1.0385   -2.6083    1.4272 O   0  0  0  0  0  0  0  0  0  0  0  0
   -1.6697   -0.7107    0.3827 N   0  0  0  0  0  0  0  0  0  0  0  0
   -2.4638   -0.1212    0.1369 H   0  0  0  0  0  0  0  0  0  0  0  0
   -0.3488   -0.0679    0.3593 C   0  0  1  0  0  0  0  0  0  0  0  0
    0.2738   -0.5200    1.1383 H   0  0  0  0  0  0  0  0  0  0  0  0
    0.4143   -0.1969   -0.9810 C   0  0  0  0  0  0  0  0  0  0  0  0
   -0.0058    0.5161   -1.6987 H   0  0  0  0  0  0  0  0  0  0  0  0
    1.4516    0.1048   -0.8041 H   0  0  0  0  0  0  0  0  0  0  0  0
    0.4255   -1.5864   -1.6451 C   0  0  0  0  0  0  0  0  0  0  0  0
    1.4432   -1.7937   -1.9905 H   0  0  0  0  0  0  0  0  0  0  0  0
    0.1710   -2.3640   -0.9192 H   0  0  0  0  0  0  0  0  0  0  0  0
   -0.6918   -1.7026   -3.1111 S   0  0  0  0  0  0  0  0  0  0  0  0
   -2.4223   -1.7253   -2.5114 C   0  0  0  0  0  0  0  0  0  0  0  0
   -2.6782   -0.7677   -2.0510 H   0  0  0  0  0  0  0  0  0  0  0  0
   -3.1038   -1.8967   -3.3498 H   0  0  0  0  0  0  0  0  0  0  0  0
   -2.5569   -2.5303   -1.7849 H   0  0  0  0  0  0  0  0  0  0  0  0
   -0.4960    1.4288    0.7010 C   0  0  0  0  0  0  0  0  0  0  0  0
   -1.4457    2.0650    0.2578 O   0  0  0  0  0  0  0  0  0  0  0  0
    0.3705    2.0348    1.5920 N   0  0  0  0  0  0  0  0  0  0  0  0
    1.0986    1.4602    2.0066 H   0  0  0  0  0  0  0  0  0  0  0  0
    0.2204    3.4142    2.0399 C   0  0  0  0  0  0  0  0  0  0  0  0
   -0.7355    3.5471    2.5576 H   0  0  0  0  0  0  0  0  0  0  0  0
    1.0271    3.6779    2.7307 H   0  0  0  0  0  0  0  0  0  0  0  0
    0.2582    4.1007    1.1875 H   0  0  0  0  0  0  0  0  0  0  0  0
  1  2  1  0  0  0  0
  2  3  1  0  0  0  0
  2  4  1  0  0  0  0
  2  5  1  0  0  0  0
  5  6  2  0  0  0  0
  5  7  1  0  0  0  0
  7  8  1  0  0  0  0
  7  9  1  0  0  0  0
  9 10  1  0  0  0  0
  9 11  1  0  0  0  0
  9 22  1  0  0  0  0
 11 12  1  0  0  0  0
 11 13  1  0  0  0  0
 11 14  1  0  0  0  0
 14 15  1  0  0  0  0
 14 16  1  0  0  0  0
 14 17  1  0  0  0  0
 17 18  1  0  0  0  0
 18 19  1  0  0  0  0
 18 20  1  0  0  0  0
 18 21  1  0  0  0  0
 22 23  2  0  0  0  0
 22 24  1  0  0  0  0
 24 25  1  0  0  0  0
 24 26  1  0  0  0  0
 26 27  1  0  0  0  0
 26 28  1  0  0  0  0
 26 29  1  0  0  0  0
M  END
$$$$

  -OEChem-02102214153D

 29 28  0     1  0  0  0  0  0999 V2000
   -3.4087   -3.4257    1.5570 H   0  0  0  0  0  0  0  0  0  0  0  0
   -3.3647   -2.4727    1.0223 C   0  0  0  0  0  0  0  0  0  0  0  0
   -3.9969   -1.7484    1.5417 H   0  0  0  0  0  0  0  0  0  0  0  0
   -3.7466   -2.6195    0.0093 H   0  0  0  0  0  0  0  0  0  0  0  0
   -1.9352   -1.9686    0.9702 C   0  0  0  0  0  0  0  0  0  0  0  0
   -1.0378   -2.6193    1.4812 O   0  0  0  0  0  0  0  0  0  0  0  0
   -1.6570   -0.7617    0.3630 N   0  0  0  0  0  0  0  0  0  0  0  0
   -2.4506   -0.2024    0.0538 H   0  0  0  0  0  0  0  0  0  0  0  0
   -0.3417   -0.1002    0.3500 C   0  0  1  0  0  0  0  0  0  0  0  0
    0.2874   -0.5394    1.1311 H   0  0  0  0  0  0  0  0  0  0  0  0
    0.3982   -0.2453   -1.0006 C   0  0  0  0  0  0  0  0  0  0  0  0
   -0.0435    0.4543   -1.7180 H   0  0  0  0  0  0  0  0  0  0  0  0
    1.4385    0.0655   -0.8612 H   0  0  0  0  0  0  0  0  0  0  0  0
    0.3887   -1.6557   -1.6217 C   0  0  0  0  0  0  0  0  0  0  0  0
    1.4222   -1.9974   -1.7363 H   0  0  0  0  0  0  0  0  0  0  0  0
   -0.1097   -2.3808   -0.9753 H   0  0  0  0  0  0  0  0  0  0  0  0
   -0.4115   -1.6586   -3.2802 S   0  0  0  0  0  0  0  0  0  0  0  0
   -2.1624   -1.2441   -2.9151 C   0  0  0  0  0  0  0  0  0  0  0  0
   -2.2350   -0.2507   -2.4633 H   0  0  0  0  0  0  0  0  0  0  0  0
   -2.7474   -1.2489   -3.8396 H   0  0  0  0  0  0  0  0  0  0  0  0
   -2.5885   -1.9798   -2.2275 H   0  0  0  0  0  0  0  0  0  0  0  0
   -0.5062    1.3992    0.6694 C   0  0  0  0  0  0  0  0  0  0  0  0
   -1.4452    2.0233    0.1873 O   0  0  0  0  0  0  0  0  0  0  0  0
    0.3411    2.0275    1.5631 N   0  0  0  0  0  0  0  0  0  0  0  0
    1.0653    1.4657    2.0017 H   0  0  0  0  0  0  0  0  0  0  0  0
    0.1841    3.4189    1.9695 C   0  0  0  0  0  0  0  0  0  0  0  0
   -0.7829    3.5679    2.4614 H   0  0  0  0  0  0  0  0  0  0  0  0
    0.9757    3.7002    2.6708 H   0  0  0  0  0  0  0  0  0  0  0  0
    0.2425    4.0812    1.0993 H   0  0  0  0  0  0  0  0  0  0  0  0
  1  2  1  0  0  0  0
  2  3  1  0  0  0  0
  2  4  1  0  0  0  0
  2  5  1  0  0  0  0
  5  6  2  0  0  0  0
  5  7  1  0  0  0  0
  7  8  1  0  0  0  0
  7  9  1  0  0  0  0
  9 10  1  0  0  0  0
  9 11  1  0  0  0  0
  9 22  1  0  0  0  0
 11 12  1  0  0  0  0
 11 13  1  0  0  0  0
 11 14  1  0  0  0  0
 14 15  1  0  0  0  0
 14 16  1  0  0  0  0
 14 17  1  0  0  0  0
 17 18  1  0  0  0  0
 18 19  1  0  0  0  0
 18 20  1  0  0  0  0
 18 21  1  0  0  0  0
 22 23  2  0  0  0  0
 22 24  1  0  0  0  0
 24 25  1  0  0  0  0
 24 26  1  0  0  0  0
 26 27  1  0  0  0  0
 26 28  1  0  0  0  0
 26 29  1  0  0  0  0
M  END
$$$$

  -OEChem-02102214153D

 29 28  0     1  0  0  0  0  0999 V2000
   -3.4347   -3.4119    1.4753 H   0  0  0  0  0  0  0  0  0  0  0  0
   -3.3820   -2.4551    0.9482 C   0  0  0  0  0  0  0  0  0  0  0  0
   -4.0323   -1.7380    1.4551 H   0  0  0  0  0  0  0  0  0  0  0  0
   -3.7356   -2.5974   -0.0759 H   0  0  0  0  0  0  0  0  0  0  0  0
   -1.9545   -1.9425    0.9359 C   0  0  0  0  0  0  0  0  0  0  0  0
   -1.0615   -2.6046    1.4398 O   0  0  0  0  0  0  0  0  0  0  0  0
   -1.6668   -0.7293    0.3455 N   0  0  0  0  0  0  0  0  0  0  0  0
   -2.4551   -0.1655    0.0310 H   0  0  0  0  0  0  0  0  0  0  0  0
   -0.3474   -0.0741    0.3462 C   0  0  1  0  0  0  0  0  0  0  0  0
    0.2753   -0.5260    1.1251 H   0  0  0  0  0  0  0  0  0  0  0  0
    0.3946   -0.2163   -1.0027 C   0  0  0  0  0  0  0  0  0  0  0  0
   -0.0663    0.4815   -1.7092 H   0  0  0  0  0  0  0  0  0  0  0  0
    1.4341    0.1037   -0.8789 H   0  0  0  0  0  0  0  0  0  0  0  0
    0.3799   -1.6227   -1.6337 C   0  0  0  0  0  0  0  0  0  0  0  0
    1.3603   -2.0877   -1.4906 H   0  0  0  0  0  0  0  0  0  0  0  0
   -0.3523   -2.2802   -1.1633 H   0  0  0  0  0  0  0  0  0  0  0  0
    0.0044   -1.5259   -3.4314 S   0  0  0  0  0  0  0  0  0  0  0  0
   -1.7950   -1.1531   -3.4219 C   0  0  0  0  0  0  0  0  0  0  0  0
   -1.9878   -0.2011   -2.9190 H   0  0  0  0  0  0  0  0  0  0  0  0
   -2.1691   -1.0870   -4.4478 H   0  0  0  0  0  0  0  0  0  0  0  0
   -2.3413   -1.9441   -2.9002 H   0  0  0  0  0  0  0  0  0  0  0  0
   -0.4967    1.4231    0.6830 C   0  0  0  0  0  0  0  0  0  0  0  0
   -1.4235    2.0645    0.2005 O   0  0  0  0  0  0  0  0  0  0  0  0
    0.3548    2.0317    1.5864 N   0  0  0  0  0  0  0  0  0  0  0  0
    1.0792    1.4602    2.0120 H   0  0  0  0  0  0  0  0  0  0  0  0
    0.2239    3.4254    1.9935 C   0  0  0  0  0  0  0  0  0  0  0  0
   -0.7500    3.5976    2.4637 H   0  0  0  0  0  0  0  0  0  0  0  0
    1.0059    3.6846    2.7135 H   0  0  0  0  0  0  0  0  0  0  0  0
    0.3192    4.0880    1.1268 H   0  0  0  0  0  0  0  0  0  0  0  0
  1  2  1  0  0  0  0
  2  3  1  0  0  0  0
  2  4  1  0  0  0  0
  2  5  1  0  0  0  0
  5  6  2  0  0  0  0
  5  7  1  0  0  0  0
  7  8  1  0  0  0  0
  7  9  1  0  0  0  0
  9 10  1  0  0  0  0
  9 11  1  0  0  0  0
  9 22  1  0  0  0  0
 11 12  1  0  0  0  0
 11 13  1  0  0  0  0
 11 14  1  0  0  0  0
 14 15  1  0  0  0  0
 14 16  1  0  0  0  0
 14 17  1  0  0  0  0
 17 18  1  0  0  0  0
 18 19  1  0  0  0  0
 18 20  1  0  0  0  0
 18 21  1  0  0  0  0
 22 23  2  0  0  0  0
 22 24  1  0  0  0  0
 24 25  1  0  0  0  0
 24 26  1  0  0  0  0
 26 27  1  0  0  0  0
 26 28  1  0  0  0  0
 26 29  1  0  0  0  0
M  END
$$$$

  -OEChem-02102214153D

 29 28  0     1  0  0  0  0  0999 V2000
   -3.4372   -3.3984    1.4775 H   0  0  0  0  0  0  0  0  0  0  0  0
   -3.3881   -2.4403    0.9526 C   0  0  0  0  0  0  0  0  0  0  0  0
   -4.0225   -1.7200    1.4748 H   0  0  0  0  0  0  0  0  0  0  0  0
   -3.7628   -2.5759   -0.0648 H   0  0  0  0  0  0  0  0  0  0  0  0
   -1.9575   -1.9382    0.9136 C   0  0  0  0  0  0  0  0  0  0  0  0
   -1.0580   -2.6131    1.3881 O   0  0  0  0  0  0  0  0  0  0  0  0
   -1.6745   -0.7192    0.3330 N   0  0  0  0  0  0  0  0  0  0  0  0
   -2.4654   -0.1473    0.0396 H   0  0  0  0  0  0  0  0  0  0  0  0
   -0.3548   -0.0660    0.3396 C   0  0  1  0  0  0  0  0  0  0  0  0
    0.2643   -0.5244    1.1178 H   0  0  0  0  0  0  0  0  0  0  0  0
    0.3941   -0.2054   -1.0047 C   0  0  0  0  0  0  0  0  0  0  0  0
   -0.0745    0.4871   -1.7111 H   0  0  0  0  0  0  0  0  0  0  0  0
    1.4329    0.1174   -0.8833 H   0  0  0  0  0  0  0  0  0  0  0  0
    0.3767   -1.6112   -1.6321 C   0  0  0  0  0  0  0  0  0  0  0  0
    1.2249   -2.1892   -1.2519 H   0  0  0  0  0  0  0  0  0  0  0  0
   -0.5310   -2.1611   -1.3769 H   0  0  0  0  0  0  0  0  0  0  0  0
    0.4607   -1.4918   -3.4651 S   0  0  0  0  0  0  0  0  0  0  0  0
   -1.2618   -1.0302   -3.9097 C   0  0  0  0  0  0  0  0  0  0  0  0
   -1.5328   -0.0715   -3.4583 H   0  0  0  0  0  0  0  0  0  0  0  0
   -1.3564   -0.9423   -4.9961 H   0  0  0  0  0  0  0  0  0  0  0  0
   -1.9606   -1.7951   -3.5584 H   0  0  0  0  0  0  0  0  0  0  0  0
   -0.5005    1.4282    0.6903 C   0  0  0  0  0  0  0  0  0  0  0  0
   -1.4279    2.0752    0.2165 O   0  0  0  0  0  0  0  0  0  0  0  0
    0.3529    2.0261    1.5989 N   0  0  0  0  0  0  0  0  0  0  0  0
    1.0800    1.4504    2.0144 H   0  0  0  0  0  0  0  0  0  0  0  0
    0.2317    3.4188    2.0124 C   0  0  0  0  0  0  0  0  0  0  0  0
   -0.7409    3.5961    2.4833 H   0  0  0  0  0  0  0  0  0  0  0  0
    1.0156    3.6689    2.7337 H   0  0  0  0  0  0  0  0  0  0  0  0
    0.3320    4.0846    1.1486 H   0  0  0  0  0  0  0  0  0  0  0  0
  1  2  1  0  0  0  0
  2  3  1  0  0  0  0
  2  4  1  0  0  0  0
  2  5  1  0  0  0  0
  5  6  2  0  0  0  0
  5  7  1  0  0  0  0
  7  8  1  0  0  0  0
  7  9  1  0  0  0  0
  9 10  1  0  0  0  0
  9 11  1  0  0  0  0
  9 22  1  0  0  0  0
 11 12  1  0  0  0  0
 11 13  1  0  0  0  0
 11 14  1  0  0  0  0
 14 15  1  0  0  0  0
 14 16  1  0  0  0  0
 14 17  1  0  0  0  0
 17 18  1  0  0  0  0
 18 19  1  0  0  0  0
 18 20  1  0  0  0  0
 18 21  1  0  0  0  0
 22 23  2  0  0  0  0
 22 24  1  0  0  0  0
 24 25  1  0  0  0  0
 24 26  1  0  0  0  0
 26 27  1  0  0  0  0
 26 28  1  0  0  0  0
 26 29  1  0  0  0  0
M  END
$$$$

  -OEChem-02102214153D

 29 28  0     1  0  0  0  0  0999 V2000
   -3.4292   -3.4043    1.4536 H   0  0  0  0  0  0  0  0  0  0  0  0
   -3.3840   -2.4440    0.9323 C   0  0  0  0  0  0  0  0  0  0  0  0
   -4.0180   -1.7272    1.4595 H   0  0  0  0  0  0  0  0  0  0  0  0
   -3.7626   -2.5762   -0.0840 H   0  0  0  0  0  0  0  0  0  0  0  0
   -1.9545   -1.9389    0.8908 C   0  0  0  0  0  0  0  0  0  0  0  0
   -1.0522   -2.6153    1.3578 O   0  0  0  0  0  0  0  0  0  0  0  0
   -1.6757   -0.7159    0.3169 N   0  0  0  0  0  0  0  0  0  0  0  0
   -2.4683   -0.1439    0.0280 H   0  0  0  0  0  0  0  0  0  0  0  0
   -0.3580   -0.0591    0.3307 C   0  0  1  0  0  0  0  0  0  0  0  0
    0.2600   -0.5198    1.1086 H   0  0  0  0  0  0  0  0  0  0  0  0
    0.3905   -0.2009   -1.0115 C   0  0  0  0  0  0  0  0  0  0  0  0
   -0.0739    0.4855   -1.7261 H   0  0  0  0  0  0  0  0  0  0  0  0
    1.4313    0.1146   -0.8875 H   0  0  0  0  0  0  0  0  0  0  0  0
    0.3612   -1.6130   -1.6158 C   0  0  0  0  0  0  0  0  0  0  0  0
    1.0278   -2.2685   -1.0460 H   0  0  0  0  0  0  0  0  0  0  0  0
   -0.6419   -2.0447   -1.5750 H   0  0  0  0  0  0  0  0  0  0  0  0
    0.8834   -1.5534   -3.3776 S   0  0  0  0  0  0  0  0  0  0  0  0
   -0.6235   -0.9300   -4.2248 C   0  0  0  0  0  0  0  0  0  0  0  0
   -0.8812    0.0706   -3.8668 H   0  0  0  0  0  0  0  0  0  0  0  0
   -0.4506   -0.8785   -5.3038 H   0  0  0  0  0  0  0  0  0  0  0  0
   -1.4679   -1.5996   -4.0370 H   0  0  0  0  0  0  0  0  0  0  0  0
   -0.5013    1.4332    0.6877 C   0  0  0  0  0  0  0  0  0  0  0  0
   -1.4248    2.0851    0.2131 O   0  0  0  0  0  0  0  0  0  0  0  0
    0.3517    2.0247    1.6007 N   0  0  0  0  0  0  0  0  0  0  0  0
    1.0769    1.4453    2.0144 H   0  0  0  0  0  0  0  0  0  0  0  0
    0.2317    3.4153    2.0217 C   0  0  0  0  0  0  0  0  0  0  0  0
   -0.7430    3.5921    2.4886 H   0  0  0  0  0  0  0  0  0  0  0  0
    1.0125    3.6595    2.7484 H   0  0  0  0  0  0  0  0  0  0  0  0
    0.3376    4.0857    1.1623 H   0  0  0  0  0  0  0  0  0  0  0  0
  1  2  1  0  0  0  0
  2  3  1  0  0  0  0
  2  4  1  0  0  0  0
  2  5  1  0  0  0  0
  5  6  2  0  0  0  0
  5  7  1  0  0  0  0
  7  8  1  0  0  0  0
  7  9  1  0  0  0  0
  9 10  1  0  0  0  0
  9 11  1  0  0  0  0
  9 22  1  0  0  0  0
 11 12  1  0  0  0  0
 11 13  1  0  0  0  0
 11 14  1  0  0  0  0
 14 15  1  0  0  0  0
 14 16  1  0  0  0  0
 14 17  1  0  0  0  0
 17 18  1  0  0  0  0
 18 19  1  0  0  0  0
 18 20  1  0  0  0  0
 18 21  1  0  0  0  0
 22 23  2  0  0  0  0
 22 24  1  0  0  0  0
 24 25  1  0  0  0  0
 24 26  1  0  0  0  0
 26 27  1  0  0  0  0
 26 28  1  0  0  0  0
 26 29  1  0  0  0  0
M  END
$$$$

  -OEChem-02102214153D

 29 28  0     1  0  0  0  0  0999 V2000
   -3.4237   -3.4232    1.4579 H   0  0  0  0  0  0  0  0  0  0  0  0
   -3.3867   -2.4595    0.9423 C   0  0  0  0  0  0  0  0  0  0  0  0
   -4.0192   -1.7486    1.4794 H   0  0  0  0  0  0  0  0  0  0  0  0
   -3.7732   -2.5872   -0.0717 H   0  0  0  0  0  0  0  0  0  0  0  0
   -1.9597   -1.9484    0.8915 C   0  0  0  0  0  0  0  0  0  0  0  0
   -1.0517   -2.6210    1.3522 O   0  0  0  0  0  0  0  0  0  0  0  0
   -1.6918   -0.7227    0.3184 N   0  0  0  0  0  0  0  0  0  0  0  0
   -2.4902   -0.1539    0.0400 H   0  0  0  0  0  0  0  0  0  0  0  0
   -0.3759   -0.0610    0.3150 C   0  0  1  0  0  0  0  0  0  0  0  0
    0.2461   -0.5225    1.0895 H   0  0  0  0  0  0  0  0  0  0  0  0
    0.3696   -0.2137   -1.0310 C   0  0  0  0  0  0  0  0  0  0  0  0
    0.1002    0.6289   -1.6753 H   0  0  0  0  0  0  0  0  0  0  0  0
    1.4478   -0.1564   -0.8508 H   0  0  0  0  0  0  0  0  0  0  0  0
    0.0527   -1.5058   -1.7960 C   0  0  0  0  0  0  0  0  0  0  0  0
    0.3220   -2.3704   -1.1796 H   0  0  0  0  0  0  0  0  0  0  0  0
   -1.0150   -1.5720   -2.0245 H   0  0  0  0  0  0  0  0  0  0  0  0
    1.0042   -1.5561   -3.3684 S   0  0  0  0  0  0  0  0  0  0  0  0
    0.0953   -0.3696   -4.4375 C   0  0  0  0  0  0  0  0  0  0  0  0
    0.1309    0.6376   -4.0132 H   0  0  0  0  0  0  0  0  0  0  0  0
    0.5477   -0.3427   -5.4332 H   0  0  0  0  0  0  0  0  0  0  0  0
   -0.9508   -0.6735   -4.5369 H   0  0  0  0  0  0  0  0  0  0  0  0
   -0.5149    1.4305    0.6786 C   0  0  0  0  0  0  0  0  0  0  0  0
   -1.4441    2.0829    0.2162 O   0  0  0  0  0  0  0  0  0  0  0  0
    0.3505    2.0217    1.5800 N   0  0  0  0  0  0  0  0  0  0  0  0
    1.0790    1.4410    1.9859 H   0  0  0  0  0  0  0  0  0  0  0  0
    0.2306    3.4091    2.0118 C   0  0  0  0  0  0  0  0  0  0  0  0
   -0.7375    3.5784    2.4950 H   0  0  0  0  0  0  0  0  0  0  0  0
    1.0214    3.6521    2.7282 H   0  0  0  0  0  0  0  0  0  0  0  0
    0.3203    4.0858    1.1556 H   0  0  0  0  0  0  0  0  0  0  0  0
  1  2  1  0  0  0  0
  2  3  1  0  0  0  0
  2  4  1  0  0  0  0
  2  5  1  0  0  0  0
  5  6  2  0  0  0  0
  5  7  1  0  0  0  0
  7  8  1  0  0  0  0
  7  9  1  0  0  0  0
  9 10  1  0  0  0  0
  9 11  1  0  0  0  0
  9 22  1  0  0  0  0
 11 12  1  0  0  0  0
 11 13  1  0  0  0  0
 11 14  1  0  0  0  0
 14 15  1  0  0  0  0
 14 16  1  0  0  0  0
 14 17  1  0  0  0  0
 17 18  1  0  0  0  0
 18 19  1  0  0  0  0
 18 20  1  0  0  0  0
 18 21  1  0  0  0  0
 22 23  2  0  0  0  0
 22 24  1  0  0  0  0
 24 25  1  0  0  0  0
 24 26  1  0  0  0  0
 26 27  1  0  0  0  0
 26 28  1  0  0  0  0
 26 29  1  0  0  0  0
M  END
$$$$

  -OEChem-02102214153D

 29 28  0     1  0  0  0  0  0999 V2000
   -3.4289   -3.4386    1.4569 H   0  0  0  0  0  0  0  0  0  0  0  0
   -3.3966   -2.4663    0.9573 C   0  0  0  0  0  0  0  0  0  0  0  0
   -4.0272   -1.7654    1.5096 H   0  0  0  0  0  0  0  0  0  0  0  0
   -3.7884   -2.5780   -0.0565 H   0  0  0  0  0  0  0  0  0  0  0  0
   -1.9706   -1.9520    0.9072 C   0  0  0  0  0  0  0  0  0  0  0  0
   -1.0652   -2.6119    1.3906 O   0  0  0  0  0  0  0  0  0  0  0  0
   -1.7020   -0.7337    0.3182 N   0  0  0  0  0  0  0  0  0  0  0  0
   -2.5002   -0.1727    0.0236 H   0  0  0  0  0  0  0  0  0  0  0  0
   -0.3849   -0.0731    0.2971 C   0  0  1  0  0  0  0  0  0  0  0  0
    0.2452   -0.5280    1.0686 H   0  0  0  0  0  0  0  0  0  0  0  0
    0.3415   -0.2376   -1.0582 C   0  0  0  0  0  0  0  0  0  0  0  0
    0.0796    0.6007   -1.7118 H   0  0  0  0  0  0  0  0  0  0  0  0
    1.4206   -0.1904   -0.8797 H   0  0  0  0  0  0  0  0  0  0  0  0
    0.0093   -1.5355   -1.8057 C   0  0  0  0  0  0  0  0  0  0  0  0
    0.0570   -2.3804   -1.1108 H   0  0  0  0  0  0  0  0  0  0  0  0
   -1.0027   -1.4925   -2.2199 H   0  0  0  0  0  0  0  0  0  0  0  0
    1.2315   -1.8319   -3.1469 S   0  0  0  0  0  0  0  0  0  0  0  0
    0.8503   -0.4955   -4.3478 C   0  0  0  0  0  0  0  0  0  0  0  0
    1.0628    0.4845   -3.9113 H   0  0  0  0  0  0  0  0  0  0  0  0
    1.4621   -0.6156   -5.2466 H   0  0  0  0  0  0  0  0  0  0  0  0
   -0.2046   -0.5340   -4.6351 H   0  0  0  0  0  0  0  0  0  0  0  0
   -0.5176    1.4228    0.6439 C   0  0  0  0  0  0  0  0  0  0  0  0
   -1.4472    2.0740    0.1808 O   0  0  0  0  0  0  0  0  0  0  0  0
    0.3578    2.0197    1.5319 N   0  0  0  0  0  0  0  0  0  0  0  0
    1.0764    1.4353    1.9501 H   0  0  0  0  0  0  0  0  0  0  0  0
    0.2351    3.4061    1.9654 C   0  0  0  0  0  0  0  0  0  0  0  0
   -0.7175    3.5629    2.4823 H   0  0  0  0  0  0  0  0  0  0  0  0
    1.0477    3.6612    2.6526 H   0  0  0  0  0  0  0  0  0  0  0  0
    0.2856    4.0825    1.1056 H   0  0  0  0  0  0  0  0  0  0  0  0
  1  2  1  0  0  0  0
  2  3  1  0  0  0  0
  2  4  1  0  0  0  0
  2  5  1  0  0  0  0
  5  6  2  0  0  0  0
  5  7  1  0  0  0  0
  7  8  1  0  0  0  0
  7  9  1  0  0  0  0
  9 10  1  0  0  0  0
  9 11  1  0  0  0  0
  9 22  1  0  0  0  0
 11 12  1  0  0  0  0
 11 13  1  0  0  0  0
 11 14  1  0  0  0  0
 14 15  1  0  0  0  0
 14 16  1  0  0  0  0
 14 17  1  0  0  0  0
 17 18  1  0  0  0  0
 18 19  1  0  0  0  0
 18 20  1  0  0  0  0
 18 21  1  0  0  0  0
 22 23  2  0  0  0  0
 22 24  1  0  0  0  0
 24 25  1  0  0  0  0
 24 26  1  0  0  0  0
 26 27  1  0  0  0  0
 26 28  1  0  0  0  0
 26 29  1  0  0  0  0
M  END
$$$$

  -OEChem-02102214153D

 29 28  0     1  0  0  0  0  0999 V2000
   -3.4599   -3.4198    1.4883 H   0  0  0  0  0  0  0  0  0  0  0  0
   -3.4187   -2.4550    0.9748 C   0  0  0  0  0  0  0  0  0  0  0  0
   -4.0470   -1.7421    1.5143 H   0  0  0  0  0  0  0  0  0  0  0  0
   -3.8071   -2.5790   -0.0390 H   0  0  0  0  0  0  0  0  0  0  0  0
   -1.9890   -1.9508    0.9236 C   0  0  0  0  0  0  0  0  0  0  0  0
   -1.0906   -2.6097    1.4212 O   0  0  0  0  0  0  0  0  0  0  0  0
   -1.7107   -0.7399    0.3233 N   0  0  0  0  0  0  0  0  0  0  0  0
   -2.5041   -0.1796    0.0151 H   0  0  0  0  0  0  0  0  0  0  0  0
   -0.3883   -0.0901    0.2879 C   0  0  1  0  0  0  0  0  0  0  0  0
    0.2461   -0.5461    1.0551 H   0  0  0  0  0  0  0  0  0  0  0  0
    0.3250   -0.2574   -1.0752 C   0  0  0  0  0  0  0  0  0  0  0  0
    0.0751    0.5862   -1.7273 H   0  0  0  0  0  0  0  0  0  0  0  0
    1.4038   -0.2186   -0.8925 H   0  0  0  0  0  0  0  0  0  0  0  0
   -0.0120   -1.5484   -1.8371 C   0  0  0  0  0  0  0  0  0  0  0  0
   -0.2065   -2.3605   -1.1305 H   0  0  0  0  0  0  0  0  0  0  0  0
   -0.9086   -1.4094   -2.4488 H   0  0  0  0  0  0  0  0  0  0  0  0
    1.4141   -2.0728   -2.8733 S   0  0  0  0  0  0  0  0  0  0  0  0
    1.5234   -0.7205   -4.1116 C   0  0  0  0  0  0  0  0  0  0  0  0
    1.7490    0.2307   -3.6212 H   0  0  0  0  0  0  0  0  0  0  0  0
    2.3170   -0.9378   -4.8326 H   0  0  0  0  0  0  0  0  0  0  0  0
    0.5767   -0.6235   -4.6513 H   0  0  0  0  0  0  0  0  0  0  0  0
   -0.5104    1.4094    0.6239 C   0  0  0  0  0  0  0  0  0  0  0  0
   -1.4365    2.0634    0.1575 O   0  0  0  0  0  0  0  0  0  0  0  0
    0.3735    2.0089    1.5016 N   0  0  0  0  0  0  0  0  0  0  0  0
    1.0856    1.4216    1.9270 H   0  0  0  0  0  0  0  0  0  0  0  0
    0.2543    3.3964    1.9331 C   0  0  0  0  0  0  0  0  0  0  0  0
   -0.6953    3.5547    2.4551 H   0  0  0  0  0  0  0  0  0  0  0  0
    1.0709    3.6519    2.6153 H   0  0  0  0  0  0  0  0  0  0  0  0
    0.3003    4.0718    1.0722 H   0  0  0  0  0  0  0  0  0  0  0  0
  1  2  1  0  0  0  0
  2  3  1  0  0  0  0
  2  4  1  0  0  0  0
  2  5  1  0  0  0  0
  5  6  2  0  0  0  0
  5  7  1  0  0  0  0
  7  8  1  0  0  0  0
  7  9  1  0  0  0  0
  9 10  1  0  0  0  0
  9 11  1  0  0  0  0
  9 22  1  0  0  0  0
 11 12  1  0  0  0  0
 11 13  1  0  0  0  0
 11 14  1  0  0  0  0
 14 15  1  0  0  0  0
 14 16  1  0  0  0  0
 14 17  1  0  0  0  0
 17 18  1  0  0  0  0
 18 19  1  0  0  0  0
 18 20  1  0  0  0  0
 18 21  1  0  0  0  0
 22 23  2  0  0  0  0
 22 24  1  0  0  0  0
 24 25  1  0  0  0  0
 24 26  1  0  0  0  0
 26 27  1  0  0  0  0
 26 28  1  0  0  0  0
 26 29  1  0  0  0  0
M  END
$$$$

  -OEChem-02102214153D

 29 28  0     1  0  0  0  0  0999 V2000
   -3.4968   -3.4007    1.4961 H   0  0  0  0  0  0  0  0  0  0  0  0
   -3.4461   -2.4403    0.9753 C   0  0  0  0  0  0  0  0  0  0  0  0
   -4.0733   -1.7190    1.5048 H   0  0  0  0  0  0  0  0  0  0  0  0
   -3.8281   -2.5700   -0.0402 H   0  0  0  0  0  0  0  0  0  0  0  0
   -2.0130   -1.9453    0.9300 C   0  0  0  0  0  0  0  0  0  0  0  0
   -1.1218   -2.6088    1.4338 O   0  0  0  0  0  0  0  0  0  0  0  0
   -1.7243   -0.7370    0.3293 N   0  0  0  0  0  0  0  0  0  0  0  0
   -2.5127   -0.1727    0.0162 H   0  0  0  0  0  0  0  0  0  0  0  0
   -0.3966   -0.0981    0.2934 C   0  0  1  0  0  0  0  0  0  0  0  0
    0.2323   -0.5597    1.0619 H   0  0  0  0  0  0  0  0  0  0  0  0
    0.3279   -0.2597   -1.0664 C   0  0  0  0  0  0  0  0  0  0  0  0
    0.0840    0.5918   -1.7110 H   0  0  0  0  0  0  0  0  0  0  0  0
    1.4038   -0.2131   -0.8703 H   0  0  0  0  0  0  0  0  0  0  0  0
    0.0094   -1.5385   -1.8631 C   0  0  0  0  0  0  0  0  0  0  0  0
   -0.4485   -2.2934   -1.2206 H   0  0  0  0  0  0  0  0  0  0  0  0
   -0.6933   -1.3169   -2.6723 H   0  0  0  0  0  0  0  0  0  0  0  0
    1.5538   -2.2858   -2.5256 S   0  0  0  0  0  0  0  0  0  0  0  0
    2.0786   -1.0493   -3.7784 C   0  0  0  0  0  0  0  0  0  0  0  0
    2.2823   -0.0854   -3.3031 H   0  0  0  0  0  0  0  0  0  0  0  0
    2.9888   -1.3898   -4.2812 H   0  0  0  0  0  0  0  0  0  0  0  0
    1.2940   -0.9141   -4.5288 H   0  0  0  0  0  0  0  0  0  0  0  0
   -0.5091    1.4021    0.6297 C   0  0  0  0  0  0  0  0  0  0  0  0
   -1.4274    2.0641    0.1589 O   0  0  0  0  0  0  0  0  0  0  0  0
    0.3789    1.9952    1.5077 N   0  0  0  0  0  0  0  0  0  0  0  0
    1.0874    1.4030    1.9322 H   0  0  0  0  0  0  0  0  0  0  0  0
    0.2735    3.3854    1.9339 C   0  0  0  0  0  0  0  0  0  0  0  0
   -0.6758    3.5557    2.4526 H   0  0  0  0  0  0  0  0  0  0  0  0
    1.0908    3.6344    2.6176 H   0  0  0  0  0  0  0  0  0  0  0  0
    0.3292    4.0570    1.0706 H   0  0  0  0  0  0  0  0  0  0  0  0
  1  2  1  0  0  0  0
  2  3  1  0  0  0  0
  2  4  1  0  0  0  0
  2  5  1  0  0  0  0
  5  6  2  0  0  0  0
  5  7  1  0  0  0  0
  7  8  1  0  0  0  0
  7  9  1  0  0  0  0
  9 10  1  0  0  0  0
  9 11  1  0  0  0  0
  9 22  1  0  0  0  0
 11 12  1  0  0  0  0
 11 13  1  0  0  0  0
 11 14  1  0  0  0  0
 14 15  1  0  0  0  0
 14 16  1  0  0  0  0
 14 17  1  0  0  0  0
 17 18  1  0  0  0  0
 18 19  1  0  0  0  0
 18 20  1  0  0  0  0
 18 21  1  0  0  0  0
 22 23  2  0  0  0  0
 22 24  1  0  0  0  0
 24 25  1  0  0  0  0
 24 26  1  0  0  0  0
 26 27  1  0  0  0  0
 26 28  1  0  0  0  0
 26 29  1  0  0  0  0
M  END
$$$$

  -OEChem-02102214153D

 29 28  0     1  0  0  0  0  0999 V2000
   -3.5174   -3.3854    1.4889 H   0  0  0  0  0  0  0  0  0  0  0  0
   -3.4627   -2.4270    0.9650 C   0  0  0  0  0  0  0  0  0  0  0  0
   -4.0902   -1.7027    1.4899 H   0  0  0  0  0  0  0  0  0  0  0  0
   -3.8420   -2.5593   -0.0511 H   0  0  0  0  0  0  0  0  0  0  0  0
   -2.0281   -1.9360    0.9234 C   0  0  0  0  0  0  0  0  0  0  0  0
   -1.1406   -2.6046    1.4266 O   0  0  0  0  0  0  0  0  0  0  0  0
   -1.7350   -0.7246    0.3306 N   0  0  0  0  0  0  0  0  0  0  0  0
   -2.5206   -0.1550    0.0205 H   0  0  0  0  0  0  0  0  0  0  0  0
   -0.4044   -0.0920    0.3003 C   0  0  1  0  0  0  0  0  0  0  0  0
    0.2175   -0.5590    1.0712 H   0  0  0  0  0  0  0  0  0  0  0  0
    0.3381   -0.2488   -1.0523 C   0  0  0  0  0  0  0  0  0  0  0  0
    0.0778    0.6032   -1.6899 H   0  0  0  0  0  0  0  0  0  0  0  0
    1.4125   -0.1778   -0.8557 H   0  0  0  0  0  0  0  0  0  0  0  0
    0.0425   -1.5191   -1.8768 C   0  0  0  0  0  0  0  0  0  0  0  0
   -0.6761   -2.1708   -1.3781 H   0  0  0  0  0  0  0  0  0  0  0  0
   -0.3864   -1.2421   -2.8449 H   0  0  0  0  0  0  0  0  0  0  0  0
    1.5824   -2.4905   -2.1372 S   0  0  0  0  0  0  0  0  0  0  0  0
    2.5032   -1.4557   -3.3438 C   0  0  0  0  0  0  0  0  0  0  0  0
    2.7119   -0.4682   -2.9227 H   0  0  0  0  0  0  0  0  0  0  0  0
    3.4534   -1.9350   -3.5970 H   0  0  0  0  0  0  0  0  0  0  0  0
    1.9184   -1.3321   -4.2600 H   0  0  0  0  0  0  0  0  0  0  0  0
   -0.5134    1.4063    0.6469 C   0  0  0  0  0  0  0  0  0  0  0  0
   -1.4290    2.0743    0.1795 O   0  0  0  0  0  0  0  0  0  0  0  0
    0.3750    1.9907    1.5304 N   0  0  0  0  0  0  0  0  0  0  0  0
    1.0797    1.3929    1.9534 H   0  0  0  0  0  0  0  0  0  0  0  0
    0.2742    3.3791    1.9634 C   0  0  0  0  0  0  0  0  0  0  0  0
   -0.6780    3.5523    2.4758 H   0  0  0  0  0  0  0  0  0  0  0  0
    1.0878    3.6200    2.6545 H   0  0  0  0  0  0  0  0  0  0  0  0
    0.3402    4.0545    1.1038 H   0  0  0  0  0  0  0  0  0  0  0  0
  1  2  1  0  0  0  0
  2  3  1  0  0  0  0
  2  4  1  0  0  0  0
  2  5  1  0  0  0  0
  5  6  2  0  0  0  0
  5  7  1  0  0  0  0
  7  8  1  0  0  0  0
  7  9  1  0  0  0  0
  9 10  1  0  0  0  0
  9 11  1  0  0  0  0
  9 22  1  0  0  0  0
 11 12  1  0  0  0  0
 11 13  1  0  0  0  0
 11 14  1  0  0  0  0
 14 15  1  0  0  0  0
 14 16  1  0  0  0  0
 14 17  1  0  0  0  0
 17 18  1  0  0  0  0
 18 19  1  0  0  0  0
 18 20  1  0  0  0  0
 18 21  1  0  0  0  0
 22 23  2  0  0  0  0
 22 24  1  0  0  0  0
 24 25  1  0  0  0  0
 24 26  1  0  0  0  0
 26 27  1  0  0  0  0
 26 28  1  0  0  0  0
 26 29  1  0  0  0  0
M  END
$$$$

  -OEChem-02102214153D

 29 28  0     1  0  0  0  0  0999 V2000
   -3.5140   -3.3921    1.4423 H   0  0  0  0  0  0  0  0  0  0  0  0
   -3.4540   -2.4356    0.9153 C   0  0  0  0  0  0  0  0  0  0  0  0
   -4.1072   -1.7164    1.4152 H   0  0  0  0  0  0  0  0  0  0  0  0
   -3.7976   -2.5774   -0.1121 H   0  0  0  0  0  0  0  0  0  0  0  0
   -2.0250   -1.9267    0.9175 C   0  0  0  0  0  0  0  0  0  0  0  0
   -1.1456   -2.5827    1.4501 O   0  0  0  0  0  0  0  0  0  0  0  0
   -1.7326   -0.7103    0.3349 N   0  0  0  0  0  0  0  0  0  0  0  0
   -2.5163   -0.1500    0.0041 H   0  0  0  0  0  0  0  0  0  0  0  0
   -0.4047   -0.0730    0.3194 C   0  0  1  0  0  0  0  0  0  0  0  0
    0.2113   -0.5434    1.0930 H   0  0  0  0  0  0  0  0  0  0  0  0
    0.3538   -0.2226   -1.0255 C   0  0  0  0  0  0  0  0  0  0  0  0
    0.0687    0.6237   -1.6601 H   0  0  0  0  0  0  0  0  0  0  0  0
    1.4274   -0.1266   -0.8377 H   0  0  0  0  0  0  0  0  0  0  0  0
    0.0732   -1.4907   -1.8575 C   0  0  0  0  0  0  0  0  0  0  0  0
   -0.8452   -1.9959   -1.5547 H   0  0  0  0  0  0  0  0  0  0  0  0
   -0.0509   -1.2124   -2.9087 H   0  0  0  0  0  0  0  0  0  0  0  0
    1.4804   -2.6667   -1.7263 S   0  0  0  0  0  0  0  0  0  0  0  0
    2.7420   -1.9049   -2.8229 C   0  0  0  0  0  0  0  0  0  0  0  0
    3.0095   -0.9066   -2.4660 H   0  0  0  0  0  0  0  0  0  0  0  0
    3.6445   -2.5230   -2.8389 H   0  0  0  0  0  0  0  0  0  0  0  0
    2.3567   -1.8227   -3.8435 H   0  0  0  0  0  0  0  0  0  0  0  0
   -0.5198    1.4225    0.6747 C   0  0  0  0  0  0  0  0  0  0  0  0
   -1.4257    2.0948    0.1946 O   0  0  0  0  0  0  0  0  0  0  0  0
    0.3603    2.0033    1.5687 N   0  0  0  0  0  0  0  0  0  0  0  0
    1.0537    1.4010    2.0043 H   0  0  0  0  0  0  0  0  0  0  0  0
    0.2634    3.3937    1.9964 C   0  0  0  0  0  0  0  0  0  0  0  0
   -0.6976    3.5775    2.4882 H   0  0  0  0  0  0  0  0  0  0  0  0
    1.0644    3.6290    2.7038 H   0  0  0  0  0  0  0  0  0  0  0  0
    0.3538    4.0660    1.1367 H   0  0  0  0  0  0  0  0  0  0  0  0
  1  2  1  0  0  0  0
  2  3  1  0  0  0  0
  2  4  1  0  0  0  0
  2  5  1  0  0  0  0
  5  6  2  0  0  0  0
  5  7  1  0  0  0  0
  7  8  1  0  0  0  0
  7  9  1  0  0  0  0
  9 10  1  0  0  0  0
  9 11  1  0  0  0  0
  9 22  1  0  0  0  0
 11 12  1  0  0  0  0
 11 13  1  0  0  0  0
 11 14  1  0  0  0  0
 14 15  1  0  0  0  0
 14 16  1  0  0  0  0
 14 17  1  0  0  0  0
 17 18  1  0  0  0  0
 18 19  1  0  0  0  0
 18 20  1  0  0  0  0
 18 21  1  0  0  0  0
 22 23  2  0  0  0  0
 22 24  1  0  0  0  0
 24 25  1  0  0  0  0
 24 26  1  0  0  0  0
 26 27  1  0  0  0  0
 26 28  1  0  0  0  0
 26 29  1  0  0  0  0
M  END
$$$$

  -OEChem-02102214153D

 29 28  0     1  0  0  0  0  0999 V2000
   -3.4869   -3.4191    1.3804 H   0  0  0  0  0  0  0  0  0  0  0  0
   -3.4269   -2.4597    0.8588 C   0  0  0  0  0  0  0  0  0  0  0  0
   -4.1180   -1.7577    1.3314 H   0  0  0  0  0  0  0  0  0  0  0  0
   -3.7217   -2.6067   -0.1830 H   0  0  0  0  0  0  0  0  0  0  0  0
   -2.0116   -1.9180    0.9244 C   0  0  0  0  0  0  0  0  0  0  0  0
   -1.1489   -2.5430    1.5181 O   0  0  0  0  0  0  0  0  0  0  0  0
   -1.7202   -0.7006    0.3431 N   0  0  0  0  0  0  0  0  0  0  0  0
   -2.4974   -0.1653   -0.0393 H   0  0  0  0  0  0  0  0  0  0  0  0
   -0.3962   -0.0560    0.3377 C   0  0  1  0  0  0  0  0  0  0  0  0
    0.2210   -0.5246    1.1112 H   0  0  0  0  0  0  0  0  0  0  0  0
    0.3597   -0.1999   -1.0088 C   0  0  0  0  0  0  0  0  0  0  0  0
    0.0652    0.6441   -1.6421 H   0  0  0  0  0  0  0  0  0  0  0  0
    1.4341   -0.1015   -0.8297 H   0  0  0  0  0  0  0  0  0  0  0  0
    0.0746   -1.4672   -1.8354 C   0  0  0  0  0  0  0  0  0  0  0  0
   -0.9581   -1.8057   -1.7270 H   0  0  0  0  0  0  0  0  0  0  0  0
    0.2210   -1.2397   -2.8958 H   0  0  0  0  0  0  0  0  0  0  0  0
    1.2339   -2.8169   -1.3740 S   0  0  0  0  0  0  0  0  0  0  0  0
    2.7936   -2.3215   -2.2090 C   0  0  0  0  0  0  0  0  0  0  0  0
    3.1519   -1.3644   -1.8202 H   0  0  0  0  0  0  0  0  0  0  0  0
    3.5651   -3.0777   -2.0361 H   0  0  0  0  0  0  0  0  0  0  0  0
    2.6321   -2.2265   -3.2867 H   0  0  0  0  0  0  0  0  0  0  0  0
   -0.5190    1.4396    0.6904 C   0  0  0  0  0  0  0  0  0  0  0  0
   -1.4137    2.1125    0.1905 O   0  0  0  0  0  0  0  0  0  0  0  0
    0.3525    2.0243    1.5904 N   0  0  0  0  0  0  0  0  0  0  0  0
    1.0376    1.4228    2.0397 H   0  0  0  0  0  0  0  0  0  0  0  0
    0.2546    3.4179    2.0068 C   0  0  0  0  0  0  0  0  0  0  0  0
   -0.7109    3.6073    2.4874 H   0  0  0  0  0  0  0  0  0  0  0  0
    1.0490    3.6565    2.7205 H   0  0  0  0  0  0  0  0  0  0  0  0
    0.3553    4.0836    1.1431 H   0  0  0  0  0  0  0  0  0  0  0  0
  1  2  1  0  0  0  0
  2  3  1  0  0  0  0
  2  4  1  0  0  0  0
  2  5  1  0  0  0  0
  5  6  2  0  0  0  0
  5  7  1  0  0  0  0
  7  8  1  0  0  0  0
  7  9  1  0  0  0  0
  9 10  1  0  0  0  0
  9 11  1  0  0  0  0
  9 22  1  0  0  0  0
 11 12  1  0  0  0  0
 11 13  1  0  0  0  0
 11 14  1  0  0  0  0
 14 15  1  0  0  0  0
 14 16  1  0  0  0  0
 14 17  1  0  0  0  0
 17 18  1  0  0  0  0
 18 19  1  0  0  0  0
 18 20  1  0  0  0  0
 18 21  1  0  0  0  0
 22 23  2  0  0  0  0
 22 24  1  0  0  0  0
 24 25  1  0  0  0  0
 24 26  1  0  0  0  0
 26 27  1  0  0  0  0
 26 28  1  0  0  0  0
 26 29  1  0  0  0  0
M  END
$$$$

  -OEChem-02102214153D

 29 28  0     1  0  0  0  0  0999 V2000
   -3.4313   -3.4636    1.3165 H   0  0  0  0  0  0  0  0  0  0  0  0
   -3.3777   -2.4992    0.8038 C   0  0  0  0  0  0  0  0  0  0  0  0
   -4.1191   -1.8257    1.2401 H   0  0  0  0  0  0  0  0  0  0  0  0
   -3.6080   -2.6501   -0.2534 H   0  0  0  0  0  0  0  0  0  0  0  0
   -1.9892   -1.9070    0.9503 C   0  0  0  0  0  0  0  0  0  0  0  0
   -1.1555   -2.4759    1.6355 O   0  0  0  0  0  0  0  0  0  0  0  0
   -1.7007   -0.6931    0.3605 N   0  0  0  0  0  0  0  0  0  0  0  0
   -2.4649   -0.1969   -0.0929 H   0  0  0  0  0  0  0  0  0  0  0  0
   -0.3781   -0.0465    0.3513 C   0  0  1  0  0  0  0  0  0  0  0  0
    0.2503   -0.5130    1.1171 H   0  0  0  0  0  0  0  0  0  0  0  0
    0.3519   -0.1844   -1.0112 C   0  0  0  0  0  0  0  0  0  0  0  0
    0.0612    0.6655   -1.6382 H   0  0  0  0  0  0  0  0  0  0  0  0
    1.4298   -0.1034   -0.8476 H   0  0  0  0  0  0  0  0  0  0  0  0
    0.0416   -1.4473   -1.8326 C   0  0  0  0  0  0  0  0  0  0  0  0
   -1.0367   -1.6170   -1.8966 H   0  0  0  0  0  0  0  0  0  0  0  0
    0.4012   -1.3030   -2.8560 H   0  0  0  0  0  0  0  0  0  0  0  0
    0.8688   -2.9321   -1.1321 S   0  0  0  0  0  0  0  0  0  0  0  0
    2.6411   -2.6658   -1.5343 C   0  0  0  0  0  0  0  0  0  0  0  0
    3.0280   -1.7888   -1.0087 H   0  0  0  0  0  0  0  0  0  0  0  0
    3.2266   -3.5383   -1.2296 H   0  0  0  0  0  0  0  0  0  0  0  0
    2.7677   -2.5181   -2.6107 H   0  0  0  0  0  0  0  0  0  0  0  0
   -0.5062    1.4513    0.6950 C   0  0  0  0  0  0  0  0  0  0  0  0
   -1.3899    2.1250    0.1763 O   0  0  0  0  0  0  0  0  0  0  0  0
    0.3633    2.0428    1.5924 N   0  0  0  0  0  0  0  0  0  0  0  0
    1.0291    1.4392    2.0671 H   0  0  0  0  0  0  0  0  0  0  0  0
    0.2654    3.4401    1.9963 C   0  0  0  0  0  0  0  0  0  0  0  0
   -0.7040    3.6366    2.4664 H   0  0  0  0  0  0  0  0  0  0  0  0
    1.0541    3.6824    2.7152 H   0  0  0  0  0  0  0  0  0  0  0  0
    0.3762    4.0985    1.1282 H   0  0  0  0  0  0  0  0  0  0  0  0
  1  2  1  0  0  0  0
  2  3  1  0  0  0  0
  2  4  1  0  0  0  0
  2  5  1  0  0  0  0
  5  6  2  0  0  0  0
  5  7  1  0  0  0  0
  7  8  1  0  0  0  0
  7  9  1  0  0  0  0
  9 10  1  0  0  0  0
  9 11  1  0  0  0  0
  9 22  1  0  0  0  0
 11 12  1  0  0  0  0
 11 13  1  0  0  0  0
 11 14  1  0  0  0  0
 14 15  1  0  0  0  0
 14 16  1  0  0  0  0
 14 17  1  0  0  0  0
 17 18  1  0  0  0  0
 18 19  1  0  0  0  0
 18 20  1  0  0  0  0
 18 21  1  0  0  0  0
 22 23  2  0  0  0  0
 22 24  1  0  0  0  0
 24 25  1  0  0  0  0
 24 26  1  0  0  0  0
 26 27  1  0  0  0  0
 26 28  1  0  0  0  0
 26 29  1  0  0  0  0
M  END
$$$$

  -OEChem-02102214153D

 29 28  0     1  0  0  0  0  0999 V2000
   -3.3605   -3.4809    1.3852 H   0  0  0  0  0  0  0  0  0  0  0  0
   -3.2897   -2.5724    0.7807 C   0  0  0  0  0  0  0  0  0  0  0  0
   -4.0740   -1.8790    1.0932 H   0  0  0  0  0  0  0  0  0  0  0  0
   -3.4402   -2.8355   -0.2690 H   0  0  0  0  0  0  0  0  0  0  0  0
   -1.9270   -1.9313    0.9603 C   0  0  0  0  0  0  0  0  0  0  0  0
   -1.1010   -2.4510    1.6945 O   0  0  0  0  0  0  0  0  0  0  0  0
   -1.6621   -0.7139    0.3664 N   0  0  0  0  0  0  0  0  0  0  0  0
   -2.4218   -0.2626   -0.1374 H   0  0  0  0  0  0  0  0  0  0  0  0
   -0.3396   -0.0701    0.3126 C   0  0  1  0  0  0  0  0  0  0  0  0
    0.3258   -0.5466    1.0395 H   0  0  0  0  0  0  0  0  0  0  0  0
    0.3162   -0.1701   -1.0918 C   0  0  0  0  0  0  0  0  0  0  0  0
    0.0145    0.7041   -1.6791 H   0  0  0  0  0  0  0  0  0  0  0  0
    1.4016   -0.1077   -0.9720 H   0  0  0  0  0  0  0  0  0  0  0  0
   -0.0296   -1.3987   -1.9517 C   0  0  0  0  0  0  0  0  0  0  0  0
   -1.1021   -1.4039   -2.1682 H   0  0  0  0  0  0  0  0  0  0  0  0
    0.4932   -1.3096   -2.9091 H   0  0  0  0  0  0  0  0  0  0  0  0
    0.4278   -3.0110   -1.1916 S   0  0  0  0  0  0  0  0  0  0  0  0
    2.1833   -2.8083   -0.6947 C   0  0  0  0  0  0  0  0  0  0  0  0
    2.2701   -2.0700    0.1072 H   0  0  0  0  0  0  0  0  0  0  0  0
    2.5782   -3.7613   -0.3306 H   0  0  0  0  0  0  0  0  0  0  0  0
    2.7849   -2.4816   -1.5478 H   0  0  0  0  0  0  0  0  0  0  0  0
   -0.4582    1.4252    0.6730 C   0  0  0  0  0  0  0  0  0  0  0  0
   -1.3537    2.1062    0.1850 O   0  0  0  0  0  0  0  0  0  0  0  0
    0.4438    2.0086    1.5435 N   0  0  0  0  0  0  0  0  0  0  0  0
    1.1117    1.3961    2.0031 H   0  0  0  0  0  0  0  0  0  0  0  0
    0.3492    3.3973    1.9772 C   0  0  0  0  0  0  0  0  0  0  0  0
   -0.5743    3.5598    2.5426 H   0  0  0  0  0  0  0  0  0  0  0  0
    1.1985    3.6512    2.6187 H   0  0  0  0  0  0  0  0  0  0  0  0
    0.3570    4.0710    1.1137 H   0  0  0  0  0  0  0  0  0  0  0  0
  1  2  1  0  0  0  0
  2  3  1  0  0  0  0
  2  4  1  0  0  0  0
  2  5  1  0  0  0  0
  5  6  2  0  0  0  0
  5  7  1  0  0  0  0
  7  8  1  0  0  0  0
  7  9  1  0  0  0  0
  9 10  1  0  0  0  0
  9 11  1  0  0  0  0
  9 22  1  0  0  0  0
 11 12  1  0  0  0  0
 11 13  1  0  0  0  0
 11 14  1  0  0  0  0
 14 15  1  0  0  0  0
 14 16  1  0  0  0  0
 14 17  1  0  0  0  0
 17 18  1  0  0  0  0
 18 19  1  0  0  0  0
 18 20  1  0  0  0  0
 18 21  1  0  0  0  0
 22 23  2  0  0  0  0
 22 24  1  0  0  0  0
 24 25  1  0  0  0  0
 24 26  1  0  0  0  0
 26 27  1  0  0  0  0
 26 28  1  0  0  0  0
 26 29  1  0  0  0  0
M  END
$$$$

  -OEChem-02102214153D

 29 28  0     1  0  0  0  0  0999 V2000
   -3.3447   -3.4992    1.3863 H   0  0  0  0  0  0  0  0  0  0  0  0
   -3.2902   -2.5662    0.8186 C   0  0  0  0  0  0  0  0  0  0  0  0
   -4.0871   -1.8997    1.1566 H   0  0  0  0  0  0  0  0  0  0  0  0
   -3.4346   -2.7907   -0.2409 H   0  0  0  0  0  0  0  0  0  0  0  0
   -1.9394   -1.9085    1.0255 C   0  0  0  0  0  0  0  0  0  0  0  0
   -1.1347   -2.3978    1.8048 O   0  0  0  0  0  0  0  0  0  0  0  0
   -1.6593   -0.7073    0.4053 N   0  0  0  0  0  0  0  0  0  0  0  0
   -2.3986   -0.2850   -0.1511 H   0  0  0  0  0  0  0  0  0  0  0  0
   -0.3341   -0.0688    0.3636 C   0  0  1  0  0  0  0  0  0  0  0  0
    0.3159   -0.5264    1.1155 H   0  0  0  0  0  0  0  0  0  0  0  0
    0.3575   -0.1714   -1.0275 C   0  0  0  0  0  0  0  0  0  0  0  0
    0.1006    0.7162   -1.6166 H   0  0  0  0  0  0  0  0  0  0  0  0
    1.4370   -0.1300   -0.8524 H   0  0  0  0  0  0  0  0  0  0  0  0
    0.0760   -1.3786   -1.9454 C   0  0  0  0  0  0  0  0  0  0  0  0
   -0.9129   -1.2423   -2.3941 H   0  0  0  0  0  0  0  0  0  0  0  0
    0.8054   -1.3698   -2.7615 H   0  0  0  0  0  0  0  0  0  0  0  0
    0.0993   -3.0424   -1.1622 S   0  0  0  0  0  0  0  0  0  0  0  0
    1.7084   -3.0884   -0.2804 C   0  0  0  0  0  0  0  0  0  0  0  0
    1.7225   -2.3523    0.5275 H   0  0  0  0  0  0  0  0  0  0  0  0
    1.8656   -4.0797    0.1549 H   0  0  0  0  0  0  0  0  0  0  0  0
    2.5276   -2.8739   -0.9726 H   0  0  0  0  0  0  0  0  0  0  0  0
   -0.4702    1.4350    0.6855 C   0  0  0  0  0  0  0  0  0  0  0  0
   -1.3517    2.1027    0.1550 O   0  0  0  0  0  0  0  0  0  0  0  0
    0.4078    2.0445    1.5628 N   0  0  0  0  0  0  0  0  0  0  0  0
    1.0623    1.4465    2.0593 H   0  0  0  0  0  0  0  0  0  0  0  0
    0.2964    3.4440    1.9561 C   0  0  0  0  0  0  0  0  0  0  0  0
   -0.6592    3.6255    2.4593 H   0  0  0  0  0  0  0  0  0  0  0  0
    1.1057    3.7096    2.6430 H   0  0  0  0  0  0  0  0  0  0  0  0
    0.3617    4.0957    1.0785 H   0  0  0  0  0  0  0  0  0  0  0  0
  1  2  1  0  0  0  0
  2  3  1  0  0  0  0
  2  4  1  0  0  0  0
  2  5  1  0  0  0  0
  5  6  2  0  0  0  0
  5  7  1  0  0  0  0
  7  8  1  0  0  0  0
  7  9  1  0  0  0  0
  9 10  1  0  0  0  0
  9 11  1  0  0  0  0
  9 22  1  0  0  0  0
 11 12  1  0  0  0  0
 11 13  1  0  0  0  0
 11 14  1  0  0  0  0
 14 15  1  0  0  0  0
 14 16  1  0  0  0  0
 14 17  1  0  0  0  0
 17 18  1  0  0  0  0
 18 19  1  0  0  0  0
 18 20  1  0  0  0  0
 18 21  1  0  0  0  0
 22 23  2  0  0  0  0
 22 24  1  0  0  0  0
 24 25  1  0  0  0  0
 24 26  1  0  0  0  0
 26 27  1  0  0  0  0
 26 28  1  0  0  0  0
 26 29  1  0  0  0  0
M  END
$$$$

  -OEChem-02102214153D

 29 28  0     1  0  0  0  0  0999 V2000
   -3.4108   -3.4482    1.4392 H   0  0  0  0  0  0  0  0  0  0  0  0
   -3.3530   -2.5030    0.8925 C   0  0  0  0  0  0  0  0  0  0  0  0
   -4.1481   -1.8412    1.2432 H   0  0  0  0  0  0  0  0  0  0  0  0
   -3.4969   -2.7042   -0.1718 H   0  0  0  0  0  0  0  0  0  0  0  0
   -2.0009   -1.8531    1.1154 C   0  0  0  0  0  0  0  0  0  0  0  0
   -1.2214   -2.3263    1.9299 O   0  0  0  0  0  0  0  0  0  0  0  0
   -1.6901   -0.6776    0.4613 N   0  0  0  0  0  0  0  0  0  0  0  0
   -2.4052   -0.2805   -0.1430 H   0  0  0  0  0  0  0  0  0  0  0  0
   -0.3596   -0.0494    0.4308 C   0  0  1  0  0  0  0  0  0  0  0  0
    0.2637   -0.4818    1.2194 H   0  0  0  0  0  0  0  0  0  0  0  0
    0.3945   -0.1838   -0.9296 C   0  0  0  0  0  0  0  0  0  0  0  0
    0.1801    0.7015   -1.5390 H   0  0  0  0  0  0  0  0  0  0  0  0
    1.4610   -0.1418   -0.6878 H   0  0  0  0  0  0  0  0  0  0  0  0
    0.1990   -1.3895   -1.8794 C   0  0  0  0  0  0  0  0  0  0  0  0
   -0.6208   -1.1364   -2.5594 H   0  0  0  0  0  0  0  0  0  0  0  0
    1.0999   -1.4984   -2.4917 H   0  0  0  0  0  0  0  0  0  0  0  0
   -0.2169   -3.0276   -1.1597 S   0  0  0  0  0  0  0  0  0  0  0  0
    1.2250   -3.3718   -0.0757 C   0  0  0  0  0  0  0  0  0  0  0  0
    1.3126   -2.6058    0.6995 H   0  0  0  0  0  0  0  0  0  0  0  0
    1.1004   -4.3430    0.4123 H   0  0  0  0  0  0  0  0  0  0  0  0
    2.1473   -3.3887   -0.6631 H   0  0  0  0  0  0  0  0  0  0  0  0
   -0.5054    1.4653    0.6965 C   0  0  0  0  0  0  0  0  0  0  0  0
   -1.3700    2.1158    0.1190 O   0  0  0  0  0  0  0  0  0  0  0  0
    0.3495    2.1040    1.5759 N   0  0  0  0  0  0  0  0  0  0  0  0
    0.9886    1.5222    2.1102 H   0  0  0  0  0  0  0  0  0  0  0  0
    0.2303    3.5160    1.9195 C   0  0  0  0  0  0  0  0  0  0  0  0
   -0.7411    3.7170    2.3837 H   0  0  0  0  0  0  0  0  0  0  0  0
    1.0169    3.8013    2.6248 H   0  0  0  0  0  0  0  0  0  0  0  0
    0.3284    4.1384    1.0237 H   0  0  0  0  0  0  0  0  0  0  0  0
  1  2  1  0  0  0  0
  2  3  1  0  0  0  0
  2  4  1  0  0  0  0
  2  5  1  0  0  0  0
  5  6  2  0  0  0  0
  5  7  1  0  0  0  0
  7  8  1  0  0  0  0
  7  9  1  0  0  0  0
  9 10  1  0  0  0  0
  9 11  1  0  0  0  0
  9 22  1  0  0  0  0
 11 12  1  0  0  0  0
 11 13  1  0  0  0  0
 11 14  1  0  0  0  0
 14 15  1  0  0  0  0
 14 16  1  0  0  0  0
 14 17  1  0  0  0  0
 17 18  1  0  0  0  0
 18 19  1  0  0  0  0
 18 20  1  0  0  0  0
 18 21  1  0  0  0  0
 22 23  2  0  0  0  0
 22 24  1  0  0  0  0
 24 25  1  0  0  0  0
 24 26  1  0  0  0  0
 26 27  1  0  0  0  0
 26 28  1  0  0  0  0
 26 29  1  0  0  0  0
M  END
$$$$

  -OEChem-02102214153D

 29 28  0     1  0  0  0  0  0999 V2000
   -3.5263   -3.3413    1.5373 H   0  0  0  0  0  0  0  0  0  0  0  0
   -3.4507   -2.4002    0.9856 C   0  0  0  0  0  0  0  0  0  0  0  0
   -4.2321   -1.7210    1.3346 H   0  0  0  0  0  0  0  0  0  0  0  0
   -3.6016   -2.6040   -0.0773 H   0  0  0  0  0  0  0  0  0  0  0  0
   -2.0853   -1.7756    1.2025 C   0  0  0  0  0  0  0  0  0  0  0  0
   -1.3252   -2.2445    2.0375 O   0  0  0  0  0  0  0  0  0  0  0  0
   -1.7399   -0.6279    0.5167 N   0  0  0  0  0  0  0  0  0  0  0  0
   -2.4339   -0.2435   -0.1200 H   0  0  0  0  0  0  0  0  0  0  0  0
   -0.4019   -0.0159    0.4983 C   0  0  1  0  0  0  0  0  0  0  0  0
    0.1879   -0.4251    1.3245 H   0  0  0  0  0  0  0  0  0  0  0  0
    0.4185   -0.1940   -0.8213 C   0  0  0  0  0  0  0  0  0  0  0  0
    0.2317    0.6789   -1.4577 H   0  0  0  0  0  0  0  0  0  0  0  0
    1.4704   -0.1348   -0.5248 H   0  0  0  0  0  0  0  0  0  0  0  0
    0.2993   -1.4119   -1.7753 C   0  0  0  0  0  0  0  0  0  0  0  0
   -0.2650   -1.0745   -2.6508 H   0  0  0  0  0  0  0  0  0  0  0  0
    1.3021   -1.6721   -2.1290 H   0  0  0  0  0  0  0  0  0  0  0  0
   -0.5259   -2.9516   -1.2116 S   0  0  0  0  0  0  0  0  0  0  0  0
    0.7201   -3.6310   -0.0456 C   0  0  0  0  0  0  0  0  0  0  0  0
    0.9563   -2.8980    0.7311 H   0  0  0  0  0  0  0  0  0  0  0  0
    0.3297   -4.5326    0.4357 H   0  0  0  0  0  0  0  0  0  0  0  0
    1.6397   -3.8873   -0.5791 H   0  0  0  0  0  0  0  0  0  0  0  0
   -0.5452    1.5085    0.7071 C   0  0  0  0  0  0  0  0  0  0  0  0
   -1.3911    2.1434    0.0860 O   0  0  0  0  0  0  0  0  0  0  0  0
    0.2901    2.1739    1.5858 N   0  0  0  0  0  0  0  0  0  0  0  0
    0.9162    1.6099    2.1533 H   0  0  0  0  0  0  0  0  0  0  0  0
    0.1767    3.5998    1.8687 C   0  0  0  0  0  0  0  0  0  0  0  0
   -0.7980    3.8255    2.3140 H   0  0  0  0  0  0  0  0  0  0  0  0
    0.9581    3.9101    2.5691 H   0  0  0  0  0  0  0  0  0  0  0  0
    0.2877    4.1836    0.9488 H   0  0  0  0  0  0  0  0  0  0  0  0
  1  2  1  0  0  0  0
  2  3  1  0  0  0  0
  2  4  1  0  0  0  0
  2  5  1  0  0  0  0
  5  6  2  0  0  0  0
  5  7  1  0  0  0  0
  7  8  1  0  0  0  0
  7  9  1  0  0  0  0
  9 10  1  0  0  0  0
  9 11  1  0  0  0  0
  9 22  1  0  0  0  0
 11 12  1  0  0  0  0
 11 13  1  0  0  0  0
 11 14  1  0  0  0  0
 14 15  1  0  0  0  0
 14 16  1  0  0  0  0
 14 17  1  0  0  0  0
 17 18  1  0  0  0  0
 18 19  1  0  0  0  0
 18 20  1  0  0  0  0
 18 21  1  0  0  0  0
 22 23  2  0  0  0  0
 22 24  1  0  0  0  0
 24 25  1  0  0  0  0
 24 26  1  0  0  0  0
 26 27  1  0  0  0  0
 26 28  1  0  0  0  0
 26 29  1  0  0  0  0
M  END
$$$$

  -OEChem-02102214153D

 29 28  0     1  0  0  0  0  0999 V2000
   -3.6445   -3.1396    1.7890 H   0  0  0  0  0  0  0  0  0  0  0  0
   -3.5295   -2.2620    1.1472 C   0  0  0  0  0  0  0  0  0  0  0  0
   -4.2830   -1.5206    1.4230 H   0  0  0  0  0  0  0  0  0  0  0  0
   -3.6868   -2.5632    0.1087 H   0  0  0  0  0  0  0  0  0  0  0  0
   -2.1404   -1.6741    1.3094 C   0  0  0  0  0  0  0  0  0  0  0  0
   -1.3699   -2.1483    2.1319 O   0  0  0  0  0  0  0  0  0  0  0  0
   -1.7822   -0.5549    0.5844 N   0  0  0  0  0  0  0  0  0  0  0  0
   -2.4751   -0.1770   -0.0579 H   0  0  0  0  0  0  0  0  0  0  0  0
   -0.4376    0.0386    0.5443 C   0  0  1  0  0  0  0  0  0  0  0  0
    0.1394   -0.3439    1.3920 H   0  0  0  0  0  0  0  0  0  0  0  0
    0.4058   -0.2000   -0.7516 C   0  0  0  0  0  0  0  0  0  0  0  0
    0.2022    0.6416   -1.4236 H   0  0  0  0  0  0  0  0  0  0  0  0
    1.4553   -0.1037   -0.4556 H   0  0  0  0  0  0  0  0  0  0  0  0
    0.3118   -1.4494   -1.6718 C   0  0  0  0  0  0  0  0  0  0  0  0
    0.0474   -1.0901   -2.6718 H   0  0  0  0  0  0  0  0  0  0  0  0
    1.3132   -1.8837   -1.7536 H   0  0  0  0  0  0  0  0  0  0  0  0
   -0.8533   -2.8179   -1.2945 S   0  0  0  0  0  0  0  0  0  0  0  0
    0.1607   -3.8577   -0.1697 C   0  0  0  0  0  0  0  0  0  0  0  0
    0.5482   -3.2581    0.6591 H   0  0  0  0  0  0  0  0  0  0  0  0
    1.0048   -4.2925   -0.7125 H   0  0  0  0  0  0  0  0  0  0  0  0
   -0.4477   -4.6685    0.2417 H   0  0  0  0  0  0  0  0  0  0  0  0
   -0.5663    1.5704    0.7008 C   0  0  0  0  0  0  0  0  0  0  0  0
   -1.4103    2.1912    0.0631 O   0  0  0  0  0  0  0  0  0  0  0  0
    0.2758    2.2571    1.5561 N   0  0  0  0  0  0  0  0  0  0  0  0
    0.9042    1.7075    2.1353 H   0  0  0  0  0  0  0  0  0  0  0  0
    0.1702    3.6913    1.7958 C   0  0  0  0  0  0  0  0  0  0  0  0
   -0.8045    3.9359    2.2310 H   0  0  0  0  0  0  0  0  0  0  0  0
    0.9513    4.0179    2.4890 H   0  0  0  0  0  0  0  0  0  0  0  0
    0.2875    4.2463    0.8590 H   0  0  0  0  0  0  0  0  0  0  0  0
  1  2  1  0  0  0  0
  2  3  1  0  0  0  0
  2  4  1  0  0  0  0
  2  5  1  0  0  0  0
  5  6  2  0  0  0  0
  5  7  1  0  0  0  0
  7  8  1  0  0  0  0
  7  9  1  0  0  0  0
  9 10  1  0  0  0  0
  9 11  1  0  0  0  0
  9 22  1  0  0  0  0
 11 12  1  0  0  0  0
 11 13  1  0  0  0  0
 11 14  1  0  0  0  0
 14 15  1  0  0  0  0
 14 16  1  0  0  0  0
 14 17  1  0  0  0  0
 17 18  1  0  0  0  0
 18 19  1  0  0  0  0
 18 20  1  0  0  0  0
 18 21  1  0  0  0  0
 22 23  2  0  0  0  0
 22 24  1  0  0  0  0
 24 25  1  0  0  0  0
 24 26  1  0  0  0  0
 26 27  1  0  0  0  0
 26 28  1  0  0  0  0
 26 29  1  0  0  0  0
M  END
$$$$

  -OEChem-02102214153D

 29 28  0     1  0  0  0  0  0999 V2000
   -3.4839   -3.2203    2.1800 H   0  0  0  0  0  0  0  0  0  0  0  0
   -3.4460   -2.3181    1.5635 C   0  0  0  0  0  0  0  0  0  0  0  0
   -4.2290   -1.6310    1.8926 H   0  0  0  0  0  0  0  0  0  0  0  0
   -3.6284   -2.5964    0.5229 H   0  0  0  0  0  0  0  0  0  0  0  0
   -2.0874   -1.6545    1.6909 C   0  0  0  0  0  0  0  0  0  0  0  0
   -1.2797   -2.0735    2.5069 O   0  0  0  0  0  0  0  0  0  0  0  0
   -1.7977   -0.5378    0.9311 N   0  0  0  0  0  0  0  0  0  0  0  0
   -2.5089   -0.2196    0.2771 H   0  0  0  0  0  0  0  0  0  0  0  0
   -0.4962    0.1423    0.8978 C   0  0  1  0  0  0  0  0  0  0  0  0
    0.0728   -0.1649    1.7807 H   0  0  0  0  0  0  0  0  0  0  0  0
    0.4153   -0.1141   -0.3451 C   0  0  0  0  0  0  0  0  0  0  0  0
    0.1429    0.6543   -1.0775 H   0  0  0  0  0  0  0  0  0  0  0  0
    1.4451    0.1018   -0.0433 H   0  0  0  0  0  0  0  0  0  0  0  0
    0.4400   -1.4232   -1.1823 C   0  0  0  0  0  0  0  0  0  0  0  0
    0.5299   -1.1481   -2.2381 H   0  0  0  0  0  0  0  0  0  0  0  0
    1.3616   -1.9481   -0.9116 H   0  0  0  0  0  0  0  0  0  0  0  0
   -0.9082   -2.6646   -1.0373 S   0  0  0  0  0  0  0  0  0  0  0  0
   -0.2786   -4.0105   -2.1150 C   0  0  0  0  0  0  0  0  0  0  0  0
   -0.1349   -3.6441   -3.1359 H   0  0  0  0  0  0  0  0  0  0  0  0
   -0.9932   -4.8387   -2.1369 H   0  0  0  0  0  0  0  0  0  0  0  0
    0.6775   -4.3837   -1.7358 H   0  0  0  0  0  0  0  0  0  0  0  0
   -0.7152    1.6682    0.9956 C   0  0  0  0  0  0  0  0  0  0  0  0
   -1.5807    2.2159    0.3212 O   0  0  0  0  0  0  0  0  0  0  0  0
    0.0676    2.4316    1.8426 N   0  0  0  0  0  0  0  0  0  0  0  0
    0.7098    1.9377    2.4560 H   0  0  0  0  0  0  0  0  0  0  0  0
   -0.1309    3.8626    2.0374 C   0  0  0  0  0  0  0  0  0  0  0  0
   -1.1133    4.0556    2.4810 H   0  0  0  0  0  0  0  0  0  0  0  0
    0.6367    4.2636    2.7063 H   0  0  0  0  0  0  0  0  0  0  0  0
   -0.0652    4.3930    1.0815 H   0  0  0  0  0  0  0  0  0  0  0  0
  1  2  1  0  0  0  0
  2  3  1  0  0  0  0
  2  4  1  0  0  0  0
  2  5  1  0  0  0  0
  5  6  2  0  0  0  0
  5  7  1  0  0  0  0
  7  8  1  0  0  0  0
  7  9  1  0  0  0  0
  9 10  1  0  0  0  0
  9 11  1  0  0  0  0
  9 22  1  0  0  0  0
 11 12  1  0  0  0  0
 11 13  1  0  0  0  0
 11 14  1  0  0  0  0
 14 15  1  0  0  0  0
 14 16  1  0  0  0  0
 14 17  1  0  0  0  0
 17 18  1  0  0  0  0
 18 19  1  0  0  0  0
 18 20  1  0  0  0  0
 18 21  1  0  0  0  0
 22 23  2  0  0  0  0
 22 24  1  0  0  0  0
 24 25  1  0  0  0  0
 24 26  1  0  0  0  0
 26 27  1  0  0  0  0
 26 28  1  0  0  0  0
 26 29  1  0  0  0  0
M  END
$$$$

  -OEChem-02102214153D

 29 28  0     1  0  0  0  0  0999 V2000
   -3.8340   -3.0103    1.6476 H   0  0  0  0  0  0  0  0  0  0  0  0
   -3.6231   -2.2256    0.9160 C   0  0  0  0  0  0  0  0  0  0  0  0
   -3.6150   -2.6672   -0.0834 H   0  0  0  0  0  0  0  0  0  0  0  0
   -4.4140   -1.4737    0.9677 H   0  0  0  0  0  0  0  0  0  0  0  0
   -2.2794   -1.5846    1.2084 C   0  0  0  0  0  0  0  0  0  0  0  0
   -1.5690   -2.0375    2.0944 O   0  0  0  0  0  0  0  0  0  0  0  0
   -1.8784   -0.4778    0.4873 N   0  0  0  0  0  0  0  0  0  0  0  0
   -2.4981   -0.1476   -0.2497 H   0  0  0  0  0  0  0  0  0  0  0  0
   -0.5924    0.2113    0.6460 C   0  0  1  0  0  0  0  0  0  0  0  0
   -0.1769   -0.0726    1.6180 H   0  0  0  0  0  0  0  0  0  0  0  0
    0.5107   -0.0867   -0.4165 C   0  0  0  0  0  0  0  0  0  0  0  0
    0.3589    0.6455   -1.2175 H   0  0  0  0  0  0  0  0  0  0  0  0
    1.4811    0.1429    0.0353 H   0  0  0  0  0  0  0  0  0  0  0  0
    0.6460   -1.4379   -1.1675 C   0  0  0  0  0  0  0  0  0  0  0  0
    1.1562   -1.2528   -2.1181 H   0  0  0  0  0  0  0  0  0  0  0  0
    1.3145   -2.0623   -0.5667 H   0  0  0  0  0  0  0  0  0  0  0  0
   -0.8519   -2.4527   -1.5145 S   0  0  0  0  0  0  0  0  0  0  0  0
   -0.4203   -4.0569   -0.7322 C   0  0  0  0  0  0  0  0  0  0  0  0
    0.4866   -4.4686   -1.1844 H   0  0  0  0  0  0  0  0  0  0  0  0
   -1.2363   -4.7725   -0.8686 H   0  0  0  0  0  0  0  0  0  0  0  0
   -0.2505   -3.9213    0.3406 H   0  0  0  0  0  0  0  0  0  0  0  0
   -0.8244    1.7374    0.6824 C   0  0  0  0  0  0  0  0  0  0  0  0
   -1.5818    2.2672   -0.1229 O   0  0  0  0  0  0  0  0  0  0  0  0
   -0.1857    2.5209    1.6264 N   0  0  0  0  0  0  0  0  0  0  0  0
    0.3680    2.0455    2.3332 H   0  0  0  0  0  0  0  0  0  0  0  0
   -0.4057    3.9569    1.7513 C   0  0  0  0  0  0  0  0  0  0  0  0
   -1.4520    4.1640    2.0003 H   0  0  0  0  0  0  0  0  0  0  0  0
    0.2273    4.3698    2.5428 H   0  0  0  0  0  0  0  0  0  0  0  0
   -0.1596    4.4657    0.8131 H   0  0  0  0  0  0  0  0  0  0  0  0
  1  2  1  0  0  0  0
  2  3  1  0  0  0  0
  2  4  1  0  0  0  0
  2  5  1  0  0  0  0
  5  6  2  0  0  0  0
  5  7  1  0  0  0  0
  7  8  1  0  0  0  0
  7  9  1  0  0  0  0
  9 10  1  0  0  0  0
  9 11  1  0  0  0  0
  9 22  1  0  0  0  0
 11 12  1  0  0  0  0
 11 13  1  0  0  0  0
 11 14  1  0  0  0  0
 14 15  1  0  0  0  0
 14 16  1  0  0  0  0
 14 17  1  0  0  0  0
 17 18  1  0  0  0  0
 18 19  1  0  0  0  0
 18 20  1  0  0  0  0
 18 21  1  0  0  0  0
 22 23  2  0  0  0  0
 22 24  1  0  0  0  0
 24 25  1  0  0  0  0
 24 26  1  0  0  0  0
 26 27  1  0  0  0  0
 26 28  1  0  0  0  0
 26 29  1  0  0  0  0
M  END
$$$$

  -OEChem-02102214153D

 29 28  0     1  0  0  0  0  0999 V2000
   -3.7259   -2.7240    2.4641 H   0  0  0  0  0  0  0  0  0  0  0  0
   -3.6109   -1.9480    1.7025 C   0  0  0  0  0  0  0  0  0  0  0  0
   -4.2986   -1.1294    1.9271 H   0  0  0  0  0  0  0  0  0  0  0  0
   -3.8650   -2.3700    0.7273 H   0  0  0  0  0  0  0  0  0  0  0  0
   -2.1826   -1.4362    1.6889 C   0  0  0  0  0  0  0  0  0  0  0  0
   -1.3353   -1.9763    2.3847 O   0  0  0  0  0  0  0  0  0  0  0  0
   -1.8540   -0.3463    0.9087 N   0  0  0  0  0  0  0  0  0  0  0  0
   -2.5840    0.0408    0.3144 H   0  0  0  0  0  0  0  0  0  0  0  0
   -0.5026    0.2039    0.7578 C   0  0  1  0  0  0  0  0  0  0  0  0
    0.1034   -0.1586    1.5941 H   0  0  0  0  0  0  0  0  0  0  0  0
    0.2550   -0.1884   -0.5451 C   0  0  0  0  0  0  0  0  0  0  0  0
    0.0073    0.5737   -1.2923 H   0  0  0  0  0  0  0  0  0  0  0  0
    1.3284   -0.1025   -0.3493 H   0  0  0  0  0  0  0  0  0  0  0  0
    0.0062   -1.5384   -1.2612 C   0  0  0  0  0  0  0  0  0  0  0  0
    0.4959   -1.5060   -2.2395 H   0  0  0  0  0  0  0  0  0  0  0  0
    0.5065   -2.3129   -0.6710 H   0  0  0  0  0  0  0  0  0  0  0  0
   -1.7363   -2.0884   -1.5029 S   0  0  0  0  0  0  0  0  0  0  0  0
   -1.4908   -3.7788   -2.1738 C   0  0  0  0  0  0  0  0  0  0  0  0
   -0.9541   -4.3994   -1.4499 H   0  0  0  0  0  0  0  0  0  0  0  0
   -2.4587   -4.2436   -2.3837 H   0  0  0  0  0  0  0  0  0  0  0  0
   -0.9129   -3.7387   -3.1018 H   0  0  0  0  0  0  0  0  0  0  0  0
   -0.5391    1.7428    0.8703 C   0  0  0  0  0  0  0  0  0  0  0  0
   -1.4004    2.3864    0.2817 O   0  0  0  0  0  0  0  0  0  0  0  0
    0.3971    2.4100    1.6394 N   0  0  0  0  0  0  0  0  0  0  0  0
    1.0401    1.8453    2.1868 H   0  0  0  0  0  0  0  0  0  0  0  0
    0.3758    3.8528    1.8478 C   0  0  0  0  0  0  0  0  0  0  0  0
   -0.5329    4.1489    2.3822 H   0  0  0  0  0  0  0  0  0  0  0  0
    1.2430    4.1620    2.4392 H   0  0  0  0  0  0  0  0  0  0  0  0
    0.4083    4.3805    0.8888 H   0  0  0  0  0  0  0  0  0  0  0  0
  1  2  1  0  0  0  0
  2  3  1  0  0  0  0
  2  4  1  0  0  0  0
  2  5  1  0  0  0  0
  5  6  2  0  0  0  0
  5  7  1  0  0  0  0
  7  8  1  0  0  0  0
  7  9  1  0  0  0  0
  9 10  1  0  0  0  0
  9 11  1  0  0  0  0
  9 22  1  0  0  0  0
 11 12  1  0  0  0  0
 11 13  1  0  0  0  0
 11 14  1  0  0  0  0
 14 15  1  0  0  0  0
 14 16  1  0  0  0  0
 14 17  1  0  0  0  0
 17 18  1  0  0  0  0
 18 19  1  0  0  0  0
 18 20  1  0  0  0  0
 18 21  1  0  0  0  0
 22 23  2  0  0  0  0
 22 24  1  0  0  0  0
 24 25  1  0  0  0  0
 24 26  1  0  0  0  0
 26 27  1  0  0  0  0
 26 28  1  0  0  0  0
 26 29  1  0  0  0  0
M  END
$$$$

  -OEChem-02102214153D

 29 28  0     1  0  0  0  0  0999 V2000
   -2.0085   -3.8377    2.8672 H   0  0  0  0  0  0  0  0  0  0  0  0
   -2.3470   -3.0095    2.2384 C   0  0  0  0  0  0  0  0  0  0  0  0
   -3.0730   -2.4154    2.7985 H   0  0  0  0  0  0  0  0  0  0  0  0
   -2.8302   -3.4186    1.3477 H   0  0  0  0  0  0  0  0  0  0  0  0
   -1.1687   -2.1435    1.8344 C   0  0  0  0  0  0  0  0  0  0  0  0
   -0.0387   -2.4471    2.1861 O   0  0  0  0  0  0  0  0  0  0  0  0
   -1.3801   -1.0074    1.0807 N   0  0  0  0  0  0  0  0  0  0  0  0
   -2.3330   -0.8195    0.7777 H   0  0  0  0  0  0  0  0  0  0  0  0
   -0.3195   -0.1379    0.5575 C   0  0  1  0  0  0  0  0  0  0  0  0
    0.5998   -0.3392    1.1163 H   0  0  0  0  0  0  0  0  0  0  0  0
    0.0028   -0.3458   -0.9486 C   0  0  0  0  0  0  0  0  0  0  0  0
   -0.6096    0.3484   -1.5326 H   0  0  0  0  0  0  0  0  0  0  0  0
    1.0453   -0.0527   -1.1089 H   0  0  0  0  0  0  0  0  0  0  0  0
   -0.1997   -1.7460   -1.5690 C   0  0  0  0  0  0  0  0  0  0  0  0
    0.1154   -1.7078   -2.6164 H   0  0  0  0  0  0  0  0  0  0  0  0
    0.4620   -2.4502   -1.0538 H   0  0  0  0  0  0  0  0  0  0  0  0
   -1.9159   -2.4291   -1.5107 S   0  0  0  0  0  0  0  0  0  0  0  0
   -2.9433   -1.0665   -2.1930 C   0  0  0  0  0  0  0  0  0  0  0  0
   -2.5665   -0.7618   -3.1737 H   0  0  0  0  0  0  0  0  0  0  0  0
   -2.9268   -0.2005   -1.5243 H   0  0  0  0  0  0  0  0  0  0  0  0
   -3.9797   -1.3984   -2.3044 H   0  0  0  0  0  0  0  0  0  0  0  0
   -0.6773    1.3433    0.7963 C   0  0  0  0  0  0  0  0  0  0  0  0
   -1.8032    1.7523    0.5334 O   0  0  0  0  0  0  0  0  0  0  0  0
    0.2701    2.2253    1.2830 N   0  0  0  0  0  0  0  0  0  0  0  0
    1.1672    1.8400    1.5645 H   0  0  0  0  0  0  0  0  0  0  0  0
   -0.0204    3.6227    1.5807 C   0  0  0  0  0  0  0  0  0  0  0  0
   -0.7671    3.6969    2.3782 H   0  0  0  0  0  0  0  0  0  0  0  0
    0.8883    4.1372    1.9074 H   0  0  0  0  0  0  0  0  0  0  0  0
   -0.4033    4.1332    0.6907 H   0  0  0  0  0  0  0  0  0  0  0  0
  1  2  1  0  0  0  0
  2  3  1  0  0  0  0
  2  4  1  0  0  0  0
  2  5  1  0  0  0  0
  5  6  2  0  0  0  0
  5  7  1  0  0  0  0
  7  8  1  0  0  0  0
  7  9  1  0  0  0  0
  9 10  1  0  0  0  0
  9 11  1  0  0  0  0
  9 22  1  0  0  0  0
 11 12  1  0  0  0  0
 11 13  1  0  0  0  0
 11 14  1  0  0  0  0
 14 15  1  0  0  0  0
 14 16  1  0  0  0  0
 14 17  1  0  0  0  0
 17 18  1  0  0  0  0
 18 19  1  0  0  0  0
 18 20  1  0  0  0  0
 18 21  1  0  0  0  0
 22 23  2  0  0  0  0
 22 24  1  0  0  0  0
 24 25  1  0  0  0  0
 24 26  1  0  0  0  0
 26 27  1  0  0  0  0
 26 28  1  0  0  0  0
 26 29  1  0  0  0  0
M  END
$$$$

  -OEChem-02102214153D

 29 28  0     1  0  0  0  0  0999 V2000
   -3.5576   -2.8920    2.1713 H   0  0  0  0  0  0  0  0  0  0  0  0
   -3.5125   -1.9496    1.6187 C   0  0  0  0  0  0  0  0  0  0  0  0
   -4.1295   -1.2088    2.1327 H   0  0  0  0  0  0  0  0  0  0  0  0
   -3.9104   -2.1106    0.6137 H   0  0  0  0  0  0  0  0  0  0  0  0
   -2.0792   -1.4609    1.5334 C   0  0  0  0  0  0  0  0  0  0  0  0
   -1.1818   -2.1020    2.0590 O   0  0  0  0  0  0  0  0  0  0  0  0
   -1.7913   -0.3114    0.8294 N   0  0  0  0  0  0  0  0  0  0  0  0
   -2.5652    0.1542    0.3588 H   0  0  0  0  0  0  0  0  0  0  0  0
   -0.4460    0.2307    0.5941 C   0  0  1  0  0  0  0  0  0  0  0  0
    0.2349   -0.2230    1.3209 H   0  0  0  0  0  0  0  0  0  0  0  0
    0.1044   -0.0994   -0.8173 C   0  0  0  0  0  0  0  0  0  0  0  0
   -0.1668    0.7096   -1.5046 H   0  0  0  0  0  0  0  0  0  0  0  0
    1.1970   -0.1209   -0.7590 H   0  0  0  0  0  0  0  0  0  0  0  0
   -0.3814   -1.4165   -1.4483 C   0  0  0  0  0  0  0  0  0  0  0  0
    0.2698   -1.6669   -2.2917 H   0  0  0  0  0  0  0  0  0  0  0  0
   -0.2964   -2.2248   -0.7143 H   0  0  0  0  0  0  0  0  0  0  0  0
   -2.1155   -1.3125   -2.0651 S   0  0  0  0  0  0  0  0  0  0  0  0
   -2.4062   -3.0478   -2.5871 C   0  0  0  0  0  0  0  0  0  0  0  0
   -1.6998   -3.3314   -3.3729 H   0  0  0  0  0  0  0  0  0  0  0  0
   -3.4234   -3.1581   -2.9742 H   0  0  0  0  0  0  0  0  0  0  0  0
   -2.2788   -3.7250   -1.7373 H   0  0  0  0  0  0  0  0  0  0  0  0
   -0.4024    1.7525    0.8394 C   0  0  0  0  0  0  0  0  0  0  0  0
   -1.2955    2.4732    0.4101 O   0  0  0  0  0  0  0  0  0  0  0  0
    0.6343    2.3155    1.5614 N   0  0  0  0  0  0  0  0  0  0  0  0
    1.3204    1.6857    1.9672 H   0  0  0  0  0  0  0  0  0  0  0  0
    0.7051    3.7364    1.8803 C   0  0  0  0  0  0  0  0  0  0  0  0
   -0.1463    4.0319    2.5025 H   0  0  0  0  0  0  0  0  0  0  0  0
    1.6270    3.9564    2.4272 H   0  0  0  0  0  0  0  0  0  0  0  0
    0.6969    4.3362    0.9640 H   0  0  0  0  0  0  0  0  0  0  0  0
  1  2  1  0  0  0  0
  2  3  1  0  0  0  0
  2  4  1  0  0  0  0
  2  5  1  0  0  0  0
  5  6  2  0  0  0  0
  5  7  1  0  0  0  0
  7  8  1  0  0  0  0
  7  9  1  0  0  0  0
  9 10  1  0  0  0  0
  9 11  1  0  0  0  0
  9 22  1  0  0  0  0
 11 12  1  0  0  0  0
 11 13  1  0  0  0  0
 11 14  1  0  0  0  0
 14 15  1  0  0  0  0
 14 16  1  0  0  0  0
 14 17  1  0  0  0  0
 17 18  1  0  0  0  0
 18 19  1  0  0  0  0
 18 20  1  0  0  0  0
 18 21  1  0  0  0  0
 22 23  2  0  0  0  0
 22 24  1  0  0  0  0
 24 25  1  0  0  0  0
 24 26  1  0  0  0  0
 26 27  1  0  0  0  0
 26 28  1  0  0  0  0
 26 29  1  0  0  0  0
M  END
$$$$

  -OEChem-02102214153D

 29 28  0     1  0  0  0  0  0999 V2000
   -3.6263   -2.9546    0.7584 H   0  0  0  0  0  0  0  0  0  0  0  0
   -3.1245   -2.8616    1.7249 C   0  0  0  0  0  0  0  0  0  0  0  0
   -3.7632   -2.2941    2.4061 H   0  0  0  0  0  0  0  0  0  0  0  0
   -2.9673   -3.8618    2.1379 H   0  0  0  0  0  0  0  0  0  0  0  0
   -1.7954   -2.1524    1.5506 C   0  0  0  0  0  0  0  0  0  0  0  0
   -0.7620   -2.6831    1.9283 O   0  0  0  0  0  0  0  0  0  0  0  0
   -1.7568   -0.9119    0.9504 N   0  0  0  0  0  0  0  0  0  0  0  0
   -2.6402   -0.5216    0.6266 H   0  0  0  0  0  0  0  0  0  0  0  0
   -0.5382   -0.1409    0.6572 C   0  0  1  0  0  0  0  0  0  0  0  0
    0.2855   -0.5490    1.2516 H   0  0  0  0  0  0  0  0  0  0  0  0
   -0.1368   -0.2346   -0.8360 C   0  0  0  0  0  0  0  0  0  0  0  0
   -0.5834    0.5990   -1.3865 H   0  0  0  0  0  0  0  0  0  0  0  0
    0.9489   -0.1131   -0.8990 H   0  0  0  0  0  0  0  0  0  0  0  0
   -0.5245   -1.5484   -1.5386 C   0  0  0  0  0  0  0  0  0  0  0  0
    0.1943   -1.7476   -2.3392 H   0  0  0  0  0  0  0  0  0  0  0  0
   -0.4640   -2.3911   -0.8434 H   0  0  0  0  0  0  0  0  0  0  0  0
   -2.2024   -1.4505   -2.2931 S   0  0  0  0  0  0  0  0  0  0  0  0
   -1.9379   -0.3793   -3.7628 C   0  0  0  0  0  0  0  0  0  0  0  0
   -1.6209    0.6221   -3.4586 H   0  0  0  0  0  0  0  0  0  0  0  0
   -2.8682   -0.2901   -4.3317 H   0  0  0  0  0  0  0  0  0  0  0  0
   -1.1709   -0.8104   -4.4127 H   0  0  0  0  0  0  0  0  0  0  0  0
   -0.7042    1.3382    1.0613 C   0  0  0  0  0  0  0  0  0  0  0  0
   -1.7328    1.9420    0.7797 O   0  0  0  0  0  0  0  0  0  0  0  0
    0.3012    1.9946    1.7478 N   0  0  0  0  0  0  0  0  0  0  0  0
    1.1067    1.4471    2.0371 H   0  0  0  0  0  0  0  0  0  0  0  0
    0.1820    3.3717    2.2119 C   0  0  0  0  0  0  0  0  0  0  0  0
   -0.6591    3.4713    2.9060 H   0  0  0  0  0  0  0  0  0  0  0  0
    1.0960    3.6767    2.7304 H   0  0  0  0  0  0  0  0  0  0  0  0
    0.0230    4.0488    1.3661 H   0  0  0  0  0  0  0  0  0  0  0  0
  1  2  1  0  0  0  0
  2  3  1  0  0  0  0
  2  4  1  0  0  0  0
  2  5  1  0  0  0  0
  5  6  2  0  0  0  0
  5  7  1  0  0  0  0
  7  8  1  0  0  0  0
  7  9  1  0  0  0  0
  9 10  1  0  0  0  0
  9 11  1  0  0  0  0
  9 22  1  0  0  0  0
 11 12  1  0  0  0  0
 11 13  1  0  0  0  0
 11 14  1  0  0  0  0
 14 15  1  0  0  0  0
 14 16  1  0  0  0  0
 14 17  1  0  0  0  0
 17 18  1  0  0  0  0
 18 19  1  0  0  0  0
 18 20  1  0  0  0  0
 18 21  1  0  0  0  0
 22 23  2  0  0  0  0
 22 24  1  0  0  0  0
 24 25  1  0  0  0  0
 24 26  1  0  0  0  0
 26 27  1  0  0  0  0
 26 28  1  0  0  0  0
 26 29  1  0  0  0  0
M  END
$$$$

  -OEChem-02102214153D

 29 28  0     1  0  0  0  0  0999 V2000
   -3.3181   -3.4815    1.7367 H   0  0  0  0  0  0  0  0  0  0  0  0
   -3.3062   -2.5732    1.1277 C   0  0  0  0  0  0  0  0  0  0  0  0
   -3.9669   -1.8340    1.5870 H   0  0  0  0  0  0  0  0  0  0  0  0
   -3.6773   -2.8136    0.1286 H   0  0  0  0  0  0  0  0  0  0  0  0
   -1.8953   -2.0239    1.0359 C   0  0  0  0  0  0  0  0  0  0  0  0
   -0.9607   -2.6566    1.5009 O   0  0  0  0  0  0  0  0  0  0  0  0
   -1.6711   -0.8088    0.4225 N   0  0  0  0  0  0  0  0  0  0  0  0
   -2.4882   -0.2708    0.1394 H   0  0  0  0  0  0  0  0  0  0  0  0
   -0.3722   -0.1210    0.3524 C   0  0  1  0  0  0  0  0  0  0  0  0
    0.2850   -0.5463    1.1181 H   0  0  0  0  0  0  0  0  0  0  0  0
    0.3495   -0.2643   -1.0129 C   0  0  0  0  0  0  0  0  0  0  0  0
    0.0874    0.5836   -1.6548 H   0  0  0  0  0  0  0  0  0  0  0  0
    1.4256   -0.1927   -0.8269 H   0  0  0  0  0  0  0  0  0  0  0  0
    0.0816   -1.5597   -1.8033 C   0  0  0  0  0  0  0  0  0  0  0  0
    1.0336   -1.9292   -2.1969 H   0  0  0  0  0  0  0  0  0  0  0  0
   -0.3118   -2.3465   -1.1552 H   0  0  0  0  0  0  0  0  0  0  0  0
   -1.0476   -1.2952   -3.2393 S   0  0  0  0  0  0  0  0  0  0  0  0
   -2.5563   -0.4683   -2.5966 C   0  0  0  0  0  0  0  0  0  0  0  0
   -2.2993    0.4667   -2.0904 H   0  0  0  0  0  0  0  0  0  0  0  0
   -3.2337   -0.2370   -3.4238 H   0  0  0  0  0  0  0  0  0  0  0  0
   -3.0778   -1.1251   -1.8960 H   0  0  0  0  0  0  0  0  0  0  0  0
   -0.5495    1.3740    0.6856 C   0  0  0  0  0  0  0  0  0  0  0  0
   -1.5207    1.9814    0.2479 O   0  0  0  0  0  0  0  0  0  0  0  0
    0.3259    2.0161    1.5417 N   0  0  0  0  0  0  0  0  0  0  0  0
    1.0844    1.4690    1.9392 H   0  0  0  0  0  0  0  0  0  0  0  0
    0.1599    3.4023    1.9620 C   0  0  0  0  0  0  0  0  0  0  0  0
   -0.7921    3.5319    2.4878 H   0  0  0  0  0  0  0  0  0  0  0  0
    0.9701    3.6925    2.6377 H   0  0  0  0  0  0  0  0  0  0  0  0
    0.1775    4.0706    1.0946 H   0  0  0  0  0  0  0  0  0  0  0  0
  1  2  1  0  0  0  0
  2  3  1  0  0  0  0
  2  4  1  0  0  0  0
  2  5  1  0  0  0  0
  5  6  2  0  0  0  0
  5  7  1  0  0  0  0
  7  8  1  0  0  0  0
  7  9  1  0  0  0  0
  9 10  1  0  0  0  0
  9 11  1  0  0  0  0
  9 22  1  0  0  0  0
 11 12  1  0  0  0  0
 11 13  1  0  0  0  0
 11 14  1  0  0  0  0
 14 15  1  0  0  0  0
 14 16  1  0  0  0  0
 14 17  1  0  0  0  0
 17 18  1  0  0  0  0
 18 19  1  0  0  0  0
 18 20  1  0  0  0  0
 18 21  1  0  0  0  0
 22 23  2  0  0  0  0
 22 24  1  0  0  0  0
 24 25  1  0  0  0  0
 24 26  1  0  0  0  0
 26 27  1  0  0  0  0
 26 28  1  0  0  0  0
 26 29  1  0  0  0  0
M  END
$$$$

  -OEChem-02102214153D

 29 28  0     1  0  0  0  0  0999 V2000
   -3.4003   -3.4429    1.5659 H   0  0  0  0  0  0  0  0  0  0  0  0
   -3.3686   -2.4913    1.0282 C   0  0  0  0  0  0  0  0  0  0  0  0
   -4.0033   -1.7712    1.5502 H   0  0  0  0  0  0  0  0  0  0  0  0
   -3.7560   -2.6440    0.0180 H   0  0  0  0  0  0  0  0  0  0  0  0
   -1.9440   -1.9755    0.9624 C   0  0  0  0  0  0  0  0  0  0  0  0
   -1.0292   -2.6382    1.4244 O   0  0  0  0  0  0  0  0  0  0  0  0
   -1.6843   -0.7585    0.3675 N   0  0  0  0  0  0  0  0  0  0  0  0
   -2.4866   -0.1964    0.0876 H   0  0  0  0  0  0  0  0  0  0  0  0
   -0.3704   -0.0936    0.3331 C   0  0  1  0  0  0  0  0  0  0  0  0
    0.2650   -0.5409    1.1046 H   0  0  0  0  0  0  0  0  0  0  0  0
    0.3696   -0.2337   -1.0221 C   0  0  0  0  0  0  0  0  0  0  0  0
    0.1176    0.6285   -1.6486 H   0  0  0  0  0  0  0  0  0  0  0  0
    1.4454   -0.1714   -0.8307 H   0  0  0  0  0  0  0  0  0  0  0  0
    0.0933   -1.5146   -1.8374 C   0  0  0  0  0  0  0  0  0  0  0  0
    1.0410   -2.0400   -1.9920 H   0  0  0  0  0  0  0  0  0  0  0  0
   -0.5638   -2.2122   -1.3160 H   0  0  0  0  0  0  0  0  0  0  0  0
   -0.6195   -1.1093   -3.4849 S   0  0  0  0  0  0  0  0  0  0  0  0
   -2.2636   -0.4150   -3.0461 C   0  0  0  0  0  0  0  0  0  0  0  0
   -2.1502    0.4903   -2.4421 H   0  0  0  0  0  0  0  0  0  0  0  0
   -2.8161   -0.1588   -3.9549 H   0  0  0  0  0  0  0  0  0  0  0  0
   -2.8437   -1.1482   -2.4785 H   0  0  0  0  0  0  0  0  0  0  0  0
   -0.5296    1.4006    0.6792 C   0  0  0  0  0  0  0  0  0  0  0  0
   -1.4801    2.0290    0.2259 O   0  0  0  0  0  0  0  0  0  0  0  0
    0.3366    2.0194    1.5613 N   0  0  0  0  0  0  0  0  0  0  0  0
    1.0799    1.4576    1.9667 H   0  0  0  0  0  0  0  0  0  0  0  0
    0.1938    3.4094    1.9778 C   0  0  0  0  0  0  0  0  0  0  0  0
   -0.7720    3.5651    2.4701 H   0  0  0  0  0  0  0  0  0  0  0  0
    0.9875    3.6771    2.6819 H   0  0  0  0  0  0  0  0  0  0  0  0
    0.2598    4.0775    1.1126 H   0  0  0  0  0  0  0  0  0  0  0  0
  1  2  1  0  0  0  0
  2  3  1  0  0  0  0
  2  4  1  0  0  0  0
  2  5  1  0  0  0  0
  5  6  2  0  0  0  0
  5  7  1  0  0  0  0
  7  8  1  0  0  0  0
  7  9  1  0  0  0  0
  9 10  1  0  0  0  0
  9 11  1  0  0  0  0
  9 22  1  0  0  0  0
 11 12  1  0  0  0  0
 11 13  1  0  0  0  0
 11 14  1  0  0  0  0
 14 15  1  0  0  0  0
 14 16  1  0  0  0  0
 14 17  1  0  0  0  0
 17 18  1  0  0  0  0
 18 19  1  0  0  0  0
 18 20  1  0  0  0  0
 18 21  1  0  0  0  0
 22 23  2  0  0  0  0
 22 24  1  0  0  0  0
 24 25  1  0  0  0  0
 24 26  1  0  0  0  0
 26 27  1  0  0  0  0
 26 28  1  0  0  0  0
 26 29  1  0  0  0  0
M  END
$$$$

  -OEChem-02102214153D

 29 28  0     1  0  0  0  0  0999 V2000
   -3.4184   -3.4220    1.5423 H   0  0  0  0  0  0  0  0  0  0  0  0
   -3.3857   -2.4652    1.0137 C   0  0  0  0  0  0  0  0  0  0  0  0
   -4.0104   -1.7463    1.5493 H   0  0  0  0  0  0  0  0  0  0  0  0
   -3.7847   -2.6050    0.0061 H   0  0  0  0  0  0  0  0  0  0  0  0
   -1.9583   -1.9580    0.9382 C   0  0  0  0  0  0  0  0  0  0  0  0
   -1.0430   -2.6339    1.3795 O   0  0  0  0  0  0  0  0  0  0  0  0
   -1.6961   -0.7353    0.3558 N   0  0  0  0  0  0  0  0  0  0  0  0
   -2.4969   -0.1651    0.0878 H   0  0  0  0  0  0  0  0  0  0  0  0
   -0.3799   -0.0754    0.3292 C   0  0  1  0  0  0  0  0  0  0  0  0
    0.2487   -0.5311    1.1010 H   0  0  0  0  0  0  0  0  0  0  0  0
    0.3713   -0.2145   -1.0196 C   0  0  0  0  0  0  0  0  0  0  0  0
    0.0954    0.6442   -1.6399 H   0  0  0  0  0  0  0  0  0  0  0  0
    1.4477   -0.1318   -0.8392 H   0  0  0  0  0  0  0  0  0  0  0  0
    0.1026   -1.4917   -1.8439 C   0  0  0  0  0  0  0  0  0  0  0  0
    0.9608   -2.1641   -1.7470 H   0  0  0  0  0  0  0  0  0  0  0  0
   -0.7711   -2.0439   -1.4956 H   0  0  0  0  0  0  0  0  0  0  0  0
   -0.1561   -1.0757   -3.6165 S   0  0  0  0  0  0  0  0  0  0  0  0
   -1.8341   -0.3257   -3.5899 C   0  0  0  0  0  0  0  0  0  0  0  0
   -1.8498    0.5631   -2.9522 H   0  0  0  0  0  0  0  0  0  0  0  0
   -2.1282   -0.0329   -4.6021 H   0  0  0  0  0  0  0  0  0  0  0  0
   -2.5641   -1.0451   -3.2076 H   0  0  0  0  0  0  0  0  0  0  0  0
   -0.5269    1.4166    0.6902 C   0  0  0  0  0  0  0  0  0  0  0  0
   -1.4703    2.0586    0.2416 O   0  0  0  0  0  0  0  0  0  0  0  0
    0.3455    2.0182    1.5782 N   0  0  0  0  0  0  0  0  0  0  0  0
    1.0869    1.4465    1.9732 H   0  0  0  0  0  0  0  0  0  0  0  0
    0.2251    3.4088    1.9994 C   0  0  0  0  0  0  0  0  0  0  0  0
   -0.7402    3.5799    2.4874 H   0  0  0  0  0  0  0  0  0  0  0  0
    1.0198    3.6595    2.7085 H   0  0  0  0  0  0  0  0  0  0  0  0
    0.3075    4.0784    1.1369 H   0  0  0  0  0  0  0  0  0  0  0  0
  1  2  1  0  0  0  0
  2  3  1  0  0  0  0
  2  4  1  0  0  0  0
  2  5  1  0  0  0  0
  5  6  2  0  0  0  0
  5  7  1  0  0  0  0
  7  8  1  0  0  0  0
  7  9  1  0  0  0  0
  9 10  1  0  0  0  0
  9 11  1  0  0  0  0
  9 22  1  0  0  0  0
 11 12  1  0  0  0  0
 11 13  1  0  0  0  0
 11 14  1  0  0  0  0
 14 15  1  0  0  0  0
 14 16  1  0  0  0  0
 14 17  1  0  0  0  0
 17 18  1  0  0  0  0
 18 19  1  0  0  0  0
 18 20  1  0  0  0  0
 18 21  1  0  0  0  0
 22 23  2  0  0  0  0
 22 24  1  0  0  0  0
 24 25  1  0  0  0  0
 24 26  1  0  0  0  0
 26 27  1  0  0  0  0
 26 28  1  0  0  0  0
 26 29  1  0  0  0  0
M  END
$$$$

  -OEChem-02102214153D

 29 28  0     1  0  0  0  0  0999 V2000
   -3.4212   -3.4145    1.5176 H   0  0  0  0  0  0  0  0  0  0  0  0
   -3.3891   -2.4545    0.9944 C   0  0  0  0  0  0  0  0  0  0  0  0
   -4.0125   -1.7385    1.5356 H   0  0  0  0  0  0  0  0  0  0  0  0
   -3.7903   -2.5888   -0.0131 H   0  0  0  0  0  0  0  0  0  0  0  0
   -1.9615   -1.9476    0.9182 C   0  0  0  0  0  0  0  0  0  0  0  0
   -1.0461   -2.6289    1.3510 O   0  0  0  0  0  0  0  0  0  0  0  0
   -1.6990   -0.7212    0.3436 N   0  0  0  0  0  0  0  0  0  0  0  0
   -2.4994   -0.1466    0.0836 H   0  0  0  0  0  0  0  0  0  0  0  0
   -0.3815   -0.0641    0.3258 C   0  0  1  0  0  0  0  0  0  0  0  0
    0.2419   -0.5258    1.0985 H   0  0  0  0  0  0  0  0  0  0  0  0
    0.3748   -0.2066   -1.0187 C   0  0  0  0  0  0  0  0  0  0  0  0
    0.0898    0.6463   -1.6422 H   0  0  0  0  0  0  0  0  0  0  0  0
    1.4517   -0.1221   -0.8424 H   0  0  0  0  0  0  0  0  0  0  0  0
    0.0983   -1.4851   -1.8334 C   0  0  0  0  0  0  0  0  0  0  0  0
    0.7900   -2.2731   -1.5182 H   0  0  0  0  0  0  0  0  0  0  0  0
   -0.9151   -1.8608   -1.6814 H   0  0  0  0  0  0  0  0  0  0  0  0
    0.2921   -1.1455   -3.6306 S   0  0  0  0  0  0  0  0  0  0  0  0
   -1.2765   -0.2774   -4.0363 C   0  0  0  0  0  0  0  0  0  0  0  0
   -1.3681    0.6457   -3.4568 H   0  0  0  0  0  0  0  0  0  0  0  0
   -1.2997   -0.0238   -5.1003 H   0  0  0  0  0  0  0  0  0  0  0  0
   -2.1327   -0.9198   -3.8112 H   0  0  0  0  0  0  0  0  0  0  0  0
   -0.5203    1.4265    0.6952 C   0  0  0  0  0  0  0  0  0  0  0  0
   -1.4589    2.0766    0.2484 O   0  0  0  0  0  0  0  0  0  0  0  0
    0.3530    2.0182    1.5888 N   0  0  0  0  0  0  0  0  0  0  0  0
    1.0921    1.4410    1.9804 H   0  0  0  0  0  0  0  0  0  0  0  0
    0.2366    3.4060    2.0205 C   0  0  0  0  0  0  0  0  0  0  0  0
   -0.7301    3.5769    2.5060 H   0  0  0  0  0  0  0  0  0  0  0  0
    1.0294    3.6479    2.7348 H   0  0  0  0  0  0  0  0  0  0  0  0
    0.3253    4.0825    1.1638 H   0  0  0  0  0  0  0  0  0  0  0  0
  1  2  1  0  0  0  0
  2  3  1  0  0  0  0
  2  4  1  0  0  0  0
  2  5  1  0  0  0  0
  5  6  2  0  0  0  0
  5  7  1  0  0  0  0
  7  8  1  0  0  0  0
  7  9  1  0  0  0  0
  9 10  1  0  0  0  0
  9 11  1  0  0  0  0
  9 22  1  0  0  0  0
 11 12  1  0  0  0  0
 11 13  1  0  0  0  0
 11 14  1  0  0  0  0
 14 15  1  0  0  0  0
 14 16  1  0  0  0  0
 14 17  1  0  0  0  0
 17 18  1  0  0  0  0
 18 19  1  0  0  0  0
 18 20  1  0  0  0  0
 18 21  1  0  0  0  0
 22 23  2  0  0  0  0
 22 24  1  0  0  0  0
 24 25  1  0  0  0  0
 24 26  1  0  0  0  0
 26 27  1  0  0  0  0
 26 28  1  0  0  0  0
 26 29  1  0  0  0  0
M  END
$$$$

  -OEChem-02102214153D

 29 28  0     1  0  0  0  0  0999 V2000
   -3.4205   -3.4191    1.4872 H   0  0  0  0  0  0  0  0  0  0  0  0
   -3.3875   -2.4615    0.9600 C   0  0  0  0  0  0  0  0  0  0  0  0
   -4.0184   -1.7455    1.4920 H   0  0  0  0  0  0  0  0  0  0  0  0
   -3.7787   -2.6019   -0.0505 H   0  0  0  0  0  0  0  0  0  0  0  0
   -1.9614   -1.9488    0.8956 C   0  0  0  0  0  0  0  0  0  0  0  0
   -1.0472   -2.6264    1.3363 O   0  0  0  0  0  0  0  0  0  0  0  0
   -1.6999   -0.7190    0.3279 N   0  0  0  0  0  0  0  0  0  0  0  0
   -2.5008   -0.1494    0.0585 H   0  0  0  0  0  0  0  0  0  0  0  0
   -0.3847   -0.0562    0.3223 C   0  0  1  0  0  0  0  0  0  0  0  0
    0.2354   -0.5200    1.0963 H   0  0  0  0  0  0  0  0  0  0  0  0
    0.3728   -0.2009   -1.0190 C   0  0  0  0  0  0  0  0  0  0  0  0
    0.0919    0.6457   -1.6529 H   0  0  0  0  0  0  0  0  0  0  0  0
    1.4499   -0.1249   -0.8393 H   0  0  0  0  0  0  0  0  0  0  0  0
    0.0819   -1.4871   -1.8093 C   0  0  0  0  0  0  0  0  0  0  0  0
    0.5711   -2.3357   -1.3199 H   0  0  0  0  0  0  0  0  0  0  0  0
   -0.9896   -1.6975   -1.8516 H   0  0  0  0  0  0  0  0  0  0  0  0
    0.6886   -1.3125   -3.5360 S   0  0  0  0  0  0  0  0  0  0  0  0
   -0.6217   -0.2907   -4.3211 C   0  0  0  0  0  0  0  0  0  0  0  0
   -0.6910    0.6879   -3.8378 H   0  0  0  0  0  0  0  0  0  0  0  0
   -0.3921   -0.1395   -5.3798 H   0  0  0  0  0  0  0  0  0  0  0  0
   -1.5909   -0.7915   -4.2413 H   0  0  0  0  0  0  0  0  0  0  0  0
   -0.5216    1.4334    0.6952 C   0  0  0  0  0  0  0  0  0  0  0  0
   -1.4529    2.0888    0.2417 O   0  0  0  0  0  0  0  0  0  0  0  0
    0.3492    2.0183    1.5958 N   0  0  0  0  0  0  0  0  0  0  0  0
    1.0849    1.4370    1.9874 H   0  0  0  0  0  0  0  0  0  0  0  0
    0.2442    3.4079    2.0238 C   0  0  0  0  0  0  0  0  0  0  0  0
   -0.7241    3.5902    2.5016 H   0  0  0  0  0  0  0  0  0  0  0  0
    1.0340    3.6429    2.7438 H   0  0  0  0  0  0  0  0  0  0  0  0
    0.3468    4.0815    1.1664 H   0  0  0  0  0  0  0  0  0  0  0  0
  1  2  1  0  0  0  0
  2  3  1  0  0  0  0
  2  4  1  0  0  0  0
  2  5  1  0  0  0  0
  5  6  2  0  0  0  0
  5  7  1  0  0  0  0
  7  8  1  0  0  0  0
  7  9  1  0  0  0  0
  9 10  1  0  0  0  0
  9 11  1  0  0  0  0
  9 22  1  0  0  0  0
 11 12  1  0  0  0  0
 11 13  1  0  0  0  0
 11 14  1  0  0  0  0
 14 15  1  0  0  0  0
 14 16  1  0  0  0  0
 14 17  1  0  0  0  0
 17 18  1  0  0  0  0
 18 19  1  0  0  0  0
 18 20  1  0  0  0  0
 18 21  1  0  0  0  0
 22 23  2  0  0  0  0
 22 24  1  0  0  0  0
 24 25  1  0  0  0  0
 24 26  1  0  0  0  0
 26 27  1  0  0  0  0
 26 28  1  0  0  0  0
 26 29  1  0  0  0  0
M  END
$$$$

  -OEChem-02102214153D

 29 28  0     1  0  0  0  0  0999 V2000
   -3.4201   -3.4281    1.4781 H   0  0  0  0  0  0  0  0  0  0  0  0
   -3.3876   -2.4697    0.9524 C   0  0  0  0  0  0  0  0  0  0  0  0
   -4.0230   -1.7562    1.4828 H   0  0  0  0  0  0  0  0  0  0  0  0
   -3.7747   -2.6096   -0.0597 H   0  0  0  0  0  0  0  0  0  0  0  0
   -1.9622   -1.9539    0.8935 C   0  0  0  0  0  0  0  0  0  0  0  0
   -1.0490   -2.6264    1.3439 O   0  0  0  0  0  0  0  0  0  0  0  0
   -1.7009   -0.7256    0.3231 N   0  0  0  0  0  0  0  0  0  0  0  0
   -2.5020   -0.1579    0.0504 H   0  0  0  0  0  0  0  0  0  0  0  0
   -0.3848   -0.0631    0.3114 C   0  0  1  0  0  0  0  0  0  0  0  0
    0.2391   -0.5230    1.0849 H   0  0  0  0  0  0  0  0  0  0  0  0
    0.3650   -0.2125   -1.0365 C   0  0  0  0  0  0  0  0  0  0  0  0
    0.3277    0.7419   -1.5707 H   0  0  0  0  0  0  0  0  0  0  0  0
    1.4187   -0.4275   -0.8317 H   0  0  0  0  0  0  0  0  0  0  0  0
   -0.1901   -1.2933   -1.9738 C   0  0  0  0  0  0  0  0  0  0  0  0
   -0.1375   -2.2681   -1.4771 H   0  0  0  0  0  0  0  0  0  0  0  0
   -1.2369   -1.0917   -2.2209 H   0  0  0  0  0  0  0  0  0  0  0  0
    0.7972   -1.3519   -3.5233 S   0  0  0  0  0  0  0  0  0  0  0  0
    0.1882    0.1171   -4.4440 C   0  0  0  0  0  0  0  0  0  0  0  0
    0.4048    1.0355   -3.8914 H   0  0  0  0  0  0  0  0  0  0  0  0
    0.6785    0.1754   -5.4202 H   0  0  0  0  0  0  0  0  0  0  0  0
   -0.8923    0.0456   -4.5994 H   0  0  0  0  0  0  0  0  0  0  0  0
   -0.5261    1.4264    0.6829 C   0  0  0  0  0  0  0  0  0  0  0  0
   -1.4555    2.0808    0.2239 O   0  0  0  0  0  0  0  0  0  0  0  0
    0.3447    2.0155    1.5804 N   0  0  0  0  0  0  0  0  0  0  0  0
    1.0781    1.4348    1.9775 H   0  0  0  0  0  0  0  0  0  0  0  0
    0.2332    3.4042    2.0095 C   0  0  0  0  0  0  0  0  0  0  0  0
   -0.7352    3.5811    2.4893 H   0  0  0  0  0  0  0  0  0  0  0  0
    1.0231    3.6429    2.7282 H   0  0  0  0  0  0  0  0  0  0  0  0
    0.3310    4.0788    1.1523 H   0  0  0  0  0  0  0  0  0  0  0  0
  1  2  1  0  0  0  0
  2  3  1  0  0  0  0
  2  4  1  0  0  0  0
  2  5  1  0  0  0  0
  5  6  2  0  0  0  0
  5  7  1  0  0  0  0
  7  8  1  0  0  0  0
  7  9  1  0  0  0  0
  9 10  1  0  0  0  0
  9 11  1  0  0  0  0
  9 22  1  0  0  0  0
 11 12  1  0  0  0  0
 11 13  1  0  0  0  0
 11 14  1  0  0  0  0
 14 15  1  0  0  0  0
 14 16  1  0  0  0  0
 14 17  1  0  0  0  0
 17 18  1  0  0  0  0
 18 19  1  0  0  0  0
 18 20  1  0  0  0  0
 18 21  1  0  0  0  0
 22 23  2  0  0  0  0
 22 24  1  0  0  0  0
 24 25  1  0  0  0  0
 24 26  1  0  0  0  0
 26 27  1  0  0  0  0
 26 28  1  0  0  0  0
 26 29  1  0  0  0  0
M  END
$$$$

  -OEChem-02102214153D

 29 28  0     1  0  0  0  0  0999 V2000
   -3.4214   -3.4388    1.4848 H   0  0  0  0  0  0  0  0  0  0  0  0
   -3.3973   -2.4646    0.9885 C   0  0  0  0  0  0  0  0  0  0  0  0
   -4.0161   -1.7651    1.5557 H   0  0  0  0  0  0  0  0  0  0  0  0
   -3.8088   -2.5717   -0.0180 H   0  0  0  0  0  0  0  0  0  0  0  0
   -1.9717   -1.9521    0.9124 C   0  0  0  0  0  0  0  0  0  0  0  0
   -1.0568   -2.6170    1.3705 O   0  0  0  0  0  0  0  0  0  0  0  0
   -1.7132   -0.7311    0.3249 N   0  0  0  0  0  0  0  0  0  0  0  0
   -2.5156   -0.1666    0.0492 H   0  0  0  0  0  0  0  0  0  0  0  0
   -0.3951   -0.0729    0.2864 C   0  0  1  0  0  0  0  0  0  0  0  0
    0.2412   -0.5266    1.0533 H   0  0  0  0  0  0  0  0  0  0  0  0
    0.3302   -0.2334   -1.0743 C   0  0  0  0  0  0  0  0  0  0  0  0
    0.3004    0.7161   -1.6185 H   0  0  0  0  0  0  0  0  0  0  0  0
    1.3824   -0.4599   -0.8739 H   0  0  0  0  0  0  0  0  0  0  0  0
   -0.2425   -1.3182   -1.9971 C   0  0  0  0  0  0  0  0  0  0  0  0
   -0.4062   -2.2382   -1.4268 H   0  0  0  0  0  0  0  0  0  0  0  0
   -1.2026   -0.9988   -2.4142 H   0  0  0  0  0  0  0  0  0  0  0  0
    0.9465   -1.7034   -3.3456 S   0  0  0  0  0  0  0  0  0  0  0  0
    0.9032   -0.1810   -4.3723 C   0  0  0  0  0  0  0  0  0  0  0  0
    1.2931    0.6722   -3.8101 H   0  0  0  0  0  0  0  0  0  0  0  0
    1.5170   -0.3176   -5.2675 H   0  0  0  0  0  0  0  0  0  0  0  0
   -0.1231    0.0382   -4.6815 H   0  0  0  0  0  0  0  0  0  0  0  0
   -0.5302    1.4205    0.6444 C   0  0  0  0  0  0  0  0  0  0  0  0
   -1.4671    2.0709    0.1949 O   0  0  0  0  0  0  0  0  0  0  0  0
    0.3547    2.0166    1.5235 N   0  0  0  0  0  0  0  0  0  0  0  0
    1.0808    1.4326    1.9293 H   0  0  0  0  0  0  0  0  0  0  0  0
    0.2278    3.3981    1.9715 C   0  0  0  0  0  0  0  0  0  0  0  0
   -0.7218    3.5450    2.4969 H   0  0  0  0  0  0  0  0  0  0  0  0
    1.0441    3.6504    2.6553 H   0  0  0  0  0  0  0  0  0  0  0  0
    0.2683    4.0833    1.1181 H   0  0  0  0  0  0  0  0  0  0  0  0
  1  2  1  0  0  0  0
  2  3  1  0  0  0  0
  2  4  1  0  0  0  0
  2  5  1  0  0  0  0
  5  6  2  0  0  0  0
  5  7  1  0  0  0  0
  7  8  1  0  0  0  0
  7  9  1  0  0  0  0
  9 10  1  0  0  0  0
  9 11  1  0  0  0  0
  9 22  1  0  0  0  0
 11 12  1  0  0  0  0
 11 13  1  0  0  0  0
 11 14  1  0  0  0  0
 14 15  1  0  0  0  0
 14 16  1  0  0  0  0
 14 17  1  0  0  0  0
 17 18  1  0  0  0  0
 18 19  1  0  0  0  0
 18 20  1  0  0  0  0
 18 21  1  0  0  0  0
 22 23  2  0  0  0  0
 22 24  1  0  0  0  0
 24 25  1  0  0  0  0
 24 26  1  0  0  0  0
 26 27  1  0  0  0  0
 26 28  1  0  0  0  0
 26 29  1  0  0  0  0
M  END
$$$$

  -OEChem-02102214153D

 29 28  0     1  0  0  0  0  0999 V2000
   -3.4502   -3.4211    1.5356 H   0  0  0  0  0  0  0  0  0  0  0  0
   -3.4231   -2.4541    1.0254 C   0  0  0  0  0  0  0  0  0  0  0  0
   -4.0330   -1.7427    1.5875 H   0  0  0  0  0  0  0  0  0  0  0  0
   -3.8433   -2.5728    0.0239 H   0  0  0  0  0  0  0  0  0  0  0  0
   -1.9946   -1.9526    0.9307 C   0  0  0  0  0  0  0  0  0  0  0  0
   -1.0808   -2.6203    1.3864 O   0  0  0  0  0  0  0  0  0  0  0  0
   -1.7331   -0.7369    0.3331 N   0  0  0  0  0  0  0  0  0  0  0  0
   -2.5339   -0.1681    0.0622 H   0  0  0  0  0  0  0  0  0  0  0  0
   -0.4102   -0.0904    0.2722 C   0  0  1  0  0  0  0  0  0  0  0  0
    0.2329   -0.5458    1.0328 H   0  0  0  0  0  0  0  0  0  0  0  0
    0.3023   -0.2496   -1.0975 C   0  0  0  0  0  0  0  0  0  0  0  0
    0.2870    0.7031   -1.6374 H   0  0  0  0  0  0  0  0  0  0  0  0
    1.3518   -0.4849   -0.8919 H   0  0  0  0  0  0  0  0  0  0  0  0
   -0.2672   -1.3234   -2.0396 C   0  0  0  0  0  0  0  0  0  0  0  0
   -0.6616   -2.1645   -1.4632 H   0  0  0  0  0  0  0  0  0  0  0  0
   -1.0829   -0.9110   -2.6417 H   0  0  0  0  0  0  0  0  0  0  0  0
    1.0629   -2.0064   -3.1102 S   0  0  0  0  0  0  0  0  0  0  0  0
    1.5118   -0.5655   -4.1572 C   0  0  0  0  0  0  0  0  0  0  0  0
    1.9185    0.2426   -3.5425 H   0  0  0  0  0  0  0  0  0  0  0  0
    2.2678   -0.8584   -4.8918 H   0  0  0  0  0  0  0  0  0  0  0  0
    0.6311   -0.1953   -4.6902 H   0  0  0  0  0  0  0  0  0  0  0  0
   -0.5329    1.4055    0.6252 C   0  0  0  0  0  0  0  0  0  0  0  0
   -1.4702    2.0600    0.1824 O   0  0  0  0  0  0  0  0  0  0  0  0
    0.3670    2.0007    1.4894 N   0  0  0  0  0  0  0  0  0  0  0  0
    1.0910    1.4126    1.8926 H   0  0  0  0  0  0  0  0  0  0  0  0
    0.2539    3.3848    1.9327 C   0  0  0  0  0  0  0  0  0  0  0  0
   -0.6866    3.5386    2.4723 H   0  0  0  0  0  0  0  0  0  0  0  0
    1.0820    3.6362    2.6023 H   0  0  0  0  0  0  0  0  0  0  0  0
    0.2844    4.0659    1.0758 H   0  0  0  0  0  0  0  0  0  0  0  0
  1  2  1  0  0  0  0
  2  3  1  0  0  0  0
  2  4  1  0  0  0  0
  2  5  1  0  0  0  0
  5  6  2  0  0  0  0
  5  7  1  0  0  0  0
  7  8  1  0  0  0  0
  7  9  1  0  0  0  0
  9 10  1  0  0  0  0
  9 11  1  0  0  0  0
  9 22  1  0  0  0  0
 11 12  1  0  0  0  0
 11 13  1  0  0  0  0
 11 14  1  0  0  0  0
 14 15  1  0  0  0  0
 14 16  1  0  0  0  0
 14 17  1  0  0  0  0
 17 18  1  0  0  0  0
 18 19  1  0  0  0  0
 18 20  1  0  0  0  0
 18 21  1  0  0  0  0
 22 23  2  0  0  0  0
 22 24  1  0  0  0  0
 24 25  1  0  0  0  0
 24 26  1  0  0  0  0
 26 27  1  0  0  0  0
 26 28  1  0  0  0  0
 26 29  1  0  0  0  0
M  END
$$$$

  -OEChem-02102214153D

 29 28  0     1  0  0  0  0  0999 V2000
   -3.4869   -3.3993    1.5486 H   0  0  0  0  0  0  0  0  0  0  0  0
   -3.4501   -2.4403    1.0240 C   0  0  0  0  0  0  0  0  0  0  0  0
   -4.0634   -1.7178    1.5680 H   0  0  0  0  0  0  0  0  0  0  0  0
   -3.8586   -2.5724    0.0192 H   0  0  0  0  0  0  0  0  0  0  0  0
   -2.0185   -1.9459    0.9389 C   0  0  0  0  0  0  0  0  0  0  0  0
   -1.1118   -2.6168    1.4039 O   0  0  0  0  0  0  0  0  0  0  0  0
   -1.7480   -0.7312    0.3424 N   0  0  0  0  0  0  0  0  0  0  0  0
   -2.5441   -0.1606    0.0614 H   0  0  0  0  0  0  0  0  0  0  0  0
   -0.4200   -0.0965    0.2786 C   0  0  1  0  0  0  0  0  0  0  0  0
    0.2185   -0.5586    1.0389 H   0  0  0  0  0  0  0  0  0  0  0  0
    0.3007   -0.2534   -1.0892 C   0  0  0  0  0  0  0  0  0  0  0  0
    0.2915    0.7046   -1.6204 H   0  0  0  0  0  0  0  0  0  0  0  0
    1.3490   -0.4823   -0.8717 H   0  0  0  0  0  0  0  0  0  0  0  0
   -0.2488   -1.3155   -2.0635 C   0  0  0  0  0  0  0  0  0  0  0  0
   -0.8907   -2.0339   -1.5504 H   0  0  0  0  0  0  0  0  0  0  0  0
   -0.8449   -0.8373   -2.8471 H   0  0  0  0  0  0  0  0  0  0  0  0
    1.1277   -2.2902   -2.7968 S   0  0  0  0  0  0  0  0  0  0  0  0
    1.9633   -1.0487   -3.8618 C   0  0  0  0  0  0  0  0  0  0  0  0
    2.3444   -0.2200   -3.2582 H   0  0  0  0  0  0  0  0  0  0  0  0
    2.8033   -1.5124   -4.3875 H   0  0  0  0  0  0  0  0  0  0  0  0
    1.2628   -0.6524   -4.6028 H   0  0  0  0  0  0  0  0  0  0  0  0
   -0.5310    1.3996    0.6349 C   0  0  0  0  0  0  0  0  0  0  0  0
   -1.4601    2.0639    0.1896 O   0  0  0  0  0  0  0  0  0  0  0  0
    0.3752    1.9872    1.4978 N   0  0  0  0  0  0  0  0  0  0  0  0
    1.0931    1.3924    1.9024 H   0  0  0  0  0  0  0  0  0  0  0  0
    0.2789    3.3743    1.9360 C   0  0  0  0  0  0  0  0  0  0  0  0
   -0.6618    3.5434    2.4705 H   0  0  0  0  0  0  0  0  0  0  0  0
    1.1070    3.6169    2.6088 H   0  0  0  0  0  0  0  0  0  0  0  0
    0.3227    4.0520    1.0770 H   0  0  0  0  0  0  0  0  0  0  0  0
  1  2  1  0  0  0  0
  2  3  1  0  0  0  0
  2  4  1  0  0  0  0
  2  5  1  0  0  0  0
  5  6  2  0  0  0  0
  5  7  1  0  0  0  0
  7  8  1  0  0  0  0
  7  9  1  0  0  0  0
  9 10  1  0  0  0  0
  9 11  1  0  0  0  0
  9 22  1  0  0  0  0
 11 12  1  0  0  0  0
 11 13  1  0  0  0  0
 11 14  1  0  0  0  0
 14 15  1  0  0  0  0
 14 16  1  0  0  0  0
 14 17  1  0  0  0  0
 17 18  1  0  0  0  0
 18 19  1  0  0  0  0
 18 20  1  0  0  0  0
 18 21  1  0  0  0  0
 22 23  2  0  0  0  0
 22 24  1  0  0  0  0
 24 25  1  0  0  0  0
 24 26  1  0  0  0  0
 26 27  1  0  0  0  0
 26 28  1  0  0  0  0
 26 29  1  0  0  0  0
M  END
$$$$

  -OEChem-02102214153D

 29 28  0     1  0  0  0  0  0999 V2000
   -3.5089   -3.3843    1.5347 H   0  0  0  0  0  0  0  0  0  0  0  0
   -3.4651   -2.4302    1.0019 C   0  0  0  0  0  0  0  0  0  0  0  0
   -4.0882   -1.7038    1.5292 H   0  0  0  0  0  0  0  0  0  0  0  0
   -3.8570   -2.5725   -0.0080 H   0  0  0  0  0  0  0  0  0  0  0  0
   -2.0331   -1.9346    0.9359 C   0  0  0  0  0  0  0  0  0  0  0  0
   -1.1343   -2.6014    1.4213 O   0  0  0  0  0  0  0  0  0  0  0  0
   -1.7564   -0.7180    0.3463 N   0  0  0  0  0  0  0  0  0  0  0  0
   -2.5484   -0.1473    0.0547 H   0  0  0  0  0  0  0  0  0  0  0  0
   -0.4260   -0.0897    0.2903 C   0  0  1  0  0  0  0  0  0  0  0  0
    0.2047   -0.5575    1.0534 H   0  0  0  0  0  0  0  0  0  0  0  0
    0.3101   -0.2461   -1.0708 C   0  0  0  0  0  0  0  0  0  0  0  0
    0.2830    0.7152   -1.5954 H   0  0  0  0  0  0  0  0  0  0  0  0
    1.3629   -0.4505   -0.8527 H   0  0  0  0  0  0  0  0  0  0  0  0
   -0.2179   -1.3016   -2.0684 C   0  0  0  0  0  0  0  0  0  0  0  0
   -1.0885   -1.8366   -1.6874 H   0  0  0  0  0  0  0  0  0  0  0  0
   -0.5261   -0.8079   -2.9952 H   0  0  0  0  0  0  0  0  0  0  0  0
    1.0821   -2.5485   -2.4406 S   0  0  0  0  0  0  0  0  0  0  0  0
    2.2645   -1.5919   -3.4715 C   0  0  0  0  0  0  0  0  0  0  0  0
    2.6608   -0.7402   -2.9115 H   0  0  0  0  0  0  0  0  0  0  0  0
    3.1002   -2.2311   -3.7716 H   0  0  0  0  0  0  0  0  0  0  0  0
    1.7672   -1.2207   -4.3724 H   0  0  0  0  0  0  0  0  0  0  0  0
   -0.5313    1.4052    0.6541 C   0  0  0  0  0  0  0  0  0  0  0  0
   -1.4526    2.0775    0.2044 O   0  0  0  0  0  0  0  0  0  0  0  0
    0.3746    1.9841    1.5234 N   0  0  0  0  0  0  0  0  0  0  0  0
    1.0829    1.3817    1.9338 H   0  0  0  0  0  0  0  0  0  0  0  0
    0.2850    3.3707    1.9650 C   0  0  0  0  0  0  0  0  0  0  0  0
   -0.6589    3.5450    2.4921 H   0  0  0  0  0  0  0  0  0  0  0  0
    1.1094    3.6049    2.6452 H   0  0  0  0  0  0  0  0  0  0  0  0
    0.3409    4.0503    1.1081 H   0  0  0  0  0  0  0  0  0  0  0  0
  1  2  1  0  0  0  0
  2  3  1  0  0  0  0
  2  4  1  0  0  0  0
  2  5  1  0  0  0  0
  5  6  2  0  0  0  0
  5  7  1  0  0  0  0
  7  8  1  0  0  0  0
  7  9  1  0  0  0  0
  9 10  1  0  0  0  0
  9 11  1  0  0  0  0
  9 22  1  0  0  0  0
 11 12  1  0  0  0  0
 11 13  1  0  0  0  0
 11 14  1  0  0  0  0
 14 15  1  0  0  0  0
 14 16  1  0  0  0  0
 14 17  1  0  0  0  0
 17 18  1  0  0  0  0
 18 19  1  0  0  0  0
 18 20  1  0  0  0  0
 18 21  1  0  0  0  0
 22 23  2  0  0  0  0
 22 24  1  0  0  0  0
 24 25  1  0  0  0  0
 24 26  1  0  0  0  0
 26 27  1  0  0  0  0
 26 28  1  0  0  0  0
 26 29  1  0  0  0  0
M  END
$$$$

  -OEChem-02102214153D

 29 28  0     1  0  0  0  0  0999 V2000
   -3.5005   -3.3965    1.4651 H   0  0  0  0  0  0  0  0  0  0  0  0
   -3.4496   -2.4413    0.9352 C   0  0  0  0  0  0  0  0  0  0  0  0
   -4.1097   -1.7267    1.4324 H   0  0  0  0  0  0  0  0  0  0  0  0
   -3.7910   -2.5900   -0.0920 H   0  0  0  0  0  0  0  0  0  0  0  0
   -2.0257   -1.9194    0.9357 C   0  0  0  0  0  0  0  0  0  0  0  0
   -1.1407   -2.5646    1.4733 O   0  0  0  0  0  0  0  0  0  0  0  0
   -1.7463   -0.7003    0.3527 N   0  0  0  0  0  0  0  0  0  0  0  0
   -2.5338   -0.1467    0.0200 H   0  0  0  0  0  0  0  0  0  0  0  0
   -0.4181   -0.0673    0.3147 C   0  0  1  0  0  0  0  0  0  0  0  0
    0.2063   -0.5355    1.0827 H   0  0  0  0  0  0  0  0  0  0  0  0
    0.3312   -0.2233   -1.0393 C   0  0  0  0  0  0  0  0  0  0  0  0
    0.2786    0.7364   -1.5647 H   0  0  0  0  0  0  0  0  0  0  0  0
    1.3893   -0.4039   -0.8296 H   0  0  0  0  0  0  0  0  0  0  0  0
   -0.1906   -1.2813   -2.0362 C   0  0  0  0  0  0  0  0  0  0  0  0
   -1.2147   -1.5935   -1.8250 H   0  0  0  0  0  0  0  0  0  0  0  0
   -0.2000   -0.8475   -3.0411 H   0  0  0  0  0  0  0  0  0  0  0  0
    0.9082   -2.7550   -2.0568 S   0  0  0  0  0  0  0  0  0  0  0  0
    2.3689   -2.1587   -2.9978 C   0  0  0  0  0  0  0  0  0  0  0  0
    2.8412   -1.3170   -2.4837 H   0  0  0  0  0  0  0  0  0  0  0  0
    3.1033   -2.9639   -3.0953 H   0  0  0  0  0  0  0  0  0  0  0  0
    2.0683   -1.8364   -3.9991 H   0  0  0  0  0  0  0  0  0  0  0  0
   -0.5306    1.4264    0.6807 C   0  0  0  0  0  0  0  0  0  0  0  0
   -1.4402    2.1020    0.2125 O   0  0  0  0  0  0  0  0  0  0  0  0
    0.3642    2.0039    1.5622 N   0  0  0  0  0  0  0  0  0  0  0  0
    1.0580    1.3977    1.9912 H   0  0  0  0  0  0  0  0  0  0  0  0
    0.2727    3.3916    1.9995 C   0  0  0  0  0  0  0  0  0  0  0  0
   -0.6801    3.5712    2.5087 H   0  0  0  0  0  0  0  0  0  0  0  0
    1.0855    3.6233    2.6946 H   0  0  0  0  0  0  0  0  0  0  0  0
    0.3477    4.0693    1.1424 H   0  0  0  0  0  0  0  0  0  0  0  0
  1  2  1  0  0  0  0
  2  3  1  0  0  0  0
  2  4  1  0  0  0  0
  2  5  1  0  0  0  0
  5  6  2  0  0  0  0
  5  7  1  0  0  0  0
  7  8  1  0  0  0  0
  7  9  1  0  0  0  0
  9 10  1  0  0  0  0
  9 11  1  0  0  0  0
  9 22  1  0  0  0  0
 11 12  1  0  0  0  0
 11 13  1  0  0  0  0
 11 14  1  0  0  0  0
 14 15  1  0  0  0  0
 14 16  1  0  0  0  0
 14 17  1  0  0  0  0
 17 18  1  0  0  0  0
 18 19  1  0  0  0  0
 18 20  1  0  0  0  0
 18 21  1  0  0  0  0
 22 23  2  0  0  0  0
 22 24  1  0  0  0  0
 24 25  1  0  0  0  0
 24 26  1  0  0  0  0
 26 27  1  0  0  0  0
 26 28  1  0  0  0  0
 26 29  1  0  0  0  0
M  END
$$$$

  -OEChem-02102214153D

 29 28  0     1  0  0  0  0  0999 V2000
   -3.4699   -3.4288    1.3916 H   0  0  0  0  0  0  0  0  0  0  0  0
   -3.4157   -2.4719    0.8649 C   0  0  0  0  0  0  0  0  0  0  0  0
   -4.1234   -1.7770    1.3230 H   0  0  0  0  0  0  0  0  0  0  0  0
   -3.6933   -2.6295   -0.1800 H   0  0  0  0  0  0  0  0  0  0  0  0
   -2.0092   -1.9098    0.9458 C   0  0  0  0  0  0  0  0  0  0  0  0
   -1.1447   -2.5178    1.5560 O   0  0  0  0  0  0  0  0  0  0  0  0
   -1.7280   -0.6907    0.3629 N   0  0  0  0  0  0  0  0  0  0  0  0
   -2.5057   -0.1674   -0.0343 H   0  0  0  0  0  0  0  0  0  0  0  0
   -0.4026   -0.0509    0.3403 C   0  0  1  0  0  0  0  0  0  0  0  0
    0.2213   -0.5173    1.1098 H   0  0  0  0  0  0  0  0  0  0  0  0
    0.3448   -0.2004   -1.0150 C   0  0  0  0  0  0  0  0  0  0  0  0
    0.2849    0.7590   -1.5401 H   0  0  0  0  0  0  0  0  0  0  0  0
    1.4046   -0.3822   -0.8161 H   0  0  0  0  0  0  0  0  0  0  0  0
   -0.1896   -1.2568   -2.0018 C   0  0  0  0  0  0  0  0  0  0  0  0
   -1.2767   -1.3517   -1.9528 H   0  0  0  0  0  0  0  0  0  0  0  0
    0.0468   -0.9358   -3.0209 H   0  0  0  0  0  0  0  0  0  0  0  0
    0.6082   -2.8895   -1.7261 S   0  0  0  0  0  0  0  0  0  0  0  0
    2.2882   -2.6561   -2.4325 C   0  0  0  0  0  0  0  0  0  0  0  0
    2.8341   -1.8851   -1.8821 H   0  0  0  0  0  0  0  0  0  0  0  0
    2.8518   -3.5916   -2.3697 H   0  0  0  0  0  0  0  0  0  0  0  0
    2.2200   -2.3590   -3.4831 H   0  0  0  0  0  0  0  0  0  0  0  0
   -0.5252    1.4436    0.7006 C   0  0  0  0  0  0  0  0  0  0  0  0
   -1.4187    2.1197    0.2028 O   0  0  0  0  0  0  0  0  0  0  0  0
    0.3558    2.0279    1.5915 N   0  0  0  0  0  0  0  0  0  0  0  0
    1.0417    1.4253    2.0380 H   0  0  0  0  0  0  0  0  0  0  0  0
    0.2659    3.4231    2.0047 C   0  0  0  0  0  0  0  0  0  0  0  0
   -0.6948    3.6178    2.4931 H   0  0  0  0  0  0  0  0  0  0  0  0
    1.0674    3.6615    2.7106 H   0  0  0  0  0  0  0  0  0  0  0  0
    0.3614    4.0856    1.1379 H   0  0  0  0  0  0  0  0  0  0  0  0
  1  2  1  0  0  0  0
  2  3  1  0  0  0  0
  2  4  1  0  0  0  0
  2  5  1  0  0  0  0
  5  6  2  0  0  0  0
  5  7  1  0  0  0  0
  7  8  1  0  0  0  0
  7  9  1  0  0  0  0
  9 10  1  0  0  0  0
  9 11  1  0  0  0  0
  9 22  1  0  0  0  0
 11 12  1  0  0  0  0
 11 13  1  0  0  0  0
 11 14  1  0  0  0  0
 14 15  1  0  0  0  0
 14 16  1  0  0  0  0
 14 17  1  0  0  0  0
 17 18  1  0  0  0  0
 18 19  1  0  0  0  0
 18 20  1  0  0  0  0
 18 21  1  0  0  0  0
 22 23  2  0  0  0  0
 22 24  1  0  0  0  0
 24 25  1  0  0  0  0
 24 26  1  0  0  0  0
 26 27  1  0  0  0  0
 26 28  1  0  0  0  0
 26 29  1  0  0  0  0
M  END
$$$$

  -OEChem-02102214153D

 29 28  0     1  0  0  0  0  0999 V2000
   -3.4173   -3.4442    1.3854 H   0  0  0  0  0  0  0  0  0  0  0  0
   -3.3619   -2.5040    0.8293 C   0  0  0  0  0  0  0  0  0  0  0  0
   -4.1039   -1.8112    1.2333 H   0  0  0  0  0  0  0  0  0  0  0  0
   -3.5901   -2.7025   -0.2207 H   0  0  0  0  0  0  0  0  0  0  0  0
   -1.9728   -1.9066    0.9504 C   0  0  0  0  0  0  0  0  0  0  0  0
   -1.1218   -2.4750    1.6165 O   0  0  0  0  0  0  0  0  0  0  0  0
   -1.6995   -0.6882    0.3618 N   0  0  0  0  0  0  0  0  0  0  0  0
   -2.4703   -0.1955   -0.0837 H   0  0  0  0  0  0  0  0  0  0  0  0
   -0.3744   -0.0482    0.3268 C   0  0  1  0  0  0  0  0  0  0  0  0
    0.2669   -0.5161    1.0806 H   0  0  0  0  0  0  0  0  0  0  0  0
    0.3375   -0.1798   -1.0500 C   0  0  0  0  0  0  0  0  0  0  0  0
    0.2775    0.7858   -1.5640 H   0  0  0  0  0  0  0  0  0  0  0  0
    1.3992   -0.3763   -0.8799 H   0  0  0  0  0  0  0  0  0  0  0  0
   -0.2311   -1.2202   -2.0323 C   0  0  0  0  0  0  0  0  0  0  0  0
   -1.3165   -1.1150   -2.1169 H   0  0  0  0  0  0  0  0  0  0  0  0
    0.1842   -1.0254   -3.0260 H   0  0  0  0  0  0  0  0  0  0  0  0
    0.1954   -2.9489   -1.5678 S   0  0  0  0  0  0  0  0  0  0  0  0
    2.0223   -3.0252   -1.7418 C   0  0  0  0  0  0  0  0  0  0  0  0
    2.5071   -2.3920   -0.9940 H   0  0  0  0  0  0  0  0  0  0  0  0
    2.3662   -4.0537   -1.5977 H   0  0  0  0  0  0  0  0  0  0  0  0
    2.3233   -2.6915   -2.7391 H   0  0  0  0  0  0  0  0  0  0  0  0
   -0.5012    1.4462    0.6871 C   0  0  0  0  0  0  0  0  0  0  0  0
   -1.3940    2.1222    0.1875 O   0  0  0  0  0  0  0  0  0  0  0  0
    0.3842    2.0342    1.5714 N   0  0  0  0  0  0  0  0  0  0  0  0
    1.0540    1.4274    2.0360 H   0  0  0  0  0  0  0  0  0  0  0  0
    0.2746    3.4228    2.0021 C   0  0  0  0  0  0  0  0  0  0  0  0
   -0.6686    3.5852    2.5343 H   0  0  0  0  0  0  0  0  0  0  0  0
    1.1000    3.6776    2.6737 H   0  0  0  0  0  0  0  0  0  0  0  0
    0.3126    4.0961    1.1392 H   0  0  0  0  0  0  0  0  0  0  0  0
  1  2  1  0  0  0  0
  2  3  1  0  0  0  0
  2  4  1  0  0  0  0
  2  5  1  0  0  0  0
  5  6  2  0  0  0  0
  5  7  1  0  0  0  0
  7  8  1  0  0  0  0
  7  9  1  0  0  0  0
  9 10  1  0  0  0  0
  9 11  1  0  0  0  0
  9 22  1  0  0  0  0
 11 12  1  0  0  0  0
 11 13  1  0  0  0  0
 11 14  1  0  0  0  0
 14 15  1  0  0  0  0
 14 16  1  0  0  0  0
 14 17  1  0  0  0  0
 17 18  1  0  0  0  0
 18 19  1  0  0  0  0
 18 20  1  0  0  0  0
 18 21  1  0  0  0  0
 22 23  2  0  0  0  0
 22 24  1  0  0  0  0
 24 25  1  0  0  0  0
 24 26  1  0  0  0  0
 26 27  1  0  0  0  0
 26 28  1  0  0  0  0
 26 29  1  0  0  0  0
M  END
$$$$

  -OEChem-02102214153D

 29 28  0     1  0  0  0  0  0999 V2000
   -3.2950   -3.5194    1.3876 H   0  0  0  0  0  0  0  0  0  0  0  0
   -3.2581   -2.5899    0.8129 C   0  0  0  0  0  0  0  0  0  0  0  0
   -4.0173   -1.9058    1.1992 H   0  0  0  0  0  0  0  0  0  0  0  0
   -3.4765   -2.8143   -0.2339 H   0  0  0  0  0  0  0  0  0  0  0  0
   -1.8833   -1.9598    0.9270 C   0  0  0  0  0  0  0  0  0  0  0  0
   -1.0094   -2.5121    1.5790 O   0  0  0  0  0  0  0  0  0  0  0  0
   -1.6453   -0.7293    0.3482 N   0  0  0  0  0  0  0  0  0  0  0  0
   -2.4280   -0.2631   -0.1048 H   0  0  0  0  0  0  0  0  0  0  0  0
   -0.3289   -0.0767    0.2705 C   0  0  1  0  0  0  0  0  0  0  0  0
    0.3523   -0.5514    0.9834 H   0  0  0  0  0  0  0  0  0  0  0  0
    0.3190   -0.1457   -1.1438 C   0  0  0  0  0  0  0  0  0  0  0  0
    0.2498    0.8423   -1.6125 H   0  0  0  0  0  0  0  0  0  0  0  0
    1.3857   -0.3527   -1.0175 H   0  0  0  0  0  0  0  0  0  0  0  0
   -0.2584   -1.1406   -2.1701 C   0  0  0  0  0  0  0  0  0  0  0  0
   -1.2965   -0.8695   -2.3858 H   0  0  0  0  0  0  0  0  0  0  0  0
    0.3042   -1.0302   -3.1025 H   0  0  0  0  0  0  0  0  0  0  0  0
   -0.2089   -2.9182   -1.6871 S   0  0  0  0  0  0  0  0  0  0  0  0
    1.4330   -3.1572   -0.8998 C   0  0  0  0  0  0  0  0  0  0  0  0
    1.4886   -2.6018    0.0408 H   0  0  0  0  0  0  0  0  0  0  0  0
    1.5903   -4.2177   -0.6821 H   0  0  0  0  0  0  0  0  0  0  0  0
    2.2292   -2.8136   -1.5662 H   0  0  0  0  0  0  0  0  0  0  0  0
   -0.4642    1.4095    0.6645 C   0  0  0  0  0  0  0  0  0  0  0  0
   -1.3820    2.0843    0.2104 O   0  0  0  0  0  0  0  0  0  0  0  0
    0.4477    1.9930    1.5245 N   0  0  0  0  0  0  0  0  0  0  0  0
    1.1419    1.3866    1.9522 H   0  0  0  0  0  0  0  0  0  0  0  0
    0.3364    3.3712    1.9867 C   0  0  0  0  0  0  0  0  0  0  0  0
   -0.5907    3.5114    2.5526 H   0  0  0  0  0  0  0  0  0  0  0  0
    1.1805    3.6222    2.6364 H   0  0  0  0  0  0  0  0  0  0  0  0
    0.3385    4.0624    1.1371 H   0  0  0  0  0  0  0  0  0  0  0  0
  1  2  1  0  0  0  0
  2  3  1  0  0  0  0
  2  4  1  0  0  0  0
  2  5  1  0  0  0  0
  5  6  2  0  0  0  0
  5  7  1  0  0  0  0
  7  8  1  0  0  0  0
  7  9  1  0  0  0  0
  9 10  1  0  0  0  0
  9 11  1  0  0  0  0
  9 22  1  0  0  0  0
 11 12  1  0  0  0  0
 11 13  1  0  0  0  0
 11 14  1  0  0  0  0
 14 15  1  0  0  0  0
 14 16  1  0  0  0  0
 14 17  1  0  0  0  0
 17 18  1  0  0  0  0
 18 19  1  0  0  0  0
 18 20  1  0  0  0  0
 18 21  1  0  0  0  0
 22 23  2  0  0  0  0
 22 24  1  0  0  0  0
 24 25  1  0  0  0  0
 24 26  1  0  0  0  0
 26 27  1  0  0  0  0
 26 28  1  0  0  0  0
 26 29  1  0  0  0  0
M  END
$$$$

  -OEChem-02102214153D

 29 28  0     1  0  0  0  0  0999 V2000
   -3.3796   -3.4818    1.4304 H   0  0  0  0  0  0  0  0  0  0  0  0
   -3.3349   -2.5298    0.8944 C   0  0  0  0  0  0  0  0  0  0  0  0
   -4.0885   -1.8552    1.3073 H   0  0  0  0  0  0  0  0  0  0  0  0
   -3.5541   -2.7105   -0.1608 H   0  0  0  0  0  0  0  0  0  0  0  0
   -1.9557   -1.9147    1.0361 C   0  0  0  0  0  0  0  0  0  0  0  0
   -1.1187   -2.4475    1.7504 O   0  0  0  0  0  0  0  0  0  0  0  0
   -1.6754   -0.7136    0.4154 N   0  0  0  0  0  0  0  0  0  0  0  0
   -2.4267   -0.2711   -0.1089 H   0  0  0  0  0  0  0  0  0  0  0  0
   -0.3487   -0.0807    0.3604 C   0  0  1  0  0  0  0  0  0  0  0  0
    0.2987   -0.5309    1.1194 H   0  0  0  0  0  0  0  0  0  0  0  0
    0.3710   -0.1812   -1.0217 C   0  0  0  0  0  0  0  0  0  0  0  0
    0.3690    0.8045   -1.5000 H   0  0  0  0  0  0  0  0  0  0  0  0
    1.4184   -0.4177   -0.8101 H   0  0  0  0  0  0  0  0  0  0  0  0
   -0.1096   -1.1726   -2.1048 C   0  0  0  0  0  0  0  0  0  0  0  0
   -1.0171   -0.7594   -2.5564 H   0  0  0  0  0  0  0  0  0  0  0  0
    0.6504   -1.2180   -2.8910 H   0  0  0  0  0  0  0  0  0  0  0  0
   -0.5008   -2.8927   -1.5813 S   0  0  0  0  0  0  0  0  0  0  0  0
    1.0169   -3.4131   -0.6874 C   0  0  0  0  0  0  0  0  0  0  0  0
    1.1737   -2.7880    0.1960 H   0  0  0  0  0  0  0  0  0  0  0  0
    0.9188   -4.4525   -0.3609 H   0  0  0  0  0  0  0  0  0  0  0  0
    1.8904   -3.3303   -1.3402 H   0  0  0  0  0  0  0  0  0  0  0  0
   -0.4975    1.4212    0.6884 C   0  0  0  0  0  0  0  0  0  0  0  0
   -1.3862    2.0823    0.1619 O   0  0  0  0  0  0  0  0  0  0  0  0
    0.3806    2.0377    1.5608 N   0  0  0  0  0  0  0  0  0  0  0  0
    1.0510    1.4473    2.0449 H   0  0  0  0  0  0  0  0  0  0  0  0
    0.2651    3.4377    1.9513 C   0  0  0  0  0  0  0  0  0  0  0  0
   -0.7007    3.6229    2.4332 H   0  0  0  0  0  0  0  0  0  0  0  0
    1.0597    3.7007    2.6562 H   0  0  0  0  0  0  0  0  0  0  0  0
    0.3524    4.0886    1.0749 H   0  0  0  0  0  0  0  0  0  0  0  0
  1  2  1  0  0  0  0
  2  3  1  0  0  0  0
  2  4  1  0  0  0  0
  2  5  1  0  0  0  0
  5  6  2  0  0  0  0
  5  7  1  0  0  0  0
  7  8  1  0  0  0  0
  7  9  1  0  0  0  0
  9 10  1  0  0  0  0
  9 11  1  0  0  0  0
  9 22  1  0  0  0  0
 11 12  1  0  0  0  0
 11 13  1  0  0  0  0
 11 14  1  0  0  0  0
 14 15  1  0  0  0  0
 14 16  1  0  0  0  0
 14 17  1  0  0  0  0
 17 18  1  0  0  0  0
 18 19  1  0  0  0  0
 18 20  1  0  0  0  0
 18 21  1  0  0  0  0
 22 23  2  0  0  0  0
 22 24  1  0  0  0  0
 24 25  1  0  0  0  0
 24 26  1  0  0  0  0
 26 27  1  0  0  0  0
 26 28  1  0  0  0  0
 26 29  1  0  0  0  0
M  END
$$$$

  -OEChem-02102214153D

 29 28  0     1  0  0  0  0  0999 V2000
   -3.4716   -3.4011    1.5314 H   0  0  0  0  0  0  0  0  0  0  0  0
   -3.4191   -2.4444    1.0045 C   0  0  0  0  0  0  0  0  0  0  0  0
   -4.1655   -1.7666    1.4253 H   0  0  0  0  0  0  0  0  0  0  0  0
   -3.6429   -2.6131   -0.0517 H   0  0  0  0  0  0  0  0  0  0  0  0
   -2.0337   -1.8436    1.1493 C   0  0  0  0  0  0  0  0  0  0  0  0
   -1.2187   -2.3628    1.8983 O   0  0  0  0  0  0  0  0  0  0  0  0
   -1.7217   -0.6720    0.4883 N   0  0  0  0  0  0  0  0  0  0  0  0
   -2.4491   -0.2527   -0.0864 H   0  0  0  0  0  0  0  0  0  0  0  0
   -0.3873   -0.0556    0.4426 C   0  0  1  0  0  0  0  0  0  0  0  0
    0.2273   -0.4782    1.2435 H   0  0  0  0  0  0  0  0  0  0  0  0
    0.3991   -0.2046   -0.9022 C   0  0  0  0  0  0  0  0  0  0  0  0
    0.4469    0.7717   -1.3976 H   0  0  0  0  0  0  0  0  0  0  0  0
    1.4263   -0.4478   -0.6128 H   0  0  0  0  0  0  0  0  0  0  0  0
    0.0155   -1.2142   -2.0139 C   0  0  0  0  0  0  0  0  0  0  0  0
   -0.6839   -0.7005   -2.6815 H   0  0  0  0  0  0  0  0  0  0  0  0
    0.9113   -1.4373   -2.6019 H   0  0  0  0  0  0  0  0  0  0  0  0
   -0.7907   -2.8024   -1.5601 S   0  0  0  0  0  0  0  0  0  0  0  0
    0.5336   -3.6309   -0.5942 C   0  0  0  0  0  0  0  0  0  0  0  0
    0.8379   -3.0066    0.2507 H   0  0  0  0  0  0  0  0  0  0  0  0
    0.1710   -4.5870   -0.2053 H   0  0  0  0  0  0  0  0  0  0  0  0
    1.4063   -3.8163   -1.2271 H   0  0  0  0  0  0  0  0  0  0  0  0
   -0.5352    1.4593    0.7062 C   0  0  0  0  0  0  0  0  0  0  0  0
   -1.4039    2.1056    0.1304 O   0  0  0  0  0  0  0  0  0  0  0  0
    0.3243    2.1039    1.5771 N   0  0  0  0  0  0  0  0  0  0  0  0
    0.9811    1.5293    2.0975 H   0  0  0  0  0  0  0  0  0  0  0  0
    0.2132    3.5200    1.9057 C   0  0  0  0  0  0  0  0  0  0  0  0
   -0.7551    3.7300    2.3720 H   0  0  0  0  0  0  0  0  0  0  0  0
    1.0042    3.8096    2.6041 H   0  0  0  0  0  0  0  0  0  0  0  0
    0.3097    4.1319    1.0026 H   0  0  0  0  0  0  0  0  0  0  0  0
  1  2  1  0  0  0  0
  2  3  1  0  0  0  0
  2  4  1  0  0  0  0
  2  5  1  0  0  0  0
  5  6  2  0  0  0  0
  5  7  1  0  0  0  0
  7  8  1  0  0  0  0
  7  9  1  0  0  0  0
  9 10  1  0  0  0  0
  9 11  1  0  0  0  0
  9 22  1  0  0  0  0
 11 12  1  0  0  0  0
 11 13  1  0  0  0  0
 11 14  1  0  0  0  0
 14 15  1  0  0  0  0
 14 16  1  0  0  0  0
 14 17  1  0  0  0  0
 17 18  1  0  0  0  0
 18 19  1  0  0  0  0
 18 20  1  0  0  0  0
 18 21  1  0  0  0  0
 22 23  2  0  0  0  0
 22 24  1  0  0  0  0
 24 25  1  0  0  0  0
 24 26  1  0  0  0  0
 26 27  1  0  0  0  0
 26 28  1  0  0  0  0
 26 29  1  0  0  0  0
M  END
$$$$

  -OEChem-02102214153D

 29 28  0     1  0  0  0  0  0999 V2000
   -3.5766   -3.2594    1.6915 H   0  0  0  0  0  0  0  0  0  0  0  0
   -3.4994   -2.3244    1.1299 C   0  0  0  0  0  0  0  0  0  0  0  0
   -4.2265   -1.6117    1.5264 H   0  0  0  0  0  0  0  0  0  0  0  0
   -3.7301   -2.5252    0.0809 H   0  0  0  0  0  0  0  0  0  0  0  0
   -2.0983   -1.7557    1.2514 C   0  0  0  0  0  0  0  0  0  0  0  0
   -1.2922   -2.2778    2.0079 O   0  0  0  0  0  0  0  0  0  0  0  0
   -1.7613   -0.6112    0.5566 N   0  0  0  0  0  0  0  0  0  0  0  0
   -2.4738   -0.2033   -0.0448 H   0  0  0  0  0  0  0  0  0  0  0  0
   -0.4216   -0.0099    0.5137 C   0  0  1  0  0  0  0  0  0  0  0  0
    0.1657   -0.4055    1.3484 H   0  0  0  0  0  0  0  0  0  0  0  0
    0.4129   -0.2163   -0.7955 C   0  0  0  0  0  0  0  0  0  0  0  0
    0.4790    0.7444   -1.3187 H   0  0  0  0  0  0  0  0  0  0  0  0
    1.4285   -0.4412   -0.4545 H   0  0  0  0  0  0  0  0  0  0  0  0
    0.0964   -1.2599   -1.9030 C   0  0  0  0  0  0  0  0  0  0  0  0
   -0.3340   -0.7005   -2.7402 H   0  0  0  0  0  0  0  0  0  0  0  0
    1.0415   -1.6807   -2.2607 H   0  0  0  0  0  0  0  0  0  0  0  0
   -1.0665   -2.6485   -1.5919 S   0  0  0  0  0  0  0  0  0  0  0  0
    0.0054   -3.7959   -0.6383 C   0  0  0  0  0  0  0  0  0  0  0  0
    0.4331   -3.2860    0.2299 H   0  0  0  0  0  0  0  0  0  0  0  0
   -0.5791   -4.6513   -0.2870 H   0  0  0  0  0  0  0  0  0  0  0  0
    0.8224   -4.1628   -1.2663 H   0  0  0  0  0  0  0  0  0  0  0  0
   -0.5637    1.5145    0.7215 C   0  0  0  0  0  0  0  0  0  0  0  0
   -1.4181    2.1461    0.1093 O   0  0  0  0  0  0  0  0  0  0  0  0
    0.2837    2.1841    1.5851 N   0  0  0  0  0  0  0  0  0  0  0  0
    0.9263    1.6242    2.1379 H   0  0  0  0  0  0  0  0  0  0  0  0
    0.1704    3.6099    1.8674 C   0  0  0  0  0  0  0  0  0  0  0  0
   -0.8009    3.8348    2.3203 H   0  0  0  0  0  0  0  0  0  0  0  0
    0.9569    3.9217    2.5613 H   0  0  0  0  0  0  0  0  0  0  0  0
    0.2727    4.1924    0.9458 H   0  0  0  0  0  0  0  0  0  0  0  0
  1  2  1  0  0  0  0
  2  3  1  0  0  0  0
  2  4  1  0  0  0  0
  2  5  1  0  0  0  0
  5  6  2  0  0  0  0
  5  7  1  0  0  0  0
  7  8  1  0  0  0  0
  7  9  1  0  0  0  0
  9 10  1  0  0  0  0
  9 11  1  0  0  0  0
  9 22  1  0  0  0  0
 11 12  1  0  0  0  0
 11 13  1  0  0  0  0
 11 14  1  0  0  0  0
 14 15  1  0  0  0  0
 14 16  1  0  0  0  0
 14 17  1  0  0  0  0
 17 18  1  0  0  0  0
 18 19  1  0  0  0  0
 18 20  1  0  0  0  0
 18 21  1  0  0  0  0
 22 23  2  0  0  0  0
 22 24  1  0  0  0  0
 24 25  1  0  0  0  0
 24 26  1  0  0  0  0
 26 27  1  0  0  0  0
 26 28  1  0  0  0  0
 26 29  1  0  0  0  0
M  END
$$$$

  -OEChem-02102214153D

 29 28  0     1  0  0  0  0  0999 V2000
   -3.3306   -3.5196    1.6376 H   0  0  0  0  0  0  0  0  0  0  0  0
   -3.3463   -2.5491    1.1344 C   0  0  0  0  0  0  0  0  0  0  0  0
   -4.1109   -1.9219    1.5987 H   0  0  0  0  0  0  0  0  0  0  0  0
   -3.6007   -2.7028    0.0830 H   0  0  0  0  0  0  0  0  0  0  0  0
   -1.9900   -1.8782    1.2476 C   0  0  0  0  0  0  0  0  0  0  0  0
   -1.1102   -2.3933    1.9223 O   0  0  0  0  0  0  0  0  0  0  0  0
   -1.7744   -0.6623    0.6308 N   0  0  0  0  0  0  0  0  0  0  0  0
   -2.5371   -0.2777    0.0771 H   0  0  0  0  0  0  0  0  0  0  0  0
   -0.4970    0.0612    0.6077 C   0  0  1  0  0  0  0  0  0  0  0  0
    0.1334   -0.3331    1.4110 H   0  0  0  0  0  0  0  0  0  0  0  0
    0.3452    0.0030   -0.7116 C   0  0  0  0  0  0  0  0  0  0  0  0
    0.2812    0.9898   -1.1839 H   0  0  0  0  0  0  0  0  0  0  0  0
    1.3876   -0.1081   -0.3960 H   0  0  0  0  0  0  0  0  0  0  0  0
    0.1325   -1.0025   -1.8812 C   0  0  0  0  0  0  0  0  0  0  0  0
   -0.0661   -0.4053   -2.7773 H   0  0  0  0  0  0  0  0  0  0  0  0
    1.0817   -1.5180   -2.0578 H   0  0  0  0  0  0  0  0  0  0  0  0
   -1.1889   -2.2806   -1.8242 S   0  0  0  0  0  0  0  0  0  0  0  0
   -0.2751   -3.7034   -1.1053 C   0  0  0  0  0  0  0  0  0  0  0  0
    0.4893   -4.0547   -1.8043 H   0  0  0  0  0  0  0  0  0  0  0  0
   -0.9644   -4.5268   -0.8965 H   0  0  0  0  0  0  0  0  0  0  0  0
    0.2136   -3.4116   -0.1710 H   0  0  0  0  0  0  0  0  0  0  0  0
   -0.7663    1.5491    0.9242 C   0  0  0  0  0  0  0  0  0  0  0  0
   -1.6888    2.1418    0.3756 O   0  0  0  0  0  0  0  0  0  0  0  0
    0.0394    2.2316    1.8173 N   0  0  0  0  0  0  0  0  0  0  0  0
    0.7482    1.6981    2.3124 H   0  0  0  0  0  0  0  0  0  0  0  0
   -0.1861    3.6226    2.1913 C   0  0  0  0  0  0  0  0  0  0  0  0
   -1.1810    3.7448    2.6324 H   0  0  0  0  0  0  0  0  0  0  0  0
    0.5593    3.9434    2.9254 H   0  0  0  0  0  0  0  0  0  0  0  0
   -0.1082    4.2726    1.3135 H   0  0  0  0  0  0  0  0  0  0  0  0
  1  2  1  0  0  0  0
  2  3  1  0  0  0  0
  2  4  1  0  0  0  0
  2  5  1  0  0  0  0
  5  6  2  0  0  0  0
  5  7  1  0  0  0  0
  7  8  1  0  0  0  0
  7  9  1  0  0  0  0
  9 10  1  0  0  0  0
  9 11  1  0  0  0  0
  9 22  1  0  0  0  0
 11 12  1  0  0  0  0
 11 13  1  0  0  0  0
 11 14  1  0  0  0  0
 14 15  1  0  0  0  0
 14 16  1  0  0  0  0
 14 17  1  0  0  0  0
 17 18  1  0  0  0  0
 18 19  1  0  0  0  0
 18 20  1  0  0  0  0
 18 21  1  0  0  0  0
 22 23  2  0  0  0  0
 22 24  1  0  0  0  0
 24 25  1  0  0  0  0
 24 26  1  0  0  0  0
 26 27  1  0  0  0  0
 26 28  1  0  0  0  0
 26 29  1  0  0  0  0
M  END
$$$$

  -OEChem-02102214153D

 29 28  0     1  0  0  0  0  0999 V2000
   -3.4619   -3.3862    2.0311 H   0  0  0  0  0  0  0  0  0  0  0  0
   -3.4353   -2.4621    1.4475 C   0  0  0  0  0  0  0  0  0  0  0  0
   -4.2365   -1.8033    1.7902 H   0  0  0  0  0  0  0  0  0  0  0  0
   -3.5998   -2.7065    0.3955 H   0  0  0  0  0  0  0  0  0  0  0  0
   -2.0931   -1.7751    1.6178 C   0  0  0  0  0  0  0  0  0  0  0  0
   -1.2744   -2.2263    2.4054 O   0  0  0  0  0  0  0  0  0  0  0  0
   -1.8236   -0.6152    0.9188 N   0  0  0  0  0  0  0  0  0  0  0  0
   -2.5224   -0.2994    0.2496 H   0  0  0  0  0  0  0  0  0  0  0  0
   -0.5460    0.1045    0.9505 C   0  0  1  0  0  0  0  0  0  0  0  0
   -0.0041   -0.2146    1.8461 H   0  0  0  0  0  0  0  0  0  0  0  0
    0.4245   -0.1079   -0.2573 C   0  0  0  0  0  0  0  0  0  0  0  0
    0.3733    0.8083   -0.8561 H   0  0  0  0  0  0  0  0  0  0  0  0
    1.4399   -0.1454    0.1500 H   0  0  0  0  0  0  0  0  0  0  0  0
    0.3082   -1.2483   -1.3101 C   0  0  0  0  0  0  0  0  0  0  0  0
    0.5433   -0.8239   -2.2916 H   0  0  0  0  0  0  0  0  0  0  0  0
    1.0999   -1.9677   -1.0776 H   0  0  0  0  0  0  0  0  0  0  0  0
   -1.2356   -2.2376   -1.4823 S   0  0  0  0  0  0  0  0  0  0  0  0
   -0.7457   -3.4635   -2.7576 C   0  0  0  0  0  0  0  0  0  0  0  0
   -0.4623   -2.9551   -3.6839 H   0  0  0  0  0  0  0  0  0  0  0  0
   -1.5804   -4.1384   -2.9696 H   0  0  0  0  0  0  0  0  0  0  0  0
    0.1034   -4.0574   -2.4063 H   0  0  0  0  0  0  0  0  0  0  0  0
   -0.8139    1.6170    1.1119 C   0  0  0  0  0  0  0  0  0  0  0  0
   -1.6720    2.1708    0.4336 O   0  0  0  0  0  0  0  0  0  0  0  0
   -0.0770    2.3648    2.0123 N   0  0  0  0  0  0  0  0  0  0  0  0
    0.5655    1.8644    2.6199 H   0  0  0  0  0  0  0  0  0  0  0  0
   -0.3137    3.7833    2.2526 C   0  0  0  0  0  0  0  0  0  0  0  0
   -1.3133    3.9396    2.6716 H   0  0  0  0  0  0  0  0  0  0  0  0
    0.4244    4.1757    2.9587 H   0  0  0  0  0  0  0  0  0  0  0  0
   -0.2310    4.3496    1.3189 H   0  0  0  0  0  0  0  0  0  0  0  0
  1  2  1  0  0  0  0
  2  3  1  0  0  0  0
  2  4  1  0  0  0  0
  2  5  1  0  0  0  0
  5  6  2  0  0  0  0
  5  7  1  0  0  0  0
  7  8  1  0  0  0  0
  7  9  1  0  0  0  0
  9 10  1  0  0  0  0
  9 11  1  0  0  0  0
  9 22  1  0  0  0  0
 11 12  1  0  0  0  0
 11 13  1  0  0  0  0
 11 14  1  0  0  0  0
 14 15  1  0  0  0  0
 14 16  1  0  0  0  0
 14 17  1  0  0  0  0
 17 18  1  0  0  0  0
 18 19  1  0  0  0  0
 18 20  1  0  0  0  0
 18 21  1  0  0  0  0
 22 23  2  0  0  0  0
 22 24  1  0  0  0  0
 24 25  1  0  0  0  0
 24 26  1  0  0  0  0
 26 27  1  0  0  0  0
 26 28  1  0  0  0  0
 26 29  1  0  0  0  0
M  END
$$$$

  -OEChem-02102214153D

 29 28  0     1  0  0  0  0  0999 V2000
   -3.4636   -3.0621    2.4542 H   0  0  0  0  0  0  0  0  0  0  0  0
   -3.4464   -2.1897    1.7955 C   0  0  0  0  0  0  0  0  0  0  0  0
   -4.1768   -1.4610    2.1547 H   0  0  0  0  0  0  0  0  0  0  0  0
   -3.7232   -2.5051    0.7867 H   0  0  0  0  0  0  0  0  0  0  0  0
   -2.0616   -1.5698    1.7839 C   0  0  0  0  0  0  0  0  0  0  0  0
   -1.1811   -2.0335    2.4935 O   0  0  0  0  0  0  0  0  0  0  0  0
   -1.8127   -0.4662    0.9940 N   0  0  0  0  0  0  0  0  0  0  0  0
   -2.5597   -0.1576    0.3748 H   0  0  0  0  0  0  0  0  0  0  0  0
   -0.5058    0.1807    0.8420 C   0  0  1  0  0  0  0  0  0  0  0  0
    0.1142   -0.1187    1.6928 H   0  0  0  0  0  0  0  0  0  0  0  0
    0.3046   -0.1784   -0.4436 C   0  0  0  0  0  0  0  0  0  0  0  0
    0.2247    0.6887   -1.1084 H   0  0  0  0  0  0  0  0  0  0  0  0
    1.3593   -0.2524   -0.1600 H   0  0  0  0  0  0  0  0  0  0  0  0
   -0.0212   -1.3888   -1.3610 C   0  0  0  0  0  0  0  0  0  0  0  0
    0.3649   -1.1726   -2.3621 H   0  0  0  0  0  0  0  0  0  0  0  0
    0.5508   -2.2374   -0.9724 H   0  0  0  0  0  0  0  0  0  0  0  0
   -1.7601   -1.9792   -1.5277 S   0  0  0  0  0  0  0  0  0  0  0  0
   -1.5381   -3.4676   -2.5788 C   0  0  0  0  0  0  0  0  0  0  0  0
   -0.8980   -4.1969   -2.0734 H   0  0  0  0  0  0  0  0  0  0  0  0
   -1.0768   -3.1937   -3.5322 H   0  0  0  0  0  0  0  0  0  0  0  0
   -2.5075   -3.9330   -2.7803 H   0  0  0  0  0  0  0  0  0  0  0  0
   -0.6634    1.7140    0.9398 C   0  0  0  0  0  0  0  0  0  0  0  0
   -1.5644    2.2846    0.3357 O   0  0  0  0  0  0  0  0  0  0  0  0
    0.2144    2.4596    1.7060 N   0  0  0  0  0  0  0  0  0  0  0  0
    0.8951    1.9521    2.2640 H   0  0  0  0  0  0  0  0  0  0  0  0
    0.0823    3.8994    1.8952 C   0  0  0  0  0  0  0  0  0  0  0  0
   -0.8495    4.1322    2.4212 H   0  0  0  0  0  0  0  0  0  0  0  0
    0.9197    4.2819    2.4868 H   0  0  0  0  0  0  0  0  0  0  0  0
    0.0800    4.4152    0.9291 H   0  0  0  0  0  0  0  0  0  0  0  0
  1  2  1  0  0  0  0
  2  3  1  0  0  0  0
  2  4  1  0  0  0  0
  2  5  1  0  0  0  0
  5  6  2  0  0  0  0
  5  7  1  0  0  0  0
  7  8  1  0  0  0  0
  7  9  1  0  0  0  0
  9 10  1  0  0  0  0
  9 11  1  0  0  0  0
  9 22  1  0  0  0  0
 11 12  1  0  0  0  0
 11 13  1  0  0  0  0
 11 14  1  0  0  0  0
 14 15  1  0  0  0  0
 14 16  1  0  0  0  0
 14 17  1  0  0  0  0
 17 18  1  0  0  0  0
 18 19  1  0  0  0  0
 18 20  1  0  0  0  0
 18 21  1  0  0  0  0
 22 23  2  0  0  0  0
 22 24  1  0  0  0  0
 24 25  1  0  0  0  0
 24 26  1  0  0  0  0
 26 27  1  0  0  0  0
 26 28  1  0  0  0  0
 26 29  1  0  0  0  0
M  END
$$$$

  -OEChem-02102214153D

 29 28  0     1  0  0  0  0  0999 V2000
   -2.8975   -3.1802    2.7512 H   0  0  0  0  0  0  0  0  0  0  0  0
   -3.0207   -2.2401    2.2067 C   0  0  0  0  0  0  0  0  0  0  0  0
   -3.5690   -1.5363    2.8374 H   0  0  0  0  0  0  0  0  0  0  0  0
   -3.5983   -2.4314    1.2990 H   0  0  0  0  0  0  0  0  0  0  0  0
   -1.6653   -1.6625    1.8453 C   0  0  0  0  0  0  0  0  0  0  0  0
   -0.6454   -2.2537    2.1670 O   0  0  0  0  0  0  0  0  0  0  0  0
   -1.5923   -0.4731    1.1512 N   0  0  0  0  0  0  0  0  0  0  0  0
   -2.4695   -0.0659    0.8316 H   0  0  0  0  0  0  0  0  0  0  0  0
   -0.3548    0.1417    0.6603 C   0  0  1  0  0  0  0  0  0  0  0  0
    0.4773   -0.2928    1.2227 H   0  0  0  0  0  0  0  0  0  0  0  0
   -0.0422   -0.0959   -0.8481 C   0  0  0  0  0  0  0  0  0  0  0  0
   -0.2560    0.8419   -1.3726 H   0  0  0  0  0  0  0  0  0  0  0  0
    1.0339   -0.2697   -0.9439 H   0  0  0  0  0  0  0  0  0  0  0  0
   -0.7759   -1.1865   -1.6670 C   0  0  0  0  0  0  0  0  0  0  0  0
   -0.5431   -1.0387   -2.7264 H   0  0  0  0  0  0  0  0  0  0  0  0
   -0.3555   -2.1537   -1.3723 H   0  0  0  0  0  0  0  0  0  0  0  0
   -2.6080   -1.3109   -1.4834 S   0  0  0  0  0  0  0  0  0  0  0  0
   -2.9798   -2.7448   -2.5669 C   0  0  0  0  0  0  0  0  0  0  0  0
   -2.6734   -2.5320   -3.5954 H   0  0  0  0  0  0  0  0  0  0  0  0
   -4.0537   -2.9537   -2.5579 H   0  0  0  0  0  0  0  0  0  0  0  0
   -2.4466   -3.6337   -2.2165 H   0  0  0  0  0  0  0  0  0  0  0  0
   -0.3377    1.6538    0.9713 C   0  0  0  0  0  0  0  0  0  0  0  0
   -1.3280    2.3424    0.7550 O   0  0  0  0  0  0  0  0  0  0  0  0
    0.7997    2.2490    1.4869 N   0  0  0  0  0  0  0  0  0  0  0  0
    1.5795    1.6430    1.7254 H   0  0  0  0  0  0  0  0  0  0  0  0
    0.8745    3.6639    1.8315 C   0  0  0  0  0  0  0  0  0  0  0  0
    0.1525    3.9054    2.6186 H   0  0  0  0  0  0  0  0  0  0  0  0
    1.8769    3.9133    2.1924 H   0  0  0  0  0  0  0  0  0  0  0  0
    0.6600    4.2837    0.9544 H   0  0  0  0  0  0  0  0  0  0  0  0
  1  2  1  0  0  0  0
  2  3  1  0  0  0  0
  2  4  1  0  0  0  0
  2  5  1  0  0  0  0
  5  6  2  0  0  0  0
  5  7  1  0  0  0  0
  7  8  1  0  0  0  0
  7  9  1  0  0  0  0
  9 10  1  0  0  0  0
  9 11  1  0  0  0  0
  9 22  1  0  0  0  0
 11 12  1  0  0  0  0
 11 13  1  0  0  0  0
 11 14  1  0  0  0  0
 14 15  1  0  0  0  0
 14 16  1  0  0  0  0
 14 17  1  0  0  0  0
 17 18  1  0  0  0  0
 18 19  1  0  0  0  0
 18 20  1  0  0  0  0
 18 21  1  0  0  0  0
 22 23  2  0  0  0  0
 22 24  1  0  0  0  0
 24 25  1  0  0  0  0
 24 26  1  0  0  0  0
 26 27  1  0  0  0  0
 26 28  1  0  0  0  0
 26 29  1  0  0  0  0
M  END
$$$$

  -OEChem-02102214153D

 29 28  0     1  0  0  0  0  0999 V2000
   -3.5292   -2.8276    2.4269 H   0  0  0  0  0  0  0  0  0  0  0  0
   -3.4828   -1.9550    1.7697 C   0  0  0  0  0  0  0  0  0  0  0  0
   -4.1488   -1.1821    2.1605 H   0  0  0  0  0  0  0  0  0  0  0  0
   -3.8199   -2.2455    0.7718 H   0  0  0  0  0  0  0  0  0  0  0  0
   -2.0632   -1.4262    1.6997 C   0  0  0  0  0  0  0  0  0  0  0  0
   -1.1697   -1.9854    2.3173 O   0  0  0  0  0  0  0  0  0  0  0  0
   -1.7847   -0.3296    0.9134 N   0  0  0  0  0  0  0  0  0  0  0  0
   -2.5490    0.0565    0.3608 H   0  0  0  0  0  0  0  0  0  0  0  0
   -0.4518    0.2431    0.6914 C   0  0  1  0  0  0  0  0  0  0  0  0
    0.2021   -0.1102    1.4950 H   0  0  0  0  0  0  0  0  0  0  0  0
    0.2091   -0.1875   -0.6488 C   0  0  0  0  0  0  0  0  0  0  0  0
    0.1714    0.6624   -1.3392 H   0  0  0  0  0  0  0  0  0  0  0  0
    1.2662   -0.3928   -0.4535 H   0  0  0  0  0  0  0  0  0  0  0  0
   -0.3840   -1.3899   -1.4124 C   0  0  0  0  0  0  0  0  0  0  0  0
    0.2225   -1.5737   -2.3047 H   0  0  0  0  0  0  0  0  0  0  0  0
   -0.3080   -2.2758   -0.7735 H   0  0  0  0  0  0  0  0  0  0  0  0
   -2.1431   -1.1863   -1.9305 S   0  0  0  0  0  0  0  0  0  0  0  0
   -2.4850   -2.8326   -2.6659 C   0  0  0  0  0  0  0  0  0  0  0  0
   -2.3431   -3.6188   -1.9183 H   0  0  0  0  0  0  0  0  0  0  0  0
   -3.5165   -2.8754   -3.0281 H   0  0  0  0  0  0  0  0  0  0  0  0
   -1.8106   -3.0197   -3.5068 H   0  0  0  0  0  0  0  0  0  0  0  0
   -0.4862    1.7811    0.8094 C   0  0  0  0  0  0  0  0  0  0  0  0
   -1.3855    2.4223    0.2792 O   0  0  0  0  0  0  0  0  0  0  0  0
    0.4887    2.4510    1.5262 N   0  0  0  0  0  0  0  0  0  0  0  0
    1.1779    1.8910    2.0195 H   0  0  0  0  0  0  0  0  0  0  0  0
    0.4820    3.8958    1.7216 C   0  0  0  0  0  0  0  0  0  0  0  0
   -0.4207    4.2051    2.2590 H   0  0  0  0  0  0  0  0  0  0  0  0
    1.3553    4.2037    2.3046 H   0  0  0  0  0  0  0  0  0  0  0  0
    0.5118    4.4127    0.7566 H   0  0  0  0  0  0  0  0  0  0  0  0
  1  2  1  0  0  0  0
  2  3  1  0  0  0  0
  2  4  1  0  0  0  0
  2  5  1  0  0  0  0
  5  6  2  0  0  0  0
  5  7  1  0  0  0  0
  7  8  1  0  0  0  0
  7  9  1  0  0  0  0
  9 10  1  0  0  0  0
  9 11  1  0  0  0  0
  9 22  1  0  0  0  0
 11 12  1  0  0  0  0
 11 13  1  0  0  0  0
 11 14  1  0  0  0  0
 14 15  1  0  0  0  0
 14 16  1  0  0  0  0
 14 17  1  0  0  0  0
 17 18  1  0  0  0  0
 18 19  1  0  0  0  0
 18 20  1  0  0  0  0
 18 21  1  0  0  0  0
 22 23  2  0  0  0  0
 22 24  1  0  0  0  0
 24 25  1  0  0  0  0
 24 26  1  0  0  0  0
 26 27  1  0  0  0  0
 26 28  1  0  0  0  0
 26 29  1  0  0  0  0
M  END
$$$$

  -OEChem-02102214153D

 29 28  0     1  0  0  0  0  0999 V2000
   -2.6015   -4.0840    2.0723 H   0  0  0  0  0  0  0  0  0  0  0  0
   -2.8198   -3.1162    1.6129 C   0  0  0  0  0  0  0  0  0  0  0  0
   -3.4940   -2.5588    2.2675 H   0  0  0  0  0  0  0  0  0  0  0  0
   -3.3127   -3.2839    0.6521 H   0  0  0  0  0  0  0  0  0  0  0  0
   -1.5372   -2.3345    1.4043 C   0  0  0  0  0  0  0  0  0  0  0  0
   -0.4611   -2.8270    1.7060 O   0  0  0  0  0  0  0  0  0  0  0  0
   -1.5912   -1.0726    0.8535 N   0  0  0  0  0  0  0  0  0  0  0  0
   -2.5049   -0.7290    0.5613 H   0  0  0  0  0  0  0  0  0  0  0  0
   -0.4272   -0.2398    0.5168 C   0  0  1  0  0  0  0  0  0  0  0  0
    0.4476   -0.6277    1.0488 H   0  0  0  0  0  0  0  0  0  0  0  0
   -0.1037   -0.2533   -1.0013 C   0  0  0  0  0  0  0  0  0  0  0  0
   -0.3536    0.7133   -1.4470 H   0  0  0  0  0  0  0  0  0  0  0  0
    0.9800   -0.3684   -1.1034 H   0  0  0  0  0  0  0  0  0  0  0  0
   -0.7758   -1.3677   -1.8261 C   0  0  0  0  0  0  0  0  0  0  0  0
   -0.2724   -1.4246   -2.7961 H   0  0  0  0  0  0  0  0  0  0  0  0
   -0.6339   -2.3353   -1.3340 H   0  0  0  0  0  0  0  0  0  0  0  0
   -2.5742   -1.0847   -2.1438 S   0  0  0  0  0  0  0  0  0  0  0  0
   -2.7076    0.6471   -2.7446 C   0  0  0  0  0  0  0  0  0  0  0  0
   -1.9919    0.8266   -3.5520 H   0  0  0  0  0  0  0  0  0  0  0  0
   -3.7167    0.8339   -3.1234 H   0  0  0  0  0  0  0  0  0  0  0  0
   -2.5108    1.3514   -1.9305 H   0  0  0  0  0  0  0  0  0  0  0  0
   -0.6382    1.2121    0.9933 C   0  0  0  0  0  0  0  0  0  0  0  0
   -1.6999    1.7845    0.7745 O   0  0  0  0  0  0  0  0  0  0  0  0
    0.3751    1.8900    1.6460 N   0  0  0  0  0  0  0  0  0  0  0  0
    1.2176    1.3694    1.8731 H   0  0  0  0  0  0  0  0  0  0  0  0
    0.2265    3.2477    2.1560 C   0  0  0  0  0  0  0  0  0  0  0  0
   -0.5706    3.2905    2.9057 H   0  0  0  0  0  0  0  0  0  0  0  0
    1.1588    3.5804    2.6222 H   0  0  0  0  0  0  0  0  0  0  0  0
   -0.0177    3.9384    1.3420 H   0  0  0  0  0  0  0  0  0  0  0  0
  1  2  1  0  0  0  0
  2  3  1  0  0  0  0
  2  4  1  0  0  0  0
  2  5  1  0  0  0  0
  5  6  2  0  0  0  0
  5  7  1  0  0  0  0
  7  8  1  0  0  0  0
  7  9  1  0  0  0  0
  9 10  1  0  0  0  0
  9 11  1  0  0  0  0
  9 22  1  0  0  0  0
 11 12  1  0  0  0  0
 11 13  1  0  0  0  0
 11 14  1  0  0  0  0
 14 15  1  0  0  0  0
 14 16  1  0  0  0  0
 14 17  1  0  0  0  0
 17 18  1  0  0  0  0
 18 19  1  0  0  0  0
 18 20  1  0  0  0  0
 18 21  1  0  0  0  0
 22 23  2  0  0  0  0
 22 24  1  0  0  0  0
 24 25  1  0  0  0  0
 24 26  1  0  0  0  0
 26 27  1  0  0  0  0
 26 28  1  0  0  0  0
 26 29  1  0  0  0  0
M  END
$$$$

  -OEChem-02102214153D

 29 28  0     1  0  0  0  0  0999 V2000
   -3.0255   -3.8183    1.7673 H   0  0  0  0  0  0  0  0  0  0  0  0
   -3.1377   -2.8335    1.3053 C   0  0  0  0  0  0  0  0  0  0  0  0
   -3.8000   -2.2254    1.9260 H   0  0  0  0  0  0  0  0  0  0  0  0
   -3.5874   -2.9575    0.3172 H   0  0  0  0  0  0  0  0  0  0  0  0
   -1.7850   -2.1603    1.1754 C   0  0  0  0  0  0  0  0  0  0  0  0
   -0.7812   -2.7135    1.5960 O   0  0  0  0  0  0  0  0  0  0  0  0
   -1.6900   -0.9295    0.5609 N   0  0  0  0  0  0  0  0  0  0  0  0
   -2.5570   -0.4881    0.2619 H   0  0  0  0  0  0  0  0  0  0  0  0
   -0.4478   -0.1580    0.3872 C   0  0  1  0  0  0  0  0  0  0  0  0
    0.2887   -0.5426    1.1002 H   0  0  0  0  0  0  0  0  0  0  0  0
    0.1748   -0.2948   -1.0288 C   0  0  0  0  0  0  0  0  0  0  0  0
    0.0667    0.6407   -1.5847 H   0  0  0  0  0  0  0  0  0  0  0  0
    1.2502   -0.4462   -0.8912 H   0  0  0  0  0  0  0  0  0  0  0  0
   -0.3500   -1.4514   -1.9021 C   0  0  0  0  0  0  0  0  0  0  0  0
    0.4584   -1.7517   -2.5760 H   0  0  0  0  0  0  0  0  0  0  0  0
   -0.5714   -2.3266   -1.2851 H   0  0  0  0  0  0  0  0  0  0  0  0
   -1.8062   -1.0512   -2.9706 S   0  0  0  0  0  0  0  0  0  0  0  0
   -2.5694    0.5373   -2.4425 C   0  0  0  0  0  0  0  0  0  0  0  0
   -1.8467    1.3561   -2.4944 H   0  0  0  0  0  0  0  0  0  0  0  0
   -3.4074    0.7802   -3.1022 H   0  0  0  0  0  0  0  0  0  0  0  0
   -2.9499    0.4628   -1.4220 H   0  0  0  0  0  0  0  0  0  0  0  0
   -0.6585    1.3279    0.7453 C   0  0  0  0  0  0  0  0  0  0  0  0
   -1.6763    1.9098    0.3889 O   0  0  0  0  0  0  0  0  0  0  0  0
    0.2658    2.0002    1.5233 N   0  0  0  0  0  0  0  0  0  0  0  0
    1.0661    1.4747    1.8638 H   0  0  0  0  0  0  0  0  0  0  0  0
    0.0877    3.3783    1.9651 C   0  0  0  0  0  0  0  0  0  0  0  0
   -0.8176    3.4721    2.5741 H   0  0  0  0  0  0  0  0  0  0  0  0
    0.9440    3.6960    2.5678 H   0  0  0  0  0  0  0  0  0  0  0  0
    0.0041    4.0493    1.1037 H   0  0  0  0  0  0  0  0  0  0  0  0
  1  2  1  0  0  0  0
  2  3  1  0  0  0  0
  2  4  1  0  0  0  0
  2  5  1  0  0  0  0
  5  6  2  0  0  0  0
  5  7  1  0  0  0  0
  7  8  1  0  0  0  0
  7  9  1  0  0  0  0
  9 10  1  0  0  0  0
  9 11  1  0  0  0  0
  9 22  1  0  0  0  0
 11 12  1  0  0  0  0
 11 13  1  0  0  0  0
 11 14  1  0  0  0  0
 14 15  1  0  0  0  0
 14 16  1  0  0  0  0
 14 17  1  0  0  0  0
 17 18  1  0  0  0  0
 18 19  1  0  0  0  0
 18 20  1  0  0  0  0
 18 21  1  0  0  0  0
 22 23  2  0  0  0  0
 22 24  1  0  0  0  0
 24 25  1  0  0  0  0
 24 26  1  0  0  0  0
 26 27  1  0  0  0  0
 26 28  1  0  0  0  0
 26 29  1  0  0  0  0
M  END
$$$$

  -OEChem-02102214153D

 29 28  0     1  0  0  0  0  0999 V2000
   -3.3371   -3.4799    1.5905 H   0  0  0  0  0  0  0  0  0  0  0  0
   -3.3391   -2.5147    1.0765 C   0  0  0  0  0  0  0  0  0  0  0  0
   -3.9551   -1.8143    1.6456 H   0  0  0  0  0  0  0  0  0  0  0  0
   -3.7723   -2.6458    0.0820 H   0  0  0  0  0  0  0  0  0  0  0  0
   -1.9236   -1.9831    0.9584 C   0  0  0  0  0  0  0  0  0  0  0  0
   -0.9833   -2.6480    1.3623 O   0  0  0  0  0  0  0  0  0  0  0  0
   -1.7011   -0.7504    0.3811 N   0  0  0  0  0  0  0  0  0  0  0  0
   -2.5196   -0.1892    0.1516 H   0  0  0  0  0  0  0  0  0  0  0  0
   -0.3973   -0.0691    0.3183 C   0  0  1  0  0  0  0  0  0  0  0  0
    0.2496   -0.5155    1.0807 H   0  0  0  0  0  0  0  0  0  0  0  0
    0.3431   -0.2116   -1.0402 C   0  0  0  0  0  0  0  0  0  0  0  0
    0.3178    0.7466   -1.5706 H   0  0  0  0  0  0  0  0  0  0  0  0
    1.3955   -0.4147   -0.8184 H   0  0  0  0  0  0  0  0  0  0  0  0
   -0.1553   -1.3019   -2.0112 C   0  0  0  0  0  0  0  0  0  0  0  0
    0.7199   -1.8072   -2.4315 H   0  0  0  0  0  0  0  0  0  0  0  0
   -0.7383   -2.0727   -1.5026 H   0  0  0  0  0  0  0  0  0  0  0  0
   -1.1104   -0.5971   -3.4205 S   0  0  0  0  0  0  0  0  0  0  0  0
   -2.5793    0.1917   -2.6524 C   0  0  0  0  0  0  0  0  0  0  0  0
   -2.2739    1.0105   -1.9959 H   0  0  0  0  0  0  0  0  0  0  0  0
   -3.2331    0.5985   -3.4294 H   0  0  0  0  0  0  0  0  0  0  0  0
   -3.1433   -0.5424   -2.0708 H   0  0  0  0  0  0  0  0  0  0  0  0
   -0.5492    1.4182    0.6990 C   0  0  0  0  0  0  0  0  0  0  0  0
   -1.5283    2.0489    0.3165 O   0  0  0  0  0  0  0  0  0  0  0  0
    0.3482    2.0181    1.5632 N   0  0  0  0  0  0  0  0  0  0  0  0
    1.1111    1.4501    1.9206 H   0  0  0  0  0  0  0  0  0  0  0  0
    0.2049    3.3881    2.0413 C   0  0  0  0  0  0  0  0  0  0  0  0
   -0.7392    3.5081    2.5830 H   0  0  0  0  0  0  0  0  0  0  0  0
    1.0263    3.6404    2.7188 H   0  0  0  0  0  0  0  0  0  0  0  0
    0.2215    4.0911    1.2018 H   0  0  0  0  0  0  0  0  0  0  0  0
  1  2  1  0  0  0  0
  2  3  1  0  0  0  0
  2  4  1  0  0  0  0
  2  5  1  0  0  0  0
  5  6  2  0  0  0  0
  5  7  1  0  0  0  0
  7  8  1  0  0  0  0
  7  9  1  0  0  0  0
  9 10  1  0  0  0  0
  9 11  1  0  0  0  0
  9 22  1  0  0  0  0
 11 12  1  0  0  0  0
 11 13  1  0  0  0  0
 11 14  1  0  0  0  0
 14 15  1  0  0  0  0
 14 16  1  0  0  0  0
 14 17  1  0  0  0  0
 17 18  1  0  0  0  0
 18 19  1  0  0  0  0
 18 20  1  0  0  0  0
 18 21  1  0  0  0  0
 22 23  2  0  0  0  0
 22 24  1  0  0  0  0
 24 25  1  0  0  0  0
 24 26  1  0  0  0  0
 26 27  1  0  0  0  0
 26 28  1  0  0  0  0
 26 29  1  0  0  0  0
M  END
$$$$

  -OEChem-02102214153D

 29 28  0     1  0  0  0  0  0999 V2000
   -3.3730   -3.4655    1.5716 H   0  0  0  0  0  0  0  0  0  0  0  0
   -3.3640   -2.4979    1.0618 C   0  0  0  0  0  0  0  0  0  0  0  0
   -3.9732   -1.7934    1.6332 H   0  0  0  0  0  0  0  0  0  0  0  0
   -3.7974   -2.6202    0.0662 H   0  0  0  0  0  0  0  0  0  0  0  0
   -1.9428   -1.9805    0.9476 C   0  0  0  0  0  0  0  0  0  0  0  0
   -1.0113   -2.6507    1.3628 O   0  0  0  0  0  0  0  0  0  0  0  0
   -1.7053   -0.7546    0.3620 N   0  0  0  0  0  0  0  0  0  0  0  0
   -2.5167   -0.1886    0.1180 H   0  0  0  0  0  0  0  0  0  0  0  0
   -0.3945   -0.0861    0.3089 C   0  0  1  0  0  0  0  0  0  0  0  0
    0.2481   -0.5327    1.0750 H   0  0  0  0  0  0  0  0  0  0  0  0
    0.3478   -0.2224   -1.0496 C   0  0  0  0  0  0  0  0  0  0  0  0
    0.3293    0.7451   -1.5622 H   0  0  0  0  0  0  0  0  0  0  0  0
    1.4007   -0.4307   -0.8340 H   0  0  0  0  0  0  0  0  0  0  0  0
   -0.1560   -1.2975   -2.0385 C   0  0  0  0  0  0  0  0  0  0  0  0
    0.6669   -1.9878   -2.2493 H   0  0  0  0  0  0  0  0  0  0  0  0
   -0.9699   -1.9032   -1.6385 H   0  0  0  0  0  0  0  0  0  0  0  0
   -0.6895   -0.5316   -3.6236 S   0  0  0  0  0  0  0  0  0  0  0  0
   -2.1641    0.4393   -3.1119 C   0  0  0  0  0  0  0  0  0  0  0  0
   -1.8839    1.2197   -2.3985 H   0  0  0  0  0  0  0  0  0  0  0  0
   -2.6194    0.9158   -3.9849 H   0  0  0  0  0  0  0  0  0  0  0  0
   -2.9045   -0.2154   -2.6440 H   0  0  0  0  0  0  0  0  0  0  0  0
   -0.5539    1.4032    0.6779 C   0  0  0  0  0  0  0  0  0  0  0  0
   -1.5162    2.0336    0.2533 O   0  0  0  0  0  0  0  0  0  0  0  0
    0.3277    2.0138    1.5506 N   0  0  0  0  0  0  0  0  0  0  0  0
    1.0814    1.4491    1.9323 H   0  0  0  0  0  0  0  0  0  0  0  0
    0.1820    3.3933    1.9997 C   0  0  0  0  0  0  0  0  0  0  0  0
   -0.7735    3.5294    2.5171 H   0  0  0  0  0  0  0  0  0  0  0  0
    0.9891    3.6531    2.6914 H   0  0  0  0  0  0  0  0  0  0  0  0
    0.2227    4.0804    1.1479 H   0  0  0  0  0  0  0  0  0  0  0  0
  1  2  1  0  0  0  0
  2  3  1  0  0  0  0
  2  4  1  0  0  0  0
  2  5  1  0  0  0  0
  5  6  2  0  0  0  0
  5  7  1  0  0  0  0
  7  8  1  0  0  0  0
  7  9  1  0  0  0  0
  9 10  1  0  0  0  0
  9 11  1  0  0  0  0
  9 22  1  0  0  0  0
 11 12  1  0  0  0  0
 11 13  1  0  0  0  0
 11 14  1  0  0  0  0
 14 15  1  0  0  0  0
 14 16  1  0  0  0  0
 14 17  1  0  0  0  0
 17 18  1  0  0  0  0
 18 19  1  0  0  0  0
 18 20  1  0  0  0  0
 18 21  1  0  0  0  0
 22 23  2  0  0  0  0
 22 24  1  0  0  0  0
 24 25  1  0  0  0  0
 24 26  1  0  0  0  0
 26 27  1  0  0  0  0
 26 28  1  0  0  0  0
 26 29  1  0  0  0  0
M  END
$$$$

  -OEChem-02102214153D

 29 28  0     1  0  0  0  0  0999 V2000
   -3.3933   -3.4403    1.5724 H   0  0  0  0  0  0  0  0  0  0  0  0
   -3.3753   -2.4834    1.0433 C   0  0  0  0  0  0  0  0  0  0  0  0
   -3.9875   -1.7658    1.5947 H   0  0  0  0  0  0  0  0  0  0  0  0
   -3.7990   -2.6237    0.0459 H   0  0  0  0  0  0  0  0  0  0  0  0
   -1.9514   -1.9727    0.9337 C   0  0  0  0  0  0  0  0  0  0  0  0
   -1.0244   -2.6485    1.3498 O   0  0  0  0  0  0  0  0  0  0  0  0
   -1.7073   -0.7442    0.3561 N   0  0  0  0  0  0  0  0  0  0  0  0
   -2.5156   -0.1730    0.1133 H   0  0  0  0  0  0  0  0  0  0  0  0
   -0.3937   -0.0815    0.3141 C   0  0  1  0  0  0  0  0  0  0  0  0
    0.2423   -0.5348    1.0816 H   0  0  0  0  0  0  0  0  0  0  0  0
    0.3569   -0.2130   -1.0399 C   0  0  0  0  0  0  0  0  0  0  0  0
    0.3171    0.7586   -1.5425 H   0  0  0  0  0  0  0  0  0  0  0  0
    1.4147   -0.4059   -0.8349 H   0  0  0  0  0  0  0  0  0  0  0  0
   -0.1445   -1.2794   -2.0388 C   0  0  0  0  0  0  0  0  0  0  0  0
    0.5416   -2.1322   -2.0258 H   0  0  0  0  0  0  0  0  0  0  0  0
   -1.1348   -1.6638   -1.7914 H   0  0  0  0  0  0  0  0  0  0  0  0
   -0.2297   -0.5758   -3.7357 S   0  0  0  0  0  0  0  0  0  0  0  0
   -1.7027    0.5186   -3.6163 C   0  0  0  0  0  0  0  0  0  0  0  0
   -1.5563    1.2832   -2.8473 H   0  0  0  0  0  0  0  0  0  0  0  0
   -1.8760    1.0181   -4.5741 H   0  0  0  0  0  0  0  0  0  0  0  0
   -2.5900   -0.0684   -3.3621 H   0  0  0  0  0  0  0  0  0  0  0  0
   -0.5484    1.4063    0.6906 C   0  0  0  0  0  0  0  0  0  0  0  0
   -1.4974    2.0468    0.2514 O   0  0  0  0  0  0  0  0  0  0  0  0
    0.3310    2.0077    1.5716 N   0  0  0  0  0  0  0  0  0  0  0  0
    1.0839    1.4396    1.9498 H   0  0  0  0  0  0  0  0  0  0  0  0
    0.2113    3.3967    1.9981 C   0  0  0  0  0  0  0  0  0  0  0  0
   -0.7511    3.5658    2.4929 H   0  0  0  0  0  0  0  0  0  0  0  0
    1.0100    3.6457    2.7035 H   0  0  0  0  0  0  0  0  0  0  0  0
    0.2886    4.0688    1.1370 H   0  0  0  0  0  0  0  0  0  0  0  0
  1  2  1  0  0  0  0
  2  3  1  0  0  0  0
  2  4  1  0  0  0  0
  2  5  1  0  0  0  0
  5  6  2  0  0  0  0
  5  7  1  0  0  0  0
  7  8  1  0  0  0  0
  7  9  1  0  0  0  0
  9 10  1  0  0  0  0
  9 11  1  0  0  0  0
  9 22  1  0  0  0  0
 11 12  1  0  0  0  0
 11 13  1  0  0  0  0
 11 14  1  0  0  0  0
 14 15  1  0  0  0  0
 14 16  1  0  0  0  0
 14 17  1  0  0  0  0
 17 18  1  0  0  0  0
 18 19  1  0  0  0  0
 18 20  1  0  0  0  0
 18 21  1  0  0  0  0
 22 23  2  0  0  0  0
 22 24  1  0  0  0  0
 24 25  1  0  0  0  0
 24 26  1  0  0  0  0
 26 27  1  0  0  0  0
 26 28  1  0  0  0  0
 26 29  1  0  0  0  0
M  END
$$$$

  -OEChem-02102214153D

 29 28  0     1  0  0  0  0  0999 V2000
   -3.4034   -3.4320    1.5278 H   0  0  0  0  0  0  0  0  0  0  0  0
   -3.3794   -2.4727    1.0035 C   0  0  0  0  0  0  0  0  0  0  0  0
   -4.0010   -1.7582    1.5485 H   0  0  0  0  0  0  0  0  0  0  0  0
   -3.7880   -2.6095   -0.0005 H   0  0  0  0  0  0  0  0  0  0  0  0
   -1.9547   -1.9600    0.9155 C   0  0  0  0  0  0  0  0  0  0  0  0
   -1.0320   -2.6390    1.3361 O   0  0  0  0  0  0  0  0  0  0  0  0
   -1.7050   -0.7285    0.3470 N   0  0  0  0  0  0  0  0  0  0  0  0
   -2.5109   -0.1558    0.0998 H   0  0  0  0  0  0  0  0  0  0  0  0
   -0.3903   -0.0668    0.3177 C   0  0  1  0  0  0  0  0  0  0  0  0
    0.2392   -0.5265    1.0867 H   0  0  0  0  0  0  0  0  0  0  0  0
    0.3647   -0.2060   -1.0316 C   0  0  0  0  0  0  0  0  0  0  0  0
    0.3076    0.7595   -1.5436 H   0  0  0  0  0  0  0  0  0  0  0  0
    1.4251   -0.3911   -0.8333 H   0  0  0  0  0  0  0  0  0  0  0  0
   -0.1494   -1.2777   -2.0133 C   0  0  0  0  0  0  0  0  0  0  0  0
    0.3398   -2.2332   -1.7974 H   0  0  0  0  0  0  0  0  0  0  0  0
   -1.2270   -1.4315   -1.9283 H   0  0  0  0  0  0  0  0  0  0  0  0
    0.1843   -0.7608   -3.7465 S   0  0  0  0  0  0  0  0  0  0  0  0
   -1.1398    0.4790   -4.0464 C   0  0  0  0  0  0  0  0  0  0  0  0
   -1.0552    1.3130   -3.3438 H   0  0  0  0  0  0  0  0  0  0  0  0
   -1.0606    0.8721   -5.0642 H   0  0  0  0  0  0  0  0  0  0  0  0
   -2.1242    0.0177   -3.9254 H   0  0  0  0  0  0  0  0  0  0  0  0
   -0.5350    1.4200    0.7003 C   0  0  0  0  0  0  0  0  0  0  0  0
   -1.4762    2.0703    0.2593 O   0  0  0  0  0  0  0  0  0  0  0  0
    0.3447    2.0103    1.5885 N   0  0  0  0  0  0  0  0  0  0  0  0
    1.0911    1.4345    1.9680 H   0  0  0  0  0  0  0  0  0  0  0  0
    0.2323    3.3977    2.0216 C   0  0  0  0  0  0  0  0  0  0  0  0
   -0.7331    3.5707    2.5091 H   0  0  0  0  0  0  0  0  0  0  0  0
    1.0271    3.6373    2.7347 H   0  0  0  0  0  0  0  0  0  0  0  0
    0.3211    4.0741    1.1648 H   0  0  0  0  0  0  0  0  0  0  0  0
  1  2  1  0  0  0  0
  2  3  1  0  0  0  0
  2  4  1  0  0  0  0
  2  5  1  0  0  0  0
  5  6  2  0  0  0  0
  5  7  1  0  0  0  0
  7  8  1  0  0  0  0
  7  9  1  0  0  0  0
  9 10  1  0  0  0  0
  9 11  1  0  0  0  0
  9 22  1  0  0  0  0
 11 12  1  0  0  0  0
 11 13  1  0  0  0  0
 11 14  1  0  0  0  0
 14 15  1  0  0  0  0
 14 16  1  0  0  0  0
 14 17  1  0  0  0  0
 17 18  1  0  0  0  0
 18 19  1  0  0  0  0
 18 20  1  0  0  0  0
 18 21  1  0  0  0  0
 22 23  2  0  0  0  0
 22 24  1  0  0  0  0
 24 25  1  0  0  0  0
 24 26  1  0  0  0  0
 26 27  1  0  0  0  0
 26 28  1  0  0  0  0
 26 29  1  0  0  0  0
M  END
$$$$

  -OEChem-02102214153D

 29 28  0     1  0  0  0  0  0999 V2000
   -3.4093   -3.4307    1.4915 H   0  0  0  0  0  0  0  0  0  0  0  0
   -3.3826   -2.4702    0.9689 C   0  0  0  0  0  0  0  0  0  0  0  0
   -4.0117   -1.7584    1.5089 H   0  0  0  0  0  0  0  0  0  0  0  0
   -3.7807   -2.6066   -0.0396 H   0  0  0  0  0  0  0  0  0  0  0  0
   -1.9579   -1.9545    0.8972 C   0  0  0  0  0  0  0  0  0  0  0  0
   -1.0400   -2.6316    1.3307 O   0  0  0  0  0  0  0  0  0  0  0  0
   -1.7020   -0.7227    0.3318 N   0  0  0  0  0  0  0  0  0  0  0  0
   -2.5055   -0.1489    0.0794 H   0  0  0  0  0  0  0  0  0  0  0  0
   -0.3863   -0.0610    0.3162 C   0  0  1  0  0  0  0  0  0  0  0  0
    0.2377   -0.5229    1.0886 H   0  0  0  0  0  0  0  0  0  0  0  0
    0.3705   -0.2056   -1.0295 C   0  0  0  0  0  0  0  0  0  0  0  0
    0.3212    0.7543   -1.5529 H   0  0  0  0  0  0  0  0  0  0  0  0
    1.4279   -0.4046   -0.8283 H   0  0  0  0  0  0  0  0  0  0  0  0
   -0.1653   -1.2821   -1.9869 C   0  0  0  0  0  0  0  0  0  0  0  0
    0.1035   -2.2739   -1.6085 H   0  0  0  0  0  0  0  0  0  0  0  0
   -1.2546   -1.2342   -2.0672 H   0  0  0  0  0  0  0  0  0  0  0  0
    0.5320   -1.0317   -3.6697 S   0  0  0  0  0  0  0  0  0  0  0  0
   -0.4932    0.3440   -4.3296 C   0  0  0  0  0  0  0  0  0  0  0  0
   -0.3677    1.2446   -3.7220 H   0  0  0  0  0  0  0  0  0  0  0  0
   -0.1941    0.5734   -5.3565 H   0  0  0  0  0  0  0  0  0  0  0  0
   -1.5505    0.0634   -4.3282 H   0  0  0  0  0  0  0  0  0  0  0  0
   -0.5282    1.4263    0.6973 C   0  0  0  0  0  0  0  0  0  0  0  0
   -1.4642    2.0796    0.2501 O   0  0  0  0  0  0  0  0  0  0  0  0
    0.3456    2.0132    1.5934 N   0  0  0  0  0  0  0  0  0  0  0  0
    1.0845    1.4335    1.9815 H   0  0  0  0  0  0  0  0  0  0  0  0
    0.2349    3.4010    2.0261 C   0  0  0  0  0  0  0  0  0  0  0  0
   -0.7326    3.5767    2.5082 H   0  0  0  0  0  0  0  0  0  0  0  0
    1.0264    3.6378    2.7436 H   0  0  0  0  0  0  0  0  0  0  0  0
    0.3302    4.0776    1.1702 H   0  0  0  0  0  0  0  0  0  0  0  0
  1  2  1  0  0  0  0
  2  3  1  0  0  0  0
  2  4  1  0  0  0  0
  2  5  1  0  0  0  0
  5  6  2  0  0  0  0
  5  7  1  0  0  0  0
  7  8  1  0  0  0  0
  7  9  1  0  0  0  0
  9 10  1  0  0  0  0
  9 11  1  0  0  0  0
  9 22  1  0  0  0  0
 11 12  1  0  0  0  0
 11 13  1  0  0  0  0
 11 14  1  0  0  0  0
 14 15  1  0  0  0  0
 14 16  1  0  0  0  0
 14 17  1  0  0  0  0
 17 18  1  0  0  0  0
 18 19  1  0  0  0  0
 18 20  1  0  0  0  0
 18 21  1  0  0  0  0
 22 23  2  0  0  0  0
 22 24  1  0  0  0  0
 24 25  1  0  0  0  0
 24 26  1  0  0  0  0
 26 27  1  0  0  0  0
 26 28  1  0  0  0  0
 26 29  1  0  0  0  0
M  END
$$$$

  -OEChem-02102214153D

 29 28  0     1  0  0  0  0  0999 V2000
   -3.4208   -3.4288    1.4802 H   0  0  0  0  0  0  0  0  0  0  0  0
   -3.3844   -2.4717    0.9523 C   0  0  0  0  0  0  0  0  0  0  0  0
   -4.0215   -1.7560    1.4772 H   0  0  0  0  0  0  0  0  0  0  0  0
   -3.7661   -2.6143   -0.0615 H   0  0  0  0  0  0  0  0  0  0  0  0
   -1.9583   -1.9573    0.9006 C   0  0  0  0  0  0  0  0  0  0  0  0
   -1.0491   -2.6260    1.3643 O   0  0  0  0  0  0  0  0  0  0  0  0
   -1.6916   -0.7334    0.3238 N   0  0  0  0  0  0  0  0  0  0  0  0
   -2.4893   -0.1638    0.0451 H   0  0  0  0  0  0  0  0  0  0  0  0
   -0.3715   -0.0790    0.3117 C   0  0  1  0  0  0  0  0  0  0  0  0
    0.2572   -0.5308    1.0863 H   0  0  0  0  0  0  0  0  0  0  0  0
    0.3710   -0.2228   -1.0424 C   0  0  0  0  0  0  0  0  0  0  0  0
    0.6039    0.7705   -1.4387 H   0  0  0  0  0  0  0  0  0  0  0  0
    1.3256   -0.7268   -0.8597 H   0  0  0  0  0  0  0  0  0  0  0  0
   -0.3858   -1.0101   -2.1202 C   0  0  0  0  0  0  0  0  0  0  0  0
   -0.5749   -2.0287   -1.7653 H   0  0  0  0  0  0  0  0  0  0  0  0
   -1.3492   -0.5372   -2.3347 H   0  0  0  0  0  0  0  0  0  0  0  0
    0.6154   -1.0940   -3.6590 S   0  0  0  0  0  0  0  0  0  0  0  0
    0.3787    0.5808   -4.3776 C   0  0  0  0  0  0  0  0  0  0  0  0
    0.7779    1.3475   -3.7078 H   0  0  0  0  0  0  0  0  0  0  0  0
    0.8991    0.6525   -5.3372 H   0  0  0  0  0  0  0  0  0  0  0  0
   -0.6851    0.7763   -4.5414 H   0  0  0  0  0  0  0  0  0  0  0  0
   -0.5238    1.4113    0.6773 C   0  0  0  0  0  0  0  0  0  0  0  0
   -1.4484    2.0612    0.2020 O   0  0  0  0  0  0  0  0  0  0  0  0
    0.3387    2.0093    1.5771 N   0  0  0  0  0  0  0  0  0  0  0  0
    1.0686    1.4326    1.9864 H   0  0  0  0  0  0  0  0  0  0  0  0
    0.2196    3.4006    1.9956 C   0  0  0  0  0  0  0  0  0  0  0  0
   -0.7529    3.5777    2.4671 H   0  0  0  0  0  0  0  0  0  0  0  0
    1.0035    3.6466    2.7183 H   0  0  0  0  0  0  0  0  0  0  0  0
    0.3210    4.0695    1.1344 H   0  0  0  0  0  0  0  0  0  0  0  0
  1  2  1  0  0  0  0
  2  3  1  0  0  0  0
  2  4  1  0  0  0  0
  2  5  1  0  0  0  0
  5  6  2  0  0  0  0
  5  7  1  0  0  0  0
  7  8  1  0  0  0  0
  7  9  1  0  0  0  0
  9 10  1  0  0  0  0
  9 11  1  0  0  0  0
  9 22  1  0  0  0  0
 11 12  1  0  0  0  0
 11 13  1  0  0  0  0
 11 14  1  0  0  0  0
 14 15  1  0  0  0  0
 14 16  1  0  0  0  0
 14 17  1  0  0  0  0
 17 18  1  0  0  0  0
 18 19  1  0  0  0  0
 18 20  1  0  0  0  0
 18 21  1  0  0  0  0
 22 23  2  0  0  0  0
 22 24  1  0  0  0  0
 24 25  1  0  0  0  0
 24 26  1  0  0  0  0
 26 27  1  0  0  0  0
 26 28  1  0  0  0  0
 26 29  1  0  0  0  0
M  END
$$$$

  -OEChem-02102214153D

 29 28  0     1  0  0  0  0  0999 V2000
   -3.4128   -3.4374    1.5091 H   0  0  0  0  0  0  0  0  0  0  0  0
   -3.3923   -2.4653    1.0084 C   0  0  0  0  0  0  0  0  0  0  0  0
   -4.0068   -1.7634    1.5774 H   0  0  0  0  0  0  0  0  0  0  0  0
   -3.8122   -2.5772    0.0057 H   0  0  0  0  0  0  0  0  0  0  0  0
   -1.9670   -1.9536    0.9190 C   0  0  0  0  0  0  0  0  0  0  0  0
   -1.0488   -2.6184    1.3705 O   0  0  0  0  0  0  0  0  0  0  0  0
   -1.7117   -0.7331    0.3291 N   0  0  0  0  0  0  0  0  0  0  0  0
   -2.5144   -0.1640    0.0635 H   0  0  0  0  0  0  0  0  0  0  0  0
   -0.3907   -0.0824    0.2826 C   0  0  1  0  0  0  0  0  0  0  0  0
    0.2542   -0.5303    1.0459 H   0  0  0  0  0  0  0  0  0  0  0  0
    0.3259   -0.2305   -1.0865 C   0  0  0  0  0  0  0  0  0  0  0  0
    0.5670    0.7578   -1.4909 H   0  0  0  0  0  0  0  0  0  0  0  0
    1.2759   -0.7445   -0.9069 H   0  0  0  0  0  0  0  0  0  0  0  0
   -0.4416   -1.0193   -2.1584 C   0  0  0  0  0  0  0  0  0  0  0  0
   -0.8327   -1.9477   -1.7311 H   0  0  0  0  0  0  0  0  0  0  0  0
   -1.2859   -0.4320   -2.5327 H   0  0  0  0  0  0  0  0  0  0  0  0
    0.6824   -1.4860   -3.5364 S   0  0  0  0  0  0  0  0  0  0  0  0
    1.0151    0.1244   -4.3546 C   0  0  0  0  0  0  0  0  0  0  0  0
    1.5561    0.7932   -3.6795 H   0  0  0  0  0  0  0  0  0  0  0  0
    1.6229   -0.0310   -5.2509 H   0  0  0  0  0  0  0  0  0  0  0  0
    0.0756    0.6021   -4.6474 H   0  0  0  0  0  0  0  0  0  0  0  0
   -0.5350    1.4098    0.6445 C   0  0  0  0  0  0  0  0  0  0  0  0
   -1.4741    2.0563    0.1938 O   0  0  0  0  0  0  0  0  0  0  0  0
    0.3483    2.0111    1.5220 N   0  0  0  0  0  0  0  0  0  0  0  0
    1.0773    1.4309    1.9280 H   0  0  0  0  0  0  0  0  0  0  0  0
    0.2143    3.3920    1.9703 C   0  0  0  0  0  0  0  0  0  0  0  0
   -0.7373    3.5343    2.4932 H   0  0  0  0  0  0  0  0  0  0  0  0
    1.0274    3.6477    2.6565 H   0  0  0  0  0  0  0  0  0  0  0  0
    0.2540    4.0781    1.1176 H   0  0  0  0  0  0  0  0  0  0  0  0
  1  2  1  0  0  0  0
  2  3  1  0  0  0  0
  2  4  1  0  0  0  0
  2  5  1  0  0  0  0
  5  6  2  0  0  0  0
  5  7  1  0  0  0  0
  7  8  1  0  0  0  0
  7  9  1  0  0  0  0
  9 10  1  0  0  0  0
  9 11  1  0  0  0  0
  9 22  1  0  0  0  0
 11 12  1  0  0  0  0
 11 13  1  0  0  0  0
 11 14  1  0  0  0  0
 14 15  1  0  0  0  0
 14 16  1  0  0  0  0
 14 17  1  0  0  0  0
 17 18  1  0  0  0  0
 18 19  1  0  0  0  0
 18 20  1  0  0  0  0
 18 21  1  0  0  0  0
 22 23  2  0  0  0  0
 22 24  1  0  0  0  0
 24 25  1  0  0  0  0
 24 26  1  0  0  0  0
 26 27  1  0  0  0  0
 26 28  1  0  0  0  0
 26 29  1  0  0  0  0
M  END
$$$$

  -OEChem-02102214153D

 29 28  0     1  0  0  0  0  0999 V2000
   -3.4251   -3.4325    1.5547 H   0  0  0  0  0  0  0  0  0  0  0  0
   -3.4099   -2.4623    1.0504 C   0  0  0  0  0  0  0  0  0  0  0  0
   -4.0132   -1.7563    1.6262 H   0  0  0  0  0  0  0  0  0  0  0  0
   -3.8454   -2.5765    0.0549 H   0  0  0  0  0  0  0  0  0  0  0  0
   -1.9846   -1.9556    0.9375 C   0  0  0  0  0  0  0  0  0  0  0  0
   -1.0627   -2.6200    1.3817 O   0  0  0  0  0  0  0  0  0  0  0  0
   -1.7354   -0.7369    0.3413 N   0  0  0  0  0  0  0  0  0  0  0  0
   -2.5401   -0.1670    0.0842 H   0  0  0  0  0  0  0  0  0  0  0  0
   -0.4124   -0.0950    0.2623 C   0  0  1  0  0  0  0  0  0  0  0  0
    0.2460   -0.5465    1.0119 H   0  0  0  0  0  0  0  0  0  0  0  0
    0.2809   -0.2363   -1.1213 C   0  0  0  0  0  0  0  0  0  0  0  0
    0.5345    0.7514   -1.5208 H   0  0  0  0  0  0  0  0  0  0  0  0
    1.2267   -0.7587   -0.9441 H   0  0  0  0  0  0  0  0  0  0  0  0
   -0.4846   -1.0124   -2.2090 C   0  0  0  0  0  0  0  0  0  0  0  0
   -1.0844   -1.8127   -1.7688 H   0  0  0  0  0  0  0  0  0  0  0  0
   -1.1600   -0.3416   -2.7494 H   0  0  0  0  0  0  0  0  0  0  0  0
    0.6920   -1.8322   -3.3608 S   0  0  0  0  0  0  0  0  0  0  0  0
    1.5193   -0.4051   -4.1686 C   0  0  0  0  0  0  0  0  0  0  0  0
    2.0868    0.1740   -3.4345 H   0  0  0  0  0  0  0  0  0  0  0  0
    2.2088   -0.7609   -4.9398 H   0  0  0  0  0  0  0  0  0  0  0  0
    0.7771    0.2482   -4.6369 H   0  0  0  0  0  0  0  0  0  0  0  0
   -0.5426    1.3976    0.6280 C   0  0  0  0  0  0  0  0  0  0  0  0
   -1.4855    2.0501    0.1942 O   0  0  0  0  0  0  0  0  0  0  0  0
    0.3629    1.9964    1.4842 N   0  0  0  0  0  0  0  0  0  0  0  0
    1.0950    1.4122    1.8787 H   0  0  0  0  0  0  0  0  0  0  0  0
    0.2464    3.3797    1.9303 C   0  0  0  0  0  0  0  0  0  0  0  0
   -0.6875    3.5263    2.4832 H   0  0  0  0  0  0  0  0  0  0  0  0
    1.0820    3.6369    2.5883 H   0  0  0  0  0  0  0  0  0  0  0  0
    0.2595    4.0615    1.0734 H   0  0  0  0  0  0  0  0  0  0  0  0
  1  2  1  0  0  0  0
  2  3  1  0  0  0  0
  2  4  1  0  0  0  0
  2  5  1  0  0  0  0
  5  6  2  0  0  0  0
  5  7  1  0  0  0  0
  7  8  1  0  0  0  0
  7  9  1  0  0  0  0
  9 10  1  0  0  0  0
  9 11  1  0  0  0  0
  9 22  1  0  0  0  0
 11 12  1  0  0  0  0
 11 13  1  0  0  0  0
 11 14  1  0  0  0  0
 14 15  1  0  0  0  0
 14 16  1  0  0  0  0
 14 17  1  0  0  0  0
 17 18  1  0  0  0  0
 18 19  1  0  0  0  0
 18 20  1  0  0  0  0
 18 21  1  0  0  0  0
 22 23  2  0  0  0  0
 22 24  1  0  0  0  0
 24 25  1  0  0  0  0
 24 26  1  0  0  0  0
 26 27  1  0  0  0  0
 26 28  1  0  0  0  0
 26 29  1  0  0  0  0
M  END
$$$$

  -OEChem-02102214153D

 29 28  0     1  0  0  0  0  0999 V2000
   -3.4607   -3.4048    1.5784 H   0  0  0  0  0  0  0  0  0  0  0  0
   -3.4343   -2.4502    1.0453 C   0  0  0  0  0  0  0  0  0  0  0  0
   -4.0479   -1.7269    1.5877 H   0  0  0  0  0  0  0  0  0  0  0  0
   -3.8500   -2.5939    0.0450 H   0  0  0  0  0  0  0  0  0  0  0  0
   -2.0066   -1.9474    0.9457 C   0  0  0  0  0  0  0  0  0  0  0  0
   -1.0920   -2.6114    1.4058 O   0  0  0  0  0  0  0  0  0  0  0  0
   -1.7486   -0.7290    0.3520 N   0  0  0  0  0  0  0  0  0  0  0  0
   -2.5487   -0.1580    0.0832 H   0  0  0  0  0  0  0  0  0  0  0  0
   -0.4207   -0.0984    0.2728 C   0  0  1  0  0  0  0  0  0  0  0  0
    0.2323   -0.5562    1.0234 H   0  0  0  0  0  0  0  0  0  0  0  0
    0.2810   -0.2385   -1.1090 C   0  0  0  0  0  0  0  0  0  0  0  0
    0.5443    0.7506   -1.4988 H   0  0  0  0  0  0  0  0  0  0  0  0
    1.2254   -0.7584   -0.9188 H   0  0  0  0  0  0  0  0  0  0  0  0
   -0.4627   -1.0028   -2.2269 C   0  0  0  0  0  0  0  0  0  0  0  0
   -1.2784   -1.6118   -1.8340 H   0  0  0  0  0  0  0  0  0  0  0  0
   -0.8973   -0.2931   -2.9378 H   0  0  0  0  0  0  0  0  0  0  0  0
    0.6764   -2.1616   -3.0883 S   0  0  0  0  0  0  0  0  0  0  0  0
    1.8279   -1.0160   -3.9458 C   0  0  0  0  0  0  0  0  0  0  0  0
    2.3663   -0.4000   -3.2201 H   0  0  0  0  0  0  0  0  0  0  0  0
    2.5572   -1.5865   -4.5286 H   0  0  0  0  0  0  0  0  0  0  0  0
    1.2742   -0.3600   -4.6240 H   0  0  0  0  0  0  0  0  0  0  0  0
   -0.5398    1.3943    0.6431 C   0  0  0  0  0  0  0  0  0  0  0  0
   -1.4718    2.0581    0.2029 O   0  0  0  0  0  0  0  0  0  0  0  0
    0.3712    1.9836    1.5002 N   0  0  0  0  0  0  0  0  0  0  0  0
    1.0919    1.3901    1.9018 H   0  0  0  0  0  0  0  0  0  0  0  0
    0.2718    3.3697    1.9416 C   0  0  0  0  0  0  0  0  0  0  0  0
   -0.6686    3.5347    2.4781 H   0  0  0  0  0  0  0  0  0  0  0  0
    1.1004    3.6137    2.6135 H   0  0  0  0  0  0  0  0  0  0  0  0
    0.3121    4.0490    1.0836 H   0  0  0  0  0  0  0  0  0  0  0  0
  1  2  1  0  0  0  0
  2  3  1  0  0  0  0
  2  4  1  0  0  0  0
  2  5  1  0  0  0  0
  5  6  2  0  0  0  0
  5  7  1  0  0  0  0
  7  8  1  0  0  0  0
  7  9  1  0  0  0  0
  9 10  1  0  0  0  0
  9 11  1  0  0  0  0
  9 22  1  0  0  0  0
 11 12  1  0  0  0  0
 11 13  1  0  0  0  0
 11 14  1  0  0  0  0
 14 15  1  0  0  0  0
 14 16  1  0  0  0  0
 14 17  1  0  0  0  0
 17 18  1  0  0  0  0
 18 19  1  0  0  0  0
 18 20  1  0  0  0  0
 18 21  1  0  0  0  0
 22 23  2  0  0  0  0
 22 24  1  0  0  0  0
 24 25  1  0  0  0  0
 24 26  1  0  0  0  0
 26 27  1  0  0  0  0
 26 28  1  0  0  0  0
 26 29  1  0  0  0  0
M  END
$$$$

  -OEChem-02102214153D

 29 28  0     1  0  0  0  0  0999 V2000
   -3.4801   -3.3978    1.5379 H   0  0  0  0  0  0  0  0  0  0  0  0
   -3.4419   -2.4443    1.0038 C   0  0  0  0  0  0  0  0  0  0  0  0
   -4.0792   -1.7244    1.5226 H   0  0  0  0  0  0  0  0  0  0  0  0
   -3.8208   -2.5933   -0.0101 H   0  0  0  0  0  0  0  0  0  0  0  0
   -2.0154   -1.9319    0.9512 C   0  0  0  0  0  0  0  0  0  0  0  0
   -1.1130   -2.5866    1.4473 O   0  0  0  0  0  0  0  0  0  0  0  0
   -1.7479   -0.7137    0.3617 N   0  0  0  0  0  0  0  0  0  0  0  0
   -2.5419   -0.1486    0.0654 H   0  0  0  0  0  0  0  0  0  0  0  0
   -0.4179   -0.0884    0.2932 C   0  0  1  0  0  0  0  0  0  0  0  0
    0.2275   -0.5495    1.0482 H   0  0  0  0  0  0  0  0  0  0  0  0
    0.2966   -0.2322   -1.0827 C   0  0  0  0  0  0  0  0  0  0  0  0
    0.5439    0.7630   -1.4676 H   0  0  0  0  0  0  0  0  0  0  0  0
    1.2509   -0.7319   -0.8912 H   0  0  0  0  0  0  0  0  0  0  0  0
   -0.4329   -0.9935   -2.2149 C   0  0  0  0  0  0  0  0  0  0  0  0
   -1.4224   -1.3436   -1.9192 H   0  0  0  0  0  0  0  0  0  0  0  0
   -0.5807   -0.3191   -3.0642 H   0  0  0  0  0  0  0  0  0  0  0  0
    0.5453   -2.4510   -2.7649 S   0  0  0  0  0  0  0  0  0  0  0  0
    1.9688   -1.6711   -3.6261 C   0  0  0  0  0  0  0  0  0  0  0  0
    2.5398   -1.0446   -2.9351 H   0  0  0  0  0  0  0  0  0  0  0  0
    2.6328   -2.4436   -4.0253 H   0  0  0  0  0  0  0  0  0  0  0  0
    1.6161   -1.0506   -4.4553 H   0  0  0  0  0  0  0  0  0  0  0  0
   -0.5350    1.4041    0.6651 C   0  0  0  0  0  0  0  0  0  0  0  0
   -1.4577    2.0737    0.2141 O   0  0  0  0  0  0  0  0  0  0  0  0
    0.3716    1.9885    1.5301 N   0  0  0  0  0  0  0  0  0  0  0  0
    1.0815    1.3893    1.9424 H   0  0  0  0  0  0  0  0  0  0  0  0
    0.2738    3.3742    1.9732 C   0  0  0  0  0  0  0  0  0  0  0  0
   -0.6724    3.5434    2.4981 H   0  0  0  0  0  0  0  0  0  0  0  0
    1.0951    3.6119    2.6562 H   0  0  0  0  0  0  0  0  0  0  0  0
    0.3286    4.0551    1.1172 H   0  0  0  0  0  0  0  0  0  0  0  0
  1  2  1  0  0  0  0
  2  3  1  0  0  0  0
  2  4  1  0  0  0  0
  2  5  1  0  0  0  0
  5  6  2  0  0  0  0
  5  7  1  0  0  0  0
  7  8  1  0  0  0  0
  7  9  1  0  0  0  0
  9 10  1  0  0  0  0
  9 11  1  0  0  0  0
  9 22  1  0  0  0  0
 11 12  1  0  0  0  0
 11 13  1  0  0  0  0
 11 14  1  0  0  0  0
 14 15  1  0  0  0  0
 14 16  1  0  0  0  0
 14 17  1  0  0  0  0
 17 18  1  0  0  0  0
 18 19  1  0  0  0  0
 18 20  1  0  0  0  0
 18 21  1  0  0  0  0
 22 23  2  0  0  0  0
 22 24  1  0  0  0  0
 24 25  1  0  0  0  0
 24 26  1  0  0  0  0
 26 27  1  0  0  0  0
 26 28  1  0  0  0  0
 26 29  1  0  0  0  0
M  END
$$$$

  -OEChem-02102214153D

 29 28  0     1  0  0  0  0  0999 V2000
   -3.4800   -3.4113    1.4673 H   0  0  0  0  0  0  0  0  0  0  0  0
   -3.4303   -2.4608    0.9286 C   0  0  0  0  0  0  0  0  0  0  0  0
   -4.1108   -1.7502    1.4039 H   0  0  0  0  0  0  0  0  0  0  0  0
   -3.7472   -2.6249   -0.1042 H   0  0  0  0  0  0  0  0  0  0  0  0
   -2.0131   -1.9203    0.9533 C   0  0  0  0  0  0  0  0  0  0  0  0
   -1.1292   -2.5522    1.5094 O   0  0  0  0  0  0  0  0  0  0  0  0
   -1.7366   -0.7012    0.3694 N   0  0  0  0  0  0  0  0  0  0  0  0
   -2.5224   -0.1574    0.0177 H   0  0  0  0  0  0  0  0  0  0  0  0
   -0.4079   -0.0700    0.3308 C   0  0  1  0  0  0  0  0  0  0  0  0
    0.2245   -0.5311    1.0965 H   0  0  0  0  0  0  0  0  0  0  0  0
    0.3277   -0.2151   -1.0332 C   0  0  0  0  0  0  0  0  0  0  0  0
    0.5480    0.7860   -1.4196 H   0  0  0  0  0  0  0  0  0  0  0  0
    1.2945   -0.6907   -0.8439 H   0  0  0  0  0  0  0  0  0  0  0  0
   -0.3963   -0.9809   -2.1630 C   0  0  0  0  0  0  0  0  0  0  0  0
   -1.4726   -1.0570   -1.9979 H   0  0  0  0  0  0  0  0  0  0  0  0
   -0.2696   -0.4261   -3.0978 H   0  0  0  0  0  0  0  0  0  0  0  0
    0.3194   -2.6583   -2.3964 S   0  0  0  0  0  0  0  0  0  0  0  0
    1.9195   -2.3039   -3.2272 C   0  0  0  0  0  0  0  0  0  0  0  0
    2.5591   -1.6918   -2.5854 H   0  0  0  0  0  0  0  0  0  0  0  0
    2.4414   -3.2400   -3.4469 H   0  0  0  0  0  0  0  0  0  0  0  0
    1.7487   -1.7704   -4.1669 H   0  0  0  0  0  0  0  0  0  0  0  0
   -0.5329    1.4228    0.6982 C   0  0  0  0  0  0  0  0  0  0  0  0
   -1.4344    2.0965    0.2118 O   0  0  0  0  0  0  0  0  0  0  0  0
    0.3545    2.0088    1.5818 N   0  0  0  0  0  0  0  0  0  0  0  0
    1.0542    1.4107    2.0123 H   0  0  0  0  0  0  0  0  0  0  0  0
    0.2676    3.4045    1.9938 C   0  0  0  0  0  0  0  0  0  0  0  0
   -0.6892    3.5991    2.4897 H   0  0  0  0  0  0  0  0  0  0  0  0
    1.0747    3.6437    2.6929 H   0  0  0  0  0  0  0  0  0  0  0  0
    0.3555    4.0661    1.1257 H   0  0  0  0  0  0  0  0  0  0  0  0
  1  2  1  0  0  0  0
  2  3  1  0  0  0  0
  2  4  1  0  0  0  0
  2  5  1  0  0  0  0
  5  6  2  0  0  0  0
  5  7  1  0  0  0  0
  7  8  1  0  0  0  0
  7  9  1  0  0  0  0
  9 10  1  0  0  0  0
  9 11  1  0  0  0  0
  9 22  1  0  0  0  0
 11 12  1  0  0  0  0
 11 13  1  0  0  0  0
 11 14  1  0  0  0  0
 14 15  1  0  0  0  0
 14 16  1  0  0  0  0
 14 17  1  0  0  0  0
 17 18  1  0  0  0  0
 18 19  1  0  0  0  0
 18 20  1  0  0  0  0
 18 21  1  0  0  0  0
 22 23  2  0  0  0  0
 22 24  1  0  0  0  0
 24 25  1  0  0  0  0
 24 26  1  0  0  0  0
 26 27  1  0  0  0  0
 26 28  1  0  0  0  0
 26 29  1  0  0  0  0
M  END
$$$$

  -OEChem-02102214153D

 29 28  0     1  0  0  0  0  0999 V2000
   -3.4293   -3.4440    1.3865 H   0  0  0  0  0  0  0  0  0  0  0  0
   -3.3837   -2.4873    0.8587 C   0  0  0  0  0  0  0  0  0  0  0  0
   -4.1066   -1.8016    1.3070 H   0  0  0  0  0  0  0  0  0  0  0  0
   -3.6461   -2.6514   -0.1892 H   0  0  0  0  0  0  0  0  0  0  0  0
   -1.9866   -1.9050    0.9544 C   0  0  0  0  0  0  0  0  0  0  0  0
   -1.1185   -2.5008    1.5727 O   0  0  0  0  0  0  0  0  0  0  0  0
   -1.7133   -0.6852    0.3702 N   0  0  0  0  0  0  0  0  0  0  0  0
   -2.4904   -0.1723   -0.0409 H   0  0  0  0  0  0  0  0  0  0  0  0
   -0.3880   -0.0460    0.3464 C   0  0  1  0  0  0  0  0  0  0  0  0
    0.2447   -0.5034    1.1140 H   0  0  0  0  0  0  0  0  0  0  0  0
    0.3449   -0.1923   -1.0184 C   0  0  0  0  0  0  0  0  0  0  0  0
    0.5541    0.8084   -1.4116 H   0  0  0  0  0  0  0  0  0  0  0  0
    1.3150   -0.6641   -0.8411 H   0  0  0  0  0  0  0  0  0  0  0  0
   -0.3982   -0.9631   -2.1280 C   0  0  0  0  0  0  0  0  0  0  0  0
   -1.4773   -0.7944   -2.0831 H   0  0  0  0  0  0  0  0  0  0  0  0
   -0.0664   -0.5809   -3.0984 H   0  0  0  0  0  0  0  0  0  0  0  0
   -0.0234   -2.7631   -2.0799 S   0  0  0  0  0  0  0  0  0  0  0  0
    1.7014   -2.8549   -2.7059 C   0  0  0  0  0  0  0  0  0  0  0  0
    2.3869   -2.3460   -2.0229 H   0  0  0  0  0  0  0  0  0  0  0  0
    2.0109   -3.9007   -2.7920 H   0  0  0  0  0  0  0  0  0  0  0  0
    1.7722   -2.3871   -3.6922 H   0  0  0  0  0  0  0  0  0  0  0  0
   -0.5246    1.4473    0.7089 C   0  0  0  0  0  0  0  0  0  0  0  0
   -1.4146    2.1200    0.2002 O   0  0  0  0  0  0  0  0  0  0  0  0
    0.3499    2.0386    1.6020 N   0  0  0  0  0  0  0  0  0  0  0  0
    1.0333    1.4393    2.0566 H   0  0  0  0  0  0  0  0  0  0  0  0
    0.2566    3.4362    2.0065 C   0  0  0  0  0  0  0  0  0  0  0  0
   -0.7079    3.6336    2.4862 H   0  0  0  0  0  0  0  0  0  0  0  0
    1.0525    3.6782    2.7174 H   0  0  0  0  0  0  0  0  0  0  0  0
    0.3591    4.0940    1.1369 H   0  0  0  0  0  0  0  0  0  0  0  0
  1  2  1  0  0  0  0
  2  3  1  0  0  0  0
  2  4  1  0  0  0  0
  2  5  1  0  0  0  0
  5  6  2  0  0  0  0
  5  7  1  0  0  0  0
  7  8  1  0  0  0  0
  7  9  1  0  0  0  0
  9 10  1  0  0  0  0
  9 11  1  0  0  0  0
  9 22  1  0  0  0  0
 11 12  1  0  0  0  0
 11 13  1  0  0  0  0
 11 14  1  0  0  0  0
 14 15  1  0  0  0  0
 14 16  1  0  0  0  0
 14 17  1  0  0  0  0
 17 18  1  0  0  0  0
 18 19  1  0  0  0  0
 18 20  1  0  0  0  0
 18 21  1  0  0  0  0
 22 23  2  0  0  0  0
 22 24  1  0  0  0  0
 24 25  1  0  0  0  0
 24 26  1  0  0  0  0
 26 27  1  0  0  0  0
 26 28  1  0  0  0  0
 26 29  1  0  0  0  0
M  END
$$$$

  -OEChem-02102214153D

 29 28  0     1  0  0  0  0  0999 V2000
   -3.1736   -3.5935    1.2625 H   0  0  0  0  0  0  0  0  0  0  0  0
   -3.1891   -2.6218    0.7613 C   0  0  0  0  0  0  0  0  0  0  0  0
   -3.9179   -1.9787    1.2599 H   0  0  0  0  0  0  0  0  0  0  0  0
   -3.4911   -2.7675   -0.2787 H   0  0  0  0  0  0  0  0  0  0  0  0
   -1.8139   -1.9851    0.8122 C   0  0  0  0  0  0  0  0  0  0  0  0
   -0.8849   -2.5768    1.3417 O   0  0  0  0  0  0  0  0  0  0  0  0
   -1.6242   -0.7250    0.2825 N   0  0  0  0  0  0  0  0  0  0  0  0
   -2.4408   -0.2334   -0.0738 H   0  0  0  0  0  0  0  0  0  0  0  0
   -0.3237   -0.0435    0.1922 C   0  0  1  0  0  0  0  0  0  0  0  0
    0.3868   -0.5243    0.8720 H   0  0  0  0  0  0  0  0  0  0  0  0
    0.2864   -0.0750   -1.2383 C   0  0  0  0  0  0  0  0  0  0  0  0
    0.4258    0.9559   -1.5819 H   0  0  0  0  0  0  0  0  0  0  0  0
    1.2862   -0.5126   -1.1868 H   0  0  0  0  0  0  0  0  0  0  0  0
   -0.5348   -0.7928   -2.3282 C   0  0  0  0  0  0  0  0  0  0  0  0
   -1.5684   -0.4333   -2.3176 H   0  0  0  0  0  0  0  0  0  0  0  0
   -0.1128   -0.5095   -3.2974 H   0  0  0  0  0  0  0  0  0  0  0  0
   -0.5209   -2.6376   -2.2489 S   0  0  0  0  0  0  0  0  0  0  0  0
    1.1140   -3.1412   -1.5785 C   0  0  0  0  0  0  0  0  0  0  0  0
    1.2260   -2.7960   -0.5464 H   0  0  0  0  0  0  0  0  0  0  0  0
    1.1988   -4.2318   -1.5861 H   0  0  0  0  0  0  0  0  0  0  0  0
    1.9217   -2.7232   -2.1861 H   0  0  0  0  0  0  0  0  0  0  0  0
   -0.4753    1.4204    0.6555 C   0  0  0  0  0  0  0  0  0  0  0  0
   -1.4212    2.0923    0.2592 O   0  0  0  0  0  0  0  0  0  0  0  0
    0.4511    1.9866    1.5115 N   0  0  0  0  0  0  0  0  0  0  0  0
    1.1781    1.3812    1.8821 H   0  0  0  0  0  0  0  0  0  0  0  0
    0.3323    3.3439    2.0302 C   0  0  0  0  0  0  0  0  0  0  0  0
   -0.5759    3.4446    2.6338 H   0  0  0  0  0  0  0  0  0  0  0  0
    1.1949    3.5858    2.6586 H   0  0  0  0  0  0  0  0  0  0  0  0
    0.2918    4.0668    1.2085 H   0  0  0  0  0  0  0  0  0  0  0  0
  1  2  1  0  0  0  0
  2  3  1  0  0  0  0
  2  4  1  0  0  0  0
  2  5  1  0  0  0  0
  5  6  2  0  0  0  0
  5  7  1  0  0  0  0
  7  8  1  0  0  0  0
  7  9  1  0  0  0  0
  9 10  1  0  0  0  0
  9 11  1  0  0  0  0
  9 22  1  0  0  0  0
 11 12  1  0  0  0  0
 11 13  1  0  0  0  0
 11 14  1  0  0  0  0
 14 15  1  0  0  0  0
 14 16  1  0  0  0  0
 14 17  1  0  0  0  0
 17 18  1  0  0  0  0
 18 19  1  0  0  0  0
 18 20  1  0  0  0  0
 18 21  1  0  0  0  0
 22 23  2  0  0  0  0
 22 24  1  0  0  0  0
 24 25  1  0  0  0  0
 24 26  1  0  0  0  0
 26 27  1  0  0  0  0
 26 28  1  0  0  0  0
 26 29  1  0  0  0  0
M  END
$$$$

  -OEChem-02102214153D

 29 28  0     1  0  0  0  0  0999 V2000
   -3.3146   -3.5152    1.3814 H   0  0  0  0  0  0  0  0  0  0  0  0
   -3.2895   -2.5596    0.8506 C   0  0  0  0  0  0  0  0  0  0  0  0
   -4.0164   -1.8831    1.3061 H   0  0  0  0  0  0  0  0  0  0  0  0
   -3.5632   -2.7300   -0.1935 H   0  0  0  0  0  0  0  0  0  0  0  0
   -1.9002   -1.9559    0.9268 C   0  0  0  0  0  0  0  0  0  0  0  0
   -1.0137   -2.5361    1.5365 O   0  0  0  0  0  0  0  0  0  0  0  0
   -1.6548   -0.7274    0.3472 N   0  0  0  0  0  0  0  0  0  0  0  0
   -2.4355   -0.2534   -0.1011 H   0  0  0  0  0  0  0  0  0  0  0  0
   -0.3365   -0.0797    0.2802 C   0  0  1  0  0  0  0  0  0  0  0  0
    0.3367   -0.5428    1.0086 H   0  0  0  0  0  0  0  0  0  0  0  0
    0.3434   -0.1450   -1.1209 C   0  0  0  0  0  0  0  0  0  0  0  0
    0.5578    0.8730   -1.4643 H   0  0  0  0  0  0  0  0  0  0  0  0
    1.3137   -0.6334   -0.9937 H   0  0  0  0  0  0  0  0  0  0  0  0
   -0.3935   -0.8545   -2.2762 C   0  0  0  0  0  0  0  0  0  0  0  0
   -1.3279   -0.3204   -2.4761 H   0  0  0  0  0  0  0  0  0  0  0  0
    0.2253   -0.7710   -3.1752 H   0  0  0  0  0  0  0  0  0  0  0  0
   -0.7870   -2.6389   -2.0278 S   0  0  0  0  0  0  0  0  0  0  0  0
    0.7563   -3.3597   -1.3399 C   0  0  0  0  0  0  0  0  0  0  0  0
    0.9713   -2.9359   -0.3546 H   0  0  0  0  0  0  0  0  0  0  0  0
    0.6454   -4.4424   -1.2309 H   0  0  0  0  0  0  0  0  0  0  0  0
    1.6002   -3.1577   -2.0056 H   0  0  0  0  0  0  0  0  0  0  0  0
   -0.4923    1.4051    0.6714 C   0  0  0  0  0  0  0  0  0  0  0  0
   -1.4045    2.0736    0.1973 O   0  0  0  0  0  0  0  0  0  0  0  0
    0.4027    1.9977    1.5430 N   0  0  0  0  0  0  0  0  0  0  0  0
    1.0999    1.3994    1.9770 H   0  0  0  0  0  0  0  0  0  0  0  0
    0.2813    3.3791    1.9929 C   0  0  0  0  0  0  0  0  0  0  0  0
   -0.6663    3.5283    2.5211 H   0  0  0  0  0  0  0  0  0  0  0  0
    1.1005    3.6283    2.6742 H   0  0  0  0  0  0  0  0  0  0  0  0
    0.3213    4.0652    1.1403 H   0  0  0  0  0  0  0  0  0  0  0  0
  1  2  1  0  0  0  0
  2  3  1  0  0  0  0
  2  4  1  0  0  0  0
  2  5  1  0  0  0  0
  5  6  2  0  0  0  0
  5  7  1  0  0  0  0
  7  8  1  0  0  0  0
  7  9  1  0  0  0  0
  9 10  1  0  0  0  0
  9 11  1  0  0  0  0
  9 22  1  0  0  0  0
 11 12  1  0  0  0  0
 11 13  1  0  0  0  0
 11 14  1  0  0  0  0
 14 15  1  0  0  0  0
 14 16  1  0  0  0  0
 14 17  1  0  0  0  0
 17 18  1  0  0  0  0
 18 19  1  0  0  0  0
 18 20  1  0  0  0  0
 18 21  1  0  0  0  0
 22 23  2  0  0  0  0
 22 24  1  0  0  0  0
 24 25  1  0  0  0  0
 24 26  1  0  0  0  0
 26 27  1  0  0  0  0
 26 28  1  0  0  0  0
 26 29  1  0  0  0  0
M  END
$$$$

  -OEChem-02102214153D

 29 28  0     1  0  0  0  0  0999 V2000
   -3.4084   -3.4571    1.4849 H   0  0  0  0  0  0  0  0  0  0  0  0
   -3.3724   -2.4912    0.9736 C   0  0  0  0  0  0  0  0  0  0  0  0
   -4.0911   -1.8151    1.4425 H   0  0  0  0  0  0  0  0  0  0  0  0
   -3.6488   -2.6375   -0.0735 H   0  0  0  0  0  0  0  0  0  0  0  0
   -1.9760   -1.9050    1.0616 C   0  0  0  0  0  0  0  0  0  0  0  0
   -1.1157   -2.4719    1.7197 O   0  0  0  0  0  0  0  0  0  0  0  0
   -1.6952   -0.7074    0.4353 N   0  0  0  0  0  0  0  0  0  0  0  0
   -2.4486   -0.2597   -0.0817 H   0  0  0  0  0  0  0  0  0  0  0  0
   -0.3673   -0.0814    0.3762 C   0  0  1  0  0  0  0  0  0  0  0  0
    0.2754   -0.5174    1.1477 H   0  0  0  0  0  0  0  0  0  0  0  0
    0.3747   -0.1916   -0.9942 C   0  0  0  0  0  0  0  0  0  0  0  0
    0.6529    0.8106   -1.3386 H   0  0  0  0  0  0  0  0  0  0  0  0
    1.3141   -0.7125   -0.7852 H   0  0  0  0  0  0  0  0  0  0  0  0
   -0.2578   -0.9159   -2.2068 C   0  0  0  0  0  0  0  0  0  0  0  0
   -1.0226   -0.2522   -2.6233 H   0  0  0  0  0  0  0  0  0  0  0  0
    0.5139   -1.0388   -2.9734 H   0  0  0  0  0  0  0  0  0  0  0  0
   -1.0578   -2.5515   -1.9308 S   0  0  0  0  0  0  0  0  0  0  0  0
    0.3071   -3.5431   -1.2041 C   0  0  0  0  0  0  0  0  0  0  0  0
    0.6482   -3.0960   -0.2659 H   0  0  0  0  0  0  0  0  0  0  0  0
   -0.0387   -4.5600   -0.9967 H   0  0  0  0  0  0  0  0  0  0  0  0
    1.1509   -3.5934   -1.8981 H   0  0  0  0  0  0  0  0  0  0  0  0
   -0.5244    1.4208    0.6984 C   0  0  0  0  0  0  0  0  0  0  0  0
   -1.4098    2.0775    0.1611 O   0  0  0  0  0  0  0  0  0  0  0  0
    0.3492    2.0454    1.5696 N   0  0  0  0  0  0  0  0  0  0  0  0
    1.0277    1.4627    2.0517 H   0  0  0  0  0  0  0  0  0  0  0  0
    0.2353    3.4502    1.9424 C   0  0  0  0  0  0  0  0  0  0  0  0
   -0.7304    3.6427    2.4218 H   0  0  0  0  0  0  0  0  0  0  0  0
    1.0300    3.7215    2.6440 H   0  0  0  0  0  0  0  0  0  0  0  0
    0.3231    4.0899    1.0578 H   0  0  0  0  0  0  0  0  0  0  0  0
  1  2  1  0  0  0  0
  2  3  1  0  0  0  0
  2  4  1  0  0  0  0
  2  5  1  0  0  0  0
  5  6  2  0  0  0  0
  5  7  1  0  0  0  0
  7  8  1  0  0  0  0
  7  9  1  0  0  0  0
  9 10  1  0  0  0  0
  9 11  1  0  0  0  0
  9 22  1  0  0  0  0
 11 12  1  0  0  0  0
 11 13  1  0  0  0  0
 11 14  1  0  0  0  0
 14 15  1  0  0  0  0
 14 16  1  0  0  0  0
 14 17  1  0  0  0  0
 17 18  1  0  0  0  0
 18 19  1  0  0  0  0
 18 20  1  0  0  0  0
 18 21  1  0  0  0  0
 22 23  2  0  0  0  0
 22 24  1  0  0  0  0
 24 25  1  0  0  0  0
 24 26  1  0  0  0  0
 26 27  1  0  0  0  0
 26 28  1  0  0  0  0
 26 29  1  0  0  0  0
M  END
$$$$

  -OEChem-02102214153D

 29 28  0     1  0  0  0  0  0999 V2000
   -3.4833   -3.3695    1.6270 H   0  0  0  0  0  0  0  0  0  0  0  0
   -3.4393   -2.4027    1.1183 C   0  0  0  0  0  0  0  0  0  0  0  0
   -4.1398   -1.7164    1.6000 H   0  0  0  0  0  0  0  0  0  0  0  0
   -3.7348   -2.5412    0.0754 H   0  0  0  0  0  0  0  0  0  0  0  0
   -2.0328   -1.8384    1.1883 C   0  0  0  0  0  0  0  0  0  0  0  0
   -1.1830   -2.4000    1.8640 O   0  0  0  0  0  0  0  0  0  0  0  0
   -1.7301   -0.6681    0.5225 N   0  0  0  0  0  0  0  0  0  0  0  0
   -2.4700   -0.2371   -0.0279 H   0  0  0  0  0  0  0  0  0  0  0  0
   -0.3972   -0.0564    0.4555 C   0  0  1  0  0  0  0  0  0  0  0  0
    0.2246   -0.4647    1.2586 H   0  0  0  0  0  0  0  0  0  0  0  0
    0.3862   -0.2186   -0.8891 C   0  0  0  0  0  0  0  0  0  0  0  0
    0.7019    0.7686   -1.2448 H   0  0  0  0  0  0  0  0  0  0  0  0
    1.3049   -0.7472   -0.6158 H   0  0  0  0  0  0  0  0  0  0  0  0
   -0.1647   -0.9766   -2.1263 C   0  0  0  0  0  0  0  0  0  0  0  0
   -0.7065   -0.2393   -2.7274 H   0  0  0  0  0  0  0  0  0  0  0  0
    0.6830   -1.3165   -2.7294 H   0  0  0  0  0  0  0  0  0  0  0  0
   -1.3211   -2.3904   -1.9051 S   0  0  0  0  0  0  0  0  0  0  0  0
   -0.2082   -3.6458   -1.1564 C   0  0  0  0  0  0  0  0  0  0  0  0
    0.2558   -3.2528   -0.2472 H   0  0  0  0  0  0  0  0  0  0  0  0
   -0.7758   -4.5441   -0.8966 H   0  0  0  0  0  0  0  0  0  0  0  0
    0.5814   -3.9208   -1.8613 H   0  0  0  0  0  0  0  0  0  0  0  0
   -0.5497    1.4577    0.7201 C   0  0  0  0  0  0  0  0  0  0  0  0
   -1.4247    2.1000    0.1495 O   0  0  0  0  0  0  0  0  0  0  0  0
    0.3175    2.1090    1.5784 N   0  0  0  0  0  0  0  0  0  0  0  0
    0.9834    1.5395    2.0927 H   0  0  0  0  0  0  0  0  0  0  0  0
    0.2051    3.5262    1.9016 C   0  0  0  0  0  0  0  0  0  0  0  0
   -0.7608    3.7364    2.3729 H   0  0  0  0  0  0  0  0  0  0  0  0
    0.9996    3.8204    2.5940 H   0  0  0  0  0  0  0  0  0  0  0  0
    0.2948    4.1346    0.9954 H   0  0  0  0  0  0  0  0  0  0  0  0
  1  2  1  0  0  0  0
  2  3  1  0  0  0  0
  2  4  1  0  0  0  0
  2  5  1  0  0  0  0
  5  6  2  0  0  0  0
  5  7  1  0  0  0  0
  7  8  1  0  0  0  0
  7  9  1  0  0  0  0
  9 10  1  0  0  0  0
  9 11  1  0  0  0  0
  9 22  1  0  0  0  0
 11 12  1  0  0  0  0
 11 13  1  0  0  0  0
 11 14  1  0  0  0  0
 14 15  1  0  0  0  0
 14 16  1  0  0  0  0
 14 17  1  0  0  0  0
 17 18  1  0  0  0  0
 18 19  1  0  0  0  0
 18 20  1  0  0  0  0
 18 21  1  0  0  0  0
 22 23  2  0  0  0  0
 22 24  1  0  0  0  0
 24 25  1  0  0  0  0
 24 26  1  0  0  0  0
 26 27  1  0  0  0  0
 26 28  1  0  0  0  0
 26 29  1  0  0  0  0
M  END
$$$$

  -OEChem-02102214153D

 29 28  0     1  0  0  0  0  0999 V2000
   -3.5149   -3.2831    1.7813 H   0  0  0  0  0  0  0  0  0  0  0  0
   -3.4715   -2.3226    1.2610 C   0  0  0  0  0  0  0  0  0  0  0  0
   -4.1567   -1.6250    1.7482 H   0  0  0  0  0  0  0  0  0  0  0  0
   -3.7878   -2.4696    0.2255 H   0  0  0  0  0  0  0  0  0  0  0  0
   -2.0589   -1.7704    1.2992 C   0  0  0  0  0  0  0  0  0  0  0  0
   -1.2018   -2.3336    1.9642 O   0  0  0  0  0  0  0  0  0  0  0  0
   -1.7552   -0.6160    0.6076 N   0  0  0  0  0  0  0  0  0  0  0  0
   -2.4938   -0.1983    0.0448 H   0  0  0  0  0  0  0  0  0  0  0  0
   -0.4238   -0.0062    0.5276 C   0  0  1  0  0  0  0  0  0  0  0  0
    0.1890   -0.3915    1.3488 H   0  0  0  0  0  0  0  0  0  0  0  0
    0.3807   -0.2137   -0.7989 C   0  0  0  0  0  0  0  0  0  0  0  0
    0.6986    0.7648   -1.1762 H   0  0  0  0  0  0  0  0  0  0  0  0
    1.2975   -0.7242   -0.4871 H   0  0  0  0  0  0  0  0  0  0  0  0
   -0.1218   -1.0136   -2.0355 C   0  0  0  0  0  0  0  0  0  0  0  0
   -0.4049   -0.2675   -2.7853 H   0  0  0  0  0  0  0  0  0  0  0  0
    0.7232   -1.5706   -2.4528 H   0  0  0  0  0  0  0  0  0  0  0  0
   -1.5608   -2.1552   -1.9204 S   0  0  0  0  0  0  0  0  0  0  0  0
   -0.7546   -3.6581   -1.2370 C   0  0  0  0  0  0  0  0  0  0  0  0
   -0.2112   -3.4163   -0.3190 H   0  0  0  0  0  0  0  0  0  0  0  0
   -1.5071   -4.4184   -1.0084 H   0  0  0  0  0  0  0  0  0  0  0  0
   -0.0477   -4.0715   -1.9620 H   0  0  0  0  0  0  0  0  0  0  0  0
   -0.5745    1.5140    0.7561 C   0  0  0  0  0  0  0  0  0  0  0  0
   -1.4512    2.1437    0.1746 O   0  0  0  0  0  0  0  0  0  0  0  0
    0.2931    2.1840    1.5994 N   0  0  0  0  0  0  0  0  0  0  0  0
    0.9615    1.6267    2.1236 H   0  0  0  0  0  0  0  0  0  0  0  0
    0.1785    3.6075    1.8921 C   0  0  0  0  0  0  0  0  0  0  0  0
   -0.7871    3.8259    2.3605 H   0  0  0  0  0  0  0  0  0  0  0  0
    0.9738    3.9188    2.5761 H   0  0  0  0  0  0  0  0  0  0  0  0
    0.2646    4.1957    0.9724 H   0  0  0  0  0  0  0  0  0  0  0  0
  1  2  1  0  0  0  0
  2  3  1  0  0  0  0
  2  4  1  0  0  0  0
  2  5  1  0  0  0  0
  5  6  2  0  0  0  0
  5  7  1  0  0  0  0
  7  8  1  0  0  0  0
  7  9  1  0  0  0  0
  9 10  1  0  0  0  0
  9 11  1  0  0  0  0
  9 22  1  0  0  0  0
 11 12  1  0  0  0  0
 11 13  1  0  0  0  0
 11 14  1  0  0  0  0
 14 15  1  0  0  0  0
 14 16  1  0  0  0  0
 14 17  1  0  0  0  0
 17 18  1  0  0  0  0
 18 19  1  0  0  0  0
 18 20  1  0  0  0  0
 18 21  1  0  0  0  0
 22 23  2  0  0  0  0
 22 24  1  0  0  0  0
 24 25  1  0  0  0  0
 24 26  1  0  0  0  0
 26 27  1  0  0  0  0
 26 28  1  0  0  0  0
 26 29  1  0  0  0  0
M  END
$$$$

  -OEChem-02102214153D

 29 28  0     1  0  0  0  0  0999 V2000
   -3.3499   -3.4487    1.7466 H   0  0  0  0  0  0  0  0  0  0  0  0
   -3.3564   -2.4641    1.2713 C   0  0  0  0  0  0  0  0  0  0  0  0
   -4.0379   -1.8109    1.8213 H   0  0  0  0  0  0  0  0  0  0  0  0
   -3.7158   -2.5702    0.2450 H   0  0  0  0  0  0  0  0  0  0  0  0
   -1.9592   -1.8727    1.2734 C   0  0  0  0  0  0  0  0  0  0  0  0
   -1.0372   -2.4873    1.7887 O   0  0  0  0  0  0  0  0  0  0  0  0
   -1.7392   -0.6363    0.7043 N   0  0  0  0  0  0  0  0  0  0  0  0
   -2.5270   -0.1868    0.2408 H   0  0  0  0  0  0  0  0  0  0  0  0
   -0.4390    0.0339    0.6144 C   0  0  1  0  0  0  0  0  0  0  0  0
    0.2305   -0.4147    1.3553 H   0  0  0  0  0  0  0  0  0  0  0  0
    0.2990   -0.0192   -0.7643 C   0  0  0  0  0  0  0  0  0  0  0  0
    0.5244    1.0101   -1.0651 H   0  0  0  0  0  0  0  0  0  0  0  0
    1.2677   -0.4848   -0.5563 H   0  0  0  0  0  0  0  0  0  0  0  0
   -0.2351   -0.7240   -2.0475 C   0  0  0  0  0  0  0  0  0  0  0  0
   -0.3037    0.0479   -2.8211 H   0  0  0  0  0  0  0  0  0  0  0  0
    0.5290   -1.4315   -2.3845 H   0  0  0  0  0  0  0  0  0  0  0  0
   -1.8545   -1.6025   -2.0708 S   0  0  0  0  0  0  0  0  0  0  0  0
   -1.3176   -3.3367   -1.7860 C   0  0  0  0  0  0  0  0  0  0  0  0
   -0.7079   -3.6869   -2.6240 H   0  0  0  0  0  0  0  0  0  0  0  0
   -2.1896   -3.9904   -1.6913 H   0  0  0  0  0  0  0  0  0  0  0  0
   -0.7248   -3.4077   -0.8692 H   0  0  0  0  0  0  0  0  0  0  0  0
   -0.6159    1.5129    1.0236 C   0  0  0  0  0  0  0  0  0  0  0  0
   -1.5516    2.1708    0.5828 O   0  0  0  0  0  0  0  0  0  0  0  0
    0.2872    2.1140    1.8817 N   0  0  0  0  0  0  0  0  0  0  0  0
    1.0096    1.5270    2.2888 H   0  0  0  0  0  0  0  0  0  0  0  0
    0.1535    3.4903    2.3443 C   0  0  0  0  0  0  0  0  0  0  0  0
   -0.7778    3.6170    2.9063 H   0  0  0  0  0  0  0  0  0  0  0  0
    0.9909    3.7533    2.9977 H   0  0  0  0  0  0  0  0  0  0  0  0
    0.1491    4.1816    1.4948 H   0  0  0  0  0  0  0  0  0  0  0  0
  1  2  1  0  0  0  0
  2  3  1  0  0  0  0
  2  4  1  0  0  0  0
  2  5  1  0  0  0  0
  5  6  2  0  0  0  0
  5  7  1  0  0  0  0
  7  8  1  0  0  0  0
  7  9  1  0  0  0  0
  9 10  1  0  0  0  0
  9 11  1  0  0  0  0
  9 22  1  0  0  0  0
 11 12  1  0  0  0  0
 11 13  1  0  0  0  0
 11 14  1  0  0  0  0
 14 15  1  0  0  0  0
 14 16  1  0  0  0  0
 14 17  1  0  0  0  0
 17 18  1  0  0  0  0
 18 19  1  0  0  0  0
 18 20  1  0  0  0  0
 18 21  1  0  0  0  0
 22 23  2  0  0  0  0
 22 24  1  0  0  0  0
 24 25  1  0  0  0  0
 24 26  1  0  0  0  0
 26 27  1  0  0  0  0
 26 28  1  0  0  0  0
 26 29  1  0  0  0  0
M  END
$$$$

  -OEChem-02102214153D

 29 28  0     1  0  0  0  0  0999 V2000
   -3.3614   -3.3017    1.9436 H   0  0  0  0  0  0  0  0  0  0  0  0
   -3.3731   -2.3527    1.4008 C   0  0  0  0  0  0  0  0  0  0  0  0
   -4.1037   -1.6876    1.8670 H   0  0  0  0  0  0  0  0  0  0  0  0
   -3.6721   -2.5413    0.3672 H   0  0  0  0  0  0  0  0  0  0  0  0
   -1.9980   -1.7126    1.4357 C   0  0  0  0  0  0  0  0  0  0  0  0
   -1.1000   -2.2314    2.0815 O   0  0  0  0  0  0  0  0  0  0  0  0
   -1.7709   -0.5438    0.7410 N   0  0  0  0  0  0  0  0  0  0  0  0
   -2.5289   -0.1884    0.1604 H   0  0  0  0  0  0  0  0  0  0  0  0
   -0.4906    0.1649    0.6727 C   0  0  1  0  0  0  0  0  0  0  0  0
    0.1209   -0.1639    1.5191 H   0  0  0  0  0  0  0  0  0  0  0  0
    0.3664   -0.0613   -0.6143 C   0  0  0  0  0  0  0  0  0  0  0  0
    0.5360    0.9247   -1.0606 H   0  0  0  0  0  0  0  0  0  0  0  0
    1.3485   -0.4111   -0.2800 H   0  0  0  0  0  0  0  0  0  0  0  0
   -0.0499   -0.9737   -1.8051 C   0  0  0  0  0  0  0  0  0  0  0  0
    0.2237   -0.4583   -2.7314 H   0  0  0  0  0  0  0  0  0  0  0  0
    0.5776   -1.8688   -1.7504 H   0  0  0  0  0  0  0  0  0  0  0  0
   -1.7903   -1.5570   -1.9954 S   0  0  0  0  0  0  0  0  0  0  0  0
   -1.5934   -3.3766   -1.8427 C   0  0  0  0  0  0  0  0  0  0  0  0
   -1.1498   -3.6302   -0.8747 H   0  0  0  0  0  0  0  0  0  0  0  0
   -0.9451   -3.7561   -2.6380 H   0  0  0  0  0  0  0  0  0  0  0  0
   -2.5675   -3.8682   -1.9212 H   0  0  0  0  0  0  0  0  0  0  0  0
   -0.7301    1.6761    0.8819 C   0  0  0  0  0  0  0  0  0  0  0  0
   -1.6461    2.2448    0.2992 O   0  0  0  0  0  0  0  0  0  0  0  0
    0.0885    2.4043    1.7261 N   0  0  0  0  0  0  0  0  0  0  0  0
    0.7942    1.8948    2.2499 H   0  0  0  0  0  0  0  0  0  0  0  0
   -0.1141    3.8202    2.0087 C   0  0  0  0  0  0  0  0  0  0  0  0
   -1.1013    3.9843    2.4535 H   0  0  0  0  0  0  0  0  0  0  0  0
    0.6455    4.1785    2.7102 H   0  0  0  0  0  0  0  0  0  0  0  0
   -0.0399    4.4097    1.0886 H   0  0  0  0  0  0  0  0  0  0  0  0
  1  2  1  0  0  0  0
  2  3  1  0  0  0  0
  2  4  1  0  0  0  0
  2  5  1  0  0  0  0
  5  6  2  0  0  0  0
  5  7  1  0  0  0  0
  7  8  1  0  0  0  0
  7  9  1  0  0  0  0
  9 10  1  0  0  0  0
  9 11  1  0  0  0  0
  9 22  1  0  0  0  0
 11 12  1  0  0  0  0
 11 13  1  0  0  0  0
 11 14  1  0  0  0  0
 14 15  1  0  0  0  0
 14 16  1  0  0  0  0
 14 17  1  0  0  0  0
 17 18  1  0  0  0  0
 18 19  1  0  0  0  0
 18 20  1  0  0  0  0
 18 21  1  0  0  0  0
 22 23  2  0  0  0  0
 22 24  1  0  0  0  0
 24 25  1  0  0  0  0
 24 26  1  0  0  0  0
 26 27  1  0  0  0  0
 26 28  1  0  0  0  0
 26 29  1  0  0  0  0
M  END
$$$$

  -OEChem-02102214153D

 29 28  0     1  0  0  0  0  0999 V2000
   -3.0855   -2.9990    2.9201 H   0  0  0  0  0  0  0  0  0  0  0  0
   -3.1443   -2.1660    2.2145 C   0  0  0  0  0  0  0  0  0  0  0  0
   -3.8090   -1.4022    2.6248 H   0  0  0  0  0  0  0  0  0  0  0  0
   -3.5583   -2.5304    1.2713 H   0  0  0  0  0  0  0  0  0  0  0  0
   -1.7652   -1.5797    1.9800 C   0  0  0  0  0  0  0  0  0  0  0  0
   -0.7876   -2.0857    2.5104 O   0  0  0  0  0  0  0  0  0  0  0  0
   -1.6225   -0.4818    1.1591 N   0  0  0  0  0  0  0  0  0  0  0  0
   -2.4551   -0.1545    0.6706 H   0  0  0  0  0  0  0  0  0  0  0  0
   -0.3433    0.1066    0.7538 C   0  0  1  0  0  0  0  0  0  0  0  0
    0.4244   -0.2238    1.4608 H   0  0  0  0  0  0  0  0  0  0  0  0
    0.1522   -0.2934   -0.6716 C   0  0  0  0  0  0  0  0  0  0  0  0
    0.2729    0.6346   -1.2413 H   0  0  0  0  0  0  0  0  0  0  0  0
    1.1558   -0.7162   -0.5614 H   0  0  0  0  0  0  0  0  0  0  0  0
   -0.6426   -1.2431   -1.6093 C   0  0  0  0  0  0  0  0  0  0  0  0
   -0.3588   -1.0205   -2.6429 H   0  0  0  0  0  0  0  0  0  0  0  0
   -0.3000   -2.2602   -1.3929 H   0  0  0  0  0  0  0  0  0  0  0  0
   -2.4850   -1.2857   -1.5083 S   0  0  0  0  0  0  0  0  0  0  0  0
   -2.8832   -2.5785   -2.7489 C   0  0  0  0  0  0  0  0  0  0  0  0
   -2.5028   -2.2898   -3.7332 H   0  0  0  0  0  0  0  0  0  0  0  0
   -3.9670   -2.7112   -2.8177 H   0  0  0  0  0  0  0  0  0  0  0  0
   -2.4310   -3.5325   -2.4616 H   0  0  0  0  0  0  0  0  0  0  0  0
   -0.4087    1.6443    0.8818 C   0  0  0  0  0  0  0  0  0  0  0  0
   -1.3772    2.2635    0.4570 O   0  0  0  0  0  0  0  0  0  0  0  0
    0.6358    2.3417    1.4614 N   0  0  0  0  0  0  0  0  0  0  0  0
    1.3887    1.7992    1.8747 H   0  0  0  0  0  0  0  0  0  0  0  0
    0.6172    3.7860    1.6588 C   0  0  0  0  0  0  0  0  0  0  0  0
   -0.2150    4.0727    2.3104 H   0  0  0  0  0  0  0  0  0  0  0  0
    1.5511    4.1164    2.1237 H   0  0  0  0  0  0  0  0  0  0  0  0
    0.5080    4.3026    0.6994 H   0  0  0  0  0  0  0  0  0  0  0  0
  1  2  1  0  0  0  0
  2  3  1  0  0  0  0
  2  4  1  0  0  0  0
  2  5  1  0  0  0  0
  5  6  2  0  0  0  0
  5  7  1  0  0  0  0
  7  8  1  0  0  0  0
  7  9  1  0  0  0  0
  9 10  1  0  0  0  0
  9 11  1  0  0  0  0
  9 22  1  0  0  0  0
 11 12  1  0  0  0  0
 11 13  1  0  0  0  0
 11 14  1  0  0  0  0
 14 15  1  0  0  0  0
 14 16  1  0  0  0  0
 14 17  1  0  0  0  0
 17 18  1  0  0  0  0
 18 19  1  0  0  0  0
 18 20  1  0  0  0  0
 18 21  1  0  0  0  0
 22 23  2  0  0  0  0
 22 24  1  0  0  0  0
 24 25  1  0  0  0  0
 24 26  1  0  0  0  0
 26 27  1  0  0  0  0
 26 28  1  0  0  0  0
 26 29  1  0  0  0  0
M  END
$$$$

  -OEChem-02102214153D

 29 28  0     1  0  0  0  0  0999 V2000
   -3.1455   -3.5009    1.3122 H   0  0  0  0  0  0  0  0  0  0  0  0
   -3.0771   -2.6201    0.8891 C   0  0  0  0  0  0  0  0  0  0  0  0
   -3.5813   -1.9106    1.3102 H   0  0  0  0  0  0  0  0  0  0  0  0
   -3.6694   -2.8838    0.1198 H   0  0  0  0  0  0  0  0  0  0  0  0
   -1.5219   -2.3704    0.7386 C   0  0  0  0  0  0  0  0  0  0  0  0
   -0.8389   -3.1056    1.4917 O   0  0  0  0  0  0  0  0  0  0  0  0
   -0.4417   -1.4295    0.8097 N   0  0  0  0  0  0  0  0  0  0  0  0
    0.3843   -1.0976    0.2776 H   0  0  0  0  0  0  0  0  0  0  0  0
   -0.0176   -0.0644    0.8997 C   0  0  1  0  0  0  0  0  0  0  0  0
    0.9188   -0.0894    1.6863 H   0  0  0  0  0  0  0  0  0  0  0  0
    0.2394    0.1574   -1.0031 C   0  0  0  0  0  0  0  0  0  0  0  0
    0.4993    1.1403   -1.4064 H   0  0  0  0  0  0  0  0  0  0  0  0
    0.9959    0.1369   -1.9042 H   0  0  0  0  0  0  0  0  0  0  0  0
   -0.3635   -0.9181   -2.0655 C   0  0  0  0  0  0  0  0  0  0  0  0
    0.0163   -0.8116   -3.1712 H   0  0  0  0  0  0  0  0  0  0  0  0
   -0.0076   -1.9681   -1.8943 H   0  0  0  0  0  0  0  0  0  0  0  0
   -2.2832   -1.1092   -1.3819 S   0  0  0  0  0  0  0  0  0  0  0  0
   -4.2880   -0.7209   -1.0977 C   0  0  0  0  0  0  0  0  0  0  0  0
   -5.1693   -0.5938   -0.5398 H   0  0  0  0  0  0  0  0  0  0  0  0
   -4.2480   -0.6355    0.0210 H   0  0  0  0  0  0  0  0  0  0  0  0
   -4.0919   -1.4981   -0.9183 H   0  0  0  0  0  0  0  0  0  0  0  0
    0.3691    1.1803    0.9818 C   0  0  0  0  0  0  0  0  0  0  0  0
   -0.7317    1.6007    0.4240 O   0  0  0  0  0  0  0  0  0  0  0  0
   -0.1747    2.4187    1.1464 N   0  0  0  0  0  0  0  0  0  0  0  0
    0.5764    2.0111    1.6829 H   0  0  0  0  0  0  0  0  0  0  0  0
    0.1366    3.5312    1.9216 C   0  0  0  0  0  0  0  0  0  0  0  0
   -0.7619    3.6823    2.4589 H   0  0  0  0  0  0  0  0  0  0  0  0
    0.9424    3.4541    2.6403 H   0  0  0  0  0  0  0  0  0  0  0  0
    0.4387    4.2148    1.1539 H   0  0  0  0  0  0  0  0  0  0  0  0
  1  2  1  0  0  0  0
  2  3  1  0  0  0  0
  2  4  1  0  0  0  0
  2  5  1  0  0  0  0
  5  6  2  0  0  0  0
  5  7  1  0  0  0  0
  7  8  1  0  0  0  0
  7  9  1  0  0  0  0
  9 10  1  0  0  0  0
  9 11  1  0  0  0  0
  9 22  1  0  0  0  0
 11 12  1  0  0  0  0
 11 13  1  0  0  0  0
 11 14  1  0  0  0  0
 14 15  1  0  0  0  0
 14 16  1  0  0  0  0
 14 17  1  0  0  0  0
 17 18  1  0  0  0  0
 18 19  1  0  0  0  0
 18 20  1  0  0  0  0
 18 21  1  0  0  0  0
 22 23  2  0  0  0  0
 22 24  1  0  0  0  0
 24 25  1  0  0  0  0
 24 26  1  0  0  0  0
 26 27  1  0  0  0  0
 26 28  1  0  0  0  0
 26 29  1  0  0  0  0
M  END
$$$$

  -OEChem-02102214153D

 29 28  0     1  0  0  0  0  0999 V2000
   -2.8739   -4.2019    1.5770 H   0  0  0  0  0  0  0  0  0  0  0  0
   -3.0318   -3.1541    1.3068 C   0  0  0  0  0  0  0  0  0  0  0  0
   -3.6257   -2.6733    2.0878 H   0  0  0  0  0  0  0  0  0  0  0  0
   -3.5814   -3.1122    0.3631 H   0  0  0  0  0  0  0  0  0  0  0  0
   -1.6994   -2.4444    1.1605 C   0  0  0  0  0  0  0  0  0  0  0  0
   -0.6579   -3.0430    1.3808 O   0  0  0  0  0  0  0  0  0  0  0  0
   -1.6694   -1.1277    0.7562 N   0  0  0  0  0  0  0  0  0  0  0  0
   -2.5583   -0.6907    0.5143 H   0  0  0  0  0  0  0  0  0  0  0  0
   -0.4530   -0.3501    0.4839 C   0  0  1  0  0  0  0  0  0  0  0  0
    0.3947   -0.8508    0.9626 H   0  0  0  0  0  0  0  0  0  0  0  0
   -0.1310   -0.2401   -1.0333 C   0  0  0  0  0  0  0  0  0  0  0  0
   -0.0658    0.8158   -1.3144 H   0  0  0  0  0  0  0  0  0  0  0  0
    0.8646   -0.6665   -1.1920 H   0  0  0  0  0  0  0  0  0  0  0  0
   -1.0948   -0.9346   -2.0182 C   0  0  0  0  0  0  0  0  0  0  0  0
   -0.7195   -0.7936   -3.0366 H   0  0  0  0  0  0  0  0  0  0  0  0
   -1.0921   -2.0109   -1.8173 H   0  0  0  0  0  0  0  0  0  0  0  0
   -2.8358   -0.3240   -1.9459 S   0  0  0  0  0  0  0  0  0  0  0  0
   -2.6812    1.4587   -2.3619 C   0  0  0  0  0  0  0  0  0  0  0  0
   -3.6738    1.9123   -2.4348 H   0  0  0  0  0  0  0  0  0  0  0  0
   -2.1173    1.9876   -1.5886 H   0  0  0  0  0  0  0  0  0  0  0  0
   -2.1681    1.5817   -3.3199 H   0  0  0  0  0  0  0  0  0  0  0  0
   -0.5417    1.0520    1.1242 C   0  0  0  0  0  0  0  0  0  0  0  0
   -1.5630    1.7213    1.0215 O   0  0  0  0  0  0  0  0  0  0  0  0
    0.5363    1.5703    1.8188 N   0  0  0  0  0  0  0  0  0  0  0  0
    1.3406    0.9644    1.9547 H   0  0  0  0  0  0  0  0  0  0  0  0
    0.5029    2.8593    2.4996 C   0  0  0  0  0  0  0  0  0  0  0  0
   -0.2664    2.8614    3.2790 H   0  0  0  0  0  0  0  0  0  0  0  0
    1.4703    3.0651    2.9677 H   0  0  0  0  0  0  0  0  0  0  0  0
    0.2864    3.6634    1.7883 H   0  0  0  0  0  0  0  0  0  0  0  0
  1  2  1  0  0  0  0
  2  3  1  0  0  0  0
  2  4  1  0  0  0  0
  2  5  1  0  0  0  0
  5  6  2  0  0  0  0
  5  7  1  0  0  0  0
  7  8  1  0  0  0  0
  7  9  1  0  0  0  0
  9 10  1  0  0  0  0
  9 11  1  0  0  0  0
  9 22  1  0  0  0  0
 11 12  1  0  0  0  0
 11 13  1  0  0  0  0
 11 14  1  0  0  0  0
 14 15  1  0  0  0  0
 14 16  1  0  0  0  0
 14 17  1  0  0  0  0
 17 18  1  0  0  0  0
 18 19  1  0  0  0  0
 18 20  1  0  0  0  0
 18 21  1  0  0  0  0
 22 23  2  0  0  0  0
 22 24  1  0  0  0  0
 24 25  1  0  0  0  0
 24 26  1  0  0  0  0
 26 27  1  0  0  0  0
 26 28  1  0  0  0  0
 26 29  1  0  0  0  0
M  END
$$$$

  -OEChem-02102214153D

 29 28  0     1  0  0  0  0  0999 V2000
   -3.2722   -3.2451    2.0874 H   0  0  0  0  0  0  0  0  0  0  0  0
   -3.2839   -2.2434    1.6491 C   0  0  0  0  0  0  0  0  0  0  0  0
   -3.7973   -1.5647    2.3345 H   0  0  0  0  0  0  0  0  0  0  0  0
   -3.8310   -2.2778    0.7038 H   0  0  0  0  0  0  0  0  0  0  0  0
   -1.8659   -1.7607    1.4090 C   0  0  0  0  0  0  0  0  0  0  0  0
   -0.9188   -2.4819    1.6811 O   0  0  0  0  0  0  0  0  0  0  0  0
   -1.6506   -0.5157    0.8596 N   0  0  0  0  0  0  0  0  0  0  0  0
   -2.4664    0.0558    0.6414 H   0  0  0  0  0  0  0  0  0  0  0  0
   -0.3342    0.0863    0.5966 C   0  0  1  0  0  0  0  0  0  0  0  0
    0.4132   -0.4393    1.1995 H   0  0  0  0  0  0  0  0  0  0  0  0
    0.1064   -0.0253   -0.8884 C   0  0  0  0  0  0  0  0  0  0  0  0
    0.3136    0.9718   -1.2926 H   0  0  0  0  0  0  0  0  0  0  0  0
    1.0492   -0.5807   -0.9116 H   0  0  0  0  0  0  0  0  0  0  0  0
   -0.8751   -0.7324   -1.8372 C   0  0  0  0  0  0  0  0  0  0  0  0
   -0.3540   -0.9650   -2.7712 H   0  0  0  0  0  0  0  0  0  0  0  0
   -1.2129   -1.6817   -1.4103 H   0  0  0  0  0  0  0  0  0  0  0  0
   -2.3073    0.3526   -2.2280 S   0  0  0  0  0  0  0  0  0  0  0  0
   -3.2493   -0.7034   -3.3964 C   0  0  0  0  0  0  0  0  0  0  0  0
   -3.5459   -1.6371   -2.9096 H   0  0  0  0  0  0  0  0  0  0  0  0
   -4.1504   -0.1808   -3.7311 H   0  0  0  0  0  0  0  0  0  0  0  0
   -2.6371   -0.9404   -4.2715 H   0  0  0  0  0  0  0  0  0  0  0  0
   -0.3085    1.5569    1.0650 C   0  0  0  0  0  0  0  0  0  0  0  0
   -1.2750    2.2857    0.8753 O   0  0  0  0  0  0  0  0  0  0  0  0
    0.7708    2.0432    1.7808 N   0  0  0  0  0  0  0  0  0  0  0  0
    1.5247    1.3966    1.9940 H   0  0  0  0  0  0  0  0  0  0  0  0
    0.8249    3.3951    2.3243 C   0  0  0  0  0  0  0  0  0  0  0  0
    0.0276    3.5441    3.0600 H   0  0  0  0  0  0  0  0  0  0  0  0
    1.7871    3.5673    2.8163 H   0  0  0  0  0  0  0  0  0  0  0  0
    0.7096    4.1349    1.5249 H   0  0  0  0  0  0  0  0  0  0  0  0
  1  2  1  0  0  0  0
  2  3  1  0  0  0  0
  2  4  1  0  0  0  0
  2  5  1  0  0  0  0
  5  6  2  0  0  0  0
  5  7  1  0  0  0  0
  7  8  1  0  0  0  0
  7  9  1  0  0  0  0
  9 10  1  0  0  0  0
  9 11  1  0  0  0  0
  9 22  1  0  0  0  0
 11 12  1  0  0  0  0
 11 13  1  0  0  0  0
 11 14  1  0  0  0  0
 14 15  1  0  0  0  0
 14 16  1  0  0  0  0
 14 17  1  0  0  0  0
 17 18  1  0  0  0  0
 18 19  1  0  0  0  0
 18 20  1  0  0  0  0
 18 21  1  0  0  0  0
 22 23  2  0  0  0  0
 22 24  1  0  0  0  0
 24 25  1  0  0  0  0
 24 26  1  0  0  0  0
 26 27  1  0  0  0  0
 26 28  1  0  0  0  0
 26 29  1  0  0  0  0
M  END
$$$$

  -OEChem-02102214153D

 29 28  0     1  0  0  0  0  0999 V2000
   -3.3581   -3.3664    1.5692 H   0  0  0  0  0  0  0  0  0  0  0  0
   -3.3379   -2.4008    1.0561 C   0  0  0  0  0  0  0  0  0  0  0  0
   -3.9309   -1.6851    1.6306 H   0  0  0  0  0  0  0  0  0  0  0  0
   -3.7814   -2.5189    0.0645 H   0  0  0  0  0  0  0  0  0  0  0  0
   -1.9091   -1.9076    0.9284 C   0  0  0  0  0  0  0  0  0  0  0  0
   -0.9819   -2.6160    1.2863 O   0  0  0  0  0  0  0  0  0  0  0  0
   -1.6602   -0.6624    0.3914 N   0  0  0  0  0  0  0  0  0  0  0  0
   -2.4638   -0.0668    0.2005 H   0  0  0  0  0  0  0  0  0  0  0  0
   -0.3402   -0.0157    0.3457 C   0  0  1  0  0  0  0  0  0  0  0  0
    0.3001   -0.4955    1.0932 H   0  0  0  0  0  0  0  0  0  0  0  0
    0.3863   -0.1375   -1.0211 C   0  0  0  0  0  0  0  0  0  0  0  0
    0.6488    0.8584   -1.3941 H   0  0  0  0  0  0  0  0  0  0  0  0
    1.3298   -0.6594   -0.8318 H   0  0  0  0  0  0  0  0  0  0  0  0
   -0.3308   -0.8992   -2.1519 C   0  0  0  0  0  0  0  0  0  0  0  0
    0.4364   -1.3182   -2.8106 H   0  0  0  0  0  0  0  0  0  0  0  0
   -0.9093   -1.7448   -1.7700 H   0  0  0  0  0  0  0  0  0  0  0  0
   -1.3835    0.2087   -3.1830 S   0  0  0  0  0  0  0  0  0  0  0  0
   -2.9978    0.3422   -2.3215 C   0  0  0  0  0  0  0  0  0  0  0  0
   -2.9002    0.9546   -1.4223 H   0  0  0  0  0  0  0  0  0  0  0  0
   -3.7316    0.8171   -2.9794 H   0  0  0  0  0  0  0  0  0  0  0  0
   -3.3655   -0.6500   -2.0459 H   0  0  0  0  0  0  0  0  0  0  0  0
   -0.4589    1.4612    0.7782 C   0  0  0  0  0  0  0  0  0  0  0  0
   -1.4347    2.1223    0.4416 O   0  0  0  0  0  0  0  0  0  0  0  0
    0.4542    2.0104    1.6598 N   0  0  0  0  0  0  0  0  0  0  0  0
    1.2169    1.4199    1.9790 H   0  0  0  0  0  0  0  0  0  0  0  0
    0.3459    3.3677    2.1819 C   0  0  0  0  0  0  0  0  0  0  0  0
   -0.5923    3.4934    2.7327 H   0  0  0  0  0  0  0  0  0  0  0  0
    1.1765    3.5794    2.8622 H   0  0  0  0  0  0  0  0  0  0  0  0
    0.3747    4.0961    1.3647 H   0  0  0  0  0  0  0  0  0  0  0  0
  1  2  1  0  0  0  0
  2  3  1  0  0  0  0
  2  4  1  0  0  0  0
  2  5  1  0  0  0  0
  5  6  2  0  0  0  0
  5  7  1  0  0  0  0
  7  8  1  0  0  0  0
  7  9  1  0  0  0  0
  9 10  1  0  0  0  0
  9 11  1  0  0  0  0
  9 22  1  0  0  0  0
 11 12  1  0  0  0  0
 11 13  1  0  0  0  0
 11 14  1  0  0  0  0
 14 15  1  0  0  0  0
 14 16  1  0  0  0  0
 14 17  1  0  0  0  0
 17 18  1  0  0  0  0
 18 19  1  0  0  0  0
 18 20  1  0  0  0  0
 18 21  1  0  0  0  0
 22 23  2  0  0  0  0
 22 24  1  0  0  0  0
 24 25  1  0  0  0  0
 24 26  1  0  0  0  0
 26 27  1  0  0  0  0
 26 28  1  0  0  0  0
 26 29  1  0  0  0  0
M  END
$$$$

  -OEChem-02102214153D

 29 28  0     1  0  0  0  0  0999 V2000
   -3.3511   -3.4337    1.5243 H   0  0  0  0  0  0  0  0  0  0  0  0
   -3.3525   -2.4514    1.0433 C   0  0  0  0  0  0  0  0  0  0  0  0
   -3.9409   -1.7617    1.6534 H   0  0  0  0  0  0  0  0  0  0  0  0
   -3.8157   -2.5420    0.0579 H   0  0  0  0  0  0  0  0  0  0  0  0
   -1.9329   -1.9369    0.9012 C   0  0  0  0  0  0  0  0  0  0  0  0
   -0.9922   -2.6292    1.2554 O   0  0  0  0  0  0  0  0  0  0  0  0
   -1.7076   -0.6893    0.3581 N   0  0  0  0  0  0  0  0  0  0  0  0
   -2.5232   -0.1072    0.1737 H   0  0  0  0  0  0  0  0  0  0  0  0
   -0.3976   -0.0204    0.3056 C   0  0  1  0  0  0  0  0  0  0  0  0
    0.2398   -0.4840    1.0660 H   0  0  0  0  0  0  0  0  0  0  0  0
    0.3555   -0.1656   -1.0467 C   0  0  0  0  0  0  0  0  0  0  0  0
    0.6006    0.8274   -1.4387 H   0  0  0  0  0  0  0  0  0  0  0  0
    1.3098   -0.6547   -0.8267 H   0  0  0  0  0  0  0  0  0  0  0  0
   -0.3218   -0.9766   -2.1729 C   0  0  0  0  0  0  0  0  0  0  0  0
    0.4441   -1.6059   -2.6371 H   0  0  0  0  0  0  0  0  0  0  0  0
   -1.0900   -1.6573   -1.8008 H   0  0  0  0  0  0  0  0  0  0  0  0
   -1.0094    0.1031   -3.4953 S   0  0  0  0  0  0  0  0  0  0  0  0
   -2.4910    0.8635   -2.7257 C   0  0  0  0  0  0  0  0  0  0  0  0
   -2.1932    1.5796   -1.9574 H   0  0  0  0  0  0  0  0  0  0  0  0
   -3.0738    1.3952   -3.4834 H   0  0  0  0  0  0  0  0  0  0  0  0
   -3.1233    0.0950   -2.2729 H   0  0  0  0  0  0  0  0  0  0  0  0
   -0.5255    1.4578    0.7310 C   0  0  0  0  0  0  0  0  0  0  0  0
   -1.5208    2.1022    0.4209 O   0  0  0  0  0  0  0  0  0  0  0  0
    0.3899    2.0162    1.6044 N   0  0  0  0  0  0  0  0  0  0  0  0
    1.1643    1.4346    1.9122 H   0  0  0  0  0  0  0  0  0  0  0  0
    0.2592    3.3622    2.1496 C   0  0  0  0  0  0  0  0  0  0  0  0
   -0.6691    3.4553    2.7231 H   0  0  0  0  0  0  0  0  0  0  0  0
    1.0995    3.5845    2.8145 H   0  0  0  0  0  0  0  0  0  0  0  0
    0.2516    4.1032    1.3433 H   0  0  0  0  0  0  0  0  0  0  0  0
  1  2  1  0  0  0  0
  2  3  1  0  0  0  0
  2  4  1  0  0  0  0
  2  5  1  0  0  0  0
  5  6  2  0  0  0  0
  5  7  1  0  0  0  0
  7  8  1  0  0  0  0
  7  9  1  0  0  0  0
  9 10  1  0  0  0  0
  9 11  1  0  0  0  0
  9 22  1  0  0  0  0
 11 12  1  0  0  0  0
 11 13  1  0  0  0  0
 11 14  1  0  0  0  0
 14 15  1  0  0  0  0
 14 16  1  0  0  0  0
 14 17  1  0  0  0  0
 17 18  1  0  0  0  0
 18 19  1  0  0  0  0
 18 20  1  0  0  0  0
 18 21  1  0  0  0  0
 22 23  2  0  0  0  0
 22 24  1  0  0  0  0
 24 25  1  0  0  0  0
 24 26  1  0  0  0  0
 26 27  1  0  0  0  0
 26 28  1  0  0  0  0
 26 29  1  0  0  0  0
M  END
$$$$

  -OEChem-02102214153D

 29 28  0     1  0  0  0  0  0999 V2000
   -3.3404   -3.4855    1.5638 H   0  0  0  0  0  0  0  0  0  0  0  0
   -3.3487   -2.5095    1.0707 C   0  0  0  0  0  0  0  0  0  0  0  0
   -3.9455   -1.8176    1.6698 H   0  0  0  0  0  0  0  0  0  0  0  0
   -3.8073   -2.6166    0.0847 H   0  0  0  0  0  0  0  0  0  0  0  0
   -1.9331   -1.9841    0.9288 C   0  0  0  0  0  0  0  0  0  0  0  0
   -0.9892   -2.6531    1.3172 O   0  0  0  0  0  0  0  0  0  0  0  0
   -1.7150   -0.7504    0.3531 N   0  0  0  0  0  0  0  0  0  0  0  0
   -2.5340   -0.1833    0.1374 H   0  0  0  0  0  0  0  0  0  0  0  0
   -0.4091   -0.0758    0.2876 C   0  0  1  0  0  0  0  0  0  0  0  0
    0.2432   -0.5161    1.0492 H   0  0  0  0  0  0  0  0  0  0  0  0
    0.3283   -0.2095   -1.0758 C   0  0  0  0  0  0  0  0  0  0  0  0
    0.5647    0.7895   -1.4563 H   0  0  0  0  0  0  0  0  0  0  0  0
    1.2908   -0.6912   -0.8764 H   0  0  0  0  0  0  0  0  0  0  0  0
   -0.3595   -1.0157   -2.2023 C   0  0  0  0  0  0  0  0  0  0  0  0
    0.2972   -1.8435   -2.4883 H   0  0  0  0  0  0  0  0  0  0  0  0
   -1.3059   -1.4629   -1.8955 H   0  0  0  0  0  0  0  0  0  0  0  0
   -0.6555    0.0308   -3.6863 S   0  0  0  0  0  0  0  0  0  0  0  0
   -1.8693    1.2689   -3.0778 C   0  0  0  0  0  0  0  0  0  0  0  0
   -1.3995    1.9427   -2.3564 H   0  0  0  0  0  0  0  0  0  0  0  0
   -2.2454    1.8663   -3.9133 H   0  0  0  0  0  0  0  0  0  0  0  0
   -2.7143    0.7696   -2.5951 H   0  0  0  0  0  0  0  0  0  0  0  0
   -0.5753    1.4080    0.6767 C   0  0  0  0  0  0  0  0  0  0  0  0
   -1.5597    2.0324    0.2961 O   0  0  0  0  0  0  0  0  0  0  0  0
    0.3164    2.0112    1.5441 N   0  0  0  0  0  0  0  0  0  0  0  0
    1.0832    1.4470    1.8994 H   0  0  0  0  0  0  0  0  0  0  0  0
    0.1614    3.3770    2.0299 C   0  0  0  0  0  0  0  0  0  0  0  0
   -0.7799    3.4841    2.5792 H   0  0  0  0  0  0  0  0  0  0  0  0
    0.9851    3.6348    2.7026 H   0  0  0  0  0  0  0  0  0  0  0  0
    0.1644    4.0841    1.1936 H   0  0  0  0  0  0  0  0  0  0  0  0
  1  2  1  0  0  0  0
  2  3  1  0  0  0  0
  2  4  1  0  0  0  0
  2  5  1  0  0  0  0
  5  6  2  0  0  0  0
  5  7  1  0  0  0  0
  7  8  1  0  0  0  0
  7  9  1  0  0  0  0
  9 10  1  0  0  0  0
  9 11  1  0  0  0  0
  9 22  1  0  0  0  0
 11 12  1  0  0  0  0
 11 13  1  0  0  0  0
 11 14  1  0  0  0  0
 14 15  1  0  0  0  0
 14 16  1  0  0  0  0
 14 17  1  0  0  0  0
 17 18  1  0  0  0  0
 18 19  1  0  0  0  0
 18 20  1  0  0  0  0
 18 21  1  0  0  0  0
 22 23  2  0  0  0  0
 22 24  1  0  0  0  0
 24 25  1  0  0  0  0
 24 26  1  0  0  0  0
 26 27  1  0  0  0  0
 26 28  1  0  0  0  0
 26 29  1  0  0  0  0
M  END
$$$$

  -OEChem-02102214153D

 29 28  0     1  0  0  0  0  0999 V2000
   -3.3751   -3.4614    1.5560 H   0  0  0  0  0  0  0  0  0  0  0  0
   -3.3618   -2.5033    1.0285 C   0  0  0  0  0  0  0  0  0  0  0  0
   -3.9836   -1.7913    1.5764 H   0  0  0  0  0  0  0  0  0  0  0  0
   -3.7777   -2.6463    0.0283 H   0  0  0  0  0  0  0  0  0  0  0  0
   -1.9409   -1.9821    0.9274 C   0  0  0  0  0  0  0  0  0  0  0  0
   -1.0121   -2.6515    1.3501 O   0  0  0  0  0  0  0  0  0  0  0  0
   -1.7006   -0.7537    0.3487 N   0  0  0  0  0  0  0  0  0  0  0  0
   -2.5099   -0.1831    0.1076 H   0  0  0  0  0  0  0  0  0  0  0  0
   -0.3867   -0.0916    0.3045 C   0  0  1  0  0  0  0  0  0  0  0  0
    0.2581   -0.5372    1.0694 H   0  0  0  0  0  0  0  0  0  0  0  0
    0.3540   -0.2135   -1.0570 C   0  0  0  0  0  0  0  0  0  0  0  0
    0.5857    0.7929   -1.4207 H   0  0  0  0  0  0  0  0  0  0  0  0
    1.3188   -0.6975   -0.8749 H   0  0  0  0  0  0  0  0  0  0  0  0
   -0.3494   -0.9942   -2.1892 C   0  0  0  0  0  0  0  0  0  0  0  0
    0.1146   -1.9802   -2.2918 H   0  0  0  0  0  0  0  0  0  0  0  0
   -1.4114   -1.1540   -1.9964 H   0  0  0  0  0  0  0  0  0  0  0  0
   -0.2189   -0.0709   -3.7739 S   0  0  0  0  0  0  0  0  0  0  0  0
   -1.4032    1.3098   -3.5031 C   0  0  0  0  0  0  0  0  0  0  0  0
   -1.0991    1.9189   -2.6466 H   0  0  0  0  0  0  0  0  0  0  0  0
   -1.4402    1.9499   -4.3895 H   0  0  0  0  0  0  0  0  0  0  0  0
   -2.4061    0.9168   -3.3129 H   0  0  0  0  0  0  0  0  0  0  0  0
   -0.5535    1.3950    0.6825 C   0  0  0  0  0  0  0  0  0  0  0  0
   -1.5017    2.0318    0.2355 O   0  0  0  0  0  0  0  0  0  0  0  0
    0.3200    2.0038    1.5644 N   0  0  0  0  0  0  0  0  0  0  0  0
    1.0717    1.4394    1.9507 H   0  0  0  0  0  0  0  0  0  0  0  0
    0.1933    3.3946    1.9831 C   0  0  0  0  0  0  0  0  0  0  0  0
   -0.7736    3.5623    2.4693 H   0  0  0  0  0  0  0  0  0  0  0  0
    0.9858    3.6499    2.6932 H   0  0  0  0  0  0  0  0  0  0  0  0
    0.2742    4.0634    1.1197 H   0  0  0  0  0  0  0  0  0  0  0  0
  1  2  1  0  0  0  0
  2  3  1  0  0  0  0
  2  4  1  0  0  0  0
  2  5  1  0  0  0  0
  5  6  2  0  0  0  0
  5  7  1  0  0  0  0
  7  8  1  0  0  0  0
  7  9  1  0  0  0  0
  9 10  1  0  0  0  0
  9 11  1  0  0  0  0
  9 22  1  0  0  0  0
 11 12  1  0  0  0  0
 11 13  1  0  0  0  0
 11 14  1  0  0  0  0
 14 15  1  0  0  0  0
 14 16  1  0  0  0  0
 14 17  1  0  0  0  0
 17 18  1  0  0  0  0
 18 19  1  0  0  0  0
 18 20  1  0  0  0  0
 18 21  1  0  0  0  0
 22 23  2  0  0  0  0
 22 24  1  0  0  0  0
 24 25  1  0  0  0  0
 24 26  1  0  0  0  0
 26 27  1  0  0  0  0
 26 28  1  0  0  0  0
 26 29  1  0  0  0  0
M  END
$$$$

  -OEChem-02102214153D

 29 28  0     1  0  0  0  0  0999 V2000
   -3.3946   -3.4416    1.5196 H   0  0  0  0  0  0  0  0  0  0  0  0
   -3.3697   -2.4837    0.9925 C   0  0  0  0  0  0  0  0  0  0  0  0
   -3.9953   -1.7685    1.5322 H   0  0  0  0  0  0  0  0  0  0  0  0
   -3.7731   -2.6243   -0.0132 H   0  0  0  0  0  0  0  0  0  0  0  0
   -1.9448   -1.9700    0.9104 C   0  0  0  0  0  0  0  0  0  0  0  0
   -1.0252   -2.6437    1.3458 O   0  0  0  0  0  0  0  0  0  0  0  0
   -1.6911   -0.7424    0.3359 N   0  0  0  0  0  0  0  0  0  0  0  0
   -2.4950   -0.1697    0.0821 H   0  0  0  0  0  0  0  0  0  0  0  0
   -0.3741   -0.0845    0.3106 C   0  0  1  0  0  0  0  0  0  0  0  0
    0.2607   -0.5346    1.0812 H   0  0  0  0  0  0  0  0  0  0  0  0
    0.3717   -0.2159   -1.0453 C   0  0  0  0  0  0  0  0  0  0  0  0
    0.5882    0.7896   -1.4190 H   0  0  0  0  0  0  0  0  0  0  0  0
    1.3403   -0.6944   -0.8698 H   0  0  0  0  0  0  0  0  0  0  0  0
   -0.3509   -0.9985   -2.1579 C   0  0  0  0  0  0  0  0  0  0  0  0
   -0.1107   -2.0633   -2.0737 H   0  0  0  0  0  0  0  0  0  0  0  0
   -1.4362   -0.8927   -2.0873 H   0  0  0  0  0  0  0  0  0  0  0  0
    0.1435   -0.3518   -3.8064 S   0  0  0  0  0  0  0  0  0  0  0  0
   -0.8487    1.1922   -3.9218 C   0  0  0  0  0  0  0  0  0  0  0  0
   -0.5976    1.8756   -3.1054 H   0  0  0  0  0  0  0  0  0  0  0  0
   -0.6482    1.6964   -4.8717 H   0  0  0  0  0  0  0  0  0  0  0  0
   -1.9166    0.9611   -3.8675 H   0  0  0  0  0  0  0  0  0  0  0  0
   -0.5348    1.4030    0.6859 C   0  0  0  0  0  0  0  0  0  0  0  0
   -1.4686    2.0484    0.2222 O   0  0  0  0  0  0  0  0  0  0  0  0
    0.3322    2.0038    1.5795 N   0  0  0  0  0  0  0  0  0  0  0  0
    1.0748    1.4328    1.9737 H   0  0  0  0  0  0  0  0  0  0  0  0
    0.2111    3.3945    2.0001 C   0  0  0  0  0  0  0  0  0  0  0  0
   -0.7599    3.5684    2.4759 H   0  0  0  0  0  0  0  0  0  0  0  0
    0.9974    3.6416    2.7200 H   0  0  0  0  0  0  0  0  0  0  0  0
    0.3070    4.0654    1.1397 H   0  0  0  0  0  0  0  0  0  0  0  0
  1  2  1  0  0  0  0
  2  3  1  0  0  0  0
  2  4  1  0  0  0  0
  2  5  1  0  0  0  0
  5  6  2  0  0  0  0
  5  7  1  0  0  0  0
  7  8  1  0  0  0  0
  7  9  1  0  0  0  0
  9 10  1  0  0  0  0
  9 11  1  0  0  0  0
  9 22  1  0  0  0  0
 11 12  1  0  0  0  0
 11 13  1  0  0  0  0
 11 14  1  0  0  0  0
 14 15  1  0  0  0  0
 14 16  1  0  0  0  0
 14 17  1  0  0  0  0
 17 18  1  0  0  0  0
 18 19  1  0  0  0  0
 18 20  1  0  0  0  0
 18 21  1  0  0  0  0
 22 23  2  0  0  0  0
 22 24  1  0  0  0  0
 24 25  1  0  0  0  0
 24 26  1  0  0  0  0
 26 27  1  0  0  0  0
 26 28  1  0  0  0  0
 26 29  1  0  0  0  0
M  END
$$$$

  -OEChem-02102214153D

 29 28  0     1  0  0  0  0  0999 V2000
   -3.4075   -3.4330    1.4845 H   0  0  0  0  0  0  0  0  0  0  0  0
   -3.3755   -2.4749    0.9582 C   0  0  0  0  0  0  0  0  0  0  0  0
   -4.0087   -1.7604    1.4900 H   0  0  0  0  0  0  0  0  0  0  0  0
   -3.7653   -2.6158   -0.0528 H   0  0  0  0  0  0  0  0  0  0  0  0
   -1.9497   -1.9605    0.8959 C   0  0  0  0  0  0  0  0  0  0  0  0
   -1.0363   -2.6332    1.3455 O   0  0  0  0  0  0  0  0  0  0  0  0
   -1.6881   -0.7333    0.3239 N   0  0  0  0  0  0  0  0  0  0  0  0
   -2.4883   -0.1611    0.0578 H   0  0  0  0  0  0  0  0  0  0  0  0
   -0.3692   -0.0771    0.3133 C   0  0  1  0  0  0  0  0  0  0  0  0
    0.2588   -0.5300    1.0877 H   0  0  0  0  0  0  0  0  0  0  0  0
    0.3794   -0.2175   -1.0383 C   0  0  0  0  0  0  0  0  0  0  0  0
    0.6004    0.7817   -1.4259 H   0  0  0  0  0  0  0  0  0  0  0  0
    1.3420   -0.7070   -0.8591 H   0  0  0  0  0  0  0  0  0  0  0  0
   -0.3641   -1.0042   -2.1281 C   0  0  0  0  0  0  0  0  0  0  0  0
   -0.3462   -2.0723   -1.8874 H   0  0  0  0  0  0  0  0  0  0  0  0
   -1.4089   -0.6865   -2.1931 H   0  0  0  0  0  0  0  0  0  0  0  0
    0.4224   -0.7097   -3.7629 S   0  0  0  0  0  0  0  0  0  0  0  0
   -0.2422    0.9407   -4.2244 C   0  0  0  0  0  0  0  0  0  0  0  0
    0.0624    1.6976   -3.4962 H   0  0  0  0  0  0  0  0  0  0  0  0
    0.1349    1.2333   -5.2086 H   0  0  0  0  0  0  0  0  0  0  0  0
   -1.3350    0.9112   -4.2633 H   0  0  0  0  0  0  0  0  0  0  0  0
   -0.5243    1.4115    0.6860 C   0  0  0  0  0  0  0  0  0  0  0  0
   -1.4521    2.0610    0.2162 O   0  0  0  0  0  0  0  0  0  0  0  0
    0.3374    2.0078    1.5877 N   0  0  0  0  0  0  0  0  0  0  0  0
    1.0717    1.4322    1.9906 H   0  0  0  0  0  0  0  0  0  0  0  0
    0.2181    3.3980    2.0102 C   0  0  0  0  0  0  0  0  0  0  0  0
   -0.7556    3.5741    2.4797 H   0  0  0  0  0  0  0  0  0  0  0  0
    1.0002    3.6414    2.7359 H   0  0  0  0  0  0  0  0  0  0  0  0
    0.3225    4.0698    1.1517 H   0  0  0  0  0  0  0  0  0  0  0  0
  1  2  1  0  0  0  0
  2  3  1  0  0  0  0
  2  4  1  0  0  0  0
  2  5  1  0  0  0  0
  5  6  2  0  0  0  0
  5  7  1  0  0  0  0
  7  8  1  0  0  0  0
  7  9  1  0  0  0  0
  9 10  1  0  0  0  0
  9 11  1  0  0  0  0
  9 22  1  0  0  0  0
 11 12  1  0  0  0  0
 11 13  1  0  0  0  0
 11 14  1  0  0  0  0
 14 15  1  0  0  0  0
 14 16  1  0  0  0  0
 14 17  1  0  0  0  0
 17 18  1  0  0  0  0
 18 19  1  0  0  0  0
 18 20  1  0  0  0  0
 18 21  1  0  0  0  0
 22 23  2  0  0  0  0
 22 24  1  0  0  0  0
 24 25  1  0  0  0  0
 24 26  1  0  0  0  0
 26 27  1  0  0  0  0
 26 28  1  0  0  0  0
 26 29  1  0  0  0  0
M  END
$$$$

  -OEChem-02102214153D

 29 28  0     1  0  0  0  0  0999 V2000
   -3.4254   -3.4296    1.4722 H   0  0  0  0  0  0  0  0  0  0  0  0
   -3.3816   -2.4744    0.9413 C   0  0  0  0  0  0  0  0  0  0  0  0
   -4.0241   -1.7558    1.4558 H   0  0  0  0  0  0  0  0  0  0  0  0
   -3.7506   -2.6202   -0.0769 H   0  0  0  0  0  0  0  0  0  0  0  0
   -1.9547   -1.9614    0.9051 C   0  0  0  0  0  0  0  0  0  0  0  0
   -1.0537   -2.6223    1.3951 O   0  0  0  0  0  0  0  0  0  0  0  0
   -1.6791   -0.7438    0.3197 N   0  0  0  0  0  0  0  0  0  0  0  0
   -2.4714   -0.1757    0.0232 H   0  0  0  0  0  0  0  0  0  0  0  0
   -0.3556   -0.0977    0.3131 C   0  0  1  0  0  0  0  0  0  0  0  0
    0.2779   -0.5422    1.0881 H   0  0  0  0  0  0  0  0  0  0  0  0
    0.3763   -0.2330   -1.0456 C   0  0  0  0  0  0  0  0  0  0  0  0
    0.8708    0.7107   -1.2962 H   0  0  0  0  0  0  0  0  0  0  0  0
    1.1627   -0.9862   -0.9310 H   0  0  0  0  0  0  0  0  0  0  0  0
   -0.5124   -0.6690   -2.2181 C   0  0  0  0  0  0  0  0  0  0  0  0
   -0.9451   -1.6528   -2.0105 H   0  0  0  0  0  0  0  0  0  0  0  0
   -1.3318    0.0433   -2.3590 H   0  0  0  0  0  0  0  0  0  0  0  0
    0.4858   -0.7850   -3.7564 S   0  0  0  0  0  0  0  0  0  0  0  0
    0.6604    0.9782   -4.2437 C   0  0  0  0  0  0  0  0  0  0  0  0
    1.2159    1.5344   -3.4834 H   0  0  0  0  0  0  0  0  0  0  0  0
    1.2000    1.0519   -5.1925 H   0  0  0  0  0  0  0  0  0  0  0  0
   -0.3253    1.4373   -4.3655 H   0  0  0  0  0  0  0  0  0  0  0  0
   -0.5161    1.3949    0.6665 C   0  0  0  0  0  0  0  0  0  0  0  0
   -1.4316    2.0414    0.1692 O   0  0  0  0  0  0  0  0  0  0  0  0
    0.3350    2.0023    1.5708 N   0  0  0  0  0  0  0  0  0  0  0  0
    1.0558    1.4284    1.9997 H   0  0  0  0  0  0  0  0  0  0  0  0
    0.2109    3.3981    1.9726 C   0  0  0  0  0  0  0  0  0  0  0  0
   -0.7651    3.5785    2.4352 H   0  0  0  0  0  0  0  0  0  0  0  0
    0.9895    3.6536    2.6976 H   0  0  0  0  0  0  0  0  0  0  0  0
    0.3171    4.0577    1.1049 H   0  0  0  0  0  0  0  0  0  0  0  0
  1  2  1  0  0  0  0
  2  3  1  0  0  0  0
  2  4  1  0  0  0  0
  2  5  1  0  0  0  0
  5  6  2  0  0  0  0
  5  7  1  0  0  0  0
  7  8  1  0  0  0  0
  7  9  1  0  0  0  0
  9 10  1  0  0  0  0
  9 11  1  0  0  0  0
  9 22  1  0  0  0  0
 11 12  1  0  0  0  0
 11 13  1  0  0  0  0
 11 14  1  0  0  0  0
 14 15  1  0  0  0  0
 14 16  1  0  0  0  0
 14 17  1  0  0  0  0
 17 18  1  0  0  0  0
 18 19  1  0  0  0  0
 18 20  1  0  0  0  0
 18 21  1  0  0  0  0
 22 23  2  0  0  0  0
 22 24  1  0  0  0  0
 24 25  1  0  0  0  0
 24 26  1  0  0  0  0
 26 27  1  0  0  0  0
 26 28  1  0  0  0  0
 26 29  1  0  0  0  0
M  END
$$$$

  -OEChem-02102214153D

 29 28  0     1  0  0  0  0  0999 V2000
   -3.4153   -3.4328    1.5221 H   0  0  0  0  0  0  0  0  0  0  0  0
   -3.3885   -2.4699    1.0042 C   0  0  0  0  0  0  0  0  0  0  0  0
   -4.0082   -1.7573    1.5539 H   0  0  0  0  0  0  0  0  0  0  0  0
   -3.7969   -2.5990   -0.0010 H   0  0  0  0  0  0  0  0  0  0  0  0
   -1.9620   -1.9610    0.9206 C   0  0  0  0  0  0  0  0  0  0  0  0
   -1.0484   -2.6228    1.3858 O   0  0  0  0  0  0  0  0  0  0  0  0
   -1.7018   -0.7430    0.3284 N   0  0  0  0  0  0  0  0  0  0  0  0
   -2.5012   -0.1733    0.0545 H   0  0  0  0  0  0  0  0  0  0  0  0
   -0.3783   -0.0988    0.2874 C   0  0  1  0  0  0  0  0  0  0  0  0
    0.2718   -0.5426    1.0489 H   0  0  0  0  0  0  0  0  0  0  0  0
    0.3305   -0.2276   -1.0861 C   0  0  0  0  0  0  0  0  0  0  0  0
    0.8330    0.7108   -1.3414 H   0  0  0  0  0  0  0  0  0  0  0  0
    1.1102   -0.9882   -0.9741 H   0  0  0  0  0  0  0  0  0  0  0  0
   -0.5604   -0.6604   -2.2614 C   0  0  0  0  0  0  0  0  0  0  0  0
   -1.1753   -1.5195   -1.9782 H   0  0  0  0  0  0  0  0  0  0  0  0
   -1.2284    0.1568   -2.5519 H   0  0  0  0  0  0  0  0  0  0  0  0
    0.4773   -1.1890   -3.6841 S   0  0  0  0  0  0  0  0  0  0  0  0
    1.1689    0.4006   -4.2916 C   0  0  0  0  0  0  0  0  0  0  0  0
    1.8108    0.8548   -3.5318 H   0  0  0  0  0  0  0  0  0  0  0  0
    1.7650    0.2288   -5.1927 H   0  0  0  0  0  0  0  0  0  0  0  0
    0.3609    1.0971   -4.5345 H   0  0  0  0  0  0  0  0  0  0  0  0
   -0.5325    1.3931    0.6466 C   0  0  0  0  0  0  0  0  0  0  0  0
   -1.4623    2.0392    0.1760 O   0  0  0  0  0  0  0  0  0  0  0  0
    0.3409    2.0004    1.5298 N   0  0  0  0  0  0  0  0  0  0  0  0
    1.0662    1.4237    1.9471 H   0  0  0  0  0  0  0  0  0  0  0  0
    0.2095    3.3880    1.9572 C   0  0  0  0  0  0  0  0  0  0  0  0
   -0.7478    3.5438    2.4659 H   0  0  0  0  0  0  0  0  0  0  0  0
    1.0154    3.6484    2.6503 H   0  0  0  0  0  0  0  0  0  0  0  0
    0.2648    4.0611    1.0952 H   0  0  0  0  0  0  0  0  0  0  0  0
  1  2  1  0  0  0  0
  2  3  1  0  0  0  0
  2  4  1  0  0  0  0
  2  5  1  0  0  0  0
  5  6  2  0  0  0  0
  5  7  1  0  0  0  0
  7  8  1  0  0  0  0
  7  9  1  0  0  0  0
  9 10  1  0  0  0  0
  9 11  1  0  0  0  0
  9 22  1  0  0  0  0
 11 12  1  0  0  0  0
 11 13  1  0  0  0  0
 11 14  1  0  0  0  0
 14 15  1  0  0  0  0
 14 16  1  0  0  0  0
 14 17  1  0  0  0  0
 17 18  1  0  0  0  0
 18 19  1  0  0  0  0
 18 20  1  0  0  0  0
 18 21  1  0  0  0  0
 22 23  2  0  0  0  0
 22 24  1  0  0  0  0
 24 25  1  0  0  0  0
 24 26  1  0  0  0  0
 26 27  1  0  0  0  0
 26 28  1  0  0  0  0
 26 29  1  0  0  0  0
M  END
$$$$

  -OEChem-02102214153D

 29 28  0     1  0  0  0  0  0999 V2000
   -3.4146   -3.4211    1.5800 H   0  0  0  0  0  0  0  0  0  0  0  0
   -3.3952   -2.4629    1.0535 C   0  0  0  0  0  0  0  0  0  0  0  0
   -3.9973   -1.7421    1.6120 H   0  0  0  0  0  0  0  0  0  0  0  0
   -3.8287   -2.5980    0.0597 H   0  0  0  0  0  0  0  0  0  0  0  0
   -1.9686   -1.9622    0.9313 C   0  0  0  0  0  0  0  0  0  0  0  0
   -1.0465   -2.6266    1.3756 O   0  0  0  0  0  0  0  0  0  0  0  0
   -1.7198   -0.7428    0.3374 N   0  0  0  0  0  0  0  0  0  0  0  0
   -2.5239   -0.1700    0.0845 H   0  0  0  0  0  0  0  0  0  0  0  0
   -0.3964   -0.1040    0.2619 C   0  0  1  0  0  0  0  0  0  0  0  0
    0.2710   -0.5524    1.0054 H   0  0  0  0  0  0  0  0  0  0  0  0
    0.2849   -0.2183   -1.1286 C   0  0  0  0  0  0  0  0  0  0  0  0
    0.7997    0.7149   -1.3800 H   0  0  0  0  0  0  0  0  0  0  0  0
    1.0574   -0.9873   -1.0232 H   0  0  0  0  0  0  0  0  0  0  0  0
   -0.6062   -0.6363   -2.3147 C   0  0  0  0  0  0  0  0  0  0  0  0
   -1.3985   -1.3174   -1.9965 H   0  0  0  0  0  0  0  0  0  0  0  0
   -1.0808    0.2454   -2.7569 H   0  0  0  0  0  0  0  0  0  0  0  0
    0.3814   -1.5483   -3.5697 S   0  0  0  0  0  0  0  0  0  0  0  0
    1.5306   -0.2550   -4.1863 C   0  0  0  0  0  0  0  0  0  0  0  0
    2.1816    0.0939   -3.3800 H   0  0  0  0  0  0  0  0  0  0  0  0
    2.1556   -0.6608   -4.9873 H   0  0  0  0  0  0  0  0  0  0  0  0
    0.9671    0.5963   -4.5793 H   0  0  0  0  0  0  0  0  0  0  0  0
   -0.5416    1.3858    0.6329 C   0  0  0  0  0  0  0  0  0  0  0  0
   -1.4823    2.0348    0.1886 O   0  0  0  0  0  0  0  0  0  0  0  0
    0.3550    1.9889    1.4953 N   0  0  0  0  0  0  0  0  0  0  0  0
    1.0835    1.4071    1.8997 H   0  0  0  0  0  0  0  0  0  0  0  0
    0.2284    3.3718    1.9394 C   0  0  0  0  0  0  0  0  0  0  0  0
   -0.7164    3.5180    2.4736 H   0  0  0  0  0  0  0  0  0  0  0  0
    1.0505    3.6296    2.6140 H   0  0  0  0  0  0  0  0  0  0  0  0
    0.2582    4.0534    1.0828 H   0  0  0  0  0  0  0  0  0  0  0  0
  1  2  1  0  0  0  0
  2  3  1  0  0  0  0
  2  4  1  0  0  0  0
  2  5  1  0  0  0  0
  5  6  2  0  0  0  0
  5  7  1  0  0  0  0
  7  8  1  0  0  0  0
  7  9  1  0  0  0  0
  9 10  1  0  0  0  0
  9 11  1  0  0  0  0
  9 22  1  0  0  0  0
 11 12  1  0  0  0  0
 11 13  1  0  0  0  0
 11 14  1  0  0  0  0
 14 15  1  0  0  0  0
 14 16  1  0  0  0  0
 14 17  1  0  0  0  0
 17 18  1  0  0  0  0
 18 19  1  0  0  0  0
 18 20  1  0  0  0  0
 18 21  1  0  0  0  0
 22 23  2  0  0  0  0
 22 24  1  0  0  0  0
 24 25  1  0  0  0  0
 24 26  1  0  0  0  0
 26 27  1  0  0  0  0
 26 28  1  0  0  0  0
 26 29  1  0  0  0  0
M  END
$$$$

  -OEChem-02102214153D

 29 28  0     1  0  0  0  0  0999 V2000
   -3.4329   -3.4179    1.5691 H   0  0  0  0  0  0  0  0  0  0  0  0
   -3.4086   -2.4632    1.0361 C   0  0  0  0  0  0  0  0  0  0  0  0
   -4.0262   -1.7424    1.5772 H   0  0  0  0  0  0  0  0  0  0  0  0
   -3.8210   -2.6079    0.0346 H   0  0  0  0  0  0  0  0  0  0  0  0
   -1.9830   -1.9547    0.9394 C   0  0  0  0  0  0  0  0  0  0  0  0
   -1.0659   -2.6141    1.4017 O   0  0  0  0  0  0  0  0  0  0  0  0
   -1.7311   -0.7338    0.3498 N   0  0  0  0  0  0  0  0  0  0  0  0
   -2.5333   -0.1660    0.0809 H   0  0  0  0  0  0  0  0  0  0  0  0
   -0.4055   -0.1004    0.2720 C   0  0  1  0  0  0  0  0  0  0  0  0
    0.2612   -0.5540    1.0131 H   0  0  0  0  0  0  0  0  0  0  0  0
    0.2767   -0.2127   -1.1195 C   0  0  0  0  0  0  0  0  0  0  0  0
    0.7970    0.7191   -1.3649 H   0  0  0  0  0  0  0  0  0  0  0  0
    1.0501   -0.9792   -1.0068 H   0  0  0  0  0  0  0  0  0  0  0  0
   -0.5995   -0.6233   -2.3245 C   0  0  0  0  0  0  0  0  0  0  0  0
   -1.5521   -1.0560   -2.0157 H   0  0  0  0  0  0  0  0  0  0  0  0
   -0.8289    0.2608   -2.9280 H   0  0  0  0  0  0  0  0  0  0  0  0
    0.2508   -1.8912   -3.3507 S   0  0  0  0  0  0  0  0  0  0  0  0
    1.6836   -0.9577   -4.0211 C   0  0  0  0  0  0  0  0  0  0  0  0
    2.3339   -0.6196   -3.2095 H   0  0  0  0  0  0  0  0  0  0  0  0
    2.2659   -1.5972   -4.6913 H   0  0  0  0  0  0  0  0  0  0  0  0
    1.3377   -0.0850   -4.5828 H   0  0  0  0  0  0  0  0  0  0  0  0
   -0.5407    1.3888    0.6493 C   0  0  0  0  0  0  0  0  0  0  0  0
   -1.4734    2.0483    0.2034 O   0  0  0  0  0  0  0  0  0  0  0  0
    0.3634    1.9827    1.5105 N   0  0  0  0  0  0  0  0  0  0  0  0
    1.0848    1.3928    1.9162 H   0  0  0  0  0  0  0  0  0  0  0  0
    0.2564    3.3691    1.9484 C   0  0  0  0  0  0  0  0  0  0  0  0
   -0.6852    3.5308    2.4836 H   0  0  0  0  0  0  0  0  0  0  0  0
    1.0830    3.6188    2.6206 H   0  0  0  0  0  0  0  0  0  0  0  0
    0.2940    4.0460    1.0883 H   0  0  0  0  0  0  0  0  0  0  0  0
  1  2  1  0  0  0  0
  2  3  1  0  0  0  0
  2  4  1  0  0  0  0
  2  5  1  0  0  0  0
  5  6  2  0  0  0  0
  5  7  1  0  0  0  0
  7  8  1  0  0  0  0
  7  9  1  0  0  0  0
  9 10  1  0  0  0  0
  9 11  1  0  0  0  0
  9 22  1  0  0  0  0
 11 12  1  0  0  0  0
 11 13  1  0  0  0  0
 11 14  1  0  0  0  0
 14 15  1  0  0  0  0
 14 16  1  0  0  0  0
 14 17  1  0  0  0  0
 17 18  1  0  0  0  0
 18 19  1  0  0  0  0
 18 20  1  0  0  0  0
 18 21  1  0  0  0  0
 22 23  2  0  0  0  0
 22 24  1  0  0  0  0
 24 25  1  0  0  0  0
 24 26  1  0  0  0  0
 26 27  1  0  0  0  0
 26 28  1  0  0  0  0
 26 29  1  0  0  0  0
M  END
$$$$

  -OEChem-02102214153D

 29 28  0     1  0  0  0  0  0999 V2000
   -3.4496   -3.4128    1.5110 H   0  0  0  0  0  0  0  0  0  0  0  0
   -3.4110   -2.4575    0.9803 C   0  0  0  0  0  0  0  0  0  0  0  0
   -4.0601   -1.7430    1.4923 H   0  0  0  0  0  0  0  0  0  0  0  0
   -3.7753   -2.6062   -0.0391 H   0  0  0  0  0  0  0  0  0  0  0  0
   -1.9874   -1.9353    0.9472 C   0  0  0  0  0  0  0  0  0  0  0  0
   -1.0864   -2.5817    1.4574 O   0  0  0  0  0  0  0  0  0  0  0  0
   -1.7213   -0.7167    0.3592 N   0  0  0  0  0  0  0  0  0  0  0  0
   -2.5153   -0.1589    0.0499 H   0  0  0  0  0  0  0  0  0  0  0  0
   -0.3930   -0.0873    0.3006 C   0  0  1  0  0  0  0  0  0  0  0  0
    0.2619   -0.5415    1.0516 H   0  0  0  0  0  0  0  0  0  0  0  0
    0.3055   -0.2113   -1.0824 C   0  0  0  0  0  0  0  0  0  0  0  0
    0.8101    0.7297   -1.3265 H   0  0  0  0  0  0  0  0  0  0  0  0
    1.0938   -0.9609   -0.9633 H   0  0  0  0  0  0  0  0  0  0  0  0
   -0.5626   -0.6252   -2.2938 C   0  0  0  0  0  0  0  0  0  0  0  0
   -1.6148   -0.7508   -2.0342 H   0  0  0  0  0  0  0  0  0  0  0  0
   -0.5243    0.1703   -3.0448 H   0  0  0  0  0  0  0  0  0  0  0  0
    0.0443   -2.1886   -3.0494 S   0  0  0  0  0  0  0  0  0  0  0  0
    1.6450   -1.6770   -3.7921 C   0  0  0  0  0  0  0  0  0  0  0  0
    2.3342   -1.3292   -3.0174 H   0  0  0  0  0  0  0  0  0  0  0  0
    2.1033   -2.5241   -4.3112 H   0  0  0  0  0  0  0  0  0  0  0  0
    1.4870   -0.8690   -4.5127 H   0  0  0  0  0  0  0  0  0  0  0  0
   -0.5296    1.4031    0.6720 C   0  0  0  0  0  0  0  0  0  0  0  0
   -1.4510    2.0654    0.2074 O   0  0  0  0  0  0  0  0  0  0  0  0
    0.3627    1.9962    1.5458 N   0  0  0  0  0  0  0  0  0  0  0  0
    1.0744    1.4043    1.9653 H   0  0  0  0  0  0  0  0  0  0  0  0
    0.2493    3.3821    1.9838 C   0  0  0  0  0  0  0  0  0  0  0  0
   -0.7040    3.5447    2.4977 H   0  0  0  0  0  0  0  0  0  0  0  0
    1.0612    3.6283    2.6750 H   0  0  0  0  0  0  0  0  0  0  0  0
    0.3081    4.0613    1.1268 H   0  0  0  0  0  0  0  0  0  0  0  0
  1  2  1  0  0  0  0
  2  3  1  0  0  0  0
  2  4  1  0  0  0  0
  2  5  1  0  0  0  0
  5  6  2  0  0  0  0
  5  7  1  0  0  0  0
  7  8  1  0  0  0  0
  7  9  1  0  0  0  0
  9 10  1  0  0  0  0
  9 11  1  0  0  0  0
  9 22  1  0  0  0  0
 11 12  1  0  0  0  0
 11 13  1  0  0  0  0
 11 14  1  0  0  0  0
 14 15  1  0  0  0  0
 14 16  1  0  0  0  0
 14 17  1  0  0  0  0
 17 18  1  0  0  0  0
 18 19  1  0  0  0  0
 18 20  1  0  0  0  0
 18 21  1  0  0  0  0
 22 23  2  0  0  0  0
 22 24  1  0  0  0  0
 24 25  1  0  0  0  0
 24 26  1  0  0  0  0
 26 27  1  0  0  0  0
 26 28  1  0  0  0  0
 26 29  1  0  0  0  0
M  END
$$$$

  -OEChem-02102214153D

 29 28  0     1  0  0  0  0  0999 V2000
   -3.4341   -3.4346    1.4253 H   0  0  0  0  0  0  0  0  0  0  0  0
   -3.3870   -2.4801    0.8936 C   0  0  0  0  0  0  0  0  0  0  0  0
   -4.0871   -1.7821    1.3584 H   0  0  0  0  0  0  0  0  0  0  0  0
   -3.6798   -2.6422   -0.1468 H   0  0  0  0  0  0  0  0  0  0  0  0
   -1.9792   -1.9189    0.9514 C   0  0  0  0  0  0  0  0  0  0  0  0
   -1.0979   -2.5373    1.5273 O   0  0  0  0  0  0  0  0  0  0  0  0
   -1.7048   -0.7005    0.3664 N   0  0  0  0  0  0  0  0  0  0  0  0
   -2.4877   -0.1695   -0.0100 H   0  0  0  0  0  0  0  0  0  0  0  0
   -0.3780   -0.0650    0.3409 C   0  0  1  0  0  0  0  0  0  0  0  0
    0.2629   -0.5167    1.1053 H   0  0  0  0  0  0  0  0  0  0  0  0
    0.3389   -0.2027   -1.0303 C   0  0  0  0  0  0  0  0  0  0  0  0
    0.8207    0.7486   -1.2804 H   0  0  0  0  0  0  0  0  0  0  0  0
    1.1431   -0.9342   -0.9092 H   0  0  0  0  0  0  0  0  0  0  0  0
   -0.5332   -0.6284   -2.2317 C   0  0  0  0  0  0  0  0  0  0  0  0
   -1.5969   -0.4551   -2.0527 H   0  0  0  0  0  0  0  0  0  0  0  0
   -0.2656   -0.0074   -3.0922 H   0  0  0  0  0  0  0  0  0  0  0  0
   -0.2426   -2.3855   -2.6916 S   0  0  0  0  0  0  0  0  0  0  0  0
    1.4266   -2.3372   -3.4584 C   0  0  0  0  0  0  0  0  0  0  0  0
    2.1762   -2.0154   -2.7302 H   0  0  0  0  0  0  0  0  0  0  0  0
    1.6997   -3.3328   -3.8209 H   0  0  0  0  0  0  0  0  0  0  0  0
    1.4349   -1.6426   -4.3034 H   0  0  0  0  0  0  0  0  0  0  0  0
   -0.5219    1.4273    0.7030 C   0  0  0  0  0  0  0  0  0  0  0  0
   -1.4164    2.0940    0.1943 O   0  0  0  0  0  0  0  0  0  0  0  0
    0.3484    2.0239    1.5967 N   0  0  0  0  0  0  0  0  0  0  0  0
    1.0376    1.4301    2.0497 H   0  0  0  0  0  0  0  0  0  0  0  0
    0.2473    3.4216    1.9987 C   0  0  0  0  0  0  0  0  0  0  0  0
   -0.7194    3.6149    2.4753 H   0  0  0  0  0  0  0  0  0  0  0  0
    1.0398    3.6687    2.7118 H   0  0  0  0  0  0  0  0  0  0  0  0
    0.3490    4.0791    1.1288 H   0  0  0  0  0  0  0  0  0  0  0  0
  1  2  1  0  0  0  0
  2  3  1  0  0  0  0
  2  4  1  0  0  0  0
  2  5  1  0  0  0  0
  5  6  2  0  0  0  0
  5  7  1  0  0  0  0
  7  8  1  0  0  0  0
  7  9  1  0  0  0  0
  9 10  1  0  0  0  0
  9 11  1  0  0  0  0
  9 22  1  0  0  0  0
 11 12  1  0  0  0  0
 11 13  1  0  0  0  0
 11 14  1  0  0  0  0
 14 15  1  0  0  0  0
 14 16  1  0  0  0  0
 14 17  1  0  0  0  0
 17 18  1  0  0  0  0
 18 19  1  0  0  0  0
 18 20  1  0  0  0  0
 18 21  1  0  0  0  0
 22 23  2  0  0  0  0
 22 24  1  0  0  0  0
 24 25  1  0  0  0  0
 24 26  1  0  0  0  0
 26 27  1  0  0  0  0
 26 28  1  0  0  0  0
 26 29  1  0  0  0  0
M  END
$$$$

  -OEChem-02102214153D

 29 28  0     1  0  0  0  0  0999 V2000
   -3.3881   -3.4598    1.3578 H   0  0  0  0  0  0  0  0  0  0  0  0
   -3.3451   -2.4991    0.8376 C   0  0  0  0  0  0  0  0  0  0  0  0
   -4.0803   -1.8236    1.2811 H   0  0  0  0  0  0  0  0  0  0  0  0
   -3.5922   -2.6576   -0.2150 H   0  0  0  0  0  0  0  0  0  0  0  0
   -1.9554   -1.9041    0.9553 C   0  0  0  0  0  0  0  0  0  0  0  0
   -1.0882   -2.4943    1.5810 O   0  0  0  0  0  0  0  0  0  0  0  0
   -1.6821   -0.6866    0.3678 N   0  0  0  0  0  0  0  0  0  0  0  0
   -2.4520   -0.1916   -0.0767 H   0  0  0  0  0  0  0  0  0  0  0  0
   -0.3581   -0.0452    0.3546 C   0  0  1  0  0  0  0  0  0  0  0  0
    0.2811   -0.4921    1.1228 H   0  0  0  0  0  0  0  0  0  0  0  0
    0.3595   -0.1859   -1.0155 C   0  0  0  0  0  0  0  0  0  0  0  0
    0.8289    0.7698   -1.2726 H   0  0  0  0  0  0  0  0  0  0  0  0
    1.1703   -0.9105   -0.9028 H   0  0  0  0  0  0  0  0  0  0  0  0
   -0.5277   -0.6167   -2.2002 C   0  0  0  0  0  0  0  0  0  0  0  0
   -1.5346   -0.1990   -2.1065 H   0  0  0  0  0  0  0  0  0  0  0  0
   -0.1040   -0.2027   -3.1203 H   0  0  0  0  0  0  0  0  0  0  0  0
   -0.6005   -2.4464   -2.3916 S   0  0  0  0  0  0  0  0  0  0  0  0
    1.0769   -2.8836   -3.0008 C   0  0  0  0  0  0  0  0  0  0  0  0
    1.8322   -2.6672   -2.2404 H   0  0  0  0  0  0  0  0  0  0  0  0
    1.1207   -3.9509   -3.2370 H   0  0  0  0  0  0  0  0  0  0  0  0
    1.3122   -2.3153   -3.9054 H   0  0  0  0  0  0  0  0  0  0  0  0
   -0.5112    1.4481    0.7093 C   0  0  0  0  0  0  0  0  0  0  0  0
   -1.3917    2.1146    0.1762 O   0  0  0  0  0  0  0  0  0  0  0  0
    0.3476    2.0503    1.6103 N   0  0  0  0  0  0  0  0  0  0  0  0
    1.0250    1.4572    2.0815 H   0  0  0  0  0  0  0  0  0  0  0  0
    0.2355    3.4483    2.0085 C   0  0  0  0  0  0  0  0  0  0  0  0
   -0.7380    3.6386    2.4725 H   0  0  0  0  0  0  0  0  0  0  0  0
    1.0179    3.6999    2.7309 H   0  0  0  0  0  0  0  0  0  0  0  0
    0.3457    4.1042    1.1384 H   0  0  0  0  0  0  0  0  0  0  0  0
  1  2  1  0  0  0  0
  2  3  1  0  0  0  0
  2  4  1  0  0  0  0
  2  5  1  0  0  0  0
  5  6  2  0  0  0  0
  5  7  1  0  0  0  0
  7  8  1  0  0  0  0
  7  9  1  0  0  0  0
  9 10  1  0  0  0  0
  9 11  1  0  0  0  0
  9 22  1  0  0  0  0
 11 12  1  0  0  0  0
 11 13  1  0  0  0  0
 11 14  1  0  0  0  0
 14 15  1  0  0  0  0
 14 16  1  0  0  0  0
 14 17  1  0  0  0  0
 17 18  1  0  0  0  0
 18 19  1  0  0  0  0
 18 20  1  0  0  0  0
 18 21  1  0  0  0  0
 22 23  2  0  0  0  0
 22 24  1  0  0  0  0
 24 25  1  0  0  0  0
 24 26  1  0  0  0  0
 26 27  1  0  0  0  0
 26 28  1  0  0  0  0
 26 29  1  0  0  0  0
M  END
$$$$

  -OEChem-02102214153D

 29 28  0     1  0  0  0  0  0999 V2000
   -3.2184   -3.5451    1.2767 H   0  0  0  0  0  0  0  0  0  0  0  0
   -3.2143   -2.5823    0.7584 C   0  0  0  0  0  0  0  0  0  0  0  0
   -3.9359   -1.9188    1.2409 H   0  0  0  0  0  0  0  0  0  0  0  0
   -3.5121   -2.7404   -0.2811 H   0  0  0  0  0  0  0  0  0  0  0  0
   -1.8287   -1.9676    0.8084 C   0  0  0  0  0  0  0  0  0  0  0  0
   -0.9070   -2.5765    1.3310 O   0  0  0  0  0  0  0  0  0  0  0  0
   -1.6159   -0.7144    0.2730 N   0  0  0  0  0  0  0  0  0  0  0  0
   -2.4177   -0.2239   -0.1167 H   0  0  0  0  0  0  0  0  0  0  0  0
   -0.3109   -0.0401    0.2168 C   0  0  1  0  0  0  0  0  0  0  0  0
    0.3828   -0.5096    0.9213 H   0  0  0  0  0  0  0  0  0  0  0  0
    0.3322   -0.0814   -1.1965 C   0  0  0  0  0  0  0  0  0  0  0  0
    0.7548    0.9037   -1.4213 H   0  0  0  0  0  0  0  0  0  0  0  0
    1.1767   -0.7740   -1.1732 H   0  0  0  0  0  0  0  0  0  0  0  0
   -0.5969   -0.4670   -2.3660 C   0  0  0  0  0  0  0  0  0  0  0  0
   -1.5134    0.1299   -2.3190 H   0  0  0  0  0  0  0  0  0  0  0  0
   -0.0882   -0.1983   -3.2971 H   0  0  0  0  0  0  0  0  0  0  0  0
   -1.0371   -2.2583   -2.4813 S   0  0  0  0  0  0  0  0  0  0  0  0
    0.4746   -3.2006   -2.0301 C   0  0  0  0  0  0  0  0  0  0  0  0
    0.7133   -3.0560   -0.9720 H   0  0  0  0  0  0  0  0  0  0  0  0
    0.3130   -4.2687   -2.2025 H   0  0  0  0  0  0  0  0  0  0  0  0
    1.3242   -2.8726   -2.6358 H   0  0  0  0  0  0  0  0  0  0  0  0
   -0.4822    1.4274    0.6614 C   0  0  0  0  0  0  0  0  0  0  0  0
   -1.4127    2.0944    0.2226 O   0  0  0  0  0  0  0  0  0  0  0  0
    0.4125    2.0054    1.5434 N   0  0  0  0  0  0  0  0  0  0  0  0
    1.1217    1.4039    1.9532 H   0  0  0  0  0  0  0  0  0  0  0  0
    0.2656    3.3648    2.0494 C   0  0  0  0  0  0  0  0  0  0  0  0
   -0.6548    3.4576    2.6353 H   0  0  0  0  0  0  0  0  0  0  0  0
    1.1131    3.6236    2.6914 H   0  0  0  0  0  0  0  0  0  0  0  0
    0.2301    4.0814    1.2220 H   0  0  0  0  0  0  0  0  0  0  0  0
  1  2  1  0  0  0  0
  2  3  1  0  0  0  0
  2  4  1  0  0  0  0
  2  5  1  0  0  0  0
  5  6  2  0  0  0  0
  5  7  1  0  0  0  0
  7  8  1  0  0  0  0
  7  9  1  0  0  0  0
  9 10  1  0  0  0  0
  9 11  1  0  0  0  0
  9 22  1  0  0  0  0
 11 12  1  0  0  0  0
 11 13  1  0  0  0  0
 11 14  1  0  0  0  0
 14 15  1  0  0  0  0
 14 16  1  0  0  0  0
 14 17  1  0  0  0  0
 17 18  1  0  0  0  0
 18 19  1  0  0  0  0
 18 20  1  0  0  0  0
 18 21  1  0  0  0  0
 22 23  2  0  0  0  0
 22 24  1  0  0  0  0
 24 25  1  0  0  0  0
 24 26  1  0  0  0  0
 26 27  1  0  0  0  0
 26 28  1  0  0  0  0
 26 29  1  0  0  0  0
M  END
$$$$

  -OEChem-02102214153D

 29 28  0     1  0  0  0  0  0999 V2000
   -3.3308   -3.5029    1.3937 H   0  0  0  0  0  0  0  0  0  0  0  0
   -3.3089   -2.5377    0.8807 C   0  0  0  0  0  0  0  0  0  0  0  0
   -4.0179   -1.8636    1.3669 H   0  0  0  0  0  0  0  0  0  0  0  0
   -3.6100   -2.6850   -0.1593 H   0  0  0  0  0  0  0  0  0  0  0  0
   -1.9127   -1.9476    0.9348 C   0  0  0  0  0  0  0  0  0  0  0  0
   -1.0166   -2.5484    1.5091 O   0  0  0  0  0  0  0  0  0  0  0  0
   -1.6639   -0.7212    0.3538 N   0  0  0  0  0  0  0  0  0  0  0  0
   -2.4404   -0.2507   -0.1062 H   0  0  0  0  0  0  0  0  0  0  0  0
   -0.3472   -0.0734    0.2982 C   0  0  1  0  0  0  0  0  0  0  0  0
    0.3190   -0.5243    1.0406 H   0  0  0  0  0  0  0  0  0  0  0  0
    0.3531   -0.1473   -1.0901 C   0  0  0  0  0  0  0  0  0  0  0  0
    0.8306    0.8151   -1.3037 H   0  0  0  0  0  0  0  0  0  0  0  0
    1.1632   -0.8768   -1.0023 H   0  0  0  0  0  0  0  0  0  0  0  0
   -0.4788   -0.5399   -2.3312 C   0  0  0  0  0  0  0  0  0  0  0  0
   -1.2569    0.2165   -2.4775 H   0  0  0  0  0  0  0  0  0  0  0  0
    0.1781   -0.5022   -3.2059 H   0  0  0  0  0  0  0  0  0  0  0  0
   -1.2866   -2.1993   -2.3054 S   0  0  0  0  0  0  0  0  0  0  0  0
    0.0677   -3.3434   -1.8221 C   0  0  0  0  0  0  0  0  0  0  0  0
    0.4010   -3.1341   -0.8014 H   0  0  0  0  0  0  0  0  0  0  0  0
   -0.2845   -4.3782   -1.8640 H   0  0  0  0  0  0  0  0  0  0  0  0
    0.9181   -3.2344   -2.5012 H   0  0  0  0  0  0  0  0  0  0  0  0
   -0.5124    1.4123    0.6817 C   0  0  0  0  0  0  0  0  0  0  0  0
   -1.4128    2.0798    0.1846 O   0  0  0  0  0  0  0  0  0  0  0  0
    0.3711    2.0105    1.5613 N   0  0  0  0  0  0  0  0  0  0  0  0
    1.0616    1.4149    2.0095 H   0  0  0  0  0  0  0  0  0  0  0  0
    0.2519    3.3982    1.9919 C   0  0  0  0  0  0  0  0  0  0  0  0
   -0.7067    3.5625    2.4954 H   0  0  0  0  0  0  0  0  0  0  0  0
    1.0568    3.6481    2.6899 H   0  0  0  0  0  0  0  0  0  0  0  0
    0.3189    4.0737    1.1325 H   0  0  0  0  0  0  0  0  0  0  0  0
  1  2  1  0  0  0  0
  2  3  1  0  0  0  0
  2  4  1  0  0  0  0
  2  5  1  0  0  0  0
  5  6  2  0  0  0  0
  5  7  1  0  0  0  0
  7  8  1  0  0  0  0
  7  9  1  0  0  0  0
  9 10  1  0  0  0  0
  9 11  1  0  0  0  0
  9 22  1  0  0  0  0
 11 12  1  0  0  0  0
 11 13  1  0  0  0  0
 11 14  1  0  0  0  0
 14 15  1  0  0  0  0
 14 16  1  0  0  0  0
 14 17  1  0  0  0  0
 17 18  1  0  0  0  0
 18 19  1  0  0  0  0
 18 20  1  0  0  0  0
 18 21  1  0  0  0  0
 22 23  2  0  0  0  0
 22 24  1  0  0  0  0
 24 25  1  0  0  0  0
 24 26  1  0  0  0  0
 26 27  1  0  0  0  0
 26 28  1  0  0  0  0
 26 29  1  0  0  0  0
M  END
$$$$

  -OEChem-02102214153D

 29 28  0     1  0  0  0  0  0999 V2000
   -3.4049   -3.4429    1.5487 H   0  0  0  0  0  0  0  0  0  0  0  0
   -3.3724   -2.4822    1.0276 C   0  0  0  0  0  0  0  0  0  0  0  0
   -4.0764   -1.7967    1.5054 H   0  0  0  0  0  0  0  0  0  0  0  0
   -3.6728   -2.6353   -0.0118 H   0  0  0  0  0  0  0  0  0  0  0  0
   -1.9706   -1.9051    1.0811 C   0  0  0  0  0  0  0  0  0  0  0  0
   -1.0888   -2.4951    1.6879 O   0  0  0  0  0  0  0  0  0  0  0  0
   -1.6992   -0.7060    0.4558 N   0  0  0  0  0  0  0  0  0  0  0  0
   -2.4557   -0.2660   -0.0645 H   0  0  0  0  0  0  0  0  0  0  0  0
   -0.3762   -0.0756    0.3872 C   0  0  1  0  0  0  0  0  0  0  0  0
    0.2736   -0.5017    1.1584 H   0  0  0  0  0  0  0  0  0  0  0  0
    0.3611   -0.1923   -0.9822 C   0  0  0  0  0  0  0  0  0  0  0  0
    0.8838    0.7473   -1.1926 H   0  0  0  0  0  0  0  0  0  0  0  0
    1.1392   -0.9475   -0.8330 H   0  0  0  0  0  0  0  0  0  0  0  0
   -0.3819   -0.6120   -2.2753 C   0  0  0  0  0  0  0  0  0  0  0  0
   -0.9668    0.2520   -2.6072 H   0  0  0  0  0  0  0  0  0  0  0  0
    0.3648   -0.8117   -3.0502 H   0  0  0  0  0  0  0  0  0  0  0  0
   -1.5389   -2.0457   -2.2112 S   0  0  0  0  0  0  0  0  0  0  0  0
   -0.4234   -3.4176   -1.7120 C   0  0  0  0  0  0  0  0  0  0  0  0
    0.0392   -3.2035   -0.7442 H   0  0  0  0  0  0  0  0  0  0  0  0
   -0.9900   -4.3495   -1.6276 H   0  0  0  0  0  0  0  0  0  0  0  0
    0.3664   -3.5536   -2.4564 H   0  0  0  0  0  0  0  0  0  0  0  0
   -0.5363    1.4255    0.7113 C   0  0  0  0  0  0  0  0  0  0  0  0
   -1.4217    2.0821    0.1746 O   0  0  0  0  0  0  0  0  0  0  0  0
    0.3416    2.0529    1.5764 N   0  0  0  0  0  0  0  0  0  0  0  0
    1.0242    1.4722    2.0550 H   0  0  0  0  0  0  0  0  0  0  0  0
    0.2305    3.4592    1.9449 C   0  0  0  0  0  0  0  0  0  0  0  0
   -0.7336    3.6544    2.4263 H   0  0  0  0  0  0  0  0  0  0  0  0
    1.0273    3.7320    2.6435 H   0  0  0  0  0  0  0  0  0  0  0  0
    0.3170    4.0955    1.0577 H   0  0  0  0  0  0  0  0  0  0  0  0
  1  2  1  0  0  0  0
  2  3  1  0  0  0  0
  2  4  1  0  0  0  0
  2  5  1  0  0  0  0
  5  6  2  0  0  0  0
  5  7  1  0  0  0  0
  7  8  1  0  0  0  0
  7  9  1  0  0  0  0
  9 10  1  0  0  0  0
  9 11  1  0  0  0  0
  9 22  1  0  0  0  0
 11 12  1  0  0  0  0
 11 13  1  0  0  0  0
 11 14  1  0  0  0  0
 14 15  1  0  0  0  0
 14 16  1  0  0  0  0
 14 17  1  0  0  0  0
 17 18  1  0  0  0  0
 18 19  1  0  0  0  0
 18 20  1  0  0  0  0
 18 21  1  0  0  0  0
 22 23  2  0  0  0  0
 22 24  1  0  0  0  0
 24 25  1  0  0  0  0
 24 26  1  0  0  0  0
 26 27  1  0  0  0  0
 26 28  1  0  0  0  0
 26 29  1  0  0  0  0
M  END
$$$$

  -OEChem-02102214153D

 29 28  0     1  0  0  0  0  0999 V2000
   -3.4461   -3.3678    1.7249 H   0  0  0  0  0  0  0  0  0  0  0  0
   -3.4132   -2.4095    1.1994 C   0  0  0  0  0  0  0  0  0  0  0  0
   -4.0971   -1.7136    1.6909 H   0  0  0  0  0  0  0  0  0  0  0  0
   -3.7395   -2.5623    0.1679 H   0  0  0  0  0  0  0  0  0  0  0  0
   -2.0037   -1.8490    1.2197 C   0  0  0  0  0  0  0  0  0  0  0  0
   -1.1219   -2.4353    1.8296 O   0  0  0  0  0  0  0  0  0  0  0  0
   -1.7233   -0.6736    0.5560 N   0  0  0  0  0  0  0  0  0  0  0  0
   -2.4758   -0.2474    0.0179 H   0  0  0  0  0  0  0  0  0  0  0  0
   -0.3982   -0.0534    0.4654 C   0  0  1  0  0  0  0  0  0  0  0  0
    0.2432   -0.4543    1.2570 H   0  0  0  0  0  0  0  0  0  0  0  0
    0.3586   -0.2160   -0.8900 C   0  0  0  0  0  0  0  0  0  0  0  0
    0.9091    0.7055   -1.1089 H   0  0  0  0  0  0  0  0  0  0  0  0
    1.1160   -0.9808   -0.6903 H   0  0  0  0  0  0  0  0  0  0  0  0
   -0.3228   -0.6756   -2.2082 C   0  0  0  0  0  0  0  0  0  0  0  0
   -0.6773    0.2337   -2.7049 H   0  0  0  0  0  0  0  0  0  0  0  0
    0.4413   -1.1145   -2.8575 H   0  0  0  0  0  0  0  0  0  0  0  0
   -1.7690   -1.8153   -2.1629 S   0  0  0  0  0  0  0  0  0  0  0  0
   -0.9550   -3.3941   -1.6928 C   0  0  0  0  0  0  0  0  0  0  0  0
   -0.3867   -3.2716   -0.7660 H   0  0  0  0  0  0  0  0  0  0  0  0
   -1.7067   -4.1743   -1.5410 H   0  0  0  0  0  0  0  0  0  0  0  0
   -0.2702   -3.7164   -2.4825 H   0  0  0  0  0  0  0  0  0  0  0  0
   -0.5527    1.4580    0.7398 C   0  0  0  0  0  0  0  0  0  0  0  0
   -1.4395    2.1003    0.1883 O   0  0  0  0  0  0  0  0  0  0  0  0
    0.3285    2.1096    1.5834 N   0  0  0  0  0  0  0  0  0  0  0  0
    1.0132    1.5428    2.0756 H   0  0  0  0  0  0  0  0  0  0  0  0
    0.2175    3.5255    1.9128 C   0  0  0  0  0  0  0  0  0  0  0  0
   -0.7476    3.7343    2.3865 H   0  0  0  0  0  0  0  0  0  0  0  0
    1.0129    3.8168    2.6055 H   0  0  0  0  0  0  0  0  0  0  0  0
    0.3058    4.1375    1.0090 H   0  0  0  0  0  0  0  0  0  0  0  0
  1  2  1  0  0  0  0
  2  3  1  0  0  0  0
  2  4  1  0  0  0  0
  2  5  1  0  0  0  0
  5  6  2  0  0  0  0
  5  7  1  0  0  0  0
  7  8  1  0  0  0  0
  7  9  1  0  0  0  0
  9 10  1  0  0  0  0
  9 11  1  0  0  0  0
  9 22  1  0  0  0  0
 11 12  1  0  0  0  0
 11 13  1  0  0  0  0
 11 14  1  0  0  0  0
 14 15  1  0  0  0  0
 14 16  1  0  0  0  0
 14 17  1  0  0  0  0
 17 18  1  0  0  0  0
 18 19  1  0  0  0  0
 18 20  1  0  0  0  0
 18 21  1  0  0  0  0
 22 23  2  0  0  0  0
 22 24  1  0  0  0  0
 24 25  1  0  0  0  0
 24 26  1  0  0  0  0
 26 27  1  0  0  0  0
 26 28  1  0  0  0  0
 26 29  1  0  0  0  0
M  END
$$$$

  -OEChem-02102214153D

 29 28  0     1  0  0  0  0  0999 V2000
   -3.4451   -3.3193    1.8201 H   0  0  0  0  0  0  0  0  0  0  0  0
   -3.4248   -2.3310    1.3528 C   0  0  0  0  0  0  0  0  0  0  0  0
   -4.0781   -1.6595    1.9150 H   0  0  0  0  0  0  0  0  0  0  0  0
   -3.7989   -2.4177    0.3299 H   0  0  0  0  0  0  0  0  0  0  0  0
   -2.0099   -1.7844    1.3435 C   0  0  0  0  0  0  0  0  0  0  0  0
   -1.1236   -2.3705    1.9464 O   0  0  0  0  0  0  0  0  0  0  0  0
   -1.7290   -0.6274    0.6500 N   0  0  0  0  0  0  0  0  0  0  0  0
   -2.4836   -0.2102    0.1069 H   0  0  0  0  0  0  0  0  0  0  0  0
   -0.4059   -0.0093    0.5372 C   0  0  1  0  0  0  0  0  0  0  0  0
    0.2341   -0.3871    1.3410 H   0  0  0  0  0  0  0  0  0  0  0  0
    0.3528   -0.2218   -0.8100 C   0  0  0  0  0  0  0  0  0  0  0  0
    0.9059    0.6918   -1.0545 H   0  0  0  0  0  0  0  0  0  0  0  0
    1.1100   -0.9766   -0.5745 H   0  0  0  0  0  0  0  0  0  0  0  0
   -0.3041   -0.7312   -2.1264 C   0  0  0  0  0  0  0  0  0  0  0  0
   -0.4073    0.1476   -2.7713 H   0  0  0  0  0  0  0  0  0  0  0  0
    0.3998   -1.4042   -2.6262 H   0  0  0  0  0  0  0  0  0  0  0  0
   -1.9652   -1.5286   -2.1269 S   0  0  0  0  0  0  0  0  0  0  0  0
   -1.5092   -3.2688   -1.7527 C   0  0  0  0  0  0  0  0  0  0  0  0
   -0.9306   -3.3220   -0.8257 H   0  0  0  0  0  0  0  0  0  0  0  0
   -2.4108   -3.8778   -1.6396 H   0  0  0  0  0  0  0  0  0  0  0  0
   -0.9057   -3.6853   -2.5644 H   0  0  0  0  0  0  0  0  0  0  0  0
   -0.5551    1.5097    0.7719 C   0  0  0  0  0  0  0  0  0  0  0  0
   -1.4499    2.1381    0.2178 O   0  0  0  0  0  0  0  0  0  0  0  0
    0.3324    2.1814    1.5933 N   0  0  0  0  0  0  0  0  0  0  0  0
    1.0143    1.6250    2.1007 H   0  0  0  0  0  0  0  0  0  0  0  0
    0.2180    3.6030    1.8965 C   0  0  0  0  0  0  0  0  0  0  0  0
   -0.7375    3.8141    2.3883 H   0  0  0  0  0  0  0  0  0  0  0  0
    1.0270    3.9142    2.5645 H   0  0  0  0  0  0  0  0  0  0  0  0
    0.2805    4.1974    0.9787 H   0  0  0  0  0  0  0  0  0  0  0  0
  1  2  1  0  0  0  0
  2  3  1  0  0  0  0
  2  4  1  0  0  0  0
  2  5  1  0  0  0  0
  5  6  2  0  0  0  0
  5  7  1  0  0  0  0
  7  8  1  0  0  0  0
  7  9  1  0  0  0  0
  9 10  1  0  0  0  0
  9 11  1  0  0  0  0
  9 22  1  0  0  0  0
 11 12  1  0  0  0  0
 11 13  1  0  0  0  0
 11 14  1  0  0  0  0
 14 15  1  0  0  0  0
 14 16  1  0  0  0  0
 14 17  1  0  0  0  0
 17 18  1  0  0  0  0
 18 19  1  0  0  0  0
 18 20  1  0  0  0  0
 18 21  1  0  0  0  0
 22 23  2  0  0  0  0
 22 24  1  0  0  0  0
 24 25  1  0  0  0  0
 24 26  1  0  0  0  0
 26 27  1  0  0  0  0
 26 28  1  0  0  0  0
 26 29  1  0  0  0  0
M  END
$$$$

  -OEChem-02102214153D

 29 28  0     1  0  0  0  0  0999 V2000
   -3.9748   -2.9421    1.6246 H   0  0  0  0  0  0  0  0  0  0  0  0
   -3.7651   -2.0507    1.0272 C   0  0  0  0  0  0  0  0  0  0  0  0
   -4.4829   -1.2708    1.2922 H   0  0  0  0  0  0  0  0  0  0  0  0
   -3.8836   -2.2985   -0.0301 H   0  0  0  0  0  0  0  0  0  0  0  0
   -2.3537   -1.5624    1.2922 C   0  0  0  0  0  0  0  0  0  0  0  0
   -1.6704   -2.1018    2.1490 O   0  0  0  0  0  0  0  0  0  0  0  0
   -1.8508   -0.5040    0.5683 N   0  0  0  0  0  0  0  0  0  0  0  0
   -2.4282   -0.1309   -0.1845 H   0  0  0  0  0  0  0  0  0  0  0  0
   -0.5104    0.0658    0.7208 C   0  0  1  0  0  0  0  0  0  0  0  0
   -0.1124   -0.2256    1.6982 H   0  0  0  0  0  0  0  0  0  0  0  0
    0.5423   -0.3470   -0.3537 C   0  0  0  0  0  0  0  0  0  0  0  0
    1.1664    0.5256   -0.5757 H   0  0  0  0  0  0  0  0  0  0  0  0
    1.1990   -1.0602    0.1548 H   0  0  0  0  0  0  0  0  0  0  0  0
    0.1993   -1.0163   -1.7179 C   0  0  0  0  0  0  0  0  0  0  0  0
    0.5851   -0.3506   -2.4967 H   0  0  0  0  0  0  0  0  0  0  0  0
    0.7737   -1.9451   -1.7928 H   0  0  0  0  0  0  0  0  0  0  0  0
   -1.5425   -1.3911   -2.1950 S   0  0  0  0  0  0  0  0  0  0  0  0
   -1.6194   -3.1947   -1.8545 C   0  0  0  0  0  0  0  0  0  0  0  0
   -0.9075   -3.7307   -2.4892 H   0  0  0  0  0  0  0  0  0  0  0  0
   -1.3746   -3.3952   -0.8069 H   0  0  0  0  0  0  0  0  0  0  0  0
   -2.6245   -3.5744   -2.0604 H   0  0  0  0  0  0  0  0  0  0  0  0
   -0.6235    1.6058    0.7424 C   0  0  0  0  0  0  0  0  0  0  0  0
   -1.3278    2.1895   -0.0732 O   0  0  0  0  0  0  0  0  0  0  0  0
    0.0756    2.3437    1.6806 N   0  0  0  0  0  0  0  0  0  0  0  0
    0.5934    1.8321    2.3893 H   0  0  0  0  0  0  0  0  0  0  0  0
   -0.0203    3.7943    1.7875 C   0  0  0  0  0  0  0  0  0  0  0  0
   -1.0503    4.0950    2.0065 H   0  0  0  0  0  0  0  0  0  0  0  0
    0.6255    4.1580    2.5926 H   0  0  0  0  0  0  0  0  0  0  0  0
    0.2942    4.2692    0.8521 H   0  0  0  0  0  0  0  0  0  0  0  0
  1  2  1  0  0  0  0
  2  3  1  0  0  0  0
  2  4  1  0  0  0  0
  2  5  1  0  0  0  0
  5  6  2  0  0  0  0
  5  7  1  0  0  0  0
  7  8  1  0  0  0  0
  7  9  1  0  0  0  0
  9 10  1  0  0  0  0
  9 11  1  0  0  0  0
  9 22  1  0  0  0  0
 11 12  1  0  0  0  0
 11 13  1  0  0  0  0
 11 14  1  0  0  0  0
 14 15  1  0  0  0  0
 14 16  1  0  0  0  0
 14 17  1  0  0  0  0
 17 18  1  0  0  0  0
 18 19  1  0  0  0  0
 18 20  1  0  0  0  0
 18 21  1  0  0  0  0
 22 23  2  0  0  0  0
 22 24  1  0  0  0  0
 24 25  1  0  0  0  0
 24 26  1  0  0  0  0
 26 27  1  0  0  0  0
 26 28  1  0  0  0  0
 26 29  1  0  0  0  0
M  END
$$$$

  -OEChem-02102214153D

 29 28  0     1  0  0  0  0  0999 V2000
   -3.0076   -3.6303    2.2912 H   0  0  0  0  0  0  0  0  0  0  0  0
   -3.0804   -2.6678    1.7775 C   0  0  0  0  0  0  0  0  0  0  0  0
   -3.7753   -2.0266    2.3250 H   0  0  0  0  0  0  0  0  0  0  0  0
   -3.4668   -2.8341    0.7689 H   0  0  0  0  0  0  0  0  0  0  0  0
   -1.7169   -2.0076    1.7053 C   0  0  0  0  0  0  0  0  0  0  0  0
   -0.7428   -2.5584    2.1958 O   0  0  0  0  0  0  0  0  0  0  0  0
   -1.5833   -0.7896    1.0757 N   0  0  0  0  0  0  0  0  0  0  0  0
   -2.4083   -0.4101    0.6118 H   0  0  0  0  0  0  0  0  0  0  0  0
   -0.3143   -0.1005    0.8315 C   0  0  1  0  0  0  0  0  0  0  0  0
    0.4466   -0.5072    1.5053 H   0  0  0  0  0  0  0  0  0  0  0  0
    0.2325   -0.2314   -0.6227 C   0  0  0  0  0  0  0  0  0  0  0  0
    0.6412    0.7435   -0.9104 H   0  0  0  0  0  0  0  0  0  0  0  0
    1.0884   -0.9122   -0.5688 H   0  0  0  0  0  0  0  0  0  0  0  0
   -0.6285   -0.7178   -1.8248 C   0  0  0  0  0  0  0  0  0  0  0  0
   -0.3747   -0.0982   -2.6907 H   0  0  0  0  0  0  0  0  0  0  0  0
   -0.3055   -1.7377   -2.0572 H   0  0  0  0  0  0  0  0  0  0  0  0
   -2.4685   -0.7756   -1.6915 S   0  0  0  0  0  0  0  0  0  0  0  0
   -2.9317   -1.4074   -3.3511 C   0  0  0  0  0  0  0  0  0  0  0  0
   -2.5891   -0.7176   -4.1280 H   0  0  0  0  0  0  0  0  0  0  0  0
   -4.0188   -1.5056   -3.4251 H   0  0  0  0  0  0  0  0  0  0  0  0
   -2.4787   -2.3880   -3.5244 H   0  0  0  0  0  0  0  0  0  0  0  0
   -0.4607    1.3924    1.1990 C   0  0  0  0  0  0  0  0  0  0  0  0
   -1.4371    2.0340    0.8295 O   0  0  0  0  0  0  0  0  0  0  0  0
    0.5236    2.0278    1.9346 N   0  0  0  0  0  0  0  0  0  0  0  0
    1.2809    1.4552    2.2958 H   0  0  0  0  0  0  0  0  0  0  0  0
    0.4239    3.4169    2.3654 C   0  0  0  0  0  0  0  0  0  0  0  0
   -0.4298    3.5478    3.0387 H   0  0  0  0  0  0  0  0  0  0  0  0
    1.3334    3.7152    2.8958 H   0  0  0  0  0  0  0  0  0  0  0  0
    0.2966    4.0784    1.5017 H   0  0  0  0  0  0  0  0  0  0  0  0
  1  2  1  0  0  0  0
  2  3  1  0  0  0  0
  2  4  1  0  0  0  0
  2  5  1  0  0  0  0
  5  6  2  0  0  0  0
  5  7  1  0  0  0  0
  7  8  1  0  0  0  0
  7  9  1  0  0  0  0
  9 10  1  0  0  0  0
  9 11  1  0  0  0  0
  9 22  1  0  0  0  0
 11 12  1  0  0  0  0
 11 13  1  0  0  0  0
 11 14  1  0  0  0  0
 14 15  1  0  0  0  0
 14 16  1  0  0  0  0
 14 17  1  0  0  0  0
 17 18  1  0  0  0  0
 18 19  1  0  0  0  0
 18 20  1  0  0  0  0
 18 21  1  0  0  0  0
 22 23  2  0  0  0  0
 22 24  1  0  0  0  0
 24 25  1  0  0  0  0
 24 26  1  0  0  0  0
 26 27  1  0  0  0  0
 26 28  1  0  0  0  0
 26 29  1  0  0  0  0
M  END
$$$$

  -OEChem-02102214153D

 29 28  0     1  0  0  0  0  0999 V2000
   -2.1914   -3.6356    2.6764 H   0  0  0  0  0  0  0  0  0  0  0  0
   -2.4624   -2.6981    2.1835 C   0  0  0  0  0  0  0  0  0  0  0  0
   -3.0377   -2.0854    2.8818 H   0  0  0  0  0  0  0  0  0  0  0  0
   -3.0815   -2.9224    1.3114 H   0  0  0  0  0  0  0  0  0  0  0  0
   -1.2136   -1.9543    1.7508 C   0  0  0  0  0  0  0  0  0  0  0  0
   -0.1106   -2.4419    1.9458 O   0  0  0  0  0  0  0  0  0  0  0  0
   -1.3327   -0.7363    1.1196 N   0  0  0  0  0  0  0  0  0  0  0  0
   -2.2743   -0.3994    0.9186 H   0  0  0  0  0  0  0  0  0  0  0  0
   -0.2222    0.0503    0.5746 C   0  0  1  0  0  0  0  0  0  0  0  0
    0.7099   -0.2898    1.0370 H   0  0  0  0  0  0  0  0  0  0  0  0
   -0.0507   -0.0857   -0.9664 C   0  0  0  0  0  0  0  0  0  0  0  0
    0.1672    0.9112   -1.3649 H   0  0  0  0  0  0  0  0  0  0  0  0
    0.8464   -0.6886   -1.1399 H   0  0  0  0  0  0  0  0  0  0  0  0
   -1.1692   -0.6841   -1.8597 C   0  0  0  0  0  0  0  0  0  0  0  0
   -1.0546   -0.2818   -2.8712 H   0  0  0  0  0  0  0  0  0  0  0  0
   -0.9943   -1.7632   -1.9187 H   0  0  0  0  0  0  0  0  0  0  0  0
   -2.9234   -0.4590   -1.3314 S   0  0  0  0  0  0  0  0  0  0  0  0
   -3.8244   -1.3043   -2.6887 C   0  0  0  0  0  0  0  0  0  0  0  0
   -3.5186   -2.3527   -2.7531 H   0  0  0  0  0  0  0  0  0  0  0  0
   -4.9023   -1.2640   -2.5050 H   0  0  0  0  0  0  0  0  0  0  0  0
   -3.6144   -0.8155   -3.6447 H   0  0  0  0  0  0  0  0  0  0  0  0
   -0.3759    1.5351    0.9726 C   0  0  0  0  0  0  0  0  0  0  0  0
   -1.4619    2.0964    0.8928 O   0  0  0  0  0  0  0  0  0  0  0  0
    0.7154    2.2458    1.4400 N   0  0  0  0  0  0  0  0  0  0  0  0
    1.5838    1.7360    1.5744 H   0  0  0  0  0  0  0  0  0  0  0  0
    0.6325    3.6286    1.8951 C   0  0  0  0  0  0  0  0  0  0  0  0
   -0.0241    3.7055    2.7681 H   0  0  0  0  0  0  0  0  0  0  0  0
    1.6248    3.9960    2.1741 H   0  0  0  0  0  0  0  0  0  0  0  0
    0.2388    4.2713    1.1006 H   0  0  0  0  0  0  0  0  0  0  0  0
  1  2  1  0  0  0  0
  2  3  1  0  0  0  0
  2  4  1  0  0  0  0
  2  5  1  0  0  0  0
  5  6  2  0  0  0  0
  5  7  1  0  0  0  0
  7  8  1  0  0  0  0
  7  9  1  0  0  0  0
  9 10  1  0  0  0  0
  9 11  1  0  0  0  0
  9 22  1  0  0  0  0
 11 12  1  0  0  0  0
 11 13  1  0  0  0  0
 11 14  1  0  0  0  0
 14 15  1  0  0  0  0
 14 16  1  0  0  0  0
 14 17  1  0  0  0  0
 17 18  1  0  0  0  0
 18 19  1  0  0  0  0
 18 20  1  0  0  0  0
 18 21  1  0  0  0  0
 22 23  2  0  0  0  0
 22 24  1  0  0  0  0
 24 25  1  0  0  0  0
 24 26  1  0  0  0  0
 26 27  1  0  0  0  0
 26 28  1  0  0  0  0
 26 29  1  0  0  0  0
M  END
$$$$

  -OEChem-02102214153D

 29 28  0     1  0  0  0  0  0999 V2000
   -2.8099   -3.6494    2.0972 H   0  0  0  0  0  0  0  0  0  0  0  0
   -2.9095   -2.6073    1.7811 C   0  0  0  0  0  0  0  0  0  0  0  0
   -3.3248   -2.0258    2.6077 H   0  0  0  0  0  0  0  0  0  0  0  0
   -3.5949   -2.5598    0.9314 H   0  0  0  0  0  0  0  0  0  0  0  0
   -1.5562   -2.0481    1.3857 C   0  0  0  0  0  0  0  0  0  0  0  0
   -0.5597   -2.7517    1.4457 O   0  0  0  0  0  0  0  0  0  0  0  0
   -1.4599   -0.7484    0.9415 N   0  0  0  0  0  0  0  0  0  0  0  0
   -2.3200   -0.2043    0.8703 H   0  0  0  0  0  0  0  0  0  0  0  0
   -0.2252   -0.0849    0.5053 C   0  0  1  0  0  0  0  0  0  0  0  0
    0.6306   -0.6404    0.9021 H   0  0  0  0  0  0  0  0  0  0  0  0
   -0.0723   -0.0454   -1.0397 C   0  0  0  0  0  0  0  0  0  0  0  0
    0.3019    0.9439   -1.3238 H   0  0  0  0  0  0  0  0  0  0  0  0
    0.7034   -0.7668   -1.3153 H   0  0  0  0  0  0  0  0  0  0  0  0
   -1.3053   -0.3424   -1.9216 C   0  0  0  0  0  0  0  0  0  0  0  0
   -1.0743   -0.0655   -2.9550 H   0  0  0  0  0  0  0  0  0  0  0  0
   -1.4859   -1.4220   -1.9027 H   0  0  0  0  0  0  0  0  0  0  0  0
   -2.8644    0.4985   -1.4094 S   0  0  0  0  0  0  0  0  0  0  0  0
   -4.0241   -0.0688   -2.7135 C   0  0  0  0  0  0  0  0  0  0  0  0
   -4.1039   -1.1598   -2.7031 H   0  0  0  0  0  0  0  0  0  0  0  0
   -3.6713    0.2501   -3.6987 H   0  0  0  0  0  0  0  0  0  0  0  0
   -5.0171    0.3574   -2.5427 H   0  0  0  0  0  0  0  0  0  0  0  0
   -0.1246    1.3318    1.1128 C   0  0  0  0  0  0  0  0  0  0  0  0
   -1.1074    2.0602    1.1750 O   0  0  0  0  0  0  0  0  0  0  0  0
    1.0678    1.7689    1.6614 N   0  0  0  0  0  0  0  0  0  0  0  0
    1.8447    1.1146    1.6782 H   0  0  0  0  0  0  0  0  0  0  0  0
    1.2140    3.0558    2.3309 C   0  0  0  0  0  0  0  0  0  0  0  0
    0.5686    3.1031    3.2144 H   0  0  0  0  0  0  0  0  0  0  0  0
    2.2504    3.2008    2.6503 H   0  0  0  0  0  0  0  0  0  0  0  0
    0.9445    3.8735    1.6539 H   0  0  0  0  0  0  0  0  0  0  0  0
  1  2  1  0  0  0  0
  2  3  1  0  0  0  0
  2  4  1  0  0  0  0
  2  5  1  0  0  0  0
  5  6  2  0  0  0  0
  5  7  1  0  0  0  0
  7  8  1  0  0  0  0
  7  9  1  0  0  0  0
  9 10  1  0  0  0  0
  9 11  1  0  0  0  0
  9 22  1  0  0  0  0
 11 12  1  0  0  0  0
 11 13  1  0  0  0  0
 11 14  1  0  0  0  0
 14 15  1  0  0  0  0
 14 16  1  0  0  0  0
 14 17  1  0  0  0  0
 17 18  1  0  0  0  0
 18 19  1  0  0  0  0
 18 20  1  0  0  0  0
 18 21  1  0  0  0  0
 22 23  2  0  0  0  0
 22 24  1  0  0  0  0
 24 25  1  0  0  0  0
 24 26  1  0  0  0  0
 26 27  1  0  0  0  0
 26 28  1  0  0  0  0
 26 29  1  0  0  0  0
M  END
$$$$

  -OEChem-02102214153D

 29 28  0     1  0  0  0  0  0999 V2000
   -2.5156   -4.2219    1.8041 H   0  0  0  0  0  0  0  0  0  0  0  0
   -2.7735   -3.2101    1.4794 C   0  0  0  0  0  0  0  0  0  0  0  0
   -3.3547   -2.7241    2.2668 H   0  0  0  0  0  0  0  0  0  0  0  0
   -3.3823   -3.2743    0.5741 H   0  0  0  0  0  0  0  0  0  0  0  0
   -1.5138   -2.4129    1.2002 C   0  0  0  0  0  0  0  0  0  0  0  0
   -0.4158   -2.9218    1.3634 O   0  0  0  0  0  0  0  0  0  0  0  0
   -1.6135   -1.1165    0.7455 N   0  0  0  0  0  0  0  0  0  0  0  0
   -2.5477   -0.7350    0.5968 H   0  0  0  0  0  0  0  0  0  0  0  0
   -0.4812   -0.2368    0.4225 C   0  0  1  0  0  0  0  0  0  0  0  0
    0.4169   -0.6283    0.9112 H   0  0  0  0  0  0  0  0  0  0  0  0
   -0.1909   -0.1868   -1.1010 C   0  0  0  0  0  0  0  0  0  0  0  0
    0.0455    0.8407   -1.3949 H   0  0  0  0  0  0  0  0  0  0  0  0
    0.7092   -0.7819   -1.2848 H   0  0  0  0  0  0  0  0  0  0  0  0
   -1.2917   -0.7321   -2.0325 C   0  0  0  0  0  0  0  0  0  0  0  0
   -0.9459   -0.6573   -3.0681 H   0  0  0  0  0  0  0  0  0  0  0  0
   -1.4497   -1.7947   -1.8219 H   0  0  0  0  0  0  0  0  0  0  0  0
   -2.9019    0.1510   -1.8868 S   0  0  0  0  0  0  0  0  0  0  0  0
   -2.4993    1.8694   -2.3962 C   0  0  0  0  0  0  0  0  0  0  0  0
   -1.8009    2.3267   -1.6902 H   0  0  0  0  0  0  0  0  0  0  0  0
   -2.0492    1.8748   -3.3929 H   0  0  0  0  0  0  0  0  0  0  0  0
   -3.4105    2.4742   -2.4191 H   0  0  0  0  0  0  0  0  0  0  0  0
   -0.6886    1.1777    1.0071 C   0  0  0  0  0  0  0  0  0  0  0  0
   -1.7825    1.7262    0.9574 O   0  0  0  0  0  0  0  0  0  0  0  0
    0.3506    1.8181    1.6582 N   0  0  0  0  0  0  0  0  0  0  0  0
    1.2166    1.3008    1.7789 H   0  0  0  0  0  0  0  0  0  0  0  0
    0.1985    3.1016    2.3335 C   0  0  0  0  0  0  0  0  0  0  0  0
   -0.5254    3.0205    3.1513 H   0  0  0  0  0  0  0  0  0  0  0  0
    1.1571    3.4262    2.7497 H   0  0  0  0  0  0  0  0  0  0  0  0
   -0.1485    3.8665    1.6308 H   0  0  0  0  0  0  0  0  0  0  0  0
  1  2  1  0  0  0  0
  2  3  1  0  0  0  0
  2  4  1  0  0  0  0
  2  5  1  0  0  0  0
  5  6  2  0  0  0  0
  5  7  1  0  0  0  0
  7  8  1  0  0  0  0
  7  9  1  0  0  0  0
  9 10  1  0  0  0  0
  9 11  1  0  0  0  0
  9 22  1  0  0  0  0
 11 12  1  0  0  0  0
 11 13  1  0  0  0  0
 11 14  1  0  0  0  0
 14 15  1  0  0  0  0
 14 16  1  0  0  0  0
 14 17  1  0  0  0  0
 17 18  1  0  0  0  0
 18 19  1  0  0  0  0
 18 20  1  0  0  0  0
 18 21  1  0  0  0  0
 22 23  2  0  0  0  0
 22 24  1  0  0  0  0
 24 25  1  0  0  0  0
 24 26  1  0  0  0  0
 26 27  1  0  0  0  0
 26 28  1  0  0  0  0
 26 29  1  0  0  0  0
M  END
$$$$

  -OEChem-02102214153D

 29 28  0     1  0  0  0  0  0999 V2000
   -3.0757   -3.4300    1.9748 H   0  0  0  0  0  0  0  0  0  0  0  0
   -3.1279   -2.3832    1.6624 C   0  0  0  0  0  0  0  0  0  0  0  0
   -3.5535   -1.7927    2.4773 H   0  0  0  0  0  0  0  0  0  0  0  0
   -3.7795   -2.3086    0.7885 H   0  0  0  0  0  0  0  0  0  0  0  0
   -1.7423   -1.8687    1.3214 C   0  0  0  0  0  0  0  0  0  0  0  0
   -0.7664   -2.5848    1.4807 O   0  0  0  0  0  0  0  0  0  0  0  0
   -1.5891   -0.5953    0.8182 N   0  0  0  0  0  0  0  0  0  0  0  0
   -2.4194   -0.0067    0.7512 H   0  0  0  0  0  0  0  0  0  0  0  0
   -0.3000    0.0588    0.5482 C   0  0  1  0  0  0  0  0  0  0  0  0
    0.4800   -0.4557    1.1187 H   0  0  0  0  0  0  0  0  0  0  0  0
    0.1140    0.0087   -0.9455 C   0  0  0  0  0  0  0  0  0  0  0  0
    0.5553    0.9656   -1.2446 H   0  0  0  0  0  0  0  0  0  0  0  0
    0.9001   -0.7475   -1.0363 H   0  0  0  0  0  0  0  0  0  0  0  0
   -0.9892   -0.3669   -1.9479 C   0  0  0  0  0  0  0  0  0  0  0  0
   -0.5221   -0.6045   -2.9087 H   0  0  0  0  0  0  0  0  0  0  0  0
   -1.5308   -1.2607   -1.6244 H   0  0  0  0  0  0  0  0  0  0  0  0
   -2.1448    1.0379   -2.1993 S   0  0  0  0  0  0  0  0  0  0  0  0
   -3.2947    0.3466   -3.4512 C   0  0  0  0  0  0  0  0  0  0  0  0
   -3.7903   -0.5462   -3.0590 H   0  0  0  0  0  0  0  0  0  0  0  0
   -4.0582    1.0872   -3.7072 H   0  0  0  0  0  0  0  0  0  0  0  0
   -2.7489    0.0777   -4.3604 H   0  0  0  0  0  0  0  0  0  0  0  0
   -0.3177    1.5095    1.0788 C   0  0  0  0  0  0  0  0  0  0  0  0
   -1.3385    2.1839    1.0102 O   0  0  0  0  0  0  0  0  0  0  0  0
    0.7613    2.0042    1.7896 N   0  0  0  0  0  0  0  0  0  0  0  0
    1.5635    1.3937    1.9144 H   0  0  0  0  0  0  0  0  0  0  0  0
    0.7686    3.3186    2.4208 C   0  0  0  0  0  0  0  0  0  0  0  0
    0.0041    3.3720    3.2029 H   0  0  0  0  0  0  0  0  0  0  0  0
    1.7444    3.5145    2.8755 H   0  0  0  0  0  0  0  0  0  0  0  0
    0.5702    4.1011    1.6807 H   0  0  0  0  0  0  0  0  0  0  0  0
  1  2  1  0  0  0  0
  2  3  1  0  0  0  0
  2  4  1  0  0  0  0
  2  5  1  0  0  0  0
  5  6  2  0  0  0  0
  5  7  1  0  0  0  0
  7  8  1  0  0  0  0
  7  9  1  0  0  0  0
  9 10  1  0  0  0  0
  9 11  1  0  0  0  0
  9 22  1  0  0  0  0
 11 12  1  0  0  0  0
 11 13  1  0  0  0  0
 11 14  1  0  0  0  0
 14 15  1  0  0  0  0
 14 16  1  0  0  0  0
 14 17  1  0  0  0  0
 17 18  1  0  0  0  0
 18 19  1  0  0  0  0
 18 20  1  0  0  0  0
 18 21  1  0  0  0  0
 22 23  2  0  0  0  0
 22 24  1  0  0  0  0
 24 25  1  0  0  0  0
 24 26  1  0  0  0  0
 26 27  1  0  0  0  0
 26 28  1  0  0  0  0
 26 29  1  0  0  0  0
M  END
$$$$

  -OEChem-02102214153D

 29 28  0     1  0  0  0  0  0999 V2000
   -3.3789   -3.3213    1.5177 H   0  0  0  0  0  0  0  0  0  0  0  0
   -3.3437   -2.3271    1.0632 C   0  0  0  0  0  0  0  0  0  0  0  0
   -3.8958   -1.6301    1.6986 H   0  0  0  0  0  0  0  0  0  0  0  0
   -3.8207   -2.3709    0.0812 H   0  0  0  0  0  0  0  0  0  0  0  0
   -1.9049   -1.8692    0.9193 C   0  0  0  0  0  0  0  0  0  0  0  0
   -0.9910   -2.6029    1.2599 O   0  0  0  0  0  0  0  0  0  0  0  0
   -1.6335   -0.6222    0.3992 N   0  0  0  0  0  0  0  0  0  0  0  0
   -2.4242   -0.0002    0.2385 H   0  0  0  0  0  0  0  0  0  0  0  0
   -0.2996   -0.0036    0.3654 C   0  0  1  0  0  0  0  0  0  0  0  0
    0.3381   -0.5003    1.1045 H   0  0  0  0  0  0  0  0  0  0  0  0
    0.4150   -0.1120   -1.0067 C   0  0  0  0  0  0  0  0  0  0  0  0
    0.9526    0.8163   -1.2282 H   0  0  0  0  0  0  0  0  0  0  0  0
    1.1726   -0.8948   -0.8984 H   0  0  0  0  0  0  0  0  0  0  0  0
   -0.4427   -0.5015   -2.2243 C   0  0  0  0  0  0  0  0  0  0  0  0
    0.2088   -0.9963   -2.9516 H   0  0  0  0  0  0  0  0  0  0  0  0
   -1.2298   -1.2172   -1.9732 H   0  0  0  0  0  0  0  0  0  0  0  0
   -1.1334    0.9954   -3.0384 S   0  0  0  0  0  0  0  0  0  0  0  0
   -2.8821    1.0149   -2.4808 C   0  0  0  0  0  0  0  0  0  0  0  0
   -2.9372    1.1647   -1.4001 H   0  0  0  0  0  0  0  0  0  0  0  0
   -3.4196    1.8325   -2.9700 H   0  0  0  0  0  0  0  0  0  0  0  0
   -3.3726    0.0709   -2.7348 H   0  0  0  0  0  0  0  0  0  0  0  0
   -0.4024    1.4681    0.8205 C   0  0  0  0  0  0  0  0  0  0  0  0
   -1.3896    2.1349    0.5301 O   0  0  0  0  0  0  0  0  0  0  0  0
    0.5163    1.9867    1.7147 N   0  0  0  0  0  0  0  0  0  0  0  0
    1.2857    1.3883    2.0011 H   0  0  0  0  0  0  0  0  0  0  0  0
    0.4123    3.3243    2.2850 C   0  0  0  0  0  0  0  0  0  0  0  0
   -0.5035    3.4181    2.8780 H   0  0  0  0  0  0  0  0  0  0  0  0
    1.2681    3.5252    2.9364 H   0  0  0  0  0  0  0  0  0  0  0  0
    0.3978    4.0790    1.4916 H   0  0  0  0  0  0  0  0  0  0  0  0
  1  2  1  0  0  0  0
  2  3  1  0  0  0  0
  2  4  1  0  0  0  0
  2  5  1  0  0  0  0
  5  6  2  0  0  0  0
  5  7  1  0  0  0  0
  7  8  1  0  0  0  0
  7  9  1  0  0  0  0
  9 10  1  0  0  0  0
  9 11  1  0  0  0  0
  9 22  1  0  0  0  0
 11 12  1  0  0  0  0
 11 13  1  0  0  0  0
 11 14  1  0  0  0  0
 14 15  1  0  0  0  0
 14 16  1  0  0  0  0
 14 17  1  0  0  0  0
 17 18  1  0  0  0  0
 18 19  1  0  0  0  0
 18 20  1  0  0  0  0
 18 21  1  0  0  0  0
 22 23  2  0  0  0  0
 22 24  1  0  0  0  0
 24 25  1  0  0  0  0
 24 26  1  0  0  0  0
 26 27  1  0  0  0  0
 26 28  1  0  0  0  0
 26 29  1  0  0  0  0
M  END
$$$$

  -OEChem-02102214153D

 29 28  0     1  0  0  0  0  0999 V2000
   -3.2912   -3.5019    1.5102 H   0  0  0  0  0  0  0  0  0  0  0  0
   -3.3216   -2.4991    1.0749 C   0  0  0  0  0  0  0  0  0  0  0  0
   -3.8835   -1.8418    1.7429 H   0  0  0  0  0  0  0  0  0  0  0  0
   -3.8320   -2.5494    0.1100 H   0  0  0  0  0  0  0  0  0  0  0  0
   -1.9138   -1.9664    0.8883 C   0  0  0  0  0  0  0  0  0  0  0  0
   -0.9527   -2.6457    1.2120 O   0  0  0  0  0  0  0  0  0  0  0  0
   -1.7235   -0.7127    0.3470 N   0  0  0  0  0  0  0  0  0  0  0  0
   -2.5528   -0.1374    0.2050 H   0  0  0  0  0  0  0  0  0  0  0  0
   -0.4263   -0.0226    0.2719 C   0  0  1  0  0  0  0  0  0  0  0  0
    0.2296   -0.4672    1.0280 H   0  0  0  0  0  0  0  0  0  0  0  0
    0.3134   -0.1824   -1.0862 C   0  0  0  0  0  0  0  0  0  0  0  0
    0.7943    0.7631   -1.3583 H   0  0  0  0  0  0  0  0  0  0  0  0
    1.1205   -0.9016   -0.9134 H   0  0  0  0  0  0  0  0  0  0  0  0
   -0.4829   -0.7074   -2.3020 C   0  0  0  0  0  0  0  0  0  0  0  0
    0.1393   -1.4449   -2.8191 H   0  0  0  0  0  0  0  0  0  0  0  0
   -1.3942   -1.2298   -2.0053 H   0  0  0  0  0  0  0  0  0  0  0  0
   -0.8996    0.6061   -3.5242 S   0  0  0  0  0  0  0  0  0  0  0  0
   -1.9632    1.8012   -2.6294 C   0  0  0  0  0  0  0  0  0  0  0  0
   -1.3481    2.4587   -2.0104 H   0  0  0  0  0  0  0  0  0  0  0  0
   -2.5141    2.4200   -3.3432 H   0  0  0  0  0  0  0  0  0  0  0  0
   -2.6817    1.2764   -1.9936 H   0  0  0  0  0  0  0  0  0  0  0  0
   -0.5759    1.4506    0.7084 C   0  0  0  0  0  0  0  0  0  0  0  0
   -1.6186    2.0550    0.4837 O   0  0  0  0  0  0  0  0  0  0  0  0
    0.3479    2.0181    1.5671 N   0  0  0  0  0  0  0  0  0  0  0  0
    1.1508    1.4551    1.8334 H   0  0  0  0  0  0  0  0  0  0  0  0
    0.1763    3.3317    2.1765 C   0  0  0  0  0  0  0  0  0  0  0  0
   -0.7040    3.3398    2.8279 H   0  0  0  0  0  0  0  0  0  0  0  0
    1.0541    3.5873    2.7779 H   0  0  0  0  0  0  0  0  0  0  0  0
    0.0517    4.0998    1.4058 H   0  0  0  0  0  0  0  0  0  0  0  0
  1  2  1  0  0  0  0
  2  3  1  0  0  0  0
  2  4  1  0  0  0  0
  2  5  1  0  0  0  0
  5  6  2  0  0  0  0
  5  7  1  0  0  0  0
  7  8  1  0  0  0  0
  7  9  1  0  0  0  0
  9 10  1  0  0  0  0
  9 11  1  0  0  0  0
  9 22  1  0  0  0  0
 11 12  1  0  0  0  0
 11 13  1  0  0  0  0
 11 14  1  0  0  0  0
 14 15  1  0  0  0  0
 14 16  1  0  0  0  0
 14 17  1  0  0  0  0
 17 18  1  0  0  0  0
 18 19  1  0  0  0  0
 18 20  1  0  0  0  0
 18 21  1  0  0  0  0
 22 23  2  0  0  0  0
 22 24  1  0  0  0  0
 24 25  1  0  0  0  0
 24 26  1  0  0  0  0
 26 27  1  0  0  0  0
 26 28  1  0  0  0  0
 26 29  1  0  0  0  0
M  END
$$$$

  -OEChem-02102214153D

 29 28  0     1  0  0  0  0  0999 V2000
   -3.3194   -3.4989    1.5364 H   0  0  0  0  0  0  0  0  0  0  0  0
   -3.3332   -2.5222    1.0447 C   0  0  0  0  0  0  0  0  0  0  0  0
   -3.9362   -1.8352    1.6432 H   0  0  0  0  0  0  0  0  0  0  0  0
   -3.7890   -2.6311    0.0576 H   0  0  0  0  0  0  0  0  0  0  0  0
   -1.9206   -1.9872    0.9060 C   0  0  0  0  0  0  0  0  0  0  0  0
   -0.9726   -2.6522    1.2916 O   0  0  0  0  0  0  0  0  0  0  0  0
   -1.7102   -0.7494    0.3370 N   0  0  0  0  0  0  0  0  0  0  0  0
   -2.5324   -0.1805    0.1387 H   0  0  0  0  0  0  0  0  0  0  0  0
   -0.4069   -0.0693    0.2747 C   0  0  1  0  0  0  0  0  0  0  0  0
    0.2532   -0.5042    1.0328 H   0  0  0  0  0  0  0  0  0  0  0  0
    0.3195   -0.1995   -1.0928 C   0  0  0  0  0  0  0  0  0  0  0  0
    0.8064    0.7498   -1.3387 H   0  0  0  0  0  0  0  0  0  0  0  0
    1.1262   -0.9265   -0.9540 H   0  0  0  0  0  0  0  0  0  0  0  0
   -0.5031   -0.6814   -2.3098 C   0  0  0  0  0  0  0  0  0  0  0  0
   -0.0565   -1.6044   -2.6934 H   0  0  0  0  0  0  0  0  0  0  0  0
   -1.5382   -0.9135   -2.0537 H   0  0  0  0  0  0  0  0  0  0  0  0
   -0.5153    0.5720   -3.6579 S   0  0  0  0  0  0  0  0  0  0  0  0
   -1.4005    2.0016   -2.9191 C   0  0  0  0  0  0  0  0  0  0  0  0
   -0.7748    2.4902   -2.1675 H   0  0  0  0  0  0  0  0  0  0  0  0
   -1.6422    2.7341   -3.6946 H   0  0  0  0  0  0  0  0  0  0  0  0
   -2.3303    1.6728   -2.4454 H   0  0  0  0  0  0  0  0  0  0  0  0
   -0.5842    1.4108    0.6732 C   0  0  0  0  0  0  0  0  0  0  0  0
   -1.5863    2.0241    0.3216 O   0  0  0  0  0  0  0  0  0  0  0  0
    0.3041    2.0140    1.5444 N   0  0  0  0  0  0  0  0  0  0  0  0
    1.0864    1.4590    1.8799 H   0  0  0  0  0  0  0  0  0  0  0  0
    0.1359    3.3721    2.0476 C   0  0  0  0  0  0  0  0  0  0  0  0
   -0.8032    3.4618    2.6039 H   0  0  0  0  0  0  0  0  0  0  0  0
    0.9606    3.6322    2.7182 H   0  0  0  0  0  0  0  0  0  0  0  0
    0.1252    4.0885    1.2194 H   0  0  0  0  0  0  0  0  0  0  0  0
  1  2  1  0  0  0  0
  2  3  1  0  0  0  0
  2  4  1  0  0  0  0
  2  5  1  0  0  0  0
  5  6  2  0  0  0  0
  5  7  1  0  0  0  0
  7  8  1  0  0  0  0
  7  9  1  0  0  0  0
  9 10  1  0  0  0  0
  9 11  1  0  0  0  0
  9 22  1  0  0  0  0
 11 12  1  0  0  0  0
 11 13  1  0  0  0  0
 11 14  1  0  0  0  0
 14 15  1  0  0  0  0
 14 16  1  0  0  0  0
 14 17  1  0  0  0  0
 17 18  1  0  0  0  0
 18 19  1  0  0  0  0
 18 20  1  0  0  0  0
 18 21  1  0  0  0  0
 22 23  2  0  0  0  0
 22 24  1  0  0  0  0
 24 25  1  0  0  0  0
 24 26  1  0  0  0  0
 26 27  1  0  0  0  0
 26 28  1  0  0  0  0
 26 29  1  0  0  0  0
M  END
$$$$

  -OEChem-02102214153D

 29 28  0     1  0  0  0  0  0999 V2000
   -3.3669   -3.4644    1.5242 H   0  0  0  0  0  0  0  0  0  0  0  0
   -3.3503   -2.5019    1.0052 C   0  0  0  0  0  0  0  0  0  0  0  0
   -3.9694   -1.7923    1.5596 H   0  0  0  0  0  0  0  0  0  0  0  0
   -3.7667   -2.6346    0.0037 H   0  0  0  0  0  0  0  0  0  0  0  0
   -1.9275   -1.9851    0.9088 C   0  0  0  0  0  0  0  0  0  0  0  0
   -1.0033   -2.6486    1.3503 O   0  0  0  0  0  0  0  0  0  0  0  0
   -1.6815   -0.7615    0.3234 N   0  0  0  0  0  0  0  0  0  0  0  0
   -2.4886   -0.1911    0.0741 H   0  0  0  0  0  0  0  0  0  0  0  0
   -0.3663   -0.1013    0.2895 C   0  0  1  0  0  0  0  0  0  0  0  0
    0.2833   -0.5376    1.0555 H   0  0  0  0  0  0  0  0  0  0  0  0
    0.3601   -0.2180   -1.0767 C   0  0  0  0  0  0  0  0  0  0  0  0
    0.8501    0.7342   -1.3036 H   0  0  0  0  0  0  0  0  0  0  0  0
    1.1629   -0.9540   -0.9658 H   0  0  0  0  0  0  0  0  0  0  0  0
   -0.4913   -0.6591   -2.2856 C   0  0  0  0  0  0  0  0  0  0  0  0
   -0.2831   -1.7086   -2.5170 H   0  0  0  0  0  0  0  0  0  0  0  0
   -1.5619   -0.5702   -2.0894 H   0  0  0  0  0  0  0  0  0  0  0  0
   -0.1230    0.3957   -3.7463 S   0  0  0  0  0  0  0  0  0  0  0  0
   -0.9296    1.9827   -3.2855 C   0  0  0  0  0  0  0  0  0  0  0  0
   -0.4579    2.4123   -2.3972 H   0  0  0  0  0  0  0  0  0  0  0  0
   -0.8418    2.7002   -4.1067 H   0  0  0  0  0  0  0  0  0  0  0  0
   -1.9907    1.8218   -3.0730 H   0  0  0  0  0  0  0  0  0  0  0  0
   -0.5477    1.3864    0.6562 C   0  0  0  0  0  0  0  0  0  0  0  0
   -1.4968    2.0149    0.1995 O   0  0  0  0  0  0  0  0  0  0  0  0
    0.3111    2.0040    1.5461 N   0  0  0  0  0  0  0  0  0  0  0  0
    1.0611    1.4452    1.9438 H   0  0  0  0  0  0  0  0  0  0  0  0
    0.1590    3.3896    1.9732 C   0  0  0  0  0  0  0  0  0  0  0  0
   -0.8131    3.5379    2.4555 H   0  0  0  0  0  0  0  0  0  0  0  0
    0.9437    3.6531    2.6889 H   0  0  0  0  0  0  0  0  0  0  0  0
    0.2335    4.0656    1.1149 H   0  0  0  0  0  0  0  0  0  0  0  0
  1  2  1  0  0  0  0
  2  3  1  0  0  0  0
  2  4  1  0  0  0  0
  2  5  1  0  0  0  0
  5  6  2  0  0  0  0
  5  7  1  0  0  0  0
  7  8  1  0  0  0  0
  7  9  1  0  0  0  0
  9 10  1  0  0  0  0
  9 11  1  0  0  0  0
  9 22  1  0  0  0  0
 11 12  1  0  0  0  0
 11 13  1  0  0  0  0
 11 14  1  0  0  0  0
 14 15  1  0  0  0  0
 14 16  1  0  0  0  0
 14 17  1  0  0  0  0
 17 18  1  0  0  0  0
 18 19  1  0  0  0  0
 18 20  1  0  0  0  0
 18 21  1  0  0  0  0
 22 23  2  0  0  0  0
 22 24  1  0  0  0  0
 24 25  1  0  0  0  0
 24 26  1  0  0  0  0
 26 27  1  0  0  0  0
 26 28  1  0  0  0  0
 26 29  1  0  0  0  0
M  END
$$$$

  -OEChem-02102214153D

 29 28  0     1  0  0  0  0  0999 V2000
   -3.3988   -3.4428    1.4881 H   0  0  0  0  0  0  0  0  0  0  0  0
   -3.3635   -2.4882    0.9555 C   0  0  0  0  0  0  0  0  0  0  0  0
   -3.9968   -1.7688    1.4805 H   0  0  0  0  0  0  0  0  0  0  0  0
   -3.7508   -2.6346   -0.0557 H   0  0  0  0  0  0  0  0  0  0  0  0
   -1.9368   -1.9763    0.8944 C   0  0  0  0  0  0  0  0  0  0  0  0
   -1.0265   -2.6432    1.3590 O   0  0  0  0  0  0  0  0  0  0  0  0
   -1.6714   -0.7545    0.3133 N   0  0  0  0  0  0  0  0  0  0  0  0
   -2.4695   -0.1825    0.0406 H   0  0  0  0  0  0  0  0  0  0  0  0
   -0.3515   -0.1014    0.3069 C   0  0  1  0  0  0  0  0  0  0  0  0
    0.2841   -0.5441    1.0809 H   0  0  0  0  0  0  0  0  0  0  0  0
    0.3857   -0.2249   -1.0506 C   0  0  0  0  0  0  0  0  0  0  0  0
    0.8675    0.7304   -1.2818 H   0  0  0  0  0  0  0  0  0  0  0  0
    1.1896   -0.9598   -0.9431 H   0  0  0  0  0  0  0  0  0  0  0  0
   -0.4832   -0.6598   -2.2435 C   0  0  0  0  0  0  0  0  0  0  0  0
   -0.5093   -1.7526   -2.3034 H   0  0  0  0  0  0  0  0  0  0  0  0
   -1.5108   -0.3019   -2.1336 H   0  0  0  0  0  0  0  0  0  0  0  0
    0.1799    0.0560   -3.8003 S   0  0  0  0  0  0  0  0  0  0  0  0
   -0.4287    1.7881   -3.6961 C   0  0  0  0  0  0  0  0  0  0  0  0
   -0.0345    2.2845   -2.8046 H   0  0  0  0  0  0  0  0  0  0  0  0
   -0.1097    2.3509   -4.5782 H   0  0  0  0  0  0  0  0  0  0  0  0
   -1.5216    1.8027   -3.6479 H   0  0  0  0  0  0  0  0  0  0  0  0
   -0.5231    1.3885    0.6674 C   0  0  0  0  0  0  0  0  0  0  0  0
   -1.4417    2.0315    0.1707 O   0  0  0  0  0  0  0  0  0  0  0  0
    0.3244    1.9988    1.5733 N   0  0  0  0  0  0  0  0  0  0  0  0
    1.0544    1.4309    1.9945 H   0  0  0  0  0  0  0  0  0  0  0  0
    0.2001    3.3964    1.9684 C   0  0  0  0  0  0  0  0  0  0  0  0
   -0.7777    3.5802    2.4259 H   0  0  0  0  0  0  0  0  0  0  0  0
    0.9758    3.6549    2.6958 H   0  0  0  0  0  0  0  0  0  0  0  0
    0.3109    4.0514    1.0977 H   0  0  0  0  0  0  0  0  0  0  0  0
  1  2  1  0  0  0  0
  2  3  1  0  0  0  0
  2  4  1  0  0  0  0
  2  5  1  0  0  0  0
  5  6  2  0  0  0  0
  5  7  1  0  0  0  0
  7  8  1  0  0  0  0
  7  9  1  0  0  0  0
  9 10  1  0  0  0  0
  9 11  1  0  0  0  0
  9 22  1  0  0  0  0
 11 12  1  0  0  0  0
 11 13  1  0  0  0  0
 11 14  1  0  0  0  0
 14 15  1  0  0  0  0
 14 16  1  0  0  0  0
 14 17  1  0  0  0  0
 17 18  1  0  0  0  0
 18 19  1  0  0  0  0
 18 20  1  0  0  0  0
 18 21  1  0  0  0  0
 22 23  2  0  0  0  0
 22 24  1  0  0  0  0
 24 25  1  0  0  0  0
 24 26  1  0  0  0  0
 26 27  1  0  0  0  0
 26 28  1  0  0  0  0
 26 29  1  0  0  0  0
M  END
$$$$

  -OEChem-02102214153D

 29 28  0     1  0  0  0  0  0999 V2000
   -3.4155   -3.4296    1.4667 H   0  0  0  0  0  0  0  0  0  0  0  0
   -3.3733   -2.4731    0.9383 C   0  0  0  0  0  0  0  0  0  0  0  0
   -4.0087   -1.7540    1.4611 H   0  0  0  0  0  0  0  0  0  0  0  0
   -3.7525   -2.6144   -0.0767 H   0  0  0  0  0  0  0  0  0  0  0  0
   -1.9445   -1.9656    0.8907 C   0  0  0  0  0  0  0  0  0  0  0  0
   -1.0416   -2.6333    1.3682 O   0  0  0  0  0  0  0  0  0  0  0  0
   -1.6688   -0.7462    0.3092 N   0  0  0  0  0  0  0  0  0  0  0  0
   -2.4618   -0.1719    0.0268 H   0  0  0  0  0  0  0  0  0  0  0  0
   -0.3456   -0.0989    0.3125 C   0  0  1  0  0  0  0  0  0  0  0  0
    0.2840   -0.5438    1.0903 H   0  0  0  0  0  0  0  0  0  0  0  0
    0.3936   -0.2323   -1.0420 C   0  0  0  0  0  0  0  0  0  0  0  0
    0.8797    0.7179   -1.2844 H   0  0  0  0  0  0  0  0  0  0  0  0
    1.1891   -0.9760   -0.9320 H   0  0  0  0  0  0  0  0  0  0  0  0
   -0.4901   -0.6667   -2.2197 C   0  0  0  0  0  0  0  0  0  0  0  0
   -0.7311   -1.7310   -2.1279 H   0  0  0  0  0  0  0  0  0  0  0  0
   -1.4282   -0.1027   -2.2222 H   0  0  0  0  0  0  0  0  0  0  0  0
    0.3804   -0.3587   -3.8082 S   0  0  0  0  0  0  0  0  0  0  0  0
    0.1241    1.4466   -4.0394 C   0  0  0  0  0  0  0  0  0  0  0  0
    0.5825    2.0090   -3.2212 H   0  0  0  0  0  0  0  0  0  0  0  0
    0.5762    1.7708   -4.9813 H   0  0  0  0  0  0  0  0  0  0  0  0
   -0.9450    1.6776   -4.0671 H   0  0  0  0  0  0  0  0  0  0  0  0
   -0.5115    1.3924    0.6683 C   0  0  0  0  0  0  0  0  0  0  0  0
   -1.4259    2.0379    0.1674 O   0  0  0  0  0  0  0  0  0  0  0  0
    0.3318    2.0001    1.5798 N   0  0  0  0  0  0  0  0  0  0  0  0
    1.0549    1.4289    2.0084 H   0  0  0  0  0  0  0  0  0  0  0  0
    0.2023    3.3952    1.9825 C   0  0  0  0  0  0  0  0  0  0  0  0
   -0.7767    3.5731    2.4397 H   0  0  0  0  0  0  0  0  0  0  0  0
    0.9761    3.6519    2.7124 H   0  0  0  0  0  0  0  0  0  0  0  0
    0.3121    4.0558    1.1161 H   0  0  0  0  0  0  0  0  0  0  0  0
  1  2  1  0  0  0  0
  2  3  1  0  0  0  0
  2  4  1  0  0  0  0
  2  5  1  0  0  0  0
  5  6  2  0  0  0  0
  5  7  1  0  0  0  0
  7  8  1  0  0  0  0
  7  9  1  0  0  0  0
  9 10  1  0  0  0  0
  9 11  1  0  0  0  0
  9 22  1  0  0  0  0
 11 12  1  0  0  0  0
 11 13  1  0  0  0  0
 11 14  1  0  0  0  0
 14 15  1  0  0  0  0
 14 16  1  0  0  0  0
 14 17  1  0  0  0  0
 17 18  1  0  0  0  0
 18 19  1  0  0  0  0
 18 20  1  0  0  0  0
 18 21  1  0  0  0  0
 22 23  2  0  0  0  0
 22 24  1  0  0  0  0
 24 25  1  0  0  0  0
 24 26  1  0  0  0  0
 26 27  1  0  0  0  0
 26 28  1  0  0  0  0
 26 29  1  0  0  0  0
M  END
$$$$

  -OEChem-02102214153D

 29 28  0     1  0  0  0  0  0999 V2000
   -3.4199   -3.4331    1.4471 H   0  0  0  0  0  0  0  0  0  0  0  0
   -3.3747   -2.4764    0.9192 C   0  0  0  0  0  0  0  0  0  0  0  0
   -4.0211   -1.7603    1.4324 H   0  0  0  0  0  0  0  0  0  0  0  0
   -3.7380   -2.6198   -0.1013 H   0  0  0  0  0  0  0  0  0  0  0  0
   -1.9483   -1.9609    0.8920 C   0  0  0  0  0  0  0  0  0  0  0  0
   -1.0499   -2.6171    1.3936 O   0  0  0  0  0  0  0  0  0  0  0  0
   -1.6722   -0.7435    0.3068 N   0  0  0  0  0  0  0  0  0  0  0  0
   -2.4639   -0.1792    0.0022 H   0  0  0  0  0  0  0  0  0  0  0  0
   -0.3506   -0.0958    0.3082 C   0  0  1  0  0  0  0  0  0  0  0  0
    0.2846   -0.5402    1.0815 H   0  0  0  0  0  0  0  0  0  0  0  0
    0.3729   -0.2317   -1.0506 C   0  0  0  0  0  0  0  0  0  0  0  0
    1.0771    0.5965   -1.1759 H   0  0  0  0  0  0  0  0  0  0  0  0
    0.9601   -1.1557   -1.0292 H   0  0  0  0  0  0  0  0  0  0  0  0
   -0.5626   -0.3065   -2.2659 C   0  0  0  0  0  0  0  0  0  0  0  0
   -1.2144   -1.1819   -2.1841 H   0  0  0  0  0  0  0  0  0  0  0  0
   -1.1951    0.5860   -2.3148 H   0  0  0  0  0  0  0  0  0  0  0  0
    0.4208   -0.4638   -3.8102 S   0  0  0  0  0  0  0  0  0  0  0  0
    1.0206    1.2531   -4.0701 C   0  0  0  0  0  0  0  0  0  0  0  0
    1.6779    1.5585   -3.2515 H   0  0  0  0  0  0  0  0  0  0  0  0
    1.5805    1.3152   -5.0078 H   0  0  0  0  0  0  0  0  0  0  0  0
    0.1757    1.9464   -4.1209 H   0  0  0  0  0  0  0  0  0  0  0  0
   -0.5097    1.3975    0.6583 C   0  0  0  0  0  0  0  0  0  0  0  0
   -1.4213    2.0467    0.1575 O   0  0  0  0  0  0  0  0  0  0  0  0
    0.3382    2.0031    1.5668 N   0  0  0  0  0  0  0  0  0  0  0  0
    1.0516    1.4261    2.0038 H   0  0  0  0  0  0  0  0  0  0  0  0
    0.2111    3.3976    1.9728 C   0  0  0  0  0  0  0  0  0  0  0  0
   -0.7646    3.5742    2.4376 H   0  0  0  0  0  0  0  0  0  0  0  0
    0.9904    3.6533    2.6972 H   0  0  0  0  0  0  0  0  0  0  0  0
    0.3142    4.0599    1.1067 H   0  0  0  0  0  0  0  0  0  0  0  0
  1  2  1  0  0  0  0
  2  3  1  0  0  0  0
  2  4  1  0  0  0  0
  2  5  1  0  0  0  0
  5  6  2  0  0  0  0
  5  7  1  0  0  0  0
  7  8  1  0  0  0  0
  7  9  1  0  0  0  0
  9 10  1  0  0  0  0
  9 11  1  0  0  0  0
  9 22  1  0  0  0  0
 11 12  1  0  0  0  0
 11 13  1  0  0  0  0
 11 14  1  0  0  0  0
 14 15  1  0  0  0  0
 14 16  1  0  0  0  0
 14 17  1  0  0  0  0
 17 18  1  0  0  0  0
 18 19  1  0  0  0  0
 18 20  1  0  0  0  0
 18 21  1  0  0  0  0
 22 23  2  0  0  0  0
 22 24  1  0  0  0  0
 24 25  1  0  0  0  0
 24 26  1  0  0  0  0
 26 27  1  0  0  0  0
 26 28  1  0  0  0  0
 26 29  1  0  0  0  0
M  END
$$$$

  -OEChem-02102214153D

 29 28  0     1  0  0  0  0  0999 V2000
   -3.3988   -3.4448    1.4777 H   0  0  0  0  0  0  0  0  0  0  0  0
   -3.3711   -2.4815    0.9608 C   0  0  0  0  0  0  0  0  0  0  0  0
   -4.0093   -1.7752    1.4970 H   0  0  0  0  0  0  0  0  0  0  0  0
   -3.7573   -2.6145   -0.0527 H   0  0  0  0  0  0  0  0  0  0  0  0
   -1.9485   -1.9581    0.9074 C   0  0  0  0  0  0  0  0  0  0  0  0
   -1.0377   -2.6109    1.3909 O   0  0  0  0  0  0  0  0  0  0  0  0
   -1.6888   -0.7378    0.3203 N   0  0  0  0  0  0  0  0  0  0  0  0
   -2.4877   -0.1753    0.0313 H   0  0  0  0  0  0  0  0  0  0  0  0
   -0.3682   -0.0896    0.2896 C   0  0  1  0  0  0  0  0  0  0  0  0
    0.2854   -0.5352    1.0467 H   0  0  0  0  0  0  0  0  0  0  0  0
    0.3294   -0.2126   -1.0863 C   0  0  0  0  0  0  0  0  0  0  0  0
    1.0426    0.6068   -1.2195 H   0  0  0  0  0  0  0  0  0  0  0  0
    0.9060   -1.1432   -1.0699 H   0  0  0  0  0  0  0  0  0  0  0  0
   -0.6112   -0.2817   -2.3012 C   0  0  0  0  0  0  0  0  0  0  0  0
   -1.4187   -0.9974   -2.1253 H   0  0  0  0  0  0  0  0  0  0  0  0
   -1.0632    0.6984   -2.4852 H   0  0  0  0  0  0  0  0  0  0  0  0
    0.3077   -0.8619   -3.7842 S   0  0  0  0  0  0  0  0  0  0  0  0
    1.3678    0.5818   -4.1920 C   0  0  0  0  0  0  0  0  0  0  0  0
    2.0824    0.7725   -3.3865 H   0  0  0  0  0  0  0  0  0  0  0  0
    1.9258    0.3882   -5.1130 H   0  0  0  0  0  0  0  0  0  0  0  0
    0.7523    1.4745   -4.3372 H   0  0  0  0  0  0  0  0  0  0  0  0
   -0.5234    1.4013    0.6510 C   0  0  0  0  0  0  0  0  0  0  0  0
   -1.4456    2.0513    0.1707 O   0  0  0  0  0  0  0  0  0  0  0  0
    0.3453    2.0057    1.5406 N   0  0  0  0  0  0  0  0  0  0  0  0
    1.0581    1.4238    1.9721 H   0  0  0  0  0  0  0  0  0  0  0  0
    0.2132    3.3931    1.9686 C   0  0  0  0  0  0  0  0  0  0  0  0
   -0.7494    3.5512    2.4661 H   0  0  0  0  0  0  0  0  0  0  0  0
    1.0116    3.6501    2.6712 H   0  0  0  0  0  0  0  0  0  0  0  0
    0.2801    4.0675    1.1084 H   0  0  0  0  0  0  0  0  0  0  0  0
  1  2  1  0  0  0  0
  2  3  1  0  0  0  0
  2  4  1  0  0  0  0
  2  5  1  0  0  0  0
  5  6  2  0  0  0  0
  5  7  1  0  0  0  0
  7  8  1  0  0  0  0
  7  9  1  0  0  0  0
  9 10  1  0  0  0  0
  9 11  1  0  0  0  0
  9 22  1  0  0  0  0
 11 12  1  0  0  0  0
 11 13  1  0  0  0  0
 11 14  1  0  0  0  0
 14 15  1  0  0  0  0
 14 16  1  0  0  0  0
 14 17  1  0  0  0  0
 17 18  1  0  0  0  0
 18 19  1  0  0  0  0
 18 20  1  0  0  0  0
 18 21  1  0  0  0  0
 22 23  2  0  0  0  0
 22 24  1  0  0  0  0
 24 25  1  0  0  0  0
 24 26  1  0  0  0  0
 26 27  1  0  0  0  0
 26 28  1  0  0  0  0
 26 29  1  0  0  0  0
M  END
$$$$

  -OEChem-02102214153D

 29 28  0     1  0  0  0  0  0999 V2000
   -3.3808   -3.4445    1.5141 H   0  0  0  0  0  0  0  0  0  0  0  0
   -3.3661   -2.4786    1.0015 C   0  0  0  0  0  0  0  0  0  0  0  0
   -3.9844   -1.7734    1.5621 H   0  0  0  0  0  0  0  0  0  0  0  0
   -3.7847   -2.6048    0.0000 H   0  0  0  0  0  0  0  0  0  0  0  0
   -1.9440   -1.9598    0.9057 C   0  0  0  0  0  0  0  0  0  0  0  0
   -1.0213   -2.6156    1.3621 O   0  0  0  0  0  0  0  0  0  0  0  0
   -1.7000   -0.7347    0.3221 N   0  0  0  0  0  0  0  0  0  0  0  0
   -2.5062   -0.1689    0.0611 H   0  0  0  0  0  0  0  0  0  0  0  0
   -0.3806   -0.0871    0.2619 C   0  0  1  0  0  0  0  0  0  0  0  0
    0.2920   -0.5382    0.9990 H   0  0  0  0  0  0  0  0  0  0  0  0
    0.2900   -0.1866   -1.1303 C   0  0  0  0  0  0  0  0  0  0  0  0
    1.0116    0.6258   -1.2641 H   0  0  0  0  0  0  0  0  0  0  0  0
    0.8592   -1.1223   -1.1251 H   0  0  0  0  0  0  0  0  0  0  0  0
   -0.6548   -0.2389   -2.3472 C   0  0  0  0  0  0  0  0  0  0  0  0
   -1.5957   -0.7371   -2.1053 H   0  0  0  0  0  0  0  0  0  0  0  0
   -0.8957    0.7780   -2.6739 H   0  0  0  0  0  0  0  0  0  0  0  0
    0.1116   -1.1969   -3.7171 S   0  0  0  0  0  0  0  0  0  0  0  0
    1.5592   -0.1599   -4.1672 C   0  0  0  0  0  0  0  0  0  0  0  0
    2.2682   -0.1114   -3.3359 H   0  0  0  0  0  0  0  0  0  0  0  0
    2.0697   -0.5867   -5.0356 H   0  0  0  0  0  0  0  0  0  0  0  0
    1.2351    0.8551   -4.4156 H   0  0  0  0  0  0  0  0  0  0  0  0
   -0.5332    1.3995    0.6411 C   0  0  0  0  0  0  0  0  0  0  0  0
   -1.4712    2.0494    0.1924 O   0  0  0  0  0  0  0  0  0  0  0  0
    0.3549    2.0002    1.5139 N   0  0  0  0  0  0  0  0  0  0  0  0
    1.0777    1.4168    1.9260 H   0  0  0  0  0  0  0  0  0  0  0  0
    0.2194    3.3798    1.9658 C   0  0  0  0  0  0  0  0  0  0  0  0
   -0.7284    3.5179    2.4972 H   0  0  0  0  0  0  0  0  0  0  0  0
    1.0377    3.6377    2.6450 H   0  0  0  0  0  0  0  0  0  0  0  0
    0.2495    4.0668    1.1134 H   0  0  0  0  0  0  0  0  0  0  0  0
  1  2  1  0  0  0  0
  2  3  1  0  0  0  0
  2  4  1  0  0  0  0
  2  5  1  0  0  0  0
  5  6  2  0  0  0  0
  5  7  1  0  0  0  0
  7  8  1  0  0  0  0
  7  9  1  0  0  0  0
  9 10  1  0  0  0  0
  9 11  1  0  0  0  0
  9 22  1  0  0  0  0
 11 12  1  0  0  0  0
 11 13  1  0  0  0  0
 11 14  1  0  0  0  0
 14 15  1  0  0  0  0
 14 16  1  0  0  0  0
 14 17  1  0  0  0  0
 17 18  1  0  0  0  0
 18 19  1  0  0  0  0
 18 20  1  0  0  0  0
 18 21  1  0  0  0  0
 22 23  2  0  0  0  0
 22 24  1  0  0  0  0
 24 25  1  0  0  0  0
 24 26  1  0  0  0  0
 26 27  1  0  0  0  0
 26 28  1  0  0  0  0
 26 29  1  0  0  0  0
M  END
$$$$

  -OEChem-02102214153D

 29 28  0     1  0  0  0  0  0999 V2000
   -3.3966   -3.4375    1.5022 H   0  0  0  0  0  0  0  0  0  0  0  0
   -3.3741   -2.4771    0.9799 C   0  0  0  0  0  0  0  0  0  0  0  0
   -4.0056   -1.7676    1.5198 H   0  0  0  0  0  0  0  0  0  0  0  0
   -3.7713   -2.6150   -0.0286 H   0  0  0  0  0  0  0  0  0  0  0  0
   -1.9520   -1.9548    0.9078 C   0  0  0  0  0  0  0  0  0  0  0  0
   -1.0352   -2.6074    1.3807 O   0  0  0  0  0  0  0  0  0  0  0  0
   -1.7030   -0.7286    0.3288 N   0  0  0  0  0  0  0  0  0  0  0  0
   -2.5065   -0.1672    0.0513 H   0  0  0  0  0  0  0  0  0  0  0  0
   -0.3823   -0.0835    0.2738 C   0  0  1  0  0  0  0  0  0  0  0  0
    0.2869   -0.5383    1.0118 H   0  0  0  0  0  0  0  0  0  0  0  0
    0.2921   -0.1819   -1.1171 C   0  0  0  0  0  0  0  0  0  0  0  0
    1.0170    0.6287   -1.2458 H   0  0  0  0  0  0  0  0  0  0  0  0
    0.8630   -1.1163   -1.1045 H   0  0  0  0  0  0  0  0  0  0  0  0
   -0.6421   -0.2298   -2.3461 C   0  0  0  0  0  0  0  0  0  0  0  0
   -1.6749   -0.4489   -2.0697 H   0  0  0  0  0  0  0  0  0  0  0  0
   -0.6469    0.7490   -2.8364 H   0  0  0  0  0  0  0  0  0  0  0  0
   -0.1029   -1.5267   -3.5339 S   0  0  0  0  0  0  0  0  0  0  0  0
    1.5307   -0.8964   -4.0898 C   0  0  0  0  0  0  0  0  0  0  0  0
    2.2293   -0.8509   -3.2495 H   0  0  0  0  0  0  0  0  0  0  0  0
    1.9474   -1.5593   -4.8539 H   0  0  0  0  0  0  0  0  0  0  0  0
    1.4250    0.1058   -4.5160 H   0  0  0  0  0  0  0  0  0  0  0  0
   -0.5310    1.4025    0.6567 C   0  0  0  0  0  0  0  0  0  0  0  0
   -1.4617    2.0590    0.2023 O   0  0  0  0  0  0  0  0  0  0  0  0
    0.3579    1.9966    1.5332 N   0  0  0  0  0  0  0  0  0  0  0  0
    1.0766    1.4082    1.9456 H   0  0  0  0  0  0  0  0  0  0  0  0
    0.2380    3.3801    1.9768 C   0  0  0  0  0  0  0  0  0  0  0  0
   -0.7111    3.5334    2.5013 H   0  0  0  0  0  0  0  0  0  0  0  0
    1.0555    3.6307    2.6597 H   0  0  0  0  0  0  0  0  0  0  0  0
    0.2821    4.0622    1.1210 H   0  0  0  0  0  0  0  0  0  0  0  0
  1  2  1  0  0  0  0
  2  3  1  0  0  0  0
  2  4  1  0  0  0  0
  2  5  1  0  0  0  0
  5  6  2  0  0  0  0
  5  7  1  0  0  0  0
  7  8  1  0  0  0  0
  7  9  1  0  0  0  0
  9 10  1  0  0  0  0
  9 11  1  0  0  0  0
  9 22  1  0  0  0  0
 11 12  1  0  0  0  0
 11 13  1  0  0  0  0
 11 14  1  0  0  0  0
 14 15  1  0  0  0  0
 14 16  1  0  0  0  0
 14 17  1  0  0  0  0
 17 18  1  0  0  0  0
 18 19  1  0  0  0  0
 18 20  1  0  0  0  0
 18 21  1  0  0  0  0
 22 23  2  0  0  0  0
 22 24  1  0  0  0  0
 24 25  1  0  0  0  0
 24 26  1  0  0  0  0
 26 27  1  0  0  0  0
 26 28  1  0  0  0  0
 26 29  1  0  0  0  0
M  END
$$$$

  -OEChem-02102214153D

 29 28  0     1  0  0  0  0  0999 V2000
   -3.4123   -3.4411    1.4451 H   0  0  0  0  0  0  0  0  0  0  0  0
   -3.3738   -2.4867    0.9126 C   0  0  0  0  0  0  0  0  0  0  0  0
   -4.0497   -1.7821    1.4028 H   0  0  0  0  0  0  0  0  0  0  0  0
   -3.7051   -2.6445   -0.1167 H   0  0  0  0  0  0  0  0  0  0  0  0
   -1.9588   -1.9400    0.9200 C   0  0  0  0  0  0  0  0  0  0  0  0
   -1.0604   -2.5751    1.4494 O   0  0  0  0  0  0  0  0  0  0  0  0
   -1.6946   -0.7169    0.3408 N   0  0  0  0  0  0  0  0  0  0  0  0
   -2.4870   -0.1729    0.0046 H   0  0  0  0  0  0  0  0  0  0  0  0
   -0.3715   -0.0738    0.3140 C   0  0  1  0  0  0  0  0  0  0  0  0
    0.2819   -0.5274    1.0664 H   0  0  0  0  0  0  0  0  0  0  0  0
    0.3212   -0.1911   -1.0658 C   0  0  0  0  0  0  0  0  0  0  0  0
    1.0346    0.6300   -1.1924 H   0  0  0  0  0  0  0  0  0  0  0  0
    0.9077   -1.1149   -1.0416 H   0  0  0  0  0  0  0  0  0  0  0  0
   -0.6072   -0.2467   -2.2996 C   0  0  0  0  0  0  0  0  0  0  0  0
   -1.6600   -0.1467   -2.0276 H   0  0  0  0  0  0  0  0  0  0  0  0
   -0.3778    0.6009   -2.9530 H   0  0  0  0  0  0  0  0  0  0  0  0
   -0.3763   -1.8068   -3.2464 S   0  0  0  0  0  0  0  0  0  0  0  0
    1.3118   -1.5993   -3.9411 C   0  0  0  0  0  0  0  0  0  0  0  0
    2.0506   -1.5240   -3.1383 H   0  0  0  0  0  0  0  0  0  0  0  0
    1.5656   -2.4587   -4.5686 H   0  0  0  0  0  0  0  0  0  0  0  0
    1.3610   -0.6931   -4.5520 H   0  0  0  0  0  0  0  0  0  0  0  0
   -0.5181    1.4157    0.6846 C   0  0  0  0  0  0  0  0  0  0  0  0
   -1.4238    2.0797    0.1922 O   0  0  0  0  0  0  0  0  0  0  0  0
    0.3542    2.0106    1.5773 N   0  0  0  0  0  0  0  0  0  0  0  0
    1.0567    1.4203    2.0142 H   0  0  0  0  0  0  0  0  0  0  0  0
    0.2460    3.4046    1.9910 C   0  0  0  0  0  0  0  0  0  0  0  0
   -0.7185    3.5867    2.4764 H   0  0  0  0  0  0  0  0  0  0  0  0
    1.0422    3.6521    2.6996 H   0  0  0  0  0  0  0  0  0  0  0  0
    0.3360    4.0692    1.1252 H   0  0  0  0  0  0  0  0  0  0  0  0
  1  2  1  0  0  0  0
  2  3  1  0  0  0  0
  2  4  1  0  0  0  0
  2  5  1  0  0  0  0
  5  6  2  0  0  0  0
  5  7  1  0  0  0  0
  7  8  1  0  0  0  0
  7  9  1  0  0  0  0
  9 10  1  0  0  0  0
  9 11  1  0  0  0  0
  9 22  1  0  0  0  0
 11 12  1  0  0  0  0
 11 13  1  0  0  0  0
 11 14  1  0  0  0  0
 14 15  1  0  0  0  0
 14 16  1  0  0  0  0
 14 17  1  0  0  0  0
 17 18  1  0  0  0  0
 18 19  1  0  0  0  0
 18 20  1  0  0  0  0
 18 21  1  0  0  0  0
 22 23  2  0  0  0  0
 22 24  1  0  0  0  0
 24 25  1  0  0  0  0
 24 26  1  0  0  0  0
 26 27  1  0  0  0  0
 26 28  1  0  0  0  0
 26 29  1  0  0  0  0
M  END
$$$$

  -OEChem-02102214153D

 29 28  0     1  0  0  0  0  0999 V2000
   -3.3908   -3.4568    1.3536 H   0  0  0  0  0  0  0  0  0  0  0  0
   -3.3449   -2.4946    0.8361 C   0  0  0  0  0  0  0  0  0  0  0  0
   -4.0649   -1.8124    1.2943 H   0  0  0  0  0  0  0  0  0  0  0  0
   -3.6114   -2.6460   -0.2129 H   0  0  0  0  0  0  0  0  0  0  0  0
   -1.9461   -1.9164    0.9328 C   0  0  0  0  0  0  0  0  0  0  0  0
   -1.0719   -2.5231    1.5321 O   0  0  0  0  0  0  0  0  0  0  0  0
   -1.6685   -0.6986    0.3495 N   0  0  0  0  0  0  0  0  0  0  0  0
   -2.4416   -0.1903   -0.0745 H   0  0  0  0  0  0  0  0  0  0  0  0
   -0.3465   -0.0532    0.3502 C   0  0  1  0  0  0  0  0  0  0  0  0
    0.2936   -0.4999    1.1181 H   0  0  0  0  0  0  0  0  0  0  0  0
    0.3602   -0.1957   -1.0195 C   0  0  0  0  0  0  0  0  0  0  0  0
    1.0537    0.6411   -1.1539 H   0  0  0  0  0  0  0  0  0  0  0  0
    0.9664   -1.1057   -0.9892 H   0  0  0  0  0  0  0  0  0  0  0  0
   -0.5782   -0.2664   -2.2425 C   0  0  0  0  0  0  0  0  0  0  0  0
   -1.5719    0.1264   -2.0090 H   0  0  0  0  0  0  0  0  0  0  0  0
   -0.1724    0.3740   -3.0317 H   0  0  0  0  0  0  0  0  0  0  0  0
   -0.7078   -1.9768   -2.9084 S   0  0  0  0  0  0  0  0  0  0  0  0
    0.9376   -2.2409   -3.6814 C   0  0  0  0  0  0  0  0  0  0  0  0
    1.7266   -2.2115   -2.9249 H   0  0  0  0  0  0  0  0  0  0  0  0
    0.9653   -3.2169   -4.1750 H   0  0  0  0  0  0  0  0  0  0  0  0
    1.1346   -1.4659   -4.4280 H   0  0  0  0  0  0  0  0  0  0  0  0
   -0.5014    1.4401    0.7026 C   0  0  0  0  0  0  0  0  0  0  0  0
   -1.3826    2.1050    0.1687 O   0  0  0  0  0  0  0  0  0  0  0  0
    0.3489    2.0424    1.6113 N   0  0  0  0  0  0  0  0  0  0  0  0
    1.0217    1.4500    2.0900 H   0  0  0  0  0  0  0  0  0  0  0  0
    0.2302    3.4400    2.0090 C   0  0  0  0  0  0  0  0  0  0  0  0
   -0.7448    3.6257    2.4716 H   0  0  0  0  0  0  0  0  0  0  0  0
    1.0107    3.6958    2.7319 H   0  0  0  0  0  0  0  0  0  0  0  0
    0.3379    4.0962    1.1389 H   0  0  0  0  0  0  0  0  0  0  0  0
  1  2  1  0  0  0  0
  2  3  1  0  0  0  0
  2  4  1  0  0  0  0
  2  5  1  0  0  0  0
  5  6  2  0  0  0  0
  5  7  1  0  0  0  0
  7  8  1  0  0  0  0
  7  9  1  0  0  0  0
  9 10  1  0  0  0  0
  9 11  1  0  0  0  0
  9 22  1  0  0  0  0
 11 12  1  0  0  0  0
 11 13  1  0  0  0  0
 11 14  1  0  0  0  0
 14 15  1  0  0  0  0
 14 16  1  0  0  0  0
 14 17  1  0  0  0  0
 17 18  1  0  0  0  0
 18 19  1  0  0  0  0
 18 20  1  0  0  0  0
 18 21  1  0  0  0  0
 22 23  2  0  0  0  0
 22 24  1  0  0  0  0
 24 25  1  0  0  0  0
 24 26  1  0  0  0  0
 26 27  1  0  0  0  0
 26 28  1  0  0  0  0
 26 29  1  0  0  0  0
M  END
$$$$

  -OEChem-02102214153D

 29 28  0     1  0  0  0  0  0999 V2000
   -3.3472   -3.4863    1.2952 H   0  0  0  0  0  0  0  0  0  0  0  0
   -3.3090   -2.5162    0.7921 C   0  0  0  0  0  0  0  0  0  0  0  0
   -4.0592   -1.8578    1.2364 H   0  0  0  0  0  0  0  0  0  0  0  0
   -3.5393   -2.6597   -0.2666 H   0  0  0  0  0  0  0  0  0  0  0  0
   -1.9290   -1.9041    0.9395 C   0  0  0  0  0  0  0  0  0  0  0  0
   -1.0644   -2.4874    1.5757 O   0  0  0  0  0  0  0  0  0  0  0  0
   -1.6571   -0.6849    0.3559 N   0  0  0  0  0  0  0  0  0  0  0  0
   -2.4140   -0.2218   -0.1419 H   0  0  0  0  0  0  0  0  0  0  0  0
   -0.3393   -0.0319    0.3575 C   0  0  1  0  0  0  0  0  0  0  0  0
    0.3027   -0.4754    1.1254 H   0  0  0  0  0  0  0  0  0  0  0  0
    0.3667   -0.1788   -1.0124 C   0  0  0  0  0  0  0  0  0  0  0  0
    1.0458    0.6685   -1.1544 H   0  0  0  0  0  0  0  0  0  0  0  0
    0.9862   -1.0791   -0.9851 H   0  0  0  0  0  0  0  0  0  0  0  0
   -0.5792   -0.2610   -2.2266 C   0  0  0  0  0  0  0  0  0  0  0  0
   -1.4687    0.3550   -2.0592 H   0  0  0  0  0  0  0  0  0  0  0  0
   -0.0670    0.1536   -3.1004 H   0  0  0  0  0  0  0  0  0  0  0  0
   -1.0678   -1.9926   -2.6251 S   0  0  0  0  0  0  0  0  0  0  0  0
    0.4784   -2.7408   -3.2776 C   0  0  0  0  0  0  0  0  0  0  0  0
    1.2424   -2.7914   -2.4971 H   0  0  0  0  0  0  0  0  0  0  0  0
    0.2793   -3.7563   -3.6323 H   0  0  0  0  0  0  0  0  0  0  0  0
    0.8636   -2.1479   -4.1122 H   0  0  0  0  0  0  0  0  0  0  0  0
   -0.4962    1.4618    0.7083 C   0  0  0  0  0  0  0  0  0  0  0  0
   -1.3662    2.1315    0.1625 O   0  0  0  0  0  0  0  0  0  0  0  0
    0.3548    2.0634    1.6171 N   0  0  0  0  0  0  0  0  0  0  0  0
    1.0172    1.4669    2.1051 H   0  0  0  0  0  0  0  0  0  0  0  0
    0.2359    3.4601    2.0177 C   0  0  0  0  0  0  0  0  0  0  0  0
   -0.7464    3.6487    2.4636 H   0  0  0  0  0  0  0  0  0  0  0  0
    1.0044    3.7086    2.7559 H   0  0  0  0  0  0  0  0  0  0  0  0
    0.3627    4.1190    1.1522 H   0  0  0  0  0  0  0  0  0  0  0  0
  1  2  1  0  0  0  0
  2  3  1  0  0  0  0
  2  4  1  0  0  0  0
  2  5  1  0  0  0  0
  5  6  2  0  0  0  0
  5  7  1  0  0  0  0
  7  8  1  0  0  0  0
  7  9  1  0  0  0  0
  9 10  1  0  0  0  0
  9 11  1  0  0  0  0
  9 22  1  0  0  0  0
 11 12  1  0  0  0  0
 11 13  1  0  0  0  0
 11 14  1  0  0  0  0
 14 15  1  0  0  0  0
 14 16  1  0  0  0  0
 14 17  1  0  0  0  0
 17 18  1  0  0  0  0
 18 19  1  0  0  0  0
 18 20  1  0  0  0  0
 18 21  1  0  0  0  0
 22 23  2  0  0  0  0
 22 24  1  0  0  0  0
 24 25  1  0  0  0  0
 24 26  1  0  0  0  0
 26 27  1  0  0  0  0
 26 28  1  0  0  0  0
 26 29  1  0  0  0  0
M  END
$$$$

  -OEChem-02102214153D

 29 28  0     1  0  0  0  0  0999 V2000
   -3.2454   -3.5333    1.2447 H   0  0  0  0  0  0  0  0  0  0  0  0
   -3.2306   -2.5690    0.7295 C   0  0  0  0  0  0  0  0  0  0  0  0
   -3.9629   -1.9074    1.1984 H   0  0  0  0  0  0  0  0  0  0  0  0
   -3.5062   -2.7235   -0.3167 H   0  0  0  0  0  0  0  0  0  0  0  0
   -1.8470   -1.9531    0.8114 C   0  0  0  0  0  0  0  0  0  0  0  0
   -0.9340   -2.5660    1.3443 O   0  0  0  0  0  0  0  0  0  0  0  0
   -1.6215   -0.7034    0.2751 N   0  0  0  0  0  0  0  0  0  0  0  0
   -2.4063   -0.2336   -0.1717 H   0  0  0  0  0  0  0  0  0  0  0  0
   -0.3186   -0.0261    0.2487 C   0  0  1  0  0  0  0  0  0  0  0  0
    0.3593   -0.4897    0.9727 H   0  0  0  0  0  0  0  0  0  0  0  0
    0.3512   -0.0889   -1.1475 C   0  0  0  0  0  0  0  0  0  0  0  0
    1.0047    0.7827   -1.2615 H   0  0  0  0  0  0  0  0  0  0  0  0
    1.0012   -0.9663   -1.1779 H   0  0  0  0  0  0  0  0  0  0  0  0
   -0.6011   -0.1370   -2.3613 C   0  0  0  0  0  0  0  0  0  0  0  0
   -1.3582    0.6479   -2.2603 H   0  0  0  0  0  0  0  0  0  0  0  0
   -0.0155    0.0937   -3.2566 H   0  0  0  0  0  0  0  0  0  0  0  0
   -1.4413   -1.7571   -2.6552 S   0  0  0  0  0  0  0  0  0  0  0  0
   -0.1391   -3.0398   -2.4655 C   0  0  0  0  0  0  0  0  0  0  0  0
    0.1779   -3.1111   -1.4207 H   0  0  0  0  0  0  0  0  0  0  0  0
   -0.5283   -4.0145   -2.7738 H   0  0  0  0  0  0  0  0  0  0  0  0
    0.7286   -2.7976   -3.0859 H   0  0  0  0  0  0  0  0  0  0  0  0
   -0.4917    1.4458    0.6773 C   0  0  0  0  0  0  0  0  0  0  0  0
   -1.4013    2.1196    0.2065 O   0  0  0  0  0  0  0  0  0  0  0  0
    0.3866    2.0236    1.5758 N   0  0  0  0  0  0  0  0  0  0  0  0
    1.0805    1.4195    2.0071 H   0  0  0  0  0  0  0  0  0  0  0  0
    0.2498    3.3934    2.0562 C   0  0  0  0  0  0  0  0  0  0  0  0
   -0.6897    3.5146    2.6058 H   0  0  0  0  0  0  0  0  0  0  0  0
    1.0780    3.6442    2.7260 H   0  0  0  0  0  0  0  0  0  0  0  0
    0.2606    4.0972    1.2172 H   0  0  0  0  0  0  0  0  0  0  0  0
  1  2  1  0  0  0  0
  2  3  1  0  0  0  0
  2  4  1  0  0  0  0
  2  5  1  0  0  0  0
  5  6  2  0  0  0  0
  5  7  1  0  0  0  0
  7  8  1  0  0  0  0
  7  9  1  0  0  0  0
  9 10  1  0  0  0  0
  9 11  1  0  0  0  0
  9 22  1  0  0  0  0
 11 12  1  0  0  0  0
 11 13  1  0  0  0  0
 11 14  1  0  0  0  0
 14 15  1  0  0  0  0
 14 16  1  0  0  0  0
 14 17  1  0  0  0  0
 17 18  1  0  0  0  0
 18 19  1  0  0  0  0
 18 20  1  0  0  0  0
 18 21  1  0  0  0  0
 22 23  2  0  0  0  0
 22 24  1  0  0  0  0
 24 25  1  0  0  0  0
 24 26  1  0  0  0  0
 26 27  1  0  0  0  0
 26 28  1  0  0  0  0
 26 29  1  0  0  0  0
M  END
$$$$

  -OEChem-02102214153D

 29 28  0     1  0  0  0  0  0999 V2000
   -3.3296   -3.5044    1.3901 H   0  0  0  0  0  0  0  0  0  0  0  0
   -3.3047   -2.5438    0.8683 C   0  0  0  0  0  0  0  0  0  0  0  0
   -4.0264   -1.8697    1.3357 H   0  0  0  0  0  0  0  0  0  0  0  0
   -3.5876   -2.7020   -0.1753 H   0  0  0  0  0  0  0  0  0  0  0  0
   -1.9133   -1.9442    0.9414 C   0  0  0  0  0  0  0  0  0  0  0  0
   -1.0143   -2.5503    1.5048 O   0  0  0  0  0  0  0  0  0  0  0  0
   -1.6650   -0.7174    0.3640 N   0  0  0  0  0  0  0  0  0  0  0  0
   -2.4299   -0.2726   -0.1402 H   0  0  0  0  0  0  0  0  0  0  0  0
   -0.3537   -0.0609    0.3170 C   0  0  1  0  0  0  0  0  0  0  0  0
    0.3113   -0.5080    1.0629 H   0  0  0  0  0  0  0  0  0  0  0  0
    0.3491   -0.1447   -1.0654 C   0  0  0  0  0  0  0  0  0  0  0  0
    1.0380    0.7011   -1.1638 H   0  0  0  0  0  0  0  0  0  0  0  0
    0.9667   -1.0472   -1.0563 H   0  0  0  0  0  0  0  0  0  0  0  0
   -0.5212   -0.2043   -2.3422 C   0  0  0  0  0  0  0  0  0  0  0  0
   -1.1069    0.7193   -2.3995 H   0  0  0  0  0  0  0  0  0  0  0  0
    0.1466   -0.2185   -3.2090 H   0  0  0  0  0  0  0  0  0  0  0  0
   -1.6865   -1.6276   -2.5029 S   0  0  0  0  0  0  0  0  0  0  0  0
   -0.6035   -3.0927   -2.2629 C   0  0  0  0  0  0  0  0  0  0  0  0
   -0.2101   -3.1160   -1.2424 H   0  0  0  0  0  0  0  0  0  0  0  0
   -1.1725   -4.0109   -2.4349 H   0  0  0  0  0  0  0  0  0  0  0  0
    0.2352   -3.0639   -2.9644 H   0  0  0  0  0  0  0  0  0  0  0  0
   -0.5175    1.4256    0.6964 C   0  0  0  0  0  0  0  0  0  0  0  0
   -1.4091    2.0964    0.1885 O   0  0  0  0  0  0  0  0  0  0  0  0
    0.3627    2.0248    1.5790 N   0  0  0  0  0  0  0  0  0  0  0  0
    1.0542    1.4315    2.0288 H   0  0  0  0  0  0  0  0  0  0  0  0
    0.2514    3.4179    1.9945 C   0  0  0  0  0  0  0  0  0  0  0  0
   -0.7123    3.5966    2.4831 H   0  0  0  0  0  0  0  0  0  0  0  0
    1.0487    3.6672    2.7012 H   0  0  0  0  0  0  0  0  0  0  0  0
    0.3366    4.0837    1.1292 H   0  0  0  0  0  0  0  0  0  0  0  0
  1  2  1  0  0  0  0
  2  3  1  0  0  0  0
  2  4  1  0  0  0  0
  2  5  1  0  0  0  0
  5  6  2  0  0  0  0
  5  7  1  0  0  0  0
  7  8  1  0  0  0  0
  7  9  1  0  0  0  0
  9 10  1  0  0  0  0
  9 11  1  0  0  0  0
  9 22  1  0  0  0  0
 11 12  1  0  0  0  0
 11 13  1  0  0  0  0
 11 14  1  0  0  0  0
 14 15  1  0  0  0  0
 14 16  1  0  0  0  0
 14 17  1  0  0  0  0
 17 18  1  0  0  0  0
 18 19  1  0  0  0  0
 18 20  1  0  0  0  0
 18 21  1  0  0  0  0
 22 23  2  0  0  0  0
 22 24  1  0  0  0  0
 24 25  1  0  0  0  0
 24 26  1  0  0  0  0
 26 27  1  0  0  0  0
 26 28  1  0  0  0  0
 26 29  1  0  0  0  0
M  END
$$$$

  -OEChem-02102214153D

 29 28  0     1  0  0  0  0  0999 V2000
   -3.3671   -3.4672    1.5489 H   0  0  0  0  0  0  0  0  0  0  0  0
   -3.3454   -2.5044    1.0311 C   0  0  0  0  0  0  0  0  0  0  0  0
   -4.0608   -1.8308    1.5086 H   0  0  0  0  0  0  0  0  0  0  0  0
   -3.6395   -2.6575   -0.0102 H   0  0  0  0  0  0  0  0  0  0  0  0
   -1.9519   -1.9079    1.0935 C   0  0  0  0  0  0  0  0  0  0  0  0
   -1.0589   -2.5007    1.6797 O   0  0  0  0  0  0  0  0  0  0  0  0
   -1.6926   -0.7055    0.4720 N   0  0  0  0  0  0  0  0  0  0  0  0
   -2.4480   -0.2839   -0.0664 H   0  0  0  0  0  0  0  0  0  0  0  0
   -0.3770   -0.0635    0.3960 C   0  0  1  0  0  0  0  0  0  0  0  0
    0.2827   -0.4874    1.1600 H   0  0  0  0  0  0  0  0  0  0  0  0
    0.3426   -0.1864   -0.9774 C   0  0  0  0  0  0  0  0  0  0  0  0
    1.0628    0.6330   -1.0767 H   0  0  0  0  0  0  0  0  0  0  0  0
    0.9287   -1.1091   -0.9216 H   0  0  0  0  0  0  0  0  0  0  0  0
   -0.4610   -0.2804   -2.3001 C   0  0  0  0  0  0  0  0  0  0  0  0
   -0.8354    0.7249   -2.5203 H   0  0  0  0  0  0  0  0  0  0  0  0
    0.2307   -0.5488   -3.1048 H   0  0  0  0  0  0  0  0  0  0  0  0
   -1.9123   -1.4155   -2.3857 S   0  0  0  0  0  0  0  0  0  0  0  0
   -1.1164   -3.0568   -2.1655 C   0  0  0  0  0  0  0  0  0  0  0  0
   -0.5848   -3.1013   -1.2104 H   0  0  0  0  0  0  0  0  0  0  0  0
   -1.8737   -3.8460   -2.1797 H   0  0  0  0  0  0  0  0  0  0  0  0
   -0.4026   -3.2423   -2.9732 H   0  0  0  0  0  0  0  0  0  0  0  0
   -0.5338    1.4364    0.7233 C   0  0  0  0  0  0  0  0  0  0  0  0
   -1.4227    2.0955    0.1959 O   0  0  0  0  0  0  0  0  0  0  0  0
    0.3522    2.0618    1.5816 N   0  0  0  0  0  0  0  0  0  0  0  0
    1.0385    1.4796    2.0531 H   0  0  0  0  0  0  0  0  0  0  0  0
    0.2424    3.4664    1.9565 C   0  0  0  0  0  0  0  0  0  0  0  0
   -0.7243    3.6622    2.4325 H   0  0  0  0  0  0  0  0  0  0  0  0
    1.0351    3.7330    2.6620 H   0  0  0  0  0  0  0  0  0  0  0  0
    0.3364    4.1071    1.0735 H   0  0  0  0  0  0  0  0  0  0  0  0
  1  2  1  0  0  0  0
  2  3  1  0  0  0  0
  2  4  1  0  0  0  0
  2  5  1  0  0  0  0
  5  6  2  0  0  0  0
  5  7  1  0  0  0  0
  7  8  1  0  0  0  0
  7  9  1  0  0  0  0
  9 10  1  0  0  0  0
  9 11  1  0  0  0  0
  9 22  1  0  0  0  0
 11 12  1  0  0  0  0
 11 13  1  0  0  0  0
 11 14  1  0  0  0  0
 14 15  1  0  0  0  0
 14 16  1  0  0  0  0
 14 17  1  0  0  0  0
 17 18  1  0  0  0  0
 18 19  1  0  0  0  0
 18 20  1  0  0  0  0
 18 21  1  0  0  0  0
 22 23  2  0  0  0  0
 22 24  1  0  0  0  0
 24 25  1  0  0  0  0
 24 26  1  0  0  0  0
 26 27  1  0  0  0  0
 26 28  1  0  0  0  0
 26 29  1  0  0  0  0
M  END
$$$$

  -OEChem-02102214153D

 29 28  0     1  0  0  0  0  0999 V2000
   -3.3765   -3.4389    1.6650 H   0  0  0  0  0  0  0  0  0  0  0  0
   -3.3736   -2.4445    1.2104 C   0  0  0  0  0  0  0  0  0  0  0  0
   -4.0519   -1.7968    1.7710 H   0  0  0  0  0  0  0  0  0  0  0  0
   -3.7295   -2.5270    0.1805 H   0  0  0  0  0  0  0  0  0  0  0  0
   -1.9721   -1.8645    1.2316 C   0  0  0  0  0  0  0  0  0  0  0  0
   -1.0759   -2.4531    1.8167 O   0  0  0  0  0  0  0  0  0  0  0  0
   -1.7103   -0.6821    0.5749 N   0  0  0  0  0  0  0  0  0  0  0  0
   -2.4679   -0.2683    0.0323 H   0  0  0  0  0  0  0  0  0  0  0  0
   -0.3950   -0.0443    0.4752 C   0  0  1  0  0  0  0  0  0  0  0  0
    0.2610   -0.4449    1.2548 H   0  0  0  0  0  0  0  0  0  0  0  0
    0.3346   -0.2110   -0.8889 C   0  0  0  0  0  0  0  0  0  0  0  0
    1.0726    0.5907   -0.9992 H   0  0  0  0  0  0  0  0  0  0  0  0
    0.9034   -1.1407   -0.7866 H   0  0  0  0  0  0  0  0  0  0  0  0
   -0.4225   -0.3535   -2.2382 C   0  0  0  0  0  0  0  0  0  0  0  0
   -0.5667    0.6637   -2.6173 H   0  0  0  0  0  0  0  0  0  0  0  0
    0.2300   -0.8681   -2.9504 H   0  0  0  0  0  0  0  0  0  0  0  0
   -2.0872   -1.1435   -2.2937 S   0  0  0  0  0  0  0  0  0  0  0  0
   -1.6319   -2.9173   -2.1469 C   0  0  0  0  0  0  0  0  0  0  0  0
   -1.0562   -3.0911   -1.2329 H   0  0  0  0  0  0  0  0  0  0  0  0
   -2.5336   -3.5361   -2.1164 H   0  0  0  0  0  0  0  0  0  0  0  0
   -1.0264   -3.2240   -3.0048 H   0  0  0  0  0  0  0  0  0  0  0  0
   -0.5453    1.4656    0.7578 C   0  0  0  0  0  0  0  0  0  0  0  0
   -1.4388    2.1115    0.2224 O   0  0  0  0  0  0  0  0  0  0  0  0
    0.3470    2.1130    1.5935 N   0  0  0  0  0  0  0  0  0  0  0  0
    1.0337    1.5427    2.0788 H   0  0  0  0  0  0  0  0  0  0  0  0
    0.2459    3.5294    1.9254 C   0  0  0  0  0  0  0  0  0  0  0  0
   -0.6985    3.7360    2.4398 H   0  0  0  0  0  0  0  0  0  0  0  0
    1.0701    3.8237    2.5822 H   0  0  0  0  0  0  0  0  0  0  0  0
    0.2935    4.1408    1.0181 H   0  0  0  0  0  0  0  0  0  0  0  0
  1  2  1  0  0  0  0
  2  3  1  0  0  0  0
  2  4  1  0  0  0  0
  2  5  1  0  0  0  0
  5  6  2  0  0  0  0
  5  7  1  0  0  0  0
  7  8  1  0  0  0  0
  7  9  1  0  0  0  0
  9 10  1  0  0  0  0
  9 11  1  0  0  0  0
  9 22  1  0  0  0  0
 11 12  1  0  0  0  0
 11 13  1  0  0  0  0
 11 14  1  0  0  0  0
 14 15  1  0  0  0  0
 14 16  1  0  0  0  0
 14 17  1  0  0  0  0
 17 18  1  0  0  0  0
 18 19  1  0  0  0  0
 18 20  1  0  0  0  0
 18 21  1  0  0  0  0
 22 23  2  0  0  0  0
 22 24  1  0  0  0  0
 24 25  1  0  0  0  0
 24 26  1  0  0  0  0
 26 27  1  0  0  0  0
 26 28  1  0  0  0  0
 26 29  1  0  0  0  0
M  END
$$$$

  -OEChem-02102214153D

 29 28  0     1  0  0  0  0  0999 V2000
   -3.6252   -3.2337    1.7034 H   0  0  0  0  0  0  0  0  0  0  0  0
   -3.5515   -2.2525    1.2264 C   0  0  0  0  0  0  0  0  0  0  0  0
   -4.2329   -1.5618    1.7289 H   0  0  0  0  0  0  0  0  0  0  0  0
   -3.8493   -2.3465    0.1796 H   0  0  0  0  0  0  0  0  0  0  0  0
   -2.1299   -1.7310    1.3190 C   0  0  0  0  0  0  0  0  0  0  0  0
   -1.3110   -2.3059    2.0193 O   0  0  0  0  0  0  0  0  0  0  0  0
   -1.7669   -0.6088    0.6081 N   0  0  0  0  0  0  0  0  0  0  0  0
   -2.4613   -0.2008   -0.0178 H   0  0  0  0  0  0  0  0  0  0  0  0
   -0.4336   -0.0028    0.5997 C   0  0  1  0  0  0  0  0  0  0  0  0
    0.1241   -0.3514    1.4750 H   0  0  0  0  0  0  0  0  0  0  0  0
    0.4312   -0.3006   -0.6582 C   0  0  0  0  0  0  0  0  0  0  0  0
    1.1984    0.4757   -0.7502 H   0  0  0  0  0  0  0  0  0  0  0  0
    0.9620   -1.2263   -0.4127 H   0  0  0  0  0  0  0  0  0  0  0  0
   -0.1662   -0.5503   -2.0731 C   0  0  0  0  0  0  0  0  0  0  0  0
    0.0109    0.3675   -2.6434 H   0  0  0  0  0  0  0  0  0  0  0  0
    0.4142   -1.3391   -2.5621 H   0  0  0  0  0  0  0  0  0  0  0  0
   -1.9590   -0.9208   -2.2930 S   0  0  0  0  0  0  0  0  0  0  0  0
   -1.9471   -2.7536   -2.1663 C   0  0  0  0  0  0  0  0  0  0  0  0
   -1.4966   -3.0684   -1.2203 H   0  0  0  0  0  0  0  0  0  0  0  0
   -1.3695   -3.1848   -2.9892 H   0  0  0  0  0  0  0  0  0  0  0  0
   -2.9688   -3.1416   -2.2164 H   0  0  0  0  0  0  0  0  0  0  0  0
   -0.5715    1.5275    0.7491 C   0  0  0  0  0  0  0  0  0  0  0  0
   -1.4047    2.1445    0.0957 O   0  0  0  0  0  0  0  0  0  0  0  0
    0.2474    2.2204    1.6225 N   0  0  0  0  0  0  0  0  0  0  0  0
    0.8714    1.6765    2.2115 H   0  0  0  0  0  0  0  0  0  0  0  0
    0.1336    3.6556    1.8535 C   0  0  0  0  0  0  0  0  0  0  0  0
   -0.8450    3.8983    2.2807 H   0  0  0  0  0  0  0  0  0  0  0  0
    0.9086    3.9896    2.5499 H   0  0  0  0  0  0  0  0  0  0  0  0
    0.2543    4.2063    0.9146 H   0  0  0  0  0  0  0  0  0  0  0  0
  1  2  1  0  0  0  0
  2  3  1  0  0  0  0
  2  4  1  0  0  0  0
  2  5  1  0  0  0  0
  5  6  2  0  0  0  0
  5  7  1  0  0  0  0
  7  8  1  0  0  0  0
  7  9  1  0  0  0  0
  9 10  1  0  0  0  0
  9 11  1  0  0  0  0
  9 22  1  0  0  0  0
 11 12  1  0  0  0  0
 11 13  1  0  0  0  0
 11 14  1  0  0  0  0
 14 15  1  0  0  0  0
 14 16  1  0  0  0  0
 14 17  1  0  0  0  0
 17 18  1  0  0  0  0
 18 19  1  0  0  0  0
 18 20  1  0  0  0  0
 18 21  1  0  0  0  0
 22 23  2  0  0  0  0
 22 24  1  0  0  0  0
 24 25  1  0  0  0  0
 24 26  1  0  0  0  0
 26 27  1  0  0  0  0
 26 28  1  0  0  0  0
 26 29  1  0  0  0  0
M  END
$$$$

  -OEChem-02102214153D

 29 28  0     1  0  0  0  0  0999 V2000
   -3.4596   -2.8059    2.0350 H   0  0  0  0  0  0  0  0  0  0  0  0
   -2.6568   -3.3324    1.5135 C   0  0  0  0  0  0  0  0  0  0  0  0
   -2.9817   -3.5594    0.4950 H   0  0  0  0  0  0  0  0  0  0  0  0
   -2.4505   -4.2704    2.0360 H   0  0  0  0  0  0  0  0  0  0  0  0
   -1.4108   -2.4688    1.4775 C   0  0  0  0  0  0  0  0  0  0  0  0
   -0.3832   -2.8513    2.0163 O   0  0  0  0  0  0  0  0  0  0  0  0
   -1.4436   -1.2548    0.8275 N   0  0  0  0  0  0  0  0  0  0  0  0
   -2.2981   -1.0182    0.3242 H   0  0  0  0  0  0  0  0  0  0  0  0
   -0.2860   -0.3830    0.6129 C   0  0  1  0  0  0  0  0  0  0  0  0
    0.5057   -0.6601    1.3162 H   0  0  0  0  0  0  0  0  0  0  0  0
    0.3126   -0.4720   -0.8185 C   0  0  0  0  0  0  0  0  0  0  0  0
    0.8524    0.4597   -1.0187 H   0  0  0  0  0  0  0  0  0  0  0  0
    1.0732   -1.2580   -0.7666 H   0  0  0  0  0  0  0  0  0  0  0  0
   -0.5383   -0.7983   -2.0821 C   0  0  0  0  0  0  0  0  0  0  0  0
   -0.3940    0.0140   -2.8013 H   0  0  0  0  0  0  0  0  0  0  0  0
   -0.1076   -1.6965   -2.5363 H   0  0  0  0  0  0  0  0  0  0  0  0
   -2.3541   -1.1017   -1.9424 S   0  0  0  0  0  0  0  0  0  0  0  0
   -3.0529    0.5110   -2.4770 C   0  0  0  0  0  0  0  0  0  0  0  0
   -2.8106    0.6991   -3.5269 H   0  0  0  0  0  0  0  0  0  0  0  0
   -2.6449    1.3259   -1.8727 H   0  0  0  0  0  0  0  0  0  0  0  0
   -4.1409    0.5051   -2.3640 H   0  0  0  0  0  0  0  0  0  0  0  0
   -0.6484    1.0823    0.9381 C   0  0  0  0  0  0  0  0  0  0  0  0
   -1.6898    1.5802    0.5272 O   0  0  0  0  0  0  0  0  0  0  0  0
    0.2154    1.8598    1.6886 N   0  0  0  0  0  0  0  0  0  0  0  0
    1.0301    1.4019    2.0873 H   0  0  0  0  0  0  0  0  0  0  0  0
   -0.0800    3.2336    2.0773 C   0  0  0  0  0  0  0  0  0  0  0  0
   -0.9931    3.2734    2.6807 H   0  0  0  0  0  0  0  0  0  0  0  0
    0.7438    3.6453    2.6684 H   0  0  0  0  0  0  0  0  0  0  0  0
   -0.2156    3.8619    1.1907 H   0  0  0  0  0  0  0  0  0  0  0  0
  1  2  1  0  0  0  0
  2  3  1  0  0  0  0
  2  4  1  0  0  0  0
  2  5  1  0  0  0  0
  5  6  2  0  0  0  0
  5  7  1  0  0  0  0
  7  8  1  0  0  0  0
  7  9  1  0  0  0  0
  9 10  1  0  0  0  0
  9 11  1  0  0  0  0
  9 22  1  0  0  0  0
 11 12  1  0  0  0  0
 11 13  1  0  0  0  0
 11 14  1  0  0  0  0
 14 15  1  0  0  0  0
 14 16  1  0  0  0  0
 14 17  1  0  0  0  0
 17 18  1  0  0  0  0
 18 19  1  0  0  0  0
 18 20  1  0  0  0  0
 18 21  1  0  0  0  0
 22 23  2  0  0  0  0
 22 24  1  0  0  0  0
 24 25  1  0  0  0  0
 24 26  1  0  0  0  0
 26 27  1  0  0  0  0
 26 28  1  0  0  0  0
 26 29  1  0  0  0  0
M  END
$$$$

  -OEChem-02102214153D

 29 28  0     1  0  0  0  0  0999 V2000
   -3.1928   -3.4477    1.3625 H   0  0  0  0  0  0  0  0  0  0  0  0
   -2.5785   -2.1667    1.0335 C   0  0  0  0  0  0  0  0  0  0  0  0
   -3.8367   -1.8274    1.2911 H   0  0  0  0  0  0  0  0  0  0  0  0
   -3.4447   -3.3310    0.3307 H   0  0  0  0  0  0  0  0  0  0  0  0
   -0.0631   -0.7659    0.9759 C   0  0  0  0  0  0  0  0  0  0  0  0
   -0.6377   -2.0788    1.4560 O   0  0  0  0  0  0  0  0  0  0  0  0
    0.3699    0.8929    1.2228 N   0  0  0  0  0  0  0  0  0  0  0  0
   -1.1862    0.3867    1.0897 H   0  0  0  0  0  0  0  0  0  0  0  0
    0.2733    0.5227    1.1677 C   0  0  1  0  0  0  0  0  0  0  0  0
    1.4854    0.3745    1.5532 H   0  0  0  0  0  0  0  0  0  0  0  0
    0.0868   -0.9841   -1.1159 C   0  0  0  0  0  0  0  0  0  0  0  0
    0.9107   -0.0407   -1.5896 H   0  0  0  0  0  0  0  0  0  0  0  0
    0.8912   -1.2146   -0.9868 H   0  0  0  0  0  0  0  0  0  0  0  0
   -0.4348   -0.6041   -2.5245 C   0  0  0  0  0  0  0  0  0  0  0  0
   -0.2856    0.3707   -3.2579 H   0  0  0  0  0  0  0  0  0  0  0  0
   -0.6019   -1.2647   -2.6245 H   0  0  0  0  0  0  0  0  0  0  0  0
   -2.0310    0.7953   -1.9001 S   0  0  0  0  0  0  0  0  0  0  0  0
   -4.4707   -2.2083   -1.4045 C   0  0  0  0  0  0  0  0  0  0  0  0
   -5.1663   -3.3844   -1.2708 H   0  0  0  0  0  0  0  0  0  0  0  0
   -4.0241   -1.0680   -0.4874 H   0  0  0  0  0  0  0  0  0  0  0  0
   -2.9911   -2.2381   -1.2095 H   0  0  0  0  0  0  0  0  0  0  0  0
   -0.6244    2.0931    0.8275 C   0  0  0  0  0  0  0  0  0  0  0  0
   -1.6986    2.6519    0.3095 O   0  0  0  0  0  0  0  0  0  0  0  0
   -0.8624    1.4606    0.1375 N   0  0  0  0  0  0  0  0  0  0  0  0
    0.5388    0.9427    2.5064 H   0  0  0  0  0  0  0  0  0  0  0  0
   -0.2439    3.2631    1.6619 C   0  0  0  0  0  0  0  0  0  0  0  0
   -0.8883    3.6492    2.4966 H   0  0  0  0  0  0  0  0  0  0  0  0
    0.8174    3.5357    2.7143 H   0  0  0  0  0  0  0  0  0  0  0  0
    0.3225    4.1092    1.2244 H   0  0  0  0  0  0  0  0  0  0  0  0
  1  2  1  0  0  0  0
  2  3  1  0  0  0  0
  2  4  1  0  0  0  0
  2  5  1  0  0  0  0
  5  6  2  0  0  0  0
  5  7  1  0  0  0  0
  7  8  1  0  0  0  0
  7  9  1  0  0  0  0
  9 10  1  0  0  0  0
  9 11  1  0  0  0  0
  9 22  1  0  0  0  0
 11 12  1  0  0  0  0
 11 13  1  0  0  0  0
 11 14  1  0  0  0  0
 14 15  1  0  0  0  0
 14 16  1  0  0  0  0
 14 17  1  0  0  0  0
 17 18  1  0  0  0  0
 18 19  1  0  0  0  0
 18 20  1  0  0  0  0
 18 21  1  0  0  0  0
 22 23  2  0  0  0  0
 22 24  1  0  0  0  0
 24 25  1  0  0  0  0
 24 26  1  0  0  0  0
 26 27  1  0  0  0  0
 26 28  1  0  0  0  0
 26 29  1  0  0  0  0
M  END
$$$$

  -OEChem-02102214153D

 29 28  0     1  0  0  0  0  0999 V2000
   -2.8311   -3.4231    1.2613 H   0  0  0  0  0  0  0  0  0  0  0  0
   -2.7683   -2.5243    0.5898 C   0  0  0  0  0  0  0  0  0  0  0  0
   -3.3199   -1.7165    1.1197 H   0  0  0  0  0  0  0  0  0  0  0  0
   -3.3233   -2.8593   -0.3609 H   0  0  0  0  0  0  0  0  0  0  0  0
   -1.4042   -2.1667    0.4486 C   0  0  0  0  0  0  0  0  0  0  0  0
   -0.6043   -2.8321    0.9114 O   0  0  0  0  0  0  0  0  0  0  0  0
   -0.6728   -1.1462    0.7503 N   0  0  0  0  0  0  0  0  0  0  0  0
    0.2908   -1.3261    0.4340 H   0  0  0  0  0  0  0  0  0  0  0  0
   -0.2227    0.0934    0.8863 C   0  0  1  0  0  0  0  0  0  0  0  0
    0.1417   -0.2572    1.9498 H   0  0  0  0  0  0  0  0  0  0  0  0
    0.1383    0.3179   -0.8389 C   0  0  0  0  0  0  0  0  0  0  0  0
    0.8767    1.0610   -1.1077 H   0  0  0  0  0  0  0  0  0  0  0  0
    0.9349   -0.2053   -1.4190 H   0  0  0  0  0  0  0  0  0  0  0  0
   -0.8036   -0.4585   -2.1616 C   0  0  0  0  0  0  0  0  0  0  0  0
   -0.3953   -0.1297   -3.0544 H   0  0  0  0  0  0  0  0  0  0  0  0
   -0.5946   -1.4507   -2.2919 H   0  0  0  0  0  0  0  0  0  0  0  0
   -2.7507   -0.6734   -1.8857 S   0  0  0  0  0  0  0  0  0  0  0  0
   -4.4136   -0.2224   -0.7494 C   0  0  0  0  0  0  0  0  0  0  0  0
   -5.4658   -0.2307   -0.9667 H   0  0  0  0  0  0  0  0  0  0  0  0
   -4.3983    0.1311    0.2553 H   0  0  0  0  0  0  0  0  0  0  0  0
   -4.7200   -1.1449   -0.9363 H   0  0  0  0  0  0  0  0  0  0  0  0
    0.2333    1.3494    1.0240 C   0  0  0  0  0  0  0  0  0  0  0  0
   -0.8673    1.5213    1.1324 O   0  0  0  0  0  0  0  0  0  0  0  0
    0.3497    2.5369    0.9886 N   0  0  0  0  0  0  0  0  0  0  0  0
    1.3222    2.1548    1.0737 H   0  0  0  0  0  0  0  0  0  0  0  0
    0.2523    3.6149    1.9038 C   0  0  0  0  0  0  0  0  0  0  0  0
   -0.7225    3.6493    2.3605 H   0  0  0  0  0  0  0  0  0  0  0  0
    1.0531    3.4778    2.6476 H   0  0  0  0  0  0  0  0  0  0  0  0
    0.4580    4.4483    1.1753 H   0  0  0  0  0  0  0  0  0  0  0  0
  1  2  1  0  0  0  0
  2  3  1  0  0  0  0
  2  4  1  0  0  0  0
  2  5  1  0  0  0  0
  5  6  2  0  0  0  0
  5  7  1  0  0  0  0
  7  8  1  0  0  0  0
  7  9  1  0  0  0  0
  9 10  1  0  0  0  0
  9 11  1  0  0  0  0
  9 22  1  0  0  0  0
 11 12  1  0  0  0  0
 11 13  1  0  0  0  0
 11 14  1  0  0  0  0
 14 15  1  0  0  0  0
 14 16  1  0  0  0  0
 14 17  1  0  0  0  0
 17 18  1  0  0  0  0
 18 19  1  0  0  0  0
 18 20  1  0  0  0  0
 18 21  1  0  0  0  0
 22 23  2  0  0  0  0
 22 24  1  0  0  0  0
 24 25  1  0  0  0  0
 24 26  1  0  0  0  0
 26 27  1  0  0  0  0
 26 28  1  0  0  0  0
 26 29  1  0  0  0  0
M  END
$$$$

  -OEChem-02102214153D

 29 28  0     1  0  0  0  0  0999 V2000
   -3.0874   -3.5194    2.0674 H   0  0  0  0  0  0  0  0  0  0  0  0
   -3.1366   -2.4883    1.7063 C   0  0  0  0  0  0  0  0  0  0  0  0
   -3.5523   -1.8576    2.4960 H   0  0  0  0  0  0  0  0  0  0  0  0
   -3.7943   -2.4498    0.8345 H   0  0  0  0  0  0  0  0  0  0  0  0
   -1.7511   -1.9992    1.3298 C   0  0  0  0  0  0  0  0  0  0  0  0
   -0.7914   -2.7495    1.4165 O   0  0  0  0  0  0  0  0  0  0  0  0
   -1.5829   -0.7100    0.8751 N   0  0  0  0  0  0  0  0  0  0  0  0
   -2.4048   -0.1076    0.8325 H   0  0  0  0  0  0  0  0  0  0  0  0
   -0.2975   -0.0886    0.5289 C   0  0  1  0  0  0  0  0  0  0  0  0
    0.4968   -0.6569    1.0232 H   0  0  0  0  0  0  0  0  0  0  0  0
   -0.0067   -0.1622   -0.9899 C   0  0  0  0  0  0  0  0  0  0  0  0
    0.6451    0.6764   -1.2565 H   0  0  0  0  0  0  0  0  0  0  0  0
    0.5584   -1.0805   -1.1795 H   0  0  0  0  0  0  0  0  0  0  0  0
   -1.2095   -0.1589   -1.9548 C   0  0  0  0  0  0  0  0  0  0  0  0
   -0.8452    0.0049   -2.9736 H   0  0  0  0  0  0  0  0  0  0  0  0
   -1.6753   -1.1491   -1.9283 H   0  0  0  0  0  0  0  0  0  0  0  0
   -2.5046    1.0893   -1.5721 S   0  0  0  0  0  0  0  0  0  0  0  0
   -3.6973    0.8075   -2.9383 C   0  0  0  0  0  0  0  0  0  0  0  0
   -4.0728   -0.2196   -2.9094 H   0  0  0  0  0  0  0  0  0  0  0  0
   -4.5443    1.4936   -2.8431 H   0  0  0  0  0  0  0  0  0  0  0  0
   -3.2144    0.9800   -3.9048 H   0  0  0  0  0  0  0  0  0  0  0  0
   -0.1703    1.3399    1.1069 C   0  0  0  0  0  0  0  0  0  0  0  0
   -1.1446    2.0759    1.1988 O   0  0  0  0  0  0  0  0  0  0  0  0
    1.0061    1.7267    1.7250 N   0  0  0  0  0  0  0  0  0  0  0  0
    1.7672    1.0546    1.7480 H   0  0  0  0  0  0  0  0  0  0  0  0
    1.1598    2.9897    2.4372 C   0  0  0  0  0  0  0  0  0  0  0  0
    0.5083    3.0145    3.3168 H   0  0  0  0  0  0  0  0  0  0  0  0
    2.1952    3.1145    2.7681 H   0  0  0  0  0  0  0  0  0  0  0  0
    0.9037    3.8313    1.7849 H   0  0  0  0  0  0  0  0  0  0  0  0
  1  2  1  0  0  0  0
  2  3  1  0  0  0  0
  2  4  1  0  0  0  0
  2  5  1  0  0  0  0
  5  6  2  0  0  0  0
  5  7  1  0  0  0  0
  7  8  1  0  0  0  0
  7  9  1  0  0  0  0
  9 10  1  0  0  0  0
  9 11  1  0  0  0  0
  9 22  1  0  0  0  0
 11 12  1  0  0  0  0
 11 13  1  0  0  0  0
 11 14  1  0  0  0  0
 14 15  1  0  0  0  0
 14 16  1  0  0  0  0
 14 17  1  0  0  0  0
 17 18  1  0  0  0  0
 18 19  1  0  0  0  0
 18 20  1  0  0  0  0
 18 21  1  0  0  0  0
 22 23  2  0  0  0  0
 22 24  1  0  0  0  0
 24 25  1  0  0  0  0
 24 26  1  0  0  0  0
 26 27  1  0  0  0  0
 26 28  1  0  0  0  0
 26 29  1  0  0  0  0
M  END
$$$$

  -OEChem-02102214153D

 29 28  0     1  0  0  0  0  0999 V2000
   -2.8782   -3.5372    2.0284 H   0  0  0  0  0  0  0  0  0  0  0  0
   -2.9824   -2.5006    1.6963 C   0  0  0  0  0  0  0  0  0  0  0  0
   -3.4070   -1.9097    2.5117 H   0  0  0  0  0  0  0  0  0  0  0  0
   -3.6621   -2.4703    0.8413 H   0  0  0  0  0  0  0  0  0  0  0  0
   -1.6297   -1.9394    1.3016 C   0  0  0  0  0  0  0  0  0  0  0  0
   -0.6269   -2.6295    1.3985 O   0  0  0  0  0  0  0  0  0  0  0  0
   -1.5389   -0.6518    0.8207 N   0  0  0  0  0  0  0  0  0  0  0  0
   -2.3870   -0.0852    0.8192 H   0  0  0  0  0  0  0  0  0  0  0  0
   -0.2849    0.0549    0.5236 C   0  0  1  0  0  0  0  0  0  0  0  0
    0.5219   -0.4374    1.0765 H   0  0  0  0  0  0  0  0  0  0  0  0
    0.0979   -0.0271   -0.9737 C   0  0  0  0  0  0  0  0  0  0  0  0
    0.7118    0.8410   -1.2351 H   0  0  0  0  0  0  0  0  0  0  0  0
    0.7221   -0.9165   -1.1076 H   0  0  0  0  0  0  0  0  0  0  0  0
   -1.0629   -0.1322   -1.9773 C   0  0  0  0  0  0  0  0  0  0  0  0
   -0.6505   -0.1989   -2.9888 H   0  0  0  0  0  0  0  0  0  0  0  0
   -1.6243   -1.0533   -1.7921 H   0  0  0  0  0  0  0  0  0  0  0  0
   -2.2058    1.3025   -1.8986 S   0  0  0  0  0  0  0  0  0  0  0  0
   -3.4606    0.8320   -3.1517 C   0  0  0  0  0  0  0  0  0  0  0  0
   -3.9362   -0.1135   -2.8753 H   0  0  0  0  0  0  0  0  0  0  0  0
   -4.2313    1.6055   -3.2190 H   0  0  0  0  0  0  0  0  0  0  0  0
   -2.9916    0.7182   -4.1334 H   0  0  0  0  0  0  0  0  0  0  0  0
   -0.3107    1.4991    1.0743 C   0  0  0  0  0  0  0  0  0  0  0  0
   -1.3611    2.1268    1.1377 O   0  0  0  0  0  0  0  0  0  0  0  0
    0.7916    1.9961    1.7473 N   0  0  0  0  0  0  0  0  0  0  0  0
    1.6192    1.4091    1.7917 H   0  0  0  0  0  0  0  0  0  0  0  0
    0.7878    3.2659    2.4637 C   0  0  0  0  0  0  0  0  0  0  0  0
    0.0633    3.2404    3.2845 H   0  0  0  0  0  0  0  0  0  0  0  0
    1.7783    3.4674    2.8822 H   0  0  0  0  0  0  0  0  0  0  0  0
    0.5256    4.0865    1.7874 H   0  0  0  0  0  0  0  0  0  0  0  0
  1  2  1  0  0  0  0
  2  3  1  0  0  0  0
  2  4  1  0  0  0  0
  2  5  1  0  0  0  0
  5  6  2  0  0  0  0
  5  7  1  0  0  0  0
  7  8  1  0  0  0  0
  7  9  1  0  0  0  0
  9 10  1  0  0  0  0
  9 11  1  0  0  0  0
  9 22  1  0  0  0  0
 11 12  1  0  0  0  0
 11 13  1  0  0  0  0
 11 14  1  0  0  0  0
 14 15  1  0  0  0  0
 14 16  1  0  0  0  0
 14 17  1  0  0  0  0
 17 18  1  0  0  0  0
 18 19  1  0  0  0  0
 18 20  1  0  0  0  0
 18 21  1  0  0  0  0
 22 23  2  0  0  0  0
 22 24  1  0  0  0  0
 24 25  1  0  0  0  0
 24 26  1  0  0  0  0
 26 27  1  0  0  0  0
 26 28  1  0  0  0  0
 26 29  1  0  0  0  0
M  END
$$$$

  -OEChem-02102214153D

 29 28  0     1  0  0  0  0  0999 V2000
   -3.1382   -3.4618    1.4639 H   0  0  0  0  0  0  0  0  0  0  0  0
   -3.1563   -2.4639    1.0170 C   0  0  0  0  0  0  0  0  0  0  0  0
   -3.7890   -1.8160    1.6285 H   0  0  0  0  0  0  0  0  0  0  0  0
   -3.5810   -2.5347    0.0129 H   0  0  0  0  0  0  0  0  0  0  0  0
   -1.7510   -1.8975    0.9454 C   0  0  0  0  0  0  0  0  0  0  0  0
   -0.8005   -2.5642    1.3225 O   0  0  0  0  0  0  0  0  0  0  0  0
   -1.5505   -0.6301    0.4435 N   0  0  0  0  0  0  0  0  0  0  0  0
   -2.3784   -0.0637    0.2633 H   0  0  0  0  0  0  0  0  0  0  0  0
   -0.2735    0.0971    0.4969 C   0  0  1  0  0  0  0  0  0  0  0  0
    0.3497   -0.3439    1.2819 H   0  0  0  0  0  0  0  0  0  0  0  0
    0.5332    0.0063   -0.8210 C   0  0  0  0  0  0  0  0  0  0  0  0
    1.2008    0.8701   -0.9068 H   0  0  0  0  0  0  0  0  0  0  0  0
    1.1670   -0.8835   -0.7473 H   0  0  0  0  0  0  0  0  0  0  0  0
   -0.2814   -0.1338   -2.1167 C   0  0  0  0  0  0  0  0  0  0  0  0
    0.3933   -0.4314   -2.9253 H   0  0  0  0  0  0  0  0  0  0  0  0
   -1.0360   -0.9202   -2.0250 H   0  0  0  0  0  0  0  0  0  0  0  0
   -1.0567    1.4657   -2.5797 S   0  0  0  0  0  0  0  0  0  0  0  0
   -2.8452    1.0552   -2.5933 C   0  0  0  0  0  0  0  0  0  0  0  0
   -3.0461    0.2534   -3.3096 H   0  0  0  0  0  0  0  0  0  0  0  0
   -3.4278    1.9360   -2.8790 H   0  0  0  0  0  0  0  0  0  0  0  0
   -3.1677    0.7335   -1.5994 H   0  0  0  0  0  0  0  0  0  0  0  0
   -0.5219    1.5557    0.9424 C   0  0  0  0  0  0  0  0  0  0  0  0
   -1.5736    2.1170    0.6531 O   0  0  0  0  0  0  0  0  0  0  0  0
    0.2969    2.1382    1.8933 N   0  0  0  0  0  0  0  0  0  0  0  0
    1.1136    1.6158    2.1964 H   0  0  0  0  0  0  0  0  0  0  0  0
    0.0348    3.4448    2.4853 C   0  0  0  0  0  0  0  0  0  0  0  0
   -0.9011    3.4272    3.0535 H   0  0  0  0  0  0  0  0  0  0  0  0
    0.8467    3.7227    3.1644 H   0  0  0  0  0  0  0  0  0  0  0  0
   -0.0398    4.2106    1.7060 H   0  0  0  0  0  0  0  0  0  0  0  0
  1  2  1  0  0  0  0
  2  3  1  0  0  0  0
  2  4  1  0  0  0  0
  2  5  1  0  0  0  0
  5  6  2  0  0  0  0
  5  7  1  0  0  0  0
  7  8  1  0  0  0  0
  7  9  1  0  0  0  0
  9 10  1  0  0  0  0
  9 11  1  0  0  0  0
  9 22  1  0  0  0  0
 11 12  1  0  0  0  0
 11 13  1  0  0  0  0
 11 14  1  0  0  0  0
 14 15  1  0  0  0  0
 14 16  1  0  0  0  0
 14 17  1  0  0  0  0
 17 18  1  0  0  0  0
 18 19  1  0  0  0  0
 18 20  1  0  0  0  0
 18 21  1  0  0  0  0
 22 23  2  0  0  0  0
 22 24  1  0  0  0  0
 24 25  1  0  0  0  0
 24 26  1  0  0  0  0
 26 27  1  0  0  0  0
 26 28  1  0  0  0  0
 26 29  1  0  0  0  0
M  END
$$$$

  -OEChem-02102214153D

 29 28  0     1  0  0  0  0  0999 V2000
   -3.2760   -3.4654    1.5513 H   0  0  0  0  0  0  0  0  0  0  0  0
   -3.2853   -2.4169    1.2403 C   0  0  0  0  0  0  0  0  0  0  0  0
   -3.7937   -1.8265    2.0065 H   0  0  0  0  0  0  0  0  0  0  0  0
   -3.8358   -2.3330    0.3001 H   0  0  0  0  0  0  0  0  0  0  0  0
   -1.8664   -1.9134    1.0552 C   0  0  0  0  0  0  0  0  0  0  0  0
   -0.9205   -2.6562    1.2649 O   0  0  0  0  0  0  0  0  0  0  0  0
   -1.6487   -0.6174    0.6407 N   0  0  0  0  0  0  0  0  0  0  0  0
   -2.4579    0.0017    0.5929 H   0  0  0  0  0  0  0  0  0  0  0  0
   -0.3310    0.0340    0.5893 C   0  0  1  0  0  0  0  0  0  0  0  0
    0.3632   -0.5120    1.2367 H   0  0  0  0  0  0  0  0  0  0  0  0
    0.2885    0.0647   -0.8286 C   0  0  0  0  0  0  0  0  0  0  0  0
    1.0115    0.8835   -0.9075 H   0  0  0  0  0  0  0  0  0  0  0  0
    0.8526   -0.8670   -0.9390 H   0  0  0  0  0  0  0  0  0  0  0  0
   -0.6930    0.1229   -2.0117 C   0  0  0  0  0  0  0  0  0  0  0  0
   -0.2219   -0.3484   -2.8798 H   0  0  0  0  0  0  0  0  0  0  0  0
   -1.6169   -0.4257   -1.8131 H   0  0  0  0  0  0  0  0  0  0  0  0
   -1.0581    1.8709   -2.4385 S   0  0  0  0  0  0  0  0  0  0  0  0
   -2.2260    1.6648   -3.8387 C   0  0  0  0  0  0  0  0  0  0  0  0
   -1.7488    1.1111   -4.6525 H   0  0  0  0  0  0  0  0  0  0  0  0
   -2.5355    2.6442   -4.2151 H   0  0  0  0  0  0  0  0  0  0  0  0
   -3.1155    1.1179   -3.5125 H   0  0  0  0  0  0  0  0  0  0  0  0
   -0.4381    1.4544    1.1869 C   0  0  0  0  0  0  0  0  0  0  0  0
   -1.4689    2.1037    1.0466 O   0  0  0  0  0  0  0  0  0  0  0  0
    0.5207    1.9117    2.0731 N   0  0  0  0  0  0  0  0  0  0  0  0
    1.3264    1.3175    2.2447 H   0  0  0  0  0  0  0  0  0  0  0  0
    0.4072    3.1738    2.7944 C   0  0  0  0  0  0  0  0  0  0  0  0
   -0.4375    3.1419    3.4905 H   0  0  0  0  0  0  0  0  0  0  0  0
    1.3203    3.3667    3.3655 H   0  0  0  0  0  0  0  0  0  0  0  0
    0.2567    4.0035    2.0955 H   0  0  0  0  0  0  0  0  0  0  0  0
  1  2  1  0  0  0  0
  2  3  1  0  0  0  0
  2  4  1  0  0  0  0
  2  5  1  0  0  0  0
  5  6  2  0  0  0  0
  5  7  1  0  0  0  0
  7  8  1  0  0  0  0
  7  9  1  0  0  0  0
  9 10  1  0  0  0  0
  9 11  1  0  0  0  0
  9 22  1  0  0  0  0
 11 12  1  0  0  0  0
 11 13  1  0  0  0  0
 11 14  1  0  0  0  0
 14 15  1  0  0  0  0
 14 16  1  0  0  0  0
 14 17  1  0  0  0  0
 17 18  1  0  0  0  0
 18 19  1  0  0  0  0
 18 20  1  0  0  0  0
 18 21  1  0  0  0  0
 22 23  2  0  0  0  0
 22 24  1  0  0  0  0
 24 25  1  0  0  0  0
 24 26  1  0  0  0  0
 26 27  1  0  0  0  0
 26 28  1  0  0  0  0
 26 29  1  0  0  0  0
M  END
$$$$

  -OEChem-02102214153D

 29 28  0     1  0  0  0  0  0999 V2000
   -3.3427   -3.4480    1.4074 H   0  0  0  0  0  0  0  0  0  0  0  0
   -3.3447   -2.4347    0.9960 C   0  0  0  0  0  0  0  0  0  0  0  0
   -3.9036   -1.7815    1.6705 H   0  0  0  0  0  0  0  0  0  0  0  0
   -3.8394   -2.4509    0.0219 H   0  0  0  0  0  0  0  0  0  0  0  0
   -1.9224   -1.9298    0.8456 C   0  0  0  0  0  0  0  0  0  0  0  0
   -0.9837   -2.6352    1.1792 O   0  0  0  0  0  0  0  0  0  0  0  0
   -1.6929   -0.6737    0.3259 N   0  0  0  0  0  0  0  0  0  0  0  0
   -2.5047   -0.0724    0.1894 H   0  0  0  0  0  0  0  0  0  0  0  0
   -0.3784   -0.0137    0.2950 C   0  0  1  0  0  0  0  0  0  0  0  0
    0.2561   -0.4815    1.0555 H   0  0  0  0  0  0  0  0  0  0  0  0
    0.3655   -0.1834   -1.0537 C   0  0  0  0  0  0  0  0  0  0  0  0
    1.0882    0.6294   -1.1795 H   0  0  0  0  0  0  0  0  0  0  0  0
    0.9461   -1.1077   -0.9655 H   0  0  0  0  0  0  0  0  0  0  0  0
   -0.4744   -0.3228   -2.3414 C   0  0  0  0  0  0  0  0  0  0  0  0
   -0.0365   -1.1247   -2.9443 H   0  0  0  0  0  0  0  0  0  0  0  0
   -1.5054   -0.6159   -2.1305 H   0  0  0  0  0  0  0  0  0  0  0  0
   -0.4700    1.2044   -3.3721 S   0  0  0  0  0  0  0  0  0  0  0  0
   -1.5935    2.3933   -2.5450 C   0  0  0  0  0  0  0  0  0  0  0  0
   -1.0551    2.9407   -1.7678 H   0  0  0  0  0  0  0  0  0  0  0  0
   -1.9705    3.1179   -3.2724 H   0  0  0  0  0  0  0  0  0  0  0  0
   -2.4438    1.8725   -2.0957 H   0  0  0  0  0  0  0  0  0  0  0  0
   -0.5099    1.4554    0.7479 C   0  0  0  0  0  0  0  0  0  0  0  0
   -1.5532    2.0659    0.5413 O   0  0  0  0  0  0  0  0  0  0  0  0
    0.4011    1.9927    1.6392 N   0  0  0  0  0  0  0  0  0  0  0  0
    1.2030    1.4231    1.8943 H   0  0  0  0  0  0  0  0  0  0  0  0
    0.2287    3.2915    2.2795 C   0  0  0  0  0  0  0  0  0  0  0  0
   -0.6466    3.2808    2.9374 H   0  0  0  0  0  0  0  0  0  0  0  0
    1.1101    3.5377    2.8795 H   0  0  0  0  0  0  0  0  0  0  0  0
    0.0950    4.0762    1.5271 H   0  0  0  0  0  0  0  0  0  0  0  0
  1  2  1  0  0  0  0
  2  3  1  0  0  0  0
  2  4  1  0  0  0  0
  2  5  1  0  0  0  0
  5  6  2  0  0  0  0
  5  7  1  0  0  0  0
  7  8  1  0  0  0  0
  7  9  1  0  0  0  0
  9 10  1  0  0  0  0
  9 11  1  0  0  0  0
  9 22  1  0  0  0  0
 11 12  1  0  0  0  0
 11 13  1  0  0  0  0
 11 14  1  0  0  0  0
 14 15  1  0  0  0  0
 14 16  1  0  0  0  0
 14 17  1  0  0  0  0
 17 18  1  0  0  0  0
 18 19  1  0  0  0  0
 18 20  1  0  0  0  0
 18 21  1  0  0  0  0
 22 23  2  0  0  0  0
 22 24  1  0  0  0  0
 24 25  1  0  0  0  0
 24 26  1  0  0  0  0
 26 27  1  0  0  0  0
 26 28  1  0  0  0  0
 26 29  1  0  0  0  0
M  END
$$$$

  -OEChem-02102214153D

 29 28  0     1  0  0  0  0  0999 V2000
   -3.3262   -3.4716    1.4849 H   0  0  0  0  0  0  0  0  0  0  0  0
   -3.3280   -2.4956    0.9919 C   0  0  0  0  0  0  0  0  0  0  0  0
   -3.9280   -1.8021    1.5859 H   0  0  0  0  0  0  0  0  0  0  0  0
   -3.7780   -2.6015    0.0020 H   0  0  0  0  0  0  0  0  0  0  0  0
   -1.9101   -1.9733    0.8616 C   0  0  0  0  0  0  0  0  0  0  0  0
   -0.9700   -2.6480    1.2500 O   0  0  0  0  0  0  0  0  0  0  0  0
   -1.6870   -0.7316    0.3060 N   0  0  0  0  0  0  0  0  0  0  0  0
   -2.5046   -0.1542    0.1122 H   0  0  0  0  0  0  0  0  0  0  0  0
   -0.3804   -0.0549    0.2747 C   0  0  1  0  0  0  0  0  0  0  0  0
    0.2708   -0.4974    1.0360 H   0  0  0  0  0  0  0  0  0  0  0  0
    0.3443   -0.1956   -1.0875 C   0  0  0  0  0  0  0  0  0  0  0  0
    1.0468    0.6352   -1.2106 H   0  0  0  0  0  0  0  0  0  0  0  0
    0.9485   -1.1072   -1.0346 H   0  0  0  0  0  0  0  0  0  0  0  0
   -0.5384   -0.3195   -2.3483 C   0  0  0  0  0  0  0  0  0  0  0  0
   -0.3258   -1.2753   -2.8378 H   0  0  0  0  0  0  0  0  0  0  0  0
   -1.6031   -0.3110   -2.1045 H   0  0  0  0  0  0  0  0  0  0  0  0
   -0.2177    1.0444   -3.5435 S   0  0  0  0  0  0  0  0  0  0  0  0
   -0.8714    2.5487   -2.7196 C   0  0  0  0  0  0  0  0  0  0  0  0
   -0.2461    2.8178   -1.8644 H   0  0  0  0  0  0  0  0  0  0  0  0
   -0.8759    3.3880   -3.4211 H   0  0  0  0  0  0  0  0  0  0  0  0
   -1.8947    2.3787   -2.3720 H   0  0  0  0  0  0  0  0  0  0  0  0
   -0.5565    1.4227    0.6804 C   0  0  0  0  0  0  0  0  0  0  0  0
   -1.5628    2.0347    0.3386 O   0  0  0  0  0  0  0  0  0  0  0  0
    0.3186    2.0147    1.5723 N   0  0  0  0  0  0  0  0  0  0  0  0
    1.0985    1.4569    1.9092 H   0  0  0  0  0  0  0  0  0  0  0  0
    0.1350    3.3613    2.1003 C   0  0  0  0  0  0  0  0  0  0  0  0
   -0.8130    3.4346    2.6437 H   0  0  0  0  0  0  0  0  0  0  0  0
    0.9475    3.6121    2.7891 H   0  0  0  0  0  0  0  0  0  0  0  0
    0.1331    4.0947    1.2870 H   0  0  0  0  0  0  0  0  0  0  0  0
  1  2  1  0  0  0  0
  2  3  1  0  0  0  0
  2  4  1  0  0  0  0
  2  5  1  0  0  0  0
  5  6  2  0  0  0  0
  5  7  1  0  0  0  0
  7  8  1  0  0  0  0
  7  9  1  0  0  0  0
  9 10  1  0  0  0  0
  9 11  1  0  0  0  0
  9 22  1  0  0  0  0
 11 12  1  0  0  0  0
 11 13  1  0  0  0  0
 11 14  1  0  0  0  0
 14 15  1  0  0  0  0
 14 16  1  0  0  0  0
 14 17  1  0  0  0  0
 17 18  1  0  0  0  0
 18 19  1  0  0  0  0
 18 20  1  0  0  0  0
 18 21  1  0  0  0  0
 22 23  2  0  0  0  0
 22 24  1  0  0  0  0
 24 25  1  0  0  0  0
 24 26  1  0  0  0  0
 26 27  1  0  0  0  0
 26 28  1  0  0  0  0
 26 29  1  0  0  0  0
M  END
$$$$

  -OEChem-02102214153D

 29 28  0     1  0  0  0  0  0999 V2000
   -3.3654   -3.4598    1.4589 H   0  0  0  0  0  0  0  0  0  0  0  0
   -3.3427   -2.4954    0.9436 C   0  0  0  0  0  0  0  0  0  0  0  0
   -3.9710   -1.7889    1.4912 H   0  0  0  0  0  0  0  0  0  0  0  0
   -3.7441   -2.6248   -0.0643 H   0  0  0  0  0  0  0  0  0  0  0  0
   -1.9195   -1.9762    0.8708 C   0  0  0  0  0  0  0  0  0  0  0  0
   -1.0021   -2.6382    1.3284 O   0  0  0  0  0  0  0  0  0  0  0  0
   -1.6651   -0.7515    0.2912 N   0  0  0  0  0  0  0  0  0  0  0  0
   -2.4685   -0.1814    0.0306 H   0  0  0  0  0  0  0  0  0  0  0  0
   -0.3499   -0.0900    0.2859 C   0  0  1  0  0  0  0  0  0  0  0  0
    0.2934   -0.5295    1.0554 H   0  0  0  0  0  0  0  0  0  0  0  0
    0.3720   -0.2162   -1.0757 C   0  0  0  0  0  0  0  0  0  0  0  0
    1.0733    0.6170   -1.1864 H   0  0  0  0  0  0  0  0  0  0  0  0
    0.9749   -1.1299   -1.0563 H   0  0  0  0  0  0  0  0  0  0  0  0
   -0.5466   -0.2998   -2.3103 C   0  0  0  0  0  0  0  0  0  0  0  0
   -0.5949   -1.3349   -2.6636 H   0  0  0  0  0  0  0  0  0  0  0  0
   -1.5651    0.0198   -2.0727 H   0  0  0  0  0  0  0  0  0  0  0  0
    0.0734    0.7971   -3.6495 S   0  0  0  0  0  0  0  0  0  0  0  0
   -0.3720    2.4635   -3.0139 C   0  0  0  0  0  0  0  0  0  0  0  0
    0.1744    2.6827   -2.0923 H   0  0  0  0  0  0  0  0  0  0  0  0
   -0.1224    3.2269   -3.7564 H   0  0  0  0  0  0  0  0  0  0  0  0
   -1.4447    2.5160   -2.8042 H   0  0  0  0  0  0  0  0  0  0  0  0
   -0.5272    1.3987    0.6489 C   0  0  0  0  0  0  0  0  0  0  0  0
   -1.4653    2.0335    0.1785 O   0  0  0  0  0  0  0  0  0  0  0  0
    0.3187    2.0104    1.5550 N   0  0  0  0  0  0  0  0  0  0  0  0
    1.0528    1.4446    1.9719 H   0  0  0  0  0  0  0  0  0  0  0  0
    0.1663    3.3961    1.9818 C   0  0  0  0  0  0  0  0  0  0  0  0
   -0.8094    3.5465    2.4558 H   0  0  0  0  0  0  0  0  0  0  0  0
    0.9454    3.6576    2.7044 H   0  0  0  0  0  0  0  0  0  0  0  0
    0.2495    4.0722    1.1243 H   0  0  0  0  0  0  0  0  0  0  0  0
  1  2  1  0  0  0  0
  2  3  1  0  0  0  0
  2  4  1  0  0  0  0
  2  5  1  0  0  0  0
  5  6  2  0  0  0  0
  5  7  1  0  0  0  0
  7  8  1  0  0  0  0
  7  9  1  0  0  0  0
  9 10  1  0  0  0  0
  9 11  1  0  0  0  0
  9 22  1  0  0  0  0
 11 12  1  0  0  0  0
 11 13  1  0  0  0  0
 11 14  1  0  0  0  0
 14 15  1  0  0  0  0
 14 16  1  0  0  0  0
 14 17  1  0  0  0  0
 17 18  1  0  0  0  0
 18 19  1  0  0  0  0
 18 20  1  0  0  0  0
 18 21  1  0  0  0  0
 22 23  2  0  0  0  0
 22 24  1  0  0  0  0
 24 25  1  0  0  0  0
 24 26  1  0  0  0  0
 26 27  1  0  0  0  0
 26 28  1  0  0  0  0
 26 29  1  0  0  0  0
M  END
$$$$

  -OEChem-02102214153D

 29 28  0     1  0  0  0  0  0999 V2000
   -3.4015   -3.4415    1.4231 H   0  0  0  0  0  0  0  0  0  0  0  0
   -3.3580   -2.4825    0.8993 C   0  0  0  0  0  0  0  0  0  0  0  0
   -4.0026   -1.7688    1.4180 H   0  0  0  0  0  0  0  0  0  0  0  0
   -3.7252   -2.6216   -0.1204 H   0  0  0  0  0  0  0  0  0  0  0  0
   -1.9314   -1.9678    0.8699 C   0  0  0  0  0  0  0  0  0  0  0  0
   -1.0320   -2.6282    1.3642 O   0  0  0  0  0  0  0  0  0  0  0  0
   -1.6548   -0.7490    0.2879 N   0  0  0  0  0  0  0  0  0  0  0  0
   -2.4474   -0.1808   -0.0069 H   0  0  0  0  0  0  0  0  0  0  0  0
   -0.3349   -0.0966    0.3046 C   0  0  1  0  0  0  0  0  0  0  0  0
    0.2953   -0.5395    1.0831 H   0  0  0  0  0  0  0  0  0  0  0  0
    0.3960   -0.2314   -1.0496 C   0  0  0  0  0  0  0  0  0  0  0  0
    1.0937    0.6043   -1.1629 H   0  0  0  0  0  0  0  0  0  0  0  0
    0.9981   -1.1455   -1.0336 H   0  0  0  0  0  0  0  0  0  0  0  0
   -0.5360   -0.3063   -2.2699 C   0  0  0  0  0  0  0  0  0  0  0  0
   -0.8152   -1.3479   -2.4580 H   0  0  0  0  0  0  0  0  0  0  0  0
   -1.4538    0.2630   -2.0921 H   0  0  0  0  0  0  0  0  0  0  0  0
    0.2925    0.4086   -3.7453 S   0  0  0  0  0  0  0  0  0  0  0  0
    0.0922    2.2093   -3.4314 C   0  0  0  0  0  0  0  0  0  0  0  0
    0.5937    2.4972   -2.5030 H   0  0  0  0  0  0  0  0  0  0  0  0
    0.5254    2.7843   -4.2549 H   0  0  0  0  0  0  0  0  0  0  0  0
   -0.9688    2.4634   -3.3472 H   0  0  0  0  0  0  0  0  0  0  0  0
   -0.5010    1.3970    0.6536 C   0  0  0  0  0  0  0  0  0  0  0  0
   -1.4064    2.0456    0.1403 O   0  0  0  0  0  0  0  0  0  0  0  0
    0.3352    2.0050    1.5714 N   0  0  0  0  0  0  0  0  0  0  0  0
    1.0488    1.4312    2.0124 H   0  0  0  0  0  0  0  0  0  0  0  0
    0.2057    3.4014    1.9703 C   0  0  0  0  0  0  0  0  0  0  0  0
   -0.7758    3.5821    2.4212 H   0  0  0  0  0  0  0  0  0  0  0  0
    0.9756    3.6581    2.7044 H   0  0  0  0  0  0  0  0  0  0  0  0
    0.3222    4.0601    1.1032 H   0  0  0  0  0  0  0  0  0  0  0  0
  1  2  1  0  0  0  0
  2  3  1  0  0  0  0
  2  4  1  0  0  0  0
  2  5  1  0  0  0  0
  5  6  2  0  0  0  0
  5  7  1  0  0  0  0
  7  8  1  0  0  0  0
  7  9  1  0  0  0  0
  9 10  1  0  0  0  0
  9 11  1  0  0  0  0
  9 22  1  0  0  0  0
 11 12  1  0  0  0  0
 11 13  1  0  0  0  0
 11 14  1  0  0  0  0
 14 15  1  0  0  0  0
 14 16  1  0  0  0  0
 14 17  1  0  0  0  0
 17 18  1  0  0  0  0
 18 19  1  0  0  0  0
 18 20  1  0  0  0  0
 18 21  1  0  0  0  0
 22 23  2  0  0  0  0
 22 24  1  0  0  0  0
 24 25  1  0  0  0  0
 24 26  1  0  0  0  0
 26 27  1  0  0  0  0
 26 28  1  0  0  0  0
 26 29  1  0  0  0  0
M  END
$$$$

  -OEChem-02102214153D

 29 28  0     1  0  0  0  0  0999 V2000
   -3.4172   -3.4302    1.4219 H   0  0  0  0  0  0  0  0  0  0  0  0
   -3.3686   -2.4714    0.8981 C   0  0  0  0  0  0  0  0  0  0  0  0
   -4.0118   -1.7551    1.4149 H   0  0  0  0  0  0  0  0  0  0  0  0
   -3.7336   -2.6091   -0.1226 H   0  0  0  0  0  0  0  0  0  0  0  0
   -1.9401   -1.9617    0.8725 C   0  0  0  0  0  0  0  0  0  0  0  0
   -1.0445   -2.6237    1.3715 O   0  0  0  0  0  0  0  0  0  0  0  0
   -1.6579   -0.7439    0.2910 N   0  0  0  0  0  0  0  0  0  0  0  0
   -2.4473   -0.1748   -0.0108 H   0  0  0  0  0  0  0  0  0  0  0  0
   -0.3361   -0.0958    0.3107 C   0  0  1  0  0  0  0  0  0  0  0  0
    0.2904   -0.5400    1.0914 H   0  0  0  0  0  0  0  0  0  0  0  0
    0.3976   -0.2373   -1.0407 C   0  0  0  0  0  0  0  0  0  0  0  0
    1.0969    0.5958   -1.1604 H   0  0  0  0  0  0  0  0  0  0  0  0
    0.9929   -1.1558   -1.0204 H   0  0  0  0  0  0  0  0  0  0  0  0
   -0.5376   -0.3125   -2.2558 C   0  0  0  0  0  0  0  0  0  0  0  0
   -1.0169   -1.2963   -2.2932 H   0  0  0  0  0  0  0  0  0  0  0  0
   -1.3237    0.4459   -2.1793 H   0  0  0  0  0  0  0  0  0  0  0  0
    0.4118   -0.0311   -3.8033 S   0  0  0  0  0  0  0  0  0  0  0  0
    0.5807    1.7989   -3.8144 C   0  0  0  0  0  0  0  0  0  0  0  0
    1.1489    2.1382   -2.9439 H   0  0  0  0  0  0  0  0  0  0  0  0
    1.1040    2.1208   -4.7194 H   0  0  0  0  0  0  0  0  0  0  0  0
   -0.4063    2.2708   -3.7943 H   0  0  0  0  0  0  0  0  0  0  0  0
   -0.4982    1.3979    0.6589 C   0  0  0  0  0  0  0  0  0  0  0  0
   -1.4038    2.0478    0.1479 O   0  0  0  0  0  0  0  0  0  0  0  0
    0.3381    2.0027    1.5786 N   0  0  0  0  0  0  0  0  0  0  0  0
    1.0489    1.4264    2.0208 H   0  0  0  0  0  0  0  0  0  0  0  0
    0.2067    3.3971    1.9828 C   0  0  0  0  0  0  0  0  0  0  0  0
   -0.7736    3.5735    2.4379 H   0  0  0  0  0  0  0  0  0  0  0  0
    0.9787    3.6533    2.7147 H   0  0  0  0  0  0  0  0  0  0  0  0
    0.3178    4.0589    1.1175 H   0  0  0  0  0  0  0  0  0  0  0  0
  1  2  1  0  0  0  0
  2  3  1  0  0  0  0
  2  4  1  0  0  0  0
  2  5  1  0  0  0  0
  5  6  2  0  0  0  0
  5  7  1  0  0  0  0
  7  8  1  0  0  0  0
  7  9  1  0  0  0  0
  9 10  1  0  0  0  0
  9 11  1  0  0  0  0
  9 22  1  0  0  0  0
 11 12  1  0  0  0  0
 11 13  1  0  0  0  0
 11 14  1  0  0  0  0
 14 15  1  0  0  0  0
 14 16  1  0  0  0  0
 14 17  1  0  0  0  0
 17 18  1  0  0  0  0
 18 19  1  0  0  0  0
 18 20  1  0  0  0  0
 18 21  1  0  0  0  0
 22 23  2  0  0  0  0
 22 24  1  0  0  0  0
 24 25  1  0  0  0  0
 24 26  1  0  0  0  0
 26 27  1  0  0  0  0
 26 28  1  0  0  0  0
 26 29  1  0  0  0  0
M  END
$$$$

  -OEChem-02102214153D

 29 28  0     1  0  0  0  0  0999 V2000
   -3.3953   -3.4421    1.3957 H   0  0  0  0  0  0  0  0  0  0  0  0
   -3.3587   -2.4798    0.8771 C   0  0  0  0  0  0  0  0  0  0  0  0
   -4.0149   -1.7758    1.3947 H   0  0  0  0  0  0  0  0  0  0  0  0
   -3.7167   -2.6174   -0.1461 H   0  0  0  0  0  0  0  0  0  0  0  0
   -1.9378   -1.9489    0.8601 C   0  0  0  0  0  0  0  0  0  0  0  0
   -1.0344   -2.6025    1.3566 O   0  0  0  0  0  0  0  0  0  0  0  0
   -1.6722   -0.7222    0.2890 N   0  0  0  0  0  0  0  0  0  0  0  0
   -2.4687   -0.1626   -0.0116 H   0  0  0  0  0  0  0  0  0  0  0  0
   -0.3578   -0.0615    0.3019 C   0  0  1  0  0  0  0  0  0  0  0  0
    0.2742   -0.5114    1.0750 H   0  0  0  0  0  0  0  0  0  0  0  0
    0.3632   -0.2179   -1.0522 C   0  0  0  0  0  0  0  0  0  0  0  0
    1.2281    0.4516   -1.0782 H   0  0  0  0  0  0  0  0  0  0  0  0
    0.7410   -1.2432   -1.1230 H   0  0  0  0  0  0  0  0  0  0  0  0
   -0.5315    0.0434   -2.2730 C   0  0  0  0  0  0  0  0  0  0  0  0
   -1.3654   -0.6648   -2.2846 H   0  0  0  0  0  0  0  0  0  0  0  0
   -0.9480    1.0551   -2.2348 H   0  0  0  0  0  0  0  0  0  0  0  0
    0.4351   -0.1715   -3.8211 S   0  0  0  0  0  0  0  0  0  0  0  0
    1.4276    1.3731   -3.8892 C   0  0  0  0  0  0  0  0  0  0  0  0
    2.1209    1.4213   -3.0451 H   0  0  0  0  0  0  0  0  0  0  0  0
    2.0065    1.4045   -4.8170 H   0  0  0  0  0  0  0  0  0  0  0  0
    0.7708    2.2475   -3.8570 H   0  0  0  0  0  0  0  0  0  0  0  0
   -0.5071    1.4297    0.6658 C   0  0  0  0  0  0  0  0  0  0  0  0
   -1.4292    2.0855    0.1937 O   0  0  0  0  0  0  0  0  0  0  0  0
    0.3465    2.0195    1.5792 N   0  0  0  0  0  0  0  0  0  0  0  0
    1.0606    1.4339    2.0036 H   0  0  0  0  0  0  0  0  0  0  0  0
    0.2166    3.4041    2.0166 C   0  0  0  0  0  0  0  0  0  0  0  0
   -0.7570    3.5663    2.4913 H   0  0  0  0  0  0  0  0  0  0  0  0
    0.9995    3.6470    2.7415 H   0  0  0  0  0  0  0  0  0  0  0  0
    0.3114    4.0855    1.1644 H   0  0  0  0  0  0  0  0  0  0  0  0
  1  2  1  0  0  0  0
  2  3  1  0  0  0  0
  2  4  1  0  0  0  0
  2  5  1  0  0  0  0
  5  6  2  0  0  0  0
  5  7  1  0  0  0  0
  7  8  1  0  0  0  0
  7  9  1  0  0  0  0
  9 10  1  0  0  0  0
  9 11  1  0  0  0  0
  9 22  1  0  0  0  0
 11 12  1  0  0  0  0
 11 13  1  0  0  0  0
 11 14  1  0  0  0  0
 14 15  1  0  0  0  0
 14 16  1  0  0  0  0
 14 17  1  0  0  0  0
 17 18  1  0  0  0  0
 18 19  1  0  0  0  0
 18 20  1  0  0  0  0
 18 21  1  0  0  0  0
 22 23  2  0  0  0  0
 22 24  1  0  0  0  0
 24 25  1  0  0  0  0
 24 26  1  0  0  0  0
 26 27  1  0  0  0  0
 26 28  1  0  0  0  0
 26 29  1  0  0  0  0
M  END
$$$$

  -OEChem-02102214153D

 29 28  0     1  0  0  0  0  0999 V2000
   -3.3814   -3.4467    1.4371 H   0  0  0  0  0  0  0  0  0  0  0  0
   -3.3531   -2.4882    0.9113 C   0  0  0  0  0  0  0  0  0  0  0  0
   -4.0008   -1.7807    1.4347 H   0  0  0  0  0  0  0  0  0  0  0  0
   -3.7276   -2.6330   -0.1049 H   0  0  0  0  0  0  0  0  0  0  0  0
   -1.9330   -1.9567    0.8673 C   0  0  0  0  0  0  0  0  0  0  0  0
   -1.0199   -2.6083    1.3483 O   0  0  0  0  0  0  0  0  0  0  0  0
   -1.6806   -0.7270    0.2969 N   0  0  0  0  0  0  0  0  0  0  0  0
   -2.4836   -0.1697    0.0096 H   0  0  0  0  0  0  0  0  0  0  0  0
   -0.3674   -0.0638    0.2860 C   0  0  1  0  0  0  0  0  0  0  0  0
    0.2823   -0.5169    1.0420 H   0  0  0  0  0  0  0  0  0  0  0  0
    0.3315   -0.1924   -1.0838 C   0  0  0  0  0  0  0  0  0  0  0  0
    1.2023    0.4695   -1.1163 H   0  0  0  0  0  0  0  0  0  0  0  0
    0.6988   -1.2206   -1.1678 H   0  0  0  0  0  0  0  0  0  0  0  0
   -0.5734    0.0846   -2.2961 C   0  0  0  0  0  0  0  0  0  0  0  0
   -1.5269   -0.4402   -2.1931 H   0  0  0  0  0  0  0  0  0  0  0  0
   -0.7880    1.1554   -2.3732 H   0  0  0  0  0  0  0  0  0  0  0  0
    0.2279   -0.5211   -3.8352 S   0  0  0  0  0  0  0  0  0  0  0  0
    1.6019    0.6759   -4.0673 C   0  0  0  0  0  0  0  0  0  0  0  0
    2.3152    0.6060   -3.2414 H   0  0  0  0  0  0  0  0  0  0  0  0
    2.1296    0.4622   -5.0014 H   0  0  0  0  0  0  0  0  0  0  0  0
    1.2115    1.6970   -4.1119 H   0  0  0  0  0  0  0  0  0  0  0  0
   -0.5202    1.4239    0.6605 C   0  0  0  0  0  0  0  0  0  0  0  0
   -1.4468    2.0785    0.1957 O   0  0  0  0  0  0  0  0  0  0  0  0
    0.3460    2.0159    1.5607 N   0  0  0  0  0  0  0  0  0  0  0  0
    1.0645    1.4311    1.9785 H   0  0  0  0  0  0  0  0  0  0  0  0
    0.2215    3.4016    1.9962 C   0  0  0  0  0  0  0  0  0  0  0  0
   -0.7450    3.5647    2.4845 H   0  0  0  0  0  0  0  0  0  0  0  0
    1.0147    3.6473    2.7088 H   0  0  0  0  0  0  0  0  0  0  0  0
    0.3036    4.0806    1.1408 H   0  0  0  0  0  0  0  0  0  0  0  0
  1  2  1  0  0  0  0
  2  3  1  0  0  0  0
  2  4  1  0  0  0  0
  2  5  1  0  0  0  0
  5  6  2  0  0  0  0
  5  7  1  0  0  0  0
  7  8  1  0  0  0  0
  7  9  1  0  0  0  0
  9 10  1  0  0  0  0
  9 11  1  0  0  0  0
  9 22  1  0  0  0  0
 11 12  1  0  0  0  0
 11 13  1  0  0  0  0
 11 14  1  0  0  0  0
 14 15  1  0  0  0  0
 14 16  1  0  0  0  0
 14 17  1  0  0  0  0
 17 18  1  0  0  0  0
 18 19  1  0  0  0  0
 18 20  1  0  0  0  0
 18 21  1  0  0  0  0
 22 23  2  0  0  0  0
 22 24  1  0  0  0  0
 24 25  1  0  0  0  0
 24 26  1  0  0  0  0
 26 27  1  0  0  0  0
 26 28  1  0  0  0  0
 26 29  1  0  0  0  0
M  END
$$$$

  -OEChem-02102214153D

 29 28  0     1  0  0  0  0  0999 V2000
   -3.3494   -3.4625    1.4148 H   0  0  0  0  0  0  0  0  0  0  0  0
   -3.3347   -2.4912    0.9126 C   0  0  0  0  0  0  0  0  0  0  0  0
   -3.9786   -1.8006    1.4624 H   0  0  0  0  0  0  0  0  0  0  0  0
   -3.7229   -2.6129   -0.1015 H   0  0  0  0  0  0  0  0  0  0  0  0
   -1.9184   -1.9511    0.8615 C   0  0  0  0  0  0  0  0  0  0  0  0
   -0.9981   -2.5996    1.3332 O   0  0  0  0  0  0  0  0  0  0  0  0
   -1.6776   -0.7164    0.2972 N   0  0  0  0  0  0  0  0  0  0  0  0
   -2.4853   -0.1645    0.0131 H   0  0  0  0  0  0  0  0  0  0  0  0
   -0.3662   -0.0502    0.2708 C   0  0  1  0  0  0  0  0  0  0  0  0
    0.2981   -0.5078    1.0111 H   0  0  0  0  0  0  0  0  0  0  0  0
    0.3099   -0.1582   -1.1131 C   0  0  0  0  0  0  0  0  0  0  0  0
    1.1863    0.4964   -1.1554 H   0  0  0  0  0  0  0  0  0  0  0  0
    0.6693   -1.1885   -1.2069 H   0  0  0  0  0  0  0  0  0  0  0  0
   -0.6070    0.1319   -2.3168 C   0  0  0  0  0  0  0  0  0  0  0  0
   -1.6399   -0.1556   -2.1078 H   0  0  0  0  0  0  0  0  0  0  0  0
   -0.6060    1.2051   -2.5340 H   0  0  0  0  0  0  0  0  0  0  0  0
   -0.0624   -0.8233   -3.7907 S   0  0  0  0  0  0  0  0  0  0  0  0
    1.5902   -0.1043   -4.1442 C   0  0  0  0  0  0  0  0  0  0  0  0
    2.2802   -0.3066   -3.3200 H   0  0  0  0  0  0  0  0  0  0  0  0
    2.0011   -0.5436   -5.0580 H   0  0  0  0  0  0  0  0  0  0  0  0
    1.5104    0.9782   -4.2814 H   0  0  0  0  0  0  0  0  0  0  0  0
   -0.5212    1.4334    0.6603 C   0  0  0  0  0  0  0  0  0  0  0  0
   -1.4537    2.0887    0.2082 O   0  0  0  0  0  0  0  0  0  0  0  0
    0.3550    2.0229    1.5526 N   0  0  0  0  0  0  0  0  0  0  0  0
    1.0731    1.4343    1.9658 H   0  0  0  0  0  0  0  0  0  0  0  0
    0.2203    3.3999    2.0123 C   0  0  0  0  0  0  0  0  0  0  0  0
   -0.7339    3.5388    2.5316 H   0  0  0  0  0  0  0  0  0  0  0  0
    1.0304    3.6488    2.7045 H   0  0  0  0  0  0  0  0  0  0  0  0
    0.2651    4.0931    1.1656 H   0  0  0  0  0  0  0  0  0  0  0  0
  1  2  1  0  0  0  0
  2  3  1  0  0  0  0
  2  4  1  0  0  0  0
  2  5  1  0  0  0  0
  5  6  2  0  0  0  0
  5  7  1  0  0  0  0
  7  8  1  0  0  0  0
  7  9  1  0  0  0  0
  9 10  1  0  0  0  0
  9 11  1  0  0  0  0
  9 22  1  0  0  0  0
 11 12  1  0  0  0  0
 11 13  1  0  0  0  0
 11 14  1  0  0  0  0
 14 15  1  0  0  0  0
 14 16  1  0  0  0  0
 14 17  1  0  0  0  0
 17 18  1  0  0  0  0
 18 19  1  0  0  0  0
 18 20  1  0  0  0  0
 18 21  1  0  0  0  0
 22 23  2  0  0  0  0
 22 24  1  0  0  0  0
 24 25  1  0  0  0  0
 24 26  1  0  0  0  0
 26 27  1  0  0  0  0
 26 28  1  0  0  0  0
 26 29  1  0  0  0  0
M  END
$$$$

  -OEChem-02102214153D

 29 28  0     1  0  0  0  0  0999 V2000
   -3.3615   -3.4615    1.3980 H   0  0  0  0  0  0  0  0  0  0  0  0
   -3.3376   -2.4984    0.8803 C   0  0  0  0  0  0  0  0  0  0  0  0
   -4.0046   -1.8042    1.3969 H   0  0  0  0  0  0  0  0  0  0  0  0
   -3.6920   -2.6400   -0.1436 H   0  0  0  0  0  0  0  0  0  0  0  0
   -1.9244   -1.9472    0.8660 C   0  0  0  0  0  0  0  0  0  0  0  0
   -1.0127   -2.5872    1.3657 O   0  0  0  0  0  0  0  0  0  0  0  0
   -1.6770   -0.7127    0.3035 N   0  0  0  0  0  0  0  0  0  0  0  0
   -2.4795   -0.1706   -0.0114 H   0  0  0  0  0  0  0  0  0  0  0  0
   -0.3645   -0.0474    0.2865 C   0  0  1  0  0  0  0  0  0  0  0  0
    0.2952   -0.5070    1.0298 H   0  0  0  0  0  0  0  0  0  0  0  0
    0.3150   -0.1581   -1.0950 C   0  0  0  0  0  0  0  0  0  0  0  0
    1.1925    0.4951   -1.1356 H   0  0  0  0  0  0  0  0  0  0  0  0
    0.6769   -1.1880   -1.1810 H   0  0  0  0  0  0  0  0  0  0  0  0
   -0.5962    0.1335   -2.3054 C   0  0  0  0  0  0  0  0  0  0  0  0
   -1.6518    0.1270   -2.0234 H   0  0  0  0  0  0  0  0  0  0  0  0
   -0.3796    1.1344   -2.6927 H   0  0  0  0  0  0  0  0  0  0  0  0
   -0.3545   -1.1198   -3.6296 S   0  0  0  0  0  0  0  0  0  0  0  0
    1.3814   -0.8136   -4.1469 C   0  0  0  0  0  0  0  0  0  0  0  0
    2.0679   -0.9991   -3.3157 H   0  0  0  0  0  0  0  0  0  0  0  0
    1.6478   -1.4788   -4.9737 H   0  0  0  0  0  0  0  0  0  0  0  0
    1.5000    0.2222   -4.4784 H   0  0  0  0  0  0  0  0  0  0  0  0
   -0.5146    1.4375    0.6737 C   0  0  0  0  0  0  0  0  0  0  0  0
   -1.4338    2.1005    0.2061 O   0  0  0  0  0  0  0  0  0  0  0  0
    0.3592    2.0230    1.5710 N   0  0  0  0  0  0  0  0  0  0  0  0
    1.0717    1.4310    1.9888 H   0  0  0  0  0  0  0  0  0  0  0  0
    0.2411    3.4063    2.0163 C   0  0  0  0  0  0  0  0  0  0  0  0
   -0.7213    3.5688    2.5130 H   0  0  0  0  0  0  0  0  0  0  0  0
    1.0402    3.6450    2.7247 H   0  0  0  0  0  0  0  0  0  0  0  0
    0.3188    4.0913    1.1653 H   0  0  0  0  0  0  0  0  0  0  0  0
  1  2  1  0  0  0  0
  2  3  1  0  0  0  0
  2  4  1  0  0  0  0
  2  5  1  0  0  0  0
  5  6  2  0  0  0  0
  5  7  1  0  0  0  0
  7  8  1  0  0  0  0
  7  9  1  0  0  0  0
  9 10  1  0  0  0  0
  9 11  1  0  0  0  0
  9 22  1  0  0  0  0
 11 12  1  0  0  0  0
 11 13  1  0  0  0  0
 11 14  1  0  0  0  0
 14 15  1  0  0  0  0
 14 16  1  0  0  0  0
 14 17  1  0  0  0  0
 17 18  1  0  0  0  0
 18 19  1  0  0  0  0
 18 20  1  0  0  0  0
 18 21  1  0  0  0  0
 22 23  2  0  0  0  0
 22 24  1  0  0  0  0
 24 25  1  0  0  0  0
 24 26  1  0  0  0  0
 26 27  1  0  0  0  0
 26 28  1  0  0  0  0
 26 29  1  0  0  0  0
M  END
$$$$

  -OEChem-02102214153D

 29 28  0     1  0  0  0  0  0999 V2000
   -3.3594   -3.4678    1.3295 H   0  0  0  0  0  0  0  0  0  0  0  0
   -3.3268   -2.5027    0.8164 C   0  0  0  0  0  0  0  0  0  0  0  0
   -4.0311   -1.8219    1.3005 H   0  0  0  0  0  0  0  0  0  0  0  0
   -3.6260   -2.6470   -0.2248 H   0  0  0  0  0  0  0  0  0  0  0  0
   -1.9247   -1.9275    0.8746 C   0  0  0  0  0  0  0  0  0  0  0  0
   -1.0298   -2.5501    1.4247 O   0  0  0  0  0  0  0  0  0  0  0  0
   -1.6666   -0.6958    0.3117 N   0  0  0  0  0  0  0  0  0  0  0  0
   -2.4553   -0.1773   -0.0695 H   0  0  0  0  0  0  0  0  0  0  0  0
   -0.3546   -0.0305    0.3185 C   0  0  1  0  0  0  0  0  0  0  0  0
    0.2915   -0.4867    1.0757 H   0  0  0  0  0  0  0  0  0  0  0  0
    0.3371   -0.1721   -1.0536 C   0  0  0  0  0  0  0  0  0  0  0  0
    1.2040    0.4952   -1.0951 H   0  0  0  0  0  0  0  0  0  0  0  0
    0.7182   -1.1959   -1.1210 H   0  0  0  0  0  0  0  0  0  0  0  0
   -0.5724    0.1022   -2.2703 C   0  0  0  0  0  0  0  0  0  0  0  0
   -1.5783    0.3970   -1.9596 H   0  0  0  0  0  0  0  0  0  0  0  0
   -0.1641    0.9419   -2.8412 H   0  0  0  0  0  0  0  0  0  0  0  0
   -0.6888   -1.3699   -3.3674 S   0  0  0  0  0  0  0  0  0  0  0  0
    1.0069   -1.4797   -4.0658 C   0  0  0  0  0  0  0  0  0  0  0  0
    1.7389   -1.6499   -3.2713 H   0  0  0  0  0  0  0  0  0  0  0  0
    1.0654   -2.3094   -4.7767 H   0  0  0  0  0  0  0  0  0  0  0  0
    1.2621   -0.5529   -4.5881 H   0  0  0  0  0  0  0  0  0  0  0  0
   -0.5011    1.4581    0.6945 C   0  0  0  0  0  0  0  0  0  0  0  0
   -1.3996    2.1297    0.2001 O   0  0  0  0  0  0  0  0  0  0  0  0
    0.3602    2.0421    1.6051 N   0  0  0  0  0  0  0  0  0  0  0  0
    1.0488    1.4434    2.0526 H   0  0  0  0  0  0  0  0  0  0  0  0
    0.2465    3.4306    2.0351 C   0  0  0  0  0  0  0  0  0  0  0  0
   -0.7247    3.6072    2.5094 H   0  0  0  0  0  0  0  0  0  0  0  0
    1.0328    3.6688    2.7580 H   0  0  0  0  0  0  0  0  0  0  0  0
    0.3490    4.1061    1.1792 H   0  0  0  0  0  0  0  0  0  0  0  0
  1  2  1  0  0  0  0
  2  3  1  0  0  0  0
  2  4  1  0  0  0  0
  2  5  1  0  0  0  0
  5  6  2  0  0  0  0
  5  7  1  0  0  0  0
  7  8  1  0  0  0  0
  7  9  1  0  0  0  0
  9 10  1  0  0  0  0
  9 11  1  0  0  0  0
  9 22  1  0  0  0  0
 11 12  1  0  0  0  0
 11 13  1  0  0  0  0
 11 14  1  0  0  0  0
 14 15  1  0  0  0  0
 14 16  1  0  0  0  0
 14 17  1  0  0  0  0
 17 18  1  0  0  0  0
 18 19  1  0  0  0  0
 18 20  1  0  0  0  0
 18 21  1  0  0  0  0
 22 23  2  0  0  0  0
 22 24  1  0  0  0  0
 24 25  1  0  0  0  0
 24 26  1  0  0  0  0
 26 27  1  0  0  0  0
 26 28  1  0  0  0  0
 26 29  1  0  0  0  0
M  END
$$$$

  -OEChem-02102214153D

 29 28  0     1  0  0  0  0  0999 V2000
   -3.3363   -3.4857    1.2527 H   0  0  0  0  0  0  0  0  0  0  0  0
   -3.3029   -2.5125    0.7552 C   0  0  0  0  0  0  0  0  0  0  0  0
   -4.0457   -1.8559    1.2143 H   0  0  0  0  0  0  0  0  0  0  0  0
   -3.5485   -2.6488   -0.3009 H   0  0  0  0  0  0  0  0  0  0  0  0
   -1.9198   -1.9047    0.8884 C   0  0  0  0  0  0  0  0  0  0  0  0
   -1.0443   -2.5015    1.4959 O   0  0  0  0  0  0  0  0  0  0  0  0
   -1.6561   -0.6755    0.3231 N   0  0  0  0  0  0  0  0  0  0  0  0
   -2.4225   -0.2002   -0.1484 H   0  0  0  0  0  0  0  0  0  0  0  0
   -0.3475   -0.0053    0.3441 C   0  0  1  0  0  0  0  0  0  0  0  0
    0.2890   -0.4548    1.1131 H   0  0  0  0  0  0  0  0  0  0  0  0
    0.3540   -0.1792   -1.0193 C   0  0  0  0  0  0  0  0  0  0  0  0
    1.2046    0.5084   -1.0680 H   0  0  0  0  0  0  0  0  0  0  0  0
    0.7591   -1.1942   -1.0704 H   0  0  0  0  0  0  0  0  0  0  0  0
   -0.5586    0.0691   -2.2376 C   0  0  0  0  0  0  0  0  0  0  0  0
   -1.4547    0.6280   -1.9518 H   0  0  0  0  0  0  0  0  0  0  0  0
   -0.0223    0.6845   -2.9666 H   0  0  0  0  0  0  0  0  0  0  0  0
   -1.0419   -1.5091   -3.0520 S   0  0  0  0  0  0  0  0  0  0  0  0
    0.5173   -2.0476   -3.8610 C   0  0  0  0  0  0  0  0  0  0  0  0
    1.2909   -2.2459   -3.1139 H   0  0  0  0  0  0  0  0  0  0  0  0
    0.3440   -2.9640   -4.4328 H   0  0  0  0  0  0  0  0  0  0  0  0
    0.8768   -1.2723   -4.5439 H   0  0  0  0  0  0  0  0  0  0  0  0
   -0.4915    1.4870    0.7088 C   0  0  0  0  0  0  0  0  0  0  0  0
   -1.3730    2.1663    0.1949 O   0  0  0  0  0  0  0  0  0  0  0  0
    0.3639    2.0689    1.6262 N   0  0  0  0  0  0  0  0  0  0  0  0
    1.0340    1.4640    2.0928 H   0  0  0  0  0  0  0  0  0  0  0  0
    0.2517    3.4582    2.0536 C   0  0  0  0  0  0  0  0  0  0  0  0
   -0.7287    3.6425    2.5053 H   0  0  0  0  0  0  0  0  0  0  0  0
    1.0228    3.6898    2.7946 H   0  0  0  0  0  0  0  0  0  0  0  0
    0.3794    4.1327    1.2004 H   0  0  0  0  0  0  0  0  0  0  0  0
  1  2  1  0  0  0  0
  2  3  1  0  0  0  0
  2  4  1  0  0  0  0
  2  5  1  0  0  0  0
  5  6  2  0  0  0  0
  5  7  1  0  0  0  0
  7  8  1  0  0  0  0
  7  9  1  0  0  0  0
  9 10  1  0  0  0  0
  9 11  1  0  0  0  0
  9 22  1  0  0  0  0
 11 12  1  0  0  0  0
 11 13  1  0  0  0  0
 11 14  1  0  0  0  0
 14 15  1  0  0  0  0
 14 16  1  0  0  0  0
 14 17  1  0  0  0  0
 17 18  1  0  0  0  0
 18 19  1  0  0  0  0
 18 20  1  0  0  0  0
 18 21  1  0  0  0  0
 22 23  2  0  0  0  0
 22 24  1  0  0  0  0
 24 25  1  0  0  0  0
 24 26  1  0  0  0  0
 26 27  1  0  0  0  0
 26 28  1  0  0  0  0
 26 29  1  0  0  0  0
M  END
$$$$

  -OEChem-02102214153D

 29 28  0     1  0  0  0  0  0999 V2000
   -3.3141   -3.4973    1.2365 H   0  0  0  0  0  0  0  0  0  0  0  0
   -3.2862   -2.5213    0.7444 C   0  0  0  0  0  0  0  0  0  0  0  0
   -4.0464   -1.8775    1.1930 H   0  0  0  0  0  0  0  0  0  0  0  0
   -3.5106   -2.6551   -0.3168 H   0  0  0  0  0  0  0  0  0  0  0  0
   -1.9152   -1.8936    0.9056 C   0  0  0  0  0  0  0  0  0  0  0  0
   -1.0452   -2.4748    1.5361 O   0  0  0  0  0  0  0  0  0  0  0  0
   -1.6558   -0.6653    0.3368 N   0  0  0  0  0  0  0  0  0  0  0  0
   -2.4044   -0.2289   -0.1971 H   0  0  0  0  0  0  0  0  0  0  0  0
   -0.3488    0.0059    0.3490 C   0  0  1  0  0  0  0  0  0  0  0  0
    0.2893   -0.4406    1.1184 H   0  0  0  0  0  0  0  0  0  0  0  0
    0.3548   -0.1731   -1.0141 C   0  0  0  0  0  0  0  0  0  0  0  0
    1.1977    0.5238   -1.0627 H   0  0  0  0  0  0  0  0  0  0  0  0
    0.7714   -1.1829   -1.0630 H   0  0  0  0  0  0  0  0  0  0  0  0
   -0.5504    0.0640   -2.2394 C   0  0  0  0  0  0  0  0  0  0  0  0
   -1.2967    0.8342   -2.0219 H   0  0  0  0  0  0  0  0  0  0  0  0
    0.0622    0.4367   -3.0660 H   0  0  0  0  0  0  0  0  0  0  0  0
   -1.3912   -1.4779   -2.7980 S   0  0  0  0  0  0  0  0  0  0  0  0
   -0.0254   -2.4598   -3.5372 C   0  0  0  0  0  0  0  0  0  0  0  0
    0.7031   -2.7442   -2.7729 H   0  0  0  0  0  0  0  0  0  0  0  0
   -0.4251   -3.3716   -3.9908 H   0  0  0  0  0  0  0  0  0  0  0  0
    0.4834   -1.8784   -4.3116 H   0  0  0  0  0  0  0  0  0  0  0  0
   -0.4908    1.4992    0.7121 C   0  0  0  0  0  0  0  0  0  0  0  0
   -1.3706    2.1822    0.2003 O   0  0  0  0  0  0  0  0  0  0  0  0
    0.3712    2.0809    1.6238 N   0  0  0  0  0  0  0  0  0  0  0  0
    1.0347    1.4725    2.0951 H   0  0  0  0  0  0  0  0  0  0  0  0
    0.2571    3.4684    2.0566 C   0  0  0  0  0  0  0  0  0  0  0  0
   -0.7224    3.6486    2.5121 H   0  0  0  0  0  0  0  0  0  0  0  0
    1.0299    3.6990    2.7961 H   0  0  0  0  0  0  0  0  0  0  0  0
    0.3803    4.1463    1.2055 H   0  0  0  0  0  0  0  0  0  0  0  0
  1  2  1  0  0  0  0
  2  3  1  0  0  0  0
  2  4  1  0  0  0  0
  2  5  1  0  0  0  0
  5  6  2  0  0  0  0
  5  7  1  0  0  0  0
  7  8  1  0  0  0  0
  7  9  1  0  0  0  0
  9 10  1  0  0  0  0
  9 11  1  0  0  0  0
  9 22  1  0  0  0  0
 11 12  1  0  0  0  0
 11 13  1  0  0  0  0
 11 14  1  0  0  0  0
 14 15  1  0  0  0  0
 14 16  1  0  0  0  0
 14 17  1  0  0  0  0
 17 18  1  0  0  0  0
 18 19  1  0  0  0  0
 18 20  1  0  0  0  0
 18 21  1  0  0  0  0
 22 23  2  0  0  0  0
 22 24  1  0  0  0  0
 24 25  1  0  0  0  0
 24 26  1  0  0  0  0
 26 27  1  0  0  0  0
 26 28  1  0  0  0  0
 26 29  1  0  0  0  0
M  END
$$$$

  -OEChem-02102214153D

 29 28  0     1  0  0  0  0  0999 V2000
   -3.2564   -3.5298    1.1709 H   0  0  0  0  0  0  0  0  0  0  0  0
   -3.2360   -2.5581    0.6700 C   0  0  0  0  0  0  0  0  0  0  0  0
   -3.9928   -1.9122    1.1215 H   0  0  0  0  0  0  0  0  0  0  0  0
   -3.4723   -2.7004   -0.3875 H   0  0  0  0  0  0  0  0  0  0  0  0
   -1.8650   -1.9252    0.8103 C   0  0  0  0  0  0  0  0  0  0  0  0
   -0.9643   -2.5315    1.3700 O   0  0  0  0  0  0  0  0  0  0  0  0
   -1.6330   -0.6757    0.2784 N   0  0  0  0  0  0  0  0  0  0  0  0
   -2.3974   -0.2333   -0.2287 H   0  0  0  0  0  0  0  0  0  0  0  0
   -0.3351    0.0091    0.2715 C   0  0  1  0  0  0  0  0  0  0  0  0
    0.3278   -0.4543    1.0093 H   0  0  0  0  0  0  0  0  0  0  0  0
    0.3501   -0.0985   -1.1101 C   0  0  0  0  0  0  0  0  0  0  0  0
    1.1813    0.6138   -1.1361 H   0  0  0  0  0  0  0  0  0  0  0  0
    0.7892   -1.0948   -1.2028 H   0  0  0  0  0  0  0  0  0  0  0  0
   -0.5509    0.1697   -2.3353 C   0  0  0  0  0  0  0  0  0  0  0  0
   -1.1180    1.0933   -2.1807 H   0  0  0  0  0  0  0  0  0  0  0  0
    0.0962    0.3309   -3.2033 H   0  0  0  0  0  0  0  0  0  0  0  0
   -1.7240   -1.1931   -2.7607 S   0  0  0  0  0  0  0  0  0  0  0  0
   -0.6826   -2.7047   -2.8462 C   0  0  0  0  0  0  0  0  0  0  0  0
   -0.3268   -2.9829   -1.8496 H   0  0  0  0  0  0  0  0  0  0  0  0
   -1.2662   -3.5382   -3.2480 H   0  0  0  0  0  0  0  0  0  0  0  0
    0.1801   -2.5354   -3.4971 H   0  0  0  0  0  0  0  0  0  0  0  0
   -0.4910    1.4854    0.6920 C   0  0  0  0  0  0  0  0  0  0  0  0
   -1.3958    2.1702    0.2288 O   0  0  0  0  0  0  0  0  0  0  0  0
    0.3891    2.0504    1.5967 N   0  0  0  0  0  0  0  0  0  0  0  0
    1.0735    1.4369    2.0300 H   0  0  0  0  0  0  0  0  0  0  0  0
    0.2626    3.4187    2.0838 C   0  0  0  0  0  0  0  0  0  0  0  0
   -0.6697    3.5402    2.6453 H   0  0  0  0  0  0  0  0  0  0  0  0
    1.1003    3.6639    2.7437 H   0  0  0  0  0  0  0  0  0  0  0  0
    0.2652    4.1259    1.2475 H   0  0  0  0  0  0  0  0  0  0  0  0
  1  2  1  0  0  0  0
  2  3  1  0  0  0  0
  2  4  1  0  0  0  0
  2  5  1  0  0  0  0
  5  6  2  0  0  0  0
  5  7  1  0  0  0  0
  7  8  1  0  0  0  0
  7  9  1  0  0  0  0
  9 10  1  0  0  0  0
  9 11  1  0  0  0  0
  9 22  1  0  0  0  0
 11 12  1  0  0  0  0
 11 13  1  0  0  0  0
 11 14  1  0  0  0  0
 14 15  1  0  0  0  0
 14 16  1  0  0  0  0
 14 17  1  0  0  0  0
 17 18  1  0  0  0  0
 18 19  1  0  0  0  0
 18 20  1  0  0  0  0
 18 21  1  0  0  0  0
 22 23  2  0  0  0  0
 22 24  1  0  0  0  0
 24 25  1  0  0  0  0
 24 26  1  0  0  0  0
 26 27  1  0  0  0  0
 26 28  1  0  0  0  0
 26 29  1  0  0  0  0
M  END
$$$$

  -OEChem-02102214153D

 29 28  0     1  0  0  0  0  0999 V2000
   -3.3140   -3.5189    1.3197 H   0  0  0  0  0  0  0  0  0  0  0  0
   -3.2932   -2.5478    0.8175 C   0  0  0  0  0  0  0  0  0  0  0  0
   -4.0357   -1.8944    1.2820 H   0  0  0  0  0  0  0  0  0  0  0  0
   -3.5507   -2.6888   -0.2351 H   0  0  0  0  0  0  0  0  0  0  0  0
   -1.9134   -1.9283    0.9328 C   0  0  0  0  0  0  0  0  0  0  0  0
   -1.0170   -2.5312    1.5030 O   0  0  0  0  0  0  0  0  0  0  0  0
   -1.6683   -0.6976    0.3641 N   0  0  0  0  0  0  0  0  0  0  0  0
   -2.4239   -0.2706   -0.1703 H   0  0  0  0  0  0  0  0  0  0  0  0
   -0.3643   -0.0279    0.3277 C   0  0  1  0  0  0  0  0  0  0  0  0
    0.2953   -0.4769    1.0773 H   0  0  0  0  0  0  0  0  0  0  0  0
    0.3394   -0.1432   -1.0478 C   0  0  0  0  0  0  0  0  0  0  0  0
    1.1921    0.5436   -1.0591 H   0  0  0  0  0  0  0  0  0  0  0  0
    0.7491   -1.1548   -1.1208 H   0  0  0  0  0  0  0  0  0  0  0  0
   -0.5004    0.1124   -2.3218 C   0  0  0  0  0  0  0  0  0  0  0  0
   -0.8676    1.1436   -2.2923 H   0  0  0  0  0  0  0  0  0  0  0  0
    0.1602    0.0298   -3.1903 H   0  0  0  0  0  0  0  0  0  0  0  0
   -1.9494   -0.9973   -2.6001 S   0  0  0  0  0  0  0  0  0  0  0  0
   -1.1840   -2.6672   -2.6487 C   0  0  0  0  0  0  0  0  0  0  0  0
   -0.7432   -2.9165   -1.6789 H   0  0  0  0  0  0  0  0  0  0  0  0
   -1.9413   -3.4193   -2.8890 H   0  0  0  0  0  0  0  0  0  0  0  0
   -0.4009   -2.7031   -3.4119 H   0  0  0  0  0  0  0  0  0  0  0  0
   -0.5144    1.4599    0.7083 C   0  0  0  0  0  0  0  0  0  0  0  0
   -1.4084    2.1394    0.2174 O   0  0  0  0  0  0  0  0  0  0  0  0
    0.3718    2.0477    1.5925 N   0  0  0  0  0  0  0  0  0  0  0  0
    1.0620    1.4473    2.0344 H   0  0  0  0  0  0  0  0  0  0  0  0
    0.2671    3.4372    2.0218 C   0  0  0  0  0  0  0  0  0  0  0  0
   -0.6950    3.6150    2.5140 H   0  0  0  0  0  0  0  0  0  0  0  0
    1.0668    3.6766    2.7293 H   0  0  0  0  0  0  0  0  0  0  0  0
    0.3531    4.1109    1.1627 H   0  0  0  0  0  0  0  0  0  0  0  0
  1  2  1  0  0  0  0
  2  3  1  0  0  0  0
  2  4  1  0  0  0  0
  2  5  1  0  0  0  0
  5  6  2  0  0  0  0
  5  7  1  0  0  0  0
  7  8  1  0  0  0  0
  7  9  1  0  0  0  0
  9 10  1  0  0  0  0
  9 11  1  0  0  0  0
  9 22  1  0  0  0  0
 11 12  1  0  0  0  0
 11 13  1  0  0  0  0
 11 14  1  0  0  0  0
 14 15  1  0  0  0  0
 14 16  1  0  0  0  0
 14 17  1  0  0  0  0
 17 18  1  0  0  0  0
 18 19  1  0  0  0  0
 18 20  1  0  0  0  0
 18 21  1  0  0  0  0
 22 23  2  0  0  0  0
 22 24  1  0  0  0  0
 24 25  1  0  0  0  0
 24 26  1  0  0  0  0
 26 27  1  0  0  0  0
 26 28  1  0  0  0  0
 26 29  1  0  0  0  0
M  END
$$$$

  -OEChem-02102214153D

 29 28  0     1  0  0  0  0  0999 V2000
   -3.3317   -3.5023    1.4801 H   0  0  0  0  0  0  0  0  0  0  0  0
   -3.3255   -2.5157    1.0085 C   0  0  0  0  0  0  0  0  0  0  0  0
   -4.0315   -1.8683    1.5340 H   0  0  0  0  0  0  0  0  0  0  0  0
   -3.6437   -2.6197   -0.0315 H   0  0  0  0  0  0  0  0  0  0  0  0
   -1.9334   -1.9161    1.0675 C   0  0  0  0  0  0  0  0  0  0  0  0
   -1.0323   -2.5150    1.6340 O   0  0  0  0  0  0  0  0  0  0  0  0
   -1.6853   -0.7046    0.4610 N   0  0  0  0  0  0  0  0  0  0  0  0
   -2.4469   -0.2781   -0.0662 H   0  0  0  0  0  0  0  0  0  0  0  0
   -0.3794   -0.0425    0.3921 C   0  0  1  0  0  0  0  0  0  0  0  0
    0.2818   -0.4715    1.1516 H   0  0  0  0  0  0  0  0  0  0  0  0
    0.3298   -0.1802   -0.9802 C   0  0  0  0  0  0  0  0  0  0  0  0
    1.2011    0.4831   -0.9922 H   0  0  0  0  0  0  0  0  0  0  0  0
    0.7123   -1.2049   -1.0228 H   0  0  0  0  0  0  0  0  0  0  0  0
   -0.4639    0.0449   -2.2928 C   0  0  0  0  0  0  0  0  0  0  0  0
   -0.6115    1.1245   -2.4012 H   0  0  0  0  0  0  0  0  0  0  0  0
    0.1563   -0.2805   -3.1338 H   0  0  0  0  0  0  0  0  0  0  0  0
   -2.1272   -0.7343   -2.4592 S   0  0  0  0  0  0  0  0  0  0  0  0
   -1.6866   -2.5155   -2.5460 C   0  0  0  0  0  0  0  0  0  0  0  0
   -1.1466   -2.8215   -1.6451 H   0  0  0  0  0  0  0  0  0  0  0  0
   -2.5928   -3.1219   -2.6338 H   0  0  0  0  0  0  0  0  0  0  0  0
   -1.0524   -2.7062   -3.4168 H   0  0  0  0  0  0  0  0  0  0  0  0
   -0.5282    1.4553    0.7310 C   0  0  0  0  0  0  0  0  0  0  0  0
   -1.4288    2.1194    0.2315 O   0  0  0  0  0  0  0  0  0  0  0  0
    0.3648    2.0694    1.5905 N   0  0  0  0  0  0  0  0  0  0  0  0
    1.0589    1.4825    2.0443 H   0  0  0  0  0  0  0  0  0  0  0  0
    0.2579    3.4688    1.9854 C   0  0  0  0  0  0  0  0  0  0  0  0
   -0.7064    3.6584    2.4687 H   0  0  0  0  0  0  0  0  0  0  0  0
    1.0542    3.7249    2.6908 H   0  0  0  0  0  0  0  0  0  0  0  0
    0.3479    4.1216    1.1107 H   0  0  0  0  0  0  0  0  0  0  0  0
  1  2  1  0  0  0  0
  2  3  1  0  0  0  0
  2  4  1  0  0  0  0
  2  5  1  0  0  0  0
  5  6  2  0  0  0  0
  5  7  1  0  0  0  0
  7  8  1  0  0  0  0
  7  9  1  0  0  0  0
  9 10  1  0  0  0  0
  9 11  1  0  0  0  0
  9 22  1  0  0  0  0
 11 12  1  0  0  0  0
 11 13  1  0  0  0  0
 11 14  1  0  0  0  0
 14 15  1  0  0  0  0
 14 16  1  0  0  0  0
 14 17  1  0  0  0  0
 17 18  1  0  0  0  0
 18 19  1  0  0  0  0
 18 20  1  0  0  0  0
 18 21  1  0  0  0  0
 22 23  2  0  0  0  0
 22 24  1  0  0  0  0
 24 25  1  0  0  0  0
 24 26  1  0  0  0  0
 26 27  1  0  0  0  0
 26 28  1  0  0  0  0
 26 29  1  0  0  0  0
M  END
$$$$

  -OEChem-02102214153D

 29 28  0     1  0  0  0  0  0999 V2000
   -3.3155   -3.4688    1.6777 H   0  0  0  0  0  0  0  0  0  0  0  0
   -3.3155   -2.4909    1.1887 C   0  0  0  0  0  0  0  0  0  0  0  0
   -3.6887   -2.6060    0.1686 H   0  0  0  0  0  0  0  0  0  0  0  0
   -3.9821   -1.8219    1.7381 H   0  0  0  0  0  0  0  0  0  0  0  0
   -1.9121   -1.9158    1.1674 C   0  0  0  0  0  0  0  0  0  0  0  0
   -0.9922   -2.5235    1.6925 O   0  0  0  0  0  0  0  0  0  0  0  0
   -1.6794   -0.7074    0.5492 N   0  0  0  0  0  0  0  0  0  0  0  0
   -2.4624   -0.2617    0.0703 H   0  0  0  0  0  0  0  0  0  0  0  0
   -0.3790   -0.0388    0.4491 C   0  0  1  0  0  0  0  0  0  0  0  0
    0.2957   -0.4597    1.2015 H   0  0  0  0  0  0  0  0  0  0  0  0
    0.3148   -0.1826   -0.9300 C   0  0  0  0  0  0  0  0  0  0  0  0
    1.1933    0.4707   -0.9522 H   0  0  0  0  0  0  0  0  0  0  0  0
    0.6881   -1.2113   -0.9593 H   0  0  0  0  0  0  0  0  0  0  0  0
   -0.4681    0.0190   -2.2553 C   0  0  0  0  0  0  0  0  0  0  0  0
   -0.3991    1.0849   -2.4966 H   0  0  0  0  0  0  0  0  0  0  0  0
    0.0471   -0.5222   -3.0550 H   0  0  0  0  0  0  0  0  0  0  0  0
   -2.2641   -0.3909   -2.3207 S   0  0  0  0  0  0  0  0  0  0  0  0
   -2.1912   -2.2137   -2.5342 C   0  0  0  0  0  0  0  0  0  0  0  0
   -1.6294   -2.6725   -1.7152 H   0  0  0  0  0  0  0  0  0  0  0  0
   -3.2021   -2.6314   -2.5454 H   0  0  0  0  0  0  0  0  0  0  0  0
   -1.6995   -2.4637   -3.4789 H   0  0  0  0  0  0  0  0  0  0  0  0
   -0.5253    1.4610    0.7812 C   0  0  0  0  0  0  0  0  0  0  0  0
   -1.4532    2.1152    0.3207 O   0  0  0  0  0  0  0  0  0  0  0  0
    0.3858    2.0807    1.6175 N   0  0  0  0  0  0  0  0  0  0  0  0
    1.0903    1.4960    2.0580 H   0  0  0  0  0  0  0  0  0  0  0  0
    0.2640    3.4719    2.0361 C   0  0  0  0  0  0  0  0  0  0  0  0
   -0.6245    3.6056    2.6621 H   0  0  0  0  0  0  0  0  0  0  0  0
    1.1446    3.7728    2.6118 H   0  0  0  0  0  0  0  0  0  0  0  0
    0.1827    4.1300    1.1643 H   0  0  0  0  0  0  0  0  0  0  0  0
  1  2  1  0  0  0  0
  2  3  1  0  0  0  0
  2  4  1  0  0  0  0
  2  5  1  0  0  0  0
  5  6  2  0  0  0  0
  5  7  1  0  0  0  0
  7  8  1  0  0  0  0
  7  9  1  0  0  0  0
  9 10  1  0  0  0  0
  9 11  1  0  0  0  0
  9 22  1  0  0  0  0
 11 12  1  0  0  0  0
 11 13  1  0  0  0  0
 11 14  1  0  0  0  0
 14 15  1  0  0  0  0
 14 16  1  0  0  0  0
 14 17  1  0  0  0  0
 17 18  1  0  0  0  0
 18 19  1  0  0  0  0
 18 20  1  0  0  0  0
 18 21  1  0  0  0  0
 22 23  2  0  0  0  0
 22 24  1  0  0  0  0
 24 25  1  0  0  0  0
 24 26  1  0  0  0  0
 26 27  1  0  0  0  0
 26 28  1  0  0  0  0
 26 29  1  0  0  0  0
M  END
$$$$

  -OEChem-02102214153D

 29 28  0     1  0  0  0  0  0999 V2000
   -3.6524   -2.6331    0.3246 H   0  0  0  0  0  0  0  0  0  0  0  0
   -3.2061   -2.5372    1.3168 C   0  0  0  0  0  0  0  0  0  0  0  0
   -3.8352   -1.8863    1.9290 H   0  0  0  0  0  0  0  0  0  0  0  0
   -3.1624   -3.5259    1.7818 H   0  0  0  0  0  0  0  0  0  0  0  0
   -1.8119   -1.9497    1.2053 C   0  0  0  0  0  0  0  0  0  0  0  0
   -0.8503   -2.5674    1.6354 O   0  0  0  0  0  0  0  0  0  0  0  0
   -1.6357   -0.7164    0.6186 N   0  0  0  0  0  0  0  0  0  0  0  0
   -2.4582   -0.2473    0.2380 H   0  0  0  0  0  0  0  0  0  0  0  0
   -0.3562   -0.0148    0.4766 C   0  0  1  0  0  0  0  0  0  0  0  0
    0.3580   -0.4431    1.1872 H   0  0  0  0  0  0  0  0  0  0  0  0
    0.2753   -0.1287   -0.9337 C   0  0  0  0  0  0  0  0  0  0  0  0
    1.1390    0.5426   -0.9846 H   0  0  0  0  0  0  0  0  0  0  0  0
    0.6707   -1.1482   -0.9893 H   0  0  0  0  0  0  0  0  0  0  0  0
   -0.5634    0.0675   -2.2267 C   0  0  0  0  0  0  0  0  0  0  0  0
   -0.3097    1.0601   -2.6130 H   0  0  0  0  0  0  0  0  0  0  0  0
   -0.2296   -0.6560   -2.9770 H   0  0  0  0  0  0  0  0  0  0  0  0
   -2.4045    0.0271   -2.1367 S   0  0  0  0  0  0  0  0  0  0  0  0
   -2.7318   -1.7389   -2.5201 C   0  0  0  0  0  0  0  0  0  0  0  0
   -2.1866   -2.3868   -1.8275 H   0  0  0  0  0  0  0  0  0  0  0  0
   -3.8016   -1.9505   -2.4340 H   0  0  0  0  0  0  0  0  0  0  0  0
   -2.4114   -1.9693   -3.5406 H   0  0  0  0  0  0  0  0  0  0  0  0
   -0.5048    1.4720    0.8645 C   0  0  0  0  0  0  0  0  0  0  0  0
   -1.4841    2.1186    0.5141 O   0  0  0  0  0  0  0  0  0  0  0  0
    0.4426    2.0760    1.6719 N   0  0  0  0  0  0  0  0  0  0  0  0
    1.1957    1.4938    2.0267 H   0  0  0  0  0  0  0  0  0  0  0  0
    0.3162    3.4421    2.1658 C   0  0  0  0  0  0  0  0  0  0  0  0
   -0.5542    3.5316    2.8243 H   0  0  0  0  0  0  0  0  0  0  0  0
    1.2096    3.7243    2.7312 H   0  0  0  0  0  0  0  0  0  0  0  0
    0.2008    4.1430    1.3322 H   0  0  0  0  0  0  0  0  0  0  0  0
  1  2  1  0  0  0  0
  2  3  1  0  0  0  0
  2  4  1  0  0  0  0
  2  5  1  0  0  0  0
  5  6  2  0  0  0  0
  5  7  1  0  0  0  0
  7  8  1  0  0  0  0
  7  9  1  0  0  0  0
  9 10  1  0  0  0  0
  9 11  1  0  0  0  0
  9 22  1  0  0  0  0
 11 12  1  0  0  0  0
 11 13  1  0  0  0  0
 11 14  1  0  0  0  0
 14 15  1  0  0  0  0
 14 16  1  0  0  0  0
 14 17  1  0  0  0  0
 17 18  1  0  0  0  0
 18 19  1  0  0  0  0
 18 20  1  0  0  0  0
 18 21  1  0  0  0  0
 22 23  2  0  0  0  0
 22 24  1  0  0  0  0
 24 25  1  0  0  0  0
 24 26  1  0  0  0  0
 26 27  1  0  0  0  0
 26 28  1  0  0  0  0
 26 29  1  0  0  0  0
M  END
$$$$

  -OEChem-02102214153D

 29 28  0     1  0  0  0  0  0999 V2000
   -2.5291   -3.4023    2.5157 H   0  0  0  0  0  0  0  0  0  0  0  0
   -2.7334   -2.5036    1.9274 C   0  0  0  0  0  0  0  0  0  0  0  0
   -3.3528   -1.8272    2.5211 H   0  0  0  0  0  0  0  0  0  0  0  0
   -3.2797   -2.7887    1.0256 H   0  0  0  0  0  0  0  0  0  0  0  0
   -1.4337   -1.8183    1.5510 C   0  0  0  0  0  0  0  0  0  0  0  0
   -0.3648   -2.3131    1.8734 O   0  0  0  0  0  0  0  0  0  0  0  0
   -1.4648   -0.6452    0.8306 N   0  0  0  0  0  0  0  0  0  0  0  0
   -2.3761   -0.2724    0.5635 H   0  0  0  0  0  0  0  0  0  0  0  0
   -0.2929    0.1296    0.4086 C   0  0  1  0  0  0  0  0  0  0  0  0
    0.5557   -0.1640    1.0351 H   0  0  0  0  0  0  0  0  0  0  0  0
    0.1168   -0.1500   -1.0575 C   0  0  0  0  0  0  0  0  0  0  0  0
    0.8753    0.5861   -1.3424 H   0  0  0  0  0  0  0  0  0  0  0  0
    0.6164   -1.1244   -1.0515 H   0  0  0  0  0  0  0  0  0  0  0  0
   -0.9380   -0.2094   -2.1959 C   0  0  0  0  0  0  0  0  0  0  0  0
   -0.6675    0.5521   -2.9345 H   0  0  0  0  0  0  0  0  0  0  0  0
   -0.8451   -1.1782   -2.6963 H   0  0  0  0  0  0  0  0  0  0  0  0
   -2.7153    0.0601   -1.7830 S   0  0  0  0  0  0  0  0  0  0  0  0
   -3.4299   -1.5988   -2.1110 C   0  0  0  0  0  0  0  0  0  0  0  0
   -3.3116   -1.8600   -3.1667 H   0  0  0  0  0  0  0  0  0  0  0  0
   -4.4964   -1.6030   -1.8671 H   0  0  0  0  0  0  0  0  0  0  0  0
   -2.9267   -2.3562   -1.5028 H   0  0  0  0  0  0  0  0  0  0  0  0
   -0.4825    1.6415    0.6640 C   0  0  0  0  0  0  0  0  0  0  0  0
   -1.5613    2.1877    0.4724 O   0  0  0  0  0  0  0  0  0  0  0  0
    0.5428    2.3781    1.2305 N   0  0  0  0  0  0  0  0  0  0  0  0
    1.3962    1.8847    1.4754 H   0  0  0  0  0  0  0  0  0  0  0  0
    0.4081    3.7816    1.6024 C   0  0  0  0  0  0  0  0  0  0  0  0
   -0.3505    3.8996    2.3833 H   0  0  0  0  0  0  0  0  0  0  0  0
    0.1158    4.3819    0.7341 H   0  0  0  0  0  0  0  0  0  0  0  0
    1.3597    4.1663    1.9817 H   0  0  0  0  0  0  0  0  0  0  0  0
  1  2  1  0  0  0  0
  2  3  1  0  0  0  0
  2  4  1  0  0  0  0
  2  5  1  0  0  0  0
  5  6  2  0  0  0  0
  5  7  1  0  0  0  0
  7  8  1  0  0  0  0
  7  9  1  0  0  0  0
  9 10  1  0  0  0  0
  9 11  1  0  0  0  0
  9 22  1  0  0  0  0
 11 12  1  0  0  0  0
 11 13  1  0  0  0  0
 11 14  1  0  0  0  0
 14 15  1  0  0  0  0
 14 16  1  0  0  0  0
 14 17  1  0  0  0  0
 17 18  1  0  0  0  0
 18 19  1  0  0  0  0
 18 20  1  0  0  0  0
 18 21  1  0  0  0  0
 22 23  2  0  0  0  0
 22 24  1  0  0  0  0
 24 25  1  0  0  0  0
 24 26  1  0  0  0  0
 26 27  1  0  0  0  0
 26 28  1  0  0  0  0
 26 29  1  0  0  0  0
M  END
$$$$

  -OEChem-02102214153D

 29 28  0     1  0  0  0  0  0999 V2000
   -2.7389   -3.3851    1.3134 H   0  0  0  0  0  0  0  0  0  0  0  0
   -2.6258   -2.4359    0.7229 C   0  0  0  0  0  0  0  0  0  0  0  0
   -3.1310   -1.5311    1.1876 H   0  0  0  0  0  0  0  0  0  0  0  0
   -3.0012   -2.6980   -0.3106 H   0  0  0  0  0  0  0  0  0  0  0  0
   -1.2212   -2.2314    0.6358 C   0  0  0  0  0  0  0  0  0  0  0  0
   -0.4798   -3.1148    1.1728 O   0  0  0  0  0  0  0  0  0  0  0  0
   -0.2834   -1.3518    0.8357 N   0  0  0  0  0  0  0  0  0  0  0  0
    0.4088   -1.6257    0.2458 H   0  0  0  0  0  0  0  0  0  0  0  0
   -0.2206    0.0296    1.1115 C   0  0  1  0  0  0  0  0  0  0  0  0
   -0.8875    0.0123    2.0677 H   0  0  0  0  0  0  0  0  0  0  0  0
   -0.1293    0.2791   -0.5771 C   0  0  0  0  0  0  0  0  0  0  0  0
    0.5945    1.0369   -0.9087 H   0  0  0  0  0  0  0  0  0  0  0  0
    0.5930   -0.4973   -0.8859 H   0  0  0  0  0  0  0  0  0  0  0  0
   -0.8787   -0.1579   -1.9510 C   0  0  0  0  0  0  0  0  0  0  0  0
   -0.7426    0.5331   -2.7457 H   0  0  0  0  0  0  0  0  0  0  0  0
   -0.3555   -1.0057   -2.3461 H   0  0  0  0  0  0  0  0  0  0  0  0
   -2.5556   -0.8999   -1.9797 S   0  0  0  0  0  0  0  0  0  0  0  0
   -4.3895   -0.6668   -1.4630 C   0  0  0  0  0  0  0  0  0  0  0  0
   -5.2880   -0.5594   -2.2445 H   0  0  0  0  0  0  0  0  0  0  0  0
   -4.7321   -0.1011   -0.5879 H   0  0  0  0  0  0  0  0  0  0  0  0
   -4.5484   -1.5674   -1.7559 H   0  0  0  0  0  0  0  0  0  0  0  0
    0.2254    1.4919    1.0661 C   0  0  0  0  0  0  0  0  0  0  0  0
   -1.0219    1.8508    1.2750 O   0  0  0  0  0  0  0  0  0  0  0  0
    0.6001    2.7203    1.0280 N   0  0  0  0  0  0  0  0  0  0  0  0
    1.5340    2.8362    0.6759 H   0  0  0  0  0  0  0  0  0  0  0  0
    0.3012    3.7571    1.9525 C   0  0  0  0  0  0  0  0  0  0  0  0
   -0.6930    3.8220    2.4336 H   0  0  0  0  0  0  0  0  0  0  0  0
    1.0556    3.6328    2.7181 H   0  0  0  0  0  0  0  0  0  0  0  0
    0.4494    4.6797    1.4074 H   0  0  0  0  0  0  0  0  0  0  0  0
  1  2  1  0  0  0  0
  2  3  1  0  0  0  0
  2  4  1  0  0  0  0
  2  5  1  0  0  0  0
  5  6  2  0  0  0  0
  5  7  1  0  0  0  0
  7  8  1  0  0  0  0
  7  9  1  0  0  0  0
  9 10  1  0  0  0  0
  9 11  1  0  0  0  0
  9 22  1  0  0  0  0
 11 12  1  0  0  0  0
 11 13  1  0  0  0  0
 11 14  1  0  0  0  0
 14 15  1  0  0  0  0
 14 16  1  0  0  0  0
 14 17  1  0  0  0  0
 17 18  1  0  0  0  0
 18 19  1  0  0  0  0
 18 20  1  0  0  0  0
 18 21  1  0  0  0  0
 22 23  2  0  0  0  0
 22 24  1  0  0  0  0
 24 25  1  0  0  0  0
 24 26  1  0  0  0  0
 26 27  1  0  0  0  0
 26 28  1  0  0  0  0
 26 29  1  0  0  0  0
M  END
$$$$

  -OEChem-02102214153D

 29 28  0     1  0  0  0  0  0999 V2000
   -2.5838   -3.8266    2.0591 H   0  0  0  0  0  0  0  0  0  0  0  0
   -2.7428   -2.7678    1.8374 C   0  0  0  0  0  0  0  0  0  0  0  0
   -3.0318   -2.2539    2.7574 H   0  0  0  0  0  0  0  0  0  0  0  0
   -3.5519   -2.6778    1.1085 H   0  0  0  0  0  0  0  0  0  0  0  0
   -1.4731   -2.1528    1.2806 C   0  0  0  0  0  0  0  0  0  0  0  0
   -0.4613   -2.8284    1.1725 O   0  0  0  0  0  0  0  0  0  0  0  0
   -1.4709   -0.8331    0.8852 N   0  0  0  0  0  0  0  0  0  0  0  0
   -2.3253   -0.2937    1.0228 H   0  0  0  0  0  0  0  0  0  0  0  0
   -0.2989   -0.0885    0.4067 C   0  0  1  0  0  0  0  0  0  0  0  0
    0.5882   -0.6109    0.7793 H   0  0  0  0  0  0  0  0  0  0  0  0
   -0.1875   -0.1337   -1.1339 C   0  0  0  0  0  0  0  0  0  0  0  0
    0.5549    0.6144   -1.4300 H   0  0  0  0  0  0  0  0  0  0  0  0
    0.2162   -1.1119   -1.4150 H   0  0  0  0  0  0  0  0  0  0  0  0
   -1.4562    0.1038   -1.9820 C   0  0  0  0  0  0  0  0  0  0  0  0
   -1.1572    0.4963   -2.9588 H   0  0  0  0  0  0  0  0  0  0  0  0
   -1.9295   -0.8683   -2.1525 H   0  0  0  0  0  0  0  0  0  0  0  0
   -2.7342    1.2086   -1.2586 S   0  0  0  0  0  0  0  0  0  0  0  0
   -3.9897    1.2421   -2.5965 C   0  0  0  0  0  0  0  0  0  0  0  0
   -4.3568    0.2316   -2.7992 H   0  0  0  0  0  0  0  0  0  0  0  0
   -4.8355    1.8695   -2.3000 H   0  0  0  0  0  0  0  0  0  0  0  0
   -3.5552    1.6512   -3.5136 H   0  0  0  0  0  0  0  0  0  0  0  0
   -0.1751    1.3229    1.0286 C   0  0  0  0  0  0  0  0  0  0  0  0
   -1.1658    1.9605    1.3625 O   0  0  0  0  0  0  0  0  0  0  0  0
    1.0572    1.7578    1.4856 N   0  0  0  0  0  0  0  0  0  0  0  0
    1.8578    1.1542    1.3240 H   0  0  0  0  0  0  0  0  0  0  0  0
    1.2413    2.9804    2.2590 C   0  0  0  0  0  0  0  0  0  0  0  0
    0.6935    2.9215    3.2055 H   0  0  0  0  0  0  0  0  0  0  0  0
    2.3019    3.1316    2.4815 H   0  0  0  0  0  0  0  0  0  0  0  0
    0.8798    3.8475    1.6962 H   0  0  0  0  0  0  0  0  0  0  0  0
  1  2  1  0  0  0  0
  2  3  1  0  0  0  0
  2  4  1  0  0  0  0
  2  5  1  0  0  0  0
  5  6  2  0  0  0  0
  5  7  1  0  0  0  0
  7  8  1  0  0  0  0
  7  9  1  0  0  0  0
  9 10  1  0  0  0  0
  9 11  1  0  0  0  0
  9 22  1  0  0  0  0
 11 12  1  0  0  0  0
 11 13  1  0  0  0  0
 11 14  1  0  0  0  0
 14 15  1  0  0  0  0
 14 16  1  0  0  0  0
 14 17  1  0  0  0  0
 17 18  1  0  0  0  0
 18 19  1  0  0  0  0
 18 20  1  0  0  0  0
 18 21  1  0  0  0  0
 22 23  2  0  0  0  0
 22 24  1  0  0  0  0
 24 25  1  0  0  0  0
 24 26  1  0  0  0  0
 26 27  1  0  0  0  0
 26 28  1  0  0  0  0
 26 29  1  0  0  0  0
M  END
$$$$

  -OEChem-02102214153D

 29 28  0     1  0  0  0  0  0999 V2000
   -2.6682   -3.6962    2.0672 H   0  0  0  0  0  0  0  0  0  0  0  0
   -2.8374   -2.6610    1.7578 C   0  0  0  0  0  0  0  0  0  0  0  0
   -3.2509   -2.1037    2.6019 H   0  0  0  0  0  0  0  0  0  0  0  0
   -3.5574   -2.6515    0.9360 H   0  0  0  0  0  0  0  0  0  0  0  0
   -1.5332   -2.0291    1.3100 C   0  0  0  0  0  0  0  0  0  0  0  0
   -0.4981   -2.6766    1.3367 O   0  0  0  0  0  0  0  0  0  0  0  0
   -1.5240   -0.7277    0.8577 N   0  0  0  0  0  0  0  0  0  0  0  0
   -2.3926   -0.1978    0.9255 H   0  0  0  0  0  0  0  0  0  0  0  0
   -0.3184    0.0432    0.5263 C   0  0  1  0  0  0  0  0  0  0  0  0
    0.5194   -0.4210    1.0568 H   0  0  0  0  0  0  0  0  0  0  0  0
    0.0318   -0.0720   -0.9742 C   0  0  0  0  0  0  0  0  0  0  0  0
    0.7897    0.6838   -1.2026 H   0  0  0  0  0  0  0  0  0  0  0  0
    0.4936   -1.0514   -1.1371 H   0  0  0  0  0  0  0  0  0  0  0  0
   -1.1122    0.0728   -1.9957 C   0  0  0  0  0  0  0  0  0  0  0  0
   -0.6814    0.1838   -2.9958 H   0  0  0  0  0  0  0  0  0  0  0  0
   -1.6950   -0.8538   -1.9901 H   0  0  0  0  0  0  0  0  0  0  0  0
   -2.2653    1.4659   -1.6832 S   0  0  0  0  0  0  0  0  0  0  0  0
   -3.4560    1.2777   -3.0668 C   0  0  0  0  0  0  0  0  0  0  0  0
   -3.9428    0.2992   -3.0189 H   0  0  0  0  0  0  0  0  0  0  0  0
   -4.2239    2.0547   -3.0063 H   0  0  0  0  0  0  0  0  0  0  0  0
   -2.9395    1.3692   -4.0268 H   0  0  0  0  0  0  0  0  0  0  0  0
   -0.3560    1.4796    1.1000 C   0  0  0  0  0  0  0  0  0  0  0  0
   -1.4238    2.0478    1.2963 O   0  0  0  0  0  0  0  0  0  0  0  0
    0.7686    1.9927    1.7233 N   0  0  0  0  0  0  0  0  0  0  0  0
    1.6230    1.4459    1.6750 H   0  0  0  0  0  0  0  0  0  0  0  0
    0.7703    3.2370    2.4842 C   0  0  0  0  0  0  0  0  0  0  0  0
    0.1001    3.1601    3.3469 H   0  0  0  0  0  0  0  0  0  0  0  0
    1.7787    3.4564    2.8478 H   0  0  0  0  0  0  0  0  0  0  0  0
    0.4412    4.0711    1.8554 H   0  0  0  0  0  0  0  0  0  0  0  0
  1  2  1  0  0  0  0
  2  3  1  0  0  0  0
  2  4  1  0  0  0  0
  2  5  1  0  0  0  0
  5  6  2  0  0  0  0
  5  7  1  0  0  0  0
  7  8  1  0  0  0  0
  7  9  1  0  0  0  0
  9 10  1  0  0  0  0
  9 11  1  0  0  0  0
  9 22  1  0  0  0  0
 11 12  1  0  0  0  0
 11 13  1  0  0  0  0
 11 14  1  0  0  0  0
 14 15  1  0  0  0  0
 14 16  1  0  0  0  0
 14 17  1  0  0  0  0
 17 18  1  0  0  0  0
 18 19  1  0  0  0  0
 18 20  1  0  0  0  0
 18 21  1  0  0  0  0
 22 23  2  0  0  0  0
 22 24  1  0  0  0  0
 24 25  1  0  0  0  0
 24 26  1  0  0  0  0
 26 27  1  0  0  0  0
 26 28  1  0  0  0  0
 26 29  1  0  0  0  0
M  END
$$$$

  -OEChem-02102214153D

 29 28  0     1  0  0  0  0  0999 V2000
   -2.1448   -3.7010    2.2486 H   0  0  0  0  0  0  0  0  0  0  0  0
   -2.4283   -2.7046    1.8986 C   0  0  0  0  0  0  0  0  0  0  0  0
   -2.8525   -2.1444    2.7354 H   0  0  0  0  0  0  0  0  0  0  0  0
   -3.1846   -2.8068    1.1167 H   0  0  0  0  0  0  0  0  0  0  0  0
   -1.2149   -1.9772    1.3517 C   0  0  0  0  0  0  0  0  0  0  0  0
   -0.1252   -2.5281    1.3352 O   0  0  0  0  0  0  0  0  0  0  0  0
   -1.3503   -0.6958    0.8637 N   0  0  0  0  0  0  0  0  0  0  0  0
   -2.2507   -0.2362    0.9977 H   0  0  0  0  0  0  0  0  0  0  0  0
   -0.2343    0.1754    0.4698 C   0  0  1  0  0  0  0  0  0  0  0  0
    0.6666   -0.1890    0.9740 H   0  0  0  0  0  0  0  0  0  0  0  0
    0.0613    0.0732   -1.0438 C   0  0  0  0  0  0  0  0  0  0  0  0
    0.7457    0.8806   -1.3228 H   0  0  0  0  0  0  0  0  0  0  0  0
    0.5874   -0.8716   -1.2153 H   0  0  0  0  0  0  0  0  0  0  0  0
   -1.1458    0.1050   -1.9959 C   0  0  0  0  0  0  0  0  0  0  0  0
   -0.7876    0.0006   -3.0249 H   0  0  0  0  0  0  0  0  0  0  0  0
   -1.7937   -0.7518   -1.7859 H   0  0  0  0  0  0  0  0  0  0  0  0
   -2.1330    1.6465   -1.8689 S   0  0  0  0  0  0  0  0  0  0  0  0
   -3.4766    1.3229   -3.0759 C   0  0  0  0  0  0  0  0  0  0  0  0
   -3.0594    1.1633   -4.0746 H   0  0  0  0  0  0  0  0  0  0  0  0
   -4.0439    0.4344   -2.7833 H   0  0  0  0  0  0  0  0  0  0  0  0
   -4.1591    2.1772   -3.1134 H   0  0  0  0  0  0  0  0  0  0  0  0
   -0.4165    1.6104    1.0168 C   0  0  0  0  0  0  0  0  0  0  0  0
   -1.5397    2.0494    1.2393 O   0  0  0  0  0  0  0  0  0  0  0  0
    0.6578    2.2609    1.5987 N   0  0  0  0  0  0  0  0  0  0  0  0
    1.5683    1.8157    1.5338 H   0  0  0  0  0  0  0  0  0  0  0  0
    0.5324    3.5027    2.3531 C   0  0  0  0  0  0  0  0  0  0  0  0
    0.0459    4.2730    1.7453 H   0  0  0  0  0  0  0  0  0  0  0  0
   -0.0608    3.3415    3.2593 H   0  0  0  0  0  0  0  0  0  0  0  0
    1.5207    3.8694    2.6463 H   0  0  0  0  0  0  0  0  0  0  0  0
  1  2  1  0  0  0  0
  2  3  1  0  0  0  0
  2  4  1  0  0  0  0
  2  5  1  0  0  0  0
  5  6  2  0  0  0  0
  5  7  1  0  0  0  0
  7  8  1  0  0  0  0
  7  9  1  0  0  0  0
  9 10  1  0  0  0  0
  9 11  1  0  0  0  0
  9 22  1  0  0  0  0
 11 12  1  0  0  0  0
 11 13  1  0  0  0  0
 11 14  1  0  0  0  0
 14 15  1  0  0  0  0
 14 16  1  0  0  0  0
 14 17  1  0  0  0  0
 17 18  1  0  0  0  0
 18 19  1  0  0  0  0
 18 20  1  0  0  0  0
 18 21  1  0  0  0  0
 22 23  2  0  0  0  0
 22 24  1  0  0  0  0
 24 25  1  0  0  0  0
 24 26  1  0  0  0  0
 26 27  1  0  0  0  0
 26 28  1  0  0  0  0
 26 29  1  0  0  0  0
M  END
$$$$

  -OEChem-02102214153D

 29 28  0     1  0  0  0  0  0999 V2000
   -3.1213   -3.4634    1.8759 H   0  0  0  0  0  0  0  0  0  0  0  0
   -3.1782   -2.4458    1.4795 C   0  0  0  0  0  0  0  0  0  0  0  0
   -3.7146   -1.8183    2.1953 H   0  0  0  0  0  0  0  0  0  0  0  0
   -3.7305   -2.4654    0.5371 H   0  0  0  0  0  0  0  0  0  0  0  0
   -1.7834   -1.8947    1.2518 C   0  0  0  0  0  0  0  0  0  0  0  0
   -0.8056   -2.5757    1.5185 O   0  0  0  0  0  0  0  0  0  0  0  0
   -1.6231   -0.6260    0.7376 N   0  0  0  0  0  0  0  0  0  0  0  0
   -2.4597   -0.0493    0.6490 H   0  0  0  0  0  0  0  0  0  0  0  0
   -0.3390    0.0865    0.6623 C   0  0  1  0  0  0  0  0  0  0  0  0
    0.3506   -0.3671    1.3819 H   0  0  0  0  0  0  0  0  0  0  0  0
    0.3217   -0.0543   -0.7277 C   0  0  0  0  0  0  0  0  0  0  0  0
    1.1679    0.6366   -0.8006 H   0  0  0  0  0  0  0  0  0  0  0  0
    0.7266   -1.0697   -0.7891 H   0  0  0  0  0  0  0  0  0  0  0  0
   -0.5946    0.1428   -1.9455 C   0  0  0  0  0  0  0  0  0  0  0  0
   -0.0840   -0.2343   -2.8371 H   0  0  0  0  0  0  0  0  0  0  0  0
   -1.5175   -0.4327   -1.8305 H   0  0  0  0  0  0  0  0  0  0  0  0
   -0.9895    1.9163   -2.2075 S   0  0  0  0  0  0  0  0  0  0  0  0
   -2.1392    1.8268   -3.6345 C   0  0  0  0  0  0  0  0  0  0  0  0
   -1.6427    1.3671   -4.4940 H   0  0  0  0  0  0  0  0  0  0  0  0
   -2.4666    2.8324   -3.9147 H   0  0  0  0  0  0  0  0  0  0  0  0
   -3.0196    1.2320   -3.3744 H   0  0  0  0  0  0  0  0  0  0  0  0
   -0.5060    1.5481    1.1358 C   0  0  0  0  0  0  0  0  0  0  0  0
   -1.5840    2.1178    1.0000 O   0  0  0  0  0  0  0  0  0  0  0  0
    0.4245    2.1049    1.9954 N   0  0  0  0  0  0  0  0  0  0  0  0
    1.2694    1.5737    2.1839 H   0  0  0  0  0  0  0  0  0  0  0  0
    0.2534    3.4070    2.6289 C   0  0  0  0  0  0  0  0  0  0  0  0
   -0.6153    3.3984    3.2952 H   0  0  0  0  0  0  0  0  0  0  0  0
    1.1393    3.6600    3.2191 H   0  0  0  0  0  0  0  0  0  0  0  0
    0.1094    4.1851    1.8718 H   0  0  0  0  0  0  0  0  0  0  0  0
  1  2  1  0  0  0  0
  2  3  1  0  0  0  0
  2  4  1  0  0  0  0
  2  5  1  0  0  0  0
  5  6  2  0  0  0  0
  5  7  1  0  0  0  0
  7  8  1  0  0  0  0
  7  9  1  0  0  0  0
  9 10  1  0  0  0  0
  9 11  1  0  0  0  0
  9 22  1  0  0  0  0
 11 12  1  0  0  0  0
 11 13  1  0  0  0  0
 11 14  1  0  0  0  0
 14 15  1  0  0  0  0
 14 16  1  0  0  0  0
 14 17  1  0  0  0  0
 17 18  1  0  0  0  0
 18 19  1  0  0  0  0
 18 20  1  0  0  0  0
 18 21  1  0  0  0  0
 22 23  2  0  0  0  0
 22 24  1  0  0  0  0
 24 25  1  0  0  0  0
 24 26  1  0  0  0  0
 26 27  1  0  0  0  0
 26 28  1  0  0  0  0
 26 29  1  0  0  0  0
M  END
$$$$

  -OEChem-02102214153D

 29 28  0     1  0  0  0  0  0999 V2000
   -3.0421   -3.9219    1.2420 H   0  0  0  0  0  0  0  0  0  0  0  0
   -3.2110   -2.8751    0.9744 C   0  0  0  0  0  0  0  0  0  0  0  0
   -3.8185   -2.4060    1.7522 H   0  0  0  0  0  0  0  0  0  0  0  0
   -3.7522   -2.8369    0.0261 H   0  0  0  0  0  0  0  0  0  0  0  0
   -1.8858   -2.1484    0.8444 C   0  0  0  0  0  0  0  0  0  0  0  0
   -0.8399   -2.7378    1.0665 O   0  0  0  0  0  0  0  0  0  0  0  0
   -1.8654   -0.8205    0.4758 N   0  0  0  0  0  0  0  0  0  0  0  0
   -2.7617   -0.3366    0.4224 H   0  0  0  0  0  0  0  0  0  0  0  0
   -0.6681    0.0332    0.4986 C   0  0  1  0  0  0  0  0  0  0  0  0
    0.0803   -0.4216    1.1559 H   0  0  0  0  0  0  0  0  0  0  0  0
   -0.0238    0.1769   -0.8971 C   0  0  0  0  0  0  0  0  0  0  0  0
    0.7548    0.9444   -0.8667 H   0  0  0  0  0  0  0  0  0  0  0  0
    0.4740   -0.7744   -1.1123 H   0  0  0  0  0  0  0  0  0  0  0  0
   -0.9930    0.4521   -2.0614 C   0  0  0  0  0  0  0  0  0  0  0  0
   -0.5759    0.0307   -2.9812 H   0  0  0  0  0  0  0  0  0  0  0  0
   -1.9596   -0.0316   -1.8979 H   0  0  0  0  0  0  0  0  0  0  0  0
   -1.2413    2.2567   -2.3124 S   0  0  0  0  0  0  0  0  0  0  0  0
    0.3177    2.7797   -3.1310 C   0  0  0  0  0  0  0  0  0  0  0  0
    0.4670    2.2157   -4.0563 H   0  0  0  0  0  0  0  0  0  0  0  0
    0.2707    3.8452   -3.3748 H   0  0  0  0  0  0  0  0  0  0  0  0
    1.1740    2.6114   -2.4725 H   0  0  0  0  0  0  0  0  0  0  0  0
   -1.0075    1.4011    1.1288 C   0  0  0  0  0  0  0  0  0  0  0  0
   -2.1261    1.8817    0.9832 O   0  0  0  0  0  0  0  0  0  0  0  0
   -0.1574    1.9665    2.0622 N   0  0  0  0  0  0  0  0  0  0  0  0
    0.7197    1.4905    2.2512 H   0  0  0  0  0  0  0  0  0  0  0  0
   -0.4916    3.1619    2.8269 C   0  0  0  0  0  0  0  0  0  0  0  0
   -1.3628    2.9774    3.4643 H   0  0  0  0  0  0  0  0  0  0  0  0
    0.3493    3.4511    3.4647 H   0  0  0  0  0  0  0  0  0  0  0  0
   -0.7175    3.9964    2.1545 H   0  0  0  0  0  0  0  0  0  0  0  0
  1  2  1  0  0  0  0
  2  3  1  0  0  0  0
  2  4  1  0  0  0  0
  2  5  1  0  0  0  0
  5  6  2  0  0  0  0
  5  7  1  0  0  0  0
  7  8  1  0  0  0  0
  7  9  1  0  0  0  0
  9 10  1  0  0  0  0
  9 11  1  0  0  0  0
  9 22  1  0  0  0  0
 11 12  1  0  0  0  0
 11 13  1  0  0  0  0
 11 14  1  0  0  0  0
 14 15  1  0  0  0  0
 14 16  1  0  0  0  0
 14 17  1  0  0  0  0
 17 18  1  0  0  0  0
 18 19  1  0  0  0  0
 18 20  1  0  0  0  0
 18 21  1  0  0  0  0
 22 23  2  0  0  0  0
 22 24  1  0  0  0  0
 24 25  1  0  0  0  0
 24 26  1  0  0  0  0
 26 27  1  0  0  0  0
 26 28  1  0  0  0  0
 26 29  1  0  0  0  0
M  END
$$$$

  -OEChem-02102214153D

 29 28  0     1  0  0  0  0  0999 V2000
   -3.4813   -3.3755    1.2305 H   0  0  0  0  0  0  0  0  0  0  0  0
   -3.3971   -2.3362    0.9004 C   0  0  0  0  0  0  0  0  0  0  0  0
   -3.9320   -1.6974    1.6073 H   0  0  0  0  0  0  0  0  0  0  0  0
   -3.8569   -2.2417   -0.0862 H   0  0  0  0  0  0  0  0  0  0  0  0
   -1.9384   -1.9256    0.8332 C   0  0  0  0  0  0  0  0  0  0  0  0
   -1.0653   -2.7108    1.1662 O   0  0  0  0  0  0  0  0  0  0  0  0
   -1.6033   -0.6618    0.3969 N   0  0  0  0  0  0  0  0  0  0  0  0
   -2.3664    0.0012    0.2653 H   0  0  0  0  0  0  0  0  0  0  0  0
   -0.2490   -0.0902    0.4691 C   0  0  1  0  0  0  0  0  0  0  0  0
    0.3523   -0.6560    1.1885 H   0  0  0  0  0  0  0  0  0  0  0  0
    0.4783   -0.1263   -0.8912 C   0  0  0  0  0  0  0  0  0  0  0  0
    1.4055    0.4536   -0.8353 H   0  0  0  0  0  0  0  0  0  0  0  0
    0.7665   -1.1672   -1.0708 H   0  0  0  0  0  0  0  0  0  0  0  0
   -0.3628    0.3300   -2.0960 C   0  0  0  0  0  0  0  0  0  0  0  0
   -0.2075   -0.3570   -2.9337 H   0  0  0  0  0  0  0  0  0  0  0  0
   -1.4318    0.3327   -1.8697 H   0  0  0  0  0  0  0  0  0  0  0  0
    0.1745    2.0129   -2.6046 S   0  0  0  0  0  0  0  0  0  0  0  0
   -1.4282    2.7944   -3.0390 C   0  0  0  0  0  0  0  0  0  0  0  0
   -2.0859    2.8154   -2.1642 H   0  0  0  0  0  0  0  0  0  0  0  0
   -1.2644    3.8219   -3.3769 H   0  0  0  0  0  0  0  0  0  0  0  0
   -1.9204    2.2348   -3.8396 H   0  0  0  0  0  0  0  0  0  0  0  0
   -0.3366    1.3573    0.9995 C   0  0  0  0  0  0  0  0  0  0  0  0
   -1.2906    2.0633    0.6856 O   0  0  0  0  0  0  0  0  0  0  0  0
    0.5401    1.8047    1.9705 N   0  0  0  0  0  0  0  0  0  0  0  0
    1.2949    1.1838    2.2472 H   0  0  0  0  0  0  0  0  0  0  0  0
    0.4654    3.1343    2.5636 C   0  0  0  0  0  0  0  0  0  0  0  0
   -0.4870    3.2679    3.0873 H   0  0  0  0  0  0  0  0  0  0  0  0
    1.2781    3.2742    3.2829 H   0  0  0  0  0  0  0  0  0  0  0  0
    0.5529    3.9042    1.7897 H   0  0  0  0  0  0  0  0  0  0  0  0
  1  2  1  0  0  0  0
  2  3  1  0  0  0  0
  2  4  1  0  0  0  0
  2  5  1  0  0  0  0
  5  6  2  0  0  0  0
  5  7  1  0  0  0  0
  7  8  1  0  0  0  0
  7  9  1  0  0  0  0
  9 10  1  0  0  0  0
  9 11  1  0  0  0  0
  9 22  1  0  0  0  0
 11 12  1  0  0  0  0
 11 13  1  0  0  0  0
 11 14  1  0  0  0  0
 14 15  1  0  0  0  0
 14 16  1  0  0  0  0
 14 17  1  0  0  0  0
 17 18  1  0  0  0  0
 18 19  1  0  0  0  0
 18 20  1  0  0  0  0
 18 21  1  0  0  0  0
 22 23  2  0  0  0  0
 22 24  1  0  0  0  0
 24 25  1  0  0  0  0
 24 26  1  0  0  0  0
 26 27  1  0  0  0  0
 26 28  1  0  0  0  0
 26 29  1  0  0  0  0
M  END
$$$$

  -OEChem-02102214153D

 29 28  0     1  0  0  0  0  0999 V2000
   -3.3454   -3.4602    1.3961 H   0  0  0  0  0  0  0  0  0  0  0  0
   -3.3316   -2.4802    0.9107 C   0  0  0  0  0  0  0  0  0  0  0  0
   -3.9487   -1.7912    1.4922 H   0  0  0  0  0  0  0  0  0  0  0  0
   -3.7532   -2.5781   -0.0924 H   0  0  0  0  0  0  0  0  0  0  0  0
   -1.9094   -1.9587    0.8258 C   0  0  0  0  0  0  0  0  0  0  0  0
   -0.9828   -2.6371    1.2395 O   0  0  0  0  0  0  0  0  0  0  0  0
   -1.6664   -0.7152    0.2822 N   0  0  0  0  0  0  0  0  0  0  0  0
   -2.4764   -0.1332    0.0726 H   0  0  0  0  0  0  0  0  0  0  0  0
   -0.3566   -0.0439    0.2908 C   0  0  1  0  0  0  0  0  0  0  0  0
    0.2776   -0.4984    1.0590 H   0  0  0  0  0  0  0  0  0  0  0  0
    0.3700   -0.2063   -1.0619 C   0  0  0  0  0  0  0  0  0  0  0  0
    1.2414    0.4562   -1.0808 H   0  0  0  0  0  0  0  0  0  0  0  0
    0.7519   -1.2313   -1.1110 H   0  0  0  0  0  0  0  0  0  0  0  0
   -0.4877    0.0304   -2.3208 C   0  0  0  0  0  0  0  0  0  0  0  0
   -0.5037   -0.8867   -2.9185 H   0  0  0  0  0  0  0  0  0  0  0  0
   -1.5222    0.2675   -2.0576 H   0  0  0  0  0  0  0  0  0  0  0  0
    0.1780    1.4037   -3.3531 S   0  0  0  0  0  0  0  0  0  0  0  0
   -0.2504    2.9389   -2.4432 C   0  0  0  0  0  0  0  0  0  0  0  0
    0.3111    2.9985   -1.5075 H   0  0  0  0  0  0  0  0  0  0  0  0
   -0.0033    3.8144   -3.0505 H   0  0  0  0  0  0  0  0  0  0  0  0
   -1.3208    2.9617   -2.2181 H   0  0  0  0  0  0  0  0  0  0  0  0
   -0.5238    1.4336    0.6968 C   0  0  0  0  0  0  0  0  0  0  0  0
   -1.5155    2.0573    0.3341 O   0  0  0  0  0  0  0  0  0  0  0  0
    0.3352    2.0118    1.6128 N   0  0  0  0  0  0  0  0  0  0  0  0
    1.1008    1.4441    1.9653 H   0  0  0  0  0  0  0  0  0  0  0  0
    0.1586    3.3612    2.1362 C   0  0  0  0  0  0  0  0  0  0  0  0
   -0.7984    3.4466    2.6619 H   0  0  0  0  0  0  0  0  0  0  0  0
    0.9617    3.6025    2.8393 H   0  0  0  0  0  0  0  0  0  0  0  0
    0.1805    4.0938    1.3225 H   0  0  0  0  0  0  0  0  0  0  0  0
  1  2  1  0  0  0  0
  2  3  1  0  0  0  0
  2  4  1  0  0  0  0
  2  5  1  0  0  0  0
  5  6  2  0  0  0  0
  5  7  1  0  0  0  0
  7  8  1  0  0  0  0
  7  9  1  0  0  0  0
  9 10  1  0  0  0  0
  9 11  1  0  0  0  0
  9 22  1  0  0  0  0
 11 12  1  0  0  0  0
 11 13  1  0  0  0  0
 11 14  1  0  0  0  0
 14 15  1  0  0  0  0
 14 16  1  0  0  0  0
 14 17  1  0  0  0  0
 17 18  1  0  0  0  0
 18 19  1  0  0  0  0
 18 20  1  0  0  0  0
 18 21  1  0  0  0  0
 22 23  2  0  0  0  0
 22 24  1  0  0  0  0
 24 25  1  0  0  0  0
 24 26  1  0  0  0  0
 26 27  1  0  0  0  0
 26 28  1  0  0  0  0
 26 29  1  0  0  0  0
M  END
$$$$

  -OEChem-02102214153D

 29 28  0     1  0  0  0  0  0999 V2000
   -3.3758   -3.4498    1.3805 H   0  0  0  0  0  0  0  0  0  0  0  0
   -3.3420   -2.4860    0.8648 C   0  0  0  0  0  0  0  0  0  0  0  0
   -3.9899   -1.7820    1.3925 H   0  0  0  0  0  0  0  0  0  0  0  0
   -3.7124   -2.6189   -0.1545 H   0  0  0  0  0  0  0  0  0  0  0  0
   -1.9195   -1.9601    0.8327 C   0  0  0  0  0  0  0  0  0  0  0  0
   -1.0110   -2.6230    1.3068 O   0  0  0  0  0  0  0  0  0  0  0  0
   -1.6571   -0.7295    0.2687 N   0  0  0  0  0  0  0  0  0  0  0  0
   -2.4576   -0.1635   -0.0084 H   0  0  0  0  0  0  0  0  0  0  0  0
   -0.3462   -0.0612    0.2946 C   0  0  1  0  0  0  0  0  0  0  0  0
    0.2811   -0.5110    1.0711 H   0  0  0  0  0  0  0  0  0  0  0  0
    0.3842   -0.2153   -1.0537 C   0  0  0  0  0  0  0  0  0  0  0  0
    1.2464    0.4591   -1.0653 H   0  0  0  0  0  0  0  0  0  0  0  0
    0.7785   -1.2344   -1.1236 H   0  0  0  0  0  0  0  0  0  0  0  0
   -0.5010    0.0410   -2.2871 C   0  0  0  0  0  0  0  0  0  0  0  0
   -0.7664   -0.9151   -2.7493 H   0  0  0  0  0  0  0  0  0  0  0  0
   -1.4325    0.5433   -2.0096 H   0  0  0  0  0  0  0  0  0  0  0  0
    0.3791    1.1003   -3.5046 S   0  0  0  0  0  0  0  0  0  0  0  0
    0.2367    2.7582   -2.7237 C   0  0  0  0  0  0  0  0  0  0  0  0
    0.7594    2.7770   -1.7634 H   0  0  0  0  0  0  0  0  0  0  0  0
    0.6763    3.5191   -3.3750 H   0  0  0  0  0  0  0  0  0  0  0  0
   -0.8151    3.0081   -2.5536 H   0  0  0  0  0  0  0  0  0  0  0  0
   -0.5034    1.4283    0.6632 C   0  0  0  0  0  0  0  0  0  0  0  0
   -1.4318    2.0803    0.1979 O   0  0  0  0  0  0  0  0  0  0  0  0
    0.3413    2.0183    1.5847 N   0  0  0  0  0  0  0  0  0  0  0  0
    1.0676    1.4398    1.9979 H   0  0  0  0  0  0  0  0  0  0  0  0
    0.2099    3.4040    2.0181 C   0  0  0  0  0  0  0  0  0  0  0  0
   -0.7674    3.5694    2.4838 H   0  0  0  0  0  0  0  0  0  0  0  0
    0.9865    3.6473    2.7496 H   0  0  0  0  0  0  0  0  0  0  0  0
    0.3138    4.0833    1.1653 H   0  0  0  0  0  0  0  0  0  0  0  0
  1  2  1  0  0  0  0
  2  3  1  0  0  0  0
  2  4  1  0  0  0  0
  2  5  1  0  0  0  0
  5  6  2  0  0  0  0
  5  7  1  0  0  0  0
  7  8  1  0  0  0  0
  7  9  1  0  0  0  0
  9 10  1  0  0  0  0
  9 11  1  0  0  0  0
  9 22  1  0  0  0  0
 11 12  1  0  0  0  0
 11 13  1  0  0  0  0
 11 14  1  0  0  0  0
 14 15  1  0  0  0  0
 14 16  1  0  0  0  0
 14 17  1  0  0  0  0
 17 18  1  0  0  0  0
 18 19  1  0  0  0  0
 18 20  1  0  0  0  0
 18 21  1  0  0  0  0
 22 23  2  0  0  0  0
 22 24  1  0  0  0  0
 24 25  1  0  0  0  0
 24 26  1  0  0  0  0
 26 27  1  0  0  0  0
 26 28  1  0  0  0  0
 26 29  1  0  0  0  0
M  END
$$$$

  -OEChem-02102214153D

 29 28  0     1  0  0  0  0  0999 V2000
   -3.3981   -3.4326    1.3675 H   0  0  0  0  0  0  0  0  0  0  0  0
   -3.3553   -2.4681    0.8536 C   0  0  0  0  0  0  0  0  0  0  0  0
   -3.9993   -1.7598    1.3803 H   0  0  0  0  0  0  0  0  0  0  0  0
   -3.7238   -2.5958   -0.1671 H   0  0  0  0  0  0  0  0  0  0  0  0
   -1.9290   -1.9523    0.8283 C   0  0  0  0  0  0  0  0  0  0  0  0
   -1.0291   -2.6164    1.3167 O   0  0  0  0  0  0  0  0  0  0  0  0
   -1.6548   -0.7248    0.2633 N   0  0  0  0  0  0  0  0  0  0  0  0
   -2.4490   -0.1584   -0.0305 H   0  0  0  0  0  0  0  0  0  0  0  0
   -0.3411   -0.0627    0.3012 C   0  0  1  0  0  0  0  0  0  0  0  0
    0.2762   -0.5140    1.0851 H   0  0  0  0  0  0  0  0  0  0  0  0
    0.3986   -0.2298   -1.0395 C   0  0  0  0  0  0  0  0  0  0  0  0
    1.2565    0.4494   -1.0502 H   0  0  0  0  0  0  0  0  0  0  0  0
    0.7952   -1.2483   -1.1055 H   0  0  0  0  0  0  0  0  0  0  0  0
   -0.4848    0.0251   -2.2713 C   0  0  0  0  0  0  0  0  0  0  0  0
   -0.9721   -0.9081   -2.5705 H   0  0  0  0  0  0  0  0  0  0  0  0
   -1.2707    0.7527   -2.0483 H   0  0  0  0  0  0  0  0  0  0  0  0
    0.5311    0.6761   -3.6559 S   0  0  0  0  0  0  0  0  0  0  0  0
    0.6877    2.4448   -3.1800 C   0  0  0  0  0  0  0  0  0  0  0  0
    1.2033    2.5408   -2.2204 H   0  0  0  0  0  0  0  0  0  0  0  0
    1.2579    2.9889   -3.9385 H   0  0  0  0  0  0  0  0  0  0  0  0
   -0.3027    2.9018   -3.0912 H   0  0  0  0  0  0  0  0  0  0  0  0
   -0.4875    1.4303    0.6631 C   0  0  0  0  0  0  0  0  0  0  0  0
   -1.4019    2.0915    0.1837 O   0  0  0  0  0  0  0  0  0  0  0  0
    0.3543    2.0148    1.5910 N   0  0  0  0  0  0  0  0  0  0  0  0
    1.0628    1.4271    2.0218 H   0  0  0  0  0  0  0  0  0  0  0  0
    0.2230    3.3993    2.0285 C   0  0  0  0  0  0  0  0  0  0  0  0
   -0.7533    3.5618    2.4972 H   0  0  0  0  0  0  0  0  0  0  0  0
    1.0016    3.6413    2.7583 H   0  0  0  0  0  0  0  0  0  0  0  0
    0.3234    4.0814    1.1776 H   0  0  0  0  0  0  0  0  0  0  0  0
  1  2  1  0  0  0  0
  2  3  1  0  0  0  0
  2  4  1  0  0  0  0
  2  5  1  0  0  0  0
  5  6  2  0  0  0  0
  5  7  1  0  0  0  0
  7  8  1  0  0  0  0
  7  9  1  0  0  0  0
  9 10  1  0  0  0  0
  9 11  1  0  0  0  0
  9 22  1  0  0  0  0
 11 12  1  0  0  0  0
 11 13  1  0  0  0  0
 11 14  1  0  0  0  0
 14 15  1  0  0  0  0
 14 16  1  0  0  0  0
 14 17  1  0  0  0  0
 17 18  1  0  0  0  0
 18 19  1  0  0  0  0
 18 20  1  0  0  0  0
 18 21  1  0  0  0  0
 22 23  2  0  0  0  0
 22 24  1  0  0  0  0
 24 25  1  0  0  0  0
 24 26  1  0  0  0  0
 26 27  1  0  0  0  0
 26 28  1  0  0  0  0
 26 29  1  0  0  0  0
M  END
$$$$

  -OEChem-02102214153D

 29 28  0     1  0  0  0  0  0999 V2000
   -3.4010   -3.4353    1.3554 H   0  0  0  0  0  0  0  0  0  0  0  0
   -3.3597   -2.4644    0.8537 C   0  0  0  0  0  0  0  0  0  0  0  0
   -4.0085   -1.7650    1.3863 H   0  0  0  0  0  0  0  0  0  0  0  0
   -3.7230   -2.5810   -0.1701 H   0  0  0  0  0  0  0  0  0  0  0  0
   -1.9355   -1.9430    0.8401 C   0  0  0  0  0  0  0  0  0  0  0  0
   -1.0370   -2.6047    1.3344 O   0  0  0  0  0  0  0  0  0  0  0  0
   -1.6609   -0.7162    0.2738 N   0  0  0  0  0  0  0  0  0  0  0  0
   -2.4543   -0.1504   -0.0234 H   0  0  0  0  0  0  0  0  0  0  0  0
   -0.3457   -0.0576    0.3067 C   0  0  1  0  0  0  0  0  0  0  0  0
    0.2721   -0.5086    1.0903 H   0  0  0  0  0  0  0  0  0  0  0  0
    0.3909   -0.2329   -1.0354 C   0  0  0  0  0  0  0  0  0  0  0  0
    1.2517    0.4421   -1.0550 H   0  0  0  0  0  0  0  0  0  0  0  0
    0.7782   -1.2551   -1.0961 H   0  0  0  0  0  0  0  0  0  0  0  0
   -0.4929    0.0189   -2.2658 C   0  0  0  0  0  0  0  0  0  0  0  0
   -1.1736   -0.8261   -2.4094 H   0  0  0  0  0  0  0  0  0  0  0  0
   -1.0999    0.9195   -2.1313 H   0  0  0  0  0  0  0  0  0  0  0  0
    0.5548    0.2243   -3.7611 S   0  0  0  0  0  0  0  0  0  0  0  0
    1.1043    1.9705   -3.6034 C   0  0  0  0  0  0  0  0  0  0  0  0
    1.6949    2.1074   -2.6934 H   0  0  0  0  0  0  0  0  0  0  0  0
    1.7205    2.2481   -4.4636 H   0  0  0  0  0  0  0  0  0  0  0  0
    0.2377    2.6372   -3.5637 H   0  0  0  0  0  0  0  0  0  0  0  0
   -0.4903    1.4351    0.6691 C   0  0  0  0  0  0  0  0  0  0  0  0
   -1.4104    2.0935    0.1971 O   0  0  0  0  0  0  0  0  0  0  0  0
    0.3547    2.0194    1.5945 N   0  0  0  0  0  0  0  0  0  0  0  0
    1.0612    1.4298    2.0260 H   0  0  0  0  0  0  0  0  0  0  0  0
    0.2149    3.3985    2.0463 C   0  0  0  0  0  0  0  0  0  0  0  0
   -0.7567    3.5468    2.5292 H   0  0  0  0  0  0  0  0  0  0  0  0
    1.0005    3.6421    2.7681 H   0  0  0  0  0  0  0  0  0  0  0  0
    0.2975    4.0892    1.2004 H   0  0  0  0  0  0  0  0  0  0  0  0
  1  2  1  0  0  0  0
  2  3  1  0  0  0  0
  2  4  1  0  0  0  0
  2  5  1  0  0  0  0
  5  6  2  0  0  0  0
  5  7  1  0  0  0  0
  7  8  1  0  0  0  0
  7  9  1  0  0  0  0
  9 10  1  0  0  0  0
  9 11  1  0  0  0  0
  9 22  1  0  0  0  0
 11 12  1  0  0  0  0
 11 13  1  0  0  0  0
 11 14  1  0  0  0  0
 14 15  1  0  0  0  0
 14 16  1  0  0  0  0
 14 17  1  0  0  0  0
 17 18  1  0  0  0  0
 18 19  1  0  0  0  0
 18 20  1  0  0  0  0
 18 21  1  0  0  0  0
 22 23  2  0  0  0  0
 22 24  1  0  0  0  0
 24 25  1  0  0  0  0
 24 26  1  0  0  0  0
 26 27  1  0  0  0  0
 26 28  1  0  0  0  0
 26 29  1  0  0  0  0
M  END
$$$$

  -OEChem-02102214153D

 29 28  0     1  0  0  0  0  0999 V2000
   -3.3662   -3.4408    1.3508 H   0  0  0  0  0  0  0  0  0  0  0  0
   -3.3390   -2.4734    0.8416 C   0  0  0  0  0  0  0  0  0  0  0  0
   -3.9960   -1.7787    1.3703 H   0  0  0  0  0  0  0  0  0  0  0  0
   -3.7029   -2.6027   -0.1806 H   0  0  0  0  0  0  0  0  0  0  0  0
   -1.9217   -1.9333    0.8210 C   0  0  0  0  0  0  0  0  0  0  0  0
   -1.0101   -2.5886    1.3001 O   0  0  0  0  0  0  0  0  0  0  0  0
   -1.6697   -0.6941    0.2708 N   0  0  0  0  0  0  0  0  0  0  0  0
   -2.4738   -0.1376   -0.0147 H   0  0  0  0  0  0  0  0  0  0  0  0
   -0.3643   -0.0174    0.2939 C   0  0  1  0  0  0  0  0  0  0  0  0
    0.2633   -0.4752    1.0655 H   0  0  0  0  0  0  0  0  0  0  0  0
    0.3548   -0.2026   -1.0557 C   0  0  0  0  0  0  0  0  0  0  0  0
    1.3359    0.2773   -0.9990 H   0  0  0  0  0  0  0  0  0  0  0  0
    0.5222   -1.2724   -1.2200 H   0  0  0  0  0  0  0  0  0  0  0  0
   -0.4168    0.3637   -2.2569 C   0  0  0  0  0  0  0  0  0  0  0  0
   -1.3872   -0.1348   -2.3426 H   0  0  0  0  0  0  0  0  0  0  0  0
   -0.5999    1.4355   -2.1339 H   0  0  0  0  0  0  0  0  0  0  0  0
    0.5360    0.0845   -3.8036 S   0  0  0  0  0  0  0  0  0  0  0  0
    1.8579    1.3561   -3.6976 C   0  0  0  0  0  0  0  0  0  0  0  0
    2.5095    1.1641   -2.8407 H   0  0  0  0  0  0  0  0  0  0  0  0
    2.4661    1.3385   -4.6068 H   0  0  0  0  0  0  0  0  0  0  0  0
    1.4174    2.3519   -3.5903 H   0  0  0  0  0  0  0  0  0  0  0  0
   -0.5092    1.4689    0.6806 C   0  0  0  0  0  0  0  0  0  0  0  0
   -1.4491    2.1262    0.2477 O   0  0  0  0  0  0  0  0  0  0  0  0
    0.3506    2.0416    1.5993 N   0  0  0  0  0  0  0  0  0  0  0  0
    1.0685    1.4485    2.0061 H   0  0  0  0  0  0  0  0  0  0  0  0
    0.2094    3.4101    2.0817 C   0  0  0  0  0  0  0  0  0  0  0  0
   -0.7612    3.5468    2.5700 H   0  0  0  0  0  0  0  0  0  0  0  0
    0.9963    3.6387    2.8068 H   0  0  0  0  0  0  0  0  0  0  0  0
    0.2889    4.1191    1.2508 H   0  0  0  0  0  0  0  0  0  0  0  0
  1  2  1  0  0  0  0
  2  3  1  0  0  0  0
  2  4  1  0  0  0  0
  2  5  1  0  0  0  0
  5  6  2  0  0  0  0
  5  7  1  0  0  0  0
  7  8  1  0  0  0  0
  7  9  1  0  0  0  0
  9 10  1  0  0  0  0
  9 11  1  0  0  0  0
  9 22  1  0  0  0  0
 11 12  1  0  0  0  0
 11 13  1  0  0  0  0
 11 14  1  0  0  0  0
 14 15  1  0  0  0  0
 14 16  1  0  0  0  0
 14 17  1  0  0  0  0
 17 18  1  0  0  0  0
 18 19  1  0  0  0  0
 18 20  1  0  0  0  0
 18 21  1  0  0  0  0
 22 23  2  0  0  0  0
 22 24  1  0  0  0  0
 24 25  1  0  0  0  0
 24 26  1  0  0  0  0
 26 27  1  0  0  0  0
 26 28  1  0  0  0  0
 26 29  1  0  0  0  0
M  END
$$$$

  -OEChem-02102214153D

 29 28  0     1  0  0  0  0  0999 V2000
   -3.3358   -3.4618    1.3296 H   0  0  0  0  0  0  0  0  0  0  0  0
   -3.3191   -2.4836    0.8410 C   0  0  0  0  0  0  0  0  0  0  0  0
   -3.9771   -1.8049    1.3892 H   0  0  0  0  0  0  0  0  0  0  0  0
   -3.6896   -2.5941   -0.1811 H   0  0  0  0  0  0  0  0  0  0  0  0
   -1.9058   -1.9328    0.8220 C   0  0  0  0  0  0  0  0  0  0  0  0
   -0.9893   -2.5811    1.3016 O   0  0  0  0  0  0  0  0  0  0  0  0
   -1.6635   -0.6912    0.2735 N   0  0  0  0  0  0  0  0  0  0  0  0
   -2.4708   -0.1435   -0.0194 H   0  0  0  0  0  0  0  0  0  0  0  0
   -0.3604   -0.0096    0.2841 C   0  0  1  0  0  0  0  0  0  0  0  0
    0.2818   -0.4692    1.0428 H   0  0  0  0  0  0  0  0  0  0  0  0
    0.3384   -0.1688   -1.0798 C   0  0  0  0  0  0  0  0  0  0  0  0
    1.3245    0.3029   -1.0389 H   0  0  0  0  0  0  0  0  0  0  0  0
    0.4928   -1.2384   -1.2577 H   0  0  0  0  0  0  0  0  0  0  0  0
   -0.4566    0.4156   -2.2585 C   0  0  0  0  0  0  0  0  0  0  0  0
   -1.5059    0.1135   -2.1940 H   0  0  0  0  0  0  0  0  0  0  0  0
   -0.4242    1.5098   -2.2357 H   0  0  0  0  0  0  0  0  0  0  0  0
    0.2183   -0.2009   -3.8534 S   0  0  0  0  0  0  0  0  0  0  0  0
    1.8510    0.6345   -3.9537 C   0  0  0  0  0  0  0  0  0  0  0  0
    2.5090    0.2877   -3.1520 H   0  0  0  0  0  0  0  0  0  0  0  0
    2.3259    0.4121   -4.9140 H   0  0  0  0  0  0  0  0  0  0  0  0
    1.7275    1.7181   -3.8671 H   0  0  0  0  0  0  0  0  0  0  0  0
   -0.5116    1.4742    0.6776 C   0  0  0  0  0  0  0  0  0  0  0  0
   -1.4502    2.1306    0.2403 O   0  0  0  0  0  0  0  0  0  0  0  0
    0.3527    2.0514    1.5895 N   0  0  0  0  0  0  0  0  0  0  0  0
    1.0699    1.4593    1.9990 H   0  0  0  0  0  0  0  0  0  0  0  0
    0.2065    3.4190    2.0734 C   0  0  0  0  0  0  0  0  0  0  0  0
   -0.7514    3.5429    2.5897 H   0  0  0  0  0  0  0  0  0  0  0  0
    1.0111    3.6603    2.7748 H   0  0  0  0  0  0  0  0  0  0  0  0
    0.2517    4.1277    1.2397 H   0  0  0  0  0  0  0  0  0  0  0  0
  1  2  1  0  0  0  0
  2  3  1  0  0  0  0
  2  4  1  0  0  0  0
  2  5  1  0  0  0  0
  5  6  2  0  0  0  0
  5  7  1  0  0  0  0
  7  8  1  0  0  0  0
  7  9  1  0  0  0  0
  9 10  1  0  0  0  0
  9 11  1  0  0  0  0
  9 22  1  0  0  0  0
 11 12  1  0  0  0  0
 11 13  1  0  0  0  0
 11 14  1  0  0  0  0
 14 15  1  0  0  0  0
 14 16  1  0  0  0  0
 14 17  1  0  0  0  0
 17 18  1  0  0  0  0
 18 19  1  0  0  0  0
 18 20  1  0  0  0  0
 18 21  1  0  0  0  0
 22 23  2  0  0  0  0
 22 24  1  0  0  0  0
 24 25  1  0  0  0  0
 24 26  1  0  0  0  0
 26 27  1  0  0  0  0
 26 28  1  0  0  0  0
 26 29  1  0  0  0  0
M  END
$$$$

  -OEChem-02102214153D

 29 28  0     1  0  0  0  0  0999 V2000
   -3.3086   -3.4716    1.3180 H   0  0  0  0  0  0  0  0  0  0  0  0
   -3.3000   -2.4937    0.8285 C   0  0  0  0  0  0  0  0  0  0  0  0
   -3.9617   -1.8191    1.3771 H   0  0  0  0  0  0  0  0  0  0  0  0
   -3.6713   -2.6076   -0.1929 H   0  0  0  0  0  0  0  0  0  0  0  0
   -1.8908   -1.9333    0.8068 C   0  0  0  0  0  0  0  0  0  0  0  0
   -0.9686   -2.5780    1.2804 O   0  0  0  0  0  0  0  0  0  0  0  0
   -1.6586   -0.6859    0.2670 N   0  0  0  0  0  0  0  0  0  0  0  0
   -2.4696   -0.1448   -0.0275 H   0  0  0  0  0  0  0  0  0  0  0  0
   -0.3582    0.0014    0.2730 C   0  0  1  0  0  0  0  0  0  0  0  0
    0.2937   -0.4635    1.0198 H   0  0  0  0  0  0  0  0  0  0  0  0
    0.3274   -0.1355   -1.0998 C   0  0  0  0  0  0  0  0  0  0  0  0
    1.3165    0.3314   -1.0688 H   0  0  0  0  0  0  0  0  0  0  0  0
    0.4760   -1.2046   -1.2855 H   0  0  0  0  0  0  0  0  0  0  0  0
   -0.4788    0.4611   -2.2668 C   0  0  0  0  0  0  0  0  0  0  0  0
   -1.5523    0.3859   -2.0715 H   0  0  0  0  0  0  0  0  0  0  0  0
   -0.2423    1.5239   -2.3826 H   0  0  0  0  0  0  0  0  0  0  0  0
   -0.1280   -0.4474   -3.8263 S   0  0  0  0  0  0  0  0  0  0  0  0
    1.6520   -0.0903   -4.1043 C   0  0  0  0  0  0  0  0  0  0  0  0
    2.2579   -0.5140   -3.2983 H   0  0  0  0  0  0  0  0  0  0  0  0
    1.9773   -0.5289   -5.0522 H   0  0  0  0  0  0  0  0  0  0  0  0
    1.8199    0.9901   -4.1424 H   0  0  0  0  0  0  0  0  0  0  0  0
   -0.5111    1.4813    0.6803 C   0  0  0  0  0  0  0  0  0  0  0  0
   -1.4475    2.1423    0.2454 O   0  0  0  0  0  0  0  0  0  0  0  0
    0.3585    2.0539    1.5900 N   0  0  0  0  0  0  0  0  0  0  0  0
    1.0740    1.4579    1.9968 H   0  0  0  0  0  0  0  0  0  0  0  0
    0.2188    3.4209    2.0779 C   0  0  0  0  0  0  0  0  0  0  0  0
   -0.7359    3.5463    2.5996 H   0  0  0  0  0  0  0  0  0  0  0  0
    1.0281    3.6584    2.7751 H   0  0  0  0  0  0  0  0  0  0  0  0
    0.2618    4.1311    1.2453 H   0  0  0  0  0  0  0  0  0  0  0  0
  1  2  1  0  0  0  0
  2  3  1  0  0  0  0
  2  4  1  0  0  0  0
  2  5  1  0  0  0  0
  5  6  2  0  0  0  0
  5  7  1  0  0  0  0
  7  8  1  0  0  0  0
  7  9  1  0  0  0  0
  9 10  1  0  0  0  0
  9 11  1  0  0  0  0
  9 22  1  0  0  0  0
 11 12  1  0  0  0  0
 11 13  1  0  0  0  0
 11 14  1  0  0  0  0
 14 15  1  0  0  0  0
 14 16  1  0  0  0  0
 14 17  1  0  0  0  0
 17 18  1  0  0  0  0
 18 19  1  0  0  0  0
 18 20  1  0  0  0  0
 18 21  1  0  0  0  0
 22 23  2  0  0  0  0
 22 24  1  0  0  0  0
 24 25  1  0  0  0  0
 24 26  1  0  0  0  0
 26 27  1  0  0  0  0
 26 28  1  0  0  0  0
 26 29  1  0  0  0  0
M  END
$$$$

  -OEChem-02102214153D

 29 28  0     1  0  0  0  0  0999 V2000
   -3.3086   -3.4757    1.2781 H   0  0  0  0  0  0  0  0  0  0  0  0
   -3.2956   -2.4970    0.7902 C   0  0  0  0  0  0  0  0  0  0  0  0
   -3.9797   -1.8299    1.3202 H   0  0  0  0  0  0  0  0  0  0  0  0
   -3.6366   -2.6127   -0.2416 H   0  0  0  0  0  0  0  0  0  0  0  0
   -1.8919   -1.9225    0.8087 C   0  0  0  0  0  0  0  0  0  0  0  0
   -0.9767   -2.5578    1.3082 O   0  0  0  0  0  0  0  0  0  0  0  0
   -1.6562   -0.6749    0.2712 N   0  0  0  0  0  0  0  0  0  0  0  0
   -2.4611   -0.1480   -0.0624 H   0  0  0  0  0  0  0  0  0  0  0  0
   -0.3565    0.0134    0.2834 C   0  0  1  0  0  0  0  0  0  0  0  0
    0.2918   -0.4518    1.0331 H   0  0  0  0  0  0  0  0  0  0  0  0
    0.3306   -0.1351   -1.0874 C   0  0  0  0  0  0  0  0  0  0  0  0
    1.3193    0.3333   -1.0584 H   0  0  0  0  0  0  0  0  0  0  0  0
    0.4847   -1.2055   -1.2596 H   0  0  0  0  0  0  0  0  0  0  0  0
   -0.4726    0.4535   -2.2635 C   0  0  0  0  0  0  0  0  0  0  0  0
   -1.5109    0.6370   -1.9721 H   0  0  0  0  0  0  0  0  0  0  0  0
   -0.0463    1.4173   -2.5594 H   0  0  0  0  0  0  0  0  0  0  0  0
   -0.4849   -0.7012   -3.6949 S   0  0  0  0  0  0  0  0  0  0  0  0
    1.2859   -0.7453   -4.1816 C   0  0  0  0  0  0  0  0  0  0  0  0
    1.8969   -1.1528   -3.3710 H   0  0  0  0  0  0  0  0  0  0  0  0
    1.4145   -1.3769   -5.0655 H   0  0  0  0  0  0  0  0  0  0  0  0
    1.6390    0.2630   -4.4170 H   0  0  0  0  0  0  0  0  0  0  0  0
   -0.5021    1.4946    0.6900 C   0  0  0  0  0  0  0  0  0  0  0  0
   -1.4317    2.1639    0.2536 O   0  0  0  0  0  0  0  0  0  0  0  0
    0.3693    2.0605    1.6022 N   0  0  0  0  0  0  0  0  0  0  0  0
    1.0800    1.4590    2.0092 H   0  0  0  0  0  0  0  0  0  0  0  0
    0.2367    3.4270    2.0932 C   0  0  0  0  0  0  0  0  0  0  0  0
   -0.7183    3.5567    2.6132 H   0  0  0  0  0  0  0  0  0  0  0  0
    1.0459    3.6578    2.7927 H   0  0  0  0  0  0  0  0  0  0  0  0
    0.2853    4.1394    1.2628 H   0  0  0  0  0  0  0  0  0  0  0  0
  1  2  1  0  0  0  0
  2  3  1  0  0  0  0
  2  4  1  0  0  0  0
  2  5  1  0  0  0  0
  5  6  2  0  0  0  0
  5  7  1  0  0  0  0
  7  8  1  0  0  0  0
  7  9  1  0  0  0  0
  9 10  1  0  0  0  0
  9 11  1  0  0  0  0
  9 22  1  0  0  0  0
 11 12  1  0  0  0  0
 11 13  1  0  0  0  0
 11 14  1  0  0  0  0
 14 15  1  0  0  0  0
 14 16  1  0  0  0  0
 14 17  1  0  0  0  0
 17 18  1  0  0  0  0
 18 19  1  0  0  0  0
 18 20  1  0  0  0  0
 18 21  1  0  0  0  0
 22 23  2  0  0  0  0
 22 24  1  0  0  0  0
 24 25  1  0  0  0  0
 24 26  1  0  0  0  0
 26 27  1  0  0  0  0
 26 28  1  0  0  0  0
 26 29  1  0  0  0  0
M  END
$$$$

  -OEChem-02102214153D

 29 28  0     1  0  0  0  0  0999 V2000
   -3.3136   -3.4803    1.2303 H   0  0  0  0  0  0  0  0  0  0  0  0
   -3.2939   -2.5020    0.7420 C   0  0  0  0  0  0  0  0  0  0  0  0
   -4.0131   -1.8460    1.2382 H   0  0  0  0  0  0  0  0  0  0  0  0
   -3.5840   -2.6250   -0.3044 H   0  0  0  0  0  0  0  0  0  0  0  0
   -1.9022   -1.9039    0.8243 C   0  0  0  0  0  0  0  0  0  0  0  0
   -1.0001   -2.5240    1.3655 O   0  0  0  0  0  0  0  0  0  0  0  0
   -1.6609   -0.6575    0.2868 N   0  0  0  0  0  0  0  0  0  0  0  0
   -2.4530   -0.1550   -0.1086 H   0  0  0  0  0  0  0  0  0  0  0  0
   -0.3624    0.0319    0.3065 C   0  0  1  0  0  0  0  0  0  0  0  0
    0.2766   -0.4306    1.0660 H   0  0  0  0  0  0  0  0  0  0  0  0
    0.3326   -0.1509   -1.0561 C   0  0  0  0  0  0  0  0  0  0  0  0
    1.3124    0.3357   -1.0245 H   0  0  0  0  0  0  0  0  0  0  0  0
    0.5098   -1.2212   -1.2031 H   0  0  0  0  0  0  0  0  0  0  0  0
   -0.4623    0.4109   -2.2520 C   0  0  0  0  0  0  0  0  0  0  0  0
   -1.4022    0.8624   -1.9222 H   0  0  0  0  0  0  0  0  0  0  0  0
    0.1179    1.1979   -2.7439 H   0  0  0  0  0  0  0  0  0  0  0  0
   -0.8530   -0.9157   -3.4644 S   0  0  0  0  0  0  0  0  0  0  0  0
    0.7978   -1.3095   -4.1674 C   0  0  0  0  0  0  0  0  0  0  0  0
    1.4722   -1.6700   -3.3855 H   0  0  0  0  0  0  0  0  0  0  0  0
    0.7020   -2.0871   -4.9310 H   0  0  0  0  0  0  0  0  0  0  0  0
    1.2360   -0.4190   -4.6279 H   0  0  0  0  0  0  0  0  0  0  0  0
   -0.4950    1.5168    0.7073 C   0  0  0  0  0  0  0  0  0  0  0  0
   -1.4162    2.1972    0.2708 O   0  0  0  0  0  0  0  0  0  0  0  0
    0.3802    2.0745    1.6212 N   0  0  0  0  0  0  0  0  0  0  0  0
    1.0818    1.4654    2.0327 H   0  0  0  0  0  0  0  0  0  0  0  0
    0.2603    3.4429    2.1102 C   0  0  0  0  0  0  0  0  0  0  0  0
   -0.7021    3.5882    2.6122 H   0  0  0  0  0  0  0  0  0  0  0  0
    1.0596    3.6605    2.8251 H   0  0  0  0  0  0  0  0  0  0  0  0
    0.3362    4.1538    1.2806 H   0  0  0  0  0  0  0  0  0  0  0  0
  1  2  1  0  0  0  0
  2  3  1  0  0  0  0
  2  4  1  0  0  0  0
  2  5  1  0  0  0  0
  5  6  2  0  0  0  0
  5  7  1  0  0  0  0
  7  8  1  0  0  0  0
  7  9  1  0  0  0  0
  9 10  1  0  0  0  0
  9 11  1  0  0  0  0
  9 22  1  0  0  0  0
 11 12  1  0  0  0  0
 11 13  1  0  0  0  0
 11 14  1  0  0  0  0
 14 15  1  0  0  0  0
 14 16  1  0  0  0  0
 14 17  1  0  0  0  0
 17 18  1  0  0  0  0
 18 19  1  0  0  0  0
 18 20  1  0  0  0  0
 18 21  1  0  0  0  0
 22 23  2  0  0  0  0
 22 24  1  0  0  0  0
 24 25  1  0  0  0  0
 24 26  1  0  0  0  0
 26 27  1  0  0  0  0
 26 28  1  0  0  0  0
 26 29  1  0  0  0  0
M  END
$$$$

  -OEChem-02102214153D

 29 28  0     1  0  0  0  0  0999 V2000
   -3.3056   -3.4828    1.1841 H   0  0  0  0  0  0  0  0  0  0  0  0
   -3.2840   -2.4998    0.7056 C   0  0  0  0  0  0  0  0  0  0  0  0
   -4.0294   -1.8588    1.1824 H   0  0  0  0  0  0  0  0  0  0  0  0
   -3.5359   -2.6164   -0.3514 H   0  0  0  0  0  0  0  0  0  0  0  0
   -1.9057   -1.8816    0.8410 C   0  0  0  0  0  0  0  0  0  0  0  0
   -1.0161   -2.4864    1.4195 O   0  0  0  0  0  0  0  0  0  0  0  0
   -1.6615   -0.6370    0.3015 N   0  0  0  0  0  0  0  0  0  0  0  0
   -2.4342   -0.1693   -0.1677 H   0  0  0  0  0  0  0  0  0  0  0  0
   -0.3645    0.0531    0.3227 C   0  0  1  0  0  0  0  0  0  0  0  0
    0.2684   -0.4050    1.0895 H   0  0  0  0  0  0  0  0  0  0  0  0
    0.3344   -0.1612   -1.0336 C   0  0  0  0  0  0  0  0  0  0  0  0
    1.3045    0.3449   -1.0021 H   0  0  0  0  0  0  0  0  0  0  0  0
    0.5344   -1.2296   -1.1609 H   0  0  0  0  0  0  0  0  0  0  0  0
   -0.4531    0.3741   -2.2460 C   0  0  0  0  0  0  0  0  0  0  0  0
   -1.2322    1.0758   -1.9375 H   0  0  0  0  0  0  0  0  0  0  0  0
    0.2264    0.9186   -2.9092 H   0  0  0  0  0  0  0  0  0  0  0  0
   -1.2242   -1.0039   -3.1913 S   0  0  0  0  0  0  0  0  0  0  0  0
    0.2174   -1.7746   -4.0302 C   0  0  0  0  0  0  0  0  0  0  0  0
    0.9327   -2.1547   -3.2954 H   0  0  0  0  0  0  0  0  0  0  0  0
   -0.1158   -2.6089   -4.6545 H   0  0  0  0  0  0  0  0  0  0  0  0
    0.7216   -1.0414   -4.6666 H   0  0  0  0  0  0  0  0  0  0  0  0
   -0.4880    1.5408    0.7179 C   0  0  0  0  0  0  0  0  0  0  0  0
   -1.4068    2.2273    0.2866 O   0  0  0  0  0  0  0  0  0  0  0  0
    0.3915    2.0937    1.6310 N   0  0  0  0  0  0  0  0  0  0  0  0
    1.0828    1.4773    2.0492 H   0  0  0  0  0  0  0  0  0  0  0  0
    0.2700    3.4576    2.1321 C   0  0  0  0  0  0  0  0  0  0  0  0
   -0.6916    3.5962    2.6376 H   0  0  0  0  0  0  0  0  0  0  0  0
    1.0705    3.6709    2.8471 H   0  0  0  0  0  0  0  0  0  0  0  0
    0.3420    4.1762    1.3089 H   0  0  0  0  0  0  0  0  0  0  0  0
  1  2  1  0  0  0  0
  2  3  1  0  0  0  0
  2  4  1  0  0  0  0
  2  5  1  0  0  0  0
  5  6  2  0  0  0  0
  5  7  1  0  0  0  0
  7  8  1  0  0  0  0
  7  9  1  0  0  0  0
  9 10  1  0  0  0  0
  9 11  1  0  0  0  0
  9 22  1  0  0  0  0
 11 12  1  0  0  0  0
 11 13  1  0  0  0  0
 11 14  1  0  0  0  0
 14 15  1  0  0  0  0
 14 16  1  0  0  0  0
 14 17  1  0  0  0  0
 17 18  1  0  0  0  0
 18 19  1  0  0  0  0
 18 20  1  0  0  0  0
 18 21  1  0  0  0  0
 22 23  2  0  0  0  0
 22 24  1  0  0  0  0
 24 25  1  0  0  0  0
 24 26  1  0  0  0  0
 26 27  1  0  0  0  0
 26 28  1  0  0  0  0
 26 29  1  0  0  0  0
M  END
$$$$

  -OEChem-02102214153D

 29 28  0     1  0  0  0  0  0999 V2000
   -3.2961   -3.4902    1.1658 H   0  0  0  0  0  0  0  0  0  0  0  0
   -3.2747   -2.5048    0.6926 C   0  0  0  0  0  0  0  0  0  0  0  0
   -4.0363   -1.8736    1.1565 H   0  0  0  0  0  0  0  0  0  0  0  0
   -3.5032   -2.6186   -0.3701 H   0  0  0  0  0  0  0  0  0  0  0  0
   -1.9061   -1.8727    0.8602 C   0  0  0  0  0  0  0  0  0  0  0  0
   -1.0247   -2.4680    1.4610 O   0  0  0  0  0  0  0  0  0  0  0  0
   -1.6595   -0.6303    0.3172 N   0  0  0  0  0  0  0  0  0  0  0  0
   -2.4151   -0.1894   -0.2039 H   0  0  0  0  0  0  0  0  0  0  0  0
   -0.3616    0.0565    0.3313 C   0  0  1  0  0  0  0  0  0  0  0  0
    0.2721   -0.4001    1.0982 H   0  0  0  0  0  0  0  0  0  0  0  0
    0.3379   -0.1610   -1.0259 C   0  0  0  0  0  0  0  0  0  0  0  0
    1.3039    0.3522   -0.9899 H   0  0  0  0  0  0  0  0  0  0  0  0
    0.5461   -1.2270   -1.1541 H   0  0  0  0  0  0  0  0  0  0  0  0
   -0.4405    0.3692   -2.2463 C   0  0  0  0  0  0  0  0  0  0  0  0
   -1.0150    1.2635   -1.9914 H   0  0  0  0  0  0  0  0  0  0  0  0
    0.2718    0.6582   -3.0254 H   0  0  0  0  0  0  0  0  0  0  0  0
   -1.5679   -0.9112   -2.9421 S   0  0  0  0  0  0  0  0  0  0  0  0
   -0.4155   -2.0833   -3.7630 C   0  0  0  0  0  0  0  0  0  0  0  0
    0.2460   -2.5517   -3.0290 H   0  0  0  0  0  0  0  0  0  0  0  0
   -0.9825   -2.8694   -4.2705 H   0  0  0  0  0  0  0  0  0  0  0  0
    0.1945   -1.5587   -4.5043 H   0  0  0  0  0  0  0  0  0  0  0  0
   -0.4857    1.5449    0.7239 C   0  0  0  0  0  0  0  0  0  0  0  0
   -1.4016    2.2332    0.2892 O   0  0  0  0  0  0  0  0  0  0  0  0
    0.3960    2.1007    1.6330 N   0  0  0  0  0  0  0  0  0  0  0  0
    1.0843    1.4847    2.0561 H   0  0  0  0  0  0  0  0  0  0  0  0
    0.2742    3.4666    2.1286 C   0  0  0  0  0  0  0  0  0  0  0  0
   -0.6833    3.6040    2.6421 H   0  0  0  0  0  0  0  0  0  0  0  0
    1.0804    3.6871    2.8349 H   0  0  0  0  0  0  0  0  0  0  0  0
    0.3358    4.1810    1.3008 H   0  0  0  0  0  0  0  0  0  0  0  0
  1  2  1  0  0  0  0
  2  3  1  0  0  0  0
  2  4  1  0  0  0  0
  2  5  1  0  0  0  0
  5  6  2  0  0  0  0
  5  7  1  0  0  0  0
  7  8  1  0  0  0  0
  7  9  1  0  0  0  0
  9 10  1  0  0  0  0
  9 11  1  0  0  0  0
  9 22  1  0  0  0  0
 11 12  1  0  0  0  0
 11 13  1  0  0  0  0
 11 14  1  0  0  0  0
 14 15  1  0  0  0  0
 14 16  1  0  0  0  0
 14 17  1  0  0  0  0
 17 18  1  0  0  0  0
 18 19  1  0  0  0  0
 18 20  1  0  0  0  0
 18 21  1  0  0  0  0
 22 23  2  0  0  0  0
 22 24  1  0  0  0  0
 24 25  1  0  0  0  0
 24 26  1  0  0  0  0
 26 27  1  0  0  0  0
 26 28  1  0  0  0  0
 26 29  1  0  0  0  0
M  END
$$$$

  -OEChem-02102214153D

 29 28  0     1  0  0  0  0  0999 V2000
   -3.2654   -3.5163    1.0946 H   0  0  0  0  0  0  0  0  0  0  0  0
   -3.2524   -2.5228    0.6381 C   0  0  0  0  0  0  0  0  0  0  0  0
   -4.0083   -1.9014    1.1241 H   0  0  0  0  0  0  0  0  0  0  0  0
   -3.4968   -2.6180   -0.4227 H   0  0  0  0  0  0  0  0  0  0  0  0
   -1.8828   -1.8909    0.7962 C   0  0  0  0  0  0  0  0  0  0  0  0
   -0.9869   -2.5015    1.3587 O   0  0  0  0  0  0  0  0  0  0  0  0
   -1.6465   -0.6384    0.2736 N   0  0  0  0  0  0  0  0  0  0  0  0
   -2.4060   -0.1955   -0.2415 H   0  0  0  0  0  0  0  0  0  0  0  0
   -0.3528    0.0544    0.2817 C   0  0  1  0  0  0  0  0  0  0  0  0
    0.2915   -0.4121    1.0338 H   0  0  0  0  0  0  0  0  0  0  0  0
    0.3479   -0.1108   -1.0843 C   0  0  0  0  0  0  0  0  0  0  0  0
    1.3102    0.4082   -1.0309 H   0  0  0  0  0  0  0  0  0  0  0  0
    0.5690   -1.1694   -1.2429 H   0  0  0  0  0  0  0  0  0  0  0  0
   -0.4207    0.4438   -2.3024 C   0  0  0  0  0  0  0  0  0  0  0  0
   -0.7764    1.4577   -2.0965 H   0  0  0  0  0  0  0  0  0  0  0  0
    0.2736    0.5138   -3.1455 H   0  0  0  0  0  0  0  0  0  0  0  0
   -1.8467   -0.6028   -2.8301 S   0  0  0  0  0  0  0  0  0  0  0  0
   -1.0955   -2.2383   -3.2015 C   0  0  0  0  0  0  0  0  0  0  0  0
   -0.7399   -2.7156   -2.2838 H   0  0  0  0  0  0  0  0  0  0  0  0
   -1.8388   -2.8937   -3.6649 H   0  0  0  0  0  0  0  0  0  0  0  0
   -0.2536   -2.1223   -3.8903 H   0  0  0  0  0  0  0  0  0  0  0  0
   -0.4886    1.5333    0.7036 C   0  0  0  0  0  0  0  0  0  0  0  0
   -1.4089    2.2229    0.2808 O   0  0  0  0  0  0  0  0  0  0  0  0
    0.3994    2.0801    1.6123 N   0  0  0  0  0  0  0  0  0  0  0  0
    1.0891    1.4579    2.0238 H   0  0  0  0  0  0  0  0  0  0  0  0
    0.2746    3.4351    2.1362 C   0  0  0  0  0  0  0  0  0  0  0  0
   -0.6466    3.5367    2.7196 H   0  0  0  0  0  0  0  0  0  0  0  0
    1.1241    3.6691    2.7851 H   0  0  0  0  0  0  0  0  0  0  0  0
    0.2560    4.1636    1.3187 H   0  0  0  0  0  0  0  0  0  0  0  0
  1  2  1  0  0  0  0
  2  3  1  0  0  0  0
  2  4  1  0  0  0  0
  2  5  1  0  0  0  0
  5  6  2  0  0  0  0
  5  7  1  0  0  0  0
  7  8  1  0  0  0  0
  7  9  1  0  0  0  0
  9 10  1  0  0  0  0
  9 11  1  0  0  0  0
  9 22  1  0  0  0  0
 11 12  1  0  0  0  0
 11 13  1  0  0  0  0
 11 14  1  0  0  0  0
 14 15  1  0  0  0  0
 14 16  1  0  0  0  0
 14 17  1  0  0  0  0
 17 18  1  0  0  0  0
 18 19  1  0  0  0  0
 18 20  1  0  0  0  0
 18 21  1  0  0  0  0
 22 23  2  0  0  0  0
 22 24  1  0  0  0  0
 24 25  1  0  0  0  0
 24 26  1  0  0  0  0
 26 27  1  0  0  0  0
 26 28  1  0  0  0  0
 26 29  1  0  0  0  0
M  END
$$$$

  -OEChem-02102214153D

 29 28  0     1  0  0  0  0  0999 V2000
   -3.3106   -3.5092    1.2418 H   0  0  0  0  0  0  0  0  0  0  0  0
   -3.2926   -2.5236    0.7687 C   0  0  0  0  0  0  0  0  0  0  0  0
   -4.0246   -1.8809    1.2638 H   0  0  0  0  0  0  0  0  0  0  0  0
   -3.5662   -2.6314   -0.2838 H   0  0  0  0  0  0  0  0  0  0  0  0
   -1.9094   -1.9125    0.8832 C   0  0  0  0  0  0  0  0  0  0  0  0
   -1.0104   -2.5274    1.4355 O   0  0  0  0  0  0  0  0  0  0  0  0
   -1.6664   -0.6730    0.3347 N   0  0  0  0  0  0  0  0  0  0  0  0
   -2.4291   -0.2261   -0.1738 H   0  0  0  0  0  0  0  0  0  0  0  0
   -0.3693    0.0114    0.3180 C   0  0  1  0  0  0  0  0  0  0  0  0
    0.2780   -0.4454    1.0733 H   0  0  0  0  0  0  0  0  0  0  0  0
    0.3404   -0.1430   -1.0474 C   0  0  0  0  0  0  0  0  0  0  0  0
    1.3130    0.3553   -0.9833 H   0  0  0  0  0  0  0  0  0  0  0  0
    0.5382   -1.2072   -1.2065 H   0  0  0  0  0  0  0  0  0  0  0  0
   -0.3921    0.4082   -2.2925 C   0  0  0  0  0  0  0  0  0  0  0  0
   -0.5270    1.4885   -2.1761 H   0  0  0  0  0  0  0  0  0  0  0  0
    0.2479    0.2565   -3.1672 H   0  0  0  0  0  0  0  0  0  0  0  0
   -2.0410   -0.3402   -2.6465 S   0  0  0  0  0  0  0  0  0  0  0  0
   -1.6259   -2.1034   -2.9531 C   0  0  0  0  0  0  0  0  0  0  0  0
   -1.2120   -2.5629   -2.0510 H   0  0  0  0  0  0  0  0  0  0  0  0
   -2.5251   -2.6547   -3.2432 H   0  0  0  0  0  0  0  0  0  0  0  0
   -0.8906   -2.1850   -3.7590 H   0  0  0  0  0  0  0  0  0  0  0  0
   -0.5068    1.4969    0.7129 C   0  0  0  0  0  0  0  0  0  0  0  0
   -1.4185    2.1811    0.2636 O   0  0  0  0  0  0  0  0  0  0  0  0
    0.3834    2.0657    1.6058 N   0  0  0  0  0  0  0  0  0  0  0  0
    1.0766    1.4563    2.0304 H   0  0  0  0  0  0  0  0  0  0  0  0
    0.2746    3.4427    2.0727 C   0  0  0  0  0  0  0  0  0  0  0  0
   -0.6754    3.5962    2.5954 H   0  0  0  0  0  0  0  0  0  0  0  0
    1.0912    3.6742    2.7632 H   0  0  0  0  0  0  0  0  0  0  0  0
    0.3288    4.1386    1.2289 H   0  0  0  0  0  0  0  0  0  0  0  0
  1  2  1  0  0  0  0
  2  3  1  0  0  0  0
  2  4  1  0  0  0  0
  2  5  1  0  0  0  0
  5  6  2  0  0  0  0
  5  7  1  0  0  0  0
  7  8  1  0  0  0  0
  7  9  1  0  0  0  0
  9 10  1  0  0  0  0
  9 11  1  0  0  0  0
  9 22  1  0  0  0  0
 11 12  1  0  0  0  0
 11 13  1  0  0  0  0
 11 14  1  0  0  0  0
 14 15  1  0  0  0  0
 14 16  1  0  0  0  0
 14 17  1  0  0  0  0
 17 18  1  0  0  0  0
 18 19  1  0  0  0  0
 18 20  1  0  0  0  0
 18 21  1  0  0  0  0
 22 23  2  0  0  0  0
 22 24  1  0  0  0  0
 24 25  1  0  0  0  0
 24 26  1  0  0  0  0
 26 27  1  0  0  0  0
 26 28  1  0  0  0  0
 26 29  1  0  0  0  0
M  END
$$$$

  -OEChem-02102214153D

 29 28  0     1  0  0  0  0  0999 V2000
   -3.3163   -3.4890    1.4647 H   0  0  0  0  0  0  0  0  0  0  0  0
   -3.3056   -2.5202    0.9578 C   0  0  0  0  0  0  0  0  0  0  0  0
   -4.0156   -1.8546    1.4545 H   0  0  0  0  0  0  0  0  0  0  0  0
   -3.6147   -2.6612   -0.0806 H   0  0  0  0  0  0  0  0  0  0  0  0
   -1.9140   -1.9190    1.0070 C   0  0  0  0  0  0  0  0  0  0  0  0
   -1.0011   -2.5290    1.5417 O   0  0  0  0  0  0  0  0  0  0  0  0
   -1.6812   -0.6913    0.4280 N   0  0  0  0  0  0  0  0  0  0  0  0
   -2.4590   -0.2395   -0.0537 H   0  0  0  0  0  0  0  0  0  0  0  0
   -0.3859   -0.0053    0.3751 C   0  0  1  0  0  0  0  0  0  0  0  0
    0.2710   -0.4459    1.1318 H   0  0  0  0  0  0  0  0  0  0  0  0
    0.3190   -0.1698   -0.9922 C   0  0  0  0  0  0  0  0  0  0  0  0
    1.3014    0.3095   -0.9353 H   0  0  0  0  0  0  0  0  0  0  0  0
    0.4942   -1.2410   -1.1326 H   0  0  0  0  0  0  0  0  0  0  0  0
   -0.3928    0.3516   -2.2645 C   0  0  0  0  0  0  0  0  0  0  0  0
   -0.3111    1.4437   -2.2663 H   0  0  0  0  0  0  0  0  0  0  0  0
    0.1445   -0.0133   -3.1454 H   0  0  0  0  0  0  0  0  0  0  0  0
   -2.1824   -0.0507   -2.4513 S   0  0  0  0  0  0  0  0  0  0  0  0
   -2.1084   -1.8452   -2.8361 C   0  0  0  0  0  0  0  0  0  0  0  0
   -1.6159   -2.3906   -2.0260 H   0  0  0  0  0  0  0  0  0  0  0  0
   -3.1190   -2.2441   -2.9639 H   0  0  0  0  0  0  0  0  0  0  0  0
   -1.5481   -2.0099   -3.7612 H   0  0  0  0  0  0  0  0  0  0  0  0
   -0.5205    1.4885    0.7401 C   0  0  0  0  0  0  0  0  0  0  0  0
   -1.4411    2.1626    0.2950 O   0  0  0  0  0  0  0  0  0  0  0  0
    0.3836    2.0773    1.6060 N   0  0  0  0  0  0  0  0  0  0  0  0
    1.0918    1.4804    2.0236 H   0  0  0  0  0  0  0  0  0  0  0  0
    0.2818    3.4643    2.0447 C   0  0  0  0  0  0  0  0  0  0  0  0
   -0.6771    3.6394    2.5439 H   0  0  0  0  0  0  0  0  0  0  0  0
    1.0859    3.6993    2.7488 H   0  0  0  0  0  0  0  0  0  0  0  0
    0.3622    4.1432    1.1891 H   0  0  0  0  0  0  0  0  0  0  0  0
  1  2  1  0  0  0  0
  2  3  1  0  0  0  0
  2  4  1  0  0  0  0
  2  5  1  0  0  0  0
  5  6  2  0  0  0  0
  5  7  1  0  0  0  0
  7  8  1  0  0  0  0
  7  9  1  0  0  0  0
  9 10  1  0  0  0  0
  9 11  1  0  0  0  0
  9 22  1  0  0  0  0
 11 12  1  0  0  0  0
 11 13  1  0  0  0  0
 11 14  1  0  0  0  0
 14 15  1  0  0  0  0
 14 16  1  0  0  0  0
 14 17  1  0  0  0  0
 17 18  1  0  0  0  0
 18 19  1  0  0  0  0
 18 20  1  0  0  0  0
 18 21  1  0  0  0  0
 22 23  2  0  0  0  0
 22 24  1  0  0  0  0
 24 25  1  0  0  0  0
 24 26  1  0  0  0  0
 26 27  1  0  0  0  0
 26 28  1  0  0  0  0
 26 29  1  0  0  0  0
M  END
$$$$

  -OEChem-02102214153D

 29 28  0     1  0  0  0  0  0999 V2000
   -3.2731   -3.4621    1.6531 H   0  0  0  0  0  0  0  0  0  0  0  0
   -3.2810   -2.5056    1.1232 C   0  0  0  0  0  0  0  0  0  0  0  0
   -3.9608   -1.8228    1.6386 H   0  0  0  0  0  0  0  0  0  0  0  0
   -3.6430   -2.6684    0.1054 H   0  0  0  0  0  0  0  0  0  0  0  0
   -1.8843   -1.9150    1.0888 C   0  0  0  0  0  0  0  0  0  0  0  0
   -0.9466   -2.5309    1.5708 O   0  0  0  0  0  0  0  0  0  0  0  0
   -1.6777   -0.6870    0.5005 N   0  0  0  0  0  0  0  0  0  0  0  0
   -2.4820   -0.2157    0.0857 H   0  0  0  0  0  0  0  0  0  0  0  0
   -0.3913    0.0127    0.4117 C   0  0  1  0  0  0  0  0  0  0  0  0
    0.2792   -0.4166    1.1631 H   0  0  0  0  0  0  0  0  0  0  0  0
    0.3003   -0.1713   -0.9592 C   0  0  0  0  0  0  0  0  0  0  0  0
    1.2850    0.3052   -0.9201 H   0  0  0  0  0  0  0  0  0  0  0  0
    0.4728   -1.2467   -1.0717 H   0  0  0  0  0  0  0  0  0  0  0  0
   -0.4106    0.3040   -2.2512 C   0  0  0  0  0  0  0  0  0  0  0  0
   -0.1248    1.3496   -2.4060 H   0  0  0  0  0  0  0  0  0  0  0  0
   -0.0233   -0.2632   -3.1032 H   0  0  0  0  0  0  0  0  0  0  0  0
   -2.2529    0.2700   -2.2864 S   0  0  0  0  0  0  0  0  0  0  0  0
   -2.5604   -1.4894   -2.7140 C   0  0  0  0  0  0  0  0  0  0  0  0
   -2.0707   -2.1491   -1.9919 H   0  0  0  0  0  0  0  0  0  0  0  0
   -3.6347   -1.6956   -2.7081 H   0  0  0  0  0  0  0  0  0  0  0  0
   -2.1678   -1.7096   -3.7111 H   0  0  0  0  0  0  0  0  0  0  0  0
   -0.5188    1.5084    0.7734 C   0  0  0  0  0  0  0  0  0  0  0  0
   -1.4780    2.1698    0.3971 O   0  0  0  0  0  0  0  0  0  0  0  0
    0.4110    2.0991    1.6108 N   0  0  0  0  0  0  0  0  0  0  0  0
    1.1404    1.5054    1.9949 H   0  0  0  0  0  0  0  0  0  0  0  0
    0.2992    3.4736    2.0847 C   0  0  0  0  0  0  0  0  0  0  0  0
   -0.6059    3.5977    2.6887 H   0  0  0  0  0  0  0  0  0  0  0  0
    1.1655    3.7334    2.7007 H   0  0  0  0  0  0  0  0  0  0  0  0
    0.2569    4.1688    1.2395 H   0  0  0  0  0  0  0  0  0  0  0  0
  1  2  1  0  0  0  0
  2  3  1  0  0  0  0
  2  4  1  0  0  0  0
  2  5  1  0  0  0  0
  5  6  2  0  0  0  0
  5  7  1  0  0  0  0
  7  8  1  0  0  0  0
  7  9  1  0  0  0  0
  9 10  1  0  0  0  0
  9 11  1  0  0  0  0
  9 22  1  0  0  0  0
 11 12  1  0  0  0  0
 11 13  1  0  0  0  0
 11 14  1  0  0  0  0
 14 15  1  0  0  0  0
 14 16  1  0  0  0  0
 14 17  1  0  0  0  0
 17 18  1  0  0  0  0
 18 19  1  0  0  0  0
 18 20  1  0  0  0  0
 18 21  1  0  0  0  0
 22 23  2  0  0  0  0
 22 24  1  0  0  0  0
 24 25  1  0  0  0  0
 24 26  1  0  0  0  0
 26 27  1  0  0  0  0
 26 28  1  0  0  0  0
 26 29  1  0  0  0  0
M  END
$$$$

  -OEChem-02102214153D

 29 28  0     1  0  0  0  0  0999 V2000
   -3.1718   -3.4507    1.8016 H   0  0  0  0  0  0  0  0  0  0  0  0
   -3.2139   -2.5002    1.2624 C   0  0  0  0  0  0  0  0  0  0  0  0
   -3.8624   -1.8128    1.8112 H   0  0  0  0  0  0  0  0  0  0  0  0
   -3.6369   -2.6750    0.2705 H   0  0  0  0  0  0  0  0  0  0  0  0
   -1.8229   -1.9085    1.1364 C   0  0  0  0  0  0  0  0  0  0  0  0
   -0.8533   -2.5330    1.5377 O   0  0  0  0  0  0  0  0  0  0  0  0
   -1.6581   -0.6683    0.5600 N   0  0  0  0  0  0  0  0  0  0  0  0
   -2.4918   -0.1763    0.2386 H   0  0  0  0  0  0  0  0  0  0  0  0
   -0.3866    0.0534    0.4324 C   0  0  1  0  0  0  0  0  0  0  0  0
    0.3037   -0.3710    1.1686 H   0  0  0  0  0  0  0  0  0  0  0  0
    0.2788   -0.1534   -0.9469 C   0  0  0  0  0  0  0  0  0  0  0  0
    1.2551    0.3417   -0.9358 H   0  0  0  0  0  0  0  0  0  0  0  0
    0.4724   -1.2277   -1.0326 H   0  0  0  0  0  0  0  0  0  0  0  0
   -0.4572    0.2708   -2.2432 C   0  0  0  0  0  0  0  0  0  0  0  0
    0.0087    1.2002   -2.5863 H   0  0  0  0  0  0  0  0  0  0  0  0
   -0.2763   -0.4796   -3.0191 H   0  0  0  0  0  0  0  0  0  0  0  0
   -2.2645    0.6137   -2.1423 S   0  0  0  0  0  0  0  0  0  0  0  0
   -2.9668   -1.0179   -2.6070 C   0  0  0  0  0  0  0  0  0  0  0  0
   -2.5723   -1.8032   -1.9558 H   0  0  0  0  0  0  0  0  0  0  0  0
   -4.0567   -0.9972   -2.5147 H   0  0  0  0  0  0  0  0  0  0  0  0
   -2.7080   -1.2586   -3.6424 H   0  0  0  0  0  0  0  0  0  0  0  0
   -0.5033    1.5452    0.8186 C   0  0  0  0  0  0  0  0  0  0  0  0
   -1.5148    2.1887    0.5709 O   0  0  0  0  0  0  0  0  0  0  0  0
    0.4633    2.1223    1.6235 N   0  0  0  0  0  0  0  0  0  0  0  0
    1.2360    1.5353    1.9234 H   0  0  0  0  0  0  0  0  0  0  0  0
    0.3459    3.4672    2.1747 C   0  0  0  0  0  0  0  0  0  0  0  0
   -0.5049    3.5261    2.8616 H   0  0  0  0  0  0  0  0  0  0  0  0
    1.2545    3.7319    2.7241 H   0  0  0  0  0  0  0  0  0  0  0  0
    0.2028    4.1994    1.3729 H   0  0  0  0  0  0  0  0  0  0  0  0
  1  2  1  0  0  0  0
  2  3  1  0  0  0  0
  2  4  1  0  0  0  0
  2  5  1  0  0  0  0
  5  6  2  0  0  0  0
  5  7  1  0  0  0  0
  7  8  1  0  0  0  0
  7  9  1  0  0  0  0
  9 10  1  0  0  0  0
  9 11  1  0  0  0  0
  9 22  1  0  0  0  0
 11 12  1  0  0  0  0
 11 13  1  0  0  0  0
 11 14  1  0  0  0  0
 14 15  1  0  0  0  0
 14 16  1  0  0  0  0
 14 17  1  0  0  0  0
 17 18  1  0  0  0  0
 18 19  1  0  0  0  0
 18 20  1  0  0  0  0
 18 21  1  0  0  0  0
 22 23  2  0  0  0  0
 22 24  1  0  0  0  0
 24 25  1  0  0  0  0
 24 26  1  0  0  0  0
 26 27  1  0  0  0  0
 26 28  1  0  0  0  0
 26 29  1  0  0  0  0
M  END
$$$$

  -OEChem-02102214153D

 29 28  0     1  0  0  0  0  0999 V2000
   -2.8216   -3.5174    1.9845 H   0  0  0  0  0  0  0  0  0  0  0  0
   -2.9638   -2.5593    1.4771 C   0  0  0  0  0  0  0  0  0  0  0  0
   -3.5594   -1.9057    2.1191 H   0  0  0  0  0  0  0  0  0  0  0  0
   -3.5032   -2.7306    0.5428 H   0  0  0  0  0  0  0  0  0  0  0  0
   -1.6211   -1.9157    1.1893 C   0  0  0  0  0  0  0  0  0  0  0  0
   -0.5876   -2.5171    1.4368 O   0  0  0  0  0  0  0  0  0  0  0  0
   -1.5748   -0.6554    0.6357 N   0  0  0  0  0  0  0  0  0  0  0  0
   -2.4585   -0.1713    0.4798 H   0  0  0  0  0  0  0  0  0  0  0  0
   -0.3564    0.1265    0.3932 C   0  0  1  0  0  0  0  0  0  0  0  0
    0.4118   -0.2765    1.0612 H   0  0  0  0  0  0  0  0  0  0  0  0
    0.1955   -0.0848   -1.0339 C   0  0  0  0  0  0  0  0  0  0  0  0
    1.1310    0.4778   -1.1143 H   0  0  0  0  0  0  0  0  0  0  0  0
    0.4589   -1.1445   -1.1182 H   0  0  0  0  0  0  0  0  0  0  0  0
   -0.6704    0.2679   -2.2680 C   0  0  0  0  0  0  0  0  0  0  0  0
   -0.1283    1.0195   -2.8510 H   0  0  0  0  0  0  0  0  0  0  0  0
   -0.7548   -0.6216   -2.9001 H   0  0  0  0  0  0  0  0  0  0  0  0
   -2.3591    0.9348   -1.9681 S   0  0  0  0  0  0  0  0  0  0  0  0
   -3.4113   -0.5160   -2.3664 C   0  0  0  0  0  0  0  0  0  0  0  0
   -3.3033   -0.7826   -3.4219 H   0  0  0  0  0  0  0  0  0  0  0  0
   -4.4619   -0.2818   -2.1707 H   0  0  0  0  0  0  0  0  0  0  0  0
   -3.1223   -1.3758   -1.7555 H   0  0  0  0  0  0  0  0  0  0  0  0
   -0.4755    1.6061    0.8283 C   0  0  0  0  0  0  0  0  0  0  0  0
   -1.5505    2.1916    0.7995 O   0  0  0  0  0  0  0  0  0  0  0  0
    0.5612    2.1923    1.5343 N   0  0  0  0  0  0  0  0  0  0  0  0
    1.4000    1.6390    1.6821 H   0  0  0  0  0  0  0  0  0  0  0  0
    0.4604    3.5009    2.1701 C   0  0  0  0  0  0  0  0  0  0  0  0
   -0.2924    3.4834    2.9653 H   0  0  0  0  0  0  0  0  0  0  0  0
    1.4224    3.7833    2.6087 H   0  0  0  0  0  0  0  0  0  0  0  0
    0.1797    4.2635    1.4357 H   0  0  0  0  0  0  0  0  0  0  0  0
  1  2  1  0  0  0  0
  2  3  1  0  0  0  0
  2  4  1  0  0  0  0
  2  5  1  0  0  0  0
  5  6  2  0  0  0  0
  5  7  1  0  0  0  0
  7  8  1  0  0  0  0
  7  9  1  0  0  0  0
  9 10  1  0  0  0  0
  9 11  1  0  0  0  0
  9 22  1  0  0  0  0
 11 12  1  0  0  0  0
 11 13  1  0  0  0  0
 11 14  1  0  0  0  0
 14 15  1  0  0  0  0
 14 16  1  0  0  0  0
 14 17  1  0  0  0  0
 17 18  1  0  0  0  0
 18 19  1  0  0  0  0
 18 20  1  0  0  0  0
 18 21  1  0  0  0  0
 22 23  2  0  0  0  0
 22 24  1  0  0  0  0
 24 25  1  0  0  0  0
 24 26  1  0  0  0  0
 26 27  1  0  0  0  0
 26 28  1  0  0  0  0
 26 29  1  0  0  0  0
M  END
$$$$

  -OEChem-02102214153D

 29 28  0     1  0  0  0  0  0999 V2000
   -2.8640   -3.7372    1.3506 H   0  0  0  0  0  0  0  0  0  0  0  0
   -2.9656   -2.6543    1.2376 C   0  0  0  0  0  0  0  0  0  0  0  0
   -3.2866   -2.2281    2.1913 H   0  0  0  0  0  0  0  0  0  0  0  0
   -3.7258   -2.4487    0.4801 H   0  0  0  0  0  0  0  0  0  0  0  0
   -1.6404   -2.0458    0.8204 C   0  0  0  0  0  0  0  0  0  0  0  0
   -0.6478   -2.7500    0.7198 O   0  0  0  0  0  0  0  0  0  0  0  0
   -1.5657   -0.6981    0.5438 N   0  0  0  0  0  0  0  0  0  0  0  0
   -2.3969   -0.1342    0.7185 H   0  0  0  0  0  0  0  0  0  0  0  0
   -0.3280    0.0457    0.2750 C   0  0  1  0  0  0  0  0  0  0  0  0
    0.4813   -0.5344    0.7307 H   0  0  0  0  0  0  0  0  0  0  0  0
    0.0118    0.0690   -1.2319 C   0  0  0  0  0  0  0  0  0  0  0  0
    0.9583    0.6088   -1.3357 H   0  0  0  0  0  0  0  0  0  0  0  0
    0.2012   -0.9625   -1.5473 H   0  0  0  0  0  0  0  0  0  0  0  0
   -0.9806    0.6911   -2.2399 C   0  0  0  0  0  0  0  0  0  0  0  0
   -0.4144    1.2822   -2.9668 H   0  0  0  0  0  0  0  0  0  0  0  0
   -1.4510   -0.1273   -2.7937 H   0  0  0  0  0  0  0  0  0  0  0  0
   -2.3204    1.7476   -1.5583 S   0  0  0  0  0  0  0  0  0  0  0  0
   -3.8266    0.7977   -2.0023 C   0  0  0  0  0  0  0  0  0  0  0  0
   -3.7922   -0.1997   -1.5546 H   0  0  0  0  0  0  0  0  0  0  0  0
   -4.7169    1.3170   -1.6354 H   0  0  0  0  0  0  0  0  0  0  0  0
   -3.9041    0.6948   -3.0887 H   0  0  0  0  0  0  0  0  0  0  0  0
   -0.2434    1.3976    1.0236 C   0  0  0  0  0  0  0  0  0  0  0  0
   -1.2607    1.9928    1.3589 O   0  0  0  0  0  0  0  0  0  0  0  0
    0.9374    1.7487    1.6557 N   0  0  0  0  0  0  0  0  0  0  0  0
    1.7495    1.1607    1.4948 H   0  0  0  0  0  0  0  0  0  0  0  0
    1.0502    2.8653    2.5873 C   0  0  0  0  0  0  0  0  0  0  0  0
    0.4091    2.7025    3.4600 H   0  0  0  0  0  0  0  0  0  0  0  0
    2.0836    2.9681    2.9320 H   0  0  0  0  0  0  0  0  0  0  0  0
    0.7537    3.8012    2.1019 H   0  0  0  0  0  0  0  0  0  0  0  0
  1  2  1  0  0  0  0
  2  3  1  0  0  0  0
  2  4  1  0  0  0  0
  2  5  1  0  0  0  0
  5  6  2  0  0  0  0
  5  7  1  0  0  0  0
  7  8  1  0  0  0  0
  7  9  1  0  0  0  0
  9 10  1  0  0  0  0
  9 11  1  0  0  0  0
  9 22  1  0  0  0  0
 11 12  1  0  0  0  0
 11 13  1  0  0  0  0
 11 14  1  0  0  0  0
 14 15  1  0  0  0  0
 14 16  1  0  0  0  0
 14 17  1  0  0  0  0
 17 18  1  0  0  0  0
 18 19  1  0  0  0  0
 18 20  1  0  0  0  0
 18 21  1  0  0  0  0
 22 23  2  0  0  0  0
 22 24  1  0  0  0  0
 24 25  1  0  0  0  0
 24 26  1  0  0  0  0
 26 27  1  0  0  0  0
 26 28  1  0  0  0  0
 26 29  1  0  0  0  0
M  END
$$$$

  -OEChem-02102214153D

 29 28  0     1  0  0  0  0  0999 V2000
   -2.9636   -3.5322    1.6729 H   0  0  0  0  0  0  0  0  0  0  0  0
   -3.0613   -2.4968    1.3350 C   0  0  0  0  0  0  0  0  0  0  0  0
   -3.5252   -1.9087    2.1306 H   0  0  0  0  0  0  0  0  0  0  0  0
   -3.7035   -2.4729    0.4514 H   0  0  0  0  0  0  0  0  0  0  0  0
   -1.6973   -1.9263    0.9974 C   0  0  0  0  0  0  0  0  0  0  0  0
   -0.6997   -2.6233    1.0975 O   0  0  0  0  0  0  0  0  0  0  0  0
   -1.5928   -0.6224    0.5640 N   0  0  0  0  0  0  0  0  0  0  0  0
   -2.4317   -0.0462    0.6192 H   0  0  0  0  0  0  0  0  0  0  0  0
   -0.3297    0.1061    0.3876 C   0  0  1  0  0  0  0  0  0  0  0  0
    0.4042   -0.3890    1.0320 H   0  0  0  0  0  0  0  0  0  0  0  0
    0.2323   -0.0659   -1.0421 C   0  0  0  0  0  0  0  0  0  0  0  0
    1.1783    0.4832   -1.0757 H   0  0  0  0  0  0  0  0  0  0  0  0
    0.4743   -1.1241   -1.1877 H   0  0  0  0  0  0  0  0  0  0  0  0
   -0.6003    0.3958   -2.2564 C   0  0  0  0  0  0  0  0  0  0  0  0
    0.0820    0.6421   -3.0762 H   0  0  0  0  0  0  0  0  0  0  0  0
   -1.2051   -0.4536   -2.5888 H   0  0  0  0  0  0  0  0  0  0  0  0
   -1.7333    1.8156   -1.9915 S   0  0  0  0  0  0  0  0  0  0  0  0
   -3.3876    1.0388   -2.1606 C   0  0  0  0  0  0  0  0  0  0  0  0
   -3.5106    0.2407   -1.4235 H   0  0  0  0  0  0  0  0  0  0  0  0
   -4.1690    1.7875   -1.9997 H   0  0  0  0  0  0  0  0  0  0  0  0
   -3.5075    0.6160   -3.1624 H   0  0  0  0  0  0  0  0  0  0  0  0
   -0.3820    1.5394    0.9682 C   0  0  0  0  0  0  0  0  0  0  0  0
   -1.4597    2.1100    1.1002 O   0  0  0  0  0  0  0  0  0  0  0  0
    0.6801    2.0042    1.7251 N   0  0  0  0  0  0  0  0  0  0  0  0
    1.5282    1.4457    1.7376 H   0  0  0  0  0  0  0  0  0  0  0  0
    0.6234    3.2165    2.5344 C   0  0  0  0  0  0  0  0  0  0  0  0
   -0.0973    3.0988    3.3505 H   0  0  0  0  0  0  0  0  0  0  0  0
    1.6057    3.4293    2.9671 H   0  0  0  0  0  0  0  0  0  0  0  0
    0.3245    4.0737    1.9217 H   0  0  0  0  0  0  0  0  0  0  0  0
  1  2  1  0  0  0  0
  2  3  1  0  0  0  0
  2  4  1  0  0  0  0
  2  5  1  0  0  0  0
  5  6  2  0  0  0  0
  5  7  1  0  0  0  0
  7  8  1  0  0  0  0
  7  9  1  0  0  0  0
  9 10  1  0  0  0  0
  9 11  1  0  0  0  0
  9 22  1  0  0  0  0
 11 12  1  0  0  0  0
 11 13  1  0  0  0  0
 11 14  1  0  0  0  0
 14 15  1  0  0  0  0
 14 16  1  0  0  0  0
 14 17  1  0  0  0  0
 17 18  1  0  0  0  0
 18 19  1  0  0  0  0
 18 20  1  0  0  0  0
 18 21  1  0  0  0  0
 22 23  2  0  0  0  0
 22 24  1  0  0  0  0
 24 25  1  0  0  0  0
 24 26  1  0  0  0  0
 26 27  1  0  0  0  0
 26 28  1  0  0  0  0
 26 29  1  0  0  0  0
M  END
$$$$

  -OEChem-02102214153D

 29 28  0     1  0  0  0  0  0999 V2000
   -2.3421   -3.5471    2.1428 H   0  0  0  0  0  0  0  0  0  0  0  0
   -2.5885   -2.6017    1.6514 C   0  0  0  0  0  0  0  0  0  0  0  0
   -3.1458   -1.9750    2.3520 H   0  0  0  0  0  0  0  0  0  0  0  0
   -3.2145   -2.8091    0.7802 H   0  0  0  0  0  0  0  0  0  0  0  0
   -1.3197   -1.8921    1.2190 C   0  0  0  0  0  0  0  0  0  0  0  0
   -0.2340   -2.4262    1.3830 O   0  0  0  0  0  0  0  0  0  0  0  0
   -1.3993   -0.6456    0.6357 N   0  0  0  0  0  0  0  0  0  0  0  0
   -2.3081   -0.1851    0.6547 H   0  0  0  0  0  0  0  0  0  0  0  0
   -0.2457    0.2277    0.3788 C   0  0  1  0  0  0  0  0  0  0  0  0
    0.5496   -0.0811    1.0655 H   0  0  0  0  0  0  0  0  0  0  0  0
    0.3304   -0.0155   -1.0345 C   0  0  0  0  0  0  0  0  0  0  0  0
    1.2005    0.6395   -1.1434 H   0  0  0  0  0  0  0  0  0  0  0  0
    0.6984   -1.0463   -1.0754 H   0  0  0  0  0  0  0  0  0  0  0  0
   -0.5655    0.2092   -2.2680 C   0  0  0  0  0  0  0  0  0  0  0  0
    0.0661    0.2039   -3.1619 H   0  0  0  0  0  0  0  0  0  0  0  0
   -1.2517   -0.6393   -2.3522 H   0  0  0  0  0  0  0  0  0  0  0  0
   -1.5614    1.7527   -2.2664 S   0  0  0  0  0  0  0  0  0  0  0  0
   -3.2728    1.1466   -1.9965 C   0  0  0  0  0  0  0  0  0  0  0  0
   -3.5687    0.4692   -2.8027 H   0  0  0  0  0  0  0  0  0  0  0  0
   -3.9668    1.9920   -1.9748 H   0  0  0  0  0  0  0  0  0  0  0  0
   -3.3428    0.6162   -1.0435 H   0  0  0  0  0  0  0  0  0  0  0  0
   -0.5314    1.6893    0.7959 C   0  0  0  0  0  0  0  0  0  0  0  0
   -1.6906    2.0890    0.8553 O   0  0  0  0  0  0  0  0  0  0  0  0
    0.4242    2.3975    1.5036 N   0  0  0  0  0  0  0  0  0  0  0  0
    1.3553    1.9971    1.5690 H   0  0  0  0  0  0  0  0  0  0  0  0
    0.1578    3.6733    2.1580 C   0  0  0  0  0  0  0  0  0  0  0  0
   -0.5769    3.5459    2.9600 H   0  0  0  0  0  0  0  0  0  0  0  0
    1.0781    4.0753    2.5922 H   0  0  0  0  0  0  0  0  0  0  0  0
   -0.2300    4.4004    1.4365 H   0  0  0  0  0  0  0  0  0  0  0  0
  1  2  1  0  0  0  0
  2  3  1  0  0  0  0
  2  4  1  0  0  0  0
  2  5  1  0  0  0  0
  5  6  2  0  0  0  0
  5  7  1  0  0  0  0
  7  8  1  0  0  0  0
  7  9  1  0  0  0  0
  9 10  1  0  0  0  0
  9 11  1  0  0  0  0
  9 22  1  0  0  0  0
 11 12  1  0  0  0  0
 11 13  1  0  0  0  0
 11 14  1  0  0  0  0
 14 15  1  0  0  0  0
 14 16  1  0  0  0  0
 14 17  1  0  0  0  0
 17 18  1  0  0  0  0
 18 19  1  0  0  0  0
 18 20  1  0  0  0  0
 18 21  1  0  0  0  0
 22 23  2  0  0  0  0
 22 24  1  0  0  0  0
 24 25  1  0  0  0  0
 24 26  1  0  0  0  0
 26 27  1  0  0  0  0
 26 28  1  0  0  0  0
 26 29  1  0  0  0  0
M  END
$$$$

  -OEChem-02102214153D

 29 28  0     1  0  0  0  0  0999 V2000
   -2.7764   -3.3135    2.3066 H   0  0  0  0  0  0  0  0  0  0  0  0
   -2.8997   -2.3796    1.7513 C   0  0  0  0  0  0  0  0  0  0  0  0
   -3.4685   -1.6771    2.3652 H   0  0  0  0  0  0  0  0  0  0  0  0
   -3.4567   -2.5856    0.8342 H   0  0  0  0  0  0  0  0  0  0  0  0
   -1.5439   -1.7903    1.4120 C   0  0  0  0  0  0  0  0  0  0  0  0
   -0.5232   -2.3725    1.7435 O   0  0  0  0  0  0  0  0  0  0  0  0
   -1.4703   -0.5981    0.7241 N   0  0  0  0  0  0  0  0  0  0  0  0
   -2.3413   -0.0825    0.6023 H   0  0  0  0  0  0  0  0  0  0  0  0
   -0.2359    0.1772    0.5316 C   0  0  1  0  0  0  0  0  0  0  0  0
    0.4679   -0.1203    1.3162 H   0  0  0  0  0  0  0  0  0  0  0  0
    0.4458   -0.2036   -0.8025 C   0  0  0  0  0  0  0  0  0  0  0  0
    1.3787    0.3636   -0.8809 H   0  0  0  0  0  0  0  0  0  0  0  0
    0.7164   -1.2634   -0.7489 H   0  0  0  0  0  0  0  0  0  0  0  0
   -0.3475    0.0123   -2.1021 C   0  0  0  0  0  0  0  0  0  0  0  0
    0.2592   -0.3279   -2.9472 H   0  0  0  0  0  0  0  0  0  0  0  0
   -1.2471   -0.6103   -2.0757 H   0  0  0  0  0  0  0  0  0  0  0  0
   -0.8308    1.7600   -2.3989 S   0  0  0  0  0  0  0  0  0  0  0  0
   -2.6602    1.6515   -2.5030 C   0  0  0  0  0  0  0  0  0  0  0  0
   -2.9568    0.9914   -3.3230 H   0  0  0  0  0  0  0  0  0  0  0  0
   -3.0697    1.2610   -1.5669 H   0  0  0  0  0  0  0  0  0  0  0  0
   -3.0835    2.6447   -2.6799 H   0  0  0  0  0  0  0  0  0  0  0  0
   -0.4815    1.6805    0.7971 C   0  0  0  0  0  0  0  0  0  0  0  0
   -1.6110    2.1432    0.6619 O   0  0  0  0  0  0  0  0  0  0  0  0
    0.4245    2.4024    1.5537 N   0  0  0  0  0  0  0  0  0  0  0  0
    1.3217    1.9703    1.7530 H   0  0  0  0  0  0  0  0  0  0  0  0
    0.1691    3.7538    2.0386 C   0  0  0  0  0  0  0  0  0  0  0  0
   -0.6927    3.7623    2.7142 H   0  0  0  0  0  0  0  0  0  0  0  0
    1.0392    4.1310    2.5845 H   0  0  0  0  0  0  0  0  0  0  0  0
   -0.0329    4.4293    1.2005 H   0  0  0  0  0  0  0  0  0  0  0  0
  1  2  1  0  0  0  0
  2  3  1  0  0  0  0
  2  4  1  0  0  0  0
  2  5  1  0  0  0  0
  5  6  2  0  0  0  0
  5  7  1  0  0  0  0
  7  8  1  0  0  0  0
  7  9  1  0  0  0  0
  9 10  1  0  0  0  0
  9 11  1  0  0  0  0
  9 22  1  0  0  0  0
 11 12  1  0  0  0  0
 11 13  1  0  0  0  0
 11 14  1  0  0  0  0
 14 15  1  0  0  0  0
 14 16  1  0  0  0  0
 14 17  1  0  0  0  0
 17 18  1  0  0  0  0
 18 19  1  0  0  0  0
 18 20  1  0  0  0  0
 18 21  1  0  0  0  0
 22 23  2  0  0  0  0
 22 24  1  0  0  0  0
 24 25  1  0  0  0  0
 24 26  1  0  0  0  0
 26 27  1  0  0  0  0
 26 28  1  0  0  0  0
 26 29  1  0  0  0  0
M  END
$$$$

  -OEChem-02102214153D

 29 28  0     1  0  0  0  0  0999 V2000
   -3.3578   -3.8096    1.0926 H   0  0  0  0  0  0  0  0  0  0  0  0
   -3.4519   -2.7743    0.7533 C   0  0  0  0  0  0  0  0  0  0  0  0
   -4.1414   -2.2470    1.4170 H   0  0  0  0  0  0  0  0  0  0  0  0
   -3.8589   -2.7714   -0.2607 H   0  0  0  0  0  0  0  0  0  0  0  0
   -2.0966   -2.0935    0.7696 C   0  0  0  0  0  0  0  0  0  0  0  0
   -1.1113   -2.6993    1.1608 O   0  0  0  0  0  0  0  0  0  0  0  0
   -1.9816   -0.7877    0.3436 N   0  0  0  0  0  0  0  0  0  0  0  0
   -2.8476   -0.2831    0.1545 H   0  0  0  0  0  0  0  0  0  0  0  0
   -0.7743    0.0373    0.4950 C   0  0  1  0  0  0  0  0  0  0  0  0
   -0.1592   -0.4006    1.2879 H   0  0  0  0  0  0  0  0  0  0  0  0
    0.0806   -0.0005   -0.7891 C   0  0  0  0  0  0  0  0  0  0  0  0
    1.0035    0.5603   -0.6212 H   0  0  0  0  0  0  0  0  0  0  0  0
    0.3684   -1.0435   -0.9588 H   0  0  0  0  0  0  0  0  0  0  0  0
   -0.5995    0.5096   -2.0710 C   0  0  0  0  0  0  0  0  0  0  0  0
   -0.0152    0.1776   -2.9348 H   0  0  0  0  0  0  0  0  0  0  0  0
   -1.5949    0.0645   -2.1624 H   0  0  0  0  0  0  0  0  0  0  0  0
   -0.7512    2.3426   -2.1499 S   0  0  0  0  0  0  0  0  0  0  0  0
    0.9862    2.9371   -2.1848 C   0  0  0  0  0  0  0  0  0  0  0  0
    1.5451    2.4319   -2.9779 H   0  0  0  0  0  0  0  0  0  0  0  0
    1.0060    4.0145   -2.3744 H   0  0  0  0  0  0  0  0  0  0  0  0
    1.4770    2.7461   -1.2267 H   0  0  0  0  0  0  0  0  0  0  0  0
   -1.1364    1.4505    1.0021 C   0  0  0  0  0  0  0  0  0  0  0  0
   -2.2319    1.9316    0.7319 O   0  0  0  0  0  0  0  0  0  0  0  0
   -0.3942    2.0332    2.0142 N   0  0  0  0  0  0  0  0  0  0  0  0
    0.4393    1.5452    2.3278 H   0  0  0  0  0  0  0  0  0  0  0  0
   -0.7965    3.2556    2.7001 C   0  0  0  0  0  0  0  0  0  0  0  0
   -1.7028    3.0825    3.2898 H   0  0  0  0  0  0  0  0  0  0  0  0
   -0.0021    3.5912    3.3736 H   0  0  0  0  0  0  0  0  0  0  0  0
   -0.9942    4.0544    1.9773 H   0  0  0  0  0  0  0  0  0  0  0  0
  1  2  1  0  0  0  0
  2  3  1  0  0  0  0
  2  4  1  0  0  0  0
  2  5  1  0  0  0  0
  5  6  2  0  0  0  0
  5  7  1  0  0  0  0
  7  8  1  0  0  0  0
  7  9  1  0  0  0  0
  9 10  1  0  0  0  0
  9 11  1  0  0  0  0
  9 22  1  0  0  0  0
 11 12  1  0  0  0  0
 11 13  1  0  0  0  0
 11 14  1  0  0  0  0
 14 15  1  0  0  0  0
 14 16  1  0  0  0  0
 14 17  1  0  0  0  0
 17 18  1  0  0  0  0
 18 19  1  0  0  0  0
 18 20  1  0  0  0  0
 18 21  1  0  0  0  0
 22 23  2  0  0  0  0
 22 24  1  0  0  0  0
 24 25  1  0  0  0  0
 24 26  1  0  0  0  0
 26 27  1  0  0  0  0
 26 28  1  0  0  0  0
 26 29  1  0  0  0  0
M  END
$$$$

  -OEChem-02102214153D

 29 28  0     1  0  0  0  0  0999 V2000
   -2.9053   -3.9344    1.1340 H   0  0  0  0  0  0  0  0  0  0  0  0
   -3.0942   -2.8982    0.8394 C   0  0  0  0  0  0  0  0  0  0  0  0
   -3.7677   -2.4419    1.5691 H   0  0  0  0  0  0  0  0  0  0  0  0
   -3.5737   -2.8927   -0.1424 H   0  0  0  0  0  0  0  0  0  0  0  0
   -1.7907   -2.1243    0.7831 C   0  0  0  0  0  0  0  0  0  0  0  0
   -0.7376   -2.6781    1.0567 O   0  0  0  0  0  0  0  0  0  0  0  0
   -1.7991   -0.7942    0.4215 N   0  0  0  0  0  0  0  0  0  0  0  0
   -2.7097   -0.3434    0.3340 H   0  0  0  0  0  0  0  0  0  0  0  0
   -0.6394    0.1045    0.5261 C   0  0  1  0  0  0  0  0  0  0  0  0
    0.0814   -0.3296    1.2268 H   0  0  0  0  0  0  0  0  0  0  0  0
    0.0740    0.2433   -0.8330 C   0  0  0  0  0  0  0  0  0  0  0  0
    0.9719    0.8554   -0.7107 H   0  0  0  0  0  0  0  0  0  0  0  0
    0.4059   -0.7565   -1.1316 H   0  0  0  0  0  0  0  0  0  0  0  0
   -0.7933    0.8131   -1.9677 C   0  0  0  0  0  0  0  0  0  0  0  0
   -0.4540    0.4035   -2.9240 H   0  0  0  0  0  0  0  0  0  0  0  0
   -1.8386    0.5169   -1.8388 H   0  0  0  0  0  0  0  0  0  0  0  0
   -0.6778    2.6481   -2.0412 S   0  0  0  0  0  0  0  0  0  0  0  0
    0.9679    2.9230   -2.8096 C   0  0  0  0  0  0  0  0  0  0  0  0
    1.0177    2.4297   -3.7847 H   0  0  0  0  0  0  0  0  0  0  0  0
    1.1392    3.9943   -2.9506 H   0  0  0  0  0  0  0  0  0  0  0  0
    1.7622    2.5250   -2.1723 H   0  0  0  0  0  0  0  0  0  0  0  0
   -1.0629    1.4574    1.1375 C   0  0  0  0  0  0  0  0  0  0  0  0
   -2.1929    1.8883    0.9314 O   0  0  0  0  0  0  0  0  0  0  0  0
   -0.2951    2.0488    2.1242 N   0  0  0  0  0  0  0  0  0  0  0  0
    0.6071    1.6326    2.3340 H   0  0  0  0  0  0  0  0  0  0  0  0
   -0.7005    3.2551    2.8355 C   0  0  0  0  0  0  0  0  0  0  0  0
   -1.6287    3.0798    3.3895 H   0  0  0  0  0  0  0  0  0  0  0  0
    0.0753    3.5542    3.5467 H   0  0  0  0  0  0  0  0  0  0  0  0
   -0.8607    4.0785    2.1315 H   0  0  0  0  0  0  0  0  0  0  0  0
  1  2  1  0  0  0  0
  2  3  1  0  0  0  0
  2  4  1  0  0  0  0
  2  5  1  0  0  0  0
  5  6  2  0  0  0  0
  5  7  1  0  0  0  0
  7  8  1  0  0  0  0
  7  9  1  0  0  0  0
  9 10  1  0  0  0  0
  9 11  1  0  0  0  0
  9 22  1  0  0  0  0
 11 12  1  0  0  0  0
 11 13  1  0  0  0  0
 11 14  1  0  0  0  0
 14 15  1  0  0  0  0
 14 16  1  0  0  0  0
 14 17  1  0  0  0  0
 17 18  1  0  0  0  0
 18 19  1  0  0  0  0
 18 20  1  0  0  0  0
 18 21  1  0  0  0  0
 22 23  2  0  0  0  0
 22 24  1  0  0  0  0
 24 25  1  0  0  0  0
 24 26  1  0  0  0  0
 26 27  1  0  0  0  0
 26 28  1  0  0  0  0
 26 29  1  0  0  0  0
M  END
$$$$

  -OEChem-02102214153D

 29 28  0     1  0  0  0  0  0999 V2000
   -3.4684   -3.4325    1.1199 H   0  0  0  0  0  0  0  0  0  0  0  0
   -3.3943   -2.3830    0.8217 C   0  0  0  0  0  0  0  0  0  0  0  0
   -3.9414   -1.7725    1.5441 H   0  0  0  0  0  0  0  0  0  0  0  0
   -3.8490   -2.2640   -0.1647 H   0  0  0  0  0  0  0  0  0  0  0  0
   -1.9400   -1.9541    0.7757 C   0  0  0  0  0  0  0  0  0  0  0  0
   -1.0574   -2.7561    1.0362 O   0  0  0  0  0  0  0  0  0  0  0  0
   -1.6202   -0.6564    0.4375 N   0  0  0  0  0  0  0  0  0  0  0  0
   -2.3912    0.0061    0.3627 H   0  0  0  0  0  0  0  0  0  0  0  0
   -0.2704   -0.0788    0.5370 C   0  0  1  0  0  0  0  0  0  0  0  0
    0.3376   -0.6993    1.2034 H   0  0  0  0  0  0  0  0  0  0  0  0
    0.4207   -0.0580   -0.8383 C   0  0  0  0  0  0  0  0  0  0  0  0
    1.4452    0.3120   -0.7283 H   0  0  0  0  0  0  0  0  0  0  0  0
    0.4908   -1.0919   -1.1921 H   0  0  0  0  0  0  0  0  0  0  0  0
   -0.3213    0.7665   -1.9022 C   0  0  0  0  0  0  0  0  0  0  0  0
   -0.3440    0.2099   -2.8442 H   0  0  0  0  0  0  0  0  0  0  0  0
   -1.3572    0.9580   -1.6066 H   0  0  0  0  0  0  0  0  0  0  0  0
    0.5576    2.3575   -2.1752 S   0  0  0  0  0  0  0  0  0  0  0  0
   -0.6392    3.2445   -3.2466 C   0  0  0  0  0  0  0  0  0  0  0  0
   -1.5884    3.3807   -2.7195 H   0  0  0  0  0  0  0  0  0  0  0  0
   -0.2440    4.2286   -3.5154 H   0  0  0  0  0  0  0  0  0  0  0  0
   -0.8220    2.6770   -4.1637 H   0  0  0  0  0  0  0  0  0  0  0  0
   -0.3293    1.3240    1.1794 C   0  0  0  0  0  0  0  0  0  0  0  0
   -1.2937    2.0511    0.9613 O   0  0  0  0  0  0  0  0  0  0  0  0
    0.5746    1.6843    2.1619 N   0  0  0  0  0  0  0  0  0  0  0  0
    1.3437    1.0483    2.3515 H   0  0  0  0  0  0  0  0  0  0  0  0
    0.5182    2.9562    2.8723 C   0  0  0  0  0  0  0  0  0  0  0  0
   -0.4268    3.0488    3.4178 H   0  0  0  0  0  0  0  0  0  0  0  0
    1.3400    3.0249    3.5916 H   0  0  0  0  0  0  0  0  0  0  0  0
    0.6029    3.7917    2.1693 H   0  0  0  0  0  0  0  0  0  0  0  0
  1  2  1  0  0  0  0
  2  3  1  0  0  0  0
  2  4  1  0  0  0  0
  2  5  1  0  0  0  0
  5  6  2  0  0  0  0
  5  7  1  0  0  0  0
  7  8  1  0  0  0  0
  7  9  1  0  0  0  0
  9 10  1  0  0  0  0
  9 11  1  0  0  0  0
  9 22  1  0  0  0  0
 11 12  1  0  0  0  0
 11 13  1  0  0  0  0
 11 14  1  0  0  0  0
 14 15  1  0  0  0  0
 14 16  1  0  0  0  0
 14 17  1  0  0  0  0
 17 18  1  0  0  0  0
 18 19  1  0  0  0  0
 18 20  1  0  0  0  0
 18 21  1  0  0  0  0
 22 23  2  0  0  0  0
 22 24  1  0  0  0  0
 24 25  1  0  0  0  0
 24 26  1  0  0  0  0
 26 27  1  0  0  0  0
 26 28  1  0  0  0  0
 26 29  1  0  0  0  0
M  END
$$$$

  -OEChem-02102214153D

 29 28  0     1  0  0  0  0  0999 V2000
   -3.3589   -3.4634    1.2944 H   0  0  0  0  0  0  0  0  0  0  0  0
   -3.3389   -2.4679    0.8419 C   0  0  0  0  0  0  0  0  0  0  0  0
   -3.9676   -1.7991    1.4348 H   0  0  0  0  0  0  0  0  0  0  0  0
   -3.7426   -2.5339   -0.1713 H   0  0  0  0  0  0  0  0  0  0  0  0
   -1.9166   -1.9414    0.7997 C   0  0  0  0  0  0  0  0  0  0  0  0
   -1.0014   -2.6176    1.2415 O   0  0  0  0  0  0  0  0  0  0  0  0
   -1.6618   -0.6956    0.2660 N   0  0  0  0  0  0  0  0  0  0  0  0
   -2.4669   -0.1210    0.0216 H   0  0  0  0  0  0  0  0  0  0  0  0
   -0.3542   -0.0223    0.3027 C   0  0  1  0  0  0  0  0  0  0  0  0
    0.2622   -0.4859    1.0799 H   0  0  0  0  0  0  0  0  0  0  0  0
    0.3804   -0.2176   -1.0381 C   0  0  0  0  0  0  0  0  0  0  0  0
    1.3695    0.2460   -0.9668 H   0  0  0  0  0  0  0  0  0  0  0  0
    0.5430   -1.2902   -1.1871 H   0  0  0  0  0  0  0  0  0  0  0  0
   -0.3558    0.3382   -2.2715 C   0  0  0  0  0  0  0  0  0  0  0  0
   -0.5482   -0.4843   -2.9678 H   0  0  0  0  0  0  0  0  0  0  0  0
   -1.3259    0.7629   -1.9960 H   0  0  0  0  0  0  0  0  0  0  0  0
    0.6418    1.6220   -3.1383 S   0  0  0  0  0  0  0  0  0  0  0  0
    0.4709    3.1250   -2.0982 C   0  0  0  0  0  0  0  0  0  0  0  0
    0.9689    2.9827   -1.1360 H   0  0  0  0  0  0  0  0  0  0  0  0
    0.9290    3.9811   -2.6019 H   0  0  0  0  0  0  0  0  0  0  0  0
   -0.5857    3.3487   -1.9228 H   0  0  0  0  0  0  0  0  0  0  0  0
   -0.5061    1.4573    0.7086 C   0  0  0  0  0  0  0  0  0  0  0  0
   -1.4758    2.1016    0.3233 O   0  0  0  0  0  0  0  0  0  0  0  0
    0.3478    2.0205    1.6390 N   0  0  0  0  0  0  0  0  0  0  0  0
    1.0868    1.4332    2.0157 H   0  0  0  0  0  0  0  0  0  0  0  0
    0.1770    3.3671    2.1715 C   0  0  0  0  0  0  0  0  0  0  0  0
   -0.7641    3.4432    2.7263 H   0  0  0  0  0  0  0  0  0  0  0  0
    0.9998    3.6126    2.8500 H   0  0  0  0  0  0  0  0  0  0  0  0
    0.1686    4.1027    1.3601 H   0  0  0  0  0  0  0  0  0  0  0  0
  1  2  1  0  0  0  0
  2  3  1  0  0  0  0
  2  4  1  0  0  0  0
  2  5  1  0  0  0  0
  5  6  2  0  0  0  0
  5  7  1  0  0  0  0
  7  8  1  0  0  0  0
  7  9  1  0  0  0  0
  9 10  1  0  0  0  0
  9 11  1  0  0  0  0
  9 22  1  0  0  0  0
 11 12  1  0  0  0  0
 11 13  1  0  0  0  0
 11 14  1  0  0  0  0
 14 15  1  0  0  0  0
 14 16  1  0  0  0  0
 14 17  1  0  0  0  0
 17 18  1  0  0  0  0
 18 19  1  0  0  0  0
 18 20  1  0  0  0  0
 18 21  1  0  0  0  0
 22 23  2  0  0  0  0
 22 24  1  0  0  0  0
 24 25  1  0  0  0  0
 24 26  1  0  0  0  0
 26 27  1  0  0  0  0
 26 28  1  0  0  0  0
 26 29  1  0  0  0  0
M  END
$$$$

  -OEChem-02102214153D

 29 28  0     1  0  0  0  0  0999 V2000
   -3.3684   -3.4481    1.3154 H   0  0  0  0  0  0  0  0  0  0  0  0
   -3.3400   -2.4755    0.8162 C   0  0  0  0  0  0  0  0  0  0  0  0
   -3.9930   -1.7844    1.3546 H   0  0  0  0  0  0  0  0  0  0  0  0
   -3.7085   -2.5929   -0.2057 H   0  0  0  0  0  0  0  0  0  0  0  0
   -1.9211   -1.9393    0.7962 C   0  0  0  0  0  0  0  0  0  0  0  0
   -1.0094   -2.6026    1.2638 O   0  0  0  0  0  0  0  0  0  0  0  0
   -1.6668   -0.6969    0.2543 N   0  0  0  0  0  0  0  0  0  0  0  0
   -2.4710   -0.1380   -0.0257 H   0  0  0  0  0  0  0  0  0  0  0  0
   -0.3638   -0.0158    0.2966 C   0  0  1  0  0  0  0  0  0  0  0  0
    0.2474   -0.4748    1.0807 H   0  0  0  0  0  0  0  0  0  0  0  0
    0.3839   -0.2131   -1.0341 C   0  0  0  0  0  0  0  0  0  0  0  0
    1.3613    0.2725   -0.9517 H   0  0  0  0  0  0  0  0  0  0  0  0
    0.5712   -1.2812   -1.1854 H   0  0  0  0  0  0  0  0  0  0  0  0
   -0.3617    0.3355   -2.2635 C   0  0  0  0  0  0  0  0  0  0  0  0
   -0.7891   -0.5014   -2.8245 H   0  0  0  0  0  0  0  0  0  0  0  0
   -1.1915    0.9870   -1.9770 H   0  0  0  0  0  0  0  0  0  0  0  0
    0.7861    1.2759   -3.3474 S   0  0  0  0  0  0  0  0  0  0  0  0
    0.9245    2.8624   -2.4300 C   0  0  0  0  0  0  0  0  0  0  0  0
    1.3823    2.7008   -1.4501 H   0  0  0  0  0  0  0  0  0  0  0  0
    1.5431    3.5681   -2.9921 H   0  0  0  0  0  0  0  0  0  0  0  0
   -0.0667    3.3034   -2.2850 H   0  0  0  0  0  0  0  0  0  0  0  0
   -0.4963    1.4724    0.6863 C   0  0  0  0  0  0  0  0  0  0  0  0
   -1.4326    2.1412    0.2636 O   0  0  0  0  0  0  0  0  0  0  0  0
    0.3625    2.0324    1.6140 N   0  0  0  0  0  0  0  0  0  0  0  0
    1.0861    1.4365    2.0066 H   0  0  0  0  0  0  0  0  0  0  0  0
    0.2378    3.4026    2.0969 C   0  0  0  0  0  0  0  0  0  0  0  0
   -0.7300    3.5503    2.5878 H   0  0  0  0  0  0  0  0  0  0  0  0
    1.0289    3.6221    2.8204 H   0  0  0  0  0  0  0  0  0  0  0  0
    0.3235    4.1111    1.2661 H   0  0  0  0  0  0  0  0  0  0  0  0
  1  2  1  0  0  0  0
  2  3  1  0  0  0  0
  2  4  1  0  0  0  0
  2  5  1  0  0  0  0
  5  6  2  0  0  0  0
  5  7  1  0  0  0  0
  7  8  1  0  0  0  0
  7  9  1  0  0  0  0
  9 10  1  0  0  0  0
  9 11  1  0  0  0  0
  9 22  1  0  0  0  0
 11 12  1  0  0  0  0
 11 13  1  0  0  0  0
 11 14  1  0  0  0  0
 14 15  1  0  0  0  0
 14 16  1  0  0  0  0
 14 17  1  0  0  0  0
 17 18  1  0  0  0  0
 18 19  1  0  0  0  0
 18 20  1  0  0  0  0
 18 21  1  0  0  0  0
 22 23  2  0  0  0  0
 22 24  1  0  0  0  0
 24 25  1  0  0  0  0
 24 26  1  0  0  0  0
 26 27  1  0  0  0  0
 26 28  1  0  0  0  0
 26 29  1  0  0  0  0
M  END
$$$$

  -OEChem-02102214153D

 29 28  0     1  0  0  0  0  0999 V2000
   -3.3792   -3.4390    1.3121 H   0  0  0  0  0  0  0  0  0  0  0  0
   -3.3464   -2.4679    0.8105 C   0  0  0  0  0  0  0  0  0  0  0  0
   -4.0053   -1.7758    1.3403 H   0  0  0  0  0  0  0  0  0  0  0  0
   -3.7039   -2.5890   -0.2149 H   0  0  0  0  0  0  0  0  0  0  0  0
   -1.9277   -1.9312    0.8031 C   0  0  0  0  0  0  0  0  0  0  0  0
   -1.0205   -2.5946    1.2793 O   0  0  0  0  0  0  0  0  0  0  0  0
   -1.6679   -0.6904    0.2600 N   0  0  0  0  0  0  0  0  0  0  0  0
   -2.4690   -0.1293   -0.0250 H   0  0  0  0  0  0  0  0  0  0  0  0
   -0.3630   -0.0139    0.3020 C   0  0  1  0  0  0  0  0  0  0  0  0
    0.2457   -0.4728    1.0882 H   0  0  0  0  0  0  0  0  0  0  0  0
    0.3830   -0.2230   -1.0278 C   0  0  0  0  0  0  0  0  0  0  0  0
    1.3565    0.2697   -0.9470 H   0  0  0  0  0  0  0  0  0  0  0  0
    0.5748   -1.2910   -1.1743 H   0  0  0  0  0  0  0  0  0  0  0  0
   -0.3606    0.3212   -2.2588 C   0  0  0  0  0  0  0  0  0  0  0  0
   -1.0171   -0.4584   -2.6576 H   0  0  0  0  0  0  0  0  0  0  0  0
   -0.9890    1.1783   -2.0045 H   0  0  0  0  0  0  0  0  0  0  0  0
    0.8401    0.8461   -3.5462 S   0  0  0  0  0  0  0  0  0  0  0  0
    1.3513    2.4954   -2.9162 C   0  0  0  0  0  0  0  0  0  0  0  0
    1.8456    2.3996   -1.9454 H   0  0  0  0  0  0  0  0  0  0  0  0
    2.0471    2.9649   -3.6177 H   0  0  0  0  0  0  0  0  0  0  0  0
    0.4780    3.1449   -2.8019 H   0  0  0  0  0  0  0  0  0  0  0  0
   -0.4927    1.4748    0.6898 C   0  0  0  0  0  0  0  0  0  0  0  0
   -1.4335    2.1410    0.2728 O   0  0  0  0  0  0  0  0  0  0  0  0
    0.3665    2.0340    1.6176 N   0  0  0  0  0  0  0  0  0  0  0  0
    1.0864    1.4363    2.0142 H   0  0  0  0  0  0  0  0  0  0  0  0
    0.2330    3.3999    2.1099 C   0  0  0  0  0  0  0  0  0  0  0  0
   -0.7386    3.5388    2.5958 H   0  0  0  0  0  0  0  0  0  0  0  0
    1.0190    3.6184    2.8394 H   0  0  0  0  0  0  0  0  0  0  0  0
    0.3195    4.1142    1.2843 H   0  0  0  0  0  0  0  0  0  0  0  0
  1  2  1  0  0  0  0
  2  3  1  0  0  0  0
  2  4  1  0  0  0  0
  2  5  1  0  0  0  0
  5  6  2  0  0  0  0
  5  7  1  0  0  0  0
  7  8  1  0  0  0  0
  7  9  1  0  0  0  0
  9 10  1  0  0  0  0
  9 11  1  0  0  0  0
  9 22  1  0  0  0  0
 11 12  1  0  0  0  0
 11 13  1  0  0  0  0
 11 14  1  0  0  0  0
 14 15  1  0  0  0  0
 14 16  1  0  0  0  0
 14 17  1  0  0  0  0
 17 18  1  0  0  0  0
 18 19  1  0  0  0  0
 18 20  1  0  0  0  0
 18 21  1  0  0  0  0
 22 23  2  0  0  0  0
 22 24  1  0  0  0  0
 24 25  1  0  0  0  0
 24 26  1  0  0  0  0
 26 27  1  0  0  0  0
 26 28  1  0  0  0  0
 26 29  1  0  0  0  0
M  END
$$$$

  -OEChem-02102214153D

 29 28  0     1  0  0  0  0  0999 V2000
   -3.3827   -3.4277    1.3370 H   0  0  0  0  0  0  0  0  0  0  0  0
   -3.3491   -2.4583    0.8319 C   0  0  0  0  0  0  0  0  0  0  0  0
   -3.9988   -1.7608    1.3661 H   0  0  0  0  0  0  0  0  0  0  0  0
   -3.7177   -2.5802   -0.1894 H   0  0  0  0  0  0  0  0  0  0  0  0
   -1.9275   -1.9296    0.8088 C   0  0  0  0  0  0  0  0  0  0  0  0
   -1.0198   -2.5934    1.2834 O   0  0  0  0  0  0  0  0  0  0  0  0
   -1.6673   -0.6909    0.2615 N   0  0  0  0  0  0  0  0  0  0  0  0
   -2.4682   -0.1280   -0.0201 H   0  0  0  0  0  0  0  0  0  0  0  0
   -0.3608   -0.0175    0.2985 C   0  0  1  0  0  0  0  0  0  0  0  0
    0.2529   -0.4750    1.0814 H   0  0  0  0  0  0  0  0  0  0  0  0
    0.3767   -0.2234   -1.0376 C   0  0  0  0  0  0  0  0  0  0  0  0
    1.3529    0.2646   -0.9657 H   0  0  0  0  0  0  0  0  0  0  0  0
    0.5581   -1.2927   -1.1886 H   0  0  0  0  0  0  0  0  0  0  0  0
   -0.3732    0.3275   -2.2598 C   0  0  0  0  0  0  0  0  0  0  0  0
   -1.2127   -0.3322   -2.5007 H   0  0  0  0  0  0  0  0  0  0  0  0
   -0.7782    1.3238   -2.0632 H   0  0  0  0  0  0  0  0  0  0  0  0
    0.7652    0.4317   -3.6983 S   0  0  0  0  0  0  0  0  0  0  0  0
    1.6802    1.9880   -3.3563 C   0  0  0  0  0  0  0  0  0  0  0  0
    2.2541    1.9013   -2.4296 H   0  0  0  0  0  0  0  0  0  0  0  0
    2.3726    2.2024   -4.1757 H   0  0  0  0  0  0  0  0  0  0  0  0
    0.9818    2.8248   -3.2607 H   0  0  0  0  0  0  0  0  0  0  0  0
   -0.4992    1.4703    0.6837 C   0  0  0  0  0  0  0  0  0  0  0  0
   -1.4423    2.1298    0.2614 O   0  0  0  0  0  0  0  0  0  0  0  0
    0.3571    2.0354    1.6105 N   0  0  0  0  0  0  0  0  0  0  0  0
    1.0720    1.4382    2.0168 H   0  0  0  0  0  0  0  0  0  0  0  0
    0.2097    3.3975    2.1090 C   0  0  0  0  0  0  0  0  0  0  0  0
   -0.7609    3.5238    2.6004 H   0  0  0  0  0  0  0  0  0  0  0  0
    0.9965    3.6216    2.8357 H   0  0  0  0  0  0  0  0  0  0  0  0
    0.2843    4.1163    1.2863 H   0  0  0  0  0  0  0  0  0  0  0  0
  1  2  1  0  0  0  0
  2  3  1  0  0  0  0
  2  4  1  0  0  0  0
  2  5  1  0  0  0  0
  5  6  2  0  0  0  0
  5  7  1  0  0  0  0
  7  8  1  0  0  0  0
  7  9  1  0  0  0  0
  9 10  1  0  0  0  0
  9 11  1  0  0  0  0
  9 22  1  0  0  0  0
 11 12  1  0  0  0  0
 11 13  1  0  0  0  0
 11 14  1  0  0  0  0
 14 15  1  0  0  0  0
 14 16  1  0  0  0  0
 14 17  1  0  0  0  0
 17 18  1  0  0  0  0
 18 19  1  0  0  0  0
 18 20  1  0  0  0  0
 18 21  1  0  0  0  0
 22 23  2  0  0  0  0
 22 24  1  0  0  0  0
 24 25  1  0  0  0  0
 24 26  1  0  0  0  0
 26 27  1  0  0  0  0
 26 28  1  0  0  0  0
 26 29  1  0  0  0  0
M  END
$$$$

  -OEChem-02102214153D

 29 28  0     1  0  0  0  0  0999 V2000
   -3.3415   -3.4484    1.2994 H   0  0  0  0  0  0  0  0  0  0  0  0
   -3.3226   -2.4718    0.8077 C   0  0  0  0  0  0  0  0  0  0  0  0
   -3.9874   -1.7931    1.3474 H   0  0  0  0  0  0  0  0  0  0  0  0
   -3.6832   -2.5860   -0.2175 H   0  0  0  0  0  0  0  0  0  0  0  0
   -1.9104   -1.9182    0.8001 C   0  0  0  0  0  0  0  0  0  0  0  0
   -0.9945   -2.5718    1.2734 O   0  0  0  0  0  0  0  0  0  0  0  0
   -1.6681   -0.6697    0.2666 N   0  0  0  0  0  0  0  0  0  0  0  0
   -2.4757   -0.1207   -0.0232 H   0  0  0  0  0  0  0  0  0  0  0  0
   -0.3690    0.0182    0.2942 C   0  0  1  0  0  0  0  0  0  0  0  0
    0.2535   -0.4456    1.0663 H   0  0  0  0  0  0  0  0  0  0  0  0
    0.3493   -0.1916   -1.0535 C   0  0  0  0  0  0  0  0  0  0  0  0
    1.4030    0.0705   -0.9233 H   0  0  0  0  0  0  0  0  0  0  0  0
    0.3087   -1.2526   -1.3224 H   0  0  0  0  0  0  0  0  0  0  0  0
   -0.2256    0.6454   -2.2055 C   0  0  0  0  0  0  0  0  0  0  0  0
   -1.2788    0.3874   -2.3544 H   0  0  0  0  0  0  0  0  0  0  0  0
   -0.1713    1.7149   -1.9803 H   0  0  0  0  0  0  0  0  0  0  0  0
    0.7048    0.3133   -3.7559 S   0  0  0  0  0  0  0  0  0  0  0  0
    2.2783    1.2248   -3.4945 C   0  0  0  0  0  0  0  0  0  0  0  0
    2.8298    0.8052   -2.6487 H   0  0  0  0  0  0  0  0  0  0  0  0
    2.9051    1.1511   -4.3883 H   0  0  0  0  0  0  0  0  0  0  0  0
    2.0752    2.2813   -3.2959 H   0  0  0  0  0  0  0  0  0  0  0  0
   -0.5134    1.4998    0.7002 C   0  0  0  0  0  0  0  0  0  0  0  0
   -1.4625    2.1578    0.2889 O   0  0  0  0  0  0  0  0  0  0  0  0
    0.3506    2.0630    1.6211 N   0  0  0  0  0  0  0  0  0  0  0  0
    1.0749    1.4677    2.0132 H   0  0  0  0  0  0  0  0  0  0  0  0
    0.1991    3.4197    2.1333 C   0  0  0  0  0  0  0  0  0  0  0  0
   -0.7683    3.5350    2.6335 H   0  0  0  0  0  0  0  0  0  0  0  0
    0.9904    3.6422    2.8559 H   0  0  0  0  0  0  0  0  0  0  0  0
    0.2622    4.1469    1.3169 H   0  0  0  0  0  0  0  0  0  0  0  0
  1  2  1  0  0  0  0
  2  3  1  0  0  0  0
  2  4  1  0  0  0  0
  2  5  1  0  0  0  0
  5  6  2  0  0  0  0
  5  7  1  0  0  0  0
  7  8  1  0  0  0  0
  7  9  1  0  0  0  0
  9 10  1  0  0  0  0
  9 11  1  0  0  0  0
  9 22  1  0  0  0  0
 11 12  1  0  0  0  0
 11 13  1  0  0  0  0
 11 14  1  0  0  0  0
 14 15  1  0  0  0  0
 14 16  1  0  0  0  0
 14 17  1  0  0  0  0
 17 18  1  0  0  0  0
 18 19  1  0  0  0  0
 18 20  1  0  0  0  0
 18 21  1  0  0  0  0
 22 23  2  0  0  0  0
 22 24  1  0  0  0  0
 24 25  1  0  0  0  0
 24 26  1  0  0  0  0
 26 27  1  0  0  0  0
 26 28  1  0  0  0  0
 26 29  1  0  0  0  0
M  END
$$$$

  -OEChem-02102214153D

 29 28  0     1  0  0  0  0  0999 V2000
   -3.3011   -3.4680    1.2705 H   0  0  0  0  0  0  0  0  0  0  0  0
   -3.2944   -2.4819    0.7977 C   0  0  0  0  0  0  0  0  0  0  0  0
   -3.9604   -1.8191    1.3556 H   0  0  0  0  0  0  0  0  0  0  0  0
   -3.6619   -2.5798   -0.2267 H   0  0  0  0  0  0  0  0  0  0  0  0
   -1.8871   -1.9164    0.7901 C   0  0  0  0  0  0  0  0  0  0  0  0
   -0.9655   -2.5624    1.2630 O   0  0  0  0  0  0  0  0  0  0  0  0
   -1.6561   -0.6641    0.2609 N   0  0  0  0  0  0  0  0  0  0  0  0
   -2.4673   -0.1262   -0.0390 H   0  0  0  0  0  0  0  0  0  0  0  0
   -0.3615    0.0328    0.2830 C   0  0  1  0  0  0  0  0  0  0  0  0
    0.2739   -0.4333    1.0433 H   0  0  0  0  0  0  0  0  0  0  0  0
    0.3422   -0.1505   -1.0759 C   0  0  0  0  0  0  0  0  0  0  0  0
    1.3997    0.1071   -0.9658 H   0  0  0  0  0  0  0  0  0  0  0  0
    0.2905   -1.2079   -1.3575 H   0  0  0  0  0  0  0  0  0  0  0  0
   -0.2590    0.7042   -2.2012 C   0  0  0  0  0  0  0  0  0  0  0  0
   -1.3509    0.6316   -2.1766 H   0  0  0  0  0  0  0  0  0  0  0  0
    0.0081    1.7575   -2.0694 H   0  0  0  0  0  0  0  0  0  0  0  0
    0.3245    0.1103   -3.8404 S   0  0  0  0  0  0  0  0  0  0  0  0
    2.1093    0.5435   -3.8238 C   0  0  0  0  0  0  0  0  0  0  0  0
    2.6338   -0.0229   -3.0492 H   0  0  0  0  0  0  0  0  0  0  0  0
    2.5598    0.3071   -4.7924 H   0  0  0  0  0  0  0  0  0  0  0  0
    2.2380    1.6124   -3.6296 H   0  0  0  0  0  0  0  0  0  0  0  0
   -0.5121    1.5118    0.6967 C   0  0  0  0  0  0  0  0  0  0  0  0
   -1.4589    2.1707    0.2818 O   0  0  0  0  0  0  0  0  0  0  0  0
    0.3543    2.0767    1.6144 N   0  0  0  0  0  0  0  0  0  0  0  0
    1.0718    1.4783    2.0145 H   0  0  0  0  0  0  0  0  0  0  0  0
    0.1980    3.4313    2.1312 C   0  0  0  0  0  0  0  0  0  0  0  0
   -0.7550    3.5317    2.6613 H   0  0  0  0  0  0  0  0  0  0  0  0
    1.0082    3.6666    2.8281 H   0  0  0  0  0  0  0  0  0  0  0  0
    0.2250    4.1591    1.3133 H   0  0  0  0  0  0  0  0  0  0  0  0
  1  2  1  0  0  0  0
  2  3  1  0  0  0  0
  2  4  1  0  0  0  0
  2  5  1  0  0  0  0
  5  6  2  0  0  0  0
  5  7  1  0  0  0  0
  7  8  1  0  0  0  0
  7  9  1  0  0  0  0
  9 10  1  0  0  0  0
  9 11  1  0  0  0  0
  9 22  1  0  0  0  0
 11 12  1  0  0  0  0
 11 13  1  0  0  0  0
 11 14  1  0  0  0  0
 14 15  1  0  0  0  0
 14 16  1  0  0  0  0
 14 17  1  0  0  0  0
 17 18  1  0  0  0  0
 18 19  1  0  0  0  0
 18 20  1  0  0  0  0
 18 21  1  0  0  0  0
 22 23  2  0  0  0  0
 22 24  1  0  0  0  0
 24 25  1  0  0  0  0
 24 26  1  0  0  0  0
 26 27  1  0  0  0  0
 26 28  1  0  0  0  0
 26 29  1  0  0  0  0
M  END
$$$$

  -OEChem-02102214153D

 29 28  0     1  0  0  0  0  0999 V2000
   -3.2618   -3.4798    1.2344 H   0  0  0  0  0  0  0  0  0  0  0  0
   -3.2672   -2.4872    0.7755 C   0  0  0  0  0  0  0  0  0  0  0  0
   -3.9340   -1.8382    1.3482 H   0  0  0  0  0  0  0  0  0  0  0  0
   -3.6429   -2.5737   -0.2469 H   0  0  0  0  0  0  0  0  0  0  0  0
   -1.8649   -1.9093    0.7642 C   0  0  0  0  0  0  0  0  0  0  0  0
   -0.9349   -2.5520    1.2252 O   0  0  0  0  0  0  0  0  0  0  0  0
   -1.6478   -0.6494    0.2472 N   0  0  0  0  0  0  0  0  0  0  0  0
   -2.4644   -0.1177   -0.0493 H   0  0  0  0  0  0  0  0  0  0  0  0
   -0.3580    0.0564    0.2660 C   0  0  1  0  0  0  0  0  0  0  0  0
    0.2849   -0.4141    1.0171 H   0  0  0  0  0  0  0  0  0  0  0  0
    0.3391   -0.1097   -1.0982 C   0  0  0  0  0  0  0  0  0  0  0  0
    1.3984    0.1463   -0.9994 H   0  0  0  0  0  0  0  0  0  0  0  0
    0.2852   -1.1666   -1.3809 H   0  0  0  0  0  0  0  0  0  0  0  0
   -0.2738    0.7497   -2.2154 C   0  0  0  0  0  0  0  0  0  0  0  0
   -1.3468    0.8796   -2.0421 H   0  0  0  0  0  0  0  0  0  0  0  0
    0.1829    1.7447   -2.2248 H   0  0  0  0  0  0  0  0  0  0  0  0
   -0.0695   -0.0685   -3.8494 S   0  0  0  0  0  0  0  0  0  0  0  0
    1.7553   -0.1191   -4.0548 C   0  0  0  0  0  0  0  0  0  0  0  0
    2.2103   -0.7421   -3.2795 H   0  0  0  0  0  0  0  0  0  0  0  0
    2.0096   -0.5393   -5.0324 H   0  0  0  0  0  0  0  0  0  0  0  0
    2.1727    0.8899   -3.9885 H   0  0  0  0  0  0  0  0  0  0  0  0
   -0.5082    1.5309    0.6972 C   0  0  0  0  0  0  0  0  0  0  0  0
   -1.4628    2.1919    0.3041 O   0  0  0  0  0  0  0  0  0  0  0  0
    0.3666    2.0872    1.6123 N   0  0  0  0  0  0  0  0  0  0  0  0
    1.0882    1.4851    1.9990 H   0  0  0  0  0  0  0  0  0  0  0  0
    0.2042    3.4300    2.1572 C   0  0  0  0  0  0  0  0  0  0  0  0
   -0.7348    3.5059    2.7155 H   0  0  0  0  0  0  0  0  0  0  0  0
    1.0301    3.6662    2.8351 H   0  0  0  0  0  0  0  0  0  0  0  0
    0.1963    4.1726    1.3522 H   0  0  0  0  0  0  0  0  0  0  0  0
  1  2  1  0  0  0  0
  2  3  1  0  0  0  0
  2  4  1  0  0  0  0
  2  5  1  0  0  0  0
  5  6  2  0  0  0  0
  5  7  1  0  0  0  0
  7  8  1  0  0  0  0
  7  9  1  0  0  0  0
  9 10  1  0  0  0  0
  9 11  1  0  0  0  0
  9 22  1  0  0  0  0
 11 12  1  0  0  0  0
 11 13  1  0  0  0  0
 11 14  1  0  0  0  0
 14 15  1  0  0  0  0
 14 16  1  0  0  0  0
 14 17  1  0  0  0  0
 17 18  1  0  0  0  0
 18 19  1  0  0  0  0
 18 20  1  0  0  0  0
 18 21  1  0  0  0  0
 22 23  2  0  0  0  0
 22 24  1  0  0  0  0
 24 25  1  0  0  0  0
 24 26  1  0  0  0  0
 26 27  1  0  0  0  0
 26 28  1  0  0  0  0
 26 29  1  0  0  0  0
M  END
$$$$

  -OEChem-02102214153D

 29 28  0     1  0  0  0  0  0999 V2000
   -3.2682   -3.4835    1.2110 H   0  0  0  0  0  0  0  0  0  0  0  0
   -3.2711   -2.4941    0.7454 C   0  0  0  0  0  0  0  0  0  0  0  0
   -3.9605   -1.8483    1.2944 H   0  0  0  0  0  0  0  0  0  0  0  0
   -3.6164   -2.5912   -0.2867 H   0  0  0  0  0  0  0  0  0  0  0  0
   -1.8755   -1.9009    0.7692 C   0  0  0  0  0  0  0  0  0  0  0  0
   -0.9488   -2.5357    1.2477 O   0  0  0  0  0  0  0  0  0  0  0  0
   -1.6603   -0.6386    0.2576 N   0  0  0  0  0  0  0  0  0  0  0  0
   -2.4731   -0.1204   -0.0706 H   0  0  0  0  0  0  0  0  0  0  0  0
   -0.3723    0.0698    0.2744 C   0  0  1  0  0  0  0  0  0  0  0  0
    0.2678   -0.4022    1.0267 H   0  0  0  0  0  0  0  0  0  0  0  0
    0.3283   -0.1117   -1.0865 C   0  0  0  0  0  0  0  0  0  0  0  0
    1.3857    0.1510   -0.9848 H   0  0  0  0  0  0  0  0  0  0  0  0
    0.2852   -1.1740   -1.3497 H   0  0  0  0  0  0  0  0  0  0  0  0
   -0.2750    0.7287   -2.2265 C   0  0  0  0  0  0  0  0  0  0  0  0
   -1.2714    1.0869   -1.9515 H   0  0  0  0  0  0  0  0  0  0  0  0
    0.3492    1.6063   -2.4219 H   0  0  0  0  0  0  0  0  0  0  0  0
   -0.4644   -0.2808   -3.7521 S   0  0  0  0  0  0  0  0  0  0  0  0
    1.2768   -0.6461   -4.2096 C   0  0  0  0  0  0  0  0  0  0  0  0
    1.7668   -1.2240   -3.4209 H   0  0  0  0  0  0  0  0  0  0  0  0
    1.3053   -1.2273   -5.1361 H   0  0  0  0  0  0  0  0  0  0  0  0
    1.8320    0.2840   -4.3632 H   0  0  0  0  0  0  0  0  0  0  0  0
   -0.5074    1.5449    0.7107 C   0  0  0  0  0  0  0  0  0  0  0  0
   -1.4595    2.2174    0.3324 O   0  0  0  0  0  0  0  0  0  0  0  0
    0.3803    2.0877    1.6216 N   0  0  0  0  0  0  0  0  0  0  0  0
    1.1008    1.4772    1.9965 H   0  0  0  0  0  0  0  0  0  0  0  0
    0.2430    3.4325    2.1682 C   0  0  0  0  0  0  0  0  0  0  0  0
   -0.6989    3.5287    2.7185 H   0  0  0  0  0  0  0  0  0  0  0  0
    1.0677    3.6480    2.8543 H   0  0  0  0  0  0  0  0  0  0  0  0
    0.2597    4.1766    1.3650 H   0  0  0  0  0  0  0  0  0  0  0  0
  1  2  1  0  0  0  0
  2  3  1  0  0  0  0
  2  4  1  0  0  0  0
  2  5  1  0  0  0  0
  5  6  2  0  0  0  0
  5  7  1  0  0  0  0
  7  8  1  0  0  0  0
  7  9  1  0  0  0  0
  9 10  1  0  0  0  0
  9 11  1  0  0  0  0
  9 22  1  0  0  0  0
 11 12  1  0  0  0  0
 11 13  1  0  0  0  0
 11 14  1  0  0  0  0
 14 15  1  0  0  0  0
 14 16  1  0  0  0  0
 14 17  1  0  0  0  0
 17 18  1  0  0  0  0
 18 19  1  0  0  0  0
 18 20  1  0  0  0  0
 18 21  1  0  0  0  0
 22 23  2  0  0  0  0
 22 24  1  0  0  0  0
 24 25  1  0  0  0  0
 24 26  1  0  0  0  0
 26 27  1  0  0  0  0
 26 28  1  0  0  0  0
 26 29  1  0  0  0  0
M  END
$$$$

  -OEChem-02102214153D

 29 28  0     1  0  0  0  0  0999 V2000
   -3.2779   -3.4762    1.1816 H   0  0  0  0  0  0  0  0  0  0  0  0
   -3.2774   -2.4835    0.7230 C   0  0  0  0  0  0  0  0  0  0  0  0
   -3.9804   -1.8450    1.2634 H   0  0  0  0  0  0  0  0  0  0  0  0
   -3.6028   -2.5748   -0.3162 H   0  0  0  0  0  0  0  0  0  0  0  0
   -1.8856   -1.8832    0.7768 C   0  0  0  0  0  0  0  0  0  0  0  0
   -0.9639   -2.5164    1.2676 O   0  0  0  0  0  0  0  0  0  0  0  0
   -1.6672   -0.6199    0.2695 N   0  0  0  0  0  0  0  0  0  0  0  0
   -2.4731   -0.1133   -0.0920 H   0  0  0  0  0  0  0  0  0  0  0  0
   -0.3786    0.0863    0.2837 C   0  0  1  0  0  0  0  0  0  0  0  0
    0.2576   -0.3860    1.0391 H   0  0  0  0  0  0  0  0  0  0  0  0
    0.3213   -0.1216   -1.0743 C   0  0  0  0  0  0  0  0  0  0  0  0
    1.3738    0.1571   -0.9651 H   0  0  0  0  0  0  0  0  0  0  0  0
    0.2994   -1.1894   -1.3150 H   0  0  0  0  0  0  0  0  0  0  0  0
   -0.2683    0.6952   -2.2412 C   0  0  0  0  0  0  0  0  0  0  0  0
   -1.1134    1.3045   -1.9119 H   0  0  0  0  0  0  0  0  0  0  0  0
    0.4899    1.3762   -2.6404 H   0  0  0  0  0  0  0  0  0  0  0  0
   -0.8674   -0.4173   -3.5781 S   0  0  0  0  0  0  0  0  0  0  0  0
    0.6954   -1.0989   -4.2623 C   0  0  0  0  0  0  0  0  0  0  0  0
    1.2390   -1.6586   -3.4959 H   0  0  0  0  0  0  0  0  0  0  0  0
    0.4753   -1.7732   -5.0953 H   0  0  0  0  0  0  0  0  0  0  0  0
    1.3340   -0.2890   -4.6270 H   0  0  0  0  0  0  0  0  0  0  0  0
   -0.5026    1.5618    0.7246 C   0  0  0  0  0  0  0  0  0  0  0  0
   -1.4614    2.2379    0.3704 O   0  0  0  0  0  0  0  0  0  0  0  0
    0.3938    2.0963    1.6323 N   0  0  0  0  0  0  0  0  0  0  0  0
    1.1133    1.4802    2.0002 H   0  0  0  0  0  0  0  0  0  0  0  0
    0.2580    3.4347    2.1955 C   0  0  0  0  0  0  0  0  0  0  0  0
   -0.6767    3.5206    2.7597 H   0  0  0  0  0  0  0  0  0  0  0  0
    1.0913    3.6471    2.8720 H   0  0  0  0  0  0  0  0  0  0  0  0
    0.2595    4.1878    1.4004 H   0  0  0  0  0  0  0  0  0  0  0  0
  1  2  1  0  0  0  0
  2  3  1  0  0  0  0
  2  4  1  0  0  0  0
  2  5  1  0  0  0  0
  5  6  2  0  0  0  0
  5  7  1  0  0  0  0
  7  8  1  0  0  0  0
  7  9  1  0  0  0  0
  9 10  1  0  0  0  0
  9 11  1  0  0  0  0
  9 22  1  0  0  0  0
 11 12  1  0  0  0  0
 11 13  1  0  0  0  0
 11 14  1  0  0  0  0
 14 15  1  0  0  0  0
 14 16  1  0  0  0  0
 14 17  1  0  0  0  0
 17 18  1  0  0  0  0
 18 19  1  0  0  0  0
 18 20  1  0  0  0  0
 18 21  1  0  0  0  0
 22 23  2  0  0  0  0
 22 24  1  0  0  0  0
 24 25  1  0  0  0  0
 24 26  1  0  0  0  0
 26 27  1  0  0  0  0
 26 28  1  0  0  0  0
 26 29  1  0  0  0  0
M  END
$$$$

  -OEChem-02102214153D

 29 28  0     1  0  0  0  0  0999 V2000
   -3.2880   -3.4689    1.1645 H   0  0  0  0  0  0  0  0  0  0  0  0
   -3.2827   -2.4758    0.7069 C   0  0  0  0  0  0  0  0  0  0  0  0
   -4.0030   -1.8425    1.2303 H   0  0  0  0  0  0  0  0  0  0  0  0
   -3.5816   -2.5682   -0.3401 H   0  0  0  0  0  0  0  0  0  0  0  0
   -1.8970   -1.8660    0.7957 C   0  0  0  0  0  0  0  0  0  0  0  0
   -0.9845   -2.4916    1.3130 O   0  0  0  0  0  0  0  0  0  0  0  0
   -1.6719   -0.6053    0.2854 N   0  0  0  0  0  0  0  0  0  0  0  0
   -2.4643   -0.1160   -0.1267 H   0  0  0  0  0  0  0  0  0  0  0  0
   -0.3817    0.0969    0.2997 C   0  0  1  0  0  0  0  0  0  0  0  0
    0.2494   -0.3731    1.0609 H   0  0  0  0  0  0  0  0  0  0  0  0
    0.3189   -0.1364   -1.0545 C   0  0  0  0  0  0  0  0  0  0  0  0
    1.3660    0.1602   -0.9375 H   0  0  0  0  0  0  0  0  0  0  0  0
    0.3174   -1.2073   -1.2804 H   0  0  0  0  0  0  0  0  0  0  0  0
   -0.2582    0.6608   -2.2405 C   0  0  0  0  0  0  0  0  0  0  0  0
   -0.8852    1.4908   -1.9084 H   0  0  0  0  0  0  0  0  0  0  0  0
    0.5624    1.0903   -2.8235 H   0  0  0  0  0  0  0  0  0  0  0  0
   -1.2497   -0.4375   -3.3345 S   0  0  0  0  0  0  0  0  0  0  0  0
    0.0383   -1.4247   -4.1965 C   0  0  0  0  0  0  0  0  0  0  0  0
    0.6155   -2.0153   -3.4797 H   0  0  0  0  0  0  0  0  0  0  0  0
   -0.4307   -2.1075   -4.9112 H   0  0  0  0  0  0  0  0  0  0  0  0
    0.7204   -0.7645   -4.7401 H   0  0  0  0  0  0  0  0  0  0  0  0
   -0.4980    1.5746    0.7350 C   0  0  0  0  0  0  0  0  0  0  0  0
   -1.4533    2.2556    0.3812 O   0  0  0  0  0  0  0  0  0  0  0  0
    0.4016    2.1055    1.6421 N   0  0  0  0  0  0  0  0  0  0  0  0
    1.1155    1.4849    2.0130 H   0  0  0  0  0  0  0  0  0  0  0  0
    0.2706    3.4432    2.2082 C   0  0  0  0  0  0  0  0  0  0  0  0
   -0.6642    3.5314    2.7720 H   0  0  0  0  0  0  0  0  0  0  0  0
    1.1043    3.6509    2.8860 H   0  0  0  0  0  0  0  0  0  0  0  0
    0.2760    4.1978    1.4144 H   0  0  0  0  0  0  0  0  0  0  0  0
  1  2  1  0  0  0  0
  2  3  1  0  0  0  0
  2  4  1  0  0  0  0
  2  5  1  0  0  0  0
  5  6  2  0  0  0  0
  5  7  1  0  0  0  0
  7  8  1  0  0  0  0
  7  9  1  0  0  0  0
  9 10  1  0  0  0  0
  9 11  1  0  0  0  0
  9 22  1  0  0  0  0
 11 12  1  0  0  0  0
 11 13  1  0  0  0  0
 11 14  1  0  0  0  0
 14 15  1  0  0  0  0
 14 16  1  0  0  0  0
 14 17  1  0  0  0  0
 17 18  1  0  0  0  0
 18 19  1  0  0  0  0
 18 20  1  0  0  0  0
 18 21  1  0  0  0  0
 22 23  2  0  0  0  0
 22 24  1  0  0  0  0
 24 25  1  0  0  0  0
 24 26  1  0  0  0  0
 26 27  1  0  0  0  0
 26 28  1  0  0  0  0
 26 29  1  0  0  0  0
M  END
$$$$

  -OEChem-02102214153D

 29 28  0     1  0  0  0  0  0999 V2000
   -3.2951   -3.4655    1.1511 H   0  0  0  0  0  0  0  0  0  0  0  0
   -3.2807   -2.4731    0.6924 C   0  0  0  0  0  0  0  0  0  0  0  0
   -4.0145   -1.8402    1.1971 H   0  0  0  0  0  0  0  0  0  0  0  0
   -3.5540   -2.5671   -0.3615 H   0  0  0  0  0  0  0  0  0  0  0  0
   -1.8988   -1.8603    0.8144 C   0  0  0  0  0  0  0  0  0  0  0  0
   -0.9984   -2.4817    1.3577 O   0  0  0  0  0  0  0  0  0  0  0  0
   -1.6623   -0.6050    0.2975 N   0  0  0  0  0  0  0  0  0  0  0  0
   -2.4370   -0.1346   -0.1675 H   0  0  0  0  0  0  0  0  0  0  0  0
   -0.3699    0.0918    0.3133 C   0  0  1  0  0  0  0  0  0  0  0  0
    0.2584   -0.3757    1.0780 H   0  0  0  0  0  0  0  0  0  0  0  0
    0.3300   -0.1486   -1.0407 C   0  0  0  0  0  0  0  0  0  0  0  0
    1.3762    0.1500   -0.9211 H   0  0  0  0  0  0  0  0  0  0  0  0
    0.3304   -1.2189   -1.2672 H   0  0  0  0  0  0  0  0  0  0  0  0
   -0.2425    0.6485   -2.2280 C   0  0  0  0  0  0  0  0  0  0  0  0
   -0.6171    1.6270   -1.9191 H   0  0  0  0  0  0  0  0  0  0  0  0
    0.5556    0.8290   -2.9546 H   0  0  0  0  0  0  0  0  0  0  0  0
   -1.5818   -0.2962   -3.0669 S   0  0  0  0  0  0  0  0  0  0  0  0
   -0.6641   -1.5995   -3.9810 C   0  0  0  0  0  0  0  0  0  0  0  0
   -0.1301   -2.2547   -3.2873 H   0  0  0  0  0  0  0  0  0  0  0  0
   -1.3621   -2.2071   -4.5647 H   0  0  0  0  0  0  0  0  0  0  0  0
    0.0590   -1.1450   -4.6645 H   0  0  0  0  0  0  0  0  0  0  0  0
   -0.4897    1.5722    0.7381 C   0  0  0  0  0  0  0  0  0  0  0  0
   -1.4357    2.2553    0.3639 O   0  0  0  0  0  0  0  0  0  0  0  0
    0.4038    2.1091    1.6474 N   0  0  0  0  0  0  0  0  0  0  0  0
    1.1095    1.4885    2.0337 H   0  0  0  0  0  0  0  0  0  0  0  0
    0.2742    3.4543    2.1955 C   0  0  0  0  0  0  0  0  0  0  0  0
   -0.6677    3.5554    2.7451 H   0  0  0  0  0  0  0  0  0  0  0  0
    1.0999    3.6645    2.8822 H   0  0  0  0  0  0  0  0  0  0  0  0
    0.2953    4.1991    1.3930 H   0  0  0  0  0  0  0  0  0  0  0  0
  1  2  1  0  0  0  0
  2  3  1  0  0  0  0
  2  4  1  0  0  0  0
  2  5  1  0  0  0  0
  5  6  2  0  0  0  0
  5  7  1  0  0  0  0
  7  8  1  0  0  0  0
  7  9  1  0  0  0  0
  9 10  1  0  0  0  0
  9 11  1  0  0  0  0
  9 22  1  0  0  0  0
 11 12  1  0  0  0  0
 11 13  1  0  0  0  0
 11 14  1  0  0  0  0
 14 15  1  0  0  0  0
 14 16  1  0  0  0  0
 14 17  1  0  0  0  0
 17 18  1  0  0  0  0
 18 19  1  0  0  0  0
 18 20  1  0  0  0  0
 18 21  1  0  0  0  0
 22 23  2  0  0  0  0
 22 24  1  0  0  0  0
 24 25  1  0  0  0  0
 24 26  1  0  0  0  0
 26 27  1  0  0  0  0
 26 28  1  0  0  0  0
 26 29  1  0  0  0  0
M  END
$$$$

  -OEChem-02102214153D

 29 28  0     1  0  0  0  0  0999 V2000
   -3.2861   -3.4821    1.0879 H   0  0  0  0  0  0  0  0  0  0  0  0
   -3.2740   -2.4787    0.6537 C   0  0  0  0  0  0  0  0  0  0  0  0
   -4.0047   -1.8583    1.1781 H   0  0  0  0  0  0  0  0  0  0  0  0
   -3.5532   -2.5464   -0.4005 H   0  0  0  0  0  0  0  0  0  0  0  0
   -1.8914   -1.8691    0.7825 C   0  0  0  0  0  0  0  0  0  0  0  0
   -0.9918   -2.4961    1.3201 O   0  0  0  0  0  0  0  0  0  0  0  0
   -1.6512   -0.6132    0.2701 N   0  0  0  0  0  0  0  0  0  0  0  0
   -2.4213   -0.1416   -0.2029 H   0  0  0  0  0  0  0  0  0  0  0  0
   -0.3588    0.0828    0.2883 C   0  0  1  0  0  0  0  0  0  0  0  0
    0.2701   -0.3887    1.0501 H   0  0  0  0  0  0  0  0  0  0  0  0
    0.3508   -0.1266   -1.0667 C   0  0  0  0  0  0  0  0  0  0  0  0
    1.3964    0.1698   -0.9378 H   0  0  0  0  0  0  0  0  0  0  0  0
    0.3533   -1.1914   -1.3155 H   0  0  0  0  0  0  0  0  0  0  0  0
   -0.2156    0.6907   -2.2436 C   0  0  0  0  0  0  0  0  0  0  0  0
   -0.3468    1.7398   -1.9631 H   0  0  0  0  0  0  0  0  0  0  0  0
    0.5063    0.6688   -3.0657 H   0  0  0  0  0  0  0  0  0  0  0  0
   -1.8143    0.0145   -2.8647 S   0  0  0  0  0  0  0  0  0  0  0  0
   -1.3605   -1.6385   -3.5266 C   0  0  0  0  0  0  0  0  0  0  0  0
   -1.0665   -2.3111   -2.7159 H   0  0  0  0  0  0  0  0  0  0  0  0
   -2.2154   -2.0790   -4.0481 H   0  0  0  0  0  0  0  0  0  0  0  0
   -0.5290   -1.5491   -4.2320 H   0  0  0  0  0  0  0  0  0  0  0  0
   -0.4853    1.5605    0.7176 C   0  0  0  0  0  0  0  0  0  0  0  0
   -1.4230    2.2468    0.3292 O   0  0  0  0  0  0  0  0  0  0  0  0
    0.4054    2.0962    1.6303 N   0  0  0  0  0  0  0  0  0  0  0  0
    1.1054    1.4729    2.0224 H   0  0  0  0  0  0  0  0  0  0  0  0
    0.2729    3.4397    2.1810 C   0  0  0  0  0  0  0  0  0  0  0  0
   -0.6466    3.5228    2.7698 H   0  0  0  0  0  0  0  0  0  0  0  0
    1.1234    3.6676    2.8307 H   0  0  0  0  0  0  0  0  0  0  0  0
    0.2448    4.1835    1.3776 H   0  0  0  0  0  0  0  0  0  0  0  0
  1  2  1  0  0  0  0
  2  3  1  0  0  0  0
  2  4  1  0  0  0  0
  2  5  1  0  0  0  0
  5  6  2  0  0  0  0
  5  7  1  0  0  0  0
  7  8  1  0  0  0  0
  7  9  1  0  0  0  0
  9 10  1  0  0  0  0
  9 11  1  0  0  0  0
  9 22  1  0  0  0  0
 11 12  1  0  0  0  0
 11 13  1  0  0  0  0
 11 14  1  0  0  0  0
 14 15  1  0  0  0  0
 14 16  1  0  0  0  0
 14 17  1  0  0  0  0
 17 18  1  0  0  0  0
 18 19  1  0  0  0  0
 18 20  1  0  0  0  0
 18 21  1  0  0  0  0
 22 23  2  0  0  0  0
 22 24  1  0  0  0  0
 24 25  1  0  0  0  0
 24 26  1  0  0  0  0
 26 27  1  0  0  0  0
 26 28  1  0  0  0  0
 26 29  1  0  0  0  0
M  END
$$$$

  -OEChem-02102214153D

 29 28  0     1  0  0  0  0  0999 V2000
   -3.3154   -3.4776    1.1917 H   0  0  0  0  0  0  0  0  0  0  0  0
   -3.2982   -2.4865    0.7300 C   0  0  0  0  0  0  0  0  0  0  0  0
   -4.0131   -1.8433    1.2488 H   0  0  0  0  0  0  0  0  0  0  0  0
   -3.5957   -2.5796   -0.3173 H   0  0  0  0  0  0  0  0  0  0  0  0
   -1.9066   -1.8906    0.8208 C   0  0  0  0  0  0  0  0  0  0  0  0
   -0.9991   -2.5262    1.3343 O   0  0  0  0  0  0  0  0  0  0  0  0
   -1.6665   -0.6401    0.2959 N   0  0  0  0  0  0  0  0  0  0  0  0
   -2.4446   -0.1568   -0.1530 H   0  0  0  0  0  0  0  0  0  0  0  0
   -0.3740    0.0554    0.2982 C   0  0  1  0  0  0  0  0  0  0  0  0
    0.2571   -0.4114    1.0612 H   0  0  0  0  0  0  0  0  0  0  0  0
    0.3470   -0.1394   -1.0544 C   0  0  0  0  0  0  0  0  0  0  0  0
    1.3963    0.1411   -0.9200 H   0  0  0  0  0  0  0  0  0  0  0  0
    0.3324   -1.2031   -1.3097 H   0  0  0  0  0  0  0  0  0  0  0  0
   -0.2022    0.6748   -2.2437 C   0  0  0  0  0  0  0  0  0  0  0  0
   -0.1089    1.7445   -2.0290 H   0  0  0  0  0  0  0  0  0  0  0  0
    0.4092    0.4685   -3.1275 H   0  0  0  0  0  0  0  0  0  0  0  0
   -1.9642    0.3107   -2.6474 S   0  0  0  0  0  0  0  0  0  0  0  0
   -1.9045   -1.4451   -3.1843 C   0  0  0  0  0  0  0  0  0  0  0  0
   -1.5992   -2.0904   -2.3558 H   0  0  0  0  0  0  0  0  0  0  0  0
   -2.8926   -1.7646   -3.5285 H   0  0  0  0  0  0  0  0  0  0  0  0
   -1.1922   -1.5656   -4.0057 H   0  0  0  0  0  0  0  0  0  0  0  0
   -0.4985    1.5369    0.7148 C   0  0  0  0  0  0  0  0  0  0  0  0
   -1.4319    2.2239    0.3185 O   0  0  0  0  0  0  0  0  0  0  0  0
    0.3978    2.0818    1.6165 N   0  0  0  0  0  0  0  0  0  0  0  0
    1.1027    1.4647    2.0094 H   0  0  0  0  0  0  0  0  0  0  0  0
    0.2795    3.4384    2.1377 C   0  0  0  0  0  0  0  0  0  0  0  0
   -0.6616    3.5578    2.6850 H   0  0  0  0  0  0  0  0  0  0  0  0
    1.1071    3.6552    2.8198 H   0  0  0  0  0  0  0  0  0  0  0  0
    0.3062    4.1666    1.3201 H   0  0  0  0  0  0  0  0  0  0  0  0
  1  2  1  0  0  0  0
  2  3  1  0  0  0  0
  2  4  1  0  0  0  0
  2  5  1  0  0  0  0
  5  6  2  0  0  0  0
  5  7  1  0  0  0  0
  7  8  1  0  0  0  0
  7  9  1  0  0  0  0
  9 10  1  0  0  0  0
  9 11  1  0  0  0  0
  9 22  1  0  0  0  0
 11 12  1  0  0  0  0
 11 13  1  0  0  0  0
 11 14  1  0  0  0  0
 14 15  1  0  0  0  0
 14 16  1  0  0  0  0
 14 17  1  0  0  0  0
 17 18  1  0  0  0  0
 18 19  1  0  0  0  0
 18 20  1  0  0  0  0
 18 21  1  0  0  0  0
 22 23  2  0  0  0  0
 22 24  1  0  0  0  0
 24 25  1  0  0  0  0
 24 26  1  0  0  0  0
 26 27  1  0  0  0  0
 26 28  1  0  0  0  0
 26 29  1  0  0  0  0
M  END
$$$$

  -OEChem-02102214153D

 29 28  0     1  0  0  0  0  0999 V2000
   -3.3094   -3.4669    1.3746 H   0  0  0  0  0  0  0  0  0  0  0  0
   -3.3100   -2.4830    0.8974 C   0  0  0  0  0  0  0  0  0  0  0  0
   -3.9922   -1.8270    1.4435 H   0  0  0  0  0  0  0  0  0  0  0  0
   -3.6635   -2.5890   -0.1310 H   0  0  0  0  0  0  0  0  0  0  0  0
   -1.9112   -1.8967    0.9062 C   0  0  0  0  0  0  0  0  0  0  0  0
   -0.9821   -2.5352    1.3753 O   0  0  0  0  0  0  0  0  0  0  0  0
   -1.6917   -0.6491    0.3653 N   0  0  0  0  0  0  0  0  0  0  0  0
   -2.4921   -0.1521   -0.0259 H   0  0  0  0  0  0  0  0  0  0  0  0
   -0.4044    0.0554    0.3304 C   0  0  1  0  0  0  0  0  0  0  0  0
    0.2353   -0.3994    1.0934 H   0  0  0  0  0  0  0  0  0  0  0  0
    0.3196   -0.1523   -1.0188 C   0  0  0  0  0  0  0  0  0  0  0  0
    1.3721    0.1193   -0.8899 H   0  0  0  0  0  0  0  0  0  0  0  0
    0.2922   -1.2218   -1.2505 H   0  0  0  0  0  0  0  0  0  0  0  0
   -0.2182    0.6206   -2.2425 C   0  0  0  0  0  0  0  0  0  0  0  0
    0.0824    1.6689   -2.1441 H   0  0  0  0  0  0  0  0  0  0  0  0
    0.2514    0.2320   -3.1514 H   0  0  0  0  0  0  0  0  0  0  0  0
   -2.0496    0.5927   -2.4444 S   0  0  0  0  0  0  0  0  0  0  0  0
   -2.3321   -1.1333   -3.0051 C   0  0  0  0  0  0  0  0  0  0  0  0
   -1.9590   -1.8438   -2.2621 H   0  0  0  0  0  0  0  0  0  0  0  0
   -3.4018   -1.3091   -3.1527 H   0  0  0  0  0  0  0  0  0  0  0  0
   -1.8139   -1.3119   -3.9520 H   0  0  0  0  0  0  0  0  0  0  0  0
   -0.5157    1.5419    0.7357 C   0  0  0  0  0  0  0  0  0  0  0  0
   -1.4740    2.2216    0.3919 O   0  0  0  0  0  0  0  0  0  0  0  0
    0.4081    2.0896    1.6082 N   0  0  0  0  0  0  0  0  0  0  0  0
    1.1328    1.4765    1.9700 H   0  0  0  0  0  0  0  0  0  0  0  0
    0.2990    3.4420    2.1425 C   0  0  0  0  0  0  0  0  0  0  0  0
   -0.6154    3.5465    2.7359 H   0  0  0  0  0  0  0  0  0  0  0  0
    1.1563    3.6658    2.7845 H   0  0  0  0  0  0  0  0  0  0  0  0
    0.2771    4.1750    1.3292 H   0  0  0  0  0  0  0  0  0  0  0  0
  1  2  1  0  0  0  0
  2  3  1  0  0  0  0
  2  4  1  0  0  0  0
  2  5  1  0  0  0  0
  5  6  2  0  0  0  0
  5  7  1  0  0  0  0
  7  8  1  0  0  0  0
  7  9  1  0  0  0  0
  9 10  1  0  0  0  0
  9 11  1  0  0  0  0
  9 22  1  0  0  0  0
 11 12  1  0  0  0  0
 11 13  1  0  0  0  0
 11 14  1  0  0  0  0
 14 15  1  0  0  0  0
 14 16  1  0  0  0  0
 14 17  1  0  0  0  0
 17 18  1  0  0  0  0
 18 19  1  0  0  0  0
 18 20  1  0  0  0  0
 18 21  1  0  0  0  0
 22 23  2  0  0  0  0
 22 24  1  0  0  0  0
 24 25  1  0  0  0  0
 24 26  1  0  0  0  0
 26 27  1  0  0  0  0
 26 28  1  0  0  0  0
 26 29  1  0  0  0  0
M  END
$$$$

  -OEChem-02102214153D

 29 28  0     1  0  0  0  0  0999 V2000
   -3.2454   -3.4558    1.5422 H   0  0  0  0  0  0  0  0  0  0  0  0
   -3.2765   -2.4730    1.0638 C   0  0  0  0  0  0  0  0  0  0  0  0
   -3.9158   -1.8135    1.6557 H   0  0  0  0  0  0  0  0  0  0  0  0
   -3.7024   -2.5804    0.0635 H   0  0  0  0  0  0  0  0  0  0  0  0
   -1.8787   -1.8913    0.9723 C   0  0  0  0  0  0  0  0  0  0  0  0
   -0.9190   -2.5392    1.3600 O   0  0  0  0  0  0  0  0  0  0  0  0
   -1.6968   -0.6364    0.4336 N   0  0  0  0  0  0  0  0  0  0  0  0
   -2.5263   -0.1186    0.1440 H   0  0  0  0  0  0  0  0  0  0  0  0
   -0.4202    0.0844    0.3522 C   0  0  1  0  0  0  0  0  0  0  0  0
    0.2353   -0.3618    1.1070 H   0  0  0  0  0  0  0  0  0  0  0  0
    0.2938   -0.1472   -0.9984 C   0  0  0  0  0  0  0  0  0  0  0  0
    1.3468    0.1288   -0.8841 H   0  0  0  0  0  0  0  0  0  0  0  0
    0.2687   -1.2245   -1.1927 H   0  0  0  0  0  0  0  0  0  0  0  0
   -0.2454    0.5662   -2.2580 C   0  0  0  0  0  0  0  0  0  0  0  0
    0.2513    1.5397   -2.3236 H   0  0  0  0  0  0  0  0  0  0  0  0
    0.0393   -0.0022   -3.1489 H   0  0  0  0  0  0  0  0  0  0  0  0
   -2.0561    0.8969   -2.2923 S   0  0  0  0  0  0  0  0  0  0  0  0
   -2.7110   -0.7268   -2.8457 C   0  0  0  0  0  0  0  0  0  0  0  0
   -2.3734   -1.5245   -2.1780 H   0  0  0  0  0  0  0  0  0  0  0  0
   -3.8049   -0.7087   -2.8474 H   0  0  0  0  0  0  0  0  0  0  0  0
   -2.3634   -0.9478   -3.8592 H   0  0  0  0  0  0  0  0  0  0  0  0
   -0.5196    1.5689    0.7723 C   0  0  0  0  0  0  0  0  0  0  0  0
   -1.5351    2.2199    0.5634 O   0  0  0  0  0  0  0  0  0  0  0  0
    0.4425    2.1101    1.6072 N   0  0  0  0  0  0  0  0  0  0  0  0
    1.2120    1.5096    1.8877 H   0  0  0  0  0  0  0  0  0  0  0  0
    0.3248    3.4317    2.2126 C   0  0  0  0  0  0  0  0  0  0  0  0
   -0.5401    3.4696    2.8832 H   0  0  0  0  0  0  0  0  0  0  0  0
    1.2233    3.6649    2.7918 H   0  0  0  0  0  0  0  0  0  0  0  0
    0.2050    4.1986    1.4400 H   0  0  0  0  0  0  0  0  0  0  0  0
  1  2  1  0  0  0  0
  2  3  1  0  0  0  0
  2  4  1  0  0  0  0
  2  5  1  0  0  0  0
  5  6  2  0  0  0  0
  5  7  1  0  0  0  0
  7  8  1  0  0  0  0
  7  9  1  0  0  0  0
  9 10  1  0  0  0  0
  9 11  1  0  0  0  0
  9 22  1  0  0  0  0
 11 12  1  0  0  0  0
 11 13  1  0  0  0  0
 11 14  1  0  0  0  0
 14 15  1  0  0  0  0
 14 16  1  0  0  0  0
 14 17  1  0  0  0  0
 17 18  1  0  0  0  0
 18 19  1  0  0  0  0
 18 20  1  0  0  0  0
 18 21  1  0  0  0  0
 22 23  2  0  0  0  0
 22 24  1  0  0  0  0
 24 25  1  0  0  0  0
 24 26  1  0  0  0  0
 26 27  1  0  0  0  0
 26 28  1  0  0  0  0
 26 29  1  0  0  0  0
M  END
$$$$

  -OEChem-02102214153D

 29 28  0     1  0  0  0  0  0999 V2000
   -3.1314   -3.4734    1.6579 H   0  0  0  0  0  0  0  0  0  0  0  0
   -3.2048   -2.4797    1.2074 C   0  0  0  0  0  0  0  0  0  0  0  0
   -3.7899   -1.8358    1.8684 H   0  0  0  0  0  0  0  0  0  0  0  0
   -3.7168   -2.5647    0.2461 H   0  0  0  0  0  0  0  0  0  0  0  0
   -1.8203   -1.8930    1.0074 C   0  0  0  0  0  0  0  0  0  0  0  0
   -0.8303   -2.5490    1.2915 O   0  0  0  0  0  0  0  0  0  0  0  0
   -1.6863   -0.6221    0.4919 N   0  0  0  0  0  0  0  0  0  0  0  0
   -2.5381   -0.0853    0.3315 H   0  0  0  0  0  0  0  0  0  0  0  0
   -0.4244    0.1183    0.3652 C   0  0  1  0  0  0  0  0  0  0  0  0
    0.2547   -0.3286    1.0986 H   0  0  0  0  0  0  0  0  0  0  0  0
    0.2653   -0.1236   -0.9969 C   0  0  0  0  0  0  0  0  0  0  0  0
    1.3146    0.1731   -0.9012 H   0  0  0  0  0  0  0  0  0  0  0  0
    0.2610   -1.2056   -1.1665 H   0  0  0  0  0  0  0  0  0  0  0  0
   -0.2915    0.5438   -2.2752 C   0  0  0  0  0  0  0  0  0  0  0  0
    0.3728    1.3771   -2.5256 H   0  0  0  0  0  0  0  0  0  0  0  0
   -0.2385   -0.1669   -3.1059 H   0  0  0  0  0  0  0  0  0  0  0  0
   -1.9904    1.2400   -2.1802 S   0  0  0  0  0  0  0  0  0  0  0  0
   -3.0106   -0.2006   -2.6860 C   0  0  0  0  0  0  0  0  0  0  0  0
   -2.7923   -1.0659   -2.0542 H   0  0  0  0  0  0  0  0  0  0  0  0
   -4.0730    0.0436   -2.5945 H   0  0  0  0  0  0  0  0  0  0  0  0
   -2.8011   -0.4649   -3.7267 H   0  0  0  0  0  0  0  0  0  0  0  0
   -0.5149    1.5920    0.8265 C   0  0  0  0  0  0  0  0  0  0  0  0
   -1.5756    2.2023    0.7733 O   0  0  0  0  0  0  0  0  0  0  0  0
    0.4881    2.1176    1.6233 N   0  0  0  0  0  0  0  0  0  0  0  0
    1.3001    1.5343    1.8008 H   0  0  0  0  0  0  0  0  0  0  0  0
    0.3741    3.3939    2.3207 C   0  0  0  0  0  0  0  0  0  0  0  0
   -0.4247    3.3516    3.0686 H   0  0  0  0  0  0  0  0  0  0  0  0
    1.3129    3.6327    2.8295 H   0  0  0  0  0  0  0  0  0  0  0  0
    0.1520    4.2000    1.6132 H   0  0  0  0  0  0  0  0  0  0  0  0
  1  2  1  0  0  0  0
  2  3  1  0  0  0  0
  2  4  1  0  0  0  0
  2  5  1  0  0  0  0
  5  6  2  0  0  0  0
  5  7  1  0  0  0  0
  7  8  1  0  0  0  0
  7  9  1  0  0  0  0
  9 10  1  0  0  0  0
  9 11  1  0  0  0  0
  9 22  1  0  0  0  0
 11 12  1  0  0  0  0
 11 13  1  0  0  0  0
 11 14  1  0  0  0  0
 14 15  1  0  0  0  0
 14 16  1  0  0  0  0
 14 17  1  0  0  0  0
 17 18  1  0  0  0  0
 18 19  1  0  0  0  0
 18 20  1  0  0  0  0
 18 21  1  0  0  0  0
 22 23  2  0  0  0  0
 22 24  1  0  0  0  0
 24 25  1  0  0  0  0
 24 26  1  0  0  0  0
 26 27  1  0  0  0  0
 26 28  1  0  0  0  0
 26 29  1  0  0  0  0
M  END
$$$$

  -OEChem-02102214153D

 29 28  0     1  0  0  0  0  0999 V2000
   -3.0420   -3.4818    1.7389 H   0  0  0  0  0  0  0  0  0  0  0  0
   -3.1395   -2.4538    1.3788 C   0  0  0  0  0  0  0  0  0  0  0  0
   -3.6512   -1.8601    2.1402 H   0  0  0  0  0  0  0  0  0  0  0  0
   -3.7382   -2.4564    0.4648 H   0  0  0  0  0  0  0  0  0  0  0  0
   -1.7696   -1.8654    1.0999 C   0  0  0  0  0  0  0  0  0  0  0  0
   -0.7641   -2.5157    1.3389 O   0  0  0  0  0  0  0  0  0  0  0  0
   -1.6675   -0.6005    0.5623 N   0  0  0  0  0  0  0  0  0  0  0  0
   -2.5259   -0.0567    0.4824 H   0  0  0  0  0  0  0  0  0  0  0  0
   -0.4165    0.1510    0.3972 C   0  0  1  0  0  0  0  0  0  0  0  0
    0.2732   -0.2688    1.1368 H   0  0  0  0  0  0  0  0  0  0  0  0
    0.2683   -0.1410   -0.9581 C   0  0  0  0  0  0  0  0  0  0  0  0
    1.3058    0.1965   -0.8704 H   0  0  0  0  0  0  0  0  0  0  0  0
    0.3054   -1.2290   -1.0771 H   0  0  0  0  0  0  0  0  0  0  0  0
   -0.2867    0.4522   -2.2739 C   0  0  0  0  0  0  0  0  0  0  0  0
    0.5041    1.0594   -2.7256 H   0  0  0  0  0  0  0  0  0  0  0  0
   -0.4908   -0.3686   -2.9688 H   0  0  0  0  0  0  0  0  0  0  0  0
   -1.7855    1.5085   -2.1692 S   0  0  0  0  0  0  0  0  0  0  0  0
   -3.1271    0.3070   -2.5255 C   0  0  0  0  0  0  0  0  0  0  0  0
   -3.0344   -0.0709   -3.5479 H   0  0  0  0  0  0  0  0  0  0  0  0
   -4.1014    0.7930   -2.4192 H   0  0  0  0  0  0  0  0  0  0  0  0
   -3.0781   -0.5378   -1.8333 H   0  0  0  0  0  0  0  0  0  0  0  0
   -0.5189    1.6297    0.8405 C   0  0  0  0  0  0  0  0  0  0  0  0
   -1.6066    2.1949    0.8583 O   0  0  0  0  0  0  0  0  0  0  0  0
    0.4939    2.1796    1.6081 N   0  0  0  0  0  0  0  0  0  0  0  0
    1.3395    1.6313    1.7326 H   0  0  0  0  0  0  0  0  0  0  0  0
    0.3697    3.4504    2.3132 C   0  0  0  0  0  0  0  0  0  0  0  0
   -0.3903    3.3794    3.0984 H   0  0  0  0  0  0  0  0  0  0  0  0
    1.3233    3.7210    2.7766 H   0  0  0  0  0  0  0  0  0  0  0  0
    0.0858    4.2487    1.6191 H   0  0  0  0  0  0  0  0  0  0  0  0
  1  2  1  0  0  0  0
  2  3  1  0  0  0  0
  2  4  1  0  0  0  0
  2  5  1  0  0  0  0
  5  6  2  0  0  0  0
  5  7  1  0  0  0  0
  7  8  1  0  0  0  0
  7  9  1  0  0  0  0
  9 10  1  0  0  0  0
  9 11  1  0  0  0  0
  9 22  1  0  0  0  0
 11 12  1  0  0  0  0
 11 13  1  0  0  0  0
 11 14  1  0  0  0  0
 14 15  1  0  0  0  0
 14 16  1  0  0  0  0
 14 17  1  0  0  0  0
 17 18  1  0  0  0  0
 18 19  1  0  0  0  0
 18 20  1  0  0  0  0
 18 21  1  0  0  0  0
 22 23  2  0  0  0  0
 22 24  1  0  0  0  0
 24 25  1  0  0  0  0
 24 26  1  0  0  0  0
 26 27  1  0  0  0  0
 26 28  1  0  0  0  0
 26 29  1  0  0  0  0
M  END
$$$$

  -OEChem-02102214153D

 29 28  0     1  0  0  0  0  0999 V2000
   -3.3671   -3.4871    1.2291 H   0  0  0  0  0  0  0  0  0  0  0  0
   -3.3761   -2.4299    0.9492 C   0  0  0  0  0  0  0  0  0  0  0  0
   -3.8288   -1.8548    1.7608 H   0  0  0  0  0  0  0  0  0  0  0  0
   -3.9782   -2.3090    0.0455 H   0  0  0  0  0  0  0  0  0  0  0  0
   -1.9615   -1.9443    0.6964 C   0  0  0  0  0  0  0  0  0  0  0  0
   -1.0272   -2.7288    0.7492 O   0  0  0  0  0  0  0  0  0  0  0  0
   -1.7383   -0.6161    0.4014 N   0  0  0  0  0  0  0  0  0  0  0  0
   -2.5280    0.0191    0.5096 H   0  0  0  0  0  0  0  0  0  0  0  0
   -0.4151    0.0198    0.3444 C   0  0  1  0  0  0  0  0  0  0  0  0
    0.2369   -0.5960    0.9727 H   0  0  0  0  0  0  0  0  0  0  0  0
    0.2142   -0.0870   -1.0659 C   0  0  0  0  0  0  0  0  0  0  0  0
    1.2767    0.1429   -0.9378 H   0  0  0  0  0  0  0  0  0  0  0  0
    0.1593   -1.1343   -1.3809 H   0  0  0  0  0  0  0  0  0  0  0  0
   -0.2735    0.7857   -2.2460 C   0  0  0  0  0  0  0  0  0  0  0  0
    0.6061    1.1335   -2.7970 H   0  0  0  0  0  0  0  0  0  0  0  0
   -0.8398    0.1437   -2.9282 H   0  0  0  0  0  0  0  0  0  0  0  0
   -1.3191    2.2475   -1.8725 S   0  0  0  0  0  0  0  0  0  0  0  0
   -3.0209    1.6053   -2.1164 C   0  0  0  0  0  0  0  0  0  0  0  0
   -3.1635    1.2950   -3.1556 H   0  0  0  0  0  0  0  0  0  0  0  0
   -3.7502    2.3856   -1.8797 H   0  0  0  0  0  0  0  0  0  0  0  0
   -3.2040    0.7479   -1.4647 H   0  0  0  0  0  0  0  0  0  0  0  0
   -0.3810    1.3878    1.0658 C   0  0  0  0  0  0  0  0  0  0  0  0
   -1.4232    2.0144    1.2305 O   0  0  0  0  0  0  0  0  0  0  0  0
    0.6793    1.6890    1.9035 N   0  0  0  0  0  0  0  0  0  0  0  0
    1.4908    1.0793    1.8730 H   0  0  0  0  0  0  0  0  0  0  0  0
    0.6812    2.8188    2.8260 C   0  0  0  0  0  0  0  0  0  0  0  0
   -0.0977    2.6947    3.5858 H   0  0  0  0  0  0  0  0  0  0  0  0
    1.6490    2.8931    3.3309 H   0  0  0  0  0  0  0  0  0  0  0  0
    0.5014    3.7546    2.2861 H   0  0  0  0  0  0  0  0  0  0  0  0
  1  2  1  0  0  0  0
  2  3  1  0  0  0  0
  2  4  1  0  0  0  0
  2  5  1  0  0  0  0
  5  6  2  0  0  0  0
  5  7  1  0  0  0  0
  7  8  1  0  0  0  0
  7  9  1  0  0  0  0
  9 10  1  0  0  0  0
  9 11  1  0  0  0  0
  9 22  1  0  0  0  0
 11 12  1  0  0  0  0
 11 13  1  0  0  0  0
 11 14  1  0  0  0  0
 14 15  1  0  0  0  0
 14 16  1  0  0  0  0
 14 17  1  0  0  0  0
 17 18  1  0  0  0  0
 18 19  1  0  0  0  0
 18 20  1  0  0  0  0
 18 21  1  0  0  0  0
 22 23  2  0  0  0  0
 22 24  1  0  0  0  0
 24 25  1  0  0  0  0
 24 26  1  0  0  0  0
 26 27  1  0  0  0  0
 26 28  1  0  0  0  0
 26 29  1  0  0  0  0
M  END
$$$$

  -OEChem-02102214153D

 29 28  0     1  0  0  0  0  0999 V2000
   -2.9633   -3.5677    1.6054 H   0  0  0  0  0  0  0  0  0  0  0  0
   -3.0693   -2.5397    1.2481 C   0  0  0  0  0  0  0  0  0  0  0  0
   -3.5508   -1.9440    2.0272 H   0  0  0  0  0  0  0  0  0  0  0  0
   -3.7003   -2.5394    0.3561 H   0  0  0  0  0  0  0  0  0  0  0  0
   -1.7082   -1.9575    0.9186 C   0  0  0  0  0  0  0  0  0  0  0  0
   -0.7067   -2.6491    1.0163 O   0  0  0  0  0  0  0  0  0  0  0  0
   -1.6104   -0.6461    0.5044 N   0  0  0  0  0  0  0  0  0  0  0  0
   -2.4508   -0.0760    0.5879 H   0  0  0  0  0  0  0  0  0  0  0  0
   -0.3485    0.0949    0.3656 C   0  0  1  0  0  0  0  0  0  0  0  0
    0.3689   -0.4022    1.0269 H   0  0  0  0  0  0  0  0  0  0  0  0
    0.2510   -0.0857   -1.0505 C   0  0  0  0  0  0  0  0  0  0  0  0
    1.2907    0.2486   -0.9777 H   0  0  0  0  0  0  0  0  0  0  0  0
    0.2823   -1.1573   -1.2740 H   0  0  0  0  0  0  0  0  0  0  0  0
   -0.3408    0.6366   -2.2812 C   0  0  0  0  0  0  0  0  0  0  0  0
    0.4570    0.7609   -3.0203 H   0  0  0  0  0  0  0  0  0  0  0  0
   -1.0891   -0.0248   -2.7293 H   0  0  0  0  0  0  0  0  0  0  0  0
   -1.1392    2.2695   -2.0194 S   0  0  0  0  0  0  0  0  0  0  0  0
   -2.9211    1.8393   -1.9168 C   0  0  0  0  0  0  0  0  0  0  0  0
   -3.0959    1.1294   -1.1046 H   0  0  0  0  0  0  0  0  0  0  0  0
   -3.5112    2.7400   -1.7237 H   0  0  0  0  0  0  0  0  0  0  0  0
   -3.2584    1.3925   -2.8564 H   0  0  0  0  0  0  0  0  0  0  0  0
   -0.4381    1.5167    0.9677 C   0  0  0  0  0  0  0  0  0  0  0  0
   -1.5364    2.0520    1.0905 O   0  0  0  0  0  0  0  0  0  0  0  0
    0.5940    1.9906    1.7590 N   0  0  0  0  0  0  0  0  0  0  0  0
    1.4667    1.4713    1.7546 H   0  0  0  0  0  0  0  0  0  0  0  0
    0.4978    3.2000    2.5683 C   0  0  0  0  0  0  0  0  0  0  0  0
   -0.2649    3.0816    3.3451 H   0  0  0  0  0  0  0  0  0  0  0  0
    1.4561    3.4074    3.0538 H   0  0  0  0  0  0  0  0  0  0  0  0
    0.2346    4.0598    1.9430 H   0  0  0  0  0  0  0  0  0  0  0  0
  1  2  1  0  0  0  0
  2  3  1  0  0  0  0
  2  4  1  0  0  0  0
  2  5  1  0  0  0  0
  5  6  2  0  0  0  0
  5  7  1  0  0  0  0
  7  8  1  0  0  0  0
  7  9  1  0  0  0  0
  9 10  1  0  0  0  0
  9 11  1  0  0  0  0
  9 22  1  0  0  0  0
 11 12  1  0  0  0  0
 11 13  1  0  0  0  0
 11 14  1  0  0  0  0
 14 15  1  0  0  0  0
 14 16  1  0  0  0  0
 14 17  1  0  0  0  0
 17 18  1  0  0  0  0
 18 19  1  0  0  0  0
 18 20  1  0  0  0  0
 18 21  1  0  0  0  0
 22 23  2  0  0  0  0
 22 24  1  0  0  0  0
 24 25  1  0  0  0  0
 24 26  1  0  0  0  0
 26 27  1  0  0  0  0
 26 28  1  0  0  0  0
 26 29  1  0  0  0  0
M  END
$$$$

  -OEChem-02102214153D

 29 28  0     1  0  0  0  0  0999 V2000
   -2.7504   -3.8040    1.1573 H   0  0  0  0  0  0  0  0  0  0  0  0
   -2.8978   -2.7556    0.8836 C   0  0  0  0  0  0  0  0  0  0  0  0
   -3.4524   -2.2582    1.6829 H   0  0  0  0  0  0  0  0  0  0  0  0
   -3.4815   -2.7103   -0.0389 H   0  0  0  0  0  0  0  0  0  0  0  0
   -1.5578   -2.0753    0.6801 C   0  0  0  0  0  0  0  0  0  0  0  0
   -0.5257   -2.7231    0.7577 O   0  0  0  0  0  0  0  0  0  0  0  0
   -1.5118   -0.7261    0.4002 N   0  0  0  0  0  0  0  0  0  0  0  0
   -2.3843   -0.2074    0.4930 H   0  0  0  0  0  0  0  0  0  0  0  0
   -0.2840    0.0824    0.3920 C   0  0  1  0  0  0  0  0  0  0  0  0
    0.4423   -0.4425    1.0214 H   0  0  0  0  0  0  0  0  0  0  0  0
    0.3493    0.0847   -1.0214 C   0  0  0  0  0  0  0  0  0  0  0  0
    1.3745    0.4478   -0.8991 H   0  0  0  0  0  0  0  0  0  0  0  0
    0.4203   -0.9520   -1.3671 H   0  0  0  0  0  0  0  0  0  0  0  0
   -0.2731    0.9222   -2.1563 C   0  0  0  0  0  0  0  0  0  0  0  0
    0.4351    0.9565   -2.9903 H   0  0  0  0  0  0  0  0  0  0  0  0
   -1.1648    0.3972   -2.5125 H   0  0  0  0  0  0  0  0  0  0  0  0
   -0.7565    2.6444   -1.7370 S   0  0  0  0  0  0  0  0  0  0  0  0
   -2.5874    2.5737   -1.8541 C   0  0  0  0  0  0  0  0  0  0  0  0
   -2.9814    1.8148   -1.1719 H   0  0  0  0  0  0  0  0  0  0  0  0
   -3.0168    3.5424   -1.5821 H   0  0  0  0  0  0  0  0  0  0  0  0
   -2.8943    2.3264   -2.8744 H   0  0  0  0  0  0  0  0  0  0  0  0
   -0.4871    1.4262    1.1283 C   0  0  0  0  0  0  0  0  0  0  0  0
   -1.6179    1.8961    1.2246 O   0  0  0  0  0  0  0  0  0  0  0  0
    0.4750    1.8755    2.0155 N   0  0  0  0  0  0  0  0  0  0  0  0
    1.3797    1.4144    2.0007 H   0  0  0  0  0  0  0  0  0  0  0  0
    0.2792    3.0162    2.9023 C   0  0  0  0  0  0  0  0  0  0  0  0
   -0.5298    2.8155    3.6125 H   0  0  0  0  0  0  0  0  0  0  0  0
    1.1942    3.2164    3.4679 H   0  0  0  0  0  0  0  0  0  0  0  0
    0.0273    3.9116    2.3240 H   0  0  0  0  0  0  0  0  0  0  0  0
  1  2  1  0  0  0  0
  2  3  1  0  0  0  0
  2  4  1  0  0  0  0
  2  5  1  0  0  0  0
  5  6  2  0  0  0  0
  5  7  1  0  0  0  0
  7  8  1  0  0  0  0
  7  9  1  0  0  0  0
  9 10  1  0  0  0  0
  9 11  1  0  0  0  0
  9 22  1  0  0  0  0
 11 12  1  0  0  0  0
 11 13  1  0  0  0  0
 11 14  1  0  0  0  0
 14 15  1  0  0  0  0
 14 16  1  0  0  0  0
 14 17  1  0  0  0  0
 17 18  1  0  0  0  0
 18 19  1  0  0  0  0
 18 20  1  0  0  0  0
 18 21  1  0  0  0  0
 22 23  2  0  0  0  0
 22 24  1  0  0  0  0
 24 25  1  0  0  0  0
 24 26  1  0  0  0  0
 26 27  1  0  0  0  0
 26 28  1  0  0  0  0
 26 29  1  0  0  0  0
M  END
$$$$

  -OEChem-02102214153D

 29 28  0     1  0  0  0  0  0999 V2000
   -3.5157   -3.7072    1.1825 H   0  0  0  0  0  0  0  0  0  0  0  0
   -3.5720   -2.6992    0.7621 C   0  0  0  0  0  0  0  0  0  0  0  0
   -4.2823   -2.1117    1.3489 H   0  0  0  0  0  0  0  0  0  0  0  0
   -3.9288   -2.7660   -0.2685 H   0  0  0  0  0  0  0  0  0  0  0  0
   -2.2051   -2.0420    0.7947 C   0  0  0  0  0  0  0  0  0  0  0  0
   -1.2436   -2.6514    1.2364 O   0  0  0  0  0  0  0  0  0  0  0  0
   -2.0520   -0.7554    0.3236 N   0  0  0  0  0  0  0  0  0  0  0  0
   -2.9016   -0.2441    0.0854 H   0  0  0  0  0  0  0  0  0  0  0  0
   -0.8330    0.0528    0.4731 C   0  0  1  0  0  0  0  0  0  0  0  0
   -0.2656   -0.3631    1.3121 H   0  0  0  0  0  0  0  0  0  0  0  0
    0.0702   -0.1255   -0.7699 C   0  0  0  0  0  0  0  0  0  0  0  0
    1.0722    0.2227   -0.5044 H   0  0  0  0  0  0  0  0  0  0  0  0
    0.1546   -1.1977   -0.9756 H   0  0  0  0  0  0  0  0  0  0  0  0
   -0.3366    0.5783   -2.0782 C   0  0  0  0  0  0  0  0  0  0  0  0
    0.3846    0.3106   -2.8569 H   0  0  0  0  0  0  0  0  0  0  0  0
   -1.3117    0.1901   -2.3896 H   0  0  0  0  0  0  0  0  0  0  0  0
   -0.4519    2.4138   -2.0038 S   0  0  0  0  0  0  0  0  0  0  0  0
    1.2539    2.9317   -1.5643 C   0  0  0  0  0  0  0  0  0  0  0  0
    1.9711    2.5228   -2.2819 H   0  0  0  0  0  0  0  0  0  0  0  0
    1.5152    2.5811   -0.5622 H   0  0  0  0  0  0  0  0  0  0  0  0
    1.3265    4.0232   -1.5798 H   0  0  0  0  0  0  0  0  0  0  0  0
   -1.1733    1.4921    0.9176 C   0  0  0  0  0  0  0  0  0  0  0  0
   -2.2607    1.9773    0.6213 O   0  0  0  0  0  0  0  0  0  0  0  0
   -0.4395    2.0961    1.9236 N   0  0  0  0  0  0  0  0  0  0  0  0
    0.3795    1.6050    2.2690 H   0  0  0  0  0  0  0  0  0  0  0  0
   -0.8283    3.3524    2.5538 C   0  0  0  0  0  0  0  0  0  0  0  0
   -1.7762    3.2352    3.0893 H   0  0  0  0  0  0  0  0  0  0  0  0
   -0.0634    3.6702    3.2687 H   0  0  0  0  0  0  0  0  0  0  0  0
   -0.9442    4.1392    1.8006 H   0  0  0  0  0  0  0  0  0  0  0  0
  1  2  1  0  0  0  0
  2  3  1  0  0  0  0
  2  4  1  0  0  0  0
  2  5  1  0  0  0  0
  5  6  2  0  0  0  0
  5  7  1  0  0  0  0
  7  8  1  0  0  0  0
  7  9  1  0  0  0  0
  9 10  1  0  0  0  0
  9 11  1  0  0  0  0
  9 22  1  0  0  0  0
 11 12  1  0  0  0  0
 11 13  1  0  0  0  0
 11 14  1  0  0  0  0
 14 15  1  0  0  0  0
 14 16  1  0  0  0  0
 14 17  1  0  0  0  0
 17 18  1  0  0  0  0
 18 19  1  0  0  0  0
 18 20  1  0  0  0  0
 18 21  1  0  0  0  0
 22 23  2  0  0  0  0
 22 24  1  0  0  0  0
 24 25  1  0  0  0  0
 24 26  1  0  0  0  0
 26 27  1  0  0  0  0
 26 28  1  0  0  0  0
 26 29  1  0  0  0  0
M  END
$$$$

  -OEChem-02102214153D

 29 28  0     1  0  0  0  0  0999 V2000
   -3.3752   -3.6532    0.8773 H   0  0  0  0  0  0  0  0  0  0  0  0
   -3.3555   -2.5727    0.7100 C   0  0  0  0  0  0  0  0  0  0  0  0
   -3.8537   -2.0775    1.5469 H   0  0  0  0  0  0  0  0  0  0  0  0
   -3.8975   -2.3490   -0.2119 H   0  0  0  0  0  0  0  0  0  0  0  0
   -1.9225   -2.0872    0.5996 C   0  0  0  0  0  0  0  0  0  0  0  0
   -0.9997   -2.8812    0.6909 O   0  0  0  0  0  0  0  0  0  0  0  0
   -1.6669   -0.7481    0.3938 N   0  0  0  0  0  0  0  0  0  0  0  0
   -2.4588   -0.1099    0.4662 H   0  0  0  0  0  0  0  0  0  0  0  0
   -0.3330   -0.1328    0.4711 C   0  0  1  0  0  0  0  0  0  0  0  0
    0.3221   -0.7949    1.0471 H   0  0  0  0  0  0  0  0  0  0  0  0
    0.2708   -0.0331   -0.9486 C   0  0  0  0  0  0  0  0  0  0  0  0
    1.3492    0.1313   -0.8586 H   0  0  0  0  0  0  0  0  0  0  0  0
    0.1349   -0.9999   -1.4448 H   0  0  0  0  0  0  0  0  0  0  0  0
   -0.3037    1.0648   -1.8559 C   0  0  0  0  0  0  0  0  0  0  0  0
   -0.0153    0.8657   -2.8928 H   0  0  0  0  0  0  0  0  0  0  0  0
   -1.3970    1.0434   -1.8038 H   0  0  0  0  0  0  0  0  0  0  0  0
    0.3068    2.7359   -1.3861 S   0  0  0  0  0  0  0  0  0  0  0  0
   -0.8633    3.8146   -2.2983 C   0  0  0  0  0  0  0  0  0  0  0  0
   -0.6032    4.8657   -2.1425 H   0  0  0  0  0  0  0  0  0  0  0  0
   -1.8841    3.6504   -1.9399 H   0  0  0  0  0  0  0  0  0  0  0  0
   -0.8246    3.5979   -3.3698 H   0  0  0  0  0  0  0  0  0  0  0  0
   -0.4071    1.1834    1.2765 C   0  0  0  0  0  0  0  0  0  0  0  0
   -1.4404    1.8475    1.2531 O   0  0  0  0  0  0  0  0  0  0  0  0
    0.5452    1.4700    2.2374 N   0  0  0  0  0  0  0  0  0  0  0  0
    1.3792    0.8909    2.2588 H   0  0  0  0  0  0  0  0  0  0  0  0
    0.4809    2.6461    3.0963 C   0  0  0  0  0  0  0  0  0  0  0  0
   -0.4247    2.6230    3.7116 H   0  0  0  0  0  0  0  0  0  0  0  0
    1.3493    2.6773    3.7615 H   0  0  0  0  0  0  0  0  0  0  0  0
    0.4734    3.5602    2.4931 H   0  0  0  0  0  0  0  0  0  0  0  0
  1  2  1  0  0  0  0
  2  3  1  0  0  0  0
  2  4  1  0  0  0  0
  2  5  1  0  0  0  0
  5  6  2  0  0  0  0
  5  7  1  0  0  0  0
  7  8  1  0  0  0  0
  7  9  1  0  0  0  0
  9 10  1  0  0  0  0
  9 11  1  0  0  0  0
  9 22  1  0  0  0  0
 11 12  1  0  0  0  0
 11 13  1  0  0  0  0
 11 14  1  0  0  0  0
 14 15  1  0  0  0  0
 14 16  1  0  0  0  0
 14 17  1  0  0  0  0
 17 18  1  0  0  0  0
 18 19  1  0  0  0  0
 18 20  1  0  0  0  0
 18 21  1  0  0  0  0
 22 23  2  0  0  0  0
 22 24  1  0  0  0  0
 24 25  1  0  0  0  0
 24 26  1  0  0  0  0
 26 27  1  0  0  0  0
 26 28  1  0  0  0  0
 26 29  1  0  0  0  0
M  END
$$$$

  -OEChem-02102214153D

 29 28  0     1  0  0  0  0  0999 V2000
   -3.4723   -3.5435    0.9498 H   0  0  0  0  0  0  0  0  0  0  0  0
   -3.4105   -2.4758    0.7218 C   0  0  0  0  0  0  0  0  0  0  0  0
   -3.9562   -1.9193    1.4876 H   0  0  0  0  0  0  0  0  0  0  0  0
   -3.8751   -2.2959   -0.2505 H   0  0  0  0  0  0  0  0  0  0  0  0
   -1.9608   -2.0306    0.6934 C   0  0  0  0  0  0  0  0  0  0  0  0
   -1.0712   -2.8277    0.9445 O   0  0  0  0  0  0  0  0  0  0  0  0
   -1.6537   -0.7222    0.3855 N   0  0  0  0  0  0  0  0  0  0  0  0
   -2.4328   -0.0687    0.3163 H   0  0  0  0  0  0  0  0  0  0  0  0
   -0.3157   -0.1260    0.5207 C   0  0  1  0  0  0  0  0  0  0  0  0
    0.2772   -0.7491    1.1984 H   0  0  0  0  0  0  0  0  0  0  0  0
    0.4029   -0.1270   -0.8438 C   0  0  0  0  0  0  0  0  0  0  0  0
    1.4769    0.0177   -0.6892 H   0  0  0  0  0  0  0  0  0  0  0  0
    0.2755   -1.1161   -1.2960 H   0  0  0  0  0  0  0  0  0  0  0  0
   -0.1092    0.9352   -1.8251 C   0  0  0  0  0  0  0  0  0  0  0  0
    0.0236    0.5791   -2.8515 H   0  0  0  0  0  0  0  0  0  0  0  0
   -1.1785    1.1133   -1.6720 H   0  0  0  0  0  0  0  0  0  0  0  0
    0.8406    2.4970   -1.6189 S   0  0  0  0  0  0  0  0  0  0  0  0
   -0.2759    3.6977   -2.4417 C   0  0  0  0  0  0  0  0  0  0  0  0
    0.1636    4.6990   -2.4134 H   0  0  0  0  0  0  0  0  0  0  0  0
   -1.2423    3.7256   -1.9288 H   0  0  0  0  0  0  0  0  0  0  0  0
   -0.4372    3.4137   -3.4855 H   0  0  0  0  0  0  0  0  0  0  0  0
   -0.4075    1.2646    1.1878 C   0  0  0  0  0  0  0  0  0  0  0  0
   -1.3890    1.9725    0.9782 O   0  0  0  0  0  0  0  0  0  0  0  0
    0.4732    1.6200    2.1928 N   0  0  0  0  0  0  0  0  0  0  0  0
    1.2730    1.0143    2.3514 H   0  0  0  0  0  0  0  0  0  0  0  0
    0.3979    2.8892    2.9054 C   0  0  0  0  0  0  0  0  0  0  0  0
   -0.5563    2.9755    3.4357 H   0  0  0  0  0  0  0  0  0  0  0  0
    1.2072    2.9605    3.6383 H   0  0  0  0  0  0  0  0  0  0  0  0
    0.4895    3.7263    2.2051 H   0  0  0  0  0  0  0  0  0  0  0  0
  1  2  1  0  0  0  0
  2  3  1  0  0  0  0
  2  4  1  0  0  0  0
  2  5  1  0  0  0  0
  5  6  2  0  0  0  0
  5  7  1  0  0  0  0
  7  8  1  0  0  0  0
  7  9  1  0  0  0  0
  9 10  1  0  0  0  0
  9 11  1  0  0  0  0
  9 22  1  0  0  0  0
 11 12  1  0  0  0  0
 11 13  1  0  0  0  0
 11 14  1  0  0  0  0
 14 15  1  0  0  0  0
 14 16  1  0  0  0  0
 14 17  1  0  0  0  0
 17 18  1  0  0  0  0
 18 19  1  0  0  0  0
 18 20  1  0  0  0  0
 18 21  1  0  0  0  0
 22 23  2  0  0  0  0
 22 24  1  0  0  0  0
 24 25  1  0  0  0  0
 24 26  1  0  0  0  0
 26 27  1  0  0  0  0
 26 28  1  0  0  0  0
 26 29  1  0  0  0  0
M  END
$$$$

  -OEChem-02102214153D

 29 28  0     1  0  0  0  0  0999 V2000
   -3.5375   -3.4562    0.9783 H   0  0  0  0  0  0  0  0  0  0  0  0
   -3.4474   -2.4081    0.6793 C   0  0  0  0  0  0  0  0  0  0  0  0
   -4.0387   -1.7946    1.3634 H   0  0  0  0  0  0  0  0  0  0  0  0
   -3.8414   -2.2954   -0.3337 H   0  0  0  0  0  0  0  0  0  0  0  0
   -1.9939   -1.9761    0.7200 C   0  0  0  0  0  0  0  0  0  0  0  0
   -1.1265   -2.7771    1.0299 O   0  0  0  0  0  0  0  0  0  0  0  0
   -1.6581   -0.6773    0.4012 N   0  0  0  0  0  0  0  0  0  0  0  0
   -2.4258   -0.0192    0.2760 H   0  0  0  0  0  0  0  0  0  0  0  0
   -0.3178   -0.0949    0.5667 C   0  0  1  0  0  0  0  0  0  0  0  0
    0.2429   -0.7181    1.2710 H   0  0  0  0  0  0  0  0  0  0  0  0
    0.4474   -0.1274   -0.7695 C   0  0  0  0  0  0  0  0  0  0  0  0
    1.5166    0.0067   -0.5764 H   0  0  0  0  0  0  0  0  0  0  0  0
    0.3275   -1.1222   -1.2113 H   0  0  0  0  0  0  0  0  0  0  0  0
   -0.0250    0.9260   -1.7826 C   0  0  0  0  0  0  0  0  0  0  0  0
   -0.1051    0.4649   -2.7720 H   0  0  0  0  0  0  0  0  0  0  0  0
   -1.0162    1.3104   -1.5237 H   0  0  0  0  0  0  0  0  0  0  0  0
    1.1975    2.2954   -1.8744 S   0  0  0  0  0  0  0  0  0  0  0  0
    0.2603    3.5327   -2.8532 C   0  0  0  0  0  0  0  0  0  0  0  0
   -0.6580    3.8121   -2.3277 H   0  0  0  0  0  0  0  0  0  0  0  0
    0.8660    4.4316   -3.0013 H   0  0  0  0  0  0  0  0  0  0  0  0
   -0.0037    3.1221   -3.8321 H   0  0  0  0  0  0  0  0  0  0  0  0
   -0.3826    1.3098    1.2068 C   0  0  0  0  0  0  0  0  0  0  0  0
   -1.3248    2.0529    0.9491 O   0  0  0  0  0  0  0  0  0  0  0  0
    0.4862    1.6576    2.2244 N   0  0  0  0  0  0  0  0  0  0  0  0
    1.2536    1.0225    2.4241 H   0  0  0  0  0  0  0  0  0  0  0  0
    0.4462    2.9485    2.9000 C   0  0  0  0  0  0  0  0  0  0  0  0
   -0.5160    3.0881    3.4039 H   0  0  0  0  0  0  0  0  0  0  0  0
    1.2405    3.0081    3.6502 H   0  0  0  0  0  0  0  0  0  0  0  0
    0.5888    3.7613    2.1800 H   0  0  0  0  0  0  0  0  0  0  0  0
  1  2  1  0  0  0  0
  2  3  1  0  0  0  0
  2  4  1  0  0  0  0
  2  5  1  0  0  0  0
  5  6  2  0  0  0  0
  5  7  1  0  0  0  0
  7  8  1  0  0  0  0
  7  9  1  0  0  0  0
  9 10  1  0  0  0  0
  9 11  1  0  0  0  0
  9 22  1  0  0  0  0
 11 12  1  0  0  0  0
 11 13  1  0  0  0  0
 11 14  1  0  0  0  0
 14 15  1  0  0  0  0
 14 16  1  0  0  0  0
 14 17  1  0  0  0  0
 17 18  1  0  0  0  0
 18 19  1  0  0  0  0
 18 20  1  0  0  0  0
 18 21  1  0  0  0  0
 22 23  2  0  0  0  0
 22 24  1  0  0  0  0
 24 25  1  0  0  0  0
 24 26  1  0  0  0  0
 26 27  1  0  0  0  0
 26 28  1  0  0  0  0
 26 29  1  0  0  0  0
M  END
$$$$

  -OEChem-02102214153D

 29 28  0     1  0  0  0  0  0999 V2000
   -3.3611   -3.4563    1.2624 H   0  0  0  0  0  0  0  0  0  0  0  0
   -3.3422   -2.4636    0.8037 C   0  0  0  0  0  0  0  0  0  0  0  0
   -3.9809   -1.7948    1.3858 H   0  0  0  0  0  0  0  0  0  0  0  0
   -3.7345   -2.5381   -0.2134 H   0  0  0  0  0  0  0  0  0  0  0  0
   -1.9229   -1.9285    0.7738 C   0  0  0  0  0  0  0  0  0  0  0  0
   -1.0061   -2.6023    1.2157 O   0  0  0  0  0  0  0  0  0  0  0  0
   -1.6745   -0.6744    0.2561 N   0  0  0  0  0  0  0  0  0  0  0  0
   -2.4822   -0.1092   -0.0010 H   0  0  0  0  0  0  0  0  0  0  0  0
   -0.3740    0.0103    0.3043 C   0  0  1  0  0  0  0  0  0  0  0  0
    0.2283   -0.4589    1.0893 H   0  0  0  0  0  0  0  0  0  0  0  0
    0.3785   -0.2163   -1.0228 C   0  0  0  0  0  0  0  0  0  0  0  0
    1.4330    0.0291   -0.8632 H   0  0  0  0  0  0  0  0  0  0  0  0
    0.3391   -1.2817   -1.2730 H   0  0  0  0  0  0  0  0  0  0  0  0
   -0.1443    0.5963   -2.2222 C   0  0  0  0  0  0  0  0  0  0  0  0
   -0.4529   -0.1023   -3.0062 H   0  0  0  0  0  0  0  0  0  0  0  0
   -1.0274    1.1850   -1.9595 H   0  0  0  0  0  0  0  0  0  0  0  0
    1.1557    1.7029   -2.9111 S   0  0  0  0  0  0  0  0  0  0  0  0
    1.2279    3.0884   -1.7086 C   0  0  0  0  0  0  0  0  0  0  0  0
    1.6386    2.7447   -0.7559 H   0  0  0  0  0  0  0  0  0  0  0  0
    1.8695    3.8859   -2.0948 H   0  0  0  0  0  0  0  0  0  0  0  0
    0.2270    3.4969   -1.5381 H   0  0  0  0  0  0  0  0  0  0  0  0
   -0.5126    1.4883    0.7248 C   0  0  0  0  0  0  0  0  0  0  0  0
   -1.4742    2.1486    0.3474 O   0  0  0  0  0  0  0  0  0  0  0  0
    0.3487    2.0332    1.6594 N   0  0  0  0  0  0  0  0  0  0  0  0
    1.0786    1.4327    2.0332 H   0  0  0  0  0  0  0  0  0  0  0  0
    0.1908    3.3753    2.2067 C   0  0  0  0  0  0  0  0  0  0  0  0
   -0.7516    3.4558    2.7586 H   0  0  0  0  0  0  0  0  0  0  0  0
    1.0135    3.6040    2.8910 H   0  0  0  0  0  0  0  0  0  0  0  0
    0.1934    4.1200    1.4038 H   0  0  0  0  0  0  0  0  0  0  0  0
  1  2  1  0  0  0  0
  2  3  1  0  0  0  0
  2  4  1  0  0  0  0
  2  5  1  0  0  0  0
  5  6  2  0  0  0  0
  5  7  1  0  0  0  0
  7  8  1  0  0  0  0
  7  9  1  0  0  0  0
  9 10  1  0  0  0  0
  9 11  1  0  0  0  0
  9 22  1  0  0  0  0
 11 12  1  0  0  0  0
 11 13  1  0  0  0  0
 11 14  1  0  0  0  0
 14 15  1  0  0  0  0
 14 16  1  0  0  0  0
 14 17  1  0  0  0  0
 17 18  1  0  0  0  0
 18 19  1  0  0  0  0
 18 20  1  0  0  0  0
 18 21  1  0  0  0  0
 22 23  2  0  0  0  0
 22 24  1  0  0  0  0
 24 25  1  0  0  0  0
 24 26  1  0  0  0  0
 26 27  1  0  0  0  0
 26 28  1  0  0  0  0
 26 29  1  0  0  0  0
M  END
$$$$

  -OEChem-02102214153D

 29 28  0     1  0  0  0  0  0999 V2000
   -3.3597   -3.4530    1.2652 H   0  0  0  0  0  0  0  0  0  0  0  0
   -3.3412   -2.4662    0.7944 C   0  0  0  0  0  0  0  0  0  0  0  0
   -3.9942   -1.7952    1.3576 H   0  0  0  0  0  0  0  0  0  0  0  0
   -3.7165   -2.5563   -0.2278 H   0  0  0  0  0  0  0  0  0  0  0  0
   -1.9257   -1.9211    0.7795 C   0  0  0  0  0  0  0  0  0  0  0  0
   -1.0096   -2.5863    1.2358 O   0  0  0  0  0  0  0  0  0  0  0  0
   -1.6802   -0.6694    0.2550 N   0  0  0  0  0  0  0  0  0  0  0  0
   -2.4882   -0.1125   -0.0181 H   0  0  0  0  0  0  0  0  0  0  0  0
   -0.3816    0.0186    0.2957 C   0  0  1  0  0  0  0  0  0  0  0  0
    0.2178   -0.4472    1.0850 H   0  0  0  0  0  0  0  0  0  0  0  0
    0.3809   -0.2152   -1.0230 C   0  0  0  0  0  0  0  0  0  0  0  0
    1.4270    0.0544   -0.8480 H   0  0  0  0  0  0  0  0  0  0  0  0
    0.3688   -1.2824   -1.2681 H   0  0  0  0  0  0  0  0  0  0  0  0
   -0.1411    0.5851   -2.2308 C   0  0  0  0  0  0  0  0  0  0  0  0
   -0.6966   -0.0902   -2.8890 H   0  0  0  0  0  0  0  0  0  0  0  0
   -0.8311    1.3784   -1.9361 H   0  0  0  0  0  0  0  0  0  0  0  0
    1.2556    1.3314   -3.1630 S   0  0  0  0  0  0  0  0  0  0  0  0
    1.6478    2.7857   -2.1107 C   0  0  0  0  0  0  0  0  0  0  0  0
    1.9647    2.4638   -1.1148 H   0  0  0  0  0  0  0  0  0  0  0  0
    2.4551    3.3691   -2.5628 H   0  0  0  0  0  0  0  0  0  0  0  0
    0.7669    3.4269   -2.0081 H   0  0  0  0  0  0  0  0  0  0  0  0
   -0.5021    1.5019    0.7074 C   0  0  0  0  0  0  0  0  0  0  0  0
   -1.4612    2.1690    0.3362 O   0  0  0  0  0  0  0  0  0  0  0  0
    0.3718    2.0433    1.6324 N   0  0  0  0  0  0  0  0  0  0  0  0
    1.0969    1.4371    2.0062 H   0  0  0  0  0  0  0  0  0  0  0  0
    0.2338    3.3915    2.1707 C   0  0  0  0  0  0  0  0  0  0  0  0
   -0.7179    3.4966    2.7024 H   0  0  0  0  0  0  0  0  0  0  0  0
    1.0468    3.6040    2.8717 H   0  0  0  0  0  0  0  0  0  0  0  0
    0.2708    4.1320    1.3647 H   0  0  0  0  0  0  0  0  0  0  0  0
  1  2  1  0  0  0  0
  2  3  1  0  0  0  0
  2  4  1  0  0  0  0
  2  5  1  0  0  0  0
  5  6  2  0  0  0  0
  5  7  1  0  0  0  0
  7  8  1  0  0  0  0
  7  9  1  0  0  0  0
  9 10  1  0  0  0  0
  9 11  1  0  0  0  0
  9 22  1  0  0  0  0
 11 12  1  0  0  0  0
 11 13  1  0  0  0  0
 11 14  1  0  0  0  0
 14 15  1  0  0  0  0
 14 16  1  0  0  0  0
 14 17  1  0  0  0  0
 17 18  1  0  0  0  0
 18 19  1  0  0  0  0
 18 20  1  0  0  0  0
 18 21  1  0  0  0  0
 22 23  2  0  0  0  0
 22 24  1  0  0  0  0
 24 25  1  0  0  0  0
 24 26  1  0  0  0  0
 26 27  1  0  0  0  0
 26 28  1  0  0  0  0
 26 29  1  0  0  0  0
M  END
$$$$

  -OEChem-02102214153D

 29 28  0     1  0  0  0  0  0999 V2000
   -3.3706   -3.4344    1.2919 H   0  0  0  0  0  0  0  0  0  0  0  0
   -3.3456   -2.4557    0.8044 C   0  0  0  0  0  0  0  0  0  0  0  0
   -3.9957   -1.7716    1.3552 H   0  0  0  0  0  0  0  0  0  0  0  0
   -3.7199   -2.5611   -0.2168 H   0  0  0  0  0  0  0  0  0  0  0  0
   -1.9272   -1.9184    0.7824 C   0  0  0  0  0  0  0  0  0  0  0  0
   -1.0127   -2.5872    1.2366 O   0  0  0  0  0  0  0  0  0  0  0  0
   -1.6781   -0.6678    0.2567 N   0  0  0  0  0  0  0  0  0  0  0  0
   -2.4850   -0.1065   -0.0110 H   0  0  0  0  0  0  0  0  0  0  0  0
   -0.3777    0.0167    0.2964 C   0  0  1  0  0  0  0  0  0  0  0  0
    0.2242   -0.4482    1.0844 H   0  0  0  0  0  0  0  0  0  0  0  0
    0.3749   -0.2221   -1.0274 C   0  0  0  0  0  0  0  0  0  0  0  0
    1.4195    0.0541   -0.8570 H   0  0  0  0  0  0  0  0  0  0  0  0
    0.3649   -1.2893   -1.2723 H   0  0  0  0  0  0  0  0  0  0  0  0
   -0.1497    0.5790   -2.2319 C   0  0  0  0  0  0  0  0  0  0  0  0
   -0.9333    0.0023   -2.7336 H   0  0  0  0  0  0  0  0  0  0  0  0
   -0.5899    1.5323   -1.9317 H   0  0  0  0  0  0  0  0  0  0  0  0
    1.2203    0.9284   -3.4060 S   0  0  0  0  0  0  0  0  0  0  0  0
    2.0269    2.3807   -2.6211 C   0  0  0  0  0  0  0  0  0  0  0  0
    2.4101    2.1186   -1.6309 H   0  0  0  0  0  0  0  0  0  0  0  0
    2.8620    2.7244   -3.2389 H   0  0  0  0  0  0  0  0  0  0  0  0
    1.3098    3.2003   -2.5150 H   0  0  0  0  0  0  0  0  0  0  0  0
   -0.5053    1.4994    0.7073 C   0  0  0  0  0  0  0  0  0  0  0  0
   -1.4682    2.1595    0.3329 O   0  0  0  0  0  0  0  0  0  0  0  0
    0.3639    2.0459    1.6336 N   0  0  0  0  0  0  0  0  0  0  0  0
    1.0921    1.4441    2.0082 H   0  0  0  0  0  0  0  0  0  0  0  0
    0.2100    3.3890    2.1797 C   0  0  0  0  0  0  0  0  0  0  0  0
   -0.7538    3.4872    2.6905 H   0  0  0  0  0  0  0  0  0  0  0  0
    1.0056    3.5979    2.9013 H   0  0  0  0  0  0  0  0  0  0  0  0
    0.2636    4.1361    1.3807 H   0  0  0  0  0  0  0  0  0  0  0  0
  1  2  1  0  0  0  0
  2  3  1  0  0  0  0
  2  4  1  0  0  0  0
  2  5  1  0  0  0  0
  5  6  2  0  0  0  0
  5  7  1  0  0  0  0
  7  8  1  0  0  0  0
  7  9  1  0  0  0  0
  9 10  1  0  0  0  0
  9 11  1  0  0  0  0
  9 22  1  0  0  0  0
 11 12  1  0  0  0  0
 11 13  1  0  0  0  0
 11 14  1  0  0  0  0
 14 15  1  0  0  0  0
 14 16  1  0  0  0  0
 14 17  1  0  0  0  0
 17 18  1  0  0  0  0
 18 19  1  0  0  0  0
 18 20  1  0  0  0  0
 18 21  1  0  0  0  0
 22 23  2  0  0  0  0
 22 24  1  0  0  0  0
 24 25  1  0  0  0  0
 24 26  1  0  0  0  0
 26 27  1  0  0  0  0
 26 28  1  0  0  0  0
 26 29  1  0  0  0  0
M  END
$$$$

  -OEChem-02102214153D

 29 28  0     1  0  0  0  0  0999 V2000
   -3.3623   -3.4372    1.2995 H   0  0  0  0  0  0  0  0  0  0  0  0
   -3.3388   -2.4601    0.8088 C   0  0  0  0  0  0  0  0  0  0  0  0
   -3.9957   -1.7772    1.3529 H   0  0  0  0  0  0  0  0  0  0  0  0
   -3.7059   -2.5706   -0.2144 H   0  0  0  0  0  0  0  0  0  0  0  0
   -1.9227   -1.9163    0.7943 C   0  0  0  0  0  0  0  0  0  0  0  0
   -1.0089   -2.5782    1.2601 O   0  0  0  0  0  0  0  0  0  0  0  0
   -1.6742   -0.6679    0.2631 N   0  0  0  0  0  0  0  0  0  0  0  0
   -2.4800   -0.1115   -0.0176 H   0  0  0  0  0  0  0  0  0  0  0  0
   -0.3731    0.0158    0.2976 C   0  0  1  0  0  0  0  0  0  0  0  0
    0.2380   -0.4480    1.0790 H   0  0  0  0  0  0  0  0  0  0  0  0
    0.3611   -0.2146   -1.0384 C   0  0  0  0  0  0  0  0  0  0  0  0
    1.4101    0.0550   -0.8871 H   0  0  0  0  0  0  0  0  0  0  0  0
    0.3361   -1.2795   -1.2930 H   0  0  0  0  0  0  0  0  0  0  0  0
   -0.1847    0.6016   -2.2210 C   0  0  0  0  0  0  0  0  0  0  0  0
   -1.1369    0.1735   -2.5499 H   0  0  0  0  0  0  0  0  0  0  0  0
   -0.3666    1.6430   -1.9426 H   0  0  0  0  0  0  0  0  0  0  0  0
    1.0208    0.5820   -3.6083 S   0  0  0  0  0  0  0  0  0  0  0  0
    2.2481    1.8462   -3.0875 C   0  0  0  0  0  0  0  0  0  0  0  0
    2.7378    1.5462   -2.1571 H   0  0  0  0  0  0  0  0  0  0  0  0
    3.0129    1.9642   -3.8608 H   0  0  0  0  0  0  0  0  0  0  0  0
    1.7559    2.8109   -2.9321 H   0  0  0  0  0  0  0  0  0  0  0  0
   -0.5097    1.4982    0.7042 C   0  0  0  0  0  0  0  0  0  0  0  0
   -1.4659    2.1564    0.3094 O   0  0  0  0  0  0  0  0  0  0  0  0
    0.3553    2.0539    1.6287 N   0  0  0  0  0  0  0  0  0  0  0  0
    1.0799    1.4551    2.0151 H   0  0  0  0  0  0  0  0  0  0  0  0
    0.1983    3.4026    2.1599 C   0  0  0  0  0  0  0  0  0  0  0  0
   -0.7695    3.5067    2.6619 H   0  0  0  0  0  0  0  0  0  0  0  0
    0.9883    3.6184    2.8855 H   0  0  0  0  0  0  0  0  0  0  0  0
    0.2587    4.1413    1.3538 H   0  0  0  0  0  0  0  0  0  0  0  0
  1  2  1  0  0  0  0
  2  3  1  0  0  0  0
  2  4  1  0  0  0  0
  2  5  1  0  0  0  0
  5  6  2  0  0  0  0
  5  7  1  0  0  0  0
  7  8  1  0  0  0  0
  7  9  1  0  0  0  0
  9 10  1  0  0  0  0
  9 11  1  0  0  0  0
  9 22  1  0  0  0  0
 11 12  1  0  0  0  0
 11 13  1  0  0  0  0
 11 14  1  0  0  0  0
 14 15  1  0  0  0  0
 14 16  1  0  0  0  0
 14 17  1  0  0  0  0
 17 18  1  0  0  0  0
 18 19  1  0  0  0  0
 18 20  1  0  0  0  0
 18 21  1  0  0  0  0
 22 23  2  0  0  0  0
 22 24  1  0  0  0  0
 24 25  1  0  0  0  0
 24 26  1  0  0  0  0
 26 27  1  0  0  0  0
 26 28  1  0  0  0  0
 26 29  1  0  0  0  0
M  END
$$$$

  -OEChem-02102214153D

 29 28  0     1  0  0  0  0  0999 V2000
   -3.3237   -3.4584    1.2695 H   0  0  0  0  0  0  0  0  0  0  0  0
   -3.3098   -2.4774    0.7863 C   0  0  0  0  0  0  0  0  0  0  0  0
   -3.9834   -1.8086    1.3273 H   0  0  0  0  0  0  0  0  0  0  0  0
   -3.6629   -2.5857   -0.2421 H   0  0  0  0  0  0  0  0  0  0  0  0
   -1.9026   -1.9117    0.7921 C   0  0  0  0  0  0  0  0  0  0  0  0
   -0.9831   -2.5633    1.2612 O   0  0  0  0  0  0  0  0  0  0  0  0
   -1.6679   -0.6564    0.2711 N   0  0  0  0  0  0  0  0  0  0  0  0
   -2.4778   -0.1134   -0.0237 H   0  0  0  0  0  0  0  0  0  0  0  0
   -0.3723    0.0383    0.2974 C   0  0  1  0  0  0  0  0  0  0  0  0
    0.2508   -0.4300    1.0666 H   0  0  0  0  0  0  0  0  0  0  0  0
    0.3422   -0.1785   -1.0551 C   0  0  0  0  0  0  0  0  0  0  0  0
    1.4198   -0.1638   -0.8697 H   0  0  0  0  0  0  0  0  0  0  0  0
    0.0970   -1.1719   -1.4460 H   0  0  0  0  0  0  0  0  0  0  0  0
    0.0266    0.8813   -2.1209 C   0  0  0  0  0  0  0  0  0  0  0  0
   -1.0496    0.8865   -2.3218 H   0  0  0  0  0  0  0  0  0  0  0  0
    0.3091    1.8816   -1.7781 H   0  0  0  0  0  0  0  0  0  0  0  0
    0.9342    0.5080   -3.6756 S   0  0  0  0  0  0  0  0  0  0  0  0
    2.6615    0.9890   -3.2752 C   0  0  0  0  0  0  0  0  0  0  0  0
    3.0588    0.3615   -2.4727 H   0  0  0  0  0  0  0  0  0  0  0  0
    3.2967    0.8670   -4.1576 H   0  0  0  0  0  0  0  0  0  0  0  0
    2.7003    2.0356   -2.9588 H   0  0  0  0  0  0  0  0  0  0  0  0
   -0.5232    1.5150    0.7204 C   0  0  0  0  0  0  0  0  0  0  0  0
   -1.4720    2.1744    0.3105 O   0  0  0  0  0  0  0  0  0  0  0  0
    0.3422    2.0756    1.6415 N   0  0  0  0  0  0  0  0  0  0  0  0
    1.0701    1.4807    2.0275 H   0  0  0  0  0  0  0  0  0  0  0  0
    0.1924    3.4316    2.1564 C   0  0  0  0  0  0  0  0  0  0  0  0
   -0.7766    3.5486    2.6532 H   0  0  0  0  0  0  0  0  0  0  0  0
    0.9811    3.6503    2.8828 H   0  0  0  0  0  0  0  0  0  0  0  0
    0.2610    4.1604    1.3419 H   0  0  0  0  0  0  0  0  0  0  0  0
  1  2  1  0  0  0  0
  2  3  1  0  0  0  0
  2  4  1  0  0  0  0
  2  5  1  0  0  0  0
  5  6  2  0  0  0  0
  5  7  1  0  0  0  0
  7  8  1  0  0  0  0
  7  9  1  0  0  0  0
  9 10  1  0  0  0  0
  9 11  1  0  0  0  0
  9 22  1  0  0  0  0
 11 12  1  0  0  0  0
 11 13  1  0  0  0  0
 11 14  1  0  0  0  0
 14 15  1  0  0  0  0
 14 16  1  0  0  0  0
 14 17  1  0  0  0  0
 17 18  1  0  0  0  0
 18 19  1  0  0  0  0
 18 20  1  0  0  0  0
 18 21  1  0  0  0  0
 22 23  2  0  0  0  0
 22 24  1  0  0  0  0
 24 25  1  0  0  0  0
 24 26  1  0  0  0  0
 26 27  1  0  0  0  0
 26 28  1  0  0  0  0
 26 29  1  0  0  0  0
M  END
$$$$

  -OEChem-02102214153D

 29 28  0     1  0  0  0  0  0999 V2000
   -3.2596   -3.4904    1.2092 H   0  0  0  0  0  0  0  0  0  0  0  0
   -3.2688   -2.4899    0.7681 C   0  0  0  0  0  0  0  0  0  0  0  0
   -3.9397   -1.8541    1.3509 H   0  0  0  0  0  0  0  0  0  0  0  0
   -3.6428   -2.5604   -0.2562 H   0  0  0  0  0  0  0  0  0  0  0  0
   -1.8692   -1.9050    0.7689 C   0  0  0  0  0  0  0  0  0  0  0  0
   -0.9380   -2.5474    1.2277 O   0  0  0  0  0  0  0  0  0  0  0  0
   -1.6551   -0.6422    0.2574 N   0  0  0  0  0  0  0  0  0  0  0  0
   -2.4733   -0.1122   -0.0380 H   0  0  0  0  0  0  0  0  0  0  0  0
   -0.3688    0.0698    0.2779 C   0  0  1  0  0  0  0  0  0  0  0  0
    0.2651   -0.3985    1.0380 H   0  0  0  0  0  0  0  0  0  0  0  0
    0.3429   -0.1227   -1.0786 C   0  0  0  0  0  0  0  0  0  0  0  0
    1.4236   -0.1029   -0.9103 H   0  0  0  0  0  0  0  0  0  0  0  0
    0.0960   -1.1133   -1.4754 H   0  0  0  0  0  0  0  0  0  0  0  0
   -0.0008    0.9468   -2.1247 C   0  0  0  0  0  0  0  0  0  0  0  0
   -1.0837    1.1087   -2.1415 H   0  0  0  0  0  0  0  0  0  0  0  0
    0.4772    1.8996   -1.8757 H   0  0  0  0  0  0  0  0  0  0  0  0
    0.5242    0.3994   -3.7992 S   0  0  0  0  0  0  0  0  0  0  0  0
    2.3561    0.3742   -3.6698 C   0  0  0  0  0  0  0  0  0  0  0  0
    2.6794   -0.3877   -2.9549 H   0  0  0  0  0  0  0  0  0  0  0  0
    2.7961    0.1444   -4.6448 H   0  0  0  0  0  0  0  0  0  0  0  0
    2.7257    1.3495   -3.3400 H   0  0  0  0  0  0  0  0  0  0  0  0
   -0.5240    1.5424    0.7145 C   0  0  0  0  0  0  0  0  0  0  0  0
   -1.4834    2.1996    0.3273 O   0  0  0  0  0  0  0  0  0  0  0  0
    0.3502    2.0980    1.6303 N   0  0  0  0  0  0  0  0  0  0  0  0
    1.0812    1.5000    2.0053 H   0  0  0  0  0  0  0  0  0  0  0  0
    0.1914    3.4418    2.1737 C   0  0  0  0  0  0  0  0  0  0  0  0
   -0.7446    3.5192    2.7369 H   0  0  0  0  0  0  0  0  0  0  0  0
    1.0211    3.6785    2.8466 H   0  0  0  0  0  0  0  0  0  0  0  0
    0.1799    4.1830    1.3676 H   0  0  0  0  0  0  0  0  0  0  0  0
  1  2  1  0  0  0  0
  2  3  1  0  0  0  0
  2  4  1  0  0  0  0
  2  5  1  0  0  0  0
  5  6  2  0  0  0  0
  5  7  1  0  0  0  0
  7  8  1  0  0  0  0
  7  9  1  0  0  0  0
  9 10  1  0  0  0  0
  9 11  1  0  0  0  0
  9 22  1  0  0  0  0
 11 12  1  0  0  0  0
 11 13  1  0  0  0  0
 11 14  1  0  0  0  0
 14 15  1  0  0  0  0
 14 16  1  0  0  0  0
 14 17  1  0  0  0  0
 17 18  1  0  0  0  0
 18 19  1  0  0  0  0
 18 20  1  0  0  0  0
 18 21  1  0  0  0  0
 22 23  2  0  0  0  0
 22 24  1  0  0  0  0
 24 25  1  0  0  0  0
 24 26  1  0  0  0  0
 26 27  1  0  0  0  0
 26 28  1  0  0  0  0
 26 29  1  0  0  0  0
M  END
$$$$

  -OEChem-02102214153D

 29 28  0     1  0  0  0  0  0999 V2000
   -3.2303   -3.4915    1.1841 H   0  0  0  0  0  0  0  0  0  0  0  0
   -3.2484   -2.4882    0.7491 C   0  0  0  0  0  0  0  0  0  0  0  0
   -3.9184   -1.8597    1.3407 H   0  0  0  0  0  0  0  0  0  0  0  0
   -3.6293   -2.5539   -0.2729 H   0  0  0  0  0  0  0  0  0  0  0  0
   -1.8521   -1.8955    0.7431 C   0  0  0  0  0  0  0  0  0  0  0  0
   -0.9123   -2.5377    1.1846 O   0  0  0  0  0  0  0  0  0  0  0  0
   -1.6509   -0.6251    0.2455 N   0  0  0  0  0  0  0  0  0  0  0  0
   -2.4747   -0.0975   -0.0383 H   0  0  0  0  0  0  0  0  0  0  0  0
   -0.3691    0.0944    0.2607 C   0  0  1  0  0  0  0  0  0  0  0  0
    0.2701   -0.3785    1.0138 H   0  0  0  0  0  0  0  0  0  0  0  0
    0.3419   -0.0893   -1.0979 C   0  0  0  0  0  0  0  0  0  0  0  0
    1.4242   -0.0692   -0.9384 H   0  0  0  0  0  0  0  0  0  0  0  0
    0.0940   -1.0824   -1.4885 H   0  0  0  0  0  0  0  0  0  0  0  0
   -0.0062    0.9767   -2.1488 C   0  0  0  0  0  0  0  0  0  0  0  0
   -1.0380    1.3145   -2.0102 H   0  0  0  0  0  0  0  0  0  0  0  0
    0.6496    1.8472   -2.0462 H   0  0  0  0  0  0  0  0  0  0  0  0
    0.1075    0.2726   -3.8435 S   0  0  0  0  0  0  0  0  0  0  0  0
    1.8903   -0.1463   -3.9854 C   0  0  0  0  0  0  0  0  0  0  0  0
    2.1614   -0.9160   -3.2572 H   0  0  0  0  0  0  0  0  0  0  0  0
    2.1071   -0.5251   -4.9887 H   0  0  0  0  0  0  0  0  0  0  0  0
    2.5033    0.7419   -3.8068 H   0  0  0  0  0  0  0  0  0  0  0  0
   -0.5196    1.5620    0.7166 C   0  0  0  0  0  0  0  0  0  0  0  0
   -1.4926    2.2193    0.3654 O   0  0  0  0  0  0  0  0  0  0  0  0
    0.3671    2.1054    1.6280 N   0  0  0  0  0  0  0  0  0  0  0  0
    1.1022    1.5019    1.9856 H   0  0  0  0  0  0  0  0  0  0  0  0
    0.2017    3.4323    2.2093 C   0  0  0  0  0  0  0  0  0  0  0  0
   -0.7255    3.4830    2.7898 H   0  0  0  0  0  0  0  0  0  0  0  0
    1.0400    3.6613    2.8744 H   0  0  0  0  0  0  0  0  0  0  0  0
    0.1677    4.1941    1.4233 H   0  0  0  0  0  0  0  0  0  0  0  0
  1  2  1  0  0  0  0
  2  3  1  0  0  0  0
  2  4  1  0  0  0  0
  2  5  1  0  0  0  0
  5  6  2  0  0  0  0
  5  7  1  0  0  0  0
  7  8  1  0  0  0  0
  7  9  1  0  0  0  0
  9 10  1  0  0  0  0
  9 11  1  0  0  0  0
  9 22  1  0  0  0  0
 11 12  1  0  0  0  0
 11 13  1  0  0  0  0
 11 14  1  0  0  0  0
 14 15  1  0  0  0  0
 14 16  1  0  0  0  0
 14 17  1  0  0  0  0
 17 18  1  0  0  0  0
 18 19  1  0  0  0  0
 18 20  1  0  0  0  0
 18 21  1  0  0  0  0
 22 23  2  0  0  0  0
 22 24  1  0  0  0  0
 24 25  1  0  0  0  0
 24 26  1  0  0  0  0
 26 27  1  0  0  0  0
 26 28  1  0  0  0  0
 26 29  1  0  0  0  0
M  END
$$$$

  -OEChem-02102214153D

 29 28  0     1  0  0  0  0  0999 V2000
   -3.2409   -3.4857    1.1751 H   0  0  0  0  0  0  0  0  0  0  0  0
   -3.2581   -2.4846    0.7352 C   0  0  0  0  0  0  0  0  0  0  0  0
   -3.9366   -1.8556    1.3167 H   0  0  0  0  0  0  0  0  0  0  0  0
   -3.6280   -2.5564   -0.2905 H   0  0  0  0  0  0  0  0  0  0  0  0
   -1.8638   -1.8870    0.7412 C   0  0  0  0  0  0  0  0  0  0  0  0
   -0.9233   -2.5310    1.1789 O   0  0  0  0  0  0  0  0  0  0  0  0
   -1.6648   -0.6124    0.2536 N   0  0  0  0  0  0  0  0  0  0  0  0
   -2.4878   -0.0892   -0.0402 H   0  0  0  0  0  0  0  0  0  0  0  0
   -0.3828    0.1067    0.2620 C   0  0  1  0  0  0  0  0  0  0  0  0
    0.2558   -0.3712    1.0119 H   0  0  0  0  0  0  0  0  0  0  0  0
    0.3278   -0.0878   -1.0964 C   0  0  0  0  0  0  0  0  0  0  0  0
    1.4096   -0.0659   -0.9329 H   0  0  0  0  0  0  0  0  0  0  0  0
    0.0864   -1.0888   -1.4697 H   0  0  0  0  0  0  0  0  0  0  0  0
   -0.0077    0.9614   -2.1729 C   0  0  0  0  0  0  0  0  0  0  0  0
   -0.9204    1.5040   -1.9133 H   0  0  0  0  0  0  0  0  0  0  0  0
    0.8018    1.6929   -2.2601 H   0  0  0  0  0  0  0  0  0  0  0  0
   -0.3228    0.1482   -3.7918 S   0  0  0  0  0  0  0  0  0  0  0  0
    1.3282   -0.5362   -4.2167 C   0  0  0  0  0  0  0  0  0  0  0  0
    1.6379   -1.2783   -3.4752 H   0  0  0  0  0  0  0  0  0  0  0  0
    1.2915   -1.0186   -5.1980 H   0  0  0  0  0  0  0  0  0  0  0  0
    2.0733    0.2642   -4.2480 H   0  0  0  0  0  0  0  0  0  0  0  0
   -0.5189    1.5720    0.7316 C   0  0  0  0  0  0  0  0  0  0  0  0
   -1.5004    2.2336    0.4142 O   0  0  0  0  0  0  0  0  0  0  0  0
    0.3824    2.1029    1.6364 N   0  0  0  0  0  0  0  0  0  0  0  0
    1.1238    1.4953    1.9737 H   0  0  0  0  0  0  0  0  0  0  0  0
    0.2313    3.4261    2.2307 C   0  0  0  0  0  0  0  0  0  0  0  0
   -0.6952    3.4818    2.8119 H   0  0  0  0  0  0  0  0  0  0  0  0
    1.0716    3.6400    2.8981 H   0  0  0  0  0  0  0  0  0  0  0  0
    0.2055    4.1958    1.4521 H   0  0  0  0  0  0  0  0  0  0  0  0
  1  2  1  0  0  0  0
  2  3  1  0  0  0  0
  2  4  1  0  0  0  0
  2  5  1  0  0  0  0
  5  6  2  0  0  0  0
  5  7  1  0  0  0  0
  7  8  1  0  0  0  0
  7  9  1  0  0  0  0
  9 10  1  0  0  0  0
  9 11  1  0  0  0  0
  9 22  1  0  0  0  0
 11 12  1  0  0  0  0
 11 13  1  0  0  0  0
 11 14  1  0  0  0  0
 14 15  1  0  0  0  0
 14 16  1  0  0  0  0
 14 17  1  0  0  0  0
 17 18  1  0  0  0  0
 18 19  1  0  0  0  0
 18 20  1  0  0  0  0
 18 21  1  0  0  0  0
 22 23  2  0  0  0  0
 22 24  1  0  0  0  0
 24 25  1  0  0  0  0
 24 26  1  0  0  0  0
 26 27  1  0  0  0  0
 26 28  1  0  0  0  0
 26 29  1  0  0  0  0
M  END
$$$$

  -OEChem-02102214153D

 29 28  0     1  0  0  0  0  0999 V2000
   -3.2547   -3.4723    1.1651 H   0  0  0  0  0  0  0  0  0  0  0  0
   -3.2708   -2.4698    0.7286 C   0  0  0  0  0  0  0  0  0  0  0  0
   -3.9546   -1.8444    1.3074 H   0  0  0  0  0  0  0  0  0  0  0  0
   -3.6334   -2.5392   -0.2999 H   0  0  0  0  0  0  0  0  0  0  0  0
   -1.8780   -1.8694    0.7467 C   0  0  0  0  0  0  0  0  0  0  0  0
   -0.9402   -2.5142    1.1895 O   0  0  0  0  0  0  0  0  0  0  0  0
   -1.6760   -0.5936    0.2636 N   0  0  0  0  0  0  0  0  0  0  0  0
   -2.4944   -0.0745   -0.0499 H   0  0  0  0  0  0  0  0  0  0  0  0
   -0.3917    0.1210    0.2698 C   0  0  1  0  0  0  0  0  0  0  0  0
    0.2436   -0.3593    1.0211 H   0  0  0  0  0  0  0  0  0  0  0  0
    0.3157   -0.0939   -1.0881 C   0  0  0  0  0  0  0  0  0  0  0  0
    1.3949   -0.0555   -0.9097 H   0  0  0  0  0  0  0  0  0  0  0  0
    0.0958   -1.1061   -1.4427 H   0  0  0  0  0  0  0  0  0  0  0  0
   -0.0016    0.9343   -2.1933 C   0  0  0  0  0  0  0  0  0  0  0  0
   -0.7080    1.6933   -1.8515 H   0  0  0  0  0  0  0  0  0  0  0  0
    0.9141    1.4531   -2.4936 H   0  0  0  0  0  0  0  0  0  0  0  0
   -0.7454    0.1001   -3.6542 S   0  0  0  0  0  0  0  0  0  0  0  0
    0.6759   -0.8374   -4.3446 C   0  0  0  0  0  0  0  0  0  0  0  0
    1.0387   -1.5738   -3.6219 H   0  0  0  0  0  0  0  0  0  0  0  0
    0.3698   -1.3634   -5.2538 H   0  0  0  0  0  0  0  0  0  0  0  0
    1.4940   -0.1553   -4.5938 H   0  0  0  0  0  0  0  0  0  0  0  0
   -0.5172    1.5854    0.7451 C   0  0  0  0  0  0  0  0  0  0  0  0
   -1.4998    2.2525    0.4427 O   0  0  0  0  0  0  0  0  0  0  0  0
    0.3925    2.1058    1.6477 N   0  0  0  0  0  0  0  0  0  0  0  0
    1.1299    1.4901    1.9788 H   0  0  0  0  0  0  0  0  0  0  0  0
    0.2455    3.4201    2.2622 C   0  0  0  0  0  0  0  0  0  0  0  0
   -0.6758    3.4664    2.8524 H   0  0  0  0  0  0  0  0  0  0  0  0
    1.0915    3.6249    2.9251 H   0  0  0  0  0  0  0  0  0  0  0  0
    0.2122    4.2009    1.4951 H   0  0  0  0  0  0  0  0  0  0  0  0
  1  2  1  0  0  0  0
  2  3  1  0  0  0  0
  2  4  1  0  0  0  0
  2  5  1  0  0  0  0
  5  6  2  0  0  0  0
  5  7  1  0  0  0  0
  7  8  1  0  0  0  0
  7  9  1  0  0  0  0
  9 10  1  0  0  0  0
  9 11  1  0  0  0  0
  9 22  1  0  0  0  0
 11 12  1  0  0  0  0
 11 13  1  0  0  0  0
 11 14  1  0  0  0  0
 14 15  1  0  0  0  0
 14 16  1  0  0  0  0
 14 17  1  0  0  0  0
 17 18  1  0  0  0  0
 18 19  1  0  0  0  0
 18 20  1  0  0  0  0
 18 21  1  0  0  0  0
 22 23  2  0  0  0  0
 22 24  1  0  0  0  0
 24 25  1  0  0  0  0
 24 26  1  0  0  0  0
 26 27  1  0  0  0  0
 26 28  1  0  0  0  0
 26 29  1  0  0  0  0
M  END
$$$$

  -OEChem-02102214153D

 29 28  0     1  0  0  0  0  0999 V2000
   -3.2838   -3.4538    1.1595 H   0  0  0  0  0  0  0  0  0  0  0  0
   -3.2851   -2.4513    0.7227 C   0  0  0  0  0  0  0  0  0  0  0  0
   -3.9762   -1.8212    1.2876 H   0  0  0  0  0  0  0  0  0  0  0  0
   -3.6271   -2.5181   -0.3130 H   0  0  0  0  0  0  0  0  0  0  0  0
   -1.8896   -1.8587    0.7686 C   0  0  0  0  0  0  0  0  0  0  0  0
   -0.9642   -2.5060    1.2334 O   0  0  0  0  0  0  0  0  0  0  0  0
   -1.6709   -0.5884    0.2800 N   0  0  0  0  0  0  0  0  0  0  0  0
   -2.4775   -0.0724   -0.0677 H   0  0  0  0  0  0  0  0  0  0  0  0
   -0.3820    0.1166    0.2899 C   0  0  1  0  0  0  0  0  0  0  0  0
    0.2478   -0.3631    1.0464 H   0  0  0  0  0  0  0  0  0  0  0  0
    0.3201   -0.1175   -1.0676 C   0  0  0  0  0  0  0  0  0  0  0  0
    1.3967   -0.0637   -0.8787 H   0  0  0  0  0  0  0  0  0  0  0  0
    0.1177   -1.1359   -1.4136 H   0  0  0  0  0  0  0  0  0  0  0  0
    0.0153    0.9012   -2.1846 C   0  0  0  0  0  0  0  0  0  0  0  0
   -0.4201    1.8255   -1.8003 H   0  0  0  0  0  0  0  0  0  0  0  0
    0.9473    1.1745   -2.6892 H   0  0  0  0  0  0  0  0  0  0  0  0
   -1.1274    0.1668   -3.4256 S   0  0  0  0  0  0  0  0  0  0  0  0
   -0.0441   -1.0010   -4.3414 C   0  0  0  0  0  0  0  0  0  0  0  0
    0.3463   -1.7713   -3.6704 H   0  0  0  0  0  0  0  0  0  0  0  0
   -0.6119   -1.4898   -5.1387 H   0  0  0  0  0  0  0  0  0  0  0  0
    0.7971   -0.4645   -4.7901 H   0  0  0  0  0  0  0  0  0  0  0  0
   -0.5075    1.5838    0.7559 C   0  0  0  0  0  0  0  0  0  0  0  0
   -1.4829    2.2536    0.4363 O   0  0  0  0  0  0  0  0  0  0  0  0
    0.3962    2.1076    1.6627 N   0  0  0  0  0  0  0  0  0  0  0  0
    1.1272    1.4911    2.0060 H   0  0  0  0  0  0  0  0  0  0  0  0
    0.2493    3.4276    2.2646 C   0  0  0  0  0  0  0  0  0  0  0  0
   -0.6747    3.4810    2.8501 H   0  0  0  0  0  0  0  0  0  0  0  0
    1.0931    3.6365    2.9291 H   0  0  0  0  0  0  0  0  0  0  0  0
    0.2208    4.2015    1.4902 H   0  0  0  0  0  0  0  0  0  0  0  0
  1  2  1  0  0  0  0
  2  3  1  0  0  0  0
  2  4  1  0  0  0  0
  2  5  1  0  0  0  0
  5  6  2  0  0  0  0
  5  7  1  0  0  0  0
  7  8  1  0  0  0  0
  7  9  1  0  0  0  0
  9 10  1  0  0  0  0
  9 11  1  0  0  0  0
  9 22  1  0  0  0  0
 11 12  1  0  0  0  0
 11 13  1  0  0  0  0
 11 14  1  0  0  0  0
 14 15  1  0  0  0  0
 14 16  1  0  0  0  0
 14 17  1  0  0  0  0
 17 18  1  0  0  0  0
 18 19  1  0  0  0  0
 18 20  1  0  0  0  0
 18 21  1  0  0  0  0
 22 23  2  0  0  0  0
 22 24  1  0  0  0  0
 24 25  1  0  0  0  0
 24 26  1  0  0  0  0
 26 27  1  0  0  0  0
 26 28  1  0  0  0  0
 26 29  1  0  0  0  0
M  END
$$$$

  -OEChem-02102214153D

 29 28  0     1  0  0  0  0  0999 V2000
   -3.2999   -3.4456    1.1646 H   0  0  0  0  0  0  0  0  0  0  0  0
   -3.2897   -2.4468    0.7194 C   0  0  0  0  0  0  0  0  0  0  0  0
   -3.9922   -1.8112    1.2638 H   0  0  0  0  0  0  0  0  0  0  0  0
   -3.6095   -2.5220   -0.3228 H   0  0  0  0  0  0  0  0  0  0  0  0
   -1.8947   -1.8555    0.7902 C   0  0  0  0  0  0  0  0  0  0  0  0
   -0.9806   -2.4995    1.2814 O   0  0  0  0  0  0  0  0  0  0  0  0
   -1.6621   -0.5923    0.2904 N   0  0  0  0  0  0  0  0  0  0  0  0
   -2.4538   -0.0884   -0.1066 H   0  0  0  0  0  0  0  0  0  0  0  0
   -0.3701    0.1061    0.3054 C   0  0  1  0  0  0  0  0  0  0  0  0
    0.2551   -0.3697    1.0678 H   0  0  0  0  0  0  0  0  0  0  0  0
    0.3310   -0.1384   -1.0508 C   0  0  0  0  0  0  0  0  0  0  0  0
    1.4074   -0.0846   -0.8610 H   0  0  0  0  0  0  0  0  0  0  0  0
    0.1273   -1.1557   -1.3981 H   0  0  0  0  0  0  0  0  0  0  0  0
    0.0283    0.8812   -2.1644 C   0  0  0  0  0  0  0  0  0  0  0  0
   -0.1310    1.8891   -1.7734 H   0  0  0  0  0  0  0  0  0  0  0  0
    0.8875    0.9371   -2.8401 H   0  0  0  0  0  0  0  0  0  0  0  0
   -1.4369    0.3435   -3.1396 S   0  0  0  0  0  0  0  0  0  0  0  0
   -0.7739   -1.0256   -4.1707 C   0  0  0  0  0  0  0  0  0  0  0  0
   -0.4284   -1.8508   -3.5419 H   0  0  0  0  0  0  0  0  0  0  0  0
   -1.5553   -1.4016   -4.8376 H   0  0  0  0  0  0  0  0  0  0  0  0
    0.0633   -0.6706   -4.7788 H   0  0  0  0  0  0  0  0  0  0  0  0
   -0.4955    1.5785    0.7540 C   0  0  0  0  0  0  0  0  0  0  0  0
   -1.4514    2.2578    0.3988 O   0  0  0  0  0  0  0  0  0  0  0  0
    0.4010    2.1076    1.6650 N   0  0  0  0  0  0  0  0  0  0  0  0
    1.1149    1.4866    2.0352 H   0  0  0  0  0  0  0  0  0  0  0  0
    0.2585    3.4386    2.2434 C   0  0  0  0  0  0  0  0  0  0  0  0
   -0.6759    3.5123    2.8099 H   0  0  0  0  0  0  0  0  0  0  0  0
    1.0914    3.6481    2.9213 H   0  0  0  0  0  0  0  0  0  0  0  0
    0.2547    4.2002    1.4566 H   0  0  0  0  0  0  0  0  0  0  0  0
  1  2  1  0  0  0  0
  2  3  1  0  0  0  0
  2  4  1  0  0  0  0
  2  5  1  0  0  0  0
  5  6  2  0  0  0  0
  5  7  1  0  0  0  0
  7  8  1  0  0  0  0
  7  9  1  0  0  0  0
  9 10  1  0  0  0  0
  9 11  1  0  0  0  0
  9 22  1  0  0  0  0
 11 12  1  0  0  0  0
 11 13  1  0  0  0  0
 11 14  1  0  0  0  0
 14 15  1  0  0  0  0
 14 16  1  0  0  0  0
 14 17  1  0  0  0  0
 17 18  1  0  0  0  0
 18 19  1  0  0  0  0
 18 20  1  0  0  0  0
 18 21  1  0  0  0  0
 22 23  2  0  0  0  0
 22 24  1  0  0  0  0
 24 25  1  0  0  0  0
 24 26  1  0  0  0  0
 26 27  1  0  0  0  0
 26 28  1  0  0  0  0
 26 29  1  0  0  0  0
M  END
$$$$

  -OEChem-02102214153D

 29 28  0     1  0  0  0  0  0999 V2000
   -3.3038   -3.4487    1.1407 H   0  0  0  0  0  0  0  0  0  0  0  0
   -3.2919   -2.4465    0.7032 C   0  0  0  0  0  0  0  0  0  0  0  0
   -3.9887   -1.8120    1.2564 H   0  0  0  0  0  0  0  0  0  0  0  0
   -3.6174   -2.5116   -0.3379 H   0  0  0  0  0  0  0  0  0  0  0  0
   -1.8939   -1.8624    0.7723 C   0  0  0  0  0  0  0  0  0  0  0  0
   -0.9820   -2.5126    1.2594 O   0  0  0  0  0  0  0  0  0  0  0  0
   -1.6551   -0.6013    0.2709 N   0  0  0  0  0  0  0  0  0  0  0  0
   -2.4440   -0.0918   -0.1256 H   0  0  0  0  0  0  0  0  0  0  0  0
   -0.3629    0.0965    0.2926 C   0  0  1  0  0  0  0  0  0  0  0  0
    0.2562   -0.3794    1.0600 H   0  0  0  0  0  0  0  0  0  0  0  0
    0.3541   -0.1363   -1.0567 C   0  0  0  0  0  0  0  0  0  0  0  0
    1.4298   -0.0872   -0.8616 H   0  0  0  0  0  0  0  0  0  0  0  0
    0.1485   -1.1476   -1.4186 H   0  0  0  0  0  0  0  0  0  0  0  0
    0.0522    0.8964   -2.1564 C   0  0  0  0  0  0  0  0  0  0  0  0
    0.1400    1.9188   -1.7770 H   0  0  0  0  0  0  0  0  0  0  0  0
    0.7892    0.7900   -2.9584 H   0  0  0  0  0  0  0  0  0  0  0  0
   -1.6259    0.6356   -2.8699 S   0  0  0  0  0  0  0  0  0  0  0  0
   -1.4599   -0.9414   -3.7980 C   0  0  0  0  0  0  0  0  0  0  0  0
   -1.2785   -1.7747   -3.1134 H   0  0  0  0  0  0  0  0  0  0  0  0
   -2.3794   -1.1449   -4.3549 H   0  0  0  0  0  0  0  0  0  0  0  0
   -0.6290   -0.8776   -4.5067 H   0  0  0  0  0  0  0  0  0  0  0  0
   -0.4896    1.5706    0.7355 C   0  0  0  0  0  0  0  0  0  0  0  0
   -1.4412    2.2517    0.3736 O   0  0  0  0  0  0  0  0  0  0  0  0
    0.4022    2.1002    1.6506 N   0  0  0  0  0  0  0  0  0  0  0  0
    1.1138    1.4793    2.0252 H   0  0  0  0  0  0  0  0  0  0  0  0
    0.2636    3.4361    2.2187 C   0  0  0  0  0  0  0  0  0  0  0  0
   -0.6630    3.5114    2.7973 H   0  0  0  0  0  0  0  0  0  0  0  0
    1.1057    3.6546    2.8823 H   0  0  0  0  0  0  0  0  0  0  0  0
    0.2459    4.1910    1.4254 H   0  0  0  0  0  0  0  0  0  0  0  0
  1  2  1  0  0  0  0
  2  3  1  0  0  0  0
  2  4  1  0  0  0  0
  2  5  1  0  0  0  0
  5  6  2  0  0  0  0
  5  7  1  0  0  0  0
  7  8  1  0  0  0  0
  7  9  1  0  0  0  0
  9 10  1  0  0  0  0
  9 11  1  0  0  0  0
  9 22  1  0  0  0  0
 11 12  1  0  0  0  0
 11 13  1  0  0  0  0
 11 14  1  0  0  0  0
 14 15  1  0  0  0  0
 14 16  1  0  0  0  0
 14 17  1  0  0  0  0
 17 18  1  0  0  0  0
 18 19  1  0  0  0  0
 18 20  1  0  0  0  0
 18 21  1  0  0  0  0
 22 23  2  0  0  0  0
 22 24  1  0  0  0  0
 24 25  1  0  0  0  0
 24 26  1  0  0  0  0
 26 27  1  0  0  0  0
 26 28  1  0  0  0  0
 26 29  1  0  0  0  0
M  END
$$$$

  -OEChem-02102214153D

 29 28  0     1  0  0  0  0  0999 V2000
   -3.3182   -3.4317    1.1910 H   0  0  0  0  0  0  0  0  0  0  0  0
   -3.3078   -2.4381    0.7347 C   0  0  0  0  0  0  0  0  0  0  0  0
   -3.9836   -1.7866    1.2938 H   0  0  0  0  0  0  0  0  0  0  0  0
   -3.6607   -2.5188   -0.2962 H   0  0  0  0  0  0  0  0  0  0  0  0
   -1.9029   -1.8670    0.7571 C   0  0  0  0  0  0  0  0  0  0  0  0
   -0.9786   -2.5301    1.2010 O   0  0  0  0  0  0  0  0  0  0  0  0
   -1.6728   -0.6034    0.2585 N   0  0  0  0  0  0  0  0  0  0  0  0
   -2.4751   -0.0738   -0.0814 H   0  0  0  0  0  0  0  0  0  0  0  0
   -0.3833    0.0993    0.2690 C   0  0  1  0  0  0  0  0  0  0  0  0
    0.2330   -0.3766    1.0385 H   0  0  0  0  0  0  0  0  0  0  0  0
    0.3574   -0.1272   -1.0685 C   0  0  0  0  0  0  0  0  0  0  0  0
    1.4320   -0.0854   -0.8653 H   0  0  0  0  0  0  0  0  0  0  0  0
    0.1458   -1.1369   -1.4332 H   0  0  0  0  0  0  0  0  0  0  0  0
    0.0663    0.8945   -2.1810 C   0  0  0  0  0  0  0  0  0  0  0  0
    0.3696    1.8950   -1.8564 H   0  0  0  0  0  0  0  0  0  0  0  0
    0.6613    0.6442   -3.0648 H   0  0  0  0  0  0  0  0  0  0  0  0
   -1.7147    0.9365   -2.6509 S   0  0  0  0  0  0  0  0  0  0  0  0
   -1.9948   -0.7294   -3.3727 C   0  0  0  0  0  0  0  0  0  0  0  0
   -1.8688   -1.5044   -2.6116 H   0  0  0  0  0  0  0  0  0  0  0  0
   -3.0109   -0.7969   -3.7724 H   0  0  0  0  0  0  0  0  0  0  0  0
   -1.2864   -0.9139   -4.1856 H   0  0  0  0  0  0  0  0  0  0  0  0
   -0.4992    1.5731    0.7177 C   0  0  0  0  0  0  0  0  0  0  0  0
   -1.4737    2.2479    0.4107 O   0  0  0  0  0  0  0  0  0  0  0  0
    0.4086    2.0935    1.6227 N   0  0  0  0  0  0  0  0  0  0  0  0
    1.1436    1.4778    1.9581 H   0  0  0  0  0  0  0  0  0  0  0  0
    0.2728    3.4179    2.2177 C   0  0  0  0  0  0  0  0  0  0  0  0
   -0.6577    3.4866    2.7912 H   0  0  0  0  0  0  0  0  0  0  0  0
    1.1108    3.6186    2.8922 H   0  0  0  0  0  0  0  0  0  0  0  0
    0.2640    4.1882    1.4393 H   0  0  0  0  0  0  0  0  0  0  0  0
  1  2  1  0  0  0  0
  2  3  1  0  0  0  0
  2  4  1  0  0  0  0
  2  5  1  0  0  0  0
  5  6  2  0  0  0  0
  5  7  1  0  0  0  0
  7  8  1  0  0  0  0
  7  9  1  0  0  0  0
  9 10  1  0  0  0  0
  9 11  1  0  0  0  0
  9 22  1  0  0  0  0
 11 12  1  0  0  0  0
 11 13  1  0  0  0  0
 11 14  1  0  0  0  0
 14 15  1  0  0  0  0
 14 16  1  0  0  0  0
 14 17  1  0  0  0  0
 17 18  1  0  0  0  0
 18 19  1  0  0  0  0
 18 20  1  0  0  0  0
 18 21  1  0  0  0  0
 22 23  2  0  0  0  0
 22 24  1  0  0  0  0
 24 25  1  0  0  0  0
 24 26  1  0  0  0  0
 26 27  1  0  0  0  0
 26 28  1  0  0  0  0
 26 29  1  0  0  0  0
M  END
$$$$

  -OEChem-02102214153D

 29 28  0     1  0  0  0  0  0999 V2000
   -3.2991   -3.4278    1.3431 H   0  0  0  0  0  0  0  0  0  0  0  0
   -3.3164   -2.4319    0.8915 C   0  0  0  0  0  0  0  0  0  0  0  0
   -3.9465   -1.7797    1.5011 H   0  0  0  0  0  0  0  0  0  0  0  0
   -3.7435   -2.5062   -0.1114 H   0  0  0  0  0  0  0  0  0  0  0  0
   -1.9109   -1.8674    0.8145 C   0  0  0  0  0  0  0  0  0  0  0  0
   -0.9600   -2.5398    1.1813 O   0  0  0  0  0  0  0  0  0  0  0  0
   -1.7119   -0.5991    0.3138 N   0  0  0  0  0  0  0  0  0  0  0  0
   -2.5372   -0.0527    0.0692 H   0  0  0  0  0  0  0  0  0  0  0  0
   -0.4282    0.1144    0.2809 C   0  0  1  0  0  0  0  0  0  0  0  0
    0.1951   -0.3541    1.0492 H   0  0  0  0  0  0  0  0  0  0  0  0
    0.3259   -0.1258   -1.0476 C   0  0  0  0  0  0  0  0  0  0  0  0
    1.4001   -0.0885   -0.8412 H   0  0  0  0  0  0  0  0  0  0  0  0
    0.1055   -1.1430   -1.3873 H   0  0  0  0  0  0  0  0  0  0  0  0
    0.0470    0.8480   -2.2070 C   0  0  0  0  0  0  0  0  0  0  0  0
    0.5518    1.7963   -1.9959 H   0  0  0  0  0  0  0  0  0  0  0  0
    0.4758    0.4477   -3.1311 H   0  0  0  0  0  0  0  0  0  0  0  0
   -1.7386    1.2109   -2.4665 S   0  0  0  0  0  0  0  0  0  0  0  0
   -2.3570   -0.3785   -3.1476 C   0  0  0  0  0  0  0  0  0  0  0  0
   -2.1859   -1.1931   -2.4386 H   0  0  0  0  0  0  0  0  0  0  0  0
   -3.4303   -0.3075   -3.3466 H   0  0  0  0  0  0  0  0  0  0  0  0
   -1.8421   -0.6135   -4.0837 H   0  0  0  0  0  0  0  0  0  0  0  0
   -0.5260    1.5877    0.7390 C   0  0  0  0  0  0  0  0  0  0  0  0
   -1.5477    2.2367    0.5533 O   0  0  0  0  0  0  0  0  0  0  0  0
    0.4213    2.0988    1.6091 N   0  0  0  0  0  0  0  0  0  0  0  0
    1.1958    1.4950    1.8684 H   0  0  0  0  0  0  0  0  0  0  0  0
    0.2970    3.4016    2.2530 C   0  0  0  0  0  0  0  0  0  0  0  0
   -0.5826    3.4245    2.9050 H   0  0  0  0  0  0  0  0  0  0  0  0
    1.1834    3.6109    2.8595 H   0  0  0  0  0  0  0  0  0  0  0  0
    0.1988    4.1925    1.5016 H   0  0  0  0  0  0  0  0  0  0  0  0
  1  2  1  0  0  0  0
  2  3  1  0  0  0  0
  2  4  1  0  0  0  0
  2  5  1  0  0  0  0
  5  6  2  0  0  0  0
  5  7  1  0  0  0  0
  7  8  1  0  0  0  0
  7  9  1  0  0  0  0
  9 10  1  0  0  0  0
  9 11  1  0  0  0  0
  9 22  1  0  0  0  0
 11 12  1  0  0  0  0
 11 13  1  0  0  0  0
 11 14  1  0  0  0  0
 14 15  1  0  0  0  0
 14 16  1  0  0  0  0
 14 17  1  0  0  0  0
 17 18  1  0  0  0  0
 18 19  1  0  0  0  0
 18 20  1  0  0  0  0
 18 21  1  0  0  0  0
 22 23  2  0  0  0  0
 22 24  1  0  0  0  0
 24 25  1  0  0  0  0
 24 26  1  0  0  0  0
 26 27  1  0  0  0  0
 26 28  1  0  0  0  0
 26 29  1  0  0  0  0
M  END
$$$$

  -OEChem-02102214153D

 29 28  0     1  0  0  0  0  0999 V2000
   -3.2162   -3.4462    1.4814 H   0  0  0  0  0  0  0  0  0  0  0  0
   -3.2724   -2.4426    1.0504 C   0  0  0  0  0  0  0  0  0  0  0  0
   -3.8526   -1.8035    1.7206 H   0  0  0  0  0  0  0  0  0  0  0  0
   -3.7791   -2.5011    0.0842 H   0  0  0  0  0  0  0  0  0  0  0  0
   -1.8788   -1.8722    0.8702 C   0  0  0  0  0  0  0  0  0  0  0  0
   -0.9004   -2.5478    1.1486 O   0  0  0  0  0  0  0  0  0  0  0  0
   -1.7230   -0.5932    0.3806 N   0  0  0  0  0  0  0  0  0  0  0  0
   -2.5664   -0.0365    0.2457 H   0  0  0  0  0  0  0  0  0  0  0  0
   -0.4504    0.1366    0.3009 C   0  0  1  0  0  0  0  0  0  0  0  0
    0.1928   -0.3278    1.0554 H   0  0  0  0  0  0  0  0  0  0  0  0
    0.2922   -0.1140   -1.0337 C   0  0  0  0  0  0  0  0  0  0  0  0
    1.3680   -0.0725   -0.8362 H   0  0  0  0  0  0  0  0  0  0  0  0
    0.0711   -1.1408   -1.3433 H   0  0  0  0  0  0  0  0  0  0  0  0
    0.0127    0.8080   -2.2377 C   0  0  0  0  0  0  0  0  0  0  0  0
    0.7081    1.6516   -2.1809 H   0  0  0  0  0  0  0  0  0  0  0  0
    0.2312    0.2706   -3.1658 H   0  0  0  0  0  0  0  0  0  0  0  0
   -1.6799    1.5192   -2.3232 S   0  0  0  0  0  0  0  0  0  0  0  0
   -2.6513    0.0890   -2.9406 C   0  0  0  0  0  0  0  0  0  0  0  0
   -2.5340   -0.7704   -2.2750 H   0  0  0  0  0  0  0  0  0  0  0  0
   -3.7120    0.3517   -2.9922 H   0  0  0  0  0  0  0  0  0  0  0  0
   -2.3117   -0.1938   -3.9412 H   0  0  0  0  0  0  0  0  0  0  0  0
   -0.5409    1.6022    0.7866 C   0  0  0  0  0  0  0  0  0  0  0  0
   -1.6041    2.2092    0.7352 O   0  0  0  0  0  0  0  0  0  0  0  0
    0.4443    2.1051    1.6192 N   0  0  0  0  0  0  0  0  0  0  0  0
    1.2585    1.5224    1.7891 H   0  0  0  0  0  0  0  0  0  0  0  0
    0.3212    3.3690    2.3365 C   0  0  0  0  0  0  0  0  0  0  0  0
   -0.5043    3.3228    3.0545 H   0  0  0  0  0  0  0  0  0  0  0  0
    1.2440    3.5862    2.8827 H   0  0  0  0  0  0  0  0  0  0  0  0
    0.1340    4.1902    1.6365 H   0  0  0  0  0  0  0  0  0  0  0  0
  1  2  1  0  0  0  0
  2  3  1  0  0  0  0
  2  4  1  0  0  0  0
  2  5  1  0  0  0  0
  5  6  2  0  0  0  0
  5  7  1  0  0  0  0
  7  8  1  0  0  0  0
  7  9  1  0  0  0  0
  9 10  1  0  0  0  0
  9 11  1  0  0  0  0
  9 22  1  0  0  0  0
 11 12  1  0  0  0  0
 11 13  1  0  0  0  0
 11 14  1  0  0  0  0
 14 15  1  0  0  0  0
 14 16  1  0  0  0  0
 14 17  1  0  0  0  0
 17 18  1  0  0  0  0
 18 19  1  0  0  0  0
 18 20  1  0  0  0  0
 18 21  1  0  0  0  0
 22 23  2  0  0  0  0
 22 24  1  0  0  0  0
 24 25  1  0  0  0  0
 24 26  1  0  0  0  0
 26 27  1  0  0  0  0
 26 28  1  0  0  0  0
 26 29  1  0  0  0  0
M  END
$$$$

  -OEChem-02102214153D

 29 28  0     1  0  0  0  0  0999 V2000
   -3.1109   -3.4948    1.5653 H   0  0  0  0  0  0  0  0  0  0  0  0
   -3.2013   -2.4799    1.1681 C   0  0  0  0  0  0  0  0  0  0  0  0
   -3.7340   -1.8632    1.8961 H   0  0  0  0  0  0  0  0  0  0  0  0
   -3.7763   -2.5145    0.2397 H   0  0  0  0  0  0  0  0  0  0  0  0
   -1.8260   -1.8973    0.9033 C   0  0  0  0  0  0  0  0  0  0  0  0
   -0.8277   -2.5749    1.0917 O   0  0  0  0  0  0  0  0  0  0  0  0
   -1.7104   -0.6043    0.4388 N   0  0  0  0  0  0  0  0  0  0  0  0
   -2.5609   -0.0429    0.4148 H   0  0  0  0  0  0  0  0  0  0  0  0
   -0.4498    0.1427    0.3249 C   0  0  1  0  0  0  0  0  0  0  0  0
    0.2182   -0.3247    1.0559 H   0  0  0  0  0  0  0  0  0  0  0  0
    0.2660   -0.0977   -1.0282 C   0  0  0  0  0  0  0  0  0  0  0  0
    1.3433   -0.0409   -0.8428 H   0  0  0  0  0  0  0  0  0  0  0  0
    0.0593   -1.1322   -1.3217 H   0  0  0  0  0  0  0  0  0  0  0  0
   -0.0227    0.7960   -2.2558 C   0  0  0  0  0  0  0  0  0  0  0  0
    0.8300    1.4715   -2.3774 H   0  0  0  0  0  0  0  0  0  0  0  0
   -0.0624    0.1690   -3.1522 H   0  0  0  0  0  0  0  0  0  0  0  0
   -1.5221    1.8543   -2.2021 S   0  0  0  0  0  0  0  0  0  0  0  0
   -2.8374    0.6676   -2.6832 C   0  0  0  0  0  0  0  0  0  0  0  0
   -2.8470   -0.1901   -2.0059 H   0  0  0  0  0  0  0  0  0  0  0  0
   -3.8149    1.1572   -2.6434 H   0  0  0  0  0  0  0  0  0  0  0  0
   -2.6669    0.3074   -3.7019 H   0  0  0  0  0  0  0  0  0  0  0  0
   -0.5446    1.5937    0.8520 C   0  0  0  0  0  0  0  0  0  0  0  0
   -1.6332    2.1563    0.9006 O   0  0  0  0  0  0  0  0  0  0  0  0
    0.4653    2.0920    1.6574 N   0  0  0  0  0  0  0  0  0  0  0  0
    1.3158    1.5432    1.7387 H   0  0  0  0  0  0  0  0  0  0  0  0
    0.3489    3.3276    2.4236 C   0  0  0  0  0  0  0  0  0  0  0  0
   -0.4326    3.2344    3.1852 H   0  0  0  0  0  0  0  0  0  0  0  0
    1.2953    3.5526    2.9244 H   0  0  0  0  0  0  0  0  0  0  0  0
    0.1002    4.1657    1.7639 H   0  0  0  0  0  0  0  0  0  0  0  0
  1  2  1  0  0  0  0
  2  3  1  0  0  0  0
  2  4  1  0  0  0  0
  2  5  1  0  0  0  0
  5  6  2  0  0  0  0
  5  7  1  0  0  0  0
  7  8  1  0  0  0  0
  7  9  1  0  0  0  0
  9 10  1  0  0  0  0
  9 11  1  0  0  0  0
  9 22  1  0  0  0  0
 11 12  1  0  0  0  0
 11 13  1  0  0  0  0
 11 14  1  0  0  0  0
 14 15  1  0  0  0  0
 14 16  1  0  0  0  0
 14 17  1  0  0  0  0
 17 18  1  0  0  0  0
 18 19  1  0  0  0  0
 18 20  1  0  0  0  0
 18 21  1  0  0  0  0
 22 23  2  0  0  0  0
 22 24  1  0  0  0  0
 24 25  1  0  0  0  0
 24 26  1  0  0  0  0
 26 27  1  0  0  0  0
 26 28  1  0  0  0  0
 26 29  1  0  0  0  0
M  END
$$$$

  -OEChem-02102214153D

 29 28  0     1  0  0  0  0  0999 V2000
   -3.1353   -3.5321    1.4860 H   0  0  0  0  0  0  0  0  0  0  0  0
   -3.2146   -2.5025    1.1260 C   0  0  0  0  0  0  0  0  0  0  0  0
   -3.7180   -1.9015    1.8871 H   0  0  0  0  0  0  0  0  0  0  0  0
   -3.8112   -2.4935    0.2107 H   0  0  0  0  0  0  0  0  0  0  0  0
   -1.8344   -1.9372    0.8491 C   0  0  0  0  0  0  0  0  0  0  0  0
   -0.8451   -2.6379    0.9957 O   0  0  0  0  0  0  0  0  0  0  0  0
   -1.7043   -0.6295    0.4317 N   0  0  0  0  0  0  0  0  0  0  0  0
   -2.5434   -0.0518    0.4651 H   0  0  0  0  0  0  0  0  0  0  0  0
   -0.4316    0.1021    0.3513 C   0  0  1  0  0  0  0  0  0  0  0  0
    0.2312   -0.3970    1.0662 H   0  0  0  0  0  0  0  0  0  0  0  0
    0.2739   -0.1062   -1.0145 C   0  0  0  0  0  0  0  0  0  0  0  0
    1.3482   -0.0527   -0.8117 H   0  0  0  0  0  0  0  0  0  0  0  0
    0.0765   -1.1351   -1.3333 H   0  0  0  0  0  0  0  0  0  0  0  0
    0.0266    0.8137   -2.2361 C   0  0  0  0  0  0  0  0  0  0  0  0
    0.9912    1.2410   -2.5285 H   0  0  0  0  0  0  0  0  0  0  0  0
   -0.3069    0.1907   -3.0719 H   0  0  0  0  0  0  0  0  0  0  0  0
   -1.1505    2.2135   -2.0755 S   0  0  0  0  0  0  0  0  0  0  0  0
   -2.7762    1.4085   -2.3552 C   0  0  0  0  0  0  0  0  0  0  0  0
   -3.5783    2.1458   -2.2557 H   0  0  0  0  0  0  0  0  0  0  0  0
   -2.9416    0.6136   -1.6246 H   0  0  0  0  0  0  0  0  0  0  0  0
   -2.8175    0.9776   -3.3597 H   0  0  0  0  0  0  0  0  0  0  0  0
   -0.5332    1.5297    0.9364 C   0  0  0  0  0  0  0  0  0  0  0  0
   -1.6303    2.0763    1.0045 O   0  0  0  0  0  0  0  0  0  0  0  0
    0.4649    1.9990    1.7728 N   0  0  0  0  0  0  0  0  0  0  0  0
    1.3274    1.4653    1.8228 H   0  0  0  0  0  0  0  0  0  0  0  0
    0.3418    3.2164    2.5663 C   0  0  0  0  0  0  0  0  0  0  0  0
   -0.4467    3.1056    3.3180 H   0  0  0  0  0  0  0  0  0  0  0  0
    1.2835    3.4301    3.0808 H   0  0  0  0  0  0  0  0  0  0  0  0
    0.0989    4.0691    1.9234 H   0  0  0  0  0  0  0  0  0  0  0  0
  1  2  1  0  0  0  0
  2  3  1  0  0  0  0
  2  4  1  0  0  0  0
  2  5  1  0  0  0  0
  5  6  2  0  0  0  0
  5  7  1  0  0  0  0
  7  8  1  0  0  0  0
  7  9  1  0  0  0  0
  9 10  1  0  0  0  0
  9 11  1  0  0  0  0
  9 22  1  0  0  0  0
 11 12  1  0  0  0  0
 11 13  1  0  0  0  0
 11 14  1  0  0  0  0
 14 15  1  0  0  0  0
 14 16  1  0  0  0  0
 14 17  1  0  0  0  0
 17 18  1  0  0  0  0
 18 19  1  0  0  0  0
 18 20  1  0  0  0  0
 18 21  1  0  0  0  0
 22 23  2  0  0  0  0
 22 24  1  0  0  0  0
 24 25  1  0  0  0  0
 24 26  1  0  0  0  0
 26 27  1  0  0  0  0
 26 28  1  0  0  0  0
 26 29  1  0  0  0  0
M  END
$$$$

  -OEChem-02102214153D

 29 28  0     1  0  0  0  0  0999 V2000
   -2.9023   -3.5912    1.6853 H   0  0  0  0  0  0  0  0  0  0  0  0
   -3.0350   -2.5683    1.3220 C   0  0  0  0  0  0  0  0  0  0  0  0
   -3.5196   -1.9776    2.1032 H   0  0  0  0  0  0  0  0  0  0  0  0
   -3.6773   -2.5885    0.4384 H   0  0  0  0  0  0  0  0  0  0  0  0
   -1.6904   -1.9601    0.9706 C   0  0  0  0  0  0  0  0  0  0  0  0
   -0.6718   -2.6251    1.0769 O   0  0  0  0  0  0  0  0  0  0  0  0
   -1.6255   -0.6559    0.5270 N   0  0  0  0  0  0  0  0  0  0  0  0
   -2.4796   -0.1048    0.5999 H   0  0  0  0  0  0  0  0  0  0  0  0
   -0.3817    0.1124    0.3653 C   0  0  1  0  0  0  0  0  0  0  0  0
    0.3399   -0.3519    1.0458 H   0  0  0  0  0  0  0  0  0  0  0  0
    0.2339   -0.1105   -1.0424 C   0  0  0  0  0  0  0  0  0  0  0  0
    1.3137    0.0030   -0.9030 H   0  0  0  0  0  0  0  0  0  0  0  0
    0.0724   -1.1565   -1.3233 H   0  0  0  0  0  0  0  0  0  0  0  0
   -0.1098    0.7670   -2.2715 C   0  0  0  0  0  0  0  0  0  0  0  0
    0.8204    0.9616   -2.8150 H   0  0  0  0  0  0  0  0  0  0  0  0
   -0.7444    0.1733   -2.9370 H   0  0  0  0  0  0  0  0  0  0  0  0
   -0.9542    2.3780   -2.0190 S   0  0  0  0  0  0  0  0  0  0  0  0
   -2.7287    1.9060   -2.0246 C   0  0  0  0  0  0  0  0  0  0  0  0
   -2.9250    1.1505   -1.2597 H   0  0  0  0  0  0  0  0  0  0  0  0
   -3.3476    2.7831   -1.8137 H   0  0  0  0  0  0  0  0  0  0  0  0
   -3.0118    1.5024   -3.0009 H   0  0  0  0  0  0  0  0  0  0  0  0
   -0.5058    1.5434    0.9370 C   0  0  0  0  0  0  0  0  0  0  0  0
   -1.6195    2.0492    1.0483 O   0  0  0  0  0  0  0  0  0  0  0  0
    0.5137    2.0654    1.7139 N   0  0  0  0  0  0  0  0  0  0  0  0
    1.4067    1.5820    1.7058 H   0  0  0  0  0  0  0  0  0  0  0  0
    0.3871    3.3006    2.4783 C   0  0  0  0  0  0  0  0  0  0  0  0
   -0.3739    3.1919    3.2582 H   0  0  0  0  0  0  0  0  0  0  0  0
    1.3391    3.5497    2.9566 H   0  0  0  0  0  0  0  0  0  0  0  0
    0.1032    4.1303    1.8220 H   0  0  0  0  0  0  0  0  0  0  0  0
  1  2  1  0  0  0  0
  2  3  1  0  0  0  0
  2  4  1  0  0  0  0
  2  5  1  0  0  0  0
  5  6  2  0  0  0  0
  5  7  1  0  0  0  0
  7  8  1  0  0  0  0
  7  9  1  0  0  0  0
  9 10  1  0  0  0  0
  9 11  1  0  0  0  0
  9 22  1  0  0  0  0
 11 12  1  0  0  0  0
 11 13  1  0  0  0  0
 11 14  1  0  0  0  0
 14 15  1  0  0  0  0
 14 16  1  0  0  0  0
 14 17  1  0  0  0  0
 17 18  1  0  0  0  0
 18 19  1  0  0  0  0
 18 20  1  0  0  0  0
 18 21  1  0  0  0  0
 22 23  2  0  0  0  0
 22 24  1  0  0  0  0
 24 25  1  0  0  0  0
 24 26  1  0  0  0  0
 26 27  1  0  0  0  0
 26 28  1  0  0  0  0
 26 29  1  0  0  0  0
M  END
$$$$

  -OEChem-02102214153D

 29 28  0     1  0  0  0  0  0999 V2000
   -3.3087   -3.4024    1.2155 H   0  0  0  0  0  0  0  0  0  0  0  0
   -3.2356   -2.3677    0.7288 C   0  0  0  0  0  0  0  0  0  0  0  0
   -4.0161   -1.7697    1.1871 H   0  0  0  0  0  0  0  0  0  0  0  0
   -3.5009   -2.5632   -0.3386 H   0  0  0  0  0  0  0  0  0  0  0  0
   -1.8880   -1.5187    1.0364 C   0  0  0  0  0  0  0  0  0  0  0  0
   -1.1496   -2.4242    1.4303 O   0  0  0  0  0  0  0  0  0  0  0  0
   -0.9421   -0.6936    0.2683 N   0  0  0  0  0  0  0  0  0  0  0  0
   -1.7841   -0.3366   -0.1196 H   0  0  0  0  0  0  0  0  0  0  0  0
    0.0223    0.4992    0.9082 C   0  0  1  0  0  0  0  0  0  0  0  0
    0.4219   -0.4421    1.5135 H   0  0  0  0  0  0  0  0  0  0  0  0
    0.3187    0.1837   -0.6751 C   0  0  0  0  0  0  0  0  0  0  0  0
    1.3714   -0.0641   -0.8249 H   0  0  0  0  0  0  0  0  0  0  0  0
    0.2245   -0.8679   -1.1476 H   0  0  0  0  0  0  0  0  0  0  0  0
   -0.3897    0.9169   -2.0437 C   0  0  0  0  0  0  0  0  0  0  0  0
    0.4460    0.9781   -2.5676 H   0  0  0  0  0  0  0  0  0  0  0  0
   -1.0359    0.2693   -2.7268 H   0  0  0  0  0  0  0  0  0  0  0  0
   -0.9030    2.6592   -1.9579 S   0  0  0  0  0  0  0  0  0  0  0  0
   -2.9864    2.1551   -2.0910 C   0  0  0  0  0  0  0  0  0  0  0  0
   -3.2227    1.1082   -1.5298 H   0  0  0  0  0  0  0  0  0  0  0  0
   -3.7993    3.0676   -1.8534 H   0  0  0  0  0  0  0  0  0  0  0  0
   -3.5413    1.8161   -3.1003 H   0  0  0  0  0  0  0  0  0  0  0  0
    0.9453    1.6410    1.5207 C   0  0  0  0  0  0  0  0  0  0  0  0
    1.9184    1.8788    2.2573 O   0  0  0  0  0  0  0  0  0  0  0  0
    0.6043    1.7198    2.7385 N   0  0  0  0  0  0  0  0  0  0  0  0
    0.8849    0.7301    2.4490 H   0  0  0  0  0  0  0  0  0  0  0  0
    0.1846    3.2475    2.6129 C   0  0  0  0  0  0  0  0  0  0  0  0
   -0.7439    3.4297    2.5599 H   0  0  0  0  0  0  0  0  0  0  0  0
    0.7871    4.0578    3.1646 H   0  0  0  0  0  0  0  0  0  0  0  0
    0.4415    3.6287    1.6301 H   0  0  0  0  0  0  0  0  0  0  0  0
  1  2  1  0  0  0  0
  2  3  1  0  0  0  0
  2  4  1  0  0  0  0
  2  5  1  0  0  0  0
  5  6  2  0  0  0  0
  5  7  1  0  0  0  0
  7  8  1  0  0  0  0
  7  9  1  0  0  0  0
  9 10  1  0  0  0  0
  9 11  1  0  0  0  0
  9 22  1  0  0  0  0
 11 12  1  0  0  0  0
 11 13  1  0  0  0  0
 11 14  1  0  0  0  0
 14 15  1  0  0  0  0
 14 16  1  0  0  0  0
 14 17  1  0  0  0  0
 17 18  1  0  0  0  0
 18 19  1  0  0  0  0
 18 20  1  0  0  0  0
 18 21  1  0  0  0  0
 22 23  2  0  0  0  0
 22 24  1  0  0  0  0
 24 25  1  0  0  0  0
 24 26  1  0  0  0  0
 26 27  1  0  0  0  0
 26 28  1  0  0  0  0
 26 29  1  0  0  0  0
M  END
$$$$

  -OEChem-02102214153D

 29 28  0     1  0  0  0  0  0999 V2000
   -3.1707   -3.6954    1.2060 H   0  0  0  0  0  0  0  0  0  0  0  0
   -3.2168   -2.6377    0.9315 C   0  0  0  0  0  0  0  0  0  0  0  0
   -3.7201   -2.0886    1.7312 H   0  0  0  0  0  0  0  0  0  0  0  0
   -3.7945   -2.5368    0.0094 H   0  0  0  0  0  0  0  0  0  0  0  0
   -1.8172   -2.0898    0.7265 C   0  0  0  0  0  0  0  0  0  0  0  0
   -0.8524   -2.8344    0.8008 O   0  0  0  0  0  0  0  0  0  0  0  0
   -1.6401   -0.7500    0.4534 N   0  0  0  0  0  0  0  0  0  0  0  0
   -2.4592   -0.1489    0.5383 H   0  0  0  0  0  0  0  0  0  0  0  0
   -0.3388   -0.0645    0.4376 C   0  0  1  0  0  0  0  0  0  0  0  0
    0.3539   -0.6602    1.0415 H   0  0  0  0  0  0  0  0  0  0  0  0
    0.2321   -0.0943   -1.0071 C   0  0  0  0  0  0  0  0  0  0  0  0
    1.3210   -0.0976   -0.8969 H   0  0  0  0  0  0  0  0  0  0  0  0
   -0.0354   -1.0510   -1.4684 H   0  0  0  0  0  0  0  0  0  0  0  0
   -0.0756    1.0290   -2.0202 C   0  0  0  0  0  0  0  0  0  0  0  0
    0.5833    0.9103   -2.8862 H   0  0  0  0  0  0  0  0  0  0  0  0
   -1.1009    0.8806   -2.3729 H   0  0  0  0  0  0  0  0  0  0  0  0
    0.0668    2.7606   -1.4149 S   0  0  0  0  0  0  0  0  0  0  0  0
   -1.5931    3.4462   -1.7951 C   0  0  0  0  0  0  0  0  0  0  0  0
   -2.3663    2.8780   -1.2688 H   0  0  0  0  0  0  0  0  0  0  0  0
   -1.6492    4.4901   -1.4731 H   0  0  0  0  0  0  0  0  0  0  0  0
   -1.7879    3.3985   -2.8704 H   0  0  0  0  0  0  0  0  0  0  0  0
   -0.4468    1.2795    1.1913 C   0  0  0  0  0  0  0  0  0  0  0  0
   -1.5285    1.8623    1.2312 O   0  0  0  0  0  0  0  0  0  0  0  0
    0.5356    1.6542    2.0900 N   0  0  0  0  0  0  0  0  0  0  0  0
    1.4116    1.1408    2.0667 H   0  0  0  0  0  0  0  0  0  0  0  0
    0.4413    2.8485    2.9205 C   0  0  0  0  0  0  0  0  0  0  0  0
   -0.4200    2.7808    3.5934 H   0  0  0  0  0  0  0  0  0  0  0  0
    1.3450    2.9598    3.5273 H   0  0  0  0  0  0  0  0  0  0  0  0
    0.3314    3.7409    2.2952 H   0  0  0  0  0  0  0  0  0  0  0  0
  1  2  1  0  0  0  0
  2  3  1  0  0  0  0
  2  4  1  0  0  0  0
  2  5  1  0  0  0  0
  5  6  2  0  0  0  0
  5  7  1  0  0  0  0
  7  8  1  0  0  0  0
  7  9  1  0  0  0  0
  9 10  1  0  0  0  0
  9 11  1  0  0  0  0
  9 22  1  0  0  0  0
 11 12  1  0  0  0  0
 11 13  1  0  0  0  0
 11 14  1  0  0  0  0
 14 15  1  0  0  0  0
 14 16  1  0  0  0  0
 14 17  1  0  0  0  0
 17 18  1  0  0  0  0
 18 19  1  0  0  0  0
 18 20  1  0  0  0  0
 18 21  1  0  0  0  0
 22 23  2  0  0  0  0
 22 24  1  0  0  0  0
 24 25  1  0  0  0  0
 24 26  1  0  0  0  0
 26 27  1  0  0  0  0
 26 28  1  0  0  0  0
 26 29  1  0  0  0  0
M  END
$$$$

  -OEChem-02102214153D

 29 28  0     1  0  0  0  0  0999 V2000
   -3.3956   -3.6218    1.1746 H   0  0  0  0  0  0  0  0  0  0  0  0
   -3.6364   -2.5594    0.5248 C   0  0  0  0  0  0  0  0  0  0  0  0
   -4.3235   -1.8826    1.0683 H   0  0  0  0  0  0  0  0  0  0  0  0
   -3.8716   -2.7758   -0.5460 H   0  0  0  0  0  0  0  0  0  0  0  0
   -2.3020   -1.9794   -0.3014 C   0  0  0  0  0  0  0  0  0  0  0  0
   -2.4146   -1.9129    0.9571 O   0  0  0  0  0  0  0  0  0  0  0  0
   -1.2752   -1.4738    0.4131 N   0  0  0  0  0  0  0  0  0  0  0  0
   -1.9514   -0.6219    0.0868 H   0  0  0  0  0  0  0  0  0  0  0  0
   -0.4304   -0.6886    0.9146 C   0  0  1  0  0  0  0  0  0  0  0  0
   -0.2307   -1.7612    0.9389 H   0  0  0  0  0  0  0  0  0  0  0  0
    0.2543   -0.2538   -0.7219 C   0  0  0  0  0  0  0  0  0  0  0  0
    1.3145   -0.1913   -0.7367 H   0  0  0  0  0  0  0  0  0  0  0  0
    0.0765   -1.0908   -1.3294 H   0  0  0  0  0  0  0  0  0  0  0  0
   -0.1216    1.0833   -1.8053 C   0  0  0  0  0  0  0  0  0  0  0  0
    0.5274    0.6918   -2.9504 H   0  0  0  0  0  0  0  0  0  0  0  0
   -1.0723    0.8796   -2.2524 H   0  0  0  0  0  0  0  0  0  0  0  0
    0.2383    3.1051   -1.4220 S   0  0  0  0  0  0  0  0  0  0  0  0
   -0.7841    4.5783   -0.7307 C   0  0  0  0  0  0  0  0  0  0  0  0
   -0.8104    5.6172   -0.6359 H   0  0  0  0  0  0  0  0  0  0  0  0
   -0.8114    4.2616    0.2175 H   0  0  0  0  0  0  0  0  0  0  0  0
   -1.6229    4.1243   -0.9565 H   0  0  0  0  0  0  0  0  0  0  0  0
    0.6183    0.2863    1.5371 C   0  0  0  0  0  0  0  0  0  0  0  0
   -0.3665    0.4563    2.1296 O   0  0  0  0  0  0  0  0  0  0  0  0
    0.9811    1.6008    1.5019 N   0  0  0  0  0  0  0  0  0  0  0  0
    1.3505    1.3310    2.3877 H   0  0  0  0  0  0  0  0  0  0  0  0
    0.4289    3.0110    1.9315 C   0  0  0  0  0  0  0  0  0  0  0  0
   -0.5369    3.2674    2.2969 H   0  0  0  0  0  0  0  0  0  0  0  0
    1.0087    3.3623    2.7411 H   0  0  0  0  0  0  0  0  0  0  0  0
    0.6705    3.8187    1.3586 H   0  0  0  0  0  0  0  0  0  0  0  0
  1  2  1  0  0  0  0
  2  3  1  0  0  0  0
  2  4  1  0  0  0  0
  2  5  1  0  0  0  0
  5  6  2  0  0  0  0
  5  7  1  0  0  0  0
  7  8  1  0  0  0  0
  7  9  1  0  0  0  0
  9 10  1  0  0  0  0
  9 11  1  0  0  0  0
  9 22  1  0  0  0  0
 11 12  1  0  0  0  0
 11 13  1  0  0  0  0
 11 14  1  0  0  0  0
 14 15  1  0  0  0  0
 14 16  1  0  0  0  0
 14 17  1  0  0  0  0
 17 18  1  0  0  0  0
 18 19  1  0  0  0  0
 18 20  1  0  0  0  0
 18 21  1  0  0  0  0
 22 23  2  0  0  0  0
 22 24  1  0  0  0  0
 24 25  1  0  0  0  0
 24 26  1  0  0  0  0
 26 27  1  0  0  0  0
 26 28  1  0  0  0  0
 26 29  1  0  0  0  0
M  END
$$$$

  -OEChem-02102214153D

 29 28  0     1  0  0  0  0  0999 V2000
   -3.4243   -3.7007    0.4466 H   0  0  0  0  0  0  0  0  0  0  0  0
   -3.3750   -2.6252    0.2548 C   0  0  0  0  0  0  0  0  0  0  0  0
   -4.0496   -2.1126    0.9449 H   0  0  0  0  0  0  0  0  0  0  0  0
   -3.7002   -2.4351   -0.7709 H   0  0  0  0  0  0  0  0  0  0  0  0
   -1.9568   -2.1237    0.4501 C   0  0  0  0  0  0  0  0  0  0  0  0
   -1.0802   -2.8931    0.8096 O   0  0  0  0  0  0  0  0  0  0  0  0
   -1.6644   -0.7957    0.2227 N   0  0  0  0  0  0  0  0  0  0  0  0
   -2.4513   -0.1708    0.0517 H   0  0  0  0  0  0  0  0  0  0  0  0
   -0.3858   -0.1515    0.5600 C   0  0  1  0  0  0  0  0  0  0  0  0
    0.1278   -0.7662    1.3065 H   0  0  0  0  0  0  0  0  0  0  0  0
    0.5121   -0.1251   -0.7019 C   0  0  0  0  0  0  0  0  0  0  0  0
    1.5570   -0.1931   -0.3826 H   0  0  0  0  0  0  0  0  0  0  0  0
    0.3060   -1.0197   -1.2989 H   0  0  0  0  0  0  0  0  0  0  0  0
    0.3788    1.1115   -1.6026 C   0  0  0  0  0  0  0  0  0  0  0  0
    0.8318    0.9039   -2.5771 H   0  0  0  0  0  0  0  0  0  0  0  0
   -0.6824    1.3253   -1.7681 H   0  0  0  0  0  0  0  0  0  0  0  0
    1.2091    2.5829   -0.8697 S   0  0  0  0  0  0  0  0  0  0  0  0
    0.3256    3.9482   -1.7189 C   0  0  0  0  0  0  0  0  0  0  0  0
    0.4483    3.8657   -2.8027 H   0  0  0  0  0  0  0  0  0  0  0  0
    0.7236    4.9133   -1.3921 H   0  0  0  0  0  0  0  0  0  0  0  0
   -0.7418    3.9113   -1.4797 H   0  0  0  0  0  0  0  0  0  0  0  0
   -0.6549    1.2093    1.2405 C   0  0  0  0  0  0  0  0  0  0  0  0
   -1.6263    1.8768    0.8931 O   0  0  0  0  0  0  0  0  0  0  0  0
    0.0454    1.5805    2.3737 N   0  0  0  0  0  0  0  0  0  0  0  0
    0.8603    1.0262    2.6195 H   0  0  0  0  0  0  0  0  0  0  0  0
   -0.1814    2.8416    3.0686 C   0  0  0  0  0  0  0  0  0  0  0  0
   -1.2124    2.8993    3.4333 H   0  0  0  0  0  0  0  0  0  0  0  0
    0.4924    2.9272    3.9265 H   0  0  0  0  0  0  0  0  0  0  0  0
    0.0030    3.6864    2.3965 H   0  0  0  0  0  0  0  0  0  0  0  0
  1  2  1  0  0  0  0
  2  3  1  0  0  0  0
  2  4  1  0  0  0  0
  2  5  1  0  0  0  0
  5  6  2  0  0  0  0
  5  7  1  0  0  0  0
  7  8  1  0  0  0  0
  7  9  1  0  0  0  0
  9 10  1  0  0  0  0
  9 11  1  0  0  0  0
  9 22  1  0  0  0  0
 11 12  1  0  0  0  0
 11 13  1  0  0  0  0
 11 14  1  0  0  0  0
 14 15  1  0  0  0  0
 14 16  1  0  0  0  0
 14 17  1  0  0  0  0
 17 18  1  0  0  0  0
 18 19  1  0  0  0  0
 18 20  1  0  0  0  0
 18 21  1  0  0  0  0
 22 23  2  0  0  0  0
 22 24  1  0  0  0  0
 24 25  1  0  0  0  0
 24 26  1  0  0  0  0
 26 27  1  0  0  0  0
 26 28  1  0  0  0  0
 26 29  1  0  0  0  0
M  END
$$$$

  -OEChem-02102214153D

 29 28  0     1  0  0  0  0  0999 V2000
   -3.5496   -3.5488    0.9839 H   0  0  0  0  0  0  0  0  0  0  0  0
   -3.4840   -2.4874    0.7290 C   0  0  0  0  0  0  0  0  0  0  0  0
   -4.0540   -1.9131    1.4631 H   0  0  0  0  0  0  0  0  0  0  0  0
   -3.9202   -2.3358   -0.2612 H   0  0  0  0  0  0  0  0  0  0  0  0
   -2.0351   -2.0379    0.7317 C   0  0  0  0  0  0  0  0  0  0  0  0
   -1.1509   -2.8307    1.0141 O   0  0  0  0  0  0  0  0  0  0  0  0
   -1.7223   -0.7321    0.4168 N   0  0  0  0  0  0  0  0  0  0  0  0
   -2.5001   -0.0822    0.3111 H   0  0  0  0  0  0  0  0  0  0  0  0
   -0.3856   -0.1349    0.5612 C   0  0  1  0  0  0  0  0  0  0  0  0
    0.1887   -0.7535    1.2587 H   0  0  0  0  0  0  0  0  0  0  0  0
    0.3604   -0.1793   -0.7912 C   0  0  0  0  0  0  0  0  0  0  0  0
    1.4333   -0.2920   -0.6046 H   0  0  0  0  0  0  0  0  0  0  0  0
    0.0404   -1.0731   -1.3372 H   0  0  0  0  0  0  0  0  0  0  0  0
    0.1439    1.0516   -1.6815 C   0  0  0  0  0  0  0  0  0  0  0  0
    0.2397    0.7582   -2.7315 H   0  0  0  0  0  0  0  0  0  0  0  0
   -0.8640    1.4568   -1.5461 H   0  0  0  0  0  0  0  0  0  0  0  0
    1.4199    2.3254   -1.3166 S   0  0  0  0  0  0  0  0  0  0  0  0
    0.7180    3.7828   -2.1826 C   0  0  0  0  0  0  0  0  0  0  0  0
   -0.2650    4.0293   -1.7697 H   0  0  0  0  0  0  0  0  0  0  0  0
    1.3769    4.6471   -2.0577 H   0  0  0  0  0  0  0  0  0  0  0  0
    0.6102    3.5747   -3.2511 H   0  0  0  0  0  0  0  0  0  0  0  0
   -0.4667    1.2629    1.2151 C   0  0  0  0  0  0  0  0  0  0  0  0
   -1.4269    1.9898    0.9757 O   0  0  0  0  0  0  0  0  0  0  0  0
    0.4112    1.6191    2.2219 N   0  0  0  0  0  0  0  0  0  0  0  0
    1.2049    1.0071    2.3872 H   0  0  0  0  0  0  0  0  0  0  0  0
    0.3674    2.9107    2.8956 C   0  0  0  0  0  0  0  0  0  0  0  0
   -0.5822    3.0338    3.4269 H   0  0  0  0  0  0  0  0  0  0  0  0
    1.1819    2.9859    3.6224 H   0  0  0  0  0  0  0  0  0  0  0  0
    0.4745    3.7245    2.1705 H   0  0  0  0  0  0  0  0  0  0  0  0
  1  2  1  0  0  0  0
  2  3  1  0  0  0  0
  2  4  1  0  0  0  0
  2  5  1  0  0  0  0
  5  6  2  0  0  0  0
  5  7  1  0  0  0  0
  7  8  1  0  0  0  0
  7  9  1  0  0  0  0
  9 10  1  0  0  0  0
  9 11  1  0  0  0  0
  9 22  1  0  0  0  0
 11 12  1  0  0  0  0
 11 13  1  0  0  0  0
 11 14  1  0  0  0  0
 14 15  1  0  0  0  0
 14 16  1  0  0  0  0
 14 17  1  0  0  0  0
 17 18  1  0  0  0  0
 18 19  1  0  0  0  0
 18 20  1  0  0  0  0
 18 21  1  0  0  0  0
 22 23  2  0  0  0  0
 22 24  1  0  0  0  0
 24 25  1  0  0  0  0
 24 26  1  0  0  0  0
 26 27  1  0  0  0  0
 26 28  1  0  0  0  0
 26 29  1  0  0  0  0
M  END
$$$$

  -OEChem-02102214153D

 29 28  0     1  0  0  0  0  0999 V2000
   -3.5776   -3.4954    0.8704 H   0  0  0  0  0  0  0  0  0  0  0  0
   -3.4880   -2.4446    0.5804 C   0  0  0  0  0  0  0  0  0  0  0  0
   -4.1166   -1.8422    1.2407 H   0  0  0  0  0  0  0  0  0  0  0  0
   -3.8389   -2.3322   -0.4483 H   0  0  0  0  0  0  0  0  0  0  0  0
   -2.0433   -1.9944    0.6863 C   0  0  0  0  0  0  0  0  0  0  0  0
   -1.1800   -2.7881    1.0247 O   0  0  0  0  0  0  0  0  0  0  0  0
   -1.7106   -0.6882    0.3937 N   0  0  0  0  0  0  0  0  0  0  0  0
   -2.4790   -0.0400    0.2291 H   0  0  0  0  0  0  0  0  0  0  0  0
   -0.3818   -0.0929    0.6008 C   0  0  1  0  0  0  0  0  0  0  0  0
    0.1496   -0.7176    1.3264 H   0  0  0  0  0  0  0  0  0  0  0  0
    0.4386   -0.1526   -0.7053 C   0  0  0  0  0  0  0  0  0  0  0  0
    1.4973   -0.2660   -0.4505 H   0  0  0  0  0  0  0  0  0  0  0  0
    0.1534   -1.0541   -1.2575 H   0  0  0  0  0  0  0  0  0  0  0  0
    0.2770    1.0678   -1.6263 C   0  0  0  0  0  0  0  0  0  0  0  0
    0.1770    0.7191   -2.6590 H   0  0  0  0  0  0  0  0  0  0  0  0
   -0.6284    1.6361   -1.3955 H   0  0  0  0  0  0  0  0  0  0  0  0
    1.7688    2.1361   -1.5241 S   0  0  0  0  0  0  0  0  0  0  0  0
    1.2544    3.5541   -2.5696 C   0  0  0  0  0  0  0  0  0  0  0  0
    0.3591    4.0259   -2.1532 H   0  0  0  0  0  0  0  0  0  0  0  0
    2.0548    4.2987   -2.6130 H   0  0  0  0  0  0  0  0  0  0  0  0
    1.0343    3.2160   -3.5864 H   0  0  0  0  0  0  0  0  0  0  0  0
   -0.4617    1.3042    1.2563 C   0  0  0  0  0  0  0  0  0  0  0  0
   -1.3962    2.0518    0.9843 O   0  0  0  0  0  0  0  0  0  0  0  0
    0.3857    1.6395    2.2961 N   0  0  0  0  0  0  0  0  0  0  0  0
    1.1507    1.0029    2.5007 H   0  0  0  0  0  0  0  0  0  0  0  0
    0.3317    2.9207    2.9891 C   0  0  0  0  0  0  0  0  0  0  0  0
   -0.6534    3.0713    3.4433 H   0  0  0  0  0  0  0  0  0  0  0  0
    1.0848    2.9540    3.7823 H   0  0  0  0  0  0  0  0  0  0  0  0
    0.5276    3.7410    2.2906 H   0  0  0  0  0  0  0  0  0  0  0  0
  1  2  1  0  0  0  0
  2  3  1  0  0  0  0
  2  4  1  0  0  0  0
  2  5  1  0  0  0  0
  5  6  2  0  0  0  0
  5  7  1  0  0  0  0
  7  8  1  0  0  0  0
  7  9  1  0  0  0  0
  9 10  1  0  0  0  0
  9 11  1  0  0  0  0
  9 22  1  0  0  0  0
 11 12  1  0  0  0  0
 11 13  1  0  0  0  0
 11 14  1  0  0  0  0
 14 15  1  0  0  0  0
 14 16  1  0  0  0  0
 14 17  1  0  0  0  0
 17 18  1  0  0  0  0
 18 19  1  0  0  0  0
 18 20  1  0  0  0  0
 18 21  1  0  0  0  0
 22 23  2  0  0  0  0
 22 24  1  0  0  0  0
 24 25  1  0  0  0  0
 24 26  1  0  0  0  0
 26 27  1  0  0  0  0
 26 28  1  0  0  0  0
 26 29  1  0  0  0  0
M  END
$$$$

  -OEChem-02102214153D

 29 28  0     1  0  0  0  0  0999 V2000
   -3.3476   -3.4524    1.2560 H   0  0  0  0  0  0  0  0  0  0  0  0
   -3.3343   -2.4669    0.7822 C   0  0  0  0  0  0  0  0  0  0  0  0
   -3.9908   -1.7976    1.3434 H   0  0  0  0  0  0  0  0  0  0  0  0
   -3.7082   -2.5617   -0.2401 H   0  0  0  0  0  0  0  0  0  0  0  0
   -1.9219   -1.9144    0.7666 C   0  0  0  0  0  0  0  0  0  0  0  0
   -1.0002   -2.5816    1.2083 O   0  0  0  0  0  0  0  0  0  0  0  0
   -1.6849   -0.6539    0.2590 N   0  0  0  0  0  0  0  0  0  0  0  0
   -2.4967   -0.0971   -0.0036 H   0  0  0  0  0  0  0  0  0  0  0  0
   -0.3893    0.0403    0.3021 C   0  0  1  0  0  0  0  0  0  0  0  0
    0.2103   -0.4294    1.0889 H   0  0  0  0  0  0  0  0  0  0  0  0
    0.3686   -0.2084   -1.0230 C   0  0  0  0  0  0  0  0  0  0  0  0
    1.4393   -0.2067   -0.7961 H   0  0  0  0  0  0  0  0  0  0  0  0
    0.1343   -1.2144   -1.3871 H   0  0  0  0  0  0  0  0  0  0  0  0
    0.1140    0.8042   -2.1574 C   0  0  0  0  0  0  0  0  0  0  0  0
   -0.2825    0.2610   -3.0209 H   0  0  0  0  0  0  0  0  0  0  0  0
   -0.6382    1.5495   -1.8896 H   0  0  0  0  0  0  0  0  0  0  0  0
    1.6665    1.6467   -2.6725 S   0  0  0  0  0  0  0  0  0  0  0  0
    1.9777    2.8236   -1.2988 C   0  0  0  0  0  0  0  0  0  0  0  0
    2.2261    2.2811   -0.3830 H   0  0  0  0  0  0  0  0  0  0  0  0
    2.8154    3.4800   -1.5522 H   0  0  0  0  0  0  0  0  0  0  0  0
    1.0919    3.4405   -1.1181 H   0  0  0  0  0  0  0  0  0  0  0  0
   -0.5298    1.5150    0.7373 C   0  0  0  0  0  0  0  0  0  0  0  0
   -1.4997    2.1730    0.3778 O   0  0  0  0  0  0  0  0  0  0  0  0
    0.3385    2.0552    1.6686 N   0  0  0  0  0  0  0  0  0  0  0  0
    1.0660    1.4494    2.0383 H   0  0  0  0  0  0  0  0  0  0  0  0
    0.1761    3.3882    2.2367 C   0  0  0  0  0  0  0  0  0  0  0  0
   -0.7754    3.4632    2.7738 H   0  0  0  0  0  0  0  0  0  0  0  0
    0.9877    3.6011    2.9391 H   0  0  0  0  0  0  0  0  0  0  0  0
    0.1954    4.1469    1.4471 H   0  0  0  0  0  0  0  0  0  0  0  0
  1  2  1  0  0  0  0
  2  3  1  0  0  0  0
  2  4  1  0  0  0  0
  2  5  1  0  0  0  0
  5  6  2  0  0  0  0
  5  7  1  0  0  0  0
  7  8  1  0  0  0  0
  7  9  1  0  0  0  0
  9 10  1  0  0  0  0
  9 11  1  0  0  0  0
  9 22  1  0  0  0  0
 11 12  1  0  0  0  0
 11 13  1  0  0  0  0
 11 14  1  0  0  0  0
 14 15  1  0  0  0  0
 14 16  1  0  0  0  0
 14 17  1  0  0  0  0
 17 18  1  0  0  0  0
 18 19  1  0  0  0  0
 18 20  1  0  0  0  0
 18 21  1  0  0  0  0
 22 23  2  0  0  0  0
 22 24  1  0  0  0  0
 24 25  1  0  0  0  0
 24 26  1  0  0  0  0
 26 27  1  0  0  0  0
 26 28  1  0  0  0  0
 26 29  1  0  0  0  0
M  END
$$$$

  -OEChem-02102214153D

 29 28  0     1  0  0  0  0  0999 V2000
   -3.3549   -3.4584    1.2447 H   0  0  0  0  0  0  0  0  0  0  0  0
   -3.3424   -2.4657    0.7860 C   0  0  0  0  0  0  0  0  0  0  0  0
   -3.9944   -1.8040    1.3614 H   0  0  0  0  0  0  0  0  0  0  0  0
   -3.7237   -2.5449   -0.2349 H   0  0  0  0  0  0  0  0  0  0  0  0
   -1.9290   -1.9149    0.7690 C   0  0  0  0  0  0  0  0  0  0  0  0
   -1.0081   -2.5814    1.2135 O   0  0  0  0  0  0  0  0  0  0  0  0
   -1.6902   -0.6559    0.2580 N   0  0  0  0  0  0  0  0  0  0  0  0
   -2.5008   -0.0998   -0.0093 H   0  0  0  0  0  0  0  0  0  0  0  0
   -0.3932    0.0360    0.2947 C   0  0  1  0  0  0  0  0  0  0  0  0
    0.2028   -0.4335    1.0842 H   0  0  0  0  0  0  0  0  0  0  0  0
    0.3722   -0.2155   -1.0243 C   0  0  0  0  0  0  0  0  0  0  0  0
    1.4382   -0.1927   -0.7786 H   0  0  0  0  0  0  0  0  0  0  0  0
    0.1621   -1.2272   -1.3871 H   0  0  0  0  0  0  0  0  0  0  0  0
    0.1238    0.7924   -2.1651 C   0  0  0  0  0  0  0  0  0  0  0  0
   -0.5229    0.3239   -2.9136 H   0  0  0  0  0  0  0  0  0  0  0  0
   -0.3871    1.6965   -1.8291 H   0  0  0  0  0  0  0  0  0  0  0  0
    1.7118    1.2815   -2.9510 S   0  0  0  0  0  0  0  0  0  0  0  0
    2.3531    2.5111   -1.7455 C   0  0  0  0  0  0  0  0  0  0  0  0
    2.5115    2.0443   -0.7694 H   0  0  0  0  0  0  0  0  0  0  0  0
    3.3057    2.9185   -2.0968 H   0  0  0  0  0  0  0  0  0  0  0  0
    1.6416    3.3344   -1.6298 H   0  0  0  0  0  0  0  0  0  0  0  0
   -0.5199    1.5128    0.7259 C   0  0  0  0  0  0  0  0  0  0  0  0
   -1.4872    2.1753    0.3674 O   0  0  0  0  0  0  0  0  0  0  0  0
    0.3576    2.0495    1.6501 N   0  0  0  0  0  0  0  0  0  0  0  0
    1.0831    1.4405    2.0183 H   0  0  0  0  0  0  0  0  0  0  0  0
    0.2121    3.3891    2.2070 C   0  0  0  0  0  0  0  0  0  0  0  0
   -0.7328    3.4765    2.7536 H   0  0  0  0  0  0  0  0  0  0  0  0
    1.0328    3.6034    2.8983 H   0  0  0  0  0  0  0  0  0  0  0  0
    0.2288    4.1392    1.4093 H   0  0  0  0  0  0  0  0  0  0  0  0
  1  2  1  0  0  0  0
  2  3  1  0  0  0  0
  2  4  1  0  0  0  0
  2  5  1  0  0  0  0
  5  6  2  0  0  0  0
  5  7  1  0  0  0  0
  7  8  1  0  0  0  0
  7  9  1  0  0  0  0
  9 10  1  0  0  0  0
  9 11  1  0  0  0  0
  9 22  1  0  0  0  0
 11 12  1  0  0  0  0
 11 13  1  0  0  0  0
 11 14  1  0  0  0  0
 14 15  1  0  0  0  0
 14 16  1  0  0  0  0
 14 17  1  0  0  0  0
 17 18  1  0  0  0  0
 18 19  1  0  0  0  0
 18 20  1  0  0  0  0
 18 21  1  0  0  0  0
 22 23  2  0  0  0  0
 22 24  1  0  0  0  0
 24 25  1  0  0  0  0
 24 26  1  0  0  0  0
 26 27  1  0  0  0  0
 26 28  1  0  0  0  0
 26 29  1  0  0  0  0
M  END
$$$$

  -OEChem-02102214153D

 29 28  0     1  0  0  0  0  0999 V2000
   -3.3592   -3.4520    1.2537 H   0  0  0  0  0  0  0  0  0  0  0  0
   -3.3422   -2.4623    0.7888 C   0  0  0  0  0  0  0  0  0  0  0  0
   -3.9981   -1.7964    1.3547 H   0  0  0  0  0  0  0  0  0  0  0  0
   -3.7151   -2.5472   -0.2347 H   0  0  0  0  0  0  0  0  0  0  0  0
   -1.9281   -1.9133    0.7797 C   0  0  0  0  0  0  0  0  0  0  0  0
   -1.0111   -2.5790    1.2334 O   0  0  0  0  0  0  0  0  0  0  0  0
   -1.6852   -0.6565    0.2656 N   0  0  0  0  0  0  0  0  0  0  0  0
   -2.4933   -0.1012   -0.0107 H   0  0  0  0  0  0  0  0  0  0  0  0
   -0.3862    0.0312    0.3012 C   0  0  1  0  0  0  0  0  0  0  0  0
    0.2174   -0.4394    1.0844 H   0  0  0  0  0  0  0  0  0  0  0  0
    0.3576   -0.2159   -1.0315 C   0  0  0  0  0  0  0  0  0  0  0  0
    1.4261   -0.1902   -0.7991 H   0  0  0  0  0  0  0  0  0  0  0  0
    0.1433   -1.2246   -1.4003 H   0  0  0  0  0  0  0  0  0  0  0  0
    0.0988    0.8025   -2.1585 C   0  0  0  0  0  0  0  0  0  0  0  0
   -0.7665    0.4782   -2.7454 H   0  0  0  0  0  0  0  0  0  0  0  0
   -0.1232    1.8010   -1.7764 H   0  0  0  0  0  0  0  0  0  0  0  0
    1.5802    0.9384   -3.2389 S   0  0  0  0  0  0  0  0  0  0  0  0
    2.6568    2.0772   -2.2799 C   0  0  0  0  0  0  0  0  0  0  0  0
    2.9112    1.6403   -1.3103 H   0  0  0  0  0  0  0  0  0  0  0  0
    3.5829    2.2682   -2.8304 H   0  0  0  0  0  0  0  0  0  0  0  0
    2.1459    3.0302   -2.1136 H   0  0  0  0  0  0  0  0  0  0  0  0
   -0.5227    1.5073    0.7299 C   0  0  0  0  0  0  0  0  0  0  0  0
   -1.4826    2.1676    0.3481 O   0  0  0  0  0  0  0  0  0  0  0  0
    0.3468    2.0538    1.6559 N   0  0  0  0  0  0  0  0  0  0  0  0
    1.0699    1.4496    2.0366 H   0  0  0  0  0  0  0  0  0  0  0  0
    0.1934    3.3983    2.1988 C   0  0  0  0  0  0  0  0  0  0  0  0
   -0.7601    3.4912    2.7294 H   0  0  0  0  0  0  0  0  0  0  0  0
    1.0031    3.6175    2.9016 H   0  0  0  0  0  0  0  0  0  0  0  0
    0.2234    4.1418    1.3953 H   0  0  0  0  0  0  0  0  0  0  0  0
  1  2  1  0  0  0  0
  2  3  1  0  0  0  0
  2  4  1  0  0  0  0
  2  5  1  0  0  0  0
  5  6  2  0  0  0  0
  5  7  1  0  0  0  0
  7  8  1  0  0  0  0
  7  9  1  0  0  0  0
  9 10  1  0  0  0  0
  9 11  1  0  0  0  0
  9 22  1  0  0  0  0
 11 12  1  0  0  0  0
 11 13  1  0  0  0  0
 11 14  1  0  0  0  0
 14 15  1  0  0  0  0
 14 16  1  0  0  0  0
 14 17  1  0  0  0  0
 17 18  1  0  0  0  0
 18 19  1  0  0  0  0
 18 20  1  0  0  0  0
 18 21  1  0  0  0  0
 22 23  2  0  0  0  0
 22 24  1  0  0  0  0
 24 25  1  0  0  0  0
 24 26  1  0  0  0  0
 26 27  1  0  0  0  0
 26 28  1  0  0  0  0
 26 29  1  0  0  0  0
M  END
$$$$

  -OEChem-02102214153D

 29 28  0     1  0  0  0  0  0999 V2000
   -3.3556   -3.4478    1.2611 H   0  0  0  0  0  0  0  0  0  0  0  0
   -3.3371   -2.4582    0.7958 C   0  0  0  0  0  0  0  0  0  0  0  0
   -3.9935   -1.7913    1.3601 H   0  0  0  0  0  0  0  0  0  0  0  0
   -3.7084   -2.5436   -0.2284 H   0  0  0  0  0  0  0  0  0  0  0  0
   -1.9228   -1.9099    0.7895 C   0  0  0  0  0  0  0  0  0  0  0  0
   -1.0084   -2.5717    1.2543 O   0  0  0  0  0  0  0  0  0  0  0  0
   -1.6764   -0.6570    0.2681 N   0  0  0  0  0  0  0  0  0  0  0  0
   -2.4814   -0.1052   -0.0242 H   0  0  0  0  0  0  0  0  0  0  0  0
   -0.3758    0.0280    0.3022 C   0  0  1  0  0  0  0  0  0  0  0  0
    0.2350   -0.4410    1.0808 H   0  0  0  0  0  0  0  0  0  0  0  0
    0.3513   -0.2116   -1.0406 C   0  0  0  0  0  0  0  0  0  0  0  0
    1.4246   -0.1941   -0.8309 H   0  0  0  0  0  0  0  0  0  0  0  0
    0.1195   -1.2127   -1.4190 H   0  0  0  0  0  0  0  0  0  0  0  0
    0.0713    0.8262   -2.1403 C   0  0  0  0  0  0  0  0  0  0  0  0
   -0.9359    0.6701   -2.5399 H   0  0  0  0  0  0  0  0  0  0  0  0
    0.1227    1.8487   -1.7566 H   0  0  0  0  0  0  0  0  0  0  0  0
    1.3154    0.6663   -3.4844 S   0  0  0  0  0  0  0  0  0  0  0  0
    2.7654    1.5673   -2.8059 C   0  0  0  0  0  0  0  0  0  0  0  0
    3.1305    1.0801   -1.8976 H   0  0  0  0  0  0  0  0  0  0  0  0
    3.5741    1.5806   -3.5427 H   0  0  0  0  0  0  0  0  0  0  0  0
    2.4923    2.5996   -2.5681 H   0  0  0  0  0  0  0  0  0  0  0  0
   -0.5207    1.5056    0.7224 C   0  0  0  0  0  0  0  0  0  0  0  0
   -1.4695    2.1663    0.3143 O   0  0  0  0  0  0  0  0  0  0  0  0
    0.3417    2.0614    1.6491 N   0  0  0  0  0  0  0  0  0  0  0  0
    1.0574    1.4590    2.0463 H   0  0  0  0  0  0  0  0  0  0  0  0
    0.1817    3.4099    2.1801 C   0  0  0  0  0  0  0  0  0  0  0  0
   -0.7731    3.5029    2.7083 H   0  0  0  0  0  0  0  0  0  0  0  0
    0.9892    3.6389    2.8821 H   0  0  0  0  0  0  0  0  0  0  0  0
    0.2097    4.1467    1.3704 H   0  0  0  0  0  0  0  0  0  0  0  0
  1  2  1  0  0  0  0
  2  3  1  0  0  0  0
  2  4  1  0  0  0  0
  2  5  1  0  0  0  0
  5  6  2  0  0  0  0
  5  7  1  0  0  0  0
  7  8  1  0  0  0  0
  7  9  1  0  0  0  0
  9 10  1  0  0  0  0
  9 11  1  0  0  0  0
  9 22  1  0  0  0  0
 11 12  1  0  0  0  0
 11 13  1  0  0  0  0
 11 14  1  0  0  0  0
 14 15  1  0  0  0  0
 14 16  1  0  0  0  0
 14 17  1  0  0  0  0
 17 18  1  0  0  0  0
 18 19  1  0  0  0  0
 18 20  1  0  0  0  0
 18 21  1  0  0  0  0
 22 23  2  0  0  0  0
 22 24  1  0  0  0  0
 24 25  1  0  0  0  0
 24 26  1  0  0  0  0
 26 27  1  0  0  0  0
 26 28  1  0  0  0  0
 26 29  1  0  0  0  0
M  END
$$$$

  -OEChem-02102214153D

 29 28  0     1  0  0  0  0  0999 V2000
   -3.3101   -3.4586    1.2513 H   0  0  0  0  0  0  0  0  0  0  0  0
   -3.3012   -2.4690    0.7859 C   0  0  0  0  0  0  0  0  0  0  0  0
   -3.9690   -1.8103    1.3464 H   0  0  0  0  0  0  0  0  0  0  0  0
   -3.6655   -2.5592   -0.2404 H   0  0  0  0  0  0  0  0  0  0  0  0
   -1.8937   -1.9032    0.7873 C   0  0  0  0  0  0  0  0  0  0  0  0
   -0.9726   -2.5542    1.2543 O   0  0  0  0  0  0  0  0  0  0  0  0
   -1.6609   -0.6461    0.2701 N   0  0  0  0  0  0  0  0  0  0  0  0
   -2.4700   -0.1049   -0.0308 H   0  0  0  0  0  0  0  0  0  0  0  0
   -0.3651    0.0480    0.2954 C   0  0  1  0  0  0  0  0  0  0  0  0
    0.2608   -0.4179    1.0637 H   0  0  0  0  0  0  0  0  0  0  0  0
    0.3474   -0.1668   -1.0632 C   0  0  0  0  0  0  0  0  0  0  0  0
    1.3891   -0.4262   -0.8546 H   0  0  0  0  0  0  0  0  0  0  0  0
   -0.0942   -1.0239   -1.5833 H   0  0  0  0  0  0  0  0  0  0  0  0
    0.3382    1.0475   -2.0037 C   0  0  0  0  0  0  0  0  0  0  0  0
   -0.6965    1.3244   -2.2325 H   0  0  0  0  0  0  0  0  0  0  0  0
    0.8234    1.9098   -1.5358 H   0  0  0  0  0  0  0  0  0  0  0  0
    1.2148    0.6450   -3.5688 S   0  0  0  0  0  0  0  0  0  0  0  0
    2.9841    0.6483   -3.0748 C   0  0  0  0  0  0  0  0  0  0  0  0
    3.1848   -0.1513   -2.3564 H   0  0  0  0  0  0  0  0  0  0  0  0
    3.6161    0.4912   -3.9540 H   0  0  0  0  0  0  0  0  0  0  0  0
    3.2491    1.6075   -2.6207 H   0  0  0  0  0  0  0  0  0  0  0  0
   -0.5315    1.5213    0.7263 C   0  0  0  0  0  0  0  0  0  0  0  0
   -1.4801    2.1773    0.3107 O   0  0  0  0  0  0  0  0  0  0  0  0
    0.3285    2.0845    1.6508 N   0  0  0  0  0  0  0  0  0  0  0  0
    1.0479    1.4872    2.0489 H   0  0  0  0  0  0  0  0  0  0  0  0
    0.1645    3.4353    2.1743 C   0  0  0  0  0  0  0  0  0  0  0  0
   -0.7964    3.5324    2.6906 H   0  0  0  0  0  0  0  0  0  0  0  0
    0.9641    3.6654    2.8851 H   0  0  0  0  0  0  0  0  0  0  0  0
    0.2037    4.1687    1.3619 H   0  0  0  0  0  0  0  0  0  0  0  0
  1  2  1  0  0  0  0
  2  3  1  0  0  0  0
  2  4  1  0  0  0  0
  2  5  1  0  0  0  0
  5  6  2  0  0  0  0
  5  7  1  0  0  0  0
  7  8  1  0  0  0  0
  7  9  1  0  0  0  0
  9 10  1  0  0  0  0
  9 11  1  0  0  0  0
  9 22  1  0  0  0  0
 11 12  1  0  0  0  0
 11 13  1  0  0  0  0
 11 14  1  0  0  0  0
 14 15  1  0  0  0  0
 14 16  1  0  0  0  0
 14 17  1  0  0  0  0
 17 18  1  0  0  0  0
 18 19  1  0  0  0  0
 18 20  1  0  0  0  0
 18 21  1  0  0  0  0
 22 23  2  0  0  0  0
 22 24  1  0  0  0  0
 24 25  1  0  0  0  0
 24 26  1  0  0  0  0
 26 27  1  0  0  0  0
 26 28  1  0  0  0  0
 26 29  1  0  0  0  0
M  END
$$$$

  -OEChem-02102214153D

 29 28  0     1  0  0  0  0  0999 V2000
   -3.2384   -3.4903    1.1886 H   0  0  0  0  0  0  0  0  0  0  0  0
   -3.2534   -2.4841    0.7608 C   0  0  0  0  0  0  0  0  0  0  0  0
   -3.9199   -1.8571    1.3581 H   0  0  0  0  0  0  0  0  0  0  0  0
   -3.6367   -2.5415   -0.2609 H   0  0  0  0  0  0  0  0  0  0  0  0
   -1.8549   -1.8967    0.7561 C   0  0  0  0  0  0  0  0  0  0  0  0
   -0.9180   -2.5419    1.1993 O   0  0  0  0  0  0  0  0  0  0  0  0
   -1.6478   -0.6287    0.2546 N   0  0  0  0  0  0  0  0  0  0  0  0
   -2.4692   -0.0966   -0.0285 H   0  0  0  0  0  0  0  0  0  0  0  0
   -0.3634    0.0866    0.2744 C   0  0  1  0  0  0  0  0  0  0  0  0
    0.2700   -0.3801    1.0358 H   0  0  0  0  0  0  0  0  0  0  0  0
    0.3566   -0.1068   -1.0824 C   0  0  0  0  0  0  0  0  0  0  0  0
    1.4033   -0.3549   -0.8836 H   0  0  0  0  0  0  0  0  0  0  0  0
   -0.0807   -0.9654   -1.6038 H   0  0  0  0  0  0  0  0  0  0  0  0
    0.3230    1.1136   -2.0140 C   0  0  0  0  0  0  0  0  0  0  0  0
   -0.6935    1.5185   -2.0562 H   0  0  0  0  0  0  0  0  0  0  0  0
    0.9872    1.9010   -1.6435 H   0  0  0  0  0  0  0  0  0  0  0  0
    0.8033    0.6304   -3.7217 S   0  0  0  0  0  0  0  0  0  0  0  0
    2.5683    0.1562   -3.5373 C   0  0  0  0  0  0  0  0  0  0  0  0
    2.6622   -0.7353   -2.9106 H   0  0  0  0  0  0  0  0  0  0  0  0
    3.0009   -0.0620   -4.5182 H   0  0  0  0  0  0  0  0  0  0  0  0
    3.1340    0.9728   -3.0791 H   0  0  0  0  0  0  0  0  0  0  0  0
   -0.5324    1.5536    0.7266 C   0  0  0  0  0  0  0  0  0  0  0  0
   -1.5043    2.2017    0.3555 O   0  0  0  0  0  0  0  0  0  0  0  0
    0.3392    2.1092    1.6450 N   0  0  0  0  0  0  0  0  0  0  0  0
    1.0776    1.5154    2.0120 H   0  0  0  0  0  0  0  0  0  0  0  0
    0.1647    3.4437    2.2055 C   0  0  0  0  0  0  0  0  0  0  0  0
   -0.7659    3.4985    2.7800 H   0  0  0  0  0  0  0  0  0  0  0  0
    0.9983    3.6867    2.8715 H   0  0  0  0  0  0  0  0  0  0  0  0
    0.1315    4.1939    1.4082 H   0  0  0  0  0  0  0  0  0  0  0  0
  1  2  1  0  0  0  0
  2  3  1  0  0  0  0
  2  4  1  0  0  0  0
  2  5  1  0  0  0  0
  5  6  2  0  0  0  0
  5  7  1  0  0  0  0
  7  8  1  0  0  0  0
  7  9  1  0  0  0  0
  9 10  1  0  0  0  0
  9 11  1  0  0  0  0
  9 22  1  0  0  0  0
 11 12  1  0  0  0  0
 11 13  1  0  0  0  0
 11 14  1  0  0  0  0
 14 15  1  0  0  0  0
 14 16  1  0  0  0  0
 14 17  1  0  0  0  0
 17 18  1  0  0  0  0
 18 19  1  0  0  0  0
 18 20  1  0  0  0  0
 18 21  1  0  0  0  0
 22 23  2  0  0  0  0
 22 24  1  0  0  0  0
 24 25  1  0  0  0  0
 24 26  1  0  0  0  0
 26 27  1  0  0  0  0
 26 28  1  0  0  0  0
 26 29  1  0  0  0  0
M  END
$$$$

  -OEChem-02102214153D

 29 28  0     1  0  0  0  0  0999 V2000
   -3.2108   -3.4867    1.1621 H   0  0  0  0  0  0  0  0  0  0  0  0
   -3.2344   -2.4773    0.7420 C   0  0  0  0  0  0  0  0  0  0  0  0
   -3.8945   -1.8566    1.3527 H   0  0  0  0  0  0  0  0  0  0  0  0
   -3.6314   -2.5281   -0.2747 H   0  0  0  0  0  0  0  0  0  0  0  0
   -1.8376   -1.8859    0.7232 C   0  0  0  0  0  0  0  0  0  0  0  0
   -0.8912   -2.5363    1.1378 O   0  0  0  0  0  0  0  0  0  0  0  0
   -1.6428   -0.6087    0.2412 N   0  0  0  0  0  0  0  0  0  0  0  0
   -2.4712   -0.0739   -0.0150 H   0  0  0  0  0  0  0  0  0  0  0  0
   -0.3628    0.1146    0.2569 C   0  0  1  0  0  0  0  0  0  0  0  0
    0.2739   -0.3585    1.0116 H   0  0  0  0  0  0  0  0  0  0  0  0
    0.3597   -0.0714   -1.1010 C   0  0  0  0  0  0  0  0  0  0  0  0
    1.4075   -0.3220   -0.9095 H   0  0  0  0  0  0  0  0  0  0  0  0
   -0.0809   -0.9334   -1.6135 H   0  0  0  0  0  0  0  0  0  0  0  0
    0.3274    1.1414   -2.0472 C   0  0  0  0  0  0  0  0  0  0  0  0
   -0.6072    1.6964   -1.9224 H   0  0  0  0  0  0  0  0  0  0  0  0
    1.1570    1.8218   -1.8303 H   0  0  0  0  0  0  0  0  0  0  0  0
    0.3770    0.5893   -3.8007 S   0  0  0  0  0  0  0  0  0  0  0  0
    2.0247   -0.2133   -3.9244 C   0  0  0  0  0  0  0  0  0  0  0  0
    2.0738   -1.0887   -3.2704 H   0  0  0  0  0  0  0  0  0  0  0  0
    2.2066   -0.5371   -4.9537 H   0  0  0  0  0  0  0  0  0  0  0  0
    2.8114    0.4895   -3.6346 H   0  0  0  0  0  0  0  0  0  0  0  0
   -0.5284    1.5739    0.7345 C   0  0  0  0  0  0  0  0  0  0  0  0
   -1.5194    2.2173    0.4085 O   0  0  0  0  0  0  0  0  0  0  0  0
    0.3550    2.1168    1.6497 N   0  0  0  0  0  0  0  0  0  0  0  0
    1.1045    1.5214    1.9906 H   0  0  0  0  0  0  0  0  0  0  0  0
    0.1675    3.4291    2.2571 C   0  0  0  0  0  0  0  0  0  0  0  0
   -0.7565    3.4506    2.8445 H   0  0  0  0  0  0  0  0  0  0  0  0
    1.0057    3.6629    2.9207 H   0  0  0  0  0  0  0  0  0  0  0  0
    0.1122    4.2046    1.4858 H   0  0  0  0  0  0  0  0  0  0  0  0
  1  2  1  0  0  0  0
  2  3  1  0  0  0  0
  2  4  1  0  0  0  0
  2  5  1  0  0  0  0
  5  6  2  0  0  0  0
  5  7  1  0  0  0  0
  7  8  1  0  0  0  0
  7  9  1  0  0  0  0
  9 10  1  0  0  0  0
  9 11  1  0  0  0  0
  9 22  1  0  0  0  0
 11 12  1  0  0  0  0
 11 13  1  0  0  0  0
 11 14  1  0  0  0  0
 14 15  1  0  0  0  0
 14 16  1  0  0  0  0
 14 17  1  0  0  0  0
 17 18  1  0  0  0  0
 18 19  1  0  0  0  0
 18 20  1  0  0  0  0
 18 21  1  0  0  0  0
 22 23  2  0  0  0  0
 22 24  1  0  0  0  0
 24 25  1  0  0  0  0
 24 26  1  0  0  0  0
 26 27  1  0  0  0  0
 26 28  1  0  0  0  0
 26 29  1  0  0  0  0
M  END
$$$$

  -OEChem-02102214153D

 29 28  0     1  0  0  0  0  0999 V2000
   -3.2192   -3.4814    1.1497 H   0  0  0  0  0  0  0  0  0  0  0  0
   -3.2441   -2.4732    0.7269 C   0  0  0  0  0  0  0  0  0  0  0  0
   -3.9096   -1.8533    1.3324 H   0  0  0  0  0  0  0  0  0  0  0  0
   -3.6349   -2.5277   -0.2920 H   0  0  0  0  0  0  0  0  0  0  0  0
   -1.8496   -1.8767    0.7148 C   0  0  0  0  0  0  0  0  0  0  0  0
   -0.9010   -2.5293    1.1211 O   0  0  0  0  0  0  0  0  0  0  0  0
   -1.6584   -0.5940    0.2460 N   0  0  0  0  0  0  0  0  0  0  0  0
   -2.4866   -0.0620   -0.0169 H   0  0  0  0  0  0  0  0  0  0  0  0
   -0.3781    0.1287    0.2576 C   0  0  1  0  0  0  0  0  0  0  0  0
    0.2583   -0.3514    1.0082 H   0  0  0  0  0  0  0  0  0  0  0  0
    0.3433   -0.0647   -1.1008 C   0  0  0  0  0  0  0  0  0  0  0  0
    1.3909   -0.3119   -0.9021 H   0  0  0  0  0  0  0  0  0  0  0  0
   -0.0901   -0.9388   -1.5985 H   0  0  0  0  0  0  0  0  0  0  0  0
    0.3240    1.1325   -2.0726 C   0  0  0  0  0  0  0  0  0  0  0  0
   -0.4508    1.8528   -1.8003 H   0  0  0  0  0  0  0  0  0  0  0  0
    1.2861    1.6540   -2.0530 H   0  0  0  0  0  0  0  0  0  0  0  0
   -0.0707    0.5700   -3.7785 S   0  0  0  0  0  0  0  0  0  0  0  0
    1.4012   -0.4400   -4.2119 C   0  0  0  0  0  0  0  0  0  0  0  0
    1.4890   -1.2982   -3.5395 H   0  0  0  0  0  0  0  0  0  0  0  0
    1.3116   -0.8091   -5.2377 H   0  0  0  0  0  0  0  0  0  0  0  0
    2.3104    0.1633   -4.1353 H   0  0  0  0  0  0  0  0  0  0  0  0
   -0.5323    1.5834    0.7533 C   0  0  0  0  0  0  0  0  0  0  0  0
   -1.5277    2.2331    0.4546 O   0  0  0  0  0  0  0  0  0  0  0  0
    0.3648    2.1102    1.6644 N   0  0  0  0  0  0  0  0  0  0  0  0
    1.1213    1.5100    1.9803 H   0  0  0  0  0  0  0  0  0  0  0  0
    0.1991    3.4194    2.2848 C   0  0  0  0  0  0  0  0  0  0  0  0
   -0.7254    3.4520    2.8710 H   0  0  0  0  0  0  0  0  0  0  0  0
    1.0398    3.6304    2.9527 H   0  0  0  0  0  0  0  0  0  0  0  0
    0.1602    4.2038    1.5215 H   0  0  0  0  0  0  0  0  0  0  0  0
  1  2  1  0  0  0  0
  2  3  1  0  0  0  0
  2  4  1  0  0  0  0
  2  5  1  0  0  0  0
  5  6  2  0  0  0  0
  5  7  1  0  0  0  0
  7  8  1  0  0  0  0
  7  9  1  0  0  0  0
  9 10  1  0  0  0  0
  9 11  1  0  0  0  0
  9 22  1  0  0  0  0
 11 12  1  0  0  0  0
 11 13  1  0  0  0  0
 11 14  1  0  0  0  0
 14 15  1  0  0  0  0
 14 16  1  0  0  0  0
 14 17  1  0  0  0  0
 17 18  1  0  0  0  0
 18 19  1  0  0  0  0
 18 20  1  0  0  0  0
 18 21  1  0  0  0  0
 22 23  2  0  0  0  0
 22 24  1  0  0  0  0
 24 25  1  0  0  0  0
 24 26  1  0  0  0  0
 26 27  1  0  0  0  0
 26 28  1  0  0  0  0
 26 29  1  0  0  0  0
M  END
$$$$

  -OEChem-02102214153D

 29 28  0     1  0  0  0  0  0999 V2000
   -3.2508   -3.4602    1.1455 H   0  0  0  0  0  0  0  0  0  0  0  0
   -3.2646   -2.4507    0.7257 C   0  0  0  0  0  0  0  0  0  0  0  0
   -3.9316   -1.8281    1.3269 H   0  0  0  0  0  0  0  0  0  0  0  0
   -3.6462   -2.4995   -0.2970 H   0  0  0  0  0  0  0  0  0  0  0  0
   -1.8659   -1.8638    0.7283 C   0  0  0  0  0  0  0  0  0  0  0  0
   -0.9254   -2.5236    1.1422 O   0  0  0  0  0  0  0  0  0  0  0  0
   -1.6614   -0.5828    0.2611 N   0  0  0  0  0  0  0  0  0  0  0  0
   -2.4824   -0.0459   -0.0147 H   0  0  0  0  0  0  0  0  0  0  0  0
   -0.3754    0.1291    0.2736 C   0  0  1  0  0  0  0  0  0  0  0  0
    0.2579   -0.3552    1.0240 H   0  0  0  0  0  0  0  0  0  0  0  0
    0.3352   -0.0790   -1.0898 C   0  0  0  0  0  0  0  0  0  0  0  0
    1.3829   -0.3133   -0.8764 H   0  0  0  0  0  0  0  0  0  0  0  0
   -0.0819   -0.9677   -1.5741 H   0  0  0  0  0  0  0  0  0  0  0  0
    0.3358    1.1028   -2.0844 C   0  0  0  0  0  0  0  0  0  0  0  0
   -0.1815    1.9794   -1.6908 H   0  0  0  0  0  0  0  0  0  0  0  0
    1.3660    1.4048   -2.2973 H   0  0  0  0  0  0  0  0  0  0  0  0
   -0.4954    0.6234   -3.6539 S   0  0  0  0  0  0  0  0  0  0  0  0
    0.7022   -0.5526   -4.4014 C   0  0  0  0  0  0  0  0  0  0  0  0
    0.8422   -1.4228   -3.7538 H   0  0  0  0  0  0  0  0  0  0  0  0
    0.3313   -0.8965   -5.3716 H   0  0  0  0  0  0  0  0  0  0  0  0
    1.6698   -0.0643   -4.5501 H   0  0  0  0  0  0  0  0  0  0  0  0
   -0.5257    1.5831    0.7709 C   0  0  0  0  0  0  0  0  0  0  0  0
   -1.5150    2.2389    0.4650 O   0  0  0  0  0  0  0  0  0  0  0  0
    0.3709    2.1062    1.6848 N   0  0  0  0  0  0  0  0  0  0  0  0
    1.1206    1.5011    2.0075 H   0  0  0  0  0  0  0  0  0  0  0  0
    0.2057    3.4149    2.3066 C   0  0  0  0  0  0  0  0  0  0  0  0
   -0.7200    3.4477    2.8908 H   0  0  0  0  0  0  0  0  0  0  0  0
    1.0454    3.6246    2.9763 H   0  0  0  0  0  0  0  0  0  0  0  0
    0.1688    4.2000    1.5440 H   0  0  0  0  0  0  0  0  0  0  0  0
  1  2  1  0  0  0  0
  2  3  1  0  0  0  0
  2  4  1  0  0  0  0
  2  5  1  0  0  0  0
  5  6  2  0  0  0  0
  5  7  1  0  0  0  0
  7  8  1  0  0  0  0
  7  9  1  0  0  0  0
  9 10  1  0  0  0  0
  9 11  1  0  0  0  0
  9 22  1  0  0  0  0
 11 12  1  0  0  0  0
 11 13  1  0  0  0  0
 11 14  1  0  0  0  0
 14 15  1  0  0  0  0
 14 16  1  0  0  0  0
 14 17  1  0  0  0  0
 17 18  1  0  0  0  0
 18 19  1  0  0  0  0
 18 20  1  0  0  0  0
 18 21  1  0  0  0  0
 22 23  2  0  0  0  0
 22 24  1  0  0  0  0
 24 25  1  0  0  0  0
 24 26  1  0  0  0  0
 26 27  1  0  0  0  0
 26 28  1  0  0  0  0
 26 29  1  0  0  0  0
M  END
$$$$

  -OEChem-02102214153D

 29 28  0     1  0  0  0  0  0999 V2000
   -3.2832   -3.4438    1.1737 H   0  0  0  0  0  0  0  0  0  0  0  0
   -3.2856   -2.4396    0.7406 C   0  0  0  0  0  0  0  0  0  0  0  0
   -3.9617   -1.8073    1.3211 H   0  0  0  0  0  0  0  0  0  0  0  0
   -3.6482   -2.5007   -0.2884 H   0  0  0  0  0  0  0  0  0  0  0  0
   -1.8847   -1.8580    0.7620 C   0  0  0  0  0  0  0  0  0  0  0  0
   -0.9552   -2.5182    1.1993 O   0  0  0  0  0  0  0  0  0  0  0  0
   -1.6634   -0.5847    0.2818 N   0  0  0  0  0  0  0  0  0  0  0  0
   -2.4726   -0.0503   -0.0313 H   0  0  0  0  0  0  0  0  0  0  0  0
   -0.3706    0.1144    0.2958 C   0  0  1  0  0  0  0  0  0  0  0  0
    0.2585   -0.3685    1.0509 H   0  0  0  0  0  0  0  0  0  0  0  0
    0.3319   -0.1115   -1.0688 C   0  0  0  0  0  0  0  0  0  0  0  0
    1.3795   -0.3347   -0.8435 H   0  0  0  0  0  0  0  0  0  0  0  0
   -0.0725   -1.0084   -1.5480 H   0  0  0  0  0  0  0  0  0  0  0  0
    0.3436    1.0634   -2.0697 C   0  0  0  0  0  0  0  0  0  0  0  0
    0.1280    2.0250   -1.5999 H   0  0  0  0  0  0  0  0  0  0  0  0
    1.3413    1.1469   -2.5119 H   0  0  0  0  0  0  0  0  0  0  0  0
   -0.8640    0.7610   -3.4235 S   0  0  0  0  0  0  0  0  0  0  0  0
   -0.0260   -0.5199   -4.4401 C   0  0  0  0  0  0  0  0  0  0  0  0
    0.1337   -1.4315   -3.8574 H   0  0  0  0  0  0  0  0  0  0  0  0
   -0.6417   -0.7669   -5.3100 H   0  0  0  0  0  0  0  0  0  0  0  0
    0.9425   -0.1513   -4.7908 H   0  0  0  0  0  0  0  0  0  0  0  0
   -0.5163    1.5744    0.7760 C   0  0  0  0  0  0  0  0  0  0  0  0
   -1.4880    2.2408    0.4395 O   0  0  0  0  0  0  0  0  0  0  0  0
    0.3759    2.1011    1.6922 N   0  0  0  0  0  0  0  0  0  0  0  0
    1.1112    1.4903    2.0365 H   0  0  0  0  0  0  0  0  0  0  0  0
    0.2200    3.4218    2.2904 C   0  0  0  0  0  0  0  0  0  0  0  0
   -0.7167    3.4783    2.8551 H   0  0  0  0  0  0  0  0  0  0  0  0
    1.0492    3.6278    2.9742 H   0  0  0  0  0  0  0  0  0  0  0  0
    0.2115    4.1959    1.5157 H   0  0  0  0  0  0  0  0  0  0  0  0
  1  2  1  0  0  0  0
  2  3  1  0  0  0  0
  2  4  1  0  0  0  0
  2  5  1  0  0  0  0
  5  6  2  0  0  0  0
  5  7  1  0  0  0  0
  7  8  1  0  0  0  0
  7  9  1  0  0  0  0
  9 10  1  0  0  0  0
  9 11  1  0  0  0  0
  9 22  1  0  0  0  0
 11 12  1  0  0  0  0
 11 13  1  0  0  0  0
 11 14  1  0  0  0  0
 14 15  1  0  0  0  0
 14 16  1  0  0  0  0
 14 17  1  0  0  0  0
 17 18  1  0  0  0  0
 18 19  1  0  0  0  0
 18 20  1  0  0  0  0
 18 21  1  0  0  0  0
 22 23  2  0  0  0  0
 22 24  1  0  0  0  0
 24 25  1  0  0  0  0
 24 26  1  0  0  0  0
 26 27  1  0  0  0  0
 26 28  1  0  0  0  0
 26 29  1  0  0  0  0
M  END
$$$$

  -OEChem-02102214153D

 29 28  0     1  0  0  0  0  0999 V2000
   -3.3073   -3.4295    1.2045 H   0  0  0  0  0  0  0  0  0  0  0  0
   -3.2955   -2.4313    0.7579 C   0  0  0  0  0  0  0  0  0  0  0  0
   -3.9693   -1.7841    1.3246 H   0  0  0  0  0  0  0  0  0  0  0  0
   -3.6509   -2.5020   -0.2730 H   0  0  0  0  0  0  0  0  0  0  0  0
   -1.8890   -1.8630    0.7820 C   0  0  0  0  0  0  0  0  0  0  0  0
   -0.9685   -2.5253    1.2350 O   0  0  0  0  0  0  0  0  0  0  0  0
   -1.6542   -0.5973    0.2891 N   0  0  0  0  0  0  0  0  0  0  0  0
   -2.4558   -0.0631   -0.0438 H   0  0  0  0  0  0  0  0  0  0  0  0
   -0.3589    0.0960    0.3060 C   0  0  1  0  0  0  0  0  0  0  0  0
    0.2660   -0.3824    1.0672 H   0  0  0  0  0  0  0  0  0  0  0  0
    0.3442   -0.1389   -1.0556 C   0  0  0  0  0  0  0  0  0  0  0  0
    1.3920   -0.3595   -0.8282 H   0  0  0  0  0  0  0  0  0  0  0  0
   -0.0591   -1.0339   -1.5384 H   0  0  0  0  0  0  0  0  0  0  0  0
    0.3547    1.0396   -2.0474 C   0  0  0  0  0  0  0  0  0  0  0  0
    0.4160    2.0081   -1.5446 H   0  0  0  0  0  0  0  0  0  0  0  0
    1.2416    0.9600   -2.6839 H   0  0  0  0  0  0  0  0  0  0  0  0
   -1.1320    0.9781   -3.1290 S   0  0  0  0  0  0  0  0  0  0  0  0
   -0.7440   -0.3843   -4.2994 C   0  0  0  0  0  0  0  0  0  0  0  0
   -0.6374   -1.3331   -3.7663 H   0  0  0  0  0  0  0  0  0  0  0  0
   -1.5500   -0.4864   -5.0321 H   0  0  0  0  0  0  0  0  0  0  0  0
    0.1877   -0.1726   -4.8322 H   0  0  0  0  0  0  0  0  0  0  0  0
   -0.5043    1.5625    0.7671 C   0  0  0  0  0  0  0  0  0  0  0  0
   -1.4691    2.2299    0.4143 O   0  0  0  0  0  0  0  0  0  0  0  0
    0.3816    2.0972    1.6852 N   0  0  0  0  0  0  0  0  0  0  0  0
    1.1095    1.4875    2.0466 H   0  0  0  0  0  0  0  0  0  0  0  0
    0.2262    3.4275    2.2621 C   0  0  0  0  0  0  0  0  0  0  0  0
   -0.7164    3.4981    2.8151 H   0  0  0  0  0  0  0  0  0  0  0  0
    1.0487    3.6397    2.9518 H   0  0  0  0  0  0  0  0  0  0  0  0
    0.2306    4.1892    1.4754 H   0  0  0  0  0  0  0  0  0  0  0  0
  1  2  1  0  0  0  0
  2  3  1  0  0  0  0
  2  4  1  0  0  0  0
  2  5  1  0  0  0  0
  5  6  2  0  0  0  0
  5  7  1  0  0  0  0
  7  8  1  0  0  0  0
  7  9  1  0  0  0  0
  9 10  1  0  0  0  0
  9 11  1  0  0  0  0
  9 22  1  0  0  0  0
 11 12  1  0  0  0  0
 11 13  1  0  0  0  0
 11 14  1  0  0  0  0
 14 15  1  0  0  0  0
 14 16  1  0  0  0  0
 14 17  1  0  0  0  0
 17 18  1  0  0  0  0
 18 19  1  0  0  0  0
 18 20  1  0  0  0  0
 18 21  1  0  0  0  0
 22 23  2  0  0  0  0
 22 24  1  0  0  0  0
 24 25  1  0  0  0  0
 24 26  1  0  0  0  0
 26 27  1  0  0  0  0
 26 28  1  0  0  0  0
 26 29  1  0  0  0  0
M  END
$$$$

  -OEChem-02102214153D

 29 28  0     1  0  0  0  0  0999 V2000
   -3.3087   -3.4179    1.1992 H   0  0  0  0  0  0  0  0  0  0  0  0
   -3.2997   -2.4159    0.7612 C   0  0  0  0  0  0  0  0  0  0  0  0
   -3.9520   -1.7675    1.3515 H   0  0  0  0  0  0  0  0  0  0  0  0
   -3.6832   -2.4742   -0.2603 H   0  0  0  0  0  0  0  0  0  0  0  0
   -1.8878   -1.8611    0.7532 C   0  0  0  0  0  0  0  0  0  0  0  0
   -0.9624   -2.5346    1.1787 O   0  0  0  0  0  0  0  0  0  0  0  0
   -1.6537   -0.5953    0.2609 N   0  0  0  0  0  0  0  0  0  0  0  0
   -2.4602   -0.0468   -0.0358 H   0  0  0  0  0  0  0  0  0  0  0  0
   -0.3595    0.0996    0.2803 C   0  0  1  0  0  0  0  0  0  0  0  0
    0.2559   -0.3779    1.0498 H   0  0  0  0  0  0  0  0  0  0  0  0
    0.3690   -0.1357   -1.0664 C   0  0  0  0  0  0  0  0  0  0  0  0
    1.4141   -0.3578   -0.8297 H   0  0  0  0  0  0  0  0  0  0  0  0
   -0.0312   -1.0268   -1.5583 H   0  0  0  0  0  0  0  0  0  0  0  0
    0.3806    1.0465   -2.0494 C   0  0  0  0  0  0  0  0  0  0  0  0
    0.6718    1.9751   -1.5491 H   0  0  0  0  0  0  0  0  0  0  0  0
    1.1250    0.8561   -2.8288 H   0  0  0  0  0  0  0  0  0  0  0  0
   -1.2626    1.2562   -2.8521 S   0  0  0  0  0  0  0  0  0  0  0  0
   -1.3956   -0.2059   -3.9567 C   0  0  0  0  0  0  0  0  0  0  0  0
   -1.4424   -1.1283   -3.3713 H   0  0  0  0  0  0  0  0  0  0  0  0
   -2.3038   -0.1334   -4.5623 H   0  0  0  0  0  0  0  0  0  0  0  0
   -0.5322   -0.2553   -4.6265 H   0  0  0  0  0  0  0  0  0  0  0  0
   -0.4996    1.5680    0.7403 C   0  0  0  0  0  0  0  0  0  0  0  0
   -1.4845    2.2264    0.4290 O   0  0  0  0  0  0  0  0  0  0  0  0
    0.3908    2.0959    1.6582 N   0  0  0  0  0  0  0  0  0  0  0  0
    1.1310    1.4886    1.9977 H   0  0  0  0  0  0  0  0  0  0  0  0
    0.2275    3.4133    2.2619 C   0  0  0  0  0  0  0  0  0  0  0  0
   -0.6956    3.4533    2.8497 H   0  0  0  0  0  0  0  0  0  0  0  0
    1.0699    3.6338    2.9245 H   0  0  0  0  0  0  0  0  0  0  0  0
    0.1861    4.1872    1.4880 H   0  0  0  0  0  0  0  0  0  0  0  0
  1  2  1  0  0  0  0
  2  3  1  0  0  0  0
  2  4  1  0  0  0  0
  2  5  1  0  0  0  0
  5  6  2  0  0  0  0
  5  7  1  0  0  0  0
  7  8  1  0  0  0  0
  7  9  1  0  0  0  0
  9 10  1  0  0  0  0
  9 11  1  0  0  0  0
  9 22  1  0  0  0  0
 11 12  1  0  0  0  0
 11 13  1  0  0  0  0
 11 14  1  0  0  0  0
 14 15  1  0  0  0  0
 14 16  1  0  0  0  0
 14 17  1  0  0  0  0
 17 18  1  0  0  0  0
 18 19  1  0  0  0  0
 18 20  1  0  0  0  0
 18 21  1  0  0  0  0
 22 23  2  0  0  0  0
 22 24  1  0  0  0  0
 24 25  1  0  0  0  0
 24 26  1  0  0  0  0
 26 27  1  0  0  0  0
 26 28  1  0  0  0  0
 26 29  1  0  0  0  0
M  END
$$$$

  -OEChem-02102214153D

 29 28  0     1  0  0  0  0  0999 V2000
   -3.3063   -3.3971    1.2029 H   0  0  0  0  0  0  0  0  0  0  0  0
   -3.3098   -2.3936    0.7687 C   0  0  0  0  0  0  0  0  0  0  0  0
   -3.9302   -1.7434    1.3903 H   0  0  0  0  0  0  0  0  0  0  0  0
   -3.7392   -2.4446   -0.2347 H   0  0  0  0  0  0  0  0  0  0  0  0
   -1.8959   -1.8486    0.6997 C   0  0  0  0  0  0  0  0  0  0  0  0
   -0.9554   -2.5377    1.0627 O   0  0  0  0  0  0  0  0  0  0  0  0
   -1.6774   -0.5751    0.2200 N   0  0  0  0  0  0  0  0  0  0  0  0
   -2.4961   -0.0060    0.0061 H   0  0  0  0  0  0  0  0  0  0  0  0
   -0.3862    0.1262    0.2351 C   0  0  1  0  0  0  0  0  0  0  0  0
    0.2162   -0.3533    1.0135 H   0  0  0  0  0  0  0  0  0  0  0  0
    0.3841   -0.1141   -1.0866 C   0  0  0  0  0  0  0  0  0  0  0  0
    1.4234   -0.3380   -0.8264 H   0  0  0  0  0  0  0  0  0  0  0  0
   -0.0102   -1.0077   -1.5798 H   0  0  0  0  0  0  0  0  0  0  0  0
    0.4141    1.0492   -2.0909 C   0  0  0  0  0  0  0  0  0  0  0  0
    0.9080    1.9164   -1.6406 H   0  0  0  0  0  0  0  0  0  0  0  0
    1.0048    0.7541   -2.9638 H   0  0  0  0  0  0  0  0  0  0  0  0
   -1.2679    1.5456   -2.6509 S   0  0  0  0  0  0  0  0  0  0  0  0
   -1.9048    0.0368   -3.4821 C   0  0  0  0  0  0  0  0  0  0  0  0
   -2.0299   -0.7751   -2.7604 H   0  0  0  0  0  0  0  0  0  0  0  0
   -2.8757    0.2458   -3.9409 H   0  0  0  0  0  0  0  0  0  0  0  0
   -1.2109   -0.2871   -4.2633 H   0  0  0  0  0  0  0  0  0  0  0  0
   -0.5113    1.5909    0.7131 C   0  0  0  0  0  0  0  0  0  0  0  0
   -1.5387    2.2257    0.5075 O   0  0  0  0  0  0  0  0  0  0  0  0
    0.3991    2.0971    1.6240 N   0  0  0  0  0  0  0  0  0  0  0  0
    1.1725    1.4986    1.8985 H   0  0  0  0  0  0  0  0  0  0  0  0
    0.2320    3.3831    2.2912 C   0  0  0  0  0  0  0  0  0  0  0  0
   -0.6695    3.3778    2.9129 H   0  0  0  0  0  0  0  0  0  0  0  0
    1.0935    3.5926    2.9324 H   0  0  0  0  0  0  0  0  0  0  0  0
    0.1470    4.1886    1.5540 H   0  0  0  0  0  0  0  0  0  0  0  0
  1  2  1  0  0  0  0
  2  3  1  0  0  0  0
  2  4  1  0  0  0  0
  2  5  1  0  0  0  0
  5  6  2  0  0  0  0
  5  7  1  0  0  0  0
  7  8  1  0  0  0  0
  7  9  1  0  0  0  0
  9 10  1  0  0  0  0
  9 11  1  0  0  0  0
  9 22  1  0  0  0  0
 11 12  1  0  0  0  0
 11 13  1  0  0  0  0
 11 14  1  0  0  0  0
 14 15  1  0  0  0  0
 14 16  1  0  0  0  0
 14 17  1  0  0  0  0
 17 18  1  0  0  0  0
 18 19  1  0  0  0  0
 18 20  1  0  0  0  0
 18 21  1  0  0  0  0
 22 23  2  0  0  0  0
 22 24  1  0  0  0  0
 24 25  1  0  0  0  0
 24 26  1  0  0  0  0
 26 27  1  0  0  0  0
 26 28  1  0  0  0  0
 26 29  1  0  0  0  0
M  END
$$$$

  -OEChem-02102214153D

 29 28  0     1  0  0  0  0  0999 V2000
   -3.2717   -3.4037    1.3354 H   0  0  0  0  0  0  0  0  0  0  0  0
   -3.3050   -2.4008    0.9006 C   0  0  0  0  0  0  0  0  0  0  0  0
   -3.8886   -1.7517    1.5579 H   0  0  0  0  0  0  0  0  0  0  0  0
   -3.7943   -2.4551   -0.0747 H   0  0  0  0  0  0  0  0  0  0  0  0
   -1.8998   -1.8513    0.7448 C   0  0  0  0  0  0  0  0  0  0  0  0
   -0.9364   -2.5457    1.0289 O   0  0  0  0  0  0  0  0  0  0  0  0
   -1.7154   -0.5695    0.2720 N   0  0  0  0  0  0  0  0  0  0  0  0
   -2.5476    0.0070    0.1506 H   0  0  0  0  0  0  0  0  0  0  0  0
   -0.4306    0.1441    0.2468 C   0  0  1  0  0  0  0  0  0  0  0  0
    0.1823   -0.3316    1.0196 H   0  0  0  0  0  0  0  0  0  0  0  0
    0.3463   -0.1092   -1.0706 C   0  0  0  0  0  0  0  0  0  0  0  0
    1.3842   -0.3401   -0.8099 H   0  0  0  0  0  0  0  0  0  0  0  0
   -0.0623   -1.0094   -1.5408 H   0  0  0  0  0  0  0  0  0  0  0  0
    0.3847    1.0073   -2.1298 C   0  0  0  0  0  0  0  0  0  0  0  0
    1.0761    1.7852   -1.7906 H   0  0  0  0  0  0  0  0  0  0  0  0
    0.7829    0.6021   -3.0654 H   0  0  0  0  0  0  0  0  0  0  0  0
   -1.2372    1.8079   -2.4594 S   0  0  0  0  0  0  0  0  0  0  0  0
   -2.2077    0.4396   -3.2059 C   0  0  0  0  0  0  0  0  0  0  0  0
   -2.3010   -0.3925   -2.5030 H   0  0  0  0  0  0  0  0  0  0  0  0
   -3.2105    0.7919   -3.4651 H   0  0  0  0  0  0  0  0  0  0  0  0
   -1.7169    0.0794   -4.1147 H   0  0  0  0  0  0  0  0  0  0  0  0
   -0.5411    1.6037    0.7459 C   0  0  0  0  0  0  0  0  0  0  0  0
   -1.6061    2.2041    0.6573 O   0  0  0  0  0  0  0  0  0  0  0  0
    0.4062    2.1001    1.6247 N   0  0  0  0  0  0  0  0  0  0  0  0
    1.2199    1.5231    1.8146 H   0  0  0  0  0  0  0  0  0  0  0  0
    0.2536    3.3602    2.3431 C   0  0  0  0  0  0  0  0  0  0  0  0
   -0.6100    3.3165    3.0151 H   0  0  0  0  0  0  0  0  0  0  0  0
    1.1468    3.5660    2.9408 H   0  0  0  0  0  0  0  0  0  0  0  0
    0.1112    4.1877    1.6399 H   0  0  0  0  0  0  0  0  0  0  0  0
  1  2  1  0  0  0  0
  2  3  1  0  0  0  0
  2  4  1  0  0  0  0
  2  5  1  0  0  0  0
  5  6  2  0  0  0  0
  5  7  1  0  0  0  0
  7  8  1  0  0  0  0
  7  9  1  0  0  0  0
  9 10  1  0  0  0  0
  9 11  1  0  0  0  0
  9 22  1  0  0  0  0
 11 12  1  0  0  0  0
 11 13  1  0  0  0  0
 11 14  1  0  0  0  0
 14 15  1  0  0  0  0
 14 16  1  0  0  0  0
 14 17  1  0  0  0  0
 17 18  1  0  0  0  0
 18 19  1  0  0  0  0
 18 20  1  0  0  0  0
 18 21  1  0  0  0  0
 22 23  2  0  0  0  0
 22 24  1  0  0  0  0
 24 25  1  0  0  0  0
 24 26  1  0  0  0  0
 26 27  1  0  0  0  0
 26 28  1  0  0  0  0
 26 29  1  0  0  0  0
M  END
$$$$

  -OEChem-02102214153D

 29 28  0     1  0  0  0  0  0999 V2000
   -3.1935   -3.4426    1.4472 H   0  0  0  0  0  0  0  0  0  0  0  0
   -3.2588   -2.4393    1.0169 C   0  0  0  0  0  0  0  0  0  0  0  0
   -3.8105   -1.7959    1.7068 H   0  0  0  0  0  0  0  0  0  0  0  0
   -3.8004   -2.4957    0.0696 H   0  0  0  0  0  0  0  0  0  0  0  0
   -1.8687   -1.8785    0.7850 C   0  0  0  0  0  0  0  0  0  0  0  0
   -0.8858   -2.5721    0.9944 O   0  0  0  0  0  0  0  0  0  0  0  0
   -1.7216   -0.5849    0.3312 N   0  0  0  0  0  0  0  0  0  0  0  0
   -2.5623   -0.0092    0.2976 H   0  0  0  0  0  0  0  0  0  0  0  0
   -0.4464    0.1447    0.2730 C   0  0  1  0  0  0  0  0  0  0  0  0
    0.1878   -0.3316    1.0280 H   0  0  0  0  0  0  0  0  0  0  0  0
    0.3126   -0.1016   -1.0588 C   0  0  0  0  0  0  0  0  0  0  0  0
    1.3523   -0.3381   -0.8102 H   0  0  0  0  0  0  0  0  0  0  0  0
   -0.1075   -1.0069   -1.5092 H   0  0  0  0  0  0  0  0  0  0  0  0
    0.3512    0.9781   -2.1614 C   0  0  0  0  0  0  0  0  0  0  0  0
    1.2222    1.6137   -1.9727 H   0  0  0  0  0  0  0  0  0  0  0  0
    0.5107    0.4930   -3.1297 H   0  0  0  0  0  0  0  0  0  0  0  0
   -1.1001    2.0972   -2.2832 S   0  0  0  0  0  0  0  0  0  0  0  0
   -2.4077    0.9639   -2.8955 C   0  0  0  0  0  0  0  0  0  0  0  0
   -2.5551    0.1359   -2.1976 H   0  0  0  0  0  0  0  0  0  0  0  0
   -3.3519    1.5066   -2.9994 H   0  0  0  0  0  0  0  0  0  0  0  0
   -2.1281    0.5559   -3.8711 H   0  0  0  0  0  0  0  0  0  0  0  0
   -0.5619    1.5914    0.8070 C   0  0  0  0  0  0  0  0  0  0  0  0
   -1.6524    2.1535    0.8037 O   0  0  0  0  0  0  0  0  0  0  0  0
    0.4086    2.0853    1.6617 N   0  0  0  0  0  0  0  0  0  0  0  0
    1.2561    1.5383    1.7783 H   0  0  0  0  0  0  0  0  0  0  0  0
    0.2602    3.3250    2.4156 C   0  0  0  0  0  0  0  0  0  0  0  0
   -0.5813    3.2518    3.1125 H   0  0  0  0  0  0  0  0  0  0  0  0
    1.1683    3.5298    2.9906 H   0  0  0  0  0  0  0  0  0  0  0  0
    0.0837    4.1663    1.7369 H   0  0  0  0  0  0  0  0  0  0  0  0
  1  2  1  0  0  0  0
  2  3  1  0  0  0  0
  2  4  1  0  0  0  0
  2  5  1  0  0  0  0
  5  6  2  0  0  0  0
  5  7  1  0  0  0  0
  7  8  1  0  0  0  0
  7  9  1  0  0  0  0
  9 10  1  0  0  0  0
  9 11  1  0  0  0  0
  9 22  1  0  0  0  0
 11 12  1  0  0  0  0
 11 13  1  0  0  0  0
 11 14  1  0  0  0  0
 14 15  1  0  0  0  0
 14 16  1  0  0  0  0
 14 17  1  0  0  0  0
 17 18  1  0  0  0  0
 18 19  1  0  0  0  0
 18 20  1  0  0  0  0
 18 21  1  0  0  0  0
 22 23  2  0  0  0  0
 22 24  1  0  0  0  0
 24 25  1  0  0  0  0
 24 26  1  0  0  0  0
 26 27  1  0  0  0  0
 26 28  1  0  0  0  0
 26 29  1  0  0  0  0
M  END
$$$$

  -OEChem-02102214153D

 29 28  0     1  0  0  0  0  0999 V2000
   -3.1334   -3.5090    1.4636 H   0  0  0  0  0  0  0  0  0  0  0  0
   -3.2145   -2.4948    1.0628 C   0  0  0  0  0  0  0  0  0  0  0  0
   -3.7472   -1.8724    1.7859 H   0  0  0  0  0  0  0  0  0  0  0  0
   -3.7842   -2.5279    0.1311 H   0  0  0  0  0  0  0  0  0  0  0  0
   -1.8338   -1.9221    0.8050 C   0  0  0  0  0  0  0  0  0  0  0  0
   -0.8423   -2.6133    0.9786 O   0  0  0  0  0  0  0  0  0  0  0  0
   -1.7046   -0.6202    0.3696 N   0  0  0  0  0  0  0  0  0  0  0  0
   -2.5472   -0.0465    0.3843 H   0  0  0  0  0  0  0  0  0  0  0  0
   -0.4331    0.1171    0.3057 C   0  0  1  0  0  0  0  0  0  0  0  0
    0.2191   -0.3633    1.0427 H   0  0  0  0  0  0  0  0  0  0  0  0
    0.2967   -0.1113   -1.0483 C   0  0  0  0  0  0  0  0  0  0  0  0
    1.3380   -0.3512   -0.8104 H   0  0  0  0  0  0  0  0  0  0  0  0
   -0.1256   -1.0198   -1.4901 H   0  0  0  0  0  0  0  0  0  0  0  0
    0.3434    0.9511   -2.1746 C   0  0  0  0  0  0  0  0  0  0  0  0
    1.3511    1.3791   -2.1755 H   0  0  0  0  0  0  0  0  0  0  0  0
    0.2163    0.4420   -3.1354 H   0  0  0  0  0  0  0  0  0  0  0  0
   -0.8186    2.3724   -2.1192 S   0  0  0  0  0  0  0  0  0  0  0  0
   -2.4344    1.5823   -2.4839 C   0  0  0  0  0  0  0  0  0  0  0  0
   -2.6643    0.8200   -1.7360 H   0  0  0  0  0  0  0  0  0  0  0  0
   -3.2287    2.3342   -2.4684 H   0  0  0  0  0  0  0  0  0  0  0  0
   -2.4130    1.1136   -3.4719 H   0  0  0  0  0  0  0  0  0  0  0  0
   -0.5718    1.5496    0.8695 C   0  0  0  0  0  0  0  0  0  0  0  0
   -1.6784    2.0818    0.8870 O   0  0  0  0  0  0  0  0  0  0  0  0
    0.3938    2.0493    1.7257 N   0  0  0  0  0  0  0  0  0  0  0  0
    1.2699    1.5407    1.7962 H   0  0  0  0  0  0  0  0  0  0  0  0
    0.2324    3.2856    2.4817 C   0  0  0  0  0  0  0  0  0  0  0  0
   -0.6008    3.1975    3.1869 H   0  0  0  0  0  0  0  0  0  0  0  0
    1.1427    3.5047    3.0477 H   0  0  0  0  0  0  0  0  0  0  0  0
    0.0352    4.1245    1.8057 H   0  0  0  0  0  0  0  0  0  0  0  0
  1  2  1  0  0  0  0
  2  3  1  0  0  0  0
  2  4  1  0  0  0  0
  2  5  1  0  0  0  0
  5  6  2  0  0  0  0
  5  7  1  0  0  0  0
  7  8  1  0  0  0  0
  7  9  1  0  0  0  0
  9 10  1  0  0  0  0
  9 11  1  0  0  0  0
  9 22  1  0  0  0  0
 11 12  1  0  0  0  0
 11 13  1  0  0  0  0
 11 14  1  0  0  0  0
 14 15  1  0  0  0  0
 14 16  1  0  0  0  0
 14 17  1  0  0  0  0
 17 18  1  0  0  0  0
 18 19  1  0  0  0  0
 18 20  1  0  0  0  0
 18 21  1  0  0  0  0
 22 23  2  0  0  0  0
 22 24  1  0  0  0  0
 24 25  1  0  0  0  0
 24 26  1  0  0  0  0
 26 27  1  0  0  0  0
 26 28  1  0  0  0  0
 26 29  1  0  0  0  0
M  END
$$$$

  -OEChem-02102214153D

 29 28  0     1  0  0  0  0  0999 V2000
   -3.0598   -3.5867    1.4730 H   0  0  0  0  0  0  0  0  0  0  0  0
   -3.1604   -2.5587    1.1139 C   0  0  0  0  0  0  0  0  0  0  0  0
   -3.6773   -1.9694    1.8754 H   0  0  0  0  0  0  0  0  0  0  0  0
   -3.7567   -2.5613    0.1984 H   0  0  0  0  0  0  0  0  0  0  0  0
   -1.7922   -1.9644    0.8381 C   0  0  0  0  0  0  0  0  0  0  0  0
   -0.7897   -2.6485    0.9725 O   0  0  0  0  0  0  0  0  0  0  0  0
   -1.6867   -0.6503    0.4334 N   0  0  0  0  0  0  0  0  0  0  0  0
   -2.5352   -0.0874    0.4804 H   0  0  0  0  0  0  0  0  0  0  0  0
   -0.4241    0.1016    0.3542 C   0  0  1  0  0  0  0  0  0  0  0  0
    0.2526   -0.3887    1.0624 H   0  0  0  0  0  0  0  0  0  0  0  0
    0.2628   -0.1041   -1.0275 C   0  0  0  0  0  0  0  0  0  0  0  0
    1.3149   -0.3107   -0.8053 H   0  0  0  0  0  0  0  0  0  0  0  0
   -0.1353   -1.0279   -1.4604 H   0  0  0  0  0  0  0  0  0  0  0  0
    0.2821    0.9567   -2.1594 C   0  0  0  0  0  0  0  0  0  0  0  0
    1.3308    1.1683   -2.3923 H   0  0  0  0  0  0  0  0  0  0  0  0
   -0.1510    0.5013   -3.0556 H   0  0  0  0  0  0  0  0  0  0  0  0
   -0.5427    2.5784   -1.9126 S   0  0  0  0  0  0  0  0  0  0  0  0
   -2.3091    2.1549   -2.1823 C   0  0  0  0  0  0  0  0  0  0  0  0
   -2.6173    1.3525   -1.5068 H   0  0  0  0  0  0  0  0  0  0  0  0
   -2.9353    3.0312   -1.9903 H   0  0  0  0  0  0  0  0  0  0  0  0
   -2.4681    1.8278   -3.2137 H   0  0  0  0  0  0  0  0  0  0  0  0
   -0.5659    1.5162    0.9597 C   0  0  0  0  0  0  0  0  0  0  0  0
   -1.6772    2.0374    1.0092 O   0  0  0  0  0  0  0  0  0  0  0  0
    0.4145    2.0068    1.8040 N   0  0  0  0  0  0  0  0  0  0  0  0
    1.3049    1.5188    1.8242 H   0  0  0  0  0  0  0  0  0  0  0  0
    0.2685    3.2390    2.5695 C   0  0  0  0  0  0  0  0  0  0  0  0
   -0.5519    3.1482    3.2891 H   0  0  0  0  0  0  0  0  0  0  0  0
    1.1888    3.4538    3.1207 H   0  0  0  0  0  0  0  0  0  0  0  0
    0.0607    4.0818    1.9017 H   0  0  0  0  0  0  0  0  0  0  0  0
  1  2  1  0  0  0  0
  2  3  1  0  0  0  0
  2  4  1  0  0  0  0
  2  5  1  0  0  0  0
  5  6  2  0  0  0  0
  5  7  1  0  0  0  0
  7  8  1  0  0  0  0
  7  9  1  0  0  0  0
  9 10  1  0  0  0  0
  9 11  1  0  0  0  0
  9 22  1  0  0  0  0
 11 12  1  0  0  0  0
 11 13  1  0  0  0  0
 11 14  1  0  0  0  0
 14 15  1  0  0  0  0
 14 16  1  0  0  0  0
 14 17  1  0  0  0  0
 17 18  1  0  0  0  0
 18 19  1  0  0  0  0
 18 20  1  0  0  0  0
 18 21  1  0  0  0  0
 22 23  2  0  0  0  0
 22 24  1  0  0  0  0
 24 25  1  0  0  0  0
 24 26  1  0  0  0  0
 26 27  1  0  0  0  0
 26 28  1  0  0  0  0
 26 29  1  0  0  0  0
M  END
$$$$

  -OEChem-02102214153D

 29 28  0     1  0  0  0  0  0999 V2000
   -2.8138   -3.7057    1.6583 H   0  0  0  0  0  0  0  0  0  0  0  0
   -2.9690   -2.6778    1.3189 C   0  0  0  0  0  0  0  0  0  0  0  0
   -3.4408   -2.1093    2.1240 H   0  0  0  0  0  0  0  0  0  0  0  0
   -3.6333   -2.6890    0.4515 H   0  0  0  0  0  0  0  0  0  0  0  0
   -1.6421   -2.0440    0.9457 C   0  0  0  0  0  0  0  0  0  0  0  0
   -0.6154   -2.7033    0.9914 O   0  0  0  0  0  0  0  0  0  0  0  0
   -1.6006   -0.7221    0.5546 N   0  0  0  0  0  0  0  0  0  0  0  0
   -2.4573   -0.1815    0.6697 H   0  0  0  0  0  0  0  0  0  0  0  0
   -0.3662    0.0613    0.3859 C   0  0  1  0  0  0  0  0  0  0  0  0
    0.3894   -0.4204    1.0157 H   0  0  0  0  0  0  0  0  0  0  0  0
    0.1727   -0.0968   -1.0671 C   0  0  0  0  0  0  0  0  0  0  0  0
    1.2485   -0.2604   -0.9467 H   0  0  0  0  0  0  0  0  0  0  0  0
   -0.2240   -1.0294   -1.4819 H   0  0  0  0  0  0  0  0  0  0  0  0
    0.0614    0.9871   -2.1714 C   0  0  0  0  0  0  0  0  0  0  0  0
    1.0129    1.0095   -2.7125 H   0  0  0  0  0  0  0  0  0  0  0  0
   -0.6958    0.6504   -2.8865 H   0  0  0  0  0  0  0  0  0  0  0  0
   -0.3591    2.7187   -1.7229 S   0  0  0  0  0  0  0  0  0  0  0  0
   -2.1838    2.7378   -1.9341 C   0  0  0  0  0  0  0  0  0  0  0  0
   -2.6457    1.9446   -1.3393 H   0  0  0  0  0  0  0  0  0  0  0  0
   -2.5875    3.6998   -1.6047 H   0  0  0  0  0  0  0  0  0  0  0  0
   -2.4463    2.5875   -2.9852 H   0  0  0  0  0  0  0  0  0  0  0  0
   -0.5145    1.4574    1.0301 C   0  0  0  0  0  0  0  0  0  0  0  0
   -1.6353    1.9474    1.1478 O   0  0  0  0  0  0  0  0  0  0  0  0
    0.5056    1.9725    1.8098 N   0  0  0  0  0  0  0  0  0  0  0  0
    1.4182    1.5333    1.7354 H   0  0  0  0  0  0  0  0  0  0  0  0
    0.3813    3.2103    2.5700 C   0  0  0  0  0  0  0  0  0  0  0  0
   -0.4040    3.1175    3.3275 H   0  0  0  0  0  0  0  0  0  0  0  0
    1.3236    3.4390    3.0768 H   0  0  0  0  0  0  0  0  0  0  0  0
    0.1336    4.0446    1.9051 H   0  0  0  0  0  0  0  0  0  0  0  0
  1  2  1  0  0  0  0
  2  3  1  0  0  0  0
  2  4  1  0  0  0  0
  2  5  1  0  0  0  0
  5  6  2  0  0  0  0
  5  7  1  0  0  0  0
  7  8  1  0  0  0  0
  7  9  1  0  0  0  0
  9 10  1  0  0  0  0
  9 11  1  0  0  0  0
  9 22  1  0  0  0  0
 11 12  1  0  0  0  0
 11 13  1  0  0  0  0
 11 14  1  0  0  0  0
 14 15  1  0  0  0  0
 14 16  1  0  0  0  0
 14 17  1  0  0  0  0
 17 18  1  0  0  0  0
 18 19  1  0  0  0  0
 18 20  1  0  0  0  0
 18 21  1  0  0  0  0
 22 23  2  0  0  0  0
 22 24  1  0  0  0  0
 24 25  1  0  0  0  0
 24 26  1  0  0  0  0
 26 27  1  0  0  0  0
 26 28  1  0  0  0  0
 26 29  1  0  0  0  0
M  END
$$$$

  -OEChem-02102214153D

 29 28  0     1  0  0  0  0  0999 V2000
   -3.0541   -3.7726    1.3119 H   0  0  0  0  0  0  0  0  0  0  0  0
   -3.1408   -2.7143    1.0499 C   0  0  0  0  0  0  0  0  0  0  0  0
   -3.6372   -2.1887    1.8693 H   0  0  0  0  0  0  0  0  0  0  0  0
   -3.7483   -2.6232    0.1462 H   0  0  0  0  0  0  0  0  0  0  0  0
   -1.7650   -2.1209    0.8114 C   0  0  0  0  0  0  0  0  0  0  0  0
   -0.7726   -2.8272    0.8937 O   0  0  0  0  0  0  0  0  0  0  0  0
   -1.6393   -0.7835    0.4996 N   0  0  0  0  0  0  0  0  0  0  0  0
   -2.4787   -0.2095    0.5746 H   0  0  0  0  0  0  0  0  0  0  0  0
   -0.3616   -0.0547    0.4465 C   0  0  1  0  0  0  0  0  0  0  0  0
    0.3597   -0.6059    1.0593 H   0  0  0  0  0  0  0  0  0  0  0  0
    0.1847   -0.1105   -1.0120 C   0  0  0  0  0  0  0  0  0  0  0  0
    1.2490   -0.3404   -0.9003 H   0  0  0  0  0  0  0  0  0  0  0  0
   -0.2569   -0.9742   -1.5206 H   0  0  0  0  0  0  0  0  0  0  0  0
    0.1444    1.0840   -1.9973 C   0  0  0  0  0  0  0  0  0  0  0  0
    0.9527    0.9557   -2.7245 H   0  0  0  0  0  0  0  0  0  0  0  0
   -0.7950    1.0099   -2.5539 H   0  0  0  0  0  0  0  0  0  0  0  0
    0.2421    2.7963   -1.3308 S   0  0  0  0  0  0  0  0  0  0  0  0
   -1.4161    3.4735   -1.7354 C   0  0  0  0  0  0  0  0  0  0  0  0
   -2.1988    2.8559   -1.2850 H   0  0  0  0  0  0  0  0  0  0  0  0
   -1.5091    4.4915   -1.3462 H   0  0  0  0  0  0  0  0  0  0  0  0
   -1.5641    3.4963   -2.8189 H   0  0  0  0  0  0  0  0  0  0  0  0
   -0.5214    1.3013    1.1685 C   0  0  0  0  0  0  0  0  0  0  0  0
   -1.6204    1.8519    1.1816 O   0  0  0  0  0  0  0  0  0  0  0  0
    0.4501    1.7418    2.0493 N   0  0  0  0  0  0  0  0  0  0  0  0
    1.3502    1.2724    2.0220 H   0  0  0  0  0  0  0  0  0  0  0  0
    0.3245    2.9740    2.8179 C   0  0  0  0  0  0  0  0  0  0  0  0
   -0.5300    2.9152    3.5001 H   0  0  0  0  0  0  0  0  0  0  0  0
    1.2282    3.1443    3.4107 H   0  0  0  0  0  0  0  0  0  0  0  0
    0.1836    3.8293    2.1483 H   0  0  0  0  0  0  0  0  0  0  0  0
  1  2  1  0  0  0  0
  2  3  1  0  0  0  0
  2  4  1  0  0  0  0
  2  5  1  0  0  0  0
  5  6  2  0  0  0  0
  5  7  1  0  0  0  0
  7  8  1  0  0  0  0
  7  9  1  0  0  0  0
  9 10  1  0  0  0  0
  9 11  1  0  0  0  0
  9 22  1  0  0  0  0
 11 12  1  0  0  0  0
 11 13  1  0  0  0  0
 11 14  1  0  0  0  0
 14 15  1  0  0  0  0
 14 16  1  0  0  0  0
 14 17  1  0  0  0  0
 17 18  1  0  0  0  0
 18 19  1  0  0  0  0
 18 20  1  0  0  0  0
 18 21  1  0  0  0  0
 22 23  2  0  0  0  0
 22 24  1  0  0  0  0
 24 25  1  0  0  0  0
 24 26  1  0  0  0  0
 26 27  1  0  0  0  0
 26 28  1  0  0  0  0
 26 29  1  0  0  0  0
M  END
$$$$

  -OEChem-02102214153D

 29 28  0     1  0  0  0  0  0999 V2000
   -3.3026   -3.4060    1.2167 H   0  0  0  0  0  0  0  0  0  0  0  0
   -3.2731   -2.4545    0.6345 C   0  0  0  0  0  0  0  0  0  0  0  0
   -3.9502   -1.7424    1.1848 H   0  0  0  0  0  0  0  0  0  0  0  0
   -3.5544   -2.5796   -0.3411 H   0  0  0  0  0  0  0  0  0  0  0  0
   -1.8745   -2.2694    0.0262 C   0  0  0  0  0  0  0  0  0  0  0  0
   -1.1896   -2.5883    1.0980 O   0  0  0  0  0  0  0  0  0  0  0  0
   -1.5070   -1.7404    0.7577 N   0  0  0  0  0  0  0  0  0  0  0  0
   -2.1699   -0.7696    0.2566 H   0  0  0  0  0  0  0  0  0  0  0  0
   -0.4278   -0.5846    1.0834 C   0  0  1  0  0  0  0  0  0  0  0  0
    1.2230   -1.0833    1.2916 H   0  0  0  0  0  0  0  0  0  0  0  0
    0.3740   -0.1553   -0.8598 C   0  0  0  0  0  0  0  0  0  0  0  0
    1.4159   -0.4557   -0.8905 H   0  0  0  0  0  0  0  0  0  0  0  0
   -0.1090   -0.9943   -1.5608 H   0  0  0  0  0  0  0  0  0  0  0  0
    0.2200    1.0455   -1.9456 C   0  0  0  0  0  0  0  0  0  0  0  0
    1.0077    0.9522   -2.7202 H   0  0  0  0  0  0  0  0  0  0  0  0
   -0.7218    1.1659   -2.3407 H   0  0  0  0  0  0  0  0  0  0  0  0
    0.4903    2.9130   -1.0328 S   0  0  0  0  0  0  0  0  0  0  0  0
   -1.3654    4.8132   -0.3402 C   0  0  0  0  0  0  0  0  0  0  0  0
   -3.1644    6.0237    0.1920 H   0  0  0  0  0  0  0  0  0  0  0  0
   -1.0102    3.7805    0.4148 H   0  0  0  0  0  0  0  0  0  0  0  0
   -1.6022    3.7632   -1.1171 H   0  0  0  0  0  0  0  0  0  0  0  0
    0.2763    0.1695    1.2959 C   0  0  0  0  0  0  0  0  0  0  0  0
   -1.4399    0.2469    1.2923 O   0  0  0  0  0  0  0  0  0  0  0  0
    1.3053    1.2412    0.9721 N   0  0  0  0  0  0  0  0  0  0  0  0
    1.1379    1.3240    1.9391 H   0  0  0  0  0  0  0  0  0  0  0  0
    0.5398    3.0446    1.9142 C   0  0  0  0  0  0  0  0  0  0  0  0
   -0.6443    3.5439    2.4188 H   0  0  0  0  0  0  0  0  0  0  0  0
    1.0530    3.5672    2.8272 H   0  0  0  0  0  0  0  0  0  0  0  0
    0.6963    4.1163    1.3905 H   0  0  0  0  0  0  0  0  0  0  0  0
  1  2  1  0  0  0  0
  2  3  1  0  0  0  0
  2  4  1  0  0  0  0
  2  5  1  0  0  0  0
  5  6  2  0  0  0  0
  5  7  1  0  0  0  0
  7  8  1  0  0  0  0
  7  9  1  0  0  0  0
  9 10  1  0  0  0  0
  9 11  1  0  0  0  0
  9 22  1  0  0  0  0
 11 12  1  0  0  0  0
 11 13  1  0  0  0  0
 11 14  1  0  0  0  0
 14 15  1  0  0  0  0
 14 16  1  0  0  0  0
 14 17  1  0  0  0  0
 17 18  1  0  0  0  0
 18 19  1  0  0  0  0
 18 20  1  0  0  0  0
 18 21  1  0  0  0  0
 22 23  2  0  0  0  0
 22 24  1  0  0  0  0
 24 25  1  0  0  0  0
 24 26  1  0  0  0  0
 26 27  1  0  0  0  0
 26 28  1  0  0  0  0
 26 29  1  0  0  0  0
M  END
$$$$

  -OEChem-02102214153D

 29 28  0     1  0  0  0  0  0999 V2000
   -3.7661   -2.3471    1.5645 H   0  0  0  0  0  0  0  0  0  0  0  0
   -3.1301   -2.8807    0.8540 C   0  0  0  0  0  0  0  0  0  0  0  0
   -3.0546   -3.9263    1.1651 H   0  0  0  0  0  0  0  0  0  0  0  0
   -3.5881   -2.8391   -0.1372 H   0  0  0  0  0  0  0  0  0  0  0  0
   -1.7528   -2.2467    0.8130 C   0  0  0  0  0  0  0  0  0  0  0  0
   -0.7613   -2.9195    1.0465 O   0  0  0  0  0  0  0  0  0  0  0  0
   -1.6270   -0.9085    0.5080 N   0  0  0  0  0  0  0  0  0  0  0  0
   -2.4859   -0.3625    0.4469 H   0  0  0  0  0  0  0  0  0  0  0  0
   -0.3752   -0.1419    0.6042 C   0  0  1  0  0  0  0  0  0  0  0  0
    0.3192   -0.6708    1.2657 H   0  0  0  0  0  0  0  0  0  0  0  0
    0.2672   -0.0996   -0.8113 C   0  0  0  0  0  0  0  0  0  0  0  0
    1.3302   -0.3284   -0.6866 H   0  0  0  0  0  0  0  0  0  0  0  0
   -0.1529   -0.9068   -1.4206 H   0  0  0  0  0  0  0  0  0  0  0  0
    0.1911    1.2037   -1.6271 C   0  0  0  0  0  0  0  0  0  0  0  0
    0.6550    1.0417   -2.6053 H   0  0  0  0  0  0  0  0  0  0  0  0
   -0.8641    1.4435   -1.7961 H   0  0  0  0  0  0  0  0  0  0  0  0
    1.0023    2.6467   -0.8199 S   0  0  0  0  0  0  0  0  0  0  0  0
    0.3895    4.0277   -1.8611 C   0  0  0  0  0  0  0  0  0  0  0  0
   -0.7033    4.0708   -1.8265 H   0  0  0  0  0  0  0  0  0  0  0  0
    0.7052    3.8897   -2.8992 H   0  0  0  0  0  0  0  0  0  0  0  0
    0.7882    4.9787   -1.4959 H   0  0  0  0  0  0  0  0  0  0  0  0
   -0.6867    1.2059    1.2925 C   0  0  0  0  0  0  0  0  0  0  0  0
   -1.7588    1.7652    1.0740 O   0  0  0  0  0  0  0  0  0  0  0  0
    0.1387    1.6921    2.2900 N   0  0  0  0  0  0  0  0  0  0  0  0
    1.0439    1.2444    2.3989 H   0  0  0  0  0  0  0  0  0  0  0  0
   -0.0999    2.9606    2.9667 C   0  0  0  0  0  0  0  0  0  0  0  0
   -1.0753    2.9531    3.4647 H   0  0  0  0  0  0  0  0  0  0  0  0
    0.6710    3.1361    3.7231 H   0  0  0  0  0  0  0  0  0  0  0  0
   -0.0765    3.7870    2.2486 H   0  0  0  0  0  0  0  0  0  0  0  0
  1  2  1  0  0  0  0
  2  3  1  0  0  0  0
  2  4  1  0  0  0  0
  2  5  1  0  0  0  0
  5  6  2  0  0  0  0
  5  7  1  0  0  0  0
  7  8  1  0  0  0  0
  7  9  1  0  0  0  0
  9 10  1  0  0  0  0
  9 11  1  0  0  0  0
  9 22  1  0  0  0  0
 11 12  1  0  0  0  0
 11 13  1  0  0  0  0
 11 14  1  0  0  0  0
 14 15  1  0  0  0  0
 14 16  1  0  0  0  0
 14 17  1  0  0  0  0
 17 18  1  0  0  0  0
 18 19  1  0  0  0  0
 18 20  1  0  0  0  0
 18 21  1  0  0  0  0
 22 23  2  0  0  0  0
 22 24  1  0  0  0  0
 24 25  1  0  0  0  0
 24 26  1  0  0  0  0
 26 27  1  0  0  0  0
 26 28  1  0  0  0  0
 26 29  1  0  0  0  0
M  END
$$$$

  -OEChem-02102214153D

 29 28  0     1  0  0  0  0  0999 V2000
   -3.6977   -3.4949    1.2003 H   0  0  0  0  0  0  0  0  0  0  0  0
   -3.5961   -2.4774    0.8125 C   0  0  0  0  0  0  0  0  0  0  0  0
   -4.2712   -1.8203    1.3659 H   0  0  0  0  0  0  0  0  0  0  0  0
   -3.8784   -2.4735   -0.2430 H   0  0  0  0  0  0  0  0  0  0  0  0
   -2.1651   -1.9986    0.9688 C   0  0  0  0  0  0  0  0  0  0  0  0
   -1.3389   -2.7101    1.5174 O   0  0  0  0  0  0  0  0  0  0  0  0
   -1.8039   -0.7562    0.4921 N   0  0  0  0  0  0  0  0  0  0  0  0
   -2.5523   -0.1523    0.1543 H   0  0  0  0  0  0  0  0  0  0  0  0
   -0.5051   -0.1108    0.7397 C   0  0  1  0  0  0  0  0  0  0  0  0
   -0.0363   -0.5820    1.6098 H   0  0  0  0  0  0  0  0  0  0  0  0
    0.4202   -0.3681   -0.4791 C   0  0  0  0  0  0  0  0  0  0  0  0
    1.3987   -0.6875   -0.1064 H   0  0  0  0  0  0  0  0  0  0  0  0
    0.0195   -1.2054   -1.0599 H   0  0  0  0  0  0  0  0  0  0  0  0
    0.6433    0.8162   -1.4307 C   0  0  0  0  0  0  0  0  0  0  0  0
    1.0784    0.4500   -2.3659 H   0  0  0  0  0  0  0  0  0  0  0  0
   -0.3161    1.2848   -1.6748 H   0  0  0  0  0  0  0  0  0  0  0  0
    1.7911    2.0533   -0.6953 S   0  0  0  0  0  0  0  0  0  0  0  0
    1.5912    3.4547   -1.8629 C   0  0  0  0  0  0  0  0  0  0  0  0
    1.8533    3.1439   -2.8785 H   0  0  0  0  0  0  0  0  0  0  0  0
    2.2429    4.2833   -1.5705 H   0  0  0  0  0  0  0  0  0  0  0  0
    0.5547    3.8056   -1.8569 H   0  0  0  0  0  0  0  0  0  0  0  0
   -0.7321    1.3690    1.1257 C   0  0  0  0  0  0  0  0  0  0  0  0
   -1.6353    2.0042    0.5874 O   0  0  0  0  0  0  0  0  0  0  0  0
   -0.0494    1.9339    2.1872 N   0  0  0  0  0  0  0  0  0  0  0  0
    0.7347    1.4089    2.5638 H   0  0  0  0  0  0  0  0  0  0  0  0
   -0.2122    3.3276    2.5804 C   0  0  0  0  0  0  0  0  0  0  0  0
   -1.2507    3.5272    2.8649 H   0  0  0  0  0  0  0  0  0  0  0  0
    0.4296    3.5564    3.4365 H   0  0  0  0  0  0  0  0  0  0  0  0
    0.0616    3.9916    1.7536 H   0  0  0  0  0  0  0  0  0  0  0  0
  1  2  1  0  0  0  0
  2  3  1  0  0  0  0
  2  4  1  0  0  0  0
  2  5  1  0  0  0  0
  5  6  2  0  0  0  0
  5  7  1  0  0  0  0
  7  8  1  0  0  0  0
  7  9  1  0  0  0  0
  9 10  1  0  0  0  0
  9 11  1  0  0  0  0
  9 22  1  0  0  0  0
 11 12  1  0  0  0  0
 11 13  1  0  0  0  0
 11 14  1  0  0  0  0
 14 15  1  0  0  0  0
 14 16  1  0  0  0  0
 14 17  1  0  0  0  0
 17 18  1  0  0  0  0
 18 19  1  0  0  0  0
 18 20  1  0  0  0  0
 18 21  1  0  0  0  0
 22 23  2  0  0  0  0
 22 24  1  0  0  0  0
 24 25  1  0  0  0  0
 24 26  1  0  0  0  0
 26 27  1  0  0  0  0
 26 28  1  0  0  0  0
 26 29  1  0  0  0  0
M  END
$$$$

  -OEChem-02102214153D

 29 28  0     1  0  0  0  0  0999 V2000
   -3.6598   -3.5515    0.7515 H   0  0  0  0  0  0  0  0  0  0  0  0
   -3.5691   -2.4973    0.4752 C   0  0  0  0  0  0  0  0  0  0  0  0
   -4.2125   -1.9052    1.1305 H   0  0  0  0  0  0  0  0  0  0  0  0
   -3.9001   -2.3742   -0.5587 H   0  0  0  0  0  0  0  0  0  0  0  0
   -2.1288   -2.0426    0.6149 C   0  0  0  0  0  0  0  0  0  0  0  0
   -1.2739   -2.8300    0.9877 O   0  0  0  0  0  0  0  0  0  0  0  0
   -1.7912   -0.7377    0.3220 N   0  0  0  0  0  0  0  0  0  0  0  0
   -2.5556   -0.0921    0.1293 H   0  0  0  0  0  0  0  0  0  0  0  0
   -0.4748   -0.1357    0.5847 C   0  0  1  0  0  0  0  0  0  0  0  0
    0.0275   -0.7441    1.3440 H   0  0  0  0  0  0  0  0  0  0  0  0
    0.4056   -0.2051   -0.6874 C   0  0  0  0  0  0  0  0  0  0  0  0
    1.3959   -0.5819   -0.4121 H   0  0  0  0  0  0  0  0  0  0  0  0
   -0.0265   -0.9412   -1.3735 H   0  0  0  0  0  0  0  0  0  0  0  0
    0.5774    1.1200   -1.4438 C   0  0  0  0  0  0  0  0  0  0  0  0
    0.7513    0.9028   -2.5023 H   0  0  0  0  0  0  0  0  0  0  0  0
   -0.3252    1.7362   -1.3880 H   0  0  0  0  0  0  0  0  0  0  0  0
    2.0445    2.0198   -0.7971 S   0  0  0  0  0  0  0  0  0  0  0  0
    1.9116    3.6048   -1.7121 C   0  0  0  0  0  0  0  0  0  0  0  0
    2.7333    4.2705   -1.4319 H   0  0  0  0  0  0  0  0  0  0  0  0
    1.9575    3.4257   -2.7904 H   0  0  0  0  0  0  0  0  0  0  0  0
    0.9642    4.0989   -1.4761 H   0  0  0  0  0  0  0  0  0  0  0  0
   -0.6204    1.2660    1.2198 C   0  0  0  0  0  0  0  0  0  0  0  0
   -1.5467    1.9948    0.8760 O   0  0  0  0  0  0  0  0  0  0  0  0
    0.1592    1.6321    2.3010 N   0  0  0  0  0  0  0  0  0  0  0  0
    0.9447    1.0303    2.5323 H   0  0  0  0  0  0  0  0  0  0  0  0
    0.0519    2.9285    2.9577 C   0  0  0  0  0  0  0  0  0  0  0  0
   -0.9448    3.0568    3.3930 H   0  0  0  0  0  0  0  0  0  0  0  0
    0.7912    3.0077    3.7604 H   0  0  0  0  0  0  0  0  0  0  0  0
    0.2310    3.7369    2.2409 H   0  0  0  0  0  0  0  0  0  0  0  0
  1  2  1  0  0  0  0
  2  3  1  0  0  0  0
  2  4  1  0  0  0  0
  2  5  1  0  0  0  0
  5  6  2  0  0  0  0
  5  7  1  0  0  0  0
  7  8  1  0  0  0  0
  7  9  1  0  0  0  0
  9 10  1  0  0  0  0
  9 11  1  0  0  0  0
  9 22  1  0  0  0  0
 11 12  1  0  0  0  0
 11 13  1  0  0  0  0
 11 14  1  0  0  0  0
 14 15  1  0  0  0  0
 14 16  1  0  0  0  0
 14 17  1  0  0  0  0
 17 18  1  0  0  0  0
 18 19  1  0  0  0  0
 18 20  1  0  0  0  0
 18 21  1  0  0  0  0
 22 23  2  0  0  0  0
 22 24  1  0  0  0  0
 24 25  1  0  0  0  0
 24 26  1  0  0  0  0
 26 27  1  0  0  0  0
 26 28  1  0  0  0  0
 26 29  1  0  0  0  0
M  END
$$$$

  -OEChem-02102214153D

 29 28  0     1  0  0  0  0  0999 V2000
   -3.6536   -3.4994    0.8070 H   0  0  0  0  0  0  0  0  0  0  0  0
   -3.5481   -2.4557    0.4981 C   0  0  0  0  0  0  0  0  0  0  0  0
   -4.2007   -1.8373    1.1190 H   0  0  0  0  0  0  0  0  0  0  0  0
   -3.8562   -2.3641   -0.5462 H   0  0  0  0  0  0  0  0  0  0  0  0
   -2.1070   -2.0075    0.6532 C   0  0  0  0  0  0  0  0  0  0  0  0
   -1.2592   -2.7976    1.0361 O   0  0  0  0  0  0  0  0  0  0  0  0
   -1.7608   -0.7058    0.3567 N   0  0  0  0  0  0  0  0  0  0  0  0
   -2.5202   -0.0600    0.1467 H   0  0  0  0  0  0  0  0  0  0  0  0
   -0.4405   -0.1083    0.6102 C   0  0  1  0  0  0  0  0  0  0  0  0
    0.0517   -0.7175    1.3757 H   0  0  0  0  0  0  0  0  0  0  0  0
    0.4479   -0.2087   -0.6542 C   0  0  0  0  0  0  0  0  0  0  0  0
    1.4306   -0.5901   -0.3584 H   0  0  0  0  0  0  0  0  0  0  0  0
    0.0182   -0.9600   -1.3250 H   0  0  0  0  0  0  0  0  0  0  0  0
    0.6424    1.0945   -1.4500 C   0  0  0  0  0  0  0  0  0  0  0  0
    0.5603    0.8645   -2.5169 H   0  0  0  0  0  0  0  0  0  0  0  0
   -0.1273    1.8393   -1.2335 H   0  0  0  0  0  0  0  0  0  0  0  0
    2.3226    1.7728   -1.1461 S   0  0  0  0  0  0  0  0  0  0  0  0
    2.2510    3.3247   -2.1234 C   0  0  0  0  0  0  0  0  0  0  0  0
    1.4444    3.9665   -1.7561 H   0  0  0  0  0  0  0  0  0  0  0  0
    3.1973    3.8669   -2.0371 H   0  0  0  0  0  0  0  0  0  0  0  0
    2.0704    3.1003   -3.1789 H   0  0  0  0  0  0  0  0  0  0  0  0
   -0.5559    1.2967    1.2424 C   0  0  0  0  0  0  0  0  0  0  0  0
   -1.4713    2.0412    0.9048 O   0  0  0  0  0  0  0  0  0  0  0  0
    0.2415    1.6541    2.3135 N   0  0  0  0  0  0  0  0  0  0  0  0
    1.0002    1.0251    2.5616 H   0  0  0  0  0  0  0  0  0  0  0  0
    0.1576    2.9506    2.9743 C   0  0  0  0  0  0  0  0  0  0  0  0
   -0.8427    3.1044    3.3928 H   0  0  0  0  0  0  0  0  0  0  0  0
    0.8848    3.0070    3.7901 H   0  0  0  0  0  0  0  0  0  0  0  0
    0.3703    3.7567    2.2642 H   0  0  0  0  0  0  0  0  0  0  0  0
  1  2  1  0  0  0  0
  2  3  1  0  0  0  0
  2  4  1  0  0  0  0
  2  5  1  0  0  0  0
  5  6  2  0  0  0  0
  5  7  1  0  0  0  0
  7  8  1  0  0  0  0
  7  9  1  0  0  0  0
  9 10  1  0  0  0  0
  9 11  1  0  0  0  0
  9 22  1  0  0  0  0
 11 12  1  0  0  0  0
 11 13  1  0  0  0  0
 11 14  1  0  0  0  0
 14 15  1  0  0  0  0
 14 16  1  0  0  0  0
 14 17  1  0  0  0  0
 17 18  1  0  0  0  0
 18 19  1  0  0  0  0
 18 20  1  0  0  0  0
 18 21  1  0  0  0  0
 22 23  2  0  0  0  0
 22 24  1  0  0  0  0
 24 25  1  0  0  0  0
 24 26  1  0  0  0  0
 26 27  1  0  0  0  0
 26 28  1  0  0  0  0
 26 29  1  0  0  0  0
M  END
$$$$

  -OEChem-02102214153D

 29 28  0     1  0  0  0  0  0999 V2000
   -3.3401   -3.4571    1.2376 H   0  0  0  0  0  0  0  0  0  0  0  0
   -3.3305   -2.4642    0.7793 C   0  0  0  0  0  0  0  0  0  0  0  0
   -3.9843   -1.8047    1.3552 H   0  0  0  0  0  0  0  0  0  0  0  0
   -3.7118   -2.5438   -0.2415 H   0  0  0  0  0  0  0  0  0  0  0  0
   -1.9185   -1.9097    0.7625 C   0  0  0  0  0  0  0  0  0  0  0  0
   -0.9949   -2.5765    1.2008 O   0  0  0  0  0  0  0  0  0  0  0  0
   -1.6836   -0.6470    0.2590 N   0  0  0  0  0  0  0  0  0  0  0  0
   -2.4956   -0.0901   -0.0025 H   0  0  0  0  0  0  0  0  0  0  0  0
   -0.3873    0.0470    0.2984 C   0  0  1  0  0  0  0  0  0  0  0  0
    0.2145   -0.4206    1.0846 H   0  0  0  0  0  0  0  0  0  0  0  0
    0.3696   -0.2013   -1.0332 C   0  0  0  0  0  0  0  0  0  0  0  0
    1.3977   -0.4751   -0.7768 H   0  0  0  0  0  0  0  0  0  0  0  0
   -0.0582   -1.0779   -1.5314 H   0  0  0  0  0  0  0  0  0  0  0  0
    0.4226    0.9581   -2.0521 C   0  0  0  0  0  0  0  0  0  0  0  0
   -0.0290    0.6128   -2.9877 H   0  0  0  0  0  0  0  0  0  0  0  0
   -0.1510    1.8324   -1.7389 H   0  0  0  0  0  0  0  0  0  0  0  0
    2.1582    1.4577   -2.4024 S   0  0  0  0  0  0  0  0  0  0  0  0
    2.6335    2.3597   -0.8758 C   0  0  0  0  0  0  0  0  0  0  0  0
    2.6393    1.6810   -0.0189 H   0  0  0  0  0  0  0  0  0  0  0  0
    3.6348    2.7854   -0.9897 H   0  0  0  0  0  0  0  0  0  0  0  0
    1.9278    3.1727   -0.6804 H   0  0  0  0  0  0  0  0  0  0  0  0
   -0.5440    1.5170    0.7419 C   0  0  0  0  0  0  0  0  0  0  0  0
   -1.5127    2.1688    0.3674 O   0  0  0  0  0  0  0  0  0  0  0  0
    0.3175    2.0652    1.6743 N   0  0  0  0  0  0  0  0  0  0  0  0
    1.0401    1.4621    2.0578 H   0  0  0  0  0  0  0  0  0  0  0  0
    0.1472    3.4024    2.2298 C   0  0  0  0  0  0  0  0  0  0  0  0
   -0.7983    3.4723    2.7781 H   0  0  0  0  0  0  0  0  0  0  0  0
    0.9653    3.6337    2.9188 H   0  0  0  0  0  0  0  0  0  0  0  0
    0.1472    4.1518    1.4310 H   0  0  0  0  0  0  0  0  0  0  0  0
  1  2  1  0  0  0  0
  2  3  1  0  0  0  0
  2  4  1  0  0  0  0
  2  5  1  0  0  0  0
  5  6  2  0  0  0  0
  5  7  1  0  0  0  0
  7  8  1  0  0  0  0
  7  9  1  0  0  0  0
  9 10  1  0  0  0  0
  9 11  1  0  0  0  0
  9 22  1  0  0  0  0
 11 12  1  0  0  0  0
 11 13  1  0  0  0  0
 11 14  1  0  0  0  0
 14 15  1  0  0  0  0
 14 16  1  0  0  0  0
 14 17  1  0  0  0  0
 17 18  1  0  0  0  0
 18 19  1  0  0  0  0
 18 20  1  0  0  0  0
 18 21  1  0  0  0  0
 22 23  2  0  0  0  0
 22 24  1  0  0  0  0
 24 25  1  0  0  0  0
 24 26  1  0  0  0  0
 26 27  1  0  0  0  0
 26 28  1  0  0  0  0
 26 29  1  0  0  0  0
M  END
$$$$

  -OEChem-02102214153D

 29 28  0     1  0  0  0  0  0999 V2000
   -3.3413   -3.4564    1.2431 H   0  0  0  0  0  0  0  0  0  0  0  0
   -3.3309   -2.4662    0.7792 C   0  0  0  0  0  0  0  0  0  0  0  0
   -3.9898   -1.8046    1.3467 H   0  0  0  0  0  0  0  0  0  0  0  0
   -3.7046   -2.5524   -0.2439 H   0  0  0  0  0  0  0  0  0  0  0  0
   -1.9202   -1.9093    0.7697 C   0  0  0  0  0  0  0  0  0  0  0  0
   -0.9984   -2.5730    1.2164 O   0  0  0  0  0  0  0  0  0  0  0  0
   -1.6849   -0.6475    0.2645 N   0  0  0  0  0  0  0  0  0  0  0  0
   -2.4954   -0.0943   -0.0099 H   0  0  0  0  0  0  0  0  0  0  0  0
   -0.3873    0.0436    0.2982 C   0  0  1  0  0  0  0  0  0  0  0  0
    0.2177   -0.4253    1.0814 H   0  0  0  0  0  0  0  0  0  0  0  0
    0.3596   -0.2043   -1.0383 C   0  0  0  0  0  0  0  0  0  0  0  0
    1.3896   -0.4614   -0.7730 H   0  0  0  0  0  0  0  0  0  0  0  0
   -0.0517   -1.0889   -1.5360 H   0  0  0  0  0  0  0  0  0  0  0  0
    0.4096    0.9566   -2.0562 C   0  0  0  0  0  0  0  0  0  0  0  0
   -0.2922    0.7436   -2.8687 H   0  0  0  0  0  0  0  0  0  0  0  0
    0.1160    1.9171   -1.6296 H   0  0  0  0  0  0  0  0  0  0  0  0
    2.1057    1.1386   -2.7419 S   0  0  0  0  0  0  0  0  0  0  0  0
    2.9735    2.0066   -1.3752 C   0  0  0  0  0  0  0  0  0  0  0  0
    2.9751    1.3916   -0.4710 H   0  0  0  0  0  0  0  0  0  0  0  0
    4.0098    2.2107   -1.6609 H   0  0  0  0  0  0  0  0  0  0  0  0
    2.4777    2.9568   -1.1547 H   0  0  0  0  0  0  0  0  0  0  0  0
   -0.5394    1.5138    0.7414 C   0  0  0  0  0  0  0  0  0  0  0  0
   -1.4983    2.1724    0.3541 O   0  0  0  0  0  0  0  0  0  0  0  0
    0.3271    2.0607    1.6697 N   0  0  0  0  0  0  0  0  0  0  0  0
    1.0519    1.4579    2.0489 H   0  0  0  0  0  0  0  0  0  0  0  0
    0.1700    3.4034    2.2157 C   0  0  0  0  0  0  0  0  0  0  0  0
   -0.7928    3.4989    2.7290 H   0  0  0  0  0  0  0  0  0  0  0  0
    0.9673    3.6151    2.9347 H   0  0  0  0  0  0  0  0  0  0  0  0
    0.2189    4.1502    1.4162 H   0  0  0  0  0  0  0  0  0  0  0  0
  1  2  1  0  0  0  0
  2  3  1  0  0  0  0
  2  4  1  0  0  0  0
  2  5  1  0  0  0  0
  5  6  2  0  0  0  0
  5  7  1  0  0  0  0
  7  8  1  0  0  0  0
  7  9  1  0  0  0  0
  9 10  1  0  0  0  0
  9 11  1  0  0  0  0
  9 22  1  0  0  0  0
 11 12  1  0  0  0  0
 11 13  1  0  0  0  0
 11 14  1  0  0  0  0
 14 15  1  0  0  0  0
 14 16  1  0  0  0  0
 14 17  1  0  0  0  0
 17 18  1  0  0  0  0
 18 19  1  0  0  0  0
 18 20  1  0  0  0  0
 18 21  1  0  0  0  0
 22 23  2  0  0  0  0
 22 24  1  0  0  0  0
 24 25  1  0  0  0  0
 24 26  1  0  0  0  0
 26 27  1  0  0  0  0
 26 28  1  0  0  0  0
 26 29  1  0  0  0  0
M  END
$$$$

  -OEChem-02102214153D

 29 28  0     1  0  0  0  0  0999 V2000
   -3.3521   -3.4538    1.2398 H   0  0  0  0  0  0  0  0  0  0  0  0
   -3.3352   -2.4608    0.7818 C   0  0  0  0  0  0  0  0  0  0  0  0
   -3.9952   -1.8001    1.3490 H   0  0  0  0  0  0  0  0  0  0  0  0
   -3.7033   -2.5401   -0.2439 H   0  0  0  0  0  0  0  0  0  0  0  0
   -1.9222   -1.9087    0.7832 C   0  0  0  0  0  0  0  0  0  0  0  0
   -1.0070   -2.5723    1.2435 O   0  0  0  0  0  0  0  0  0  0  0  0
   -1.6774   -0.6511    0.2723 N   0  0  0  0  0  0  0  0  0  0  0  0
   -2.4827   -0.0964   -0.0136 H   0  0  0  0  0  0  0  0  0  0  0  0
   -0.3761    0.0330    0.3061 C   0  0  1  0  0  0  0  0  0  0  0  0
    0.2366   -0.4372    1.0823 H   0  0  0  0  0  0  0  0  0  0  0  0
    0.3494   -0.2047   -1.0441 C   0  0  0  0  0  0  0  0  0  0  0  0
    1.3836   -0.4596   -0.7944 H   0  0  0  0  0  0  0  0  0  0  0  0
   -0.0680   -1.0816   -1.5501 H   0  0  0  0  0  0  0  0  0  0  0  0
    0.3881    0.9737   -2.0384 C   0  0  0  0  0  0  0  0  0  0  0  0
   -0.5026    0.9400   -2.6738 H   0  0  0  0  0  0  0  0  0  0  0  0
    0.3963    1.9442   -1.5375 H   0  0  0  0  0  0  0  0  0  0  0  0
    1.9085    0.8824   -3.0680 S   0  0  0  0  0  0  0  0  0  0  0  0
    3.1867    1.5873   -1.9526 C   0  0  0  0  0  0  0  0  0  0  0  0
    3.2859    0.9792   -1.0492 H   0  0  0  0  0  0  0  0  0  0  0  0
    4.1539    1.6131   -2.4634 H   0  0  0  0  0  0  0  0  0  0  0  0
    2.9168    2.6075   -1.6638 H   0  0  0  0  0  0  0  0  0  0  0  0
   -0.5378    1.5039    0.7424 C   0  0  0  0  0  0  0  0  0  0  0  0
   -1.4825    2.1641    0.3245 O   0  0  0  0  0  0  0  0  0  0  0  0
    0.3193    2.0602    1.6737 N   0  0  0  0  0  0  0  0  0  0  0  0
    1.0346    1.4591    2.0733 H   0  0  0  0  0  0  0  0  0  0  0  0
    0.1591    3.4108    2.1989 C   0  0  0  0  0  0  0  0  0  0  0  0
   -0.8013    3.5098    2.7158 H   0  0  0  0  0  0  0  0  0  0  0  0
    0.9596    3.6382    2.9095 H   0  0  0  0  0  0  0  0  0  0  0  0
    0.1998    4.1450    1.3873 H   0  0  0  0  0  0  0  0  0  0  0  0
  1  2  1  0  0  0  0
  2  3  1  0  0  0  0
  2  4  1  0  0  0  0
  2  5  1  0  0  0  0
  5  6  2  0  0  0  0
  5  7  1  0  0  0  0
  7  8  1  0  0  0  0
  7  9  1  0  0  0  0
  9 10  1  0  0  0  0
  9 11  1  0  0  0  0
  9 22  1  0  0  0  0
 11 12  1  0  0  0  0
 11 13  1  0  0  0  0
 11 14  1  0  0  0  0
 14 15  1  0  0  0  0
 14 16  1  0  0  0  0
 14 17  1  0  0  0  0
 17 18  1  0  0  0  0
 18 19  1  0  0  0  0
 18 20  1  0  0  0  0
 18 21  1  0  0  0  0
 22 23  2  0  0  0  0
 22 24  1  0  0  0  0
 24 25  1  0  0  0  0
 24 26  1  0  0  0  0
 26 27  1  0  0  0  0
 26 28  1  0  0  0  0
 26 29  1  0  0  0  0
M  END
$$$$

  -OEChem-02102214153D

 29 28  0     1  0  0  0  0  0999 V2000
   -3.3445   -3.4540    1.2483 H   0  0  0  0  0  0  0  0  0  0  0  0
   -3.3271   -2.4640    0.7841 C   0  0  0  0  0  0  0  0  0  0  0  0
   -3.9941   -1.8021    1.3416 H   0  0  0  0  0  0  0  0  0  0  0  0
   -3.6867   -2.5510   -0.2440 H   0  0  0  0  0  0  0  0  0  0  0  0
   -1.9160   -1.9071    0.7933 C   0  0  0  0  0  0  0  0  0  0  0  0
   -1.0023   -2.5642    1.2660 O   0  0  0  0  0  0  0  0  0  0  0  0
   -1.6706   -0.6524    0.2757 N   0  0  0  0  0  0  0  0  0  0  0  0
   -2.4743   -0.1037   -0.0258 H   0  0  0  0  0  0  0  0  0  0  0  0
   -0.3696    0.0322    0.3059 C   0  0  1  0  0  0  0  0  0  0  0  0
    0.2495   -0.4360    1.0784 H   0  0  0  0  0  0  0  0  0  0  0  0
    0.3443   -0.1960   -1.0510 C   0  0  0  0  0  0  0  0  0  0  0  0
    1.3820   -0.4552   -0.8237 H   0  0  0  0  0  0  0  0  0  0  0  0
   -0.0877   -1.0611   -1.5651 H   0  0  0  0  0  0  0  0  0  0  0  0
    0.3604    1.0026   -2.0153 C   0  0  0  0  0  0  0  0  0  0  0  0
   -0.6365    1.1359   -2.4481 H   0  0  0  0  0  0  0  0  0  0  0  0
    0.6294    1.9301   -1.5021 H   0  0  0  0  0  0  0  0  0  0  0  0
    1.5953    0.7224   -3.3479 S   0  0  0  0  0  0  0  0  0  0  0  0
    3.1864    1.1305   -2.5247 C   0  0  0  0  0  0  0  0  0  0  0  0
    3.3806    0.4405   -1.6991 H   0  0  0  0  0  0  0  0  0  0  0  0
    4.0084    1.0535   -3.2426 H   0  0  0  0  0  0  0  0  0  0  0  0
    3.1591    2.1515   -2.1330 H   0  0  0  0  0  0  0  0  0  0  0  0
   -0.5333    1.5058    0.7344 C   0  0  0  0  0  0  0  0  0  0  0  0
   -1.4711    2.1670    0.3031 O   0  0  0  0  0  0  0  0  0  0  0  0
    0.3228    2.0679    1.6632 N   0  0  0  0  0  0  0  0  0  0  0  0
    1.0343    1.4679    2.0712 H   0  0  0  0  0  0  0  0  0  0  0  0
    0.1672    3.4247    2.1736 C   0  0  0  0  0  0  0  0  0  0  0  0
   -0.7953    3.5344    2.6841 H   0  0  0  0  0  0  0  0  0  0  0  0
    0.9649    3.6548    2.8862 H   0  0  0  0  0  0  0  0  0  0  0  0
    0.2165    4.1503    1.3548 H   0  0  0  0  0  0  0  0  0  0  0  0
  1  2  1  0  0  0  0
  2  3  1  0  0  0  0
  2  4  1  0  0  0  0
  2  5  1  0  0  0  0
  5  6  2  0  0  0  0
  5  7  1  0  0  0  0
  7  8  1  0  0  0  0
  7  9  1  0  0  0  0
  9 10  1  0  0  0  0
  9 11  1  0  0  0  0
  9 22  1  0  0  0  0
 11 12  1  0  0  0  0
 11 13  1  0  0  0  0
 11 14  1  0  0  0  0
 14 15  1  0  0  0  0
 14 16  1  0  0  0  0
 14 17  1  0  0  0  0
 17 18  1  0  0  0  0
 18 19  1  0  0  0  0
 18 20  1  0  0  0  0
 18 21  1  0  0  0  0
 22 23  2  0  0  0  0
 22 24  1  0  0  0  0
 24 25  1  0  0  0  0
 24 26  1  0  0  0  0
 26 27  1  0  0  0  0
 26 28  1  0  0  0  0
 26 29  1  0  0  0  0
M  END
$$$$

  -OEChem-02102214153D

 29 28  0     1  0  0  0  0  0999 V2000
   -3.3113   -3.4433    1.2595 H   0  0  0  0  0  0  0  0  0  0  0  0
   -3.2947   -2.4590    0.7832 C   0  0  0  0  0  0  0  0  0  0  0  0
   -3.9639   -1.7913    1.3313 H   0  0  0  0  0  0  0  0  0  0  0  0
   -3.6516   -2.5585   -0.2448 H   0  0  0  0  0  0  0  0  0  0  0  0
   -1.8847   -1.8996    0.7879 C   0  0  0  0  0  0  0  0  0  0  0  0
   -0.9667   -2.5547    1.2553 O   0  0  0  0  0  0  0  0  0  0  0  0
   -1.6457   -0.6443    0.2703 N   0  0  0  0  0  0  0  0  0  0  0  0
   -2.4523   -0.0974   -0.0275 H   0  0  0  0  0  0  0  0  0  0  0  0
   -0.3472    0.0445    0.2986 C   0  0  1  0  0  0  0  0  0  0  0  0
    0.2829   -0.4157    1.0668 H   0  0  0  0  0  0  0  0  0  0  0  0
    0.3610   -0.1597   -1.0662 C   0  0  0  0  0  0  0  0  0  0  0  0
    1.2949   -0.6978   -0.8810 H   0  0  0  0  0  0  0  0  0  0  0  0
   -0.2517   -0.8018   -1.7080 H   0  0  0  0  0  0  0  0  0  0  0  0
    0.6800    1.1269   -1.8428 C   0  0  0  0  0  0  0  0  0  0  0  0
   -0.2492    1.6646   -2.0616 H   0  0  0  0  0  0  0  0  0  0  0  0
    1.3246    1.7865   -1.2537 H   0  0  0  0  0  0  0  0  0  0  0  0
    1.5137    0.7233   -3.4308 S   0  0  0  0  0  0  0  0  0  0  0  0
    3.2052    0.2321   -2.9082 C   0  0  0  0  0  0  0  0  0  0  0  0
    3.1714   -0.6693   -2.2901 H   0  0  0  0  0  0  0  0  0  0  0  0
    3.8212    0.0256   -3.7884 H   0  0  0  0  0  0  0  0  0  0  0  0
    3.6738    1.0372   -2.3348 H   0  0  0  0  0  0  0  0  0  0  0  0
   -0.5330    1.5161    0.7299 C   0  0  0  0  0  0  0  0  0  0  0  0
   -1.4833    2.1637    0.3054 O   0  0  0  0  0  0  0  0  0  0  0  0
    0.3139    2.0884    1.6611 N   0  0  0  0  0  0  0  0  0  0  0  0
    1.0404    1.5012    2.0612 H   0  0  0  0  0  0  0  0  0  0  0  0
    0.1357    3.4406    2.1767 C   0  0  0  0  0  0  0  0  0  0  0  0
   -0.8417    3.5408    2.6605 H   0  0  0  0  0  0  0  0  0  0  0  0
    0.9111    3.6703    2.9137 H   0  0  0  0  0  0  0  0  0  0  0  0
    0.2032    4.1721    1.3645 H   0  0  0  0  0  0  0  0  0  0  0  0
  1  2  1  0  0  0  0
  2  3  1  0  0  0  0
  2  4  1  0  0  0  0
  2  5  1  0  0  0  0
  5  6  2  0  0  0  0
  5  7  1  0  0  0  0
  7  8  1  0  0  0  0
  7  9  1  0  0  0  0
  9 10  1  0  0  0  0
  9 11  1  0  0  0  0
  9 22  1  0  0  0  0
 11 12  1  0  0  0  0
 11 13  1  0  0  0  0
 11 14  1  0  0  0  0
 14 15  1  0  0  0  0
 14 16  1  0  0  0  0
 14 17  1  0  0  0  0
 17 18  1  0  0  0  0
 18 19  1  0  0  0  0
 18 20  1  0  0  0  0
 18 21  1  0  0  0  0
 22 23  2  0  0  0  0
 22 24  1  0  0  0  0
 24 25  1  0  0  0  0
 24 26  1  0  0  0  0
 26 27  1  0  0  0  0
 26 28  1  0  0  0  0
 26 29  1  0  0  0  0
M  END
$$$$

  -OEChem-02102214153D

 29 28  0     1  0  0  0  0  0999 V2000
   -3.2266   -3.4751    1.1804 H   0  0  0  0  0  0  0  0  0  0  0  0
   -3.2392   -2.4665    0.7579 C   0  0  0  0  0  0  0  0  0  0  0  0
   -3.8958   -1.8384    1.3647 H   0  0  0  0  0  0  0  0  0  0  0  0
   -3.6326   -2.5161   -0.2603 H   0  0  0  0  0  0  0  0  0  0  0  0
   -1.8370   -1.8877    0.7435 C   0  0  0  0  0  0  0  0  0  0  0  0
   -0.9011   -2.5384    1.1810 O   0  0  0  0  0  0  0  0  0  0  0  0
   -1.6244   -0.6199    0.2449 N   0  0  0  0  0  0  0  0  0  0  0  0
   -2.4441   -0.0774   -0.0244 H   0  0  0  0  0  0  0  0  0  0  0  0
   -0.3372    0.0903    0.2761 C   0  0  1  0  0  0  0  0  0  0  0  0
    0.2955   -0.3700    1.0424 H   0  0  0  0  0  0  0  0  0  0  0  0
    0.3880   -0.0978   -1.0822 C   0  0  0  0  0  0  0  0  0  0  0  0
    1.3278   -0.6276   -0.9005 H   0  0  0  0  0  0  0  0  0  0  0  0
   -0.2207   -0.7439   -1.7238 H   0  0  0  0  0  0  0  0  0  0  0  0
    0.6934    1.1917   -1.8613 C   0  0  0  0  0  0  0  0  0  0  0  0
   -0.1931    1.8334   -1.8902 H   0  0  0  0  0  0  0  0  0  0  0  0
    1.5029    1.7492   -1.3797 H   0  0  0  0  0  0  0  0  0  0  0  0
    1.1352    0.7992   -3.6026 S   0  0  0  0  0  0  0  0  0  0  0  0
    2.7157   -0.1220   -3.4358 C   0  0  0  0  0  0  0  0  0  0  0  0
    2.5536   -1.0706   -2.9160 H   0  0  0  0  0  0  0  0  0  0  0  0
    3.1293   -0.3351   -4.4259 H   0  0  0  0  0  0  0  0  0  0  0  0
    3.4428    0.4707   -2.8730 H   0  0  0  0  0  0  0  0  0  0  0  0
   -0.5325    1.5531    0.7318 C   0  0  0  0  0  0  0  0  0  0  0  0
   -1.5079    2.1890    0.3484 O   0  0  0  0  0  0  0  0  0  0  0  0
    0.3184    2.1178    1.6641 N   0  0  0  0  0  0  0  0  0  0  0  0
    1.0569    1.5315    2.0429 H   0  0  0  0  0  0  0  0  0  0  0  0
    0.1109    3.4439    2.2334 C   0  0  0  0  0  0  0  0  0  0  0  0
   -0.8242    3.4738    2.8024 H   0  0  0  0  0  0  0  0  0  0  0  0
    0.9347    3.7003    2.9063 H   0  0  0  0  0  0  0  0  0  0  0  0
    0.0656    4.1991    1.4416 H   0  0  0  0  0  0  0  0  0  0  0  0
  1  2  1  0  0  0  0
  2  3  1  0  0  0  0
  2  4  1  0  0  0  0
  2  5  1  0  0  0  0
  5  6  2  0  0  0  0
  5  7  1  0  0  0  0
  7  8  1  0  0  0  0
  7  9  1  0  0  0  0
  9 10  1  0  0  0  0
  9 11  1  0  0  0  0
  9 22  1  0  0  0  0
 11 12  1  0  0  0  0
 11 13  1  0  0  0  0
 11 14  1  0  0  0  0
 14 15  1  0  0  0  0
 14 16  1  0  0  0  0
 14 17  1  0  0  0  0
 17 18  1  0  0  0  0
 18 19  1  0  0  0  0
 18 20  1  0  0  0  0
 18 21  1  0  0  0  0
 22 23  2  0  0  0  0
 22 24  1  0  0  0  0
 24 25  1  0  0  0  0
 24 26  1  0  0  0  0
 26 27  1  0  0  0  0
 26 28  1  0  0  0  0
 26 29  1  0  0  0  0
M  END
$$$$

  -OEChem-02102214153D

 29 28  0     1  0  0  0  0  0999 V2000
   -3.1953   -3.4844    1.1324 H   0  0  0  0  0  0  0  0  0  0  0  0
   -3.2171   -2.4714    0.7210 C   0  0  0  0  0  0  0  0  0  0  0  0
   -3.8780   -1.8554    1.3357 H   0  0  0  0  0  0  0  0  0  0  0  0
   -3.6114   -2.5131   -0.2972 H   0  0  0  0  0  0  0  0  0  0  0  0
   -1.8199   -1.8809    0.7109 C   0  0  0  0  0  0  0  0  0  0  0  0
   -0.8759   -2.5340    1.1267 O   0  0  0  0  0  0  0  0  0  0  0  0
   -1.6202   -0.6022    0.2347 N   0  0  0  0  0  0  0  0  0  0  0  0
   -2.4453   -0.0624   -0.0231 H   0  0  0  0  0  0  0  0  0  0  0  0
   -0.3380    0.1169    0.2680 C   0  0  1  0  0  0  0  0  0  0  0  0
    0.2969   -0.3511    1.0275 H   0  0  0  0  0  0  0  0  0  0  0  0
    0.3932   -0.0613   -1.0900 C   0  0  0  0  0  0  0  0  0  0  0  0
    1.3327   -0.5947   -0.9154 H   0  0  0  0  0  0  0  0  0  0  0  0
   -0.2201   -0.7101   -1.7246 H   0  0  0  0  0  0  0  0  0  0  0  0
    0.7024    1.2205   -1.8863 C   0  0  0  0  0  0  0  0  0  0  0  0
   -0.0742    1.9743   -1.7310 H   0  0  0  0  0  0  0  0  0  0  0  0
    1.6579    1.6482   -1.5669 H   0  0  0  0  0  0  0  0  0  0  0  0
    0.7142    0.8648   -3.6905 S   0  0  0  0  0  0  0  0  0  0  0  0
    2.1151   -0.3113   -3.8612 C   0  0  0  0  0  0  0  0  0  0  0  0
    1.9022   -1.2415   -3.3263 H   0  0  0  0  0  0  0  0  0  0  0  0
    2.2778   -0.5471   -4.9169 H   0  0  0  0  0  0  0  0  0  0  0  0
    3.0312    0.1285   -3.4562 H   0  0  0  0  0  0  0  0  0  0  0  0
   -0.5335    1.5702    0.7523 C   0  0  0  0  0  0  0  0  0  0  0  0
   -1.5193    2.2072    0.3989 O   0  0  0  0  0  0  0  0  0  0  0  0
    0.3259    2.1195    1.6861 N   0  0  0  0  0  0  0  0  0  0  0  0
    1.0765    1.5319    2.0382 H   0  0  0  0  0  0  0  0  0  0  0  0
    0.1267    3.4373    2.2775 C   0  0  0  0  0  0  0  0  0  0  0  0
   -0.8062    3.4631    2.8503 H   0  0  0  0  0  0  0  0  0  0  0  0
    0.9541    3.6781    2.9518 H   0  0  0  0  0  0  0  0  0  0  0  0
    0.0833    4.2054    1.4980 H   0  0  0  0  0  0  0  0  0  0  0  0
  1  2  1  0  0  0  0
  2  3  1  0  0  0  0
  2  4  1  0  0  0  0
  2  5  1  0  0  0  0
  5  6  2  0  0  0  0
  5  7  1  0  0  0  0
  7  8  1  0  0  0  0
  7  9  1  0  0  0  0
  9 10  1  0  0  0  0
  9 11  1  0  0  0  0
  9 22  1  0  0  0  0
 11 12  1  0  0  0  0
 11 13  1  0  0  0  0
 11 14  1  0  0  0  0
 14 15  1  0  0  0  0
 14 16  1  0  0  0  0
 14 17  1  0  0  0  0
 17 18  1  0  0  0  0
 18 19  1  0  0  0  0
 18 20  1  0  0  0  0
 18 21  1  0  0  0  0
 22 23  2  0  0  0  0
 22 24  1  0  0  0  0
 24 25  1  0  0  0  0
 24 26  1  0  0  0  0
 26 27  1  0  0  0  0
 26 28  1  0  0  0  0
 26 29  1  0  0  0  0
M  END
$$$$

  -OEChem-02102214153D

 29 28  0     1  0  0  0  0  0999 V2000
   -3.2170   -3.4624    1.1194 H   0  0  0  0  0  0  0  0  0  0  0  0
   -3.2299   -2.4485    0.7098 C   0  0  0  0  0  0  0  0  0  0  0  0
   -3.8871   -1.8286    1.3246 H   0  0  0  0  0  0  0  0  0  0  0  0
   -3.6229   -2.4850   -0.3091 H   0  0  0  0  0  0  0  0  0  0  0  0
   -1.8282   -1.8689    0.7029 C   0  0  0  0  0  0  0  0  0  0  0  0
   -0.8882   -2.5325    1.1114 O   0  0  0  0  0  0  0  0  0  0  0  0
   -1.6199   -0.5878    0.2379 N   0  0  0  0  0  0  0  0  0  0  0  0
   -2.4411   -0.0410   -0.0174 H   0  0  0  0  0  0  0  0  0  0  0  0
   -0.3331    0.1228    0.2722 C   0  0  1  0  0  0  0  0  0  0  0  0
    0.3006   -0.3532    1.0278 H   0  0  0  0  0  0  0  0  0  0  0  0
    0.3908   -0.0586   -1.0920 C   0  0  0  0  0  0  0  0  0  0  0  0
    1.3266   -0.5983   -0.9154 H   0  0  0  0  0  0  0  0  0  0  0  0
   -0.2267   -0.7139   -1.7153 H   0  0  0  0  0  0  0  0  0  0  0  0
    0.7204    1.2088   -1.9116 C   0  0  0  0  0  0  0  0  0  0  0  0
    0.1474    2.0751   -1.5750 H   0  0  0  0  0  0  0  0  0  0  0  0
    1.7817    1.4560   -1.8088 H   0  0  0  0  0  0  0  0  0  0  0  0
    0.2900    0.9632   -3.6835 S   0  0  0  0  0  0  0  0  0  0  0  0
    1.4605   -0.3545   -4.2021 C   0  0  0  0  0  0  0  0  0  0  0  0
    1.2801   -1.2721   -3.6349 H   0  0  0  0  0  0  0  0  0  0  0  0
    1.3311   -0.5722   -5.2665 H   0  0  0  0  0  0  0  0  0  0  0  0
    2.4923   -0.0324   -4.0341 H   0  0  0  0  0  0  0  0  0  0  0  0
   -0.5277    1.5710    0.7711 C   0  0  0  0  0  0  0  0  0  0  0  0
   -1.5135    2.2118    0.4245 O   0  0  0  0  0  0  0  0  0  0  0  0
    0.3330    2.1122    1.7085 N   0  0  0  0  0  0  0  0  0  0  0  0
    1.0809    1.5199    2.0582 H   0  0  0  0  0  0  0  0  0  0  0  0
    0.1296    3.4223    2.3151 C   0  0  0  0  0  0  0  0  0  0  0  0
   -0.8103    3.4422    2.8766 H   0  0  0  0  0  0  0  0  0  0  0  0
    0.9489    3.6531    3.0028 H   0  0  0  0  0  0  0  0  0  0  0  0
    0.0966    4.2005    1.5453 H   0  0  0  0  0  0  0  0  0  0  0  0
  1  2  1  0  0  0  0
  2  3  1  0  0  0  0
  2  4  1  0  0  0  0
  2  5  1  0  0  0  0
  5  6  2  0  0  0  0
  5  7  1  0  0  0  0
  7  8  1  0  0  0  0
  7  9  1  0  0  0  0
  9 10  1  0  0  0  0
  9 11  1  0  0  0  0
  9 22  1  0  0  0  0
 11 12  1  0  0  0  0
 11 13  1  0  0  0  0
 11 14  1  0  0  0  0
 14 15  1  0  0  0  0
 14 16  1  0  0  0  0
 14 17  1  0  0  0  0
 17 18  1  0  0  0  0
 18 19  1  0  0  0  0
 18 20  1  0  0  0  0
 18 21  1  0  0  0  0
 22 23  2  0  0  0  0
 22 24  1  0  0  0  0
 24 25  1  0  0  0  0
 24 26  1  0  0  0  0
 26 27  1  0  0  0  0
 26 28  1  0  0  0  0
 26 29  1  0  0  0  0
M  END
$$$$

  -OEChem-02102214153D

 29 28  0     1  0  0  0  0  0999 V2000
   -3.2610   -3.4413    1.1489 H   0  0  0  0  0  0  0  0  0  0  0  0
   -3.2619   -2.4327    0.7259 C   0  0  0  0  0  0  0  0  0  0  0  0
   -3.9219   -1.8004    1.3249 H   0  0  0  0  0  0  0  0  0  0  0  0
   -3.6433   -2.4800   -0.2970 H   0  0  0  0  0  0  0  0  0  0  0  0
   -1.8557   -1.8634    0.7284 C   0  0  0  0  0  0  0  0  0  0  0  0
   -0.9251   -2.5326    1.1492 O   0  0  0  0  0  0  0  0  0  0  0  0
   -1.6316   -0.5869    0.2577 N   0  0  0  0  0  0  0  0  0  0  0  0
   -2.4437   -0.0356   -0.0167 H   0  0  0  0  0  0  0  0  0  0  0  0
   -0.3369    0.1093    0.2906 C   0  0  1  0  0  0  0  0  0  0  0  0
    0.2945   -0.3702    1.0458 H   0  0  0  0  0  0  0  0  0  0  0  0
    0.3728   -0.0867   -1.0795 C   0  0  0  0  0  0  0  0  0  0  0  0
    1.3103   -0.6178   -0.8869 H   0  0  0  0  0  0  0  0  0  0  0  0
   -0.2332   -0.7605   -1.6936 H   0  0  0  0  0  0  0  0  0  0  0  0
    0.7190    1.1674   -1.9159 C   0  0  0  0  0  0  0  0  0  0  0  0
    0.4317    2.0988   -1.4254 H   0  0  0  0  0  0  0  0  0  0  0  0
    1.8016    1.2119   -2.0701 H   0  0  0  0  0  0  0  0  0  0  0  0
   -0.1195    1.1077   -3.5522 S   0  0  0  0  0  0  0  0  0  0  0  0
    0.7816   -0.2403   -4.4163 C   0  0  0  0  0  0  0  0  0  0  0  0
    0.6589   -1.1877   -3.8836 H   0  0  0  0  0  0  0  0  0  0  0  0
    0.3921   -0.3587   -5.4319 H   0  0  0  0  0  0  0  0  0  0  0  0
    1.8483   -0.0049   -4.4761 H   0  0  0  0  0  0  0  0  0  0  0  0
   -0.5233    1.5606    0.7830 C   0  0  0  0  0  0  0  0  0  0  0  0
   -1.4951    2.2129    0.4196 O   0  0  0  0  0  0  0  0  0  0  0  0
    0.3384    2.0992    1.7210 N   0  0  0  0  0  0  0  0  0  0  0  0
    1.0765    1.5007    2.0807 H   0  0  0  0  0  0  0  0  0  0  0  0
    0.1511    3.4191    2.3113 C   0  0  0  0  0  0  0  0  0  0  0  0
   -0.7980    3.4638    2.8558 H   0  0  0  0  0  0  0  0  0  0  0  0
    0.9627    3.6398    3.0112 H   0  0  0  0  0  0  0  0  0  0  0  0
    0.1478    4.1901    1.5335 H   0  0  0  0  0  0  0  0  0  0  0  0
  1  2  1  0  0  0  0
  2  3  1  0  0  0  0
  2  4  1  0  0  0  0
  2  5  1  0  0  0  0
  5  6  2  0  0  0  0
  5  7  1  0  0  0  0
  7  8  1  0  0  0  0
  7  9  1  0  0  0  0
  9 10  1  0  0  0  0
  9 11  1  0  0  0  0
  9 22  1  0  0  0  0
 11 12  1  0  0  0  0
 11 13  1  0  0  0  0
 11 14  1  0  0  0  0
 14 15  1  0  0  0  0
 14 16  1  0  0  0  0
 14 17  1  0  0  0  0
 17 18  1  0  0  0  0
 18 19  1  0  0  0  0
 18 20  1  0  0  0  0
 18 21  1  0  0  0  0
 22 23  2  0  0  0  0
 22 24  1  0  0  0  0
 24 25  1  0  0  0  0
 24 26  1  0  0  0  0
 26 27  1  0  0  0  0
 26 28  1  0  0  0  0
 26 29  1  0  0  0  0
M  END
$$$$

  -OEChem-02102214153D

 29 28  0     1  0  0  0  0  0999 V2000
   -3.3016   -3.4185    1.2098 H   0  0  0  0  0  0  0  0  0  0  0  0
   -3.2874   -2.4197    0.7649 C   0  0  0  0  0  0  0  0  0  0  0  0
   -3.9447   -1.7664    1.3439 H   0  0  0  0  0  0  0  0  0  0  0  0
   -3.6598   -2.4847   -0.2603 H   0  0  0  0  0  0  0  0  0  0  0  0
   -1.8753   -1.8664    0.7671 C   0  0  0  0  0  0  0  0  0  0  0  0
   -0.9534   -2.5400    1.2001 O   0  0  0  0  0  0  0  0  0  0  0  0
   -1.6364   -0.5999    0.2787 N   0  0  0  0  0  0  0  0  0  0  0  0
   -2.4410   -0.0439   -0.0088 H   0  0  0  0  0  0  0  0  0  0  0  0
   -0.3356    0.0833    0.3074 C   0  0  1  0  0  0  0  0  0  0  0  0
    0.2926   -0.3927    1.0673 H   0  0  0  0  0  0  0  0  0  0  0  0
    0.3641   -0.1298   -1.0641 C   0  0  0  0  0  0  0  0  0  0  0  0
    1.3050   -0.6496   -0.8575 H   0  0  0  0  0  0  0  0  0  0  0  0
   -0.2300   -0.8151   -1.6765 H   0  0  0  0  0  0  0  0  0  0  0  0
    0.7149    1.1206   -1.8994 C   0  0  0  0  0  0  0  0  0  0  0  0
    0.7281    2.0388   -1.3084 H   0  0  0  0  0  0  0  0  0  0  0  0
    1.7234    1.0006   -2.3069 H   0  0  0  0  0  0  0  0  0  0  0  0
   -0.4507    1.3071   -3.3098 S   0  0  0  0  0  0  0  0  0  0  0  0
    0.0941   -0.0086   -4.4713 C   0  0  0  0  0  0  0  0  0  0  0  0
   -0.0109   -0.9960   -4.0132 H   0  0  0  0  0  0  0  0  0  0  0  0
   -0.5158    0.0197   -5.3792 H   0  0  0  0  0  0  0  0  0  0  0  0
    1.1413    0.1414   -4.7495 H   0  0  0  0  0  0  0  0  0  0  0  0
   -0.5176    1.5428    0.7779 C   0  0  0  0  0  0  0  0  0  0  0  0
   -1.4856    2.1951    0.4053 O   0  0  0  0  0  0  0  0  0  0  0  0
    0.3423    2.0885    1.7136 N   0  0  0  0  0  0  0  0  0  0  0  0
    1.0819    1.4944    2.0770 H   0  0  0  0  0  0  0  0  0  0  0  0
    0.1645    3.4201    2.2804 C   0  0  0  0  0  0  0  0  0  0  0  0
   -0.7921    3.4870    2.8093 H   0  0  0  0  0  0  0  0  0  0  0  0
    0.9684    3.6402    2.9894 H   0  0  0  0  0  0  0  0  0  0  0  0
    0.1836    4.1788    1.4908 H   0  0  0  0  0  0  0  0  0  0  0  0
  1  2  1  0  0  0  0
  2  3  1  0  0  0  0
  2  4  1  0  0  0  0
  2  5  1  0  0  0  0
  5  6  2  0  0  0  0
  5  7  1  0  0  0  0
  7  8  1  0  0  0  0
  7  9  1  0  0  0  0
  9 10  1  0  0  0  0
  9 11  1  0  0  0  0
  9 22  1  0  0  0  0
 11 12  1  0  0  0  0
 11 13  1  0  0  0  0
 11 14  1  0  0  0  0
 14 15  1  0  0  0  0
 14 16  1  0  0  0  0
 14 17  1  0  0  0  0
 17 18  1  0  0  0  0
 18 19  1  0  0  0  0
 18 20  1  0  0  0  0
 18 21  1  0  0  0  0
 22 23  2  0  0  0  0
 22 24  1  0  0  0  0
 24 25  1  0  0  0  0
 24 26  1  0  0  0  0
 26 27  1  0  0  0  0
 26 28  1  0  0  0  0
 26 29  1  0  0  0  0
M  END
$$$$

  -OEChem-02102214153D

 29 28  0     1  0  0  0  0  0999 V2000
   -3.3179   -3.4048    1.2559 H   0  0  0  0  0  0  0  0  0  0  0  0
   -3.2985   -2.4078    0.8071 C   0  0  0  0  0  0  0  0  0  0  0  0
   -3.9368   -1.7440    1.3953 H   0  0  0  0  0  0  0  0  0  0  0  0
   -3.6908   -2.4711   -0.2107 H   0  0  0  0  0  0  0  0  0  0  0  0
   -1.8797   -1.8720    0.7818 C   0  0  0  0  0  0  0  0  0  0  0  0
   -0.9590   -2.5523    1.2067 O   0  0  0  0  0  0  0  0  0  0  0  0
   -1.6346   -0.6123    0.2798 N   0  0  0  0  0  0  0  0  0  0  0  0
   -2.4386   -0.0483    0.0061 H   0  0  0  0  0  0  0  0  0  0  0  0
   -0.3323    0.0678    0.3024 C   0  0  1  0  0  0  0  0  0  0  0  0
    0.2931   -0.4018    1.0689 H   0  0  0  0  0  0  0  0  0  0  0  0
    0.3717   -0.1574   -1.0630 C   0  0  0  0  0  0  0  0  0  0  0  0
    1.3148   -0.6701   -0.8487 H   0  0  0  0  0  0  0  0  0  0  0  0
   -0.2161   -0.8455   -1.6775 H   0  0  0  0  0  0  0  0  0  0  0  0
    0.7174    1.0951   -1.8898 C   0  0  0  0  0  0  0  0  0  0  0  0
    0.9828    1.9452   -1.2557 H   0  0  0  0  0  0  0  0  0  0  0  0
    1.5950    0.8789   -2.5068 H   0  0  0  0  0  0  0  0  0  0  0  0
   -0.6680    1.5427   -3.0137 S   0  0  0  0  0  0  0  0  0  0  0  0
   -0.5643    0.2736   -4.3386 C   0  0  0  0  0  0  0  0  0  0  0  0
   -0.7463   -0.7250   -3.9322 H   0  0  0  0  0  0  0  0  0  0  0  0
   -1.3145    0.4772   -5.1084 H   0  0  0  0  0  0  0  0  0  0  0  0
    0.4260    0.2902   -4.8029 H   0  0  0  0  0  0  0  0  0  0  0  0
   -0.5089    1.5344    0.7557 C   0  0  0  0  0  0  0  0  0  0  0  0
   -1.4952    2.1741    0.4103 O   0  0  0  0  0  0  0  0  0  0  0  0
    0.3539    2.0861    1.6859 N   0  0  0  0  0  0  0  0  0  0  0  0
    1.0953    1.4945    2.0495 H   0  0  0  0  0  0  0  0  0  0  0  0
    0.1652    3.4130    2.2607 C   0  0  0  0  0  0  0  0  0  0  0  0
   -0.7759    3.4586    2.8187 H   0  0  0  0  0  0  0  0  0  0  0  0
    0.9858    3.6494    2.9448 H   0  0  0  0  0  0  0  0  0  0  0  0
    0.1441    4.1731    1.4725 H   0  0  0  0  0  0  0  0  0  0  0  0
  1  2  1  0  0  0  0
  2  3  1  0  0  0  0
  2  4  1  0  0  0  0
  2  5  1  0  0  0  0
  5  6  2  0  0  0  0
  5  7  1  0  0  0  0
  7  8  1  0  0  0  0
  7  9  1  0  0  0  0
  9 10  1  0  0  0  0
  9 11  1  0  0  0  0
  9 22  1  0  0  0  0
 11 12  1  0  0  0  0
 11 13  1  0  0  0  0
 11 14  1  0  0  0  0
 14 15  1  0  0  0  0
 14 16  1  0  0  0  0
 14 17  1  0  0  0  0
 17 18  1  0  0  0  0
 18 19  1  0  0  0  0
 18 20  1  0  0  0  0
 18 21  1  0  0  0  0
 22 23  2  0  0  0  0
 22 24  1  0  0  0  0
 24 25  1  0  0  0  0
 24 26  1  0  0  0  0
 26 27  1  0  0  0  0
 26 28  1  0  0  0  0
 26 29  1  0  0  0  0
M  END
$$$$

  -OEChem-02102214153D

 29 28  0     1  0  0  0  0  0999 V2000
   -3.3032   -3.3964    1.2534 H   0  0  0  0  0  0  0  0  0  0  0  0
   -3.2960   -2.4013    0.8000 C   0  0  0  0  0  0  0  0  0  0  0  0
   -3.9218   -1.7365    1.4003 H   0  0  0  0  0  0  0  0  0  0  0  0
   -3.7114   -2.4697   -0.2082 H   0  0  0  0  0  0  0  0  0  0  0  0
   -1.8785   -1.8647    0.7400 C   0  0  0  0  0  0  0  0  0  0  0  0
   -0.9463   -2.5527    1.1259 O   0  0  0  0  0  0  0  0  0  0  0  0
   -1.6453   -0.5995    0.2452 N   0  0  0  0  0  0  0  0  0  0  0  0
   -2.4573   -0.0227    0.0269 H   0  0  0  0  0  0  0  0  0  0  0  0
   -0.3462    0.0876    0.2701 C   0  0  1  0  0  0  0  0  0  0  0  0
    0.2662   -0.3821    1.0470 H   0  0  0  0  0  0  0  0  0  0  0  0
    0.3953   -0.1444   -1.0727 C   0  0  0  0  0  0  0  0  0  0  0  0
    1.3372   -0.6499   -0.8372 H   0  0  0  0  0  0  0  0  0  0  0  0
   -0.1762   -0.8381   -1.6955 H   0  0  0  0  0  0  0  0  0  0  0  0
    0.7447    1.1047   -1.8986 C   0  0  0  0  0  0  0  0  0  0  0  0
    1.2113    1.8666   -1.2667 H   0  0  0  0  0  0  0  0  0  0  0  0
    1.4775    0.8295   -2.6635 H   0  0  0  0  0  0  0  0  0  0  0  0
   -0.7300    1.8117   -2.7417 S   0  0  0  0  0  0  0  0  0  0  0  0
   -1.1757    0.5396   -3.9898 C   0  0  0  0  0  0  0  0  0  0  0  0
   -1.5146   -0.3778   -3.5009 H   0  0  0  0  0  0  0  0  0  0  0  0
   -1.9845    0.9110   -4.6259 H   0  0  0  0  0  0  0  0  0  0  0  0
   -0.3128    0.3076   -4.6209 H   0  0  0  0  0  0  0  0  0  0  0  0
   -0.5107    1.5538    0.7324 C   0  0  0  0  0  0  0  0  0  0  0  0
   -1.5350    2.1731    0.4692 O   0  0  0  0  0  0  0  0  0  0  0  0
    0.3652    2.0893    1.6603 N   0  0  0  0  0  0  0  0  0  0  0  0
    1.1409    1.5091    1.9659 H   0  0  0  0  0  0  0  0  0  0  0  0
    0.1743    3.3955    2.2799 C   0  0  0  0  0  0  0  0  0  0  0  0
   -0.7581    3.4149    2.8541 H   0  0  0  0  0  0  0  0  0  0  0  0
    1.0031    3.6174    2.9589 H   0  0  0  0  0  0  0  0  0  0  0  0
    0.1343    4.1796    1.5162 H   0  0  0  0  0  0  0  0  0  0  0  0
  1  2  1  0  0  0  0
  2  3  1  0  0  0  0
  2  4  1  0  0  0  0
  2  5  1  0  0  0  0
  5  6  2  0  0  0  0
  5  7  1  0  0  0  0
  7  8  1  0  0  0  0
  7  9  1  0  0  0  0
  9 10  1  0  0  0  0
  9 11  1  0  0  0  0
  9 22  1  0  0  0  0
 11 12  1  0  0  0  0
 11 13  1  0  0  0  0
 11 14  1  0  0  0  0
 14 15  1  0  0  0  0
 14 16  1  0  0  0  0
 14 17  1  0  0  0  0
 17 18  1  0  0  0  0
 18 19  1  0  0  0  0
 18 20  1  0  0  0  0
 18 21  1  0  0  0  0
 22 23  2  0  0  0  0
 22 24  1  0  0  0  0
 24 25  1  0  0  0  0
 24 26  1  0  0  0  0
 26 27  1  0  0  0  0
 26 28  1  0  0  0  0
 26 29  1  0  0  0  0
M  END
$$$$

  -OEChem-02102214153D

 29 28  0     1  0  0  0  0  0999 V2000
   -3.2979   -3.3763    1.2035 H   0  0  0  0  0  0  0  0  0  0  0  0
   -3.3005   -2.3692    0.7770 C   0  0  0  0  0  0  0  0  0  0  0  0
   -3.8884   -1.7141    1.4245 H   0  0  0  0  0  0  0  0  0  0  0  0
   -3.7649   -2.4054   -0.2114 H   0  0  0  0  0  0  0  0  0  0  0  0
   -1.8811   -1.8460    0.6633 C   0  0  0  0  0  0  0  0  0  0  0  0
   -0.9406   -2.5497    0.9971 O   0  0  0  0  0  0  0  0  0  0  0  0
   -1.6564   -0.5737    0.1823 N   0  0  0  0  0  0  0  0  0  0  0  0
   -2.4733    0.0198    0.0391 H   0  0  0  0  0  0  0  0  0  0  0  0
   -0.3584    0.1166    0.2174 C   0  0  1  0  0  0  0  0  0  0  0  0
    0.2328   -0.3545    1.0096 H   0  0  0  0  0  0  0  0  0  0  0  0
    0.4330   -0.1303   -1.0944 C   0  0  0  0  0  0  0  0  0  0  0  0
    1.3630   -0.6414   -0.8260 H   0  0  0  0  0  0  0  0  0  0  0  0
   -0.1272   -0.8286   -1.7235 H   0  0  0  0  0  0  0  0  0  0  0  0
    0.8143    1.0913   -1.9485 C   0  0  0  0  0  0  0  0  0  0  0  0
    1.4699    1.7493   -1.3690 H   0  0  0  0  0  0  0  0  0  0  0  0
    1.3842    0.7466   -2.8173 H   0  0  0  0  0  0  0  0  0  0  0  0
   -0.6224    2.0726   -2.5484 S   0  0  0  0  0  0  0  0  0  0  0  0
   -1.6589    0.8419   -3.4328 C   0  0  0  0  0  0  0  0  0  0  0  0
   -2.0534    0.1003   -2.7329 H   0  0  0  0  0  0  0  0  0  0  0  0
   -2.5017    1.3443   -3.9163 H   0  0  0  0  0  0  0  0  0  0  0  0
   -1.0696    0.3291   -4.1984 H   0  0  0  0  0  0  0  0  0  0  0  0
   -0.5175    1.5788    0.6959 C   0  0  0  0  0  0  0  0  0  0  0  0
   -1.5777    2.1681    0.5143 O   0  0  0  0  0  0  0  0  0  0  0  0
    0.3631    2.0982    1.6287 N   0  0  0  0  0  0  0  0  0  0  0  0
    1.1668    1.5324    1.8841 H   0  0  0  0  0  0  0  0  0  0  0  0
    0.1509    3.3702    2.3100 C   0  0  0  0  0  0  0  0  0  0  0  0
   -0.7492    3.3258    2.9322 H   0  0  0  0  0  0  0  0  0  0  0  0
    1.0050    3.6028    2.9530 H   0  0  0  0  0  0  0  0  0  0  0  0
    0.0368    4.1808    1.5822 H   0  0  0  0  0  0  0  0  0  0  0  0
  1  2  1  0  0  0  0
  2  3  1  0  0  0  0
  2  4  1  0  0  0  0
  2  5  1  0  0  0  0
  5  6  2  0  0  0  0
  5  7  1  0  0  0  0
  7  8  1  0  0  0  0
  7  9  1  0  0  0  0
  9 10  1  0  0  0  0
  9 11  1  0  0  0  0
  9 22  1  0  0  0  0
 11 12  1  0  0  0  0
 11 13  1  0  0  0  0
 11 14  1  0  0  0  0
 14 15  1  0  0  0  0
 14 16  1  0  0  0  0
 14 17  1  0  0  0  0
 17 18  1  0  0  0  0
 18 19  1  0  0  0  0
 18 20  1  0  0  0  0
 18 21  1  0  0  0  0
 22 23  2  0  0  0  0
 22 24  1  0  0  0  0
 24 25  1  0  0  0  0
 24 26  1  0  0  0  0
 26 27  1  0  0  0  0
 26 28  1  0  0  0  0
 26 29  1  0  0  0  0
M  END
$$$$

  -OEChem-02102214153D

 29 28  0     1  0  0  0  0  0999 V2000
   -3.2651   -3.4051    1.2757 H   0  0  0  0  0  0  0  0  0  0  0  0
   -3.2902   -2.3942    0.8591 C   0  0  0  0  0  0  0  0  0  0  0  0
   -3.8565   -1.7489    1.5351 H   0  0  0  0  0  0  0  0  0  0  0  0
   -3.7928   -2.4246   -0.1106 H   0  0  0  0  0  0  0  0  0  0  0  0
   -1.8797   -1.8610    0.6941 C   0  0  0  0  0  0  0  0  0  0  0  0
   -0.9225   -2.5646    0.9764 O   0  0  0  0  0  0  0  0  0  0  0  0
   -1.6832   -0.5805    0.2226 N   0  0  0  0  0  0  0  0  0  0  0  0
   -2.5085    0.0135    0.1441 H   0  0  0  0  0  0  0  0  0  0  0  0
   -0.3899    0.1201    0.2312 C   0  0  1  0  0  0  0  0  0  0  0  0
    0.2137   -0.3492    1.0153 H   0  0  0  0  0  0  0  0  0  0  0  0
    0.3977   -0.1314   -1.0854 C   0  0  0  0  0  0  0  0  0  0  0  0
    1.3192   -0.6618   -0.8248 H   0  0  0  0  0  0  0  0  0  0  0  0
   -0.1893   -0.8237   -1.6976 H   0  0  0  0  0  0  0  0  0  0  0  0
    0.7911    1.0483   -1.9985 C   0  0  0  0  0  0  0  0  0  0  0  0
    1.6350    1.5707   -1.5369 H   0  0  0  0  0  0  0  0  0  0  0  0
    1.1428    0.6460   -2.9539 H   0  0  0  0  0  0  0  0  0  0  0  0
   -0.5100    2.3029   -2.3364 S   0  0  0  0  0  0  0  0  0  0  0  0
   -1.8822    1.2983   -3.0272 C   0  0  0  0  0  0  0  0  0  0  0  0
   -2.2435    0.5833   -2.2838 H   0  0  0  0  0  0  0  0  0  0  0  0
   -2.7128    1.9497   -3.3141 H   0  0  0  0  0  0  0  0  0  0  0  0
   -1.5438    0.7500   -3.9111 H   0  0  0  0  0  0  0  0  0  0  0  0
   -0.5514    1.5735    0.7332 C   0  0  0  0  0  0  0  0  0  0  0  0
   -1.6370    2.1347    0.6164 O   0  0  0  0  0  0  0  0  0  0  0  0
    0.3484    2.0906    1.6487 N   0  0  0  0  0  0  0  0  0  0  0  0
    1.1875    1.5522    1.8415 H   0  0  0  0  0  0  0  0  0  0  0  0
    0.1466    3.3569    2.3431 C   0  0  0  0  0  0  0  0  0  0  0  0
   -0.7396    3.3052    2.9843 H   0  0  0  0  0  0  0  0  0  0  0  0
    1.0136    3.5881    2.9692 H   0  0  0  0  0  0  0  0  0  0  0  0
    0.0137    4.1715    1.6232 H   0  0  0  0  0  0  0  0  0  0  0  0
  1  2  1  0  0  0  0
  2  3  1  0  0  0  0
  2  4  1  0  0  0  0
  2  5  1  0  0  0  0
  5  6  2  0  0  0  0
  5  7  1  0  0  0  0
  7  8  1  0  0  0  0
  7  9  1  0  0  0  0
  9 10  1  0  0  0  0
  9 11  1  0  0  0  0
  9 22  1  0  0  0  0
 11 12  1  0  0  0  0
 11 13  1  0  0  0  0
 11 14  1  0  0  0  0
 14 15  1  0  0  0  0
 14 16  1  0  0  0  0
 14 17  1  0  0  0  0
 17 18  1  0  0  0  0
 18 19  1  0  0  0  0
 18 20  1  0  0  0  0
 18 21  1  0  0  0  0
 22 23  2  0  0  0  0
 22 24  1  0  0  0  0
 24 25  1  0  0  0  0
 24 26  1  0  0  0  0
 26 27  1  0  0  0  0
 26 28  1  0  0  0  0
 26 29  1  0  0  0  0
M  END
$$$$

  -OEChem-02102214153D

 29 28  0     1  0  0  0  0  0999 V2000
   -3.2068   -3.4675    1.3442 H   0  0  0  0  0  0  0  0  0  0  0  0
   -3.2582   -2.4522    0.9411 C   0  0  0  0  0  0  0  0  0  0  0  0
   -3.8122   -1.8226    1.6416 H   0  0  0  0  0  0  0  0  0  0  0  0
   -3.7899   -2.4784   -0.0132 H   0  0  0  0  0  0  0  0  0  0  0  0
   -1.8603   -1.8983    0.7407 C   0  0  0  0  0  0  0  0  0  0  0  0
   -0.8859   -2.5959    0.9751 O   0  0  0  0  0  0  0  0  0  0  0  0
   -1.6940   -0.6060    0.2894 N   0  0  0  0  0  0  0  0  0  0  0  0
   -2.5278   -0.0200    0.2560 H   0  0  0  0  0  0  0  0  0  0  0  0
   -0.4082    0.1096    0.2743 C   0  0  1  0  0  0  0  0  0  0  0  0
    0.2206   -0.3624    1.0368 H   0  0  0  0  0  0  0  0  0  0  0  0
    0.3481   -0.1302   -1.0663 C   0  0  0  0  0  0  0  0  0  0  0  0
    1.2675   -0.6764   -0.8311 H   0  0  0  0  0  0  0  0  0  0  0  0
   -0.2663   -0.8178   -1.6568 H   0  0  0  0  0  0  0  0  0  0  0  0
    0.7361    1.0181   -2.0287 C   0  0  0  0  0  0  0  0  0  0  0  0
    1.7334    1.3637   -1.7389 H   0  0  0  0  0  0  0  0  0  0  0  0
    0.8231    0.6061   -3.0393 H   0  0  0  0  0  0  0  0  0  0  0  0
   -0.3283    2.5140   -2.1029 S   0  0  0  0  0  0  0  0  0  0  0  0
   -1.9374    1.8258   -2.6570 C   0  0  0  0  0  0  0  0  0  0  0  0
   -2.3127    1.1004   -1.9306 H   0  0  0  0  0  0  0  0  0  0  0  0
   -2.6723    2.6301   -2.7557 H   0  0  0  0  0  0  0  0  0  0  0  0
   -1.8252    1.3306   -3.6258 H   0  0  0  0  0  0  0  0  0  0  0  0
   -0.5815    1.5486    0.8120 C   0  0  0  0  0  0  0  0  0  0  0  0
   -1.6825    2.0884    0.7367 O   0  0  0  0  0  0  0  0  0  0  0  0
    0.3323    2.0645    1.7139 N   0  0  0  0  0  0  0  0  0  0  0  0
    1.2041    1.5597    1.8414 H   0  0  0  0  0  0  0  0  0  0  0  0
    0.1400    3.3283    2.4151 C   0  0  0  0  0  0  0  0  0  0  0  0
   -0.7433    3.2788    3.0607 H   0  0  0  0  0  0  0  0  0  0  0  0
    1.0110    3.5511    3.0388 H   0  0  0  0  0  0  0  0  0  0  0  0
    0.0085    4.1468    1.6993 H   0  0  0  0  0  0  0  0  0  0  0  0
  1  2  1  0  0  0  0
  2  3  1  0  0  0  0
  2  4  1  0  0  0  0
  2  5  1  0  0  0  0
  5  6  2  0  0  0  0
  5  7  1  0  0  0  0
  7  8  1  0  0  0  0
  7  9  1  0  0  0  0
  9 10  1  0  0  0  0
  9 11  1  0  0  0  0
  9 22  1  0  0  0  0
 11 12  1  0  0  0  0
 11 13  1  0  0  0  0
 11 14  1  0  0  0  0
 14 15  1  0  0  0  0
 14 16  1  0  0  0  0
 14 17  1  0  0  0  0
 17 18  1  0  0  0  0
 18 19  1  0  0  0  0
 18 20  1  0  0  0  0
 18 21  1  0  0  0  0
 22 23  2  0  0  0  0
 22 24  1  0  0  0  0
 24 25  1  0  0  0  0
 24 26  1  0  0  0  0
 26 27  1  0  0  0  0
 26 28  1  0  0  0  0
 26 29  1  0  0  0  0
M  END
$$$$

  -OEChem-02102214153D

 29 28  0     1  0  0  0  0  0999 V2000
   -3.1286   -3.5545    1.4084 H   0  0  0  0  0  0  0  0  0  0  0  0
   -3.2051   -2.5311    1.0309 C   0  0  0  0  0  0  0  0  0  0  0  0
   -3.7430   -1.9250    1.7639 H   0  0  0  0  0  0  0  0  0  0  0  0
   -3.7670   -2.5413    0.0939 H   0  0  0  0  0  0  0  0  0  0  0  0
   -1.8216   -1.9550    0.7967 C   0  0  0  0  0  0  0  0  0  0  0  0
   -0.8314   -2.6474    0.9730 O   0  0  0  0  0  0  0  0  0  0  0  0
   -1.6877   -0.6481    0.3780 N   0  0  0  0  0  0  0  0  0  0  0  0
   -2.5304   -0.0739    0.3868 H   0  0  0  0  0  0  0  0  0  0  0  0
   -0.4129    0.0860    0.3339 C   0  0  1  0  0  0  0  0  0  0  0  0
    0.2521   -0.3957    1.0589 H   0  0  0  0  0  0  0  0  0  0  0  0
    0.2878   -0.1200   -1.0451 C   0  0  0  0  0  0  0  0  0  0  0  0
    1.2198   -0.6600   -0.8490 H   0  0  0  0  0  0  0  0  0  0  0  0
   -0.3398   -0.8136   -1.6147 H   0  0  0  0  0  0  0  0  0  0  0  0
    0.6398    1.0254   -2.0312 C   0  0  0  0  0  0  0  0  0  0  0  0
    1.7217    1.1789   -1.9665 H   0  0  0  0  0  0  0  0  0  0  0  0
    0.4330    0.6789   -3.0490 H   0  0  0  0  0  0  0  0  0  0  0  0
   -0.1183    2.6858   -1.8287 S   0  0  0  0  0  0  0  0  0  0  0  0
   -1.8516    2.3641   -2.3436 C   0  0  0  0  0  0  0  0  0  0  0  0
   -2.2796    1.5486   -1.7540 H   0  0  0  0  0  0  0  0  0  0  0  0
   -2.4596    3.2604   -2.1895 H   0  0  0  0  0  0  0  0  0  0  0  0
   -1.8889    2.0905   -3.4019 H   0  0  0  0  0  0  0  0  0  0  0  0
   -0.5959    1.5032    0.9223 C   0  0  0  0  0  0  0  0  0  0  0  0
   -1.7066    2.0283    0.8887 O   0  0  0  0  0  0  0  0  0  0  0  0
    0.3382    2.0131    1.8065 N   0  0  0  0  0  0  0  0  0  0  0  0
    1.2363    1.5423    1.8615 H   0  0  0  0  0  0  0  0  0  0  0  0
    0.1629    3.2784    2.5095 C   0  0  0  0  0  0  0  0  0  0  0  0
   -0.7062    3.2313    3.1739 H   0  0  0  0  0  0  0  0  0  0  0  0
    1.0472    3.5018    3.1140 H   0  0  0  0  0  0  0  0  0  0  0  0
    0.0168    4.0953    1.7949 H   0  0  0  0  0  0  0  0  0  0  0  0
  1  2  1  0  0  0  0
  2  3  1  0  0  0  0
  2  4  1  0  0  0  0
  2  5  1  0  0  0  0
  5  6  2  0  0  0  0
  5  7  1  0  0  0  0
  7  8  1  0  0  0  0
  7  9  1  0  0  0  0
  9 10  1  0  0  0  0
  9 11  1  0  0  0  0
  9 22  1  0  0  0  0
 11 12  1  0  0  0  0
 11 13  1  0  0  0  0
 11 14  1  0  0  0  0
 14 15  1  0  0  0  0
 14 16  1  0  0  0  0
 14 17  1  0  0  0  0
 17 18  1  0  0  0  0
 18 19  1  0  0  0  0
 18 20  1  0  0  0  0
 18 21  1  0  0  0  0
 22 23  2  0  0  0  0
 22 24  1  0  0  0  0
 24 25  1  0  0  0  0
 24 26  1  0  0  0  0
 26 27  1  0  0  0  0
 26 28  1  0  0  0  0
 26 29  1  0  0  0  0
M  END
$$$$

  -OEChem-02102214153D

 29 28  0     1  0  0  0  0  0999 V2000
   -2.9491   -3.6568    1.6191 H   0  0  0  0  0  0  0  0  0  0  0  0
   -3.0694   -2.6305    1.2609 C   0  0  0  0  0  0  0  0  0  0  0  0
   -3.5680   -2.0434    2.0361 H   0  0  0  0  0  0  0  0  0  0  0  0
   -3.6930   -2.6405    0.3637 H   0  0  0  0  0  0  0  0  0  0  0  0
   -1.7151   -2.0254    0.9433 C   0  0  0  0  0  0  0  0  0  0  0  0
   -0.7014   -2.6953    1.0628 O   0  0  0  0  0  0  0  0  0  0  0  0
   -1.6335   -0.7158    0.5199 N   0  0  0  0  0  0  0  0  0  0  0  0
   -2.4859   -0.1588    0.5747 H   0  0  0  0  0  0  0  0  0  0  0  0
   -0.3777    0.0414    0.3915 C   0  0  1  0  0  0  0  0  0  0  0  0
    0.3575   -0.4274    1.0545 H   0  0  0  0  0  0  0  0  0  0  0  0
    0.1912   -0.1373   -1.0521 C   0  0  0  0  0  0  0  0  0  0  0  0
    1.1536   -0.6445   -0.9282 H   0  0  0  0  0  0  0  0  0  0  0  0
   -0.4523   -0.8565   -1.5698 H   0  0  0  0  0  0  0  0  0  0  0  0
    0.4463    1.0116   -2.0673 C   0  0  0  0  0  0  0  0  0  0  0  0
    1.5080    0.9757   -2.3317 H   0  0  0  0  0  0  0  0  0  0  0  0
   -0.1084    0.7814   -2.9825 H   0  0  0  0  0  0  0  0  0  0  0  0
    0.0805    2.7579   -1.6277 S   0  0  0  0  0  0  0  0  0  0  0  0
   -1.6942    2.8927   -2.0824 C   0  0  0  0  0  0  0  0  0  0  0  0
   -2.2754    2.1061   -1.5929 H   0  0  0  0  0  0  0  0  0  0  0  0
   -2.0880    3.8635   -1.7676 H   0  0  0  0  0  0  0  0  0  0  0  0
   -1.8171    2.7976   -3.1650 H   0  0  0  0  0  0  0  0  0  0  0  0
   -0.5712    1.4477    1.0007 C   0  0  0  0  0  0  0  0  0  0  0  0
   -1.6920    1.9521    1.0094 O   0  0  0  0  0  0  0  0  0  0  0  0
    0.3962    1.9857    1.8306 N   0  0  0  0  0  0  0  0  0  0  0  0
    1.3108    1.5446    1.8287 H   0  0  0  0  0  0  0  0  0  0  0  0
    0.2291    3.2545    2.5286 C   0  0  0  0  0  0  0  0  0  0  0  0
   -0.6171    3.2020    3.2218 H   0  0  0  0  0  0  0  0  0  0  0  0
    1.1301    3.4924    3.1019 H   0  0  0  0  0  0  0  0  0  0  0  0
    0.0491    4.0638    1.8129 H   0  0  0  0  0  0  0  0  0  0  0  0
  1  2  1  0  0  0  0
  2  3  1  0  0  0  0
  2  4  1  0  0  0  0
  2  5  1  0  0  0  0
  5  6  2  0  0  0  0
  5  7  1  0  0  0  0
  7  8  1  0  0  0  0
  7  9  1  0  0  0  0
  9 10  1  0  0  0  0
  9 11  1  0  0  0  0
  9 22  1  0  0  0  0
 11 12  1  0  0  0  0
 11 13  1  0  0  0  0
 11 14  1  0  0  0  0
 14 15  1  0  0  0  0
 14 16  1  0  0  0  0
 14 17  1  0  0  0  0
 17 18  1  0  0  0  0
 18 19  1  0  0  0  0
 18 20  1  0  0  0  0
 18 21  1  0  0  0  0
 22 23  2  0  0  0  0
 22 24  1  0  0  0  0
 24 25  1  0  0  0  0
 24 26  1  0  0  0  0
 26 27  1  0  0  0  0
 26 28  1  0  0  0  0
 26 29  1  0  0  0  0
M  END
$$$$

  -OEChem-02102214153D

 29 28  0     1  0  0  0  0  0999 V2000
   -2.9933   -3.4381    2.3411 H   0  0  0  0  0  0  0  0  0  0  0  0
   -3.0962   -2.4522    1.8791 C   0  0  0  0  0  0  0  0  0  0  0  0
   -3.5598   -1.7728    2.5984 H   0  0  0  0  0  0  0  0  0  0  0  0
   -3.7421   -2.5396    1.0021 H   0  0  0  0  0  0  0  0  0  0  0  0
   -1.7350   -1.9228    1.4690 C   0  0  0  0  0  0  0  0  0  0  0  0
   -0.7303   -2.5800    1.6906 O   0  0  0  0  0  0  0  0  0  0  0  0
   -1.6362   -0.6997    0.8404 N   0  0  0  0  0  0  0  0  0  0  0  0
   -2.4802   -0.1283    0.8013 H   0  0  0  0  0  0  0  0  0  0  0  0
   -0.3684    0.0017    0.5793 C   0  0  1  0  0  0  0  0  0  0  0  0
    0.3868   -0.3740    1.2780 H   0  0  0  0  0  0  0  0  0  0  0  0
    0.1195   -0.3854   -0.8533 C   0  0  0  0  0  0  0  0  0  0  0  0
    1.0859   -0.8750   -0.6950 H   0  0  0  0  0  0  0  0  0  0  0  0
   -0.5426   -1.1657   -1.2437 H   0  0  0  0  0  0  0  0  0  0  0  0
    0.3551    0.6135   -2.0191 C   0  0  0  0  0  0  0  0  0  0  0  0
    1.2747    0.3137   -2.5319 H   0  0  0  0  0  0  0  0  0  0  0  0
   -0.4596    0.4738   -2.7365 H   0  0  0  0  0  0  0  0  0  0  0  0
    0.4728    2.4197   -1.6899 S   0  0  0  0  0  0  0  0  0  0  0  0
   -1.1639    3.0279   -2.2612 C   0  0  0  0  0  0  0  0  0  0  0  0
   -1.2690    2.8801   -3.3398 H   0  0  0  0  0  0  0  0  0  0  0  0
   -1.9703    2.4913   -1.7529 H   0  0  0  0  0  0  0  0  0  0  0  0
   -1.2639    4.0949   -2.0414 H   0  0  0  0  0  0  0  0  0  0  0  0
   -0.5594    1.4850    0.9664 C   0  0  0  0  0  0  0  0  0  0  0  0
   -1.6673    2.0050    0.8491 O   0  0  0  0  0  0  0  0  0  0  0  0
    0.4102    2.1463    1.6986 N   0  0  0  0  0  0  0  0  0  0  0  0
    1.3248    1.7089    1.7579 H   0  0  0  0  0  0  0  0  0  0  0  0
    0.2650    3.5279    2.1397 C   0  0  0  0  0  0  0  0  0  0  0  0
   -0.5866    3.6252    2.8211 H   0  0  0  0  0  0  0  0  0  0  0  0
    1.1670    3.8528    2.6669 H   0  0  0  0  0  0  0  0  0  0  0  0
    0.1074    4.1897    1.2813 H   0  0  0  0  0  0  0  0  0  0  0  0
  1  2  1  0  0  0  0
  2  3  1  0  0  0  0
  2  4  1  0  0  0  0
  2  5  1  0  0  0  0
  5  6  2  0  0  0  0
  5  7  1  0  0  0  0
  7  8  1  0  0  0  0
  7  9  1  0  0  0  0
  9 10  1  0  0  0  0
  9 11  1  0  0  0  0
  9 22  1  0  0  0  0
 11 12  1  0  0  0  0
 11 13  1  0  0  0  0
 11 14  1  0  0  0  0
 14 15  1  0  0  0  0
 14 16  1  0  0  0  0
 14 17  1  0  0  0  0
 17 18  1  0  0  0  0
 18 19  1  0  0  0  0
 18 20  1  0  0  0  0
 18 21  1  0  0  0  0
 22 23  2  0  0  0  0
 22 24  1  0  0  0  0
 24 25  1  0  0  0  0
 24 26  1  0  0  0  0
 26 27  1  0  0  0  0
 26 28  1  0  0  0  0
 26 29  1  0  0  0  0
M  END
$$$$

  -OEChem-02102214153D

 29 28  0     1  0  0  0  0  0999 V2000
   -2.7658   -4.0023    1.2290 H   0  0  0  0  0  0  0  0  0  0  0  0
   -2.9207   -2.9384    1.0290 C   0  0  0  0  0  0  0  0  0  0  0  0
   -3.3810   -2.4783    1.9067 H   0  0  0  0  0  0  0  0  0  0  0  0
   -3.5948   -2.8349    0.1753 H   0  0  0  0  0  0  0  0  0  0  0  0
   -1.5956   -2.2652    0.7262 C   0  0  0  0  0  0  0  0  0  0  0  0
   -0.5692   -2.9248    0.6870 O   0  0  0  0  0  0  0  0  0  0  0  0
   -1.5542   -0.9074    0.4915 N   0  0  0  0  0  0  0  0  0  0  0  0
   -2.4087   -0.3772    0.6623 H   0  0  0  0  0  0  0  0  0  0  0  0
   -0.3154   -0.1226    0.3616 C   0  0  1  0  0  0  0  0  0  0  0  0
    0.5175   -0.6638    0.8228 H   0  0  0  0  0  0  0  0  0  0  0  0
   -0.0151    0.0077   -1.1654 C   0  0  0  0  0  0  0  0  0  0  0  0
    0.9598   -0.4709   -1.3025 H   0  0  0  0  0  0  0  0  0  0  0  0
   -0.7295   -0.6063   -1.7242 H   0  0  0  0  0  0  0  0  0  0  0  0
    0.0843    1.3628   -1.9094 C   0  0  0  0  0  0  0  0  0  0  0  0
    0.7163    1.2296   -2.7934 H   0  0  0  0  0  0  0  0  0  0  0  0
   -0.9211    1.6001   -2.2715 H   0  0  0  0  0  0  0  0  0  0  0  0
    0.6828    2.8384   -0.9845 S   0  0  0  0  0  0  0  0  0  0  0  0
   -0.7075    4.0207   -1.1868 C   0  0  0  0  0  0  0  0  0  0  0  0
   -1.6266    3.6003   -0.7666 H   0  0  0  0  0  0  0  0  0  0  0  0
   -0.4827    4.9560   -0.6658 H   0  0  0  0  0  0  0  0  0  0  0  0
   -0.8703    4.2391   -2.2462 H   0  0  0  0  0  0  0  0  0  0  0  0
   -0.5166    1.1588    1.2026 C   0  0  0  0  0  0  0  0  0  0  0  0
   -1.6258    1.6870    1.2545 O   0  0  0  0  0  0  0  0  0  0  0  0
    0.4834    1.6118    2.0446 N   0  0  0  0  0  0  0  0  0  0  0  0
    1.4044    1.1991    1.9308 H   0  0  0  0  0  0  0  0  0  0  0  0
    0.3528    2.8177    2.8531 C   0  0  0  0  0  0  0  0  0  0  0  0
   -0.4698    2.7130    3.5681 H   0  0  0  0  0  0  0  0  0  0  0  0
    1.2751    2.9987    3.4131 H   0  0  0  0  0  0  0  0  0  0  0  0
    0.1580    3.6867    2.2157 H   0  0  0  0  0  0  0  0  0  0  0  0
  1  2  1  0  0  0  0
  2  3  1  0  0  0  0
  2  4  1  0  0  0  0
  2  5  1  0  0  0  0
  5  6  2  0  0  0  0
  5  7  1  0  0  0  0
  7  8  1  0  0  0  0
  7  9  1  0  0  0  0
  9 10  1  0  0  0  0
  9 11  1  0  0  0  0
  9 22  1  0  0  0  0
 11 12  1  0  0  0  0
 11 13  1  0  0  0  0
 11 14  1  0  0  0  0
 14 15  1  0  0  0  0
 14 16  1  0  0  0  0
 14 17  1  0  0  0  0
 17 18  1  0  0  0  0
 18 19  1  0  0  0  0
 18 20  1  0  0  0  0
 18 21  1  0  0  0  0
 22 23  2  0  0  0  0
 22 24  1  0  0  0  0
 24 25  1  0  0  0  0
 24 26  1  0  0  0  0
 26 27  1  0  0  0  0
 26 28  1  0  0  0  0
 26 29  1  0  0  0  0
M  END
$$$$

  -OEChem-02102214153D

 29 28  0     1  0  0  0  0  0999 V2000
   -3.0016   -4.0674    0.8435 H   0  0  0  0  0  0  0  0  0  0  0  0
   -3.1237   -2.9914    0.6904 C   0  0  0  0  0  0  0  0  0  0  0  0
   -3.6977   -2.5798    1.5241 H   0  0  0  0  0  0  0  0  0  0  0  0
   -3.6749   -2.8281   -0.2387 H   0  0  0  0  0  0  0  0  0  0  0  0
   -1.7675   -2.3164    0.6128 C   0  0  0  0  0  0  0  0  0  0  0  0
   -0.7474   -2.9799    0.7092 O   0  0  0  0  0  0  0  0  0  0  0  0
   -1.6912   -0.9520    0.4317 N   0  0  0  0  0  0  0  0  0  0  0  0
   -2.5624   -0.4241    0.4822 H   0  0  0  0  0  0  0  0  0  0  0  0
   -0.4481   -0.1681    0.5191 C   0  0  1  0  0  0  0  0  0  0  0  0
    0.3164   -0.7274    1.0690 H   0  0  0  0  0  0  0  0  0  0  0  0
    0.0531    0.0446   -0.9419 C   0  0  0  0  0  0  0  0  0  0  0  0
    1.0356   -0.4351   -0.9954 H   0  0  0  0  0  0  0  0  0  0  0  0
   -0.5933   -0.5095   -1.6309 H   0  0  0  0  0  0  0  0  0  0  0  0
    0.2287    1.4596   -1.5327 C   0  0  0  0  0  0  0  0  0  0  0  0
    0.7709    1.3821   -2.4806 H   0  0  0  0  0  0  0  0  0  0  0  0
   -0.7692    1.8517   -1.7561 H   0  0  0  0  0  0  0  0  0  0  0  0
    1.0788    2.6900   -0.4596 S   0  0  0  0  0  0  0  0  0  0  0  0
    0.8988    4.2190   -1.4586 C   0  0  0  0  0  0  0  0  0  0  0  0
    1.3687    5.0619   -0.9433 H   0  0  0  0  0  0  0  0  0  0  0  0
   -0.1601    4.4484   -1.6112 H   0  0  0  0  0  0  0  0  0  0  0  0
    1.3774    4.0936   -2.4343 H   0  0  0  0  0  0  0  0  0  0  0  0
   -0.7789    1.0866    1.3610 C   0  0  0  0  0  0  0  0  0  0  0  0
   -1.8723    1.6334    1.2350 O   0  0  0  0  0  0  0  0  0  0  0  0
    0.0766    1.5102    2.3625 N   0  0  0  0  0  0  0  0  0  0  0  0
    1.0072    1.1029    2.3740 H   0  0  0  0  0  0  0  0  0  0  0  0
   -0.1745    2.6989    3.1676 C   0  0  0  0  0  0  0  0  0  0  0  0
   -1.1410    2.6209    3.6767 H   0  0  0  0  0  0  0  0  0  0  0  0
    0.6049    2.8127    3.9272 H   0  0  0  0  0  0  0  0  0  0  0  0
   -0.1790    3.5938    2.5364 H   0  0  0  0  0  0  0  0  0  0  0  0
  1  2  1  0  0  0  0
  2  3  1  0  0  0  0
  2  4  1  0  0  0  0
  2  5  1  0  0  0  0
  5  6  2  0  0  0  0
  5  7  1  0  0  0  0
  7  8  1  0  0  0  0
  7  9  1  0  0  0  0
  9 10  1  0  0  0  0
  9 11  1  0  0  0  0
  9 22  1  0  0  0  0
 11 12  1  0  0  0  0
 11 13  1  0  0  0  0
 11 14  1  0  0  0  0
 14 15  1  0  0  0  0
 14 16  1  0  0  0  0
 14 17  1  0  0  0  0
 17 18  1  0  0  0  0
 18 19  1  0  0  0  0
 18 20  1  0  0  0  0
 18 21  1  0  0  0  0
 22 23  2  0  0  0  0
 22 24  1  0  0  0  0
 24 25  1  0  0  0  0
 24 26  1  0  0  0  0
 26 27  1  0  0  0  0
 26 28  1  0  0  0  0
 26 29  1  0  0  0  0
M  END
$$$$

  -OEChem-02102214153D

 29 28  0     1  0  0  0  0  0999 V2000
   -3.4077   -3.6546    1.6750 H   0  0  0  0  0  0  0  0  0  0  0  0
   -3.4015   -2.6597    1.2211 C   0  0  0  0  0  0  0  0  0  0  0  0
   -4.0632   -2.0063    1.7949 H   0  0  0  0  0  0  0  0  0  0  0  0
   -3.7749   -2.7373    0.1971 H   0  0  0  0  0  0  0  0  0  0  0  0
   -1.9932   -2.0960    1.2168 C   0  0  0  0  0  0  0  0  0  0  0  0
   -1.0742   -2.7422    1.6940 O   0  0  0  0  0  0  0  0  0  0  0  0
   -1.7560   -0.8522    0.6720 N   0  0  0  0  0  0  0  0  0  0  0  0
   -2.5676   -0.3013    0.3941 H   0  0  0  0  0  0  0  0  0  0  0  0
   -0.4747   -0.1331    0.7579 C   0  0  1  0  0  0  0  0  0  0  0  0
    0.1357   -0.5424    1.5699 H   0  0  0  0  0  0  0  0  0  0  0  0
    0.2791   -0.3634   -0.5841 C   0  0  0  0  0  0  0  0  0  0  0  0
    1.2101   -0.8892   -0.3493 H   0  0  0  0  0  0  0  0  0  0  0  0
   -0.3060   -1.0387   -1.2170 H   0  0  0  0  0  0  0  0  0  0  0  0
    0.6440    0.8625   -1.4378 C   0  0  0  0  0  0  0  0  0  0  0  0
    1.1379    0.5279   -2.3555 H   0  0  0  0  0  0  0  0  0  0  0  0
   -0.2776    1.3784   -1.7281 H   0  0  0  0  0  0  0  0  0  0  0  0
    1.7486    2.0480   -0.5640 S   0  0  0  0  0  0  0  0  0  0  0  0
    1.6670    3.4936   -1.6912 C   0  0  0  0  0  0  0  0  0  0  0  0
    2.0203    3.2178   -2.6890 H   0  0  0  0  0  0  0  0  0  0  0  0
    2.2941    4.3044   -1.3092 H   0  0  0  0  0  0  0  0  0  0  0  0
    0.6366    3.8542   -1.7680 H   0  0  0  0  0  0  0  0  0  0  0  0
   -0.7931    1.3343    1.1311 C   0  0  0  0  0  0  0  0  0  0  0  0
   -1.7725    1.8881    0.6377 O   0  0  0  0  0  0  0  0  0  0  0  0
   -0.0632    1.9919    2.1047 N   0  0  0  0  0  0  0  0  0  0  0  0
    0.7992    1.5475    2.4068 H   0  0  0  0  0  0  0  0  0  0  0  0
   -0.2801    3.3920    2.4462 C   0  0  0  0  0  0  0  0  0  0  0  0
   -1.3124    3.5524    2.7749 H   0  0  0  0  0  0  0  0  0  0  0  0
    0.3894    3.6902    3.2586 H   0  0  0  0  0  0  0  0  0  0  0  0
   -0.0818    4.0318    1.5798 H   0  0  0  0  0  0  0  0  0  0  0  0
  1  2  1  0  0  0  0
  2  3  1  0  0  0  0
  2  4  1  0  0  0  0
  2  5  1  0  0  0  0
  5  6  2  0  0  0  0
  5  7  1  0  0  0  0
  7  8  1  0  0  0  0
  7  9  1  0  0  0  0
  9 10  1  0  0  0  0
  9 11  1  0  0  0  0
  9 22  1  0  0  0  0
 11 12  1  0  0  0  0
 11 13  1  0  0  0  0
 11 14  1  0  0  0  0
 14 15  1  0  0  0  0
 14 16  1  0  0  0  0
 14 17  1  0  0  0  0
 17 18  1  0  0  0  0
 18 19  1  0  0  0  0
 18 20  1  0  0  0  0
 18 21  1  0  0  0  0
 22 23  2  0  0  0  0
 22 24  1  0  0  0  0
 24 25  1  0  0  0  0
 24 26  1  0  0  0  0
 26 27  1  0  0  0  0
 26 28  1  0  0  0  0
 26 29  1  0  0  0  0
M  END
$$$$

  -OEChem-02102214153D

 29 28  0     1  0  0  0  0  0999 V2000
   -3.4348   -3.4861    1.1675 H   0  0  0  0  0  0  0  0  0  0  0  0
   -3.4474   -2.4891    0.7185 C   0  0  0  0  0  0  0  0  0  0  0  0
   -4.2196   -1.8913    1.2087 H   0  0  0  0  0  0  0  0  0  0  0  0
   -3.6881   -2.5837   -0.3430 H   0  0  0  0  0  0  0  0  0  0  0  0
   -2.0946   -1.8234    0.8845 C   0  0  0  0  0  0  0  0  0  0  0  0
   -1.1986   -2.3981    1.4824 O   0  0  0  0  0  0  0  0  0  0  0  0
   -1.8800   -0.5692    0.3540 N   0  0  0  0  0  0  0  0  0  0  0  0
   -2.6889   -0.0805   -0.0286 H   0  0  0  0  0  0  0  0  0  0  0  0
   -0.6802    0.2457    0.6010 C   0  0  1  0  0  0  0  0  0  0  0  0
   -0.1761   -0.1143    1.5042 H   0  0  0  0  0  0  0  0  0  0  0  0
    0.3027    0.0674   -0.5878 C   0  0  0  0  0  0  0  0  0  0  0  0
    1.2167   -0.4025   -0.2140 H   0  0  0  0  0  0  0  0  0  0  0  0
   -0.1354   -0.6357   -1.3039 H   0  0  0  0  0  0  0  0  0  0  0  0
    0.6725    1.3387   -1.3687 C   0  0  0  0  0  0  0  0  0  0  0  0
    1.1420    1.0552   -2.3159 H   0  0  0  0  0  0  0  0  0  0  0  0
   -0.2271    1.9118   -1.6162 H   0  0  0  0  0  0  0  0  0  0  0  0
    1.8535    2.3849   -0.4182 S   0  0  0  0  0  0  0  0  0  0  0  0
    3.4439    1.4877   -0.6226 C   0  0  0  0  0  0  0  0  0  0  0  0
    3.6844    1.3803   -1.6845 H   0  0  0  0  0  0  0  0  0  0  0  0
    4.2516    2.0428   -0.1365 H   0  0  0  0  0  0  0  0  0  0  0  0
    3.3857    0.4931   -0.1720 H   0  0  0  0  0  0  0  0  0  0  0  0
   -1.1163    1.6982    0.9053 C   0  0  0  0  0  0  0  0  0  0  0  0
   -2.0722    2.1800    0.3038 O   0  0  0  0  0  0  0  0  0  0  0  0
   -0.5538    2.4027    1.9535 N   0  0  0  0  0  0  0  0  0  0  0  0
    0.2898    2.0157    2.3668 H   0  0  0  0  0  0  0  0  0  0  0  0
   -0.9062    3.7844    2.2554 C   0  0  0  0  0  0  0  0  0  0  0  0
   -1.9720    3.8657    2.4933 H   0  0  0  0  0  0  0  0  0  0  0  0
   -0.3335    4.1412    3.1167 H   0  0  0  0  0  0  0  0  0  0  0  0
   -0.6851    4.4314    1.3998 H   0  0  0  0  0  0  0  0  0  0  0  0
  1  2  1  0  0  0  0
  2  3  1  0  0  0  0
  2  4  1  0  0  0  0
  2  5  1  0  0  0  0
  5  6  2  0  0  0  0
  5  7  1  0  0  0  0
  7  8  1  0  0  0  0
  7  9  1  0  0  0  0
  9 10  1  0  0  0  0
  9 11  1  0  0  0  0
  9 22  1  0  0  0  0
 11 12  1  0  0  0  0
 11 13  1  0  0  0  0
 11 14  1  0  0  0  0
 14 15  1  0  0  0  0
 14 16  1  0  0  0  0
 14 17  1  0  0  0  0
 17 18  1  0  0  0  0
 18 19  1  0  0  0  0
 18 20  1  0  0  0  0
 18 21  1  0  0  0  0
 22 23  2  0  0  0  0
 22 24  1  0  0  0  0
 24 25  1  0  0  0  0
 24 26  1  0  0  0  0
 26 27  1  0  0  0  0
 26 28  1  0  0  0  0
 26 29  1  0  0  0  0
M  END
$$$$

  -OEChem-02102214153D

 29 28  0     1  0  0  0  0  0999 V2000
   -3.7295   -3.5434    0.7126 H   0  0  0  0  0  0  0  0  0  0  0  0
   -3.6144   -2.5053    0.3883 C   0  0  0  0  0  0  0  0  0  0  0  0
   -4.3020   -1.8790    0.9619 H   0  0  0  0  0  0  0  0  0  0  0  0
   -3.8681   -2.4373   -0.6723 H   0  0  0  0  0  0  0  0  0  0  0  0
   -2.1864   -2.0436    0.6093 C   0  0  0  0  0  0  0  0  0  0  0  0
   -1.3617   -2.8124    1.0766 O   0  0  0  0  0  0  0  0  0  0  0  0
   -1.8267   -0.7529    0.2829 N   0  0  0  0  0  0  0  0  0  0  0  0
   -2.5730   -0.1181    0.0027 H   0  0  0  0  0  0  0  0  0  0  0  0
   -0.5240   -0.1429    0.5917 C   0  0  1  0  0  0  0  0  0  0  0  0
   -0.0603   -0.7136    1.4032 H   0  0  0  0  0  0  0  0  0  0  0  0
    0.4236   -0.2614   -0.6308 C   0  0  0  0  0  0  0  0  0  0  0  0
    1.2784   -0.8895   -0.3594 H   0  0  0  0  0  0  0  0  0  0  0  0
   -0.1070   -0.7909   -1.4288 H   0  0  0  0  0  0  0  0  0  0  0  0
    0.9377    1.0620   -1.2212 C   0  0  0  0  0  0  0  0  0  0  0  0
    1.1547    0.9085   -2.2831 H   0  0  0  0  0  0  0  0  0  0  0  0
    0.1928    1.8610   -1.1671 H   0  0  0  0  0  0  0  0  0  0  0  0
    2.5044    1.5418   -0.3899 S   0  0  0  0  0  0  0  0  0  0  0  0
    2.8260    3.1707   -1.1720 C   0  0  0  0  0  0  0  0  0  0  0  0
    3.7397    3.6109   -0.7619 H   0  0  0  0  0  0  0  0  0  0  0  0
    2.9473    3.0553   -2.2531 H   0  0  0  0  0  0  0  0  0  0  0  0
    1.9923    3.8534   -0.9816 H   0  0  0  0  0  0  0  0  0  0  0  0
   -0.7116    1.2820    1.1590 C   0  0  0  0  0  0  0  0  0  0  0  0
   -1.5942    2.0048    0.7060 O   0  0  0  0  0  0  0  0  0  0  0  0
    0.0024    1.6982    2.2671 N   0  0  0  0  0  0  0  0  0  0  0  0
    0.7677    1.1038    2.5746 H   0  0  0  0  0  0  0  0  0  0  0  0
   -0.1212    3.0328    2.8392 C   0  0  0  0  0  0  0  0  0  0  0  0
   -1.1549    3.2259    3.1445 H   0  0  0  0  0  0  0  0  0  0  0  0
    0.5206    3.1269    3.7203 H   0  0  0  0  0  0  0  0  0  0  0  0
    0.1788    3.7913    2.1086 H   0  0  0  0  0  0  0  0  0  0  0  0
  1  2  1  0  0  0  0
  2  3  1  0  0  0  0
  2  4  1  0  0  0  0
  2  5  1  0  0  0  0
  5  6  2  0  0  0  0
  5  7  1  0  0  0  0
  7  8  1  0  0  0  0
  7  9  1  0  0  0  0
  9 10  1  0  0  0  0
  9 11  1  0  0  0  0
  9 22  1  0  0  0  0
 11 12  1  0  0  0  0
 11 13  1  0  0  0  0
 11 14  1  0  0  0  0
 14 15  1  0  0  0  0
 14 16  1  0  0  0  0
 14 17  1  0  0  0  0
 17 18  1  0  0  0  0
 18 19  1  0  0  0  0
 18 20  1  0  0  0  0
 18 21  1  0  0  0  0
 22 23  2  0  0  0  0
 22 24  1  0  0  0  0
 24 25  1  0  0  0  0
 24 26  1  0  0  0  0
 26 27  1  0  0  0  0
 26 28  1  0  0  0  0
 26 29  1  0  0  0  0
M  END
$$$$

  -OEChem-02102214153D

 29 28  0     1  0  0  0  0  0999 V2000
   -3.3362   -3.4379    1.2437 H   0  0  0  0  0  0  0  0  0  0  0  0
   -3.3136   -2.4524    0.7702 C   0  0  0  0  0  0  0  0  0  0  0  0
   -3.9804   -1.7825    1.3184 H   0  0  0  0  0  0  0  0  0  0  0  0
   -3.6683   -2.5474   -0.2589 H   0  0  0  0  0  0  0  0  0  0  0  0
   -1.9011   -1.9002    0.7811 C   0  0  0  0  0  0  0  0  0  0  0  0
   -0.9883   -2.5625    1.2480 O   0  0  0  0  0  0  0  0  0  0  0  0
   -1.6528   -0.6434    0.2713 N   0  0  0  0  0  0  0  0  0  0  0  0
   -2.4559   -0.0835   -0.0125 H   0  0  0  0  0  0  0  0  0  0  0  0
   -0.3514    0.0405    0.3280 C   0  0  1  0  0  0  0  0  0  0  0  0
    0.2713   -0.4166    1.1040 H   0  0  0  0  0  0  0  0  0  0  0  0
    0.3598   -0.1826   -1.0393 C   0  0  0  0  0  0  0  0  0  0  0  0
    1.2661   -0.7692   -0.8579 H   0  0  0  0  0  0  0  0  0  0  0  0
   -0.2821   -0.8123   -1.6647 H   0  0  0  0  0  0  0  0  0  0  0  0
    0.7345    1.0485   -1.8920 C   0  0  0  0  0  0  0  0  0  0  0  0
    0.4828    0.8274   -2.9343 H   0  0  0  0  0  0  0  0  0  0  0  0
    0.1650    1.9407   -1.6221 H   0  0  0  0  0  0  0  0  0  0  0  0
    2.5419    1.3995   -1.8273 S   0  0  0  0  0  0  0  0  0  0  0  0
    2.8640    2.0117   -0.1303 C   0  0  0  0  0  0  0  0  0  0  0  0
    2.6215    1.2395    0.6042 H   0  0  0  0  0  0  0  0  0  0  0  0
    3.9211    2.2729   -0.0232 H   0  0  0  0  0  0  0  0  0  0  0  0
    2.2634    2.9038    0.0691 H   0  0  0  0  0  0  0  0  0  0  0  0
   -0.5823    1.5047    0.7640 C   0  0  0  0  0  0  0  0  0  0  0  0
   -1.5410    2.1296    0.3223 O   0  0  0  0  0  0  0  0  0  0  0  0
    0.2205    2.0948    1.7225 N   0  0  0  0  0  0  0  0  0  0  0  0
    0.9359    1.5168    2.1541 H   0  0  0  0  0  0  0  0  0  0  0  0
   -0.0159    3.4333    2.2502 C   0  0  0  0  0  0  0  0  0  0  0  0
   -0.9943    3.4858    2.7394 H   0  0  0  0  0  0  0  0  0  0  0  0
    0.7528    3.6909    2.9853 H   0  0  0  0  0  0  0  0  0  0  0  0
    0.0159    4.1744    1.4445 H   0  0  0  0  0  0  0  0  0  0  0  0
  1  2  1  0  0  0  0
  2  3  1  0  0  0  0
  2  4  1  0  0  0  0
  2  5  1  0  0  0  0
  5  6  2  0  0  0  0
  5  7  1  0  0  0  0
  7  8  1  0  0  0  0
  7  9  1  0  0  0  0
  9 10  1  0  0  0  0
  9 11  1  0  0  0  0
  9 22  1  0  0  0  0
 11 12  1  0  0  0  0
 11 13  1  0  0  0  0
 11 14  1  0  0  0  0
 14 15  1  0  0  0  0
 14 16  1  0  0  0  0
 14 17  1  0  0  0  0
 17 18  1  0  0  0  0
 18 19  1  0  0  0  0
 18 20  1  0  0  0  0
 18 21  1  0  0  0  0
 22 23  2  0  0  0  0
 22 24  1  0  0  0  0
 24 25  1  0  0  0  0
 24 26  1  0  0  0  0
 26 27  1  0  0  0  0
 26 28  1  0  0  0  0
 26 29  1  0  0  0  0
M  END
$$$$

  -OEChem-02102214153D

 29 28  0     1  0  0  0  0  0999 V2000
   -3.3210   -3.4550    1.2381 H   0  0  0  0  0  0  0  0  0  0  0  0
   -3.3095   -2.4641    0.7756 C   0  0  0  0  0  0  0  0  0  0  0  0
   -3.9719   -1.8038    1.3408 H   0  0  0  0  0  0  0  0  0  0  0  0
   -3.6783   -2.5492   -0.2495 H   0  0  0  0  0  0  0  0  0  0  0  0
   -1.8995   -1.9051    0.7730 C   0  0  0  0  0  0  0  0  0  0  0  0
   -0.9787   -2.5653    1.2271 O   0  0  0  0  0  0  0  0  0  0  0  0
   -1.6638   -0.6445    0.2661 N   0  0  0  0  0  0  0  0  0  0  0  0
   -2.4732   -0.0924   -0.0142 H   0  0  0  0  0  0  0  0  0  0  0  0
   -0.3660    0.0464    0.3039 C   0  0  1  0  0  0  0  0  0  0  0  0
    0.2520   -0.4132    1.0823 H   0  0  0  0  0  0  0  0  0  0  0  0
    0.3693   -0.1825   -1.0468 C   0  0  0  0  0  0  0  0  0  0  0  0
    1.2843   -0.7438   -0.8320 H   0  0  0  0  0  0  0  0  0  0  0  0
   -0.2412   -0.8400   -1.6747 H   0  0  0  0  0  0  0  0  0  0  0  0
    0.7350    1.0536   -1.9011 C   0  0  0  0  0  0  0  0  0  0  0  0
    0.2573    0.9495   -2.8807 H   0  0  0  0  0  0  0  0  0  0  0  0
    0.3795    1.9977   -1.4851 H   0  0  0  0  0  0  0  0  0  0  0  0
    2.5537    1.1543   -2.1524 S   0  0  0  0  0  0  0  0  0  0  0  0
    3.1426    1.6790   -0.4943 C   0  0  0  0  0  0  0  0  0  0  0  0
    2.9073    0.9163    0.2531 H   0  0  0  0  0  0  0  0  0  0  0  0
    4.2265    1.8275   -0.5123 H   0  0  0  0  0  0  0  0  0  0  0  0
    2.6654    2.6197   -0.2034 H   0  0  0  0  0  0  0  0  0  0  0  0
   -0.5555    1.5121    0.7471 C   0  0  0  0  0  0  0  0  0  0  0  0
   -1.5059    2.1605    0.3235 O   0  0  0  0  0  0  0  0  0  0  0  0
    0.2875    2.0782    1.6856 N   0  0  0  0  0  0  0  0  0  0  0  0
    1.0060    1.4852    2.0913 H   0  0  0  0  0  0  0  0  0  0  0  0
    0.1120    3.4295    2.2038 C   0  0  0  0  0  0  0  0  0  0  0  0
   -0.8591    3.5265    2.7007 H   0  0  0  0  0  0  0  0  0  0  0  0
    0.8970    3.6617    2.9300 H   0  0  0  0  0  0  0  0  0  0  0  0
    0.1667    4.1615    1.3909 H   0  0  0  0  0  0  0  0  0  0  0  0
  1  2  1  0  0  0  0
  2  3  1  0  0  0  0
  2  4  1  0  0  0  0
  2  5  1  0  0  0  0
  5  6  2  0  0  0  0
  5  7  1  0  0  0  0
  7  8  1  0  0  0  0
  7  9  1  0  0  0  0
  9 10  1  0  0  0  0
  9 11  1  0  0  0  0
  9 22  1  0  0  0  0
 11 12  1  0  0  0  0
 11 13  1  0  0  0  0
 11 14  1  0  0  0  0
 14 15  1  0  0  0  0
 14 16  1  0  0  0  0
 14 17  1  0  0  0  0
 17 18  1  0  0  0  0
 18 19  1  0  0  0  0
 18 20  1  0  0  0  0
 18 21  1  0  0  0  0
 22 23  2  0  0  0  0
 22 24  1  0  0  0  0
 24 25  1  0  0  0  0
 24 26  1  0  0  0  0
 26 27  1  0  0  0  0
 26 28  1  0  0  0  0
 26 29  1  0  0  0  0
M  END
$$$$

  -OEChem-02102214153D

 29 28  0     1  0  0  0  0  0999 V2000
   -3.3271   -3.4554    1.2361 H   0  0  0  0  0  0  0  0  0  0  0  0
   -3.3124   -2.4643    0.7739 C   0  0  0  0  0  0  0  0  0  0  0  0
   -3.9793   -1.8050    1.3347 H   0  0  0  0  0  0  0  0  0  0  0  0
   -3.6744   -2.5496   -0.2535 H   0  0  0  0  0  0  0  0  0  0  0  0
   -1.9021   -1.9053    0.7808 C   0  0  0  0  0  0  0  0  0  0  0  0
   -0.9851   -2.5645    1.2439 O   0  0  0  0  0  0  0  0  0  0  0  0
   -1.6606   -0.6464    0.2720 N   0  0  0  0  0  0  0  0  0  0  0  0
   -2.4661   -0.0934   -0.0175 H   0  0  0  0  0  0  0  0  0  0  0  0
   -0.3599    0.0390    0.3099 C   0  0  1  0  0  0  0  0  0  0  0  0
    0.2627   -0.4232    1.0833 H   0  0  0  0  0  0  0  0  0  0  0  0
    0.3582   -0.1799   -1.0516 C   0  0  0  0  0  0  0  0  0  0  0  0
    1.2791   -0.7294   -0.8338 H   0  0  0  0  0  0  0  0  0  0  0  0
   -0.2420   -0.8429   -1.6834 H   0  0  0  0  0  0  0  0  0  0  0  0
    0.7202    1.0659   -1.8930 C   0  0  0  0  0  0  0  0  0  0  0  0
    0.0152    1.1507   -2.7264 H   0  0  0  0  0  0  0  0  0  0  0  0
    0.6622    1.9987   -1.3292 H   0  0  0  0  0  0  0  0  0  0  0  0
    2.4355    0.9257   -2.5404 S   0  0  0  0  0  0  0  0  0  0  0  0
    3.4435    1.2998   -1.0505 C   0  0  0  0  0  0  0  0  0  0  0  0
    3.2597    0.5598   -0.2666 H   0  0  0  0  0  0  0  0  0  0  0  0
    4.5075    1.2805   -1.3052 H   0  0  0  0  0  0  0  0  0  0  0  0
    3.1943    2.2928   -0.6644 H   0  0  0  0  0  0  0  0  0  0  0  0
   -0.5552    1.5044    0.7514 C   0  0  0  0  0  0  0  0  0  0  0  0
   -1.4926    2.1568    0.3056 O   0  0  0  0  0  0  0  0  0  0  0  0
    0.2829    2.0744    1.6920 N   0  0  0  0  0  0  0  0  0  0  0  0
    1.0007    1.4840    2.1029 H   0  0  0  0  0  0  0  0  0  0  0  0
    0.1126    3.4325    2.1948 C   0  0  0  0  0  0  0  0  0  0  0  0
   -0.8617    3.5413    2.6832 H   0  0  0  0  0  0  0  0  0  0  0  0
    0.8936    3.6668    2.9247 H   0  0  0  0  0  0  0  0  0  0  0  0
    0.1784    4.1559    1.3751 H   0  0  0  0  0  0  0  0  0  0  0  0
  1  2  1  0  0  0  0
  2  3  1  0  0  0  0
  2  4  1  0  0  0  0
  2  5  1  0  0  0  0
  5  6  2  0  0  0  0
  5  7  1  0  0  0  0
  7  8  1  0  0  0  0
  7  9  1  0  0  0  0
  9 10  1  0  0  0  0
  9 11  1  0  0  0  0
  9 22  1  0  0  0  0
 11 12  1  0  0  0  0
 11 13  1  0  0  0  0
 11 14  1  0  0  0  0
 14 15  1  0  0  0  0
 14 16  1  0  0  0  0
 14 17  1  0  0  0  0
 17 18  1  0  0  0  0
 18 19  1  0  0  0  0
 18 20  1  0  0  0  0
 18 21  1  0  0  0  0
 22 23  2  0  0  0  0
 22 24  1  0  0  0  0
 24 25  1  0  0  0  0
 24 26  1  0  0  0  0
 26 27  1  0  0  0  0
 26 28  1  0  0  0  0
 26 29  1  0  0  0  0
M  END
$$$$

  -OEChem-02102214153D

 29 28  0     1  0  0  0  0  0999 V2000
   -3.3443   -3.4412    1.2443 H   0  0  0  0  0  0  0  0  0  0  0  0
   -3.3206   -2.4516    0.7794 C   0  0  0  0  0  0  0  0  0  0  0  0
   -3.9822   -1.7842    1.3371 H   0  0  0  0  0  0  0  0  0  0  0  0
   -3.6818   -2.5367   -0.2485 H   0  0  0  0  0  0  0  0  0  0  0  0
   -1.9061   -1.9040    0.7878 C   0  0  0  0  0  0  0  0  0  0  0  0
   -0.9963   -2.5652    1.2622 O   0  0  0  0  0  0  0  0  0  0  0  0
   -1.6544   -0.6502    0.2725 N   0  0  0  0  0  0  0  0  0  0  0  0
   -2.4547   -0.0953   -0.0277 H   0  0  0  0  0  0  0  0  0  0  0  0
   -0.3500    0.0270    0.3122 C   0  0  1  0  0  0  0  0  0  0  0  0
    0.2750   -0.4363    1.0830 H   0  0  0  0  0  0  0  0  0  0  0  0
    0.3539   -0.1862   -1.0559 C   0  0  0  0  0  0  0  0  0  0  0  0
    1.2790   -0.7318   -0.8478 H   0  0  0  0  0  0  0  0  0  0  0  0
   -0.2490   -0.8408   -1.6939 H   0  0  0  0  0  0  0  0  0  0  0  0
    0.7075    1.0755   -1.8689 C   0  0  0  0  0  0  0  0  0  0  0  0
   -0.1407    1.3503   -2.5045 H   0  0  0  0  0  0  0  0  0  0  0  0
    0.9307    1.9305   -1.2262 H   0  0  0  0  0  0  0  0  0  0  0  0
    2.2036    0.7706   -2.8931 S   0  0  0  0  0  0  0  0  0  0  0  0
    3.5684    0.9316   -1.6738 C   0  0  0  0  0  0  0  0  0  0  0  0
    3.4751    0.1751   -0.8896 H   0  0  0  0  0  0  0  0  0  0  0  0
    4.5323    0.7977   -2.1737 H   0  0  0  0  0  0  0  0  0  0  0  0
    3.5487    1.9233   -1.2123 H   0  0  0  0  0  0  0  0  0  0  0  0
   -0.5473    1.4956    0.7445 C   0  0  0  0  0  0  0  0  0  0  0  0
   -1.4786    2.1479    0.2861 O   0  0  0  0  0  0  0  0  0  0  0  0
    0.2850    2.0704    1.6872 N   0  0  0  0  0  0  0  0  0  0  0  0
    1.0033    1.4836    2.1022 H   0  0  0  0  0  0  0  0  0  0  0  0
    0.1103    3.4301    2.1837 C   0  0  0  0  0  0  0  0  0  0  0  0
   -0.8635    3.5378    2.6734 H   0  0  0  0  0  0  0  0  0  0  0  0
    0.8918    3.6709    2.9108 H   0  0  0  0  0  0  0  0  0  0  0  0
    0.1722    4.1495    1.3601 H   0  0  0  0  0  0  0  0  0  0  0  0
  1  2  1  0  0  0  0
  2  3  1  0  0  0  0
  2  4  1  0  0  0  0
  2  5  1  0  0  0  0
  5  6  2  0  0  0  0
  5  7  1  0  0  0  0
  7  8  1  0  0  0  0
  7  9  1  0  0  0  0
  9 10  1  0  0  0  0
  9 11  1  0  0  0  0
  9 22  1  0  0  0  0
 11 12  1  0  0  0  0
 11 13  1  0  0  0  0
 11 14  1  0  0  0  0
 14 15  1  0  0  0  0
 14 16  1  0  0  0  0
 14 17  1  0  0  0  0
 17 18  1  0  0  0  0
 18 19  1  0  0  0  0
 18 20  1  0  0  0  0
 18 21  1  0  0  0  0
 22 23  2  0  0  0  0
 22 24  1  0  0  0  0
 24 25  1  0  0  0  0
 24 26  1  0  0  0  0
 26 27  1  0  0  0  0
 26 28  1  0  0  0  0
 26 29  1  0  0  0  0
M  END
$$$$

  -OEChem-02102214153D

 29 28  0     1  0  0  0  0  0999 V2000
   -3.3433   -3.4407    1.2510 H   0  0  0  0  0  0  0  0  0  0  0  0
   -3.3199   -2.4513    0.7856 C   0  0  0  0  0  0  0  0  0  0  0  0
   -3.9840   -1.7848    1.3413 H   0  0  0  0  0  0  0  0  0  0  0  0
   -3.6784   -2.5373   -0.2430 H   0  0  0  0  0  0  0  0  0  0  0  0
   -1.9060   -1.9017    0.7967 C   0  0  0  0  0  0  0  0  0  0  0  0
   -0.9970   -2.5593    1.2777 O   0  0  0  0  0  0  0  0  0  0  0  0
   -1.6531   -0.6510    0.2742 N   0  0  0  0  0  0  0  0  0  0  0  0
   -2.4521   -0.1004   -0.0366 H   0  0  0  0  0  0  0  0  0  0  0  0
   -0.3481    0.0254    0.3086 C   0  0  1  0  0  0  0  0  0  0  0  0
    0.2791   -0.4364    1.0783 H   0  0  0  0  0  0  0  0  0  0  0  0
    0.3535   -0.1847   -1.0599 C   0  0  0  0  0  0  0  0  0  0  0  0
    1.2819   -0.7293   -0.8657 H   0  0  0  0  0  0  0  0  0  0  0  0
   -0.2564   -0.8286   -1.7024 H   0  0  0  0  0  0  0  0  0  0  0  0
    0.6924    1.0926   -1.8473 C   0  0  0  0  0  0  0  0  0  0  0  0
   -0.2245    1.5174   -2.2700 H   0  0  0  0  0  0  0  0  0  0  0  0
    1.1476    1.8484   -1.2006 H   0  0  0  0  0  0  0  0  0  0  0  0
    1.8859    0.7102   -3.1921 S   0  0  0  0  0  0  0  0  0  0  0  0
    3.4869    0.5785   -2.3006 C   0  0  0  0  0  0  0  0  0  0  0  0
    3.4672   -0.2559   -1.5941 H   0  0  0  0  0  0  0  0  0  0  0  0
    4.2982    0.4096   -3.0150 H   0  0  0  0  0  0  0  0  0  0  0  0
    3.6918    1.5021   -1.7514 H   0  0  0  0  0  0  0  0  0  0  0  0
   -0.5371    1.4982    0.7325 C   0  0  0  0  0  0  0  0  0  0  0  0
   -1.4687    2.1519    0.2768 O   0  0  0  0  0  0  0  0  0  0  0  0
    0.3008    2.0735    1.6698 N   0  0  0  0  0  0  0  0  0  0  0  0
    1.0131    1.4833    2.0904 H   0  0  0  0  0  0  0  0  0  0  0  0
    0.1291    3.4339    2.1655 C   0  0  0  0  0  0  0  0  0  0  0  0
   -0.8392    3.5402    2.6658 H   0  0  0  0  0  0  0  0  0  0  0  0
    0.9181    3.6778    2.8833 H   0  0  0  0  0  0  0  0  0  0  0  0
    0.1800    4.1521    1.3403 H   0  0  0  0  0  0  0  0  0  0  0  0
  1  2  1  0  0  0  0
  2  3  1  0  0  0  0
  2  4  1  0  0  0  0
  2  5  1  0  0  0  0
  5  6  2  0  0  0  0
  5  7  1  0  0  0  0
  7  8  1  0  0  0  0
  7  9  1  0  0  0  0
  9 10  1  0  0  0  0
  9 11  1  0  0  0  0
  9 22  1  0  0  0  0
 11 12  1  0  0  0  0
 11 13  1  0  0  0  0
 11 14  1  0  0  0  0
 14 15  1  0  0  0  0
 14 16  1  0  0  0  0
 14 17  1  0  0  0  0
 17 18  1  0  0  0  0
 18 19  1  0  0  0  0
 18 20  1  0  0  0  0
 18 21  1  0  0  0  0
 22 23  2  0  0  0  0
 22 24  1  0  0  0  0
 24 25  1  0  0  0  0
 24 26  1  0  0  0  0
 26 27  1  0  0  0  0
 26 28  1  0  0  0  0
 26 29  1  0  0  0  0
M  END
$$$$

  -OEChem-02102214153D

 29 28  0     1  0  0  0  0  0999 V2000
   -3.3090   -3.4368    1.2453 H   0  0  0  0  0  0  0  0  0  0  0  0
   -3.2872   -2.4483    0.7781 C   0  0  0  0  0  0  0  0  0  0  0  0
   -3.9538   -1.7824    1.3314 H   0  0  0  0  0  0  0  0  0  0  0  0
   -3.6437   -2.5370   -0.2510 H   0  0  0  0  0  0  0  0  0  0  0  0
   -1.8749   -1.8949    0.7902 C   0  0  0  0  0  0  0  0  0  0  0  0
   -0.9645   -2.5487    1.2741 O   0  0  0  0  0  0  0  0  0  0  0  0
   -1.6242   -0.6446    0.2660 N   0  0  0  0  0  0  0  0  0  0  0  0
   -2.4241   -0.0937   -0.0432 H   0  0  0  0  0  0  0  0  0  0  0  0
   -0.3216    0.0362    0.3075 C   0  0  1  0  0  0  0  0  0  0  0  0
    0.3120   -0.4163    1.0775 H   0  0  0  0  0  0  0  0  0  0  0  0
    0.3811   -0.1562   -1.0612 C   0  0  0  0  0  0  0  0  0  0  0  0
    1.1381   -0.9374   -0.9470 H   0  0  0  0  0  0  0  0  0  0  0  0
   -0.3464   -0.5203   -1.7946 H   0  0  0  0  0  0  0  0  0  0  0  0
    1.0301    1.1050   -1.6522 C   0  0  0  0  0  0  0  0  0  0  0  0
    0.2680    1.8741   -1.8184 H   0  0  0  0  0  0  0  0  0  0  0  0
    1.7798    1.5094   -0.9649 H   0  0  0  0  0  0  0  0  0  0  0  0
    1.8195    0.7199   -3.2671 S   0  0  0  0  0  0  0  0  0  0  0  0
    3.3082   -0.2443   -2.7883 C   0  0  0  0  0  0  0  0  0  0  0  0
    3.0200   -1.1934   -2.3279 H   0  0  0  0  0  0  0  0  0  0  0  0
    3.9144   -0.4586   -3.6735 H   0  0  0  0  0  0  0  0  0  0  0  0
    3.9156    0.3241   -2.0780 H   0  0  0  0  0  0  0  0  0  0  0  0
   -0.5276    1.5085    0.7274 C   0  0  0  0  0  0  0  0  0  0  0  0
   -1.4673    2.1497    0.2707 O   0  0  0  0  0  0  0  0  0  0  0  0
    0.2973    2.0936    1.6707 N   0  0  0  0  0  0  0  0  0  0  0  0
    1.0153    1.5127    2.0945 H   0  0  0  0  0  0  0  0  0  0  0  0
    0.1052    3.4510    2.1675 C   0  0  0  0  0  0  0  0  0  0  0  0
   -0.8694    3.5464    2.6580 H   0  0  0  0  0  0  0  0  0  0  0  0
    0.8836    3.7018    2.8946 H   0  0  0  0  0  0  0  0  0  0  0  0
    0.1575    4.1712    1.3441 H   0  0  0  0  0  0  0  0  0  0  0  0
  1  2  1  0  0  0  0
  2  3  1  0  0  0  0
  2  4  1  0  0  0  0
  2  5  1  0  0  0  0
  5  6  2  0  0  0  0
  5  7  1  0  0  0  0
  7  8  1  0  0  0  0
  7  9  1  0  0  0  0
  9 10  1  0  0  0  0
  9 11  1  0  0  0  0
  9 22  1  0  0  0  0
 11 12  1  0  0  0  0
 11 13  1  0  0  0  0
 11 14  1  0  0  0  0
 14 15  1  0  0  0  0
 14 16  1  0  0  0  0
 14 17  1  0  0  0  0
 17 18  1  0  0  0  0
 18 19  1  0  0  0  0
 18 20  1  0  0  0  0
 18 21  1  0  0  0  0
 22 23  2  0  0  0  0
 22 24  1  0  0  0  0
 24 25  1  0  0  0  0
 24 26  1  0  0  0  0
 26 27  1  0  0  0  0
 26 28  1  0  0  0  0
 26 29  1  0  0  0  0
M  END
$$$$

  -OEChem-02102214153D

 29 28  0     1  0  0  0  0  0999 V2000
   -3.2317   -3.4627    1.1728 H   0  0  0  0  0  0  0  0  0  0  0  0
   -3.2310   -2.4575    0.7422 C   0  0  0  0  0  0  0  0  0  0  0  0
   -3.8937   -1.8207    1.3332 H   0  0  0  0  0  0  0  0  0  0  0  0
   -3.6077   -2.5128   -0.2820 H   0  0  0  0  0  0  0  0  0  0  0  0
   -1.8251   -1.8879    0.7463 C   0  0  0  0  0  0  0  0  0  0  0  0
   -0.9007   -2.5404    1.2050 O   0  0  0  0  0  0  0  0  0  0  0  0
   -1.5952   -0.6254    0.2427 N   0  0  0  0  0  0  0  0  0  0  0  0
   -2.4052   -0.0778   -0.0453 H   0  0  0  0  0  0  0  0  0  0  0  0
   -0.3035    0.0744    0.2969 C   0  0  1  0  0  0  0  0  0  0  0  0
    0.3282   -0.3781    1.0683 H   0  0  0  0  0  0  0  0  0  0  0  0
    0.4223   -0.1035   -1.0626 C   0  0  0  0  0  0  0  0  0  0  0  0
    1.1834   -0.8815   -0.9516 H   0  0  0  0  0  0  0  0  0  0  0  0
   -0.3032   -0.4690   -1.7975 H   0  0  0  0  0  0  0  0  0  0  0  0
    1.0656    1.1607   -1.6585 C   0  0  0  0  0  0  0  0  0  0  0  0
    0.3664    2.0019   -1.6237 H   0  0  0  0  0  0  0  0  0  0  0  0
    1.9601    1.4370   -1.0915 H   0  0  0  0  0  0  0  0  0  0  0  0
    1.4837    0.8919   -3.4286 S   0  0  0  0  0  0  0  0  0  0  0  0
    2.7775   -0.4106   -3.3605 C   0  0  0  0  0  0  0  0  0  0  0  0
    2.3601   -1.3467   -2.9785 H   0  0  0  0  0  0  0  0  0  0  0  0
    3.1766   -0.5927   -4.3627 H   0  0  0  0  0  0  0  0  0  0  0  0
    3.5982   -0.0969   -2.7088 H   0  0  0  0  0  0  0  0  0  0  0  0
   -0.5282    1.5363    0.7403 C   0  0  0  0  0  0  0  0  0  0  0  0
   -1.4835    2.1691    0.3046 O   0  0  0  0  0  0  0  0  0  0  0  0
    0.2902    2.1145    1.6932 N   0  0  0  0  0  0  0  0  0  0  0  0
    1.0167    1.5350    2.1042 H   0  0  0  0  0  0  0  0  0  0  0  0
    0.0766    3.4567    2.2207 C   0  0  0  0  0  0  0  0  0  0  0  0
   -0.8778    3.5110    2.7549 H   0  0  0  0  0  0  0  0  0  0  0  0
    0.8790    3.7220    2.9158 H   0  0  0  0  0  0  0  0  0  0  0  0
    0.0682    4.1915    1.4086 H   0  0  0  0  0  0  0  0  0  0  0  0
  1  2  1  0  0  0  0
  2  3  1  0  0  0  0
  2  4  1  0  0  0  0
  2  5  1  0  0  0  0
  5  6  2  0  0  0  0
  5  7  1  0  0  0  0
  7  8  1  0  0  0  0
  7  9  1  0  0  0  0
  9 10  1  0  0  0  0
  9 11  1  0  0  0  0
  9 22  1  0  0  0  0
 11 12  1  0  0  0  0
 11 13  1  0  0  0  0
 11 14  1  0  0  0  0
 14 15  1  0  0  0  0
 14 16  1  0  0  0  0
 14 17  1  0  0  0  0
 17 18  1  0  0  0  0
 18 19  1  0  0  0  0
 18 20  1  0  0  0  0
 18 21  1  0  0  0  0
 22 23  2  0  0  0  0
 22 24  1  0  0  0  0
 24 25  1  0  0  0  0
 24 26  1  0  0  0  0
 26 27  1  0  0  0  0
 26 28  1  0  0  0  0
 26 29  1  0  0  0  0
M  END
$$$$

  -OEChem-02102214153D

 29 28  0     1  0  0  0  0  0999 V2000
   -3.2045   -3.4616    1.1157 H   0  0  0  0  0  0  0  0  0  0  0  0
   -3.2069   -2.4497    0.7011 C   0  0  0  0  0  0  0  0  0  0  0  0
   -3.8678   -1.8230    1.3047 H   0  0  0  0  0  0  0  0  0  0  0  0
   -3.5879   -2.4893   -0.3223 H   0  0  0  0  0  0  0  0  0  0  0  0
   -1.8018   -1.8783    0.7093 C   0  0  0  0  0  0  0  0  0  0  0  0
   -0.8744   -2.5376    1.1521 O   0  0  0  0  0  0  0  0  0  0  0  0
   -1.5754   -0.6074    0.2257 N   0  0  0  0  0  0  0  0  0  0  0  0
   -2.3874   -0.0552   -0.0481 H   0  0  0  0  0  0  0  0  0  0  0  0
   -0.2858    0.0956    0.2927 C   0  0  1  0  0  0  0  0  0  0  0  0
    0.3424   -0.3642    1.0627 H   0  0  0  0  0  0  0  0  0  0  0  0
    0.4489   -0.0737   -1.0653 C   0  0  0  0  0  0  0  0  0  0  0  0
    1.2029   -0.8607   -0.9644 H   0  0  0  0  0  0  0  0  0  0  0  0
   -0.2854   -0.4329   -1.7948 H   0  0  0  0  0  0  0  0  0  0  0  0
    1.1048    1.1805   -1.6780 C   0  0  0  0  0  0  0  0  0  0  0  0
    0.5432    2.0864   -1.4366 H   0  0  0  0  0  0  0  0  0  0  0  0
    2.1209    1.3022   -1.2902 H   0  0  0  0  0  0  0  0  0  0  0  0
    1.1186    1.0657   -3.5136 S   0  0  0  0  0  0  0  0  0  0  0  0
    2.1576   -0.4178   -3.8207 C   0  0  0  0  0  0  0  0  0  0  0  0
    1.6764   -1.3130   -3.4164 H   0  0  0  0  0  0  0  0  0  0  0  0
    2.3018   -0.5566   -4.8961 H   0  0  0  0  0  0  0  0  0  0  0  0
    3.1371   -0.2991   -3.3485 H   0  0  0  0  0  0  0  0  0  0  0  0
   -0.5203    1.5487    0.7587 C   0  0  0  0  0  0  0  0  0  0  0  0
   -1.4811    2.1805    0.3340 O   0  0  0  0  0  0  0  0  0  0  0  0
    0.2914    2.1185    1.7223 N   0  0  0  0  0  0  0  0  0  0  0  0
    1.0252    1.5407    2.1223 H   0  0  0  0  0  0  0  0  0  0  0  0
    0.0618    3.4486    2.2736 C   0  0  0  0  0  0  0  0  0  0  0  0
   -0.8956    3.4829    2.8040 H   0  0  0  0  0  0  0  0  0  0  0  0
    0.8579    3.7096    2.9775 H   0  0  0  0  0  0  0  0  0  0  0  0
    0.0491    4.1982    1.4751 H   0  0  0  0  0  0  0  0  0  0  0  0
  1  2  1  0  0  0  0
  2  3  1  0  0  0  0
  2  4  1  0  0  0  0
  2  5  1  0  0  0  0
  5  6  2  0  0  0  0
  5  7  1  0  0  0  0
  7  8  1  0  0  0  0
  7  9  1  0  0  0  0
  9 10  1  0  0  0  0
  9 11  1  0  0  0  0
  9 22  1  0  0  0  0
 11 12  1  0  0  0  0
 11 13  1  0  0  0  0
 11 14  1  0  0  0  0
 14 15  1  0  0  0  0
 14 16  1  0  0  0  0
 14 17  1  0  0  0  0
 17 18  1  0  0  0  0
 18 19  1  0  0  0  0
 18 20  1  0  0  0  0
 18 21  1  0  0  0  0
 22 23  2  0  0  0  0
 22 24  1  0  0  0  0
 24 25  1  0  0  0  0
 24 26  1  0  0  0  0
 26 27  1  0  0  0  0
 26 28  1  0  0  0  0
 26 29  1  0  0  0  0
M  END
$$$$

  -OEChem-02102214153D

 29 28  0     1  0  0  0  0  0999 V2000
   -3.2394   -3.4392    1.1204 H   0  0  0  0  0  0  0  0  0  0  0  0
   -3.2299   -2.4310    0.6966 C   0  0  0  0  0  0  0  0  0  0  0  0
   -3.8909   -1.7936    1.2889 H   0  0  0  0  0  0  0  0  0  0  0  0
   -3.6024   -2.4769   -0.3297 H   0  0  0  0  0  0  0  0  0  0  0  0
   -1.8201   -1.8710    0.7115 C   0  0  0  0  0  0  0  0  0  0  0  0
   -0.8989   -2.5407    1.1516 O   0  0  0  0  0  0  0  0  0  0  0  0
   -1.5814   -0.6005    0.2328 N   0  0  0  0  0  0  0  0  0  0  0  0
   -2.3876   -0.0404   -0.0427 H   0  0  0  0  0  0  0  0  0  0  0  0
   -0.2849    0.0904    0.2996 C   0  0  1  0  0  0  0  0  0  0  0  0
    0.3422   -0.3761    1.0665 H   0  0  0  0  0  0  0  0  0  0  0  0
    0.4401   -0.0828   -1.0647 C   0  0  0  0  0  0  0  0  0  0  0  0
    1.1854   -0.8785   -0.9656 H   0  0  0  0  0  0  0  0  0  0  0  0
   -0.3021   -0.4435   -1.7843 H   0  0  0  0  0  0  0  0  0  0  0  0
    1.1149    1.1559   -1.6976 C   0  0  0  0  0  0  0  0  0  0  0  0
    0.7743    2.0913   -1.2500 H   0  0  0  0  0  0  0  0  0  0  0  0
    2.1980    1.1010   -1.5494 H   0  0  0  0  0  0  0  0  0  0  0  0
    0.7283    1.2628   -3.4931 S   0  0  0  0  0  0  0  0  0  0  0  0
    1.5421   -0.2403   -4.1661 C   0  0  0  0  0  0  0  0  0  0  0  0
    1.0962   -1.1422   -3.7373 H   0  0  0  0  0  0  0  0  0  0  0  0
    1.4221   -0.2756   -5.2529 H   0  0  0  0  0  0  0  0  0  0  0  0
    2.6106   -0.2296   -3.9324 H   0  0  0  0  0  0  0  0  0  0  0  0
   -0.5171    1.5418    0.7723 C   0  0  0  0  0  0  0  0  0  0  0  0
   -1.4737    2.1800    0.3484 O   0  0  0  0  0  0  0  0  0  0  0  0
    0.2962    2.1043    1.7390 N   0  0  0  0  0  0  0  0  0  0  0  0
    1.0283    1.5224    2.1363 H   0  0  0  0  0  0  0  0  0  0  0  0
    0.0772    3.4363    2.2898 C   0  0  0  0  0  0  0  0  0  0  0  0
   -0.8919    3.4855    2.7972 H   0  0  0  0  0  0  0  0  0  0  0  0
    0.8606    3.6803    3.0137 H   0  0  0  0  0  0  0  0  0  0  0  0
    0.0971    4.1888    1.4944 H   0  0  0  0  0  0  0  0  0  0  0  0
  1  2  1  0  0  0  0
  2  3  1  0  0  0  0
  2  4  1  0  0  0  0
  2  5  1  0  0  0  0
  5  6  2  0  0  0  0
  5  7  1  0  0  0  0
  7  8  1  0  0  0  0
  7  9  1  0  0  0  0
  9 10  1  0  0  0  0
  9 11  1  0  0  0  0
  9 22  1  0  0  0  0
 11 12  1  0  0  0  0
 11 13  1  0  0  0  0
 11 14  1  0  0  0  0
 14 15  1  0  0  0  0
 14 16  1  0  0  0  0
 14 17  1  0  0  0  0
 17 18  1  0  0  0  0
 18 19  1  0  0  0  0
 18 20  1  0  0  0  0
 18 21  1  0  0  0  0
 22 23  2  0  0  0  0
 22 24  1  0  0  0  0
 24 25  1  0  0  0  0
 24 26  1  0  0  0  0
 26 27  1  0  0  0  0
 26 28  1  0  0  0  0
 26 29  1  0  0  0  0
M  END
$$$$

  -OEChem-02102214153D

 29 28  0     1  0  0  0  0  0999 V2000
   -3.2974   -3.4034    1.1936 H   0  0  0  0  0  0  0  0  0  0  0  0
   -3.2696   -2.4086    0.7404 C   0  0  0  0  0  0  0  0  0  0  0  0
   -3.9239   -1.7440    1.3098 H   0  0  0  0  0  0  0  0  0  0  0  0
   -3.6367   -2.4784   -0.2863 H   0  0  0  0  0  0  0  0  0  0  0  0
   -1.8514   -1.8706    0.7476 C   0  0  0  0  0  0  0  0  0  0  0  0
   -0.9403   -2.5484    1.1962 O   0  0  0  0  0  0  0  0  0  0  0  0
   -1.5941   -0.6095    0.2547 N   0  0  0  0  0  0  0  0  0  0  0  0
   -2.3909   -0.0409   -0.0311 H   0  0  0  0  0  0  0  0  0  0  0  0
   -0.2876    0.0623    0.3116 C   0  0  1  0  0  0  0  0  0  0  0  0
    0.3415   -0.4050    1.0765 H   0  0  0  0  0  0  0  0  0  0  0  0
    0.4169   -0.1229   -1.0619 C   0  0  0  0  0  0  0  0  0  0  0  0
    1.1624   -0.9172   -0.9518 H   0  0  0  0  0  0  0  0  0  0  0  0
   -0.3242   -0.4965   -1.7756 H   0  0  0  0  0  0  0  0  0  0  0  0
    1.1042    1.1060   -1.7024 C   0  0  0  0  0  0  0  0  0  0  0  0
    1.0447    1.9991   -1.0781 H   0  0  0  0  0  0  0  0  0  0  0  0
    2.1687    0.8894   -1.8362 H   0  0  0  0  0  0  0  0  0  0  0  0
    0.3677    1.4950   -3.3422 S   0  0  0  0  0  0  0  0  0  0  0  0
    0.9321    0.0874   -4.3795 C   0  0  0  0  0  0  0  0  0  0  0  0
    0.5475   -0.8584   -3.9875 H   0  0  0  0  0  0  0  0  0  0  0  0
    0.5715    0.2111   -5.4049 H   0  0  0  0  0  0  0  0  0  0  0  0
    2.0250    0.0441   -4.3958 H   0  0  0  0  0  0  0  0  0  0  0  0
   -0.5132    1.5199    0.7701 C   0  0  0  0  0  0  0  0  0  0  0  0
   -1.4693    2.1586    0.3456 O   0  0  0  0  0  0  0  0  0  0  0  0
    0.3028    2.0861    1.7325 N   0  0  0  0  0  0  0  0  0  0  0  0
    1.0361    1.5061    2.1301 H   0  0  0  0  0  0  0  0  0  0  0  0
    0.0936    3.4258    2.2685 C   0  0  0  0  0  0  0  0  0  0  0  0
   -0.8882    3.4982    2.7483 H   0  0  0  0  0  0  0  0  0  0  0  0
    0.8605    3.6596    3.0132 H   0  0  0  0  0  0  0  0  0  0  0  0
    0.1503    4.1715    1.4683 H   0  0  0  0  0  0  0  0  0  0  0  0
  1  2  1  0  0  0  0
  2  3  1  0  0  0  0
  2  4  1  0  0  0  0
  2  5  1  0  0  0  0
  5  6  2  0  0  0  0
  5  7  1  0  0  0  0
  7  8  1  0  0  0  0
  7  9  1  0  0  0  0
  9 10  1  0  0  0  0
  9 11  1  0  0  0  0
  9 22  1  0  0  0  0
 11 12  1  0  0  0  0
 11 13  1  0  0  0  0
 11 14  1  0  0  0  0
 14 15  1  0  0  0  0
 14 16  1  0  0  0  0
 14 17  1  0  0  0  0
 17 18  1  0  0  0  0
 18 19  1  0  0  0  0
 18 20  1  0  0  0  0
 18 21  1  0  0  0  0
 22 23  2  0  0  0  0
 22 24  1  0  0  0  0
 24 25  1  0  0  0  0
 24 26  1  0  0  0  0
 26 27  1  0  0  0  0
 26 28  1  0  0  0  0
 26 29  1  0  0  0  0
M  END
$$$$

  -OEChem-02102214153D

 29 28  0     1  0  0  0  0  0999 V2000
   -3.3284   -3.3884    1.2583 H   0  0  0  0  0  0  0  0  0  0  0  0
   -3.2969   -2.3939    0.8045 C   0  0  0  0  0  0  0  0  0  0  0  0
   -3.9310   -1.7208    1.3865 H   0  0  0  0  0  0  0  0  0  0  0  0
   -3.6855   -2.4593   -0.2147 H   0  0  0  0  0  0  0  0  0  0  0  0
   -1.8721   -1.8738    0.7826 C   0  0  0  0  0  0  0  0  0  0  0  0
   -0.9625   -2.5584    1.2237 O   0  0  0  0  0  0  0  0  0  0  0  0
   -1.6064   -0.6232    0.2683 N   0  0  0  0  0  0  0  0  0  0  0  0
   -2.4015   -0.0440   -0.0008 H   0  0  0  0  0  0  0  0  0  0  0  0
   -0.2942    0.0379    0.3099 C   0  0  1  0  0  0  0  0  0  0  0  0
    0.3354   -0.4234    1.0780 H   0  0  0  0  0  0  0  0  0  0  0  0
    0.3995   -0.1662   -1.0640 C   0  0  0  0  0  0  0  0  0  0  0  0
    1.1550   -0.9474   -0.9314 H   0  0  0  0  0  0  0  0  0  0  0  0
   -0.3289   -0.5620   -1.7782 H   0  0  0  0  0  0  0  0  0  0  0  0
    1.0855    1.0612   -1.7011 C   0  0  0  0  0  0  0  0  0  0  0  0
    1.2922    1.8491   -0.9730 H   0  0  0  0  0  0  0  0  0  0  0  0
    2.0552    0.7506   -2.1027 H   0  0  0  0  0  0  0  0  0  0  0  0
    0.0892    1.7357   -3.0918 S   0  0  0  0  0  0  0  0  0  0  0  0
    0.3342    0.4866   -4.4168 C   0  0  0  0  0  0  0  0  0  0  0  0
   -0.0575   -0.4861   -4.1066 H   0  0  0  0  0  0  0  0  0  0  0  0
   -0.1899    0.7986   -5.3251 H   0  0  0  0  0  0  0  0  0  0  0  0
    1.3987    0.3816   -4.6461 H   0  0  0  0  0  0  0  0  0  0  0  0
   -0.5073    1.5056    0.7457 C   0  0  0  0  0  0  0  0  0  0  0  0
   -1.4821    2.1329    0.3469 O   0  0  0  0  0  0  0  0  0  0  0  0
    0.3177    2.0793    1.6964 N   0  0  0  0  0  0  0  0  0  0  0  0
    1.0554    1.5025    2.0902 H   0  0  0  0  0  0  0  0  0  0  0  0
    0.0988    3.4141    2.2410 C   0  0  0  0  0  0  0  0  0  0  0  0
   -0.8640    3.4625    2.7606 H   0  0  0  0  0  0  0  0  0  0  0  0
    0.8900    3.6670    2.9534 H   0  0  0  0  0  0  0  0  0  0  0  0
    0.1048    4.1606    1.4396 H   0  0  0  0  0  0  0  0  0  0  0  0
  1  2  1  0  0  0  0
  2  3  1  0  0  0  0
  2  4  1  0  0  0  0
  2  5  1  0  0  0  0
  5  6  2  0  0  0  0
  5  7  1  0  0  0  0
  7  8  1  0  0  0  0
  7  9  1  0  0  0  0
  9 10  1  0  0  0  0
  9 11  1  0  0  0  0
  9 22  1  0  0  0  0
 11 12  1  0  0  0  0
 11 13  1  0  0  0  0
 11 14  1  0  0  0  0
 14 15  1  0  0  0  0
 14 16  1  0  0  0  0
 14 17  1  0  0  0  0
 17 18  1  0  0  0  0
 18 19  1  0  0  0  0
 18 20  1  0  0  0  0
 18 21  1  0  0  0  0
 22 23  2  0  0  0  0
 22 24  1  0  0  0  0
 24 25  1  0  0  0  0
 24 26  1  0  0  0  0
 26 27  1  0  0  0  0
 26 28  1  0  0  0  0
 26 29  1  0  0  0  0
M  END
$$$$

  -OEChem-02102214153D

 29 28  0     1  0  0  0  0  0999 V2000
   -3.3334   -3.3861    1.3057 H   0  0  0  0  0  0  0  0  0  0  0  0
   -3.3035   -2.3958    0.8427 C   0  0  0  0  0  0  0  0  0  0  0  0
   -3.9226   -1.7135    1.4302 H   0  0  0  0  0  0  0  0  0  0  0  0
   -3.7108   -2.4670   -0.1687 H   0  0  0  0  0  0  0  0  0  0  0  0
   -1.8758   -1.8853    0.7907 C   0  0  0  0  0  0  0  0  0  0  0  0
   -0.9616   -2.5751    1.2141 O   0  0  0  0  0  0  0  0  0  0  0  0
   -1.6140   -0.6374    0.2681 N   0  0  0  0  0  0  0  0  0  0  0  0
   -2.4128   -0.0514    0.0256 H   0  0  0  0  0  0  0  0  0  0  0  0
   -0.3034    0.0268    0.3000 C   0  0  1  0  0  0  0  0  0  0  0  0
    0.3238   -0.4291    1.0734 H   0  0  0  0  0  0  0  0  0  0  0  0
    0.3989   -0.1882   -1.0662 C   0  0  0  0  0  0  0  0  0  0  0  0
    1.1638   -0.9569   -0.9176 H   0  0  0  0  0  0  0  0  0  0  0  0
   -0.3157   -0.5978   -1.7860 H   0  0  0  0  0  0  0  0  0  0  0  0
    1.0751    1.0439   -1.6955 C   0  0  0  0  0  0  0  0  0  0  0  0
    1.4925    1.7035   -0.9292 H   0  0  0  0  0  0  0  0  0  0  0  0
    1.9146    0.7070   -2.3117 H   0  0  0  0  0  0  0  0  0  0  0  0
   -0.0803    1.9778   -2.7798 S   0  0  0  0  0  0  0  0  0  0  0  0
   -0.2476    0.8996   -4.2580 C   0  0  0  0  0  0  0  0  0  0  0  0
   -0.7125   -0.0531   -3.9905 H   0  0  0  0  0  0  0  0  0  0  0  0
   -0.8734    1.3917   -5.0084 H   0  0  0  0  0  0  0  0  0  0  0  0
    0.7348    0.7026   -4.6968 H   0  0  0  0  0  0  0  0  0  0  0  0
   -0.5088    1.4990    0.7275 C   0  0  0  0  0  0  0  0  0  0  0  0
   -1.5153    2.1073    0.3804 O   0  0  0  0  0  0  0  0  0  0  0  0
    0.3258    2.0742    1.6691 N   0  0  0  0  0  0  0  0  0  0  0  0
    1.0882    1.5099    2.0323 H   0  0  0  0  0  0  0  0  0  0  0  0
    0.1067    3.4055    2.2220 C   0  0  0  0  0  0  0  0  0  0  0  0
   -0.8433    3.4430    2.7657 H   0  0  0  0  0  0  0  0  0  0  0  0
    0.9128    3.6657    2.9147 H   0  0  0  0  0  0  0  0  0  0  0  0
    0.0848    4.1535    1.4221 H   0  0  0  0  0  0  0  0  0  0  0  0
  1  2  1  0  0  0  0
  2  3  1  0  0  0  0
  2  4  1  0  0  0  0
  2  5  1  0  0  0  0
  5  6  2  0  0  0  0
  5  7  1  0  0  0  0
  7  8  1  0  0  0  0
  7  9  1  0  0  0  0
  9 10  1  0  0  0  0
  9 11  1  0  0  0  0
  9 22  1  0  0  0  0
 11 12  1  0  0  0  0
 11 13  1  0  0  0  0
 11 14  1  0  0  0  0
 14 15  1  0  0  0  0
 14 16  1  0  0  0  0
 14 17  1  0  0  0  0
 17 18  1  0  0  0  0
 18 19  1  0  0  0  0
 18 20  1  0  0  0  0
 18 21  1  0  0  0  0
 22 23  2  0  0  0  0
 22 24  1  0  0  0  0
 24 25  1  0  0  0  0
 24 26  1  0  0  0  0
 26 27  1  0  0  0  0
 26 28  1  0  0  0  0
 26 29  1  0  0  0  0
M  END
$$$$

  -OEChem-02102214153D

 29 28  0     1  0  0  0  0  0999 V2000
   -3.3131   -3.3840    1.2502 H   0  0  0  0  0  0  0  0  0  0  0  0
   -3.2924   -2.3834    0.8094 C   0  0  0  0  0  0  0  0  0  0  0  0
   -3.8934   -1.7129    1.4285 H   0  0  0  0  0  0  0  0  0  0  0  0
   -3.7265   -2.4299   -0.1922 H   0  0  0  0  0  0  0  0  0  0  0  0
   -1.8655   -1.8751    0.7314 C   0  0  0  0  0  0  0  0  0  0  0  0
   -0.9431   -2.5738    1.1217 O   0  0  0  0  0  0  0  0  0  0  0  0
   -1.6141   -0.6202    0.2202 N   0  0  0  0  0  0  0  0  0  0  0  0
   -2.4192   -0.0244    0.0269 H   0  0  0  0  0  0  0  0  0  0  0  0
   -0.3077    0.0517    0.2656 C   0  0  1  0  0  0  0  0  0  0  0  0
    0.3009   -0.4039    1.0537 H   0  0  0  0  0  0  0  0  0  0  0  0
    0.4385   -0.1773   -1.0742 C   0  0  0  0  0  0  0  0  0  0  0  0
    1.2026   -0.9406   -0.8954 H   0  0  0  0  0  0  0  0  0  0  0  0
   -0.2535   -0.6007   -1.8070 H   0  0  0  0  0  0  0  0  0  0  0  0
    1.1252    1.0443   -1.7101 C   0  0  0  0  0  0  0  0  0  0  0  0
    1.7178    1.5727   -0.9570 H   0  0  0  0  0  0  0  0  0  0  0  0
    1.8206    0.6913   -2.4783 H   0  0  0  0  0  0  0  0  0  0  0  0
   -0.0454    2.2224   -2.5042 S   0  0  0  0  0  0  0  0  0  0  0  0
   -0.8189    1.2463   -3.8540 C   0  0  0  0  0  0  0  0  0  0  0  0
   -1.4558    0.4590   -3.4417 H   0  0  0  0  0  0  0  0  0  0  0  0
   -1.4366    1.8987   -4.4781 H   0  0  0  0  0  0  0  0  0  0  0  0
   -0.0485    0.7886   -4.4812 H   0  0  0  0  0  0  0  0  0  0  0  0
   -0.5079    1.5215    0.7045 C   0  0  0  0  0  0  0  0  0  0  0  0
   -1.5499    2.1064    0.4258 O   0  0  0  0  0  0  0  0  0  0  0  0
    0.3293    2.0831    1.6524 N   0  0  0  0  0  0  0  0  0  0  0  0
    1.1242    1.5342    1.9657 H   0  0  0  0  0  0  0  0  0  0  0  0
    0.0960    3.3929    2.2490 C   0  0  0  0  0  0  0  0  0  0  0  0
   -0.8358    3.3909    2.8243 H   0  0  0  0  0  0  0  0  0  0  0  0
    0.9181    3.6547    2.9218 H   0  0  0  0  0  0  0  0  0  0  0  0
    0.0287    4.1616    1.4716 H   0  0  0  0  0  0  0  0  0  0  0  0
  1  2  1  0  0  0  0
  2  3  1  0  0  0  0
  2  4  1  0  0  0  0
  2  5  1  0  0  0  0
  5  6  2  0  0  0  0
  5  7  1  0  0  0  0
  7  8  1  0  0  0  0
  7  9  1  0  0  0  0
  9 10  1  0  0  0  0
  9 11  1  0  0  0  0
  9 22  1  0  0  0  0
 11 12  1  0  0  0  0
 11 13  1  0  0  0  0
 11 14  1  0  0  0  0
 14 15  1  0  0  0  0
 14 16  1  0  0  0  0
 14 17  1  0  0  0  0
 17 18  1  0  0  0  0
 18 19  1  0  0  0  0
 18 20  1  0  0  0  0
 18 21  1  0  0  0  0
 22 23  2  0  0  0  0
 22 24  1  0  0  0  0
 24 25  1  0  0  0  0
 24 26  1  0  0  0  0
 26 27  1  0  0  0  0
 26 28  1  0  0  0  0
 26 29  1  0  0  0  0
M  END
$$$$

  -OEChem-02102214153D

 29 28  0     1  0  0  0  0  0999 V2000
   -3.3121   -3.3726    1.1555 H   0  0  0  0  0  0  0  0  0  0  0  0
   -3.2927   -2.3624    0.7374 C   0  0  0  0  0  0  0  0  0  0  0  0
   -3.8804   -1.7033    1.3810 H   0  0  0  0  0  0  0  0  0  0  0  0
   -3.7424   -2.3843   -0.2581 H   0  0  0  0  0  0  0  0  0  0  0  0
   -1.8641   -1.8605    0.6495 C   0  0  0  0  0  0  0  0  0  0  0  0
   -0.9421   -2.5657    1.0285 O   0  0  0  0  0  0  0  0  0  0  0  0
   -1.6104   -0.6031    0.1447 N   0  0  0  0  0  0  0  0  0  0  0  0
   -2.4157    0.0017   -0.0162 H   0  0  0  0  0  0  0  0  0  0  0  0
   -0.3048    0.0700    0.2178 C   0  0  1  0  0  0  0  0  0  0  0  0
    0.2758   -0.3807    1.0295 H   0  0  0  0  0  0  0  0  0  0  0  0
    0.4948   -0.1858   -1.0883 C   0  0  0  0  0  0  0  0  0  0  0  0
    1.2369   -0.9613   -0.8722 H   0  0  0  0  0  0  0  0  0  0  0  0
   -0.1842   -0.6123   -1.8330 H   0  0  0  0  0  0  0  0  0  0  0  0
    1.2240    0.9932   -1.7635 C   0  0  0  0  0  0  0  0  0  0  0  0
    1.9863    1.3770   -1.0783 H   0  0  0  0  0  0  0  0  0  0  0  0
    1.7460    0.6062   -2.6444 H   0  0  0  0  0  0  0  0  0  0  0  0
    0.1759    2.4069   -2.3064 S   0  0  0  0  0  0  0  0  0  0  0  0
   -1.2600    1.6205   -3.1376 C   0  0  0  0  0  0  0  0  0  0  0  0
   -1.8633    1.0679   -2.4118 H   0  0  0  0  0  0  0  0  0  0  0  0
   -1.8896    2.3875   -3.5981 H   0  0  0  0  0  0  0  0  0  0  0  0
   -0.9189    0.9316   -3.9157 H   0  0  0  0  0  0  0  0  0  0  0  0
   -0.5157    1.5376    0.6565 C   0  0  0  0  0  0  0  0  0  0  0  0
   -1.5732    2.1024    0.3903 O   0  0  0  0  0  0  0  0  0  0  0  0
    0.3019    2.0975    1.6219 N   0  0  0  0  0  0  0  0  0  0  0  0
    1.1188    1.5695    1.9137 H   0  0  0  0  0  0  0  0  0  0  0  0
    0.0551    3.4042    2.2198 C   0  0  0  0  0  0  0  0  0  0  0  0
   -0.8764    3.3925    2.7954 H   0  0  0  0  0  0  0  0  0  0  0  0
    0.8747    3.6735    2.8927 H   0  0  0  0  0  0  0  0  0  0  0  0
   -0.0200    4.1730    1.4432 H   0  0  0  0  0  0  0  0  0  0  0  0
  1  2  1  0  0  0  0
  2  3  1  0  0  0  0
  2  4  1  0  0  0  0
  2  5  1  0  0  0  0
  5  6  2  0  0  0  0
  5  7  1  0  0  0  0
  7  8  1  0  0  0  0
  7  9  1  0  0  0  0
  9 10  1  0  0  0  0
  9 11  1  0  0  0  0
  9 22  1  0  0  0  0
 11 12  1  0  0  0  0
 11 13  1  0  0  0  0
 11 14  1  0  0  0  0
 14 15  1  0  0  0  0
 14 16  1  0  0  0  0
 14 17  1  0  0  0  0
 17 18  1  0  0  0  0
 18 19  1  0  0  0  0
 18 20  1  0  0  0  0
 18 21  1  0  0  0  0
 22 23  2  0  0  0  0
 22 24  1  0  0  0  0
 24 25  1  0  0  0  0
 24 26  1  0  0  0  0
 26 27  1  0  0  0  0
 26 28  1  0  0  0  0
 26 29  1  0  0  0  0
M  END
$$$$

  -OEChem-02102214153D

 29 28  0     1  0  0  0  0  0999 V2000
   -3.2662   -3.4227    1.2648 H   0  0  0  0  0  0  0  0  0  0  0  0
   -3.2774   -2.4158    0.8384 C   0  0  0  0  0  0  0  0  0  0  0  0
   -3.8605   -1.7629    1.4924 H   0  0  0  0  0  0  0  0  0  0  0  0
   -3.7528   -2.4544   -0.1447 H   0  0  0  0  0  0  0  0  0  0  0  0
   -1.8613   -1.8874    0.7084 C   0  0  0  0  0  0  0  0  0  0  0  0
   -0.9145   -2.5883    1.0297 O   0  0  0  0  0  0  0  0  0  0  0  0
   -1.6468   -0.6129    0.2284 N   0  0  0  0  0  0  0  0  0  0  0  0
   -2.4668   -0.0162    0.1195 H   0  0  0  0  0  0  0  0  0  0  0  0
   -0.3479    0.0778    0.2630 C   0  0  1  0  0  0  0  0  0  0  0  0
    0.2655   -0.3798    1.0463 H   0  0  0  0  0  0  0  0  0  0  0  0
    0.4127   -0.1652   -1.0732 C   0  0  0  0  0  0  0  0  0  0  0  0
    1.1471   -0.9576   -0.8961 H   0  0  0  0  0  0  0  0  0  0  0  0
   -0.3107   -0.5727   -1.7866 H   0  0  0  0  0  0  0  0  0  0  0  0
    1.1271    0.9836   -1.8212 C   0  0  0  0  0  0  0  0  0  0  0  0
    2.0577    1.2022   -1.2881 H   0  0  0  0  0  0  0  0  0  0  0  0
    1.4048    0.6210   -2.8162 H   0  0  0  0  0  0  0  0  0  0  0  0
    0.2357    2.5798   -2.0235 S   0  0  0  0  0  0  0  0  0  0  0  0
   -1.3371    2.0722   -2.8240 C   0  0  0  0  0  0  0  0  0  0  0  0
   -1.9004    1.4022   -2.1685 H   0  0  0  0  0  0  0  0  0  0  0  0
   -1.9523    2.9532   -3.0288 H   0  0  0  0  0  0  0  0  0  0  0  0
   -1.1349    1.5570   -3.7673 H   0  0  0  0  0  0  0  0  0  0  0  0
   -0.5626    1.5287    0.7516 C   0  0  0  0  0  0  0  0  0  0  0  0
   -1.6415    2.0807    0.5480 O   0  0  0  0  0  0  0  0  0  0  0  0
    0.2868    2.0768    1.6961 N   0  0  0  0  0  0  0  0  0  0  0  0
    1.1450    1.5757    1.9049 H   0  0  0  0  0  0  0  0  0  0  0  0
    0.0678    3.3840    2.3032 C   0  0  0  0  0  0  0  0  0  0  0  0
   -0.8724    3.3940    2.8645 H   0  0  0  0  0  0  0  0  0  0  0  0
    0.8834    3.6224    2.9924 H   0  0  0  0  0  0  0  0  0  0  0  0
    0.0271    4.1613    1.5327 H   0  0  0  0  0  0  0  0  0  0  0  0
  1  2  1  0  0  0  0
  2  3  1  0  0  0  0
  2  4  1  0  0  0  0
  2  5  1  0  0  0  0
  5  6  2  0  0  0  0
  5  7  1  0  0  0  0
  7  8  1  0  0  0  0
  7  9  1  0  0  0  0
  9 10  1  0  0  0  0
  9 11  1  0  0  0  0
  9 22  1  0  0  0  0
 11 12  1  0  0  0  0
 11 13  1  0  0  0  0
 11 14  1  0  0  0  0
 14 15  1  0  0  0  0
 14 16  1  0  0  0  0
 14 17  1  0  0  0  0
 17 18  1  0  0  0  0
 18 19  1  0  0  0  0
 18 20  1  0  0  0  0
 18 21  1  0  0  0  0
 22 23  2  0  0  0  0
 22 24  1  0  0  0  0
 24 25  1  0  0  0  0
 24 26  1  0  0  0  0
 26 27  1  0  0  0  0
 26 28  1  0  0  0  0
 26 29  1  0  0  0  0
M  END
$$$$

  -OEChem-02102214153D

 29 28  0     1  0  0  0  0  0999 V2000
   -3.1947   -3.5082    1.3560 H   0  0  0  0  0  0  0  0  0  0  0  0
   -3.2383   -2.4958    0.9443 C   0  0  0  0  0  0  0  0  0  0  0  0
   -3.8099   -1.8627    1.6272 H   0  0  0  0  0  0  0  0  0  0  0  0
   -3.7462   -2.5296   -0.0225 H   0  0  0  0  0  0  0  0  0  0  0  0
   -1.8373   -1.9401    0.7728 C   0  0  0  0  0  0  0  0  0  0  0  0
   -0.8674   -2.6350    1.0319 O   0  0  0  0  0  0  0  0  0  0  0  0
   -1.6619   -0.6492    0.3218 N   0  0  0  0  0  0  0  0  0  0  0  0
   -2.4944   -0.0630    0.2611 H   0  0  0  0  0  0  0  0  0  0  0  0
   -0.3724    0.0606    0.3234 C   0  0  1  0  0  0  0  0  0  0  0  0
    0.2814   -0.4046    1.0688 H   0  0  0  0  0  0  0  0  0  0  0  0
    0.3322   -0.1469   -1.0528 C   0  0  0  0  0  0  0  0  0  0  0  0
    1.0626   -0.9533   -0.9295 H   0  0  0  0  0  0  0  0  0  0  0  0
   -0.4342   -0.5345   -1.7323 H   0  0  0  0  0  0  0  0  0  0  0  0
    1.0166    0.9913   -1.8526 C   0  0  0  0  0  0  0  0  0  0  0  0
    2.0607    1.0252   -1.5261 H   0  0  0  0  0  0  0  0  0  0  0  0
    1.0251    0.7104   -2.9107 H   0  0  0  0  0  0  0  0  0  0  0  0
    0.3866    2.7124   -1.7183 S   0  0  0  0  0  0  0  0  0  0  0  0
   -1.2617    2.5691   -2.5161 C   0  0  0  0  0  0  0  0  0  0  0  0
   -1.8637    1.8053   -2.0159 H   0  0  0  0  0  0  0  0  0  0  0  0
   -1.7912    3.5244   -2.4536 H   0  0  0  0  0  0  0  0  0  0  0  0
   -1.1514    2.2963   -3.5694 H   0  0  0  0  0  0  0  0  0  0  0  0
   -0.6038    1.4896    0.8643 C   0  0  0  0  0  0  0  0  0  0  0  0
   -1.6970    2.0282    0.7029 O   0  0  0  0  0  0  0  0  0  0  0  0
    0.2669    2.0307    1.7933 N   0  0  0  0  0  0  0  0  0  0  0  0
    1.1567    1.5606    1.9287 H   0  0  0  0  0  0  0  0  0  0  0  0
    0.0583    3.3324    2.4152 C   0  0  0  0  0  0  0  0  0  0  0  0
   -0.8757    3.3393    2.9868 H   0  0  0  0  0  0  0  0  0  0  0  0
    0.8818    3.5621    3.0982 H   0  0  0  0  0  0  0  0  0  0  0  0
    0.0112    4.1169    1.6524 H   0  0  0  0  0  0  0  0  0  0  0  0
  1  2  1  0  0  0  0
  2  3  1  0  0  0  0
  2  4  1  0  0  0  0
  2  5  1  0  0  0  0
  5  6  2  0  0  0  0
  5  7  1  0  0  0  0
  7  8  1  0  0  0  0
  7  9  1  0  0  0  0
  9 10  1  0  0  0  0
  9 11  1  0  0  0  0
  9 22  1  0  0  0  0
 11 12  1  0  0  0  0
 11 13  1  0  0  0  0
 11 14  1  0  0  0  0
 14 15  1  0  0  0  0
 14 16  1  0  0  0  0
 14 17  1  0  0  0  0
 17 18  1  0  0  0  0
 18 19  1  0  0  0  0
 18 20  1  0  0  0  0
 18 21  1  0  0  0  0
 22 23  2  0  0  0  0
 22 24  1  0  0  0  0
 24 25  1  0  0  0  0
 24 26  1  0  0  0  0
 26 27  1  0  0  0  0
 26 28  1  0  0  0  0
 26 29  1  0  0  0  0
M  END
$$$$

  -OEChem-02102214153D

 29 28  0     1  0  0  0  0  0999 V2000
   -3.0377   -3.6122    1.5602 H   0  0  0  0  0  0  0  0  0  0  0  0
   -3.1293   -2.6023    1.1505 C   0  0  0  0  0  0  0  0  0  0  0  0
   -3.6814   -1.9830    1.8616 H   0  0  0  0  0  0  0  0  0  0  0  0
   -3.6854   -2.6515    0.2112 H   0  0  0  0  0  0  0  0  0  0  0  0
   -1.7539   -2.0108    0.9065 C   0  0  0  0  0  0  0  0  0  0  0  0
   -0.7541   -2.6803    1.1138 O   0  0  0  0  0  0  0  0  0  0  0  0
   -1.6347   -0.7144    0.4529 N   0  0  0  0  0  0  0  0  0  0  0  0
   -2.4838   -0.1493    0.4308 H   0  0  0  0  0  0  0  0  0  0  0  0
   -0.3630    0.0247    0.3863 C   0  0  1  0  0  0  0  0  0  0  0  0
    0.3531   -0.4255    1.0819 H   0  0  0  0  0  0  0  0  0  0  0  0
    0.2394   -0.1523   -1.0439 C   0  0  0  0  0  0  0  0  0  0  0  0
    0.9853   -0.9514   -0.9800 H   0  0  0  0  0  0  0  0  0  0  0  0
   -0.5695   -0.5491   -1.6665 H   0  0  0  0  0  0  0  0  0  0  0  0
    0.8512    0.9883   -1.9036 C   0  0  0  0  0  0  0  0  0  0  0  0
    1.9370    0.8537   -1.8669 H   0  0  0  0  0  0  0  0  0  0  0  0
    0.5536    0.8323   -2.9457 H   0  0  0  0  0  0  0  0  0  0  0  0
    0.5571    2.7528   -1.4823 S   0  0  0  0  0  0  0  0  0  0  0  0
   -1.1112    3.0295   -2.1999 C   0  0  0  0  0  0  0  0  0  0  0  0
   -1.0702    2.9629   -3.2908 H   0  0  0  0  0  0  0  0  0  0  0  0
   -1.4785    4.0216   -1.9212 H   0  0  0  0  0  0  0  0  0  0  0  0
   -1.8172    2.2809   -1.8294 H   0  0  0  0  0  0  0  0  0  0  0  0
   -0.6212    1.4395    0.9514 C   0  0  0  0  0  0  0  0  0  0  0  0
   -1.7294    1.9554    0.8188 O   0  0  0  0  0  0  0  0  0  0  0  0
    0.2729    2.0074    1.8413 N   0  0  0  0  0  0  0  0  0  0  0  0
    1.1866    1.5717    1.9235 H   0  0  0  0  0  0  0  0  0  0  0  0
    0.0607    3.3123    2.4550 C   0  0  0  0  0  0  0  0  0  0  0  0
   -0.8581    3.3114    3.0508 H   0  0  0  0  0  0  0  0  0  0  0  0
    0.8982    3.5605    3.1139 H   0  0  0  0  0  0  0  0  0  0  0  0
   -0.0179    4.0882    1.6861 H   0  0  0  0  0  0  0  0  0  0  0  0
  1  2  1  0  0  0  0
  2  3  1  0  0  0  0
  2  4  1  0  0  0  0
  2  5  1  0  0  0  0
  5  6  2  0  0  0  0
  5  7  1  0  0  0  0
  7  8  1  0  0  0  0
  7  9  1  0  0  0  0
  9 10  1  0  0  0  0
  9 11  1  0  0  0  0
  9 22  1  0  0  0  0
 11 12  1  0  0  0  0
 11 13  1  0  0  0  0
 11 14  1  0  0  0  0
 14 15  1  0  0  0  0
 14 16  1  0  0  0  0
 14 17  1  0  0  0  0
 17 18  1  0  0  0  0
 18 19  1  0  0  0  0
 18 20  1  0  0  0  0
 18 21  1  0  0  0  0
 22 23  2  0  0  0  0
 22 24  1  0  0  0  0
 24 25  1  0  0  0  0
 24 26  1  0  0  0  0
 26 27  1  0  0  0  0
 26 28  1  0  0  0  0
 26 29  1  0  0  0  0
M  END
$$$$

  -OEChem-02102214153D

 29 28  0     1  0  0  0  0  0999 V2000
   -2.8546   -3.5584    2.1791 H   0  0  0  0  0  0  0  0  0  0  0  0
   -2.9921   -2.5984    1.6735 C   0  0  0  0  0  0  0  0  0  0  0  0
   -3.5319   -1.9229    2.3415 H   0  0  0  0  0  0  0  0  0  0  0  0
   -3.5848   -2.7571    0.7696 H   0  0  0  0  0  0  0  0  0  0  0  0
   -1.6456   -2.0018    1.3108 C   0  0  0  0  0  0  0  0  0  0  0  0
   -0.6192   -2.6220    1.5398 O   0  0  0  0  0  0  0  0  0  0  0  0
   -1.5828   -0.7560    0.7242 N   0  0  0  0  0  0  0  0  0  0  0  0
   -2.4482   -0.2176    0.6794 H   0  0  0  0  0  0  0  0  0  0  0  0
   -0.3366    0.0008    0.5186 C   0  0  1  0  0  0  0  0  0  0  0  0
    0.4387   -0.3612    1.2019 H   0  0  0  0  0  0  0  0  0  0  0  0
    0.1545   -0.2874   -0.9362 C   0  0  0  0  0  0  0  0  0  0  0  0
    0.9383   -1.0465   -0.8453 H   0  0  0  0  0  0  0  0  0  0  0  0
   -0.6721   -0.7776   -1.4617 H   0  0  0  0  0  0  0  0  0  0  0  0
    0.6763    0.7812   -1.9382 C   0  0  0  0  0  0  0  0  0  0  0  0
    1.6940    0.4863   -2.2135 H   0  0  0  0  0  0  0  0  0  0  0  0
    0.0772    0.7102   -2.8518 H   0  0  0  0  0  0  0  0  0  0  0  0
    0.7636    2.5569   -1.4690 S   0  0  0  0  0  0  0  0  0  0  0  0
   -0.8199    3.2040   -2.1395 C   0  0  0  0  0  0  0  0  0  0  0  0
   -0.8201    3.1480   -3.2319 H   0  0  0  0  0  0  0  0  0  0  0  0
   -1.6643    2.6222   -1.7590 H   0  0  0  0  0  0  0  0  0  0  0  0
   -0.9541    4.2480   -1.8414 H   0  0  0  0  0  0  0  0  0  0  0  0
   -0.6323    1.4528    0.9581 C   0  0  0  0  0  0  0  0  0  0  0  0
   -1.7544    1.9268    0.7897 O   0  0  0  0  0  0  0  0  0  0  0  0
    0.2717    2.1405    1.7481 N   0  0  0  0  0  0  0  0  0  0  0  0
    1.2077    1.7530    1.8217 H   0  0  0  0  0  0  0  0  0  0  0  0
    0.0417    3.5023    2.2131 C   0  0  0  0  0  0  0  0  0  0  0  0
   -0.8678    3.5517    2.8209 H   0  0  0  0  0  0  0  0  0  0  0  0
    0.8835    3.8394    2.8255 H   0  0  0  0  0  0  0  0  0  0  0  0
   -0.0642    4.1837    1.3623 H   0  0  0  0  0  0  0  0  0  0  0  0
  1  2  1  0  0  0  0
  2  3  1  0  0  0  0
  2  4  1  0  0  0  0
  2  5  1  0  0  0  0
  5  6  2  0  0  0  0
  5  7  1  0  0  0  0
  7  8  1  0  0  0  0
  7  9  1  0  0  0  0
  9 10  1  0  0  0  0
  9 11  1  0  0  0  0
  9 22  1  0  0  0  0
 11 12  1  0  0  0  0
 11 13  1  0  0  0  0
 11 14  1  0  0  0  0
 14 15  1  0  0  0  0
 14 16  1  0  0  0  0
 14 17  1  0  0  0  0
 17 18  1  0  0  0  0
 18 19  1  0  0  0  0
 18 20  1  0  0  0  0
 18 21  1  0  0  0  0
 22 23  2  0  0  0  0
 22 24  1  0  0  0  0
 24 25  1  0  0  0  0
 24 26  1  0  0  0  0
 26 27  1  0  0  0  0
 26 28  1  0  0  0  0
 26 29  1  0  0  0  0
M  END
$$$$

  -OEChem-02102214153D

 29 28  0     1  0  0  0  0  0999 V2000
   -3.4509   -3.6441    1.0659 H   0  0  0  0  0  0  0  0  0  0  0  0
   -3.4246   -2.6120    0.7050 C   0  0  0  0  0  0  0  0  0  0  0  0
   -4.0514   -1.9961    1.3546 H   0  0  0  0  0  0  0  0  0  0  0  0
   -3.8250   -2.5829   -0.3112 H   0  0  0  0  0  0  0  0  0  0  0  0
   -2.0002   -2.0909    0.7139 C   0  0  0  0  0  0  0  0  0  0  0  0
   -1.0808   -2.8264    1.0361 O   0  0  0  0  0  0  0  0  0  0  0  0
   -1.7469   -0.7838    0.3581 N   0  0  0  0  0  0  0  0  0  0  0  0
   -2.5509   -0.1702    0.2248 H   0  0  0  0  0  0  0  0  0  0  0  0
   -0.4390   -0.1235    0.5039 C   0  0  1  0  0  0  0  0  0  0  0  0
    0.1914   -0.6533    1.2260 H   0  0  0  0  0  0  0  0  0  0  0  0
    0.2470   -0.1978   -0.8972 C   0  0  0  0  0  0  0  0  0  0  0  0
    0.9746   -1.0123   -0.8194 H   0  0  0  0  0  0  0  0  0  0  0  0
   -0.4974   -0.5325   -1.6278 H   0  0  0  0  0  0  0  0  0  0  0  0
    0.9859    0.9857   -1.5768 C   0  0  0  0  0  0  0  0  0  0  0  0
    1.8936    0.5906   -2.0448 H   0  0  0  0  0  0  0  0  0  0  0  0
    0.3468    1.3449   -2.3900 H   0  0  0  0  0  0  0  0  0  0  0  0
    1.4656    2.4563   -0.5811 S   0  0  0  0  0  0  0  0  0  0  0  0
    0.3609    3.7590   -1.2574 C   0  0  0  0  0  0  0  0  0  0  0  0
    0.5128    4.6973   -0.7163 H   0  0  0  0  0  0  0  0  0  0  0  0
    0.5755    3.9269   -2.3168 H   0  0  0  0  0  0  0  0  0  0  0  0
   -0.6872    3.4626   -1.1534 H   0  0  0  0  0  0  0  0  0  0  0  0
   -0.7455    1.2645    1.1139 C   0  0  0  0  0  0  0  0  0  0  0  0
   -1.7534    1.8779    0.7679 O   0  0  0  0  0  0  0  0  0  0  0  0
    0.0142    1.7561    2.1608 N   0  0  0  0  0  0  0  0  0  0  0  0
    0.8878    1.2767    2.3585 H   0  0  0  0  0  0  0  0  0  0  0  0
   -0.2149    3.0640    2.7619 C   0  0  0  0  0  0  0  0  0  0  0  0
   -1.2358    3.1343    3.1518 H   0  0  0  0  0  0  0  0  0  0  0  0
    0.4809    3.2260    3.5906 H   0  0  0  0  0  0  0  0  0  0  0  0
   -0.0648    3.8567    2.0215 H   0  0  0  0  0  0  0  0  0  0  0  0
  1  2  1  0  0  0  0
  2  3  1  0  0  0  0
  2  4  1  0  0  0  0
  2  5  1  0  0  0  0
  5  6  2  0  0  0  0
  5  7  1  0  0  0  0
  7  8  1  0  0  0  0
  7  9  1  0  0  0  0
  9 10  1  0  0  0  0
  9 11  1  0  0  0  0
  9 22  1  0  0  0  0
 11 12  1  0  0  0  0
 11 13  1  0  0  0  0
 11 14  1  0  0  0  0
 14 15  1  0  0  0  0
 14 16  1  0  0  0  0
 14 17  1  0  0  0  0
 17 18  1  0  0  0  0
 18 19  1  0  0  0  0
 18 20  1  0  0  0  0
 18 21  1  0  0  0  0
 22 23  2  0  0  0  0
 22 24  1  0  0  0  0
 24 25  1  0  0  0  0
 24 26  1  0  0  0  0
 26 27  1  0  0  0  0
 26 28  1  0  0  0  0
 26 29  1  0  0  0  0
M  END
$$$$

  -OEChem-02102214153D

 29 28  0     1  0  0  0  0  0999 V2000
   -3.0162   -3.9677    1.0619 H   0  0  0  0  0  0  0  0  0  0  0  0
   -3.1177   -2.8993    0.8515 C   0  0  0  0  0  0  0  0  0  0  0  0
   -3.6414   -2.4245    1.6847 H   0  0  0  0  0  0  0  0  0  0  0  0
   -3.7073   -2.7741   -0.0599 H   0  0  0  0  0  0  0  0  0  0  0  0
   -1.7495   -2.2689    0.6732 C   0  0  0  0  0  0  0  0  0  0  0  0
   -0.7440   -2.9574    0.7414 O   0  0  0  0  0  0  0  0  0  0  0  0
   -1.6454   -0.9155    0.4350 N   0  0  0  0  0  0  0  0  0  0  0  0
   -2.4965   -0.3587    0.5129 H   0  0  0  0  0  0  0  0  0  0  0  0
   -0.3760   -0.1702    0.4074 C   0  0  1  0  0  0  0  0  0  0  0  0
    0.4288   -0.7198    0.9072 H   0  0  0  0  0  0  0  0  0  0  0  0
   -0.0226   -0.0000   -1.1024 C   0  0  0  0  0  0  0  0  0  0  0  0
    0.7570   -0.7409   -1.3069 H   0  0  0  0  0  0  0  0  0  0  0  0
   -0.8861   -0.2921   -1.7098 H   0  0  0  0  0  0  0  0  0  0  0  0
    0.4732    1.3413   -1.6892 C   0  0  0  0  0  0  0  0  0  0  0  0
    1.0633    1.1403   -2.5892 H   0  0  0  0  0  0  0  0  0  0  0  0
   -0.4146    1.8980   -2.0063 H   0  0  0  0  0  0  0  0  0  0  0  0
    1.4379    2.4491   -0.5808 S   0  0  0  0  0  0  0  0  0  0  0  0
    0.6236    4.0691   -0.8692 C   0  0  0  0  0  0  0  0  0  0  0  0
    1.1141    4.8473   -0.2772 H   0  0  0  0  0  0  0  0  0  0  0  0
   -0.4297    4.0184   -0.5754 H   0  0  0  0  0  0  0  0  0  0  0  0
    0.6833    4.3425   -1.9267 H   0  0  0  0  0  0  0  0  0  0  0  0
   -0.6476    1.1143    1.2288 C   0  0  0  0  0  0  0  0  0  0  0  0
   -1.7232    1.6983    1.1134 O   0  0  0  0  0  0  0  0  0  0  0  0
    0.2622    1.5626    2.1701 N   0  0  0  0  0  0  0  0  0  0  0  0
    1.1867    1.1415    2.1480 H   0  0  0  0  0  0  0  0  0  0  0  0
    0.0743    2.7895    2.9342 C   0  0  0  0  0  0  0  0  0  0  0  0
   -0.8421    2.7333    3.5310 H   0  0  0  0  0  0  0  0  0  0  0  0
    0.9180    2.9449    3.6134 H   0  0  0  0  0  0  0  0  0  0  0  0
    0.0062    3.6521    2.2632 H   0  0  0  0  0  0  0  0  0  0  0  0
  1  2  1  0  0  0  0
  2  3  1  0  0  0  0
  2  4  1  0  0  0  0
  2  5  1  0  0  0  0
  5  6  2  0  0  0  0
  5  7  1  0  0  0  0
  7  8  1  0  0  0  0
  7  9  1  0  0  0  0
  9 10  1  0  0  0  0
  9 11  1  0  0  0  0
  9 22  1  0  0  0  0
 11 12  1  0  0  0  0
 11 13  1  0  0  0  0
 11 14  1  0  0  0  0
 14 15  1  0  0  0  0
 14 16  1  0  0  0  0
 14 17  1  0  0  0  0
 17 18  1  0  0  0  0
 18 19  1  0  0  0  0
 18 20  1  0  0  0  0
 18 21  1  0  0  0  0
 22 23  2  0  0  0  0
 22 24  1  0  0  0  0
 24 25  1  0  0  0  0
 24 26  1  0  0  0  0
 26 27  1  0  0  0  0
 26 28  1  0  0  0  0
 26 29  1  0  0  0  0
M  END
$$$$

  -OEChem-02102214153D

 29 28  0     1  0  0  0  0  0999 V2000
   -2.9795   -3.9721    1.5921 H   0  0  0  0  0  0  0  0  0  0  0  0
   -3.1061   -2.9419    1.2478 C   0  0  0  0  0  0  0  0  0  0  0  0
   -3.7314   -2.4046    1.9649 H   0  0  0  0  0  0  0  0  0  0  0  0
   -3.6054   -2.9542    0.2760 H   0  0  0  0  0  0  0  0  0  0  0  0
   -1.7556   -2.2620    1.1273 C   0  0  0  0  0  0  0  0  0  0  0  0
   -0.7380   -2.8638    1.4308 O   0  0  0  0  0  0  0  0  0  0  0  0
   -1.6813   -0.9631    0.6725 N   0  0  0  0  0  0  0  0  0  0  0  0
   -2.5588   -0.4584    0.5480 H   0  0  0  0  0  0  0  0  0  0  0  0
   -0.4526   -0.1527    0.6696 C   0  0  1  0  0  0  0  0  0  0  0  0
    0.3080   -0.5626    1.3430 H   0  0  0  0  0  0  0  0  0  0  0  0
    0.0798   -0.1820   -0.7926 C   0  0  0  0  0  0  0  0  0  0  0  0
    0.9097   -0.8956   -0.8107 H   0  0  0  0  0  0  0  0  0  0  0  0
   -0.6948   -0.5886   -1.4518 H   0  0  0  0  0  0  0  0  0  0  0  0
    0.5685    1.1195   -1.4547 C   0  0  0  0  0  0  0  0  0  0  0  0
    1.0909    0.8749   -2.3849 H   0  0  0  0  0  0  0  0  0  0  0  0
   -0.3102    1.7184   -1.7173 H   0  0  0  0  0  0  0  0  0  0  0  0
    1.6647    2.1515   -0.3968 S   0  0  0  0  0  0  0  0  0  0  0  0
    1.8140    3.6684   -1.4187 C   0  0  0  0  0  0  0  0  0  0  0  0
    0.8290    4.1192   -1.5729 H   0  0  0  0  0  0  0  0  0  0  0  0
    2.2487    3.4283   -2.3936 H   0  0  0  0  0  0  0  0  0  0  0  0
    2.4577    4.3972   -0.9174 H   0  0  0  0  0  0  0  0  0  0  0  0
   -0.8707    1.2353    1.2163 C   0  0  0  0  0  0  0  0  0  0  0  0
   -1.9407    1.7293    0.8678 O   0  0  0  0  0  0  0  0  0  0  0  0
   -0.1059    1.8902    2.1646 N   0  0  0  0  0  0  0  0  0  0  0  0
    0.8307    1.5274    2.3204 H   0  0  0  0  0  0  0  0  0  0  0  0
   -0.4220    3.2266    2.6522 C   0  0  0  0  0  0  0  0  0  0  0  0
   -1.4210    3.2459    3.1001 H   0  0  0  0  0  0  0  0  0  0  0  0
    0.3019    3.5313    3.4139 H   0  0  0  0  0  0  0  0  0  0  0  0
   -0.3887    3.9506    1.8315 H   0  0  0  0  0  0  0  0  0  0  0  0
  1  2  1  0  0  0  0
  2  3  1  0  0  0  0
  2  4  1  0  0  0  0
  2  5  1  0  0  0  0
  5  6  2  0  0  0  0
  5  7  1  0  0  0  0
  7  8  1  0  0  0  0
  7  9  1  0  0  0  0
  9 10  1  0  0  0  0
  9 11  1  0  0  0  0
  9 22  1  0  0  0  0
 11 12  1  0  0  0  0
 11 13  1  0  0  0  0
 11 14  1  0  0  0  0
 14 15  1  0  0  0  0
 14 16  1  0  0  0  0
 14 17  1  0  0  0  0
 17 18  1  0  0  0  0
 18 19  1  0  0  0  0
 18 20  1  0  0  0  0
 18 21  1  0  0  0  0
 22 23  2  0  0  0  0
 22 24  1  0  0  0  0
 24 25  1  0  0  0  0
 24 26  1  0  0  0  0
 26 27  1  0  0  0  0
 26 28  1  0  0  0  0
 26 29  1  0  0  0  0
M  END
$$$$

  -OEChem-02102214153D

 29 28  0     1  0  0  0  0  0999 V2000
   -3.6561   -3.1717    1.3521 H   0  0  0  0  0  0  0  0  0  0  0  0
   -3.6141   -2.1962    0.8599 C   0  0  0  0  0  0  0  0  0  0  0  0
   -4.3050   -1.5166    1.3646 H   0  0  0  0  0  0  0  0  0  0  0  0
   -3.9238   -2.3132   -0.1812 H   0  0  0  0  0  0  0  0  0  0  0  0
   -2.2043   -1.6401    0.9218 C   0  0  0  0  0  0  0  0  0  0  0  0
   -1.3214   -2.2697    1.4828 O   0  0  0  0  0  0  0  0  0  0  0  0
   -1.9240   -0.4180    0.3495 N   0  0  0  0  0  0  0  0  0  0  0  0
   -2.7123    0.1287    0.0032 H   0  0  0  0  0  0  0  0  0  0  0  0
   -0.6517    0.3009    0.5186 C   0  0  1  0  0  0  0  0  0  0  0  0
   -0.0979   -0.0740    1.3858 H   0  0  0  0  0  0  0  0  0  0  0  0
    0.1961    0.0617   -0.7595 C   0  0  0  0  0  0  0  0  0  0  0  0
    0.9330   -0.7163   -0.5413 H   0  0  0  0  0  0  0  0  0  0  0  0
   -0.4547   -0.3389   -1.5441 H   0  0  0  0  0  0  0  0  0  0  0  0
    0.9051    1.2822   -1.3691 C   0  0  0  0  0  0  0  0  0  0  0  0
    1.4442    0.9704   -2.2693 H   0  0  0  0  0  0  0  0  0  0  0  0
    0.1621    2.0257   -1.6773 H   0  0  0  0  0  0  0  0  0  0  0  0
    2.0971    2.0622   -0.1989 S   0  0  0  0  0  0  0  0  0  0  0  0
    3.3225    0.7294    0.1146 C   0  0  0  0  0  0  0  0  0  0  0  0
    3.7292    0.3576   -0.8306 H   0  0  0  0  0  0  0  0  0  0  0  0
    4.1469    1.1151    0.7216 H   0  0  0  0  0  0  0  0  0  0  0  0
    2.8577   -0.1028    0.6511 H   0  0  0  0  0  0  0  0  0  0  0  0
   -1.0080    1.7797    0.8076 C   0  0  0  0  0  0  0  0  0  0  0  0
   -1.9427    2.3051    0.2086 O   0  0  0  0  0  0  0  0  0  0  0  0
   -0.3733    2.4830    1.8145 N   0  0  0  0  0  0  0  0  0  0  0  0
    0.4801    2.0743    2.1858 H   0  0  0  0  0  0  0  0  0  0  0  0
   -0.6450    3.8885    2.0885 C   0  0  0  0  0  0  0  0  0  0  0  0
   -1.7020    4.0339    2.3355 H   0  0  0  0  0  0  0  0  0  0  0  0
   -0.0440    4.2314    2.9362 H   0  0  0  0  0  0  0  0  0  0  0  0
   -0.3983    4.5030    1.2162 H   0  0  0  0  0  0  0  0  0  0  0  0
  1  2  1  0  0  0  0
  2  3  1  0  0  0  0
  2  4  1  0  0  0  0
  2  5  1  0  0  0  0
  5  6  2  0  0  0  0
  5  7  1  0  0  0  0
  7  8  1  0  0  0  0
  7  9  1  0  0  0  0
  9 10  1  0  0  0  0
  9 11  1  0  0  0  0
  9 22  1  0  0  0  0
 11 12  1  0  0  0  0
 11 13  1  0  0  0  0
 11 14  1  0  0  0  0
 14 15  1  0  0  0  0
 14 16  1  0  0  0  0
 14 17  1  0  0  0  0
 17 18  1  0  0  0  0
 18 19  1  0  0  0  0
 18 20  1  0  0  0  0
 18 21  1  0  0  0  0
 22 23  2  0  0  0  0
 22 24  1  0  0  0  0
 24 25  1  0  0  0  0
 24 26  1  0  0  0  0
 26 27  1  0  0  0  0
 26 28  1  0  0  0  0
 26 29  1  0  0  0  0
M  END
$$$$

  -OEChem-02102214153D

 29 28  0     1  0  0  0  0  0999 V2000
   -3.3927   -3.3769    1.4272 H   0  0  0  0  0  0  0  0  0  0  0  0
   -3.3969   -2.4176    0.9020 C   0  0  0  0  0  0  0  0  0  0  0  0
   -4.1673   -1.7783    1.3402 H   0  0  0  0  0  0  0  0  0  0  0  0
   -3.6337   -2.5932   -0.1502 H   0  0  0  0  0  0  0  0  0  0  0  0
   -2.0403   -1.7500    1.0235 C   0  0  0  0  0  0  0  0  0  0  0  0
   -1.1520   -2.2822    1.6699 O   0  0  0  0  0  0  0  0  0  0  0  0
   -1.8159   -0.5385    0.4053 N   0  0  0  0  0  0  0  0  0  0  0  0
   -2.6187   -0.0759   -0.0201 H   0  0  0  0  0  0  0  0  0  0  0  0
   -0.6127    0.2839    0.6022 C   0  0  1  0  0  0  0  0  0  0  0  0
   -0.1061   -0.0087    1.5280 H   0  0  0  0  0  0  0  0  0  0  0  0
    0.3682    0.0332   -0.5719 C   0  0  0  0  0  0  0  0  0  0  0  0
    1.1403   -0.6688   -0.2461 H   0  0  0  0  0  0  0  0  0  0  0  0
   -0.1823   -0.4611   -1.3792 H   0  0  0  0  0  0  0  0  0  0  0  0
    1.0154    1.2839   -1.1892 C   0  0  0  0  0  0  0  0  0  0  0  0
    1.4765    1.0107   -2.1437 H   0  0  0  0  0  0  0  0  0  0  0  0
    0.2670    2.0518   -1.4100 H   0  0  0  0  0  0  0  0  0  0  0  0
    2.3257    1.9559   -0.0833 S   0  0  0  0  0  0  0  0  0  0  0  0
    3.6730    0.7120   -0.2065 C   0  0  0  0  0  0  0  0  0  0  0  0
    4.5570    1.0653    0.3326 H   0  0  0  0  0  0  0  0  0  0  0  0
    3.9448    0.5491   -1.2535 H   0  0  0  0  0  0  0  0  0  0  0  0
    3.3607   -0.2410    0.2298 H   0  0  0  0  0  0  0  0  0  0  0  0
   -1.0459    1.7545    0.7985 C   0  0  0  0  0  0  0  0  0  0  0  0
   -1.9746    2.2059    0.1348 O   0  0  0  0  0  0  0  0  0  0  0  0
   -0.4876    2.5280    1.7986 N   0  0  0  0  0  0  0  0  0  0  0  0
    0.3499    2.1642    2.2458 H   0  0  0  0  0  0  0  0  0  0  0  0
   -0.8375    3.9271    2.0078 C   0  0  0  0  0  0  0  0  0  0  0  0
   -1.9123    4.0311    2.1909 H   0  0  0  0  0  0  0  0  0  0  0  0
   -0.3016    4.3250    2.8748 H   0  0  0  0  0  0  0  0  0  0  0  0
   -0.5696    4.5235    1.1294 H   0  0  0  0  0  0  0  0  0  0  0  0
  1  2  1  0  0  0  0
  2  3  1  0  0  0  0
  2  4  1  0  0  0  0
  2  5  1  0  0  0  0
  5  6  2  0  0  0  0
  5  7  1  0  0  0  0
  7  8  1  0  0  0  0
  7  9  1  0  0  0  0
  9 10  1  0  0  0  0
  9 11  1  0  0  0  0
  9 22  1  0  0  0  0
 11 12  1  0  0  0  0
 11 13  1  0  0  0  0
 11 14  1  0  0  0  0
 14 15  1  0  0  0  0
 14 16  1  0  0  0  0
 14 17  1  0  0  0  0
 17 18  1  0  0  0  0
 18 19  1  0  0  0  0
 18 20  1  0  0  0  0
 18 21  1  0  0  0  0
 22 23  2  0  0  0  0
 22 24  1  0  0  0  0
 24 25  1  0  0  0  0
 24 26  1  0  0  0  0
 26 27  1  0  0  0  0
 26 28  1  0  0  0  0
 26 29  1  0  0  0  0
M  END
$$$$

  -OEChem-02102214153D

 29 28  0     1  0  0  0  0  0999 V2000
   -3.3834   -3.4187    1.2288 H   0  0  0  0  0  0  0  0  0  0  0  0
   -3.3339   -2.4374    0.7486 C   0  0  0  0  0  0  0  0  0  0  0  0
   -4.0090   -1.7553    1.2709 H   0  0  0  0  0  0  0  0  0  0  0  0
   -3.6582   -2.5366   -0.2901 H   0  0  0  0  0  0  0  0  0  0  0  0
   -1.9157   -1.9017    0.7983 C   0  0  0  0  0  0  0  0  0  0  0  0
   -1.0280   -2.5624    1.3133 O   0  0  0  0  0  0  0  0  0  0  0  0
   -1.6342   -0.6578    0.2754 N   0  0  0  0  0  0  0  0  0  0  0  0
   -2.4187   -0.0921   -0.0472 H   0  0  0  0  0  0  0  0  0  0  0  0
   -0.3239    0.0071    0.3618 C   0  0  1  0  0  0  0  0  0  0  0  0
    0.3089   -0.4398    1.1352 H   0  0  0  0  0  0  0  0  0  0  0  0
    0.3522   -0.1786   -1.0281 C   0  0  0  0  0  0  0  0  0  0  0  0
    1.0607   -1.0105   -0.9592 H   0  0  0  0  0  0  0  0  0  0  0  0
   -0.4199   -0.4900   -1.7400 H   0  0  0  0  0  0  0  0  0  0  0  0
    1.0545    1.0237   -1.6903 C   0  0  0  0  0  0  0  0  0  0  0  0
    1.0099    0.8838   -2.7752 H   0  0  0  0  0  0  0  0  0  0  0  0
    0.5427    1.9663   -1.4773 H   0  0  0  0  0  0  0  0  0  0  0  0
    2.8376    1.1391   -1.2301 S   0  0  0  0  0  0  0  0  0  0  0  0
    2.9637    1.6563    0.5217 C   0  0  0  0  0  0  0  0  0  0  0  0
    2.4962    0.9126    1.1717 H   0  0  0  0  0  0  0  0  0  0  0  0
    4.0162    1.7494    0.8060 H   0  0  0  0  0  0  0  0  0  0  0  0
    2.4812    2.6273    0.6633 H   0  0  0  0  0  0  0  0  0  0  0  0
   -0.6149    1.4709    0.7685 C   0  0  0  0  0  0  0  0  0  0  0  0
   -1.5371    2.0790    0.2339 O   0  0  0  0  0  0  0  0  0  0  0  0
    0.1196    2.1062    1.7517 N   0  0  0  0  0  0  0  0  0  0  0  0
    0.8109    1.5527    2.2493 H   0  0  0  0  0  0  0  0  0  0  0  0
   -0.1553    3.4643    2.2059 C   0  0  0  0  0  0  0  0  0  0  0  0
   -1.1658    3.5320    2.6225 H   0  0  0  0  0  0  0  0  0  0  0  0
    0.5593    3.7562    2.9815 H   0  0  0  0  0  0  0  0  0  0  0  0
   -0.0686    4.1712    1.3739 H   0  0  0  0  0  0  0  0  0  0  0  0
  1  2  1  0  0  0  0
  2  3  1  0  0  0  0
  2  4  1  0  0  0  0
  2  5  1  0  0  0  0
  5  6  2  0  0  0  0
  5  7  1  0  0  0  0
  7  8  1  0  0  0  0
  7  9  1  0  0  0  0
  9 10  1  0  0  0  0
  9 11  1  0  0  0  0
  9 22  1  0  0  0  0
 11 12  1  0  0  0  0
 11 13  1  0  0  0  0
 11 14  1  0  0  0  0
 14 15  1  0  0  0  0
 14 16  1  0  0  0  0
 14 17  1  0  0  0  0
 17 18  1  0  0  0  0
 18 19  1  0  0  0  0
 18 20  1  0  0  0  0
 18 21  1  0  0  0  0
 22 23  2  0  0  0  0
 22 24  1  0  0  0  0
 24 25  1  0  0  0  0
 24 26  1  0  0  0  0
 26 27  1  0  0  0  0
 26 28  1  0  0  0  0
 26 29  1  0  0  0  0
M  END
$$$$

  -OEChem-02102214153D

 29 28  0     1  0  0  0  0  0999 V2000
   -3.3265   -3.4384    1.2430 H   0  0  0  0  0  0  0  0  0  0  0  0
   -3.3015   -2.4525    0.7704 C   0  0  0  0  0  0  0  0  0  0  0  0
   -3.9741   -1.7845    1.3140 H   0  0  0  0  0  0  0  0  0  0  0  0
   -3.6488   -2.5480   -0.2612 H   0  0  0  0  0  0  0  0  0  0  0  0
   -1.8897   -1.8976    0.7919 C   0  0  0  0  0  0  0  0  0  0  0  0
   -0.9824   -2.5507    1.2818 O   0  0  0  0  0  0  0  0  0  0  0  0
   -1.6358   -0.6472    0.2697 N   0  0  0  0  0  0  0  0  0  0  0  0
   -2.4345   -0.0925   -0.0355 H   0  0  0  0  0  0  0  0  0  0  0  0
   -0.3331    0.0338    0.3259 C   0  0  1  0  0  0  0  0  0  0  0  0
    0.2955   -0.4129    1.1034 H   0  0  0  0  0  0  0  0  0  0  0  0
    0.3770   -0.1718   -1.0422 C   0  0  0  0  0  0  0  0  0  0  0  0
    1.1001   -0.9879   -0.9419 H   0  0  0  0  0  0  0  0  0  0  0  0
   -0.3740   -0.5180   -1.7601 H   0  0  0  0  0  0  0  0  0  0  0  0
    1.0606    1.0454   -1.7034 C   0  0  0  0  0  0  0  0  0  0  0  0
    0.8281    1.0267   -2.7731 H   0  0  0  0  0  0  0  0  0  0  0  0
    0.7006    2.0059   -1.3287 H   0  0  0  0  0  0  0  0  0  0  0  0
    2.8897    0.9421   -1.5348 S   0  0  0  0  0  0  0  0  0  0  0  0
    3.1803    1.2462    0.2510 C   0  0  0  0  0  0  0  0  0  0  0  0
    2.6945    0.4739    0.8535 H   0  0  0  0  0  0  0  0  0  0  0  0
    4.2538    1.2279    0.4619 H   0  0  0  0  0  0  0  0  0  0  0  0
    2.7856    2.2255    0.5365 H   0  0  0  0  0  0  0  0  0  0  0  0
   -0.5704    1.5006    0.7446 C   0  0  0  0  0  0  0  0  0  0  0  0
   -1.4987    2.1336    0.2534 O   0  0  0  0  0  0  0  0  0  0  0  0
    0.2268    2.0999    1.7021 N   0  0  0  0  0  0  0  0  0  0  0  0
    0.9291    1.5231    2.1561 H   0  0  0  0  0  0  0  0  0  0  0  0
    0.0165    3.4614    2.1788 C   0  0  0  0  0  0  0  0  0  0  0  0
   -0.9775    3.5616    2.6275 H   0  0  0  0  0  0  0  0  0  0  0  0
    0.7648    3.7176    2.9350 H   0  0  0  0  0  0  0  0  0  0  0  0
    0.1037    4.1743    1.3522 H   0  0  0  0  0  0  0  0  0  0  0  0
  1  2  1  0  0  0  0
  2  3  1  0  0  0  0
  2  4  1  0  0  0  0
  2  5  1  0  0  0  0
  5  6  2  0  0  0  0
  5  7  1  0  0  0  0
  7  8  1  0  0  0  0
  7  9  1  0  0  0  0
  9 10  1  0  0  0  0
  9 11  1  0  0  0  0
  9 22  1  0  0  0  0
 11 12  1  0  0  0  0
 11 13  1  0  0  0  0
 11 14  1  0  0  0  0
 14 15  1  0  0  0  0
 14 16  1  0  0  0  0
 14 17  1  0  0  0  0
 17 18  1  0  0  0  0
 18 19  1  0  0  0  0
 18 20  1  0  0  0  0
 18 21  1  0  0  0  0
 22 23  2  0  0  0  0
 22 24  1  0  0  0  0
 24 25  1  0  0  0  0
 24 26  1  0  0  0  0
 26 27  1  0  0  0  0
 26 28  1  0  0  0  0
 26 29  1  0  0  0  0
M  END
$$$$

  -OEChem-02102214153D

 29 28  0     1  0  0  0  0  0999 V2000
   -3.2933   -3.4439    1.2487 H   0  0  0  0  0  0  0  0  0  0  0  0
   -3.2771   -2.4573    0.7773 C   0  0  0  0  0  0  0  0  0  0  0  0
   -3.9492   -1.7936    1.3265 H   0  0  0  0  0  0  0  0  0  0  0  0
   -3.6303   -2.5525   -0.2522 H   0  0  0  0  0  0  0  0  0  0  0  0
   -1.8685   -1.8951    0.7905 C   0  0  0  0  0  0  0  0  0  0  0  0
   -0.9541   -2.5436    1.2733 O   0  0  0  0  0  0  0  0  0  0  0  0
   -1.6263   -0.6417    0.2698 N   0  0  0  0  0  0  0  0  0  0  0  0
   -2.4294   -0.0954   -0.0389 H   0  0  0  0  0  0  0  0  0  0  0  0
   -0.3275    0.0461    0.3170 C   0  0  1  0  0  0  0  0  0  0  0  0
    0.3065   -0.3995    1.0906 H   0  0  0  0  0  0  0  0  0  0  0  0
    0.3819   -0.1556   -1.0508 C   0  0  0  0  0  0  0  0  0  0  0  0
    1.1148   -0.9606   -0.9348 H   0  0  0  0  0  0  0  0  0  0  0  0
   -0.3559   -0.5233   -1.7719 H   0  0  0  0  0  0  0  0  0  0  0  0
    1.0551    1.0705   -1.7107 C   0  0  0  0  0  0  0  0  0  0  0  0
    0.6009    1.2341   -2.6934 H   0  0  0  0  0  0  0  0  0  0  0  0
    0.9278    1.9971   -1.1486 H   0  0  0  0  0  0  0  0  0  0  0  0
    2.8535    0.7670   -1.9375 S   0  0  0  0  0  0  0  0  0  0  0  0
    3.4666    0.8134   -0.2069 C   0  0  0  0  0  0  0  0  0  0  0  0
    3.0193    0.0053    0.3790 H   0  0  0  0  0  0  0  0  0  0  0  0
    4.5540    0.6935   -0.1923 H   0  0  0  0  0  0  0  0  0  0  0  0
    3.2137    1.7709    0.2578 H   0  0  0  0  0  0  0  0  0  0  0  0
   -0.5619    1.5110    0.7415 C   0  0  0  0  0  0  0  0  0  0  0  0
   -1.4891    2.1491    0.2556 O   0  0  0  0  0  0  0  0  0  0  0  0
    0.2476    2.1041    1.6927 N   0  0  0  0  0  0  0  0  0  0  0  0
    0.9612    1.5274    2.1291 H   0  0  0  0  0  0  0  0  0  0  0  0
    0.0538    3.4681    2.1693 C   0  0  0  0  0  0  0  0  0  0  0  0
   -0.9349    3.5780    2.6270 H   0  0  0  0  0  0  0  0  0  0  0  0
    0.8112    3.7181    2.9185 H   0  0  0  0  0  0  0  0  0  0  0  0
    0.1398    4.1791    1.3409 H   0  0  0  0  0  0  0  0  0  0  0  0
  1  2  1  0  0  0  0
  2  3  1  0  0  0  0
  2  4  1  0  0  0  0
  2  5  1  0  0  0  0
  5  6  2  0  0  0  0
  5  7  1  0  0  0  0
  7  8  1  0  0  0  0
  7  9  1  0  0  0  0
  9 10  1  0  0  0  0
  9 11  1  0  0  0  0
  9 22  1  0  0  0  0
 11 12  1  0  0  0  0
 11 13  1  0  0  0  0
 11 14  1  0  0  0  0
 14 15  1  0  0  0  0
 14 16  1  0  0  0  0
 14 17  1  0  0  0  0
 17 18  1  0  0  0  0
 18 19  1  0  0  0  0
 18 20  1  0  0  0  0
 18 21  1  0  0  0  0
 22 23  2  0  0  0  0
 22 24  1  0  0  0  0
 24 25  1  0  0  0  0
 24 26  1  0  0  0  0
 26 27  1  0  0  0  0
 26 28  1  0  0  0  0
 26 29  1  0  0  0  0
M  END
$$$$

  -OEChem-02102214153D

 29 28  0     1  0  0  0  0  0999 V2000
   -3.3091   -3.4377    1.2470 H   0  0  0  0  0  0  0  0  0  0  0  0
   -3.2868   -2.4518    0.7744 C   0  0  0  0  0  0  0  0  0  0  0  0
   -3.9610   -1.7856    1.3181 H   0  0  0  0  0  0  0  0  0  0  0  0
   -3.6340   -2.5481   -0.2572 H   0  0  0  0  0  0  0  0  0  0  0  0
   -1.8765   -1.8929    0.7960 C   0  0  0  0  0  0  0  0  0  0  0  0
   -0.9678   -2.5427    1.2883 O   0  0  0  0  0  0  0  0  0  0  0  0
   -1.6246   -0.6431    0.2708 N   0  0  0  0  0  0  0  0  0  0  0  0
   -2.4231   -0.0924   -0.0422 H   0  0  0  0  0  0  0  0  0  0  0  0
   -0.3211    0.0361    0.3210 C   0  0  1  0  0  0  0  0  0  0  0  0
    0.3141   -0.4118    1.0921 H   0  0  0  0  0  0  0  0  0  0  0  0
    0.3749   -0.1587   -1.0537 C   0  0  0  0  0  0  0  0  0  0  0  0
    1.1153   -0.9550   -0.9305 H   0  0  0  0  0  0  0  0  0  0  0  0
   -0.3538   -0.5326   -1.7808 H   0  0  0  0  0  0  0  0  0  0  0  0
    1.0480    1.0762   -1.6934 C   0  0  0  0  0  0  0  0  0  0  0  0
    0.4152    1.4555   -2.5026 H   0  0  0  0  0  0  0  0  0  0  0  0
    1.1923    1.8926   -0.9826 H   0  0  0  0  0  0  0  0  0  0  0  0
    2.7080    0.6329   -2.3485 S   0  0  0  0  0  0  0  0  0  0  0  0
    3.7056    0.4590   -0.8151 C   0  0  0  0  0  0  0  0  0  0  0  0
    3.3067   -0.3411   -0.1850 H   0  0  0  0  0  0  0  0  0  0  0  0
    4.7419    0.2172   -1.0692 H   0  0  0  0  0  0  0  0  0  0  0  0
    3.6940    1.3945   -0.2481 H   0  0  0  0  0  0  0  0  0  0  0  0
   -0.5546    1.5038    0.7391 C   0  0  0  0  0  0  0  0  0  0  0  0
   -1.4752    2.1436    0.2430 O   0  0  0  0  0  0  0  0  0  0  0  0
    0.2504    2.0990    1.6930 N   0  0  0  0  0  0  0  0  0  0  0  0
    0.9587    1.5217    2.1377 H   0  0  0  0  0  0  0  0  0  0  0  0
    0.0487    3.4615    2.1709 C   0  0  0  0  0  0  0  0  0  0  0  0
   -0.9445    3.5672    2.6201 H   0  0  0  0  0  0  0  0  0  0  0  0
    0.7985    3.7125    2.9274 H   0  0  0  0  0  0  0  0  0  0  0  0
    0.1396    4.1748    1.3448 H   0  0  0  0  0  0  0  0  0  0  0  0
  1  2  1  0  0  0  0
  2  3  1  0  0  0  0
  2  4  1  0  0  0  0
  2  5  1  0  0  0  0
  5  6  2  0  0  0  0
  5  7  1  0  0  0  0
  7  8  1  0  0  0  0
  7  9  1  0  0  0  0
  9 10  1  0  0  0  0
  9 11  1  0  0  0  0
  9 22  1  0  0  0  0
 11 12  1  0  0  0  0
 11 13  1  0  0  0  0
 11 14  1  0  0  0  0
 14 15  1  0  0  0  0
 14 16  1  0  0  0  0
 14 17  1  0  0  0  0
 17 18  1  0  0  0  0
 18 19  1  0  0  0  0
 18 20  1  0  0  0  0
 18 21  1  0  0  0  0
 22 23  2  0  0  0  0
 22 24  1  0  0  0  0
 24 25  1  0  0  0  0
 24 26  1  0  0  0  0
 26 27  1  0  0  0  0
 26 28  1  0  0  0  0
 26 29  1  0  0  0  0
M  END
$$$$

  -OEChem-02102214153D

 29 28  0     1  0  0  0  0  0999 V2000
   -3.3368   -3.4288    1.2550 H   0  0  0  0  0  0  0  0  0  0  0  0
   -3.3041   -2.4491    0.7703 C   0  0  0  0  0  0  0  0  0  0  0  0
   -3.9817   -1.7725    1.2965 H   0  0  0  0  0  0  0  0  0  0  0  0
   -3.6378   -2.5567   -0.2646 H   0  0  0  0  0  0  0  0  0  0  0  0
   -1.8918   -1.8973    0.8034 C   0  0  0  0  0  0  0  0  0  0  0  0
   -0.9905   -2.5497    1.3056 O   0  0  0  0  0  0  0  0  0  0  0  0
   -1.6301   -0.6512    0.2748 N   0  0  0  0  0  0  0  0  0  0  0  0
   -2.4228   -0.1005   -0.0524 H   0  0  0  0  0  0  0  0  0  0  0  0
   -0.3228    0.0196    0.3233 C   0  0  1  0  0  0  0  0  0  0  0  0
    0.3121   -0.4332    1.0923 H   0  0  0  0  0  0  0  0  0  0  0  0
    0.3641   -0.1726   -1.0545 C   0  0  0  0  0  0  0  0  0  0  0  0
    1.1114   -0.9622   -0.9342 H   0  0  0  0  0  0  0  0  0  0  0  0
   -0.3616   -0.5422   -1.7867 H   0  0  0  0  0  0  0  0  0  0  0  0
    1.0308    1.0753   -1.6640 C   0  0  0  0  0  0  0  0  0  0  0  0
    0.2968    1.6337   -2.2551 H   0  0  0  0  0  0  0  0  0  0  0  0
    1.4147    1.7435   -0.8886 H   0  0  0  0  0  0  0  0  0  0  0  0
    2.4601    0.5865   -2.7118 S   0  0  0  0  0  0  0  0  0  0  0  0
    3.7552    0.1897   -1.4700 C   0  0  0  0  0  0  0  0  0  0  0  0
    3.4372   -0.6404   -0.8330 H   0  0  0  0  0  0  0  0  0  0  0  0
    4.6823   -0.0962   -1.9758 H   0  0  0  0  0  0  0  0  0  0  0  0
    3.9552    1.0615   -0.8403 H   0  0  0  0  0  0  0  0  0  0  0  0
   -0.5411    1.4920    0.7363 C   0  0  0  0  0  0  0  0  0  0  0  0
   -1.4547    2.1394    0.2372 O   0  0  0  0  0  0  0  0  0  0  0  0
    0.2700    2.0835    1.6875 N   0  0  0  0  0  0  0  0  0  0  0  0
    0.9742    1.5023    2.1337 H   0  0  0  0  0  0  0  0  0  0  0  0
    0.0864    3.4526    2.1539 C   0  0  0  0  0  0  0  0  0  0  0  0
   -0.9124    3.5801    2.5847 H   0  0  0  0  0  0  0  0  0  0  0  0
    0.8271    3.6939    2.9223 H   0  0  0  0  0  0  0  0  0  0  0  0
    0.2058    4.1588    1.3254 H   0  0  0  0  0  0  0  0  0  0  0  0
  1  2  1  0  0  0  0
  2  3  1  0  0  0  0
  2  4  1  0  0  0  0
  2  5  1  0  0  0  0
  5  6  2  0  0  0  0
  5  7  1  0  0  0  0
  7  8  1  0  0  0  0
  7  9  1  0  0  0  0
  9 10  1  0  0  0  0
  9 11  1  0  0  0  0
  9 22  1  0  0  0  0
 11 12  1  0  0  0  0
 11 13  1  0  0  0  0
 11 14  1  0  0  0  0
 14 15  1  0  0  0  0
 14 16  1  0  0  0  0
 14 17  1  0  0  0  0
 17 18  1  0  0  0  0
 18 19  1  0  0  0  0
 18 20  1  0  0  0  0
 18 21  1  0  0  0  0
 22 23  2  0  0  0  0
 22 24  1  0  0  0  0
 24 25  1  0  0  0  0
 24 26  1  0  0  0  0
 26 27  1  0  0  0  0
 26 28  1  0  0  0  0
 26 29  1  0  0  0  0
M  END
$$$$

  -OEChem-02102214153D

 29 28  0     1  0  0  0  0  0999 V2000
   -3.3403   -3.4246    1.2658 H   0  0  0  0  0  0  0  0  0  0  0  0
   -3.3079   -2.4453    0.7800 C   0  0  0  0  0  0  0  0  0  0  0  0
   -3.9798   -1.7665    1.3106 H   0  0  0  0  0  0  0  0  0  0  0  0
   -3.6498   -2.5524   -0.2522 H   0  0  0  0  0  0  0  0  0  0  0  0
   -1.8938   -1.8972    0.8023 C   0  0  0  0  0  0  0  0  0  0  0  0
   -0.9903   -2.5516    1.2981 O   0  0  0  0  0  0  0  0  0  0  0  0
   -1.6332   -0.6518    0.2713 N   0  0  0  0  0  0  0  0  0  0  0  0
   -2.4273   -0.1003   -0.0511 H   0  0  0  0  0  0  0  0  0  0  0  0
   -0.3260    0.0192    0.3149 C   0  0  1  0  0  0  0  0  0  0  0  0
    0.3079   -0.4342    1.0841 H   0  0  0  0  0  0  0  0  0  0  0  0
    0.3650   -0.1761   -1.0587 C   0  0  0  0  0  0  0  0  0  0  0  0
    1.1171   -0.9614   -0.9412 H   0  0  0  0  0  0  0  0  0  0  0  0
   -0.3608   -0.5413   -1.7931 H   0  0  0  0  0  0  0  0  0  0  0  0
    1.0229    1.0805   -1.6510 C   0  0  0  0  0  0  0  0  0  0  0  0
    0.2503    1.7612   -2.0254 H   0  0  0  0  0  0  0  0  0  0  0  0
    1.6029    1.6110   -0.8898 H   0  0  0  0  0  0  0  0  0  0  0  0
    2.1578    0.6185   -3.0211 S   0  0  0  0  0  0  0  0  0  0  0  0
    3.6271   -0.0435   -2.1382 C   0  0  0  0  0  0  0  0  0  0  0  0
    3.3625   -0.9357   -1.5638 H   0  0  0  0  0  0  0  0  0  0  0  0
    4.4045   -0.3136   -2.8590 H   0  0  0  0  0  0  0  0  0  0  0  0
    4.0301    0.7100   -1.4551 H   0  0  0  0  0  0  0  0  0  0  0  0
   -0.5311    1.4943    0.7258 C   0  0  0  0  0  0  0  0  0  0  0  0
   -1.4528    2.1424    0.2431 O   0  0  0  0  0  0  0  0  0  0  0  0
    0.2895    2.0815    1.6713 N   0  0  0  0  0  0  0  0  0  0  0  0
    0.9958    1.4972    2.1101 H   0  0  0  0  0  0  0  0  0  0  0  0
    0.1080    3.4470    2.1493 C   0  0  0  0  0  0  0  0  0  0  0  0
   -0.8842    3.5682    2.5969 H   0  0  0  0  0  0  0  0  0  0  0  0
    0.8602    3.6859    2.9074 H   0  0  0  0  0  0  0  0  0  0  0  0
    0.2116    4.1591    1.3237 H   0  0  0  0  0  0  0  0  0  0  0  0
  1  2  1  0  0  0  0
  2  3  1  0  0  0  0
  2  4  1  0  0  0  0
  2  5  1  0  0  0  0
  5  6  2  0  0  0  0
  5  7  1  0  0  0  0
  7  8  1  0  0  0  0
  7  9  1  0  0  0  0
  9 10  1  0  0  0  0
  9 11  1  0  0  0  0
  9 22  1  0  0  0  0
 11 12  1  0  0  0  0
 11 13  1  0  0  0  0
 11 14  1  0  0  0  0
 14 15  1  0  0  0  0
 14 16  1  0  0  0  0
 14 17  1  0  0  0  0
 17 18  1  0  0  0  0
 18 19  1  0  0  0  0
 18 20  1  0  0  0  0
 18 21  1  0  0  0  0
 22 23  2  0  0  0  0
 22 24  1  0  0  0  0
 24 25  1  0  0  0  0
 24 26  1  0  0  0  0
 26 27  1  0  0  0  0
 26 28  1  0  0  0  0
 26 29  1  0  0  0  0
M  END
$$$$

  -OEChem-02102214153D

 29 28  0     1  0  0  0  0  0999 V2000
   -3.3162   -3.4248    1.2537 H   0  0  0  0  0  0  0  0  0  0  0  0
   -3.2843   -2.4444    0.7700 C   0  0  0  0  0  0  0  0  0  0  0  0
   -3.9577   -1.7674    1.3011 H   0  0  0  0  0  0  0  0  0  0  0  0
   -3.6249   -2.5497   -0.2628 H   0  0  0  0  0  0  0  0  0  0  0  0
   -1.8705   -1.8948    0.7950 C   0  0  0  0  0  0  0  0  0  0  0  0
   -0.9670   -2.5486    1.2919 O   0  0  0  0  0  0  0  0  0  0  0  0
   -1.6088   -0.6503    0.2626 N   0  0  0  0  0  0  0  0  0  0  0  0
   -2.4026   -0.0988   -0.0607 H   0  0  0  0  0  0  0  0  0  0  0  0
   -0.3049    0.0254    0.3192 C   0  0  1  0  0  0  0  0  0  0  0  0
    0.3279   -0.4236    1.0916 H   0  0  0  0  0  0  0  0  0  0  0  0
    0.3913   -0.1622   -1.0486 C   0  0  0  0  0  0  0  0  0  0  0  0
    0.9330   -1.1123   -1.0319 H   0  0  0  0  0  0  0  0  0  0  0  0
   -0.3725   -0.2369   -1.8302 H   0  0  0  0  0  0  0  0  0  0  0  0
    1.3398    0.9768   -1.4515 C   0  0  0  0  0  0  0  0  0  0  0  0
    0.7857    1.9182   -1.5304 H   0  0  0  0  0  0  0  0  0  0  0  0
    2.1250    1.1044   -0.6999 H   0  0  0  0  0  0  0  0  0  0  0  0
    2.0966    0.6250   -3.0891 S   0  0  0  0  0  0  0  0  0  0  0  0
    3.2949   -0.7177   -2.7171 C   0  0  0  0  0  0  0  0  0  0  0  0
    2.7735   -1.6163   -2.3760 H   0  0  0  0  0  0  0  0  0  0  0  0
    3.8647   -0.9688   -3.6168 H   0  0  0  0  0  0  0  0  0  0  0  0
    3.9938   -0.3978   -1.9386 H   0  0  0  0  0  0  0  0  0  0  0  0
   -0.5174    1.5008    0.7220 C   0  0  0  0  0  0  0  0  0  0  0  0
   -1.4366    2.1443    0.2291 O   0  0  0  0  0  0  0  0  0  0  0  0
    0.2918    2.0924    1.6746 N   0  0  0  0  0  0  0  0  0  0  0  0
    0.9959    1.5117    2.1214 H   0  0  0  0  0  0  0  0  0  0  0  0
    0.1036    3.4595    2.1453 C   0  0  0  0  0  0  0  0  0  0  0  0
   -0.8907    3.5791    2.5888 H   0  0  0  0  0  0  0  0  0  0  0  0
    0.8524    3.7046    2.9048 H   0  0  0  0  0  0  0  0  0  0  0  0
    0.2076    4.1683    1.3168 H   0  0  0  0  0  0  0  0  0  0  0  0
  1  2  1  0  0  0  0
  2  3  1  0  0  0  0
  2  4  1  0  0  0  0
  2  5  1  0  0  0  0
  5  6  2  0  0  0  0
  5  7  1  0  0  0  0
  7  8  1  0  0  0  0
  7  9  1  0  0  0  0
  9 10  1  0  0  0  0
  9 11  1  0  0  0  0
  9 22  1  0  0  0  0
 11 12  1  0  0  0  0
 11 13  1  0  0  0  0
 11 14  1  0  0  0  0
 14 15  1  0  0  0  0
 14 16  1  0  0  0  0
 14 17  1  0  0  0  0
 17 18  1  0  0  0  0
 18 19  1  0  0  0  0
 18 20  1  0  0  0  0
 18 21  1  0  0  0  0
 22 23  2  0  0  0  0
 22 24  1  0  0  0  0
 24 25  1  0  0  0  0
 24 26  1  0  0  0  0
 26 27  1  0  0  0  0
 26 28  1  0  0  0  0
 26 29  1  0  0  0  0
M  END
$$$$

  -OEChem-02102214153D

 29 28  0     1  0  0  0  0  0999 V2000
   -3.2629   -3.4396    1.1904 H   0  0  0  0  0  0  0  0  0  0  0  0
   -3.2400   -2.4448    0.7369 C   0  0  0  0  0  0  0  0  0  0  0  0
   -3.9108   -1.7876    1.2956 H   0  0  0  0  0  0  0  0  0  0  0  0
   -3.5906   -2.5198   -0.2952 H   0  0  0  0  0  0  0  0  0  0  0  0
   -1.8286   -1.8897    0.7644 C   0  0  0  0  0  0  0  0  0  0  0  0
   -0.9215   -2.5438    1.2543 O   0  0  0  0  0  0  0  0  0  0  0  0
   -1.5736   -0.6382    0.2459 N   0  0  0  0  0  0  0  0  0  0  0  0
   -2.3708   -0.0857   -0.0678 H   0  0  0  0  0  0  0  0  0  0  0  0
   -0.2760    0.0479    0.3198 C   0  0  1  0  0  0  0  0  0  0  0  0
    0.3505   -0.3997    1.0983 H   0  0  0  0  0  0  0  0  0  0  0  0
    0.4422   -0.1304   -1.0400 C   0  0  0  0  0  0  0  0  0  0  0  0
    0.9827   -1.0816   -1.0312 H   0  0  0  0  0  0  0  0  0  0  0  0
   -0.3230   -0.1986   -1.8208 H   0  0  0  0  0  0  0  0  0  0  0  0
    1.3941    1.0070   -1.4497 C   0  0  0  0  0  0  0  0  0  0  0  0
    0.9206    1.9831   -1.3086 H   0  0  0  0  0  0  0  0  0  0  0  0
    2.3024    0.9786   -0.8400 H   0  0  0  0  0  0  0  0  0  0  0  0
    1.8155    0.8750   -3.2342 S   0  0  0  0  0  0  0  0  0  0  0  0
    2.7884   -0.6812   -3.3162 C   0  0  0  0  0  0  0  0  0  0  0  0
    2.1589   -1.5402   -3.0670 H   0  0  0  0  0  0  0  0  0  0  0  0
    3.1830   -0.8217   -4.3269 H   0  0  0  0  0  0  0  0  0  0  0  0
    3.6274   -0.6416   -2.6153 H   0  0  0  0  0  0  0  0  0  0  0  0
   -0.5132    1.5155    0.7350 C   0  0  0  0  0  0  0  0  0  0  0  0
   -1.4414    2.1484    0.2451 O   0  0  0  0  0  0  0  0  0  0  0  0
    0.2785    2.1083    1.7013 N   0  0  0  0  0  0  0  0  0  0  0  0
    0.9861    1.5325    2.1487 H   0  0  0  0  0  0  0  0  0  0  0  0
    0.0629    3.4656    2.1877 C   0  0  0  0  0  0  0  0  0  0  0  0
   -0.9197    3.5507    2.6636 H   0  0  0  0  0  0  0  0  0  0  0  0
    0.8285    3.7292    2.9238 H   0  0  0  0  0  0  0  0  0  0  0  0
    0.1176    4.1822    1.3613 H   0  0  0  0  0  0  0  0  0  0  0  0
  1  2  1  0  0  0  0
  2  3  1  0  0  0  0
  2  4  1  0  0  0  0
  2  5  1  0  0  0  0
  5  6  2  0  0  0  0
  5  7  1  0  0  0  0
  7  8  1  0  0  0  0
  7  9  1  0  0  0  0
  9 10  1  0  0  0  0
  9 11  1  0  0  0  0
  9 22  1  0  0  0  0
 11 12  1  0  0  0  0
 11 13  1  0  0  0  0
 11 14  1  0  0  0  0
 14 15  1  0  0  0  0
 14 16  1  0  0  0  0
 14 17  1  0  0  0  0
 17 18  1  0  0  0  0
 18 19  1  0  0  0  0
 18 20  1  0  0  0  0
 18 21  1  0  0  0  0
 22 23  2  0  0  0  0
 22 24  1  0  0  0  0
 24 25  1  0  0  0  0
 24 26  1  0  0  0  0
 26 27  1  0  0  0  0
 26 28  1  0  0  0  0
 26 29  1  0  0  0  0
M  END
$$$$

  -OEChem-02102214153D

 29 28  0     1  0  0  0  0  0999 V2000
   -3.2433   -3.4310    1.1370 H   0  0  0  0  0  0  0  0  0  0  0  0
   -3.2186   -2.4293    0.6989 C   0  0  0  0  0  0  0  0  0  0  0  0
   -3.8845   -1.7783    1.2705 H   0  0  0  0  0  0  0  0  0  0  0  0
   -3.5736   -2.4870   -0.3329 H   0  0  0  0  0  0  0  0  0  0  0  0
   -1.8050   -1.8796    0.7308 C   0  0  0  0  0  0  0  0  0  0  0  0
   -0.9009   -2.5415    1.2157 O   0  0  0  0  0  0  0  0  0  0  0  0
   -1.5448   -0.6240    0.2249 N   0  0  0  0  0  0  0  0  0  0  0  0
   -2.3396   -0.0655   -0.0845 H   0  0  0  0  0  0  0  0  0  0  0  0
   -0.2472    0.0608    0.3185 C   0  0  1  0  0  0  0  0  0  0  0  0
    0.3705   -0.3909    1.1014 H   0  0  0  0  0  0  0  0  0  0  0  0
    0.4859   -0.1131   -1.0358 C   0  0  0  0  0  0  0  0  0  0  0  0
    1.0153   -1.0711   -1.0368 H   0  0  0  0  0  0  0  0  0  0  0  0
   -0.2830   -0.1704   -1.8141 H   0  0  0  0  0  0  0  0  0  0  0  0
    1.4531    1.0124   -1.4564 C   0  0  0  0  0  0  0  0  0  0  0  0
    1.1234    1.9883   -1.0926 H   0  0  0  0  0  0  0  0  0  0  0  0
    2.4488    0.8229   -1.0432 H   0  0  0  0  0  0  0  0  0  0  0  0
    1.5321    1.1418   -3.2892 S   0  0  0  0  0  0  0  0  0  0  0  0
    2.2039   -0.4950   -3.7837 C   0  0  0  0  0  0  0  0  0  0  0  0
    1.5047   -1.2926   -3.5161 H   0  0  0  0  0  0  0  0  0  0  0  0
    2.3640   -0.5215   -4.8657 H   0  0  0  0  0  0  0  0  0  0  0  0
    3.1593   -0.6797   -3.2839 H   0  0  0  0  0  0  0  0  0  0  0  0
   -0.5006    1.5232    0.7435 C   0  0  0  0  0  0  0  0  0  0  0  0
   -1.4330    2.1513    0.2551 O   0  0  0  0  0  0  0  0  0  0  0  0
    0.2739    2.1136    1.7252 N   0  0  0  0  0  0  0  0  0  0  0  0
    0.9795    1.5389    2.1771 H   0  0  0  0  0  0  0  0  0  0  0  0
    0.0296    3.4584    2.2327 C   0  0  0  0  0  0  0  0  0  0  0  0
   -0.9573    3.5160    2.7039 H   0  0  0  0  0  0  0  0  0  0  0  0
    0.7855    3.7251    2.9777 H   0  0  0  0  0  0  0  0  0  0  0  0
    0.0748    4.1901    1.4190 H   0  0  0  0  0  0  0  0  0  0  0  0
  1  2  1  0  0  0  0
  2  3  1  0  0  0  0
  2  4  1  0  0  0  0
  2  5  1  0  0  0  0
  5  6  2  0  0  0  0
  5  7  1  0  0  0  0
  7  8  1  0  0  0  0
  7  9  1  0  0  0  0
  9 10  1  0  0  0  0
  9 11  1  0  0  0  0
  9 22  1  0  0  0  0
 11 12  1  0  0  0  0
 11 13  1  0  0  0  0
 11 14  1  0  0  0  0
 14 15  1  0  0  0  0
 14 16  1  0  0  0  0
 14 17  1  0  0  0  0
 17 18  1  0  0  0  0
 18 19  1  0  0  0  0
 18 20  1  0  0  0  0
 18 21  1  0  0  0  0
 22 23  2  0  0  0  0
 22 24  1  0  0  0  0
 24 25  1  0  0  0  0
 24 26  1  0  0  0  0
 26 27  1  0  0  0  0
 26 28  1  0  0  0  0
 26 29  1  0  0  0  0
M  END
$$$$

  -OEChem-02102214153D

 29 28  0     1  0  0  0  0  0999 V2000
   -3.2839   -3.4026    1.1585 H   0  0  0  0  0  0  0  0  0  0  0  0
   -3.2448   -2.4074    0.7068 C   0  0  0  0  0  0  0  0  0  0  0  0
   -3.9037   -1.7400    1.2675 H   0  0  0  0  0  0  0  0  0  0  0  0
   -3.5975   -2.4745   -0.3252 H   0  0  0  0  0  0  0  0  0  0  0  0
   -1.8246   -1.8756    0.7342 C   0  0  0  0  0  0  0  0  0  0  0  0
   -0.9257   -2.5501    1.2111 O   0  0  0  0  0  0  0  0  0  0  0  0
   -1.5522   -0.6226    0.2288 N   0  0  0  0  0  0  0  0  0  0  0  0
   -2.3427   -0.0519   -0.0699 H   0  0  0  0  0  0  0  0  0  0  0  0
   -0.2473    0.0484    0.3196 C   0  0  1  0  0  0  0  0  0  0  0  0
    0.3704   -0.4084    1.0997 H   0  0  0  0  0  0  0  0  0  0  0  0
    0.4748   -0.1298   -1.0405 C   0  0  0  0  0  0  0  0  0  0  0  0
    0.9944   -1.0932   -1.0453 H   0  0  0  0  0  0  0  0  0  0  0  0
   -0.3022   -0.1859   -1.8104 H   0  0  0  0  0  0  0  0  0  0  0  0
    1.4560    0.9820   -1.4735 C   0  0  0  0  0  0  0  0  0  0  0  0
    1.3299    1.8969   -0.8914 H   0  0  0  0  0  0  0  0  0  0  0  0
    2.4843    0.6413   -1.3168 H   0  0  0  0  0  0  0  0  0  0  0  0
    1.2080    1.4268   -3.2409 S   0  0  0  0  0  0  0  0  0  0  0  0
    1.6684   -0.1256   -4.1089 C   0  0  0  0  0  0  0  0  0  0  0  0
    0.9888   -0.9363   -3.8306 H   0  0  0  0  0  0  0  0  0  0  0  0
    1.6111    0.0205   -5.1916 H   0  0  0  0  0  0  0  0  0  0  0  0
    2.6903   -0.4169   -3.8489 H   0  0  0  0  0  0  0  0  0  0  0  0
   -0.4969    1.5119    0.7467 C   0  0  0  0  0  0  0  0  0  0  0  0
   -1.4368    2.1393    0.2715 O   0  0  0  0  0  0  0  0  0  0  0  0
    0.2802    2.0982    1.7293 N   0  0  0  0  0  0  0  0  0  0  0  0
    1.0016    1.5291    2.1630 H   0  0  0  0  0  0  0  0  0  0  0  0
    0.0426    3.4439    2.2374 C   0  0  0  0  0  0  0  0  0  0  0  0
   -0.9521    3.5125    2.6904 H   0  0  0  0  0  0  0  0  0  0  0  0
    0.7871    3.6985    2.9977 H   0  0  0  0  0  0  0  0  0  0  0  0
    0.1123    4.1771    1.4268 H   0  0  0  0  0  0  0  0  0  0  0  0
  1  2  1  0  0  0  0
  2  3  1  0  0  0  0
  2  4  1  0  0  0  0
  2  5  1  0  0  0  0
  5  6  2  0  0  0  0
  5  7  1  0  0  0  0
  7  8  1  0  0  0  0
  7  9  1  0  0  0  0
  9 10  1  0  0  0  0
  9 11  1  0  0  0  0
  9 22  1  0  0  0  0
 11 12  1  0  0  0  0
 11 13  1  0  0  0  0
 11 14  1  0  0  0  0
 14 15  1  0  0  0  0
 14 16  1  0  0  0  0
 14 17  1  0  0  0  0
 17 18  1  0  0  0  0
 18 19  1  0  0  0  0
 18 20  1  0  0  0  0
 18 21  1  0  0  0  0
 22 23  2  0  0  0  0
 22 24  1  0  0  0  0
 24 25  1  0  0  0  0
 24 26  1  0  0  0  0
 26 27  1  0  0  0  0
 26 28  1  0  0  0  0
 26 29  1  0  0  0  0
M  END
$$$$

  -OEChem-02102214153D

 29 28  0     1  0  0  0  0  0999 V2000
   -3.3299   -3.3816    1.2348 H   0  0  0  0  0  0  0  0  0  0  0  0
   -3.2825   -2.3996    0.7561 C   0  0  0  0  0  0  0  0  0  0  0  0
   -3.9322   -1.7105    1.3009 H   0  0  0  0  0  0  0  0  0  0  0  0
   -3.6403   -2.4914   -0.2721 H   0  0  0  0  0  0  0  0  0  0  0  0
   -1.8565   -1.8822    0.7642 C   0  0  0  0  0  0  0  0  0  0  0  0
   -0.9592   -2.5641    1.2339 O   0  0  0  0  0  0  0  0  0  0  0  0
   -1.5753   -0.6362    0.2466 N   0  0  0  0  0  0  0  0  0  0  0  0
   -2.3626   -0.0567   -0.0436 H   0  0  0  0  0  0  0  0  0  0  0  0
   -0.2632    0.0223    0.3232 C   0  0  1  0  0  0  0  0  0  0  0  0
    0.3590   -0.4351    1.0995 H   0  0  0  0  0  0  0  0  0  0  0  0
    0.4383   -0.1639   -1.0454 C   0  0  0  0  0  0  0  0  0  0  0  0
    0.9634   -1.1244   -1.0340 H   0  0  0  0  0  0  0  0  0  0  0  0
   -0.3378   -0.2394   -1.8139 H   0  0  0  0  0  0  0  0  0  0  0  0
    1.4233    0.9428   -1.4820 C   0  0  0  0  0  0  0  0  0  0  0  0
    1.5325    1.7229   -0.7260 H   0  0  0  0  0  0  0  0  0  0  0  0
    2.4152    0.5007   -1.6194 H   0  0  0  0  0  0  0  0  0  0  0  0
    0.9003    1.7216   -3.0640 S   0  0  0  0  0  0  0  0  0  0  0  0
    1.1594    0.3700   -4.2815 C   0  0  0  0  0  0  0  0  0  0  0  0
    0.5251   -0.4886   -4.0430 H   0  0  0  0  0  0  0  0  0  0  0  0
    0.9079    0.7201   -5.2872 H   0  0  0  0  0  0  0  0  0  0  0  0
    2.2051    0.0487   -4.2743 H   0  0  0  0  0  0  0  0  0  0  0  0
   -0.4986    1.4921    0.7402 C   0  0  0  0  0  0  0  0  0  0  0  0
   -1.4453    2.1189    0.2780 O   0  0  0  0  0  0  0  0  0  0  0  0
    0.2897    2.0796    1.7136 N   0  0  0  0  0  0  0  0  0  0  0  0
    1.0142    1.5105    2.1417 H   0  0  0  0  0  0  0  0  0  0  0  0
    0.0748    3.4354    2.2050 C   0  0  0  0  0  0  0  0  0  0  0  0
   -0.9246    3.5311    2.6426 H   0  0  0  0  0  0  0  0  0  0  0  0
    0.8137    3.6809    2.9739 H   0  0  0  0  0  0  0  0  0  0  0  0
    0.1730    4.1587    1.3884 H   0  0  0  0  0  0  0  0  0  0  0  0
  1  2  1  0  0  0  0
  2  3  1  0  0  0  0
  2  4  1  0  0  0  0
  2  5  1  0  0  0  0
  5  6  2  0  0  0  0
  5  7  1  0  0  0  0
  7  8  1  0  0  0  0
  7  9  1  0  0  0  0
  9 10  1  0  0  0  0
  9 11  1  0  0  0  0
  9 22  1  0  0  0  0
 11 12  1  0  0  0  0
 11 13  1  0  0  0  0
 11 14  1  0  0  0  0
 14 15  1  0  0  0  0
 14 16  1  0  0  0  0
 14 17  1  0  0  0  0
 17 18  1  0  0  0  0
 18 19  1  0  0  0  0
 18 20  1  0  0  0  0
 18 21  1  0  0  0  0
 22 23  2  0  0  0  0
 22 24  1  0  0  0  0
 24 25  1  0  0  0  0
 24 26  1  0  0  0  0
 26 27  1  0  0  0  0
 26 28  1  0  0  0  0
 26 29  1  0  0  0  0
M  END
$$$$

  -OEChem-02102214153D

 29 28  0     1  0  0  0  0  0999 V2000
   -3.3539   -3.3770    1.3085 H   0  0  0  0  0  0  0  0  0  0  0  0
   -3.3046   -2.4016    0.8165 C   0  0  0  0  0  0  0  0  0  0  0  0
   -3.9403   -1.6997    1.3616 H   0  0  0  0  0  0  0  0  0  0  0  0
   -3.6780   -2.5027   -0.2053 H   0  0  0  0  0  0  0  0  0  0  0  0
   -1.8743   -1.8972    0.7968 C   0  0  0  0  0  0  0  0  0  0  0  0
   -0.9748   -2.5834    1.2558 O   0  0  0  0  0  0  0  0  0  0  0  0
   -1.5921   -0.6589    0.2622 N   0  0  0  0  0  0  0  0  0  0  0  0
   -2.3805   -0.0733   -0.0126 H   0  0  0  0  0  0  0  0  0  0  0  0
   -0.2770   -0.0055    0.3185 C   0  0  1  0  0  0  0  0  0  0  0  0
    0.3513   -0.4580    1.0928 H   0  0  0  0  0  0  0  0  0  0  0  0
    0.4097   -0.1991   -1.0543 C   0  0  0  0  0  0  0  0  0  0  0  0
    0.9503   -1.1505   -1.0249 H   0  0  0  0  0  0  0  0  0  0  0  0
   -0.3599   -0.2968   -1.8260 H   0  0  0  0  0  0  0  0  0  0  0  0
    1.3868    0.9141   -1.4814 C   0  0  0  0  0  0  0  0  0  0  0  0
    1.7119    1.5164   -0.6291 H   0  0  0  0  0  0  0  0  0  0  0  0
    2.2869    0.4501   -1.8969 H   0  0  0  0  0  0  0  0  0  0  0  0
    0.6595    1.9972   -2.7770 S   0  0  0  0  0  0  0  0  0  0  0  0
    0.6591    0.9163   -4.2628 C   0  0  0  0  0  0  0  0  0  0  0  0
    0.0164    0.0456   -4.1059 H   0  0  0  0  0  0  0  0  0  0  0  0
    0.2856    1.4721   -5.1280 H   0  0  0  0  0  0  0  0  0  0  0  0
    1.6740    0.5711   -4.4804 H   0  0  0  0  0  0  0  0  0  0  0  0
   -0.5009    1.4712    0.7205 C   0  0  0  0  0  0  0  0  0  0  0  0
   -1.4717    2.0848    0.2907 O   0  0  0  0  0  0  0  0  0  0  0  0
    0.3004    2.0662    1.6787 N   0  0  0  0  0  0  0  0  0  0  0  0
    1.0431    1.5070    2.0876 H   0  0  0  0  0  0  0  0  0  0  0  0
    0.0931    3.4264    2.1606 C   0  0  0  0  0  0  0  0  0  0  0  0
   -0.8987    3.5260    2.6139 H   0  0  0  0  0  0  0  0  0  0  0  0
    0.8446    3.6792    2.9146 H   0  0  0  0  0  0  0  0  0  0  0  0
    0.1771    4.1415    1.3355 H   0  0  0  0  0  0  0  0  0  0  0  0
  1  2  1  0  0  0  0
  2  3  1  0  0  0  0
  2  4  1  0  0  0  0
  2  5  1  0  0  0  0
  5  6  2  0  0  0  0
  5  7  1  0  0  0  0
  7  8  1  0  0  0  0
  7  9  1  0  0  0  0
  9 10  1  0  0  0  0
  9 11  1  0  0  0  0
  9 22  1  0  0  0  0
 11 12  1  0  0  0  0
 11 13  1  0  0  0  0
 11 14  1  0  0  0  0
 14 15  1  0  0  0  0
 14 16  1  0  0  0  0
 14 17  1  0  0  0  0
 17 18  1  0  0  0  0
 18 19  1  0  0  0  0
 18 20  1  0  0  0  0
 18 21  1  0  0  0  0
 22 23  2  0  0  0  0
 22 24  1  0  0  0  0
 24 25  1  0  0  0  0
 24 26  1  0  0  0  0
 26 27  1  0  0  0  0
 26 28  1  0  0  0  0
 26 29  1  0  0  0  0
M  END
$$$$

  -OEChem-02102214153D

 29 28  0     1  0  0  0  0  0999 V2000
   -3.3445   -3.3922    1.3207 H   0  0  0  0  0  0  0  0  0  0  0  0
   -3.3065   -2.4074    0.8469 C   0  0  0  0  0  0  0  0  0  0  0  0
   -3.9262   -1.7157    1.4226 H   0  0  0  0  0  0  0  0  0  0  0  0
   -3.7075   -2.4879   -0.1663 H   0  0  0  0  0  0  0  0  0  0  0  0
   -1.8757   -1.9053    0.7986 C   0  0  0  0  0  0  0  0  0  0  0  0
   -0.9684   -2.5945    1.2377 O   0  0  0  0  0  0  0  0  0  0  0  0
   -1.6024   -0.6669    0.2593 N   0  0  0  0  0  0  0  0  0  0  0  0
   -2.3968   -0.0741    0.0186 H   0  0  0  0  0  0  0  0  0  0  0  0
   -0.2887   -0.0092    0.3039 C   0  0  1  0  0  0  0  0  0  0  0  0
    0.3386   -0.4570    1.0817 H   0  0  0  0  0  0  0  0  0  0  0  0
    0.4081   -0.2147   -1.0618 C   0  0  0  0  0  0  0  0  0  0  0  0
    0.9588   -1.1596   -1.0119 H   0  0  0  0  0  0  0  0  0  0  0  0
   -0.3497   -0.3305   -1.8418 H   0  0  0  0  0  0  0  0  0  0  0  0
    1.3786    0.9020   -1.4874 C   0  0  0  0  0  0  0  0  0  0  0  0
    1.8785    1.3309   -0.6137 H   0  0  0  0  0  0  0  0  0  0  0  0
    2.1590    0.4660   -2.1191 H   0  0  0  0  0  0  0  0  0  0  0  0
    0.5487    2.2297   -2.4532 S   0  0  0  0  0  0  0  0  0  0  0  0
    0.1751    1.4237   -4.0616 C   0  0  0  0  0  0  0  0  0  0  0  0
   -0.5461    0.6129   -3.9284 H   0  0  0  0  0  0  0  0  0  0  0  0
   -0.2512    2.1555   -4.7542 H   0  0  0  0  0  0  0  0  0  0  0  0
    1.0888    1.0154   -4.5029 H   0  0  0  0  0  0  0  0  0  0  0  0
   -0.5065    1.4692    0.7048 C   0  0  0  0  0  0  0  0  0  0  0  0
   -1.5119    2.0638    0.3290 O   0  0  0  0  0  0  0  0  0  0  0  0
    0.3056    2.0644    1.6537 N   0  0  0  0  0  0  0  0  0  0  0  0
    1.0794    1.5204    2.0232 H   0  0  0  0  0  0  0  0  0  0  0  0
    0.0891    3.4164    2.1544 C   0  0  0  0  0  0  0  0  0  0  0  0
   -0.8816    3.4883    2.6564 H   0  0  0  0  0  0  0  0  0  0  0  0
    0.8703    3.6846    2.8721 H   0  0  0  0  0  0  0  0  0  0  0  0
    0.1145    4.1381    1.3308 H   0  0  0  0  0  0  0  0  0  0  0  0
  1  2  1  0  0  0  0
  2  3  1  0  0  0  0
  2  4  1  0  0  0  0
  2  5  1  0  0  0  0
  5  6  2  0  0  0  0
  5  7  1  0  0  0  0
  7  8  1  0  0  0  0
  7  9  1  0  0  0  0
  9 10  1  0  0  0  0
  9 11  1  0  0  0  0
  9 22  1  0  0  0  0
 11 12  1  0  0  0  0
 11 13  1  0  0  0  0
 11 14  1  0  0  0  0
 14 15  1  0  0  0  0
 14 16  1  0  0  0  0
 14 17  1  0  0  0  0
 17 18  1  0  0  0  0
 18 19  1  0  0  0  0
 18 20  1  0  0  0  0
 18 21  1  0  0  0  0
 22 23  2  0  0  0  0
 22 24  1  0  0  0  0
 24 25  1  0  0  0  0
 24 26  1  0  0  0  0
 26 27  1  0  0  0  0
 26 28  1  0  0  0  0
 26 29  1  0  0  0  0
M  END
$$$$

  -OEChem-02102214153D

 29 28  0     1  0  0  0  0  0999 V2000
   -3.3552   -3.3670    1.1249 H   0  0  0  0  0  0  0  0  0  0  0  0
   -3.2933   -2.3701    0.6799 C   0  0  0  0  0  0  0  0  0  0  0  0
   -3.9171   -1.6858    1.2601 H   0  0  0  0  0  0  0  0  0  0  0  0
   -3.6712   -2.4171   -0.3442 H   0  0  0  0  0  0  0  0  0  0  0  0
   -1.8557   -1.8860    0.6791 C   0  0  0  0  0  0  0  0  0  0  0  0
   -0.9748   -2.5781    1.1648 O   0  0  0  0  0  0  0  0  0  0  0  0
   -1.5468   -0.6594    0.1319 N   0  0  0  0  0  0  0  0  0  0  0  0
   -2.3269   -0.0574   -0.1318 H   0  0  0  0  0  0  0  0  0  0  0  0
   -0.2345   -0.0069    0.2478 C   0  0  1  0  0  0  0  0  0  0  0  0
    0.3323   -0.4368    1.0805 H   0  0  0  0  0  0  0  0  0  0  0  0
    0.5611   -0.2595   -1.0556 C   0  0  0  0  0  0  0  0  0  0  0  0
    1.0997   -1.2042   -0.9293 H   0  0  0  0  0  0  0  0  0  0  0  0
   -0.1362   -0.4105   -1.8838 H   0  0  0  0  0  0  0  0  0  0  0  0
    1.5764    0.8244   -1.4679 C   0  0  0  0  0  0  0  0  0  0  0  0
    2.2078    1.0800   -0.6113 H   0  0  0  0  0  0  0  0  0  0  0  0
    2.2305    0.3901   -2.2307 H   0  0  0  0  0  0  0  0  0  0  0  0
    0.8707    2.3738   -2.1776 S   0  0  0  0  0  0  0  0  0  0  0  0
   -0.5221    1.8593   -3.2590 C   0  0  0  0  0  0  0  0  0  0  0  0
   -1.3372    1.4451   -2.6583 H   0  0  0  0  0  0  0  0  0  0  0  0
   -0.9053    2.7243   -3.8081 H   0  0  0  0  0  0  0  0  0  0  0  0
   -0.1891    1.1060   -3.9787 H   0  0  0  0  0  0  0  0  0  0  0  0
   -0.4749    1.4783    0.6045 C   0  0  0  0  0  0  0  0  0  0  0  0
   -1.4723    2.0525    0.1750 O   0  0  0  0  0  0  0  0  0  0  0  0
    0.2746    2.0921    1.5914 N   0  0  0  0  0  0  0  0  0  0  0  0
    1.0615    1.5781    1.9758 H   0  0  0  0  0  0  0  0  0  0  0  0
    0.0444    3.4634    2.0290 C   0  0  0  0  0  0  0  0  0  0  0  0
   -0.9589    3.5673    2.4552 H   0  0  0  0  0  0  0  0  0  0  0  0
    0.7751    3.7444    2.7933 H   0  0  0  0  0  0  0  0  0  0  0  0
    0.1426    4.1550    1.1854 H   0  0  0  0  0  0  0  0  0  0  0  0
  1  2  1  0  0  0  0
  2  3  1  0  0  0  0
  2  4  1  0  0  0  0
  2  5  1  0  0  0  0
  5  6  2  0  0  0  0
  5  7  1  0  0  0  0
  7  8  1  0  0  0  0
  7  9  1  0  0  0  0
  9 10  1  0  0  0  0
  9 11  1  0  0  0  0
  9 22  1  0  0  0  0
 11 12  1  0  0  0  0
 11 13  1  0  0  0  0
 11 14  1  0  0  0  0
 14 15  1  0  0  0  0
 14 16  1  0  0  0  0
 14 17  1  0  0  0  0
 17 18  1  0  0  0  0
 18 19  1  0  0  0  0
 18 20  1  0  0  0  0
 18 21  1  0  0  0  0
 22 23  2  0  0  0  0
 22 24  1  0  0  0  0
 24 25  1  0  0  0  0
 24 26  1  0  0  0  0
 26 27  1  0  0  0  0
 26 28  1  0  0  0  0
 26 29  1  0  0  0  0
M  END
$$$$

  -OEChem-02102214153D

 29 28  0     1  0  0  0  0  0999 V2000
   -3.3235   -3.3700    1.2508 H   0  0  0  0  0  0  0  0  0  0  0  0
   -3.2880   -2.3881    0.7708 C   0  0  0  0  0  0  0  0  0  0  0  0
   -3.8967   -1.6905    1.3511 H   0  0  0  0  0  0  0  0  0  0  0  0
   -3.7027   -2.4723   -0.2365 H   0  0  0  0  0  0  0  0  0  0  0  0
   -1.8566   -1.8911    0.7008 C   0  0  0  0  0  0  0  0  0  0  0  0
   -0.9426   -2.5933    1.1038 O   0  0  0  0  0  0  0  0  0  0  0  0
   -1.5917   -0.6399    0.1870 N   0  0  0  0  0  0  0  0  0  0  0  0
   -2.3922   -0.0367   -0.0025 H   0  0  0  0  0  0  0  0  0  0  0  0
   -0.2834    0.0273    0.2651 C   0  0  1  0  0  0  0  0  0  0  0  0
    0.3157   -0.4174    1.0667 H   0  0  0  0  0  0  0  0  0  0  0  0
    0.4731   -0.2140   -1.0678 C   0  0  0  0  0  0  0  0  0  0  0  0
    0.9983   -1.1707   -0.9807 H   0  0  0  0  0  0  0  0  0  0  0  0
   -0.2696   -0.3378   -1.8619 H   0  0  0  0  0  0  0  0  0  0  0  0
    1.4782    0.8467   -1.5654 C   0  0  0  0  0  0  0  0  0  0  0  0
    2.2844    0.9315   -0.8300 H   0  0  0  0  0  0  0  0  0  0  0  0
    1.9256    0.4769   -2.4936 H   0  0  0  0  0  0  0  0  0  0  0  0
    0.8274    2.5386   -1.8930 S   0  0  0  0  0  0  0  0  0  0  0  0
   -0.6319    2.2504   -2.9710 C   0  0  0  0  0  0  0  0  0  0  0  0
   -1.4072    1.7044   -2.4261 H   0  0  0  0  0  0  0  0  0  0  0  0
   -1.0495    3.2074   -3.2976 H   0  0  0  0  0  0  0  0  0  0  0  0
   -0.3448    1.6727   -3.8543 H   0  0  0  0  0  0  0  0  0  0  0  0
   -0.5257    1.4936    0.6898 C   0  0  0  0  0  0  0  0  0  0  0  0
   -1.5608    2.0610    0.3481 O   0  0  0  0  0  0  0  0  0  0  0  0
    0.2643    2.0784    1.6630 N   0  0  0  0  0  0  0  0  0  0  0  0
    1.0998    1.5795    1.9529 H   0  0  0  0  0  0  0  0  0  0  0  0
    0.0425    3.4304    2.1611 C   0  0  0  0  0  0  0  0  0  0  0  0
   -0.9529    3.5162    2.6095 H   0  0  0  0  0  0  0  0  0  0  0  0
    0.7863    3.6797    2.9239 H   0  0  0  0  0  0  0  0  0  0  0  0
    0.1255    4.1566    1.3455 H   0  0  0  0  0  0  0  0  0  0  0  0
  1  2  1  0  0  0  0
  2  3  1  0  0  0  0
  2  4  1  0  0  0  0
  2  5  1  0  0  0  0
  5  6  2  0  0  0  0
  5  7  1  0  0  0  0
  7  8  1  0  0  0  0
  7  9  1  0  0  0  0
  9 10  1  0  0  0  0
  9 11  1  0  0  0  0
  9 22  1  0  0  0  0
 11 12  1  0  0  0  0
 11 13  1  0  0  0  0
 11 14  1  0  0  0  0
 14 15  1  0  0  0  0
 14 16  1  0  0  0  0
 14 17  1  0  0  0  0
 17 18  1  0  0  0  0
 18 19  1  0  0  0  0
 18 20  1  0  0  0  0
 18 21  1  0  0  0  0
 22 23  2  0  0  0  0
 22 24  1  0  0  0  0
 24 25  1  0  0  0  0
 24 26  1  0  0  0  0
 26 27  1  0  0  0  0
 26 28  1  0  0  0  0
 26 29  1  0  0  0  0
M  END
$$$$

  -OEChem-02102214153D

 29 28  0     1  0  0  0  0  0999 V2000
   -3.2638   -3.4360    1.3324 H   0  0  0  0  0  0  0  0  0  0  0  0
   -3.2625   -2.4525    0.8544 C   0  0  0  0  0  0  0  0  0  0  0  0
   -3.8723   -1.7702    1.4516 H   0  0  0  0  0  0  0  0  0  0  0  0
   -3.6998   -2.5438   -0.1428 H   0  0  0  0  0  0  0  0  0  0  0  0
   -1.8448   -1.9237    0.7507 C   0  0  0  0  0  0  0  0  0  0  0  0
   -0.9034   -2.6203    1.0963 O   0  0  0  0  0  0  0  0  0  0  0  0
   -1.6225   -0.6520    0.2677 N   0  0  0  0  0  0  0  0  0  0  0  0
   -2.4398   -0.0588    0.1240 H   0  0  0  0  0  0  0  0  0  0  0  0
   -0.3224    0.0347    0.3139 C   0  0  1  0  0  0  0  0  0  0  0  0
    0.3139   -0.4203    1.0800 H   0  0  0  0  0  0  0  0  0  0  0  0
    0.3826   -0.1811   -1.0553 C   0  0  0  0  0  0  0  0  0  0  0  0
    0.8941   -1.1486   -1.0166 H   0  0  0  0  0  0  0  0  0  0  0  0
   -0.4086   -0.2758   -1.8064 H   0  0  0  0  0  0  0  0  0  0  0  0
    1.3666    0.8621   -1.6361 C   0  0  0  0  0  0  0  0  0  0  0  0
    2.3079    0.7653   -1.0862 H   0  0  0  0  0  0  0  0  0  0  0  0
    1.5746    0.5925   -2.6766 H   0  0  0  0  0  0  0  0  0  0  0  0
    0.9028    2.6414   -1.5890 S   0  0  0  0  0  0  0  0  0  0  0  0
   -0.6089    2.6803   -2.6318 C   0  0  0  0  0  0  0  0  0  0  0  0
   -1.3860    2.0390   -2.2063 H   0  0  0  0  0  0  0  0  0  0  0  0
   -0.9962    3.7017   -2.6895 H   0  0  0  0  0  0  0  0  0  0  0  0
   -0.3809    2.3337   -3.6437 H   0  0  0  0  0  0  0  0  0  0  0  0
   -0.5796    1.4800    0.7972 C   0  0  0  0  0  0  0  0  0  0  0  0
   -1.6342    2.0403    0.5060 O   0  0  0  0  0  0  0  0  0  0  0  0
    0.2362    2.0496    1.7584 N   0  0  0  0  0  0  0  0  0  0  0  0
    1.1079    1.5739    1.9703 H   0  0  0  0  0  0  0  0  0  0  0  0
    0.0275    3.3946    2.2802 C   0  0  0  0  0  0  0  0  0  0  0  0
   -0.9642    3.4808    2.7366 H   0  0  0  0  0  0  0  0  0  0  0  0
    0.7775    3.6245    3.0429 H   0  0  0  0  0  0  0  0  0  0  0  0
    0.1116    4.1335    1.4762 H   0  0  0  0  0  0  0  0  0  0  0  0
  1  2  1  0  0  0  0
  2  3  1  0  0  0  0
  2  4  1  0  0  0  0
  2  5  1  0  0  0  0
  5  6  2  0  0  0  0
  5  7  1  0  0  0  0
  7  8  1  0  0  0  0
  7  9  1  0  0  0  0
  9 10  1  0  0  0  0
  9 11  1  0  0  0  0
  9 22  1  0  0  0  0
 11 12  1  0  0  0  0
 11 13  1  0  0  0  0
 11 14  1  0  0  0  0
 14 15  1  0  0  0  0
 14 16  1  0  0  0  0
 14 17  1  0  0  0  0
 17 18  1  0  0  0  0
 18 19  1  0  0  0  0
 18 20  1  0  0  0  0
 18 21  1  0  0  0  0
 22 23  2  0  0  0  0
 22 24  1  0  0  0  0
 24 25  1  0  0  0  0
 24 26  1  0  0  0  0
 26 27  1  0  0  0  0
 26 28  1  0  0  0  0
 26 29  1  0  0  0  0
M  END
$$$$

  -OEChem-02102214153D

 29 28  0     1  0  0  0  0  0999 V2000
   -3.1989   -3.5401    1.3608 H   0  0  0  0  0  0  0  0  0  0  0  0
   -3.2302   -2.5298    0.9433 C   0  0  0  0  0  0  0  0  0  0  0  0
   -3.8174   -1.8923    1.6086 H   0  0  0  0  0  0  0  0  0  0  0  0
   -3.7142   -2.5674   -0.0356 H   0  0  0  0  0  0  0  0  0  0  0  0
   -1.8243   -1.9777    0.8039 C   0  0  0  0  0  0  0  0  0  0  0  0
   -0.8623   -2.6695    1.0981 O   0  0  0  0  0  0  0  0  0  0  0  0
   -1.6352   -0.6918    0.3447 N   0  0  0  0  0  0  0  0  0  0  0  0
   -2.4646   -0.1063    0.2446 H   0  0  0  0  0  0  0  0  0  0  0  0
   -0.3430    0.0126    0.3652 C   0  0  1  0  0  0  0  0  0  0  0  0
    0.3311   -0.4476    1.0949 H   0  0  0  0  0  0  0  0  0  0  0  0
    0.3027   -0.1633   -1.0415 C   0  0  0  0  0  0  0  0  0  0  0  0
    0.8023   -1.1375   -1.0583 H   0  0  0  0  0  0  0  0  0  0  0  0
   -0.5315   -0.2307   -1.7479 H   0  0  0  0  0  0  0  0  0  0  0  0
    1.2570    0.8777   -1.6818 C   0  0  0  0  0  0  0  0  0  0  0  0
    2.2705    0.6041   -1.3715 H   0  0  0  0  0  0  0  0  0  0  0  0
    1.2179    0.7599   -2.7694 H   0  0  0  0  0  0  0  0  0  0  0  0
    1.0742    2.6632   -1.2856 S   0  0  0  0  0  0  0  0  0  0  0  0
   -0.4302    3.1027   -2.2439 C   0  0  0  0  0  0  0  0  0  0  0  0
   -1.2621    2.4448   -1.9769 H   0  0  0  0  0  0  0  0  0  0  0  0
   -0.7212    4.1354   -2.0301 H   0  0  0  0  0  0  0  0  0  0  0  0
   -0.2379    3.0065   -3.3162 H   0  0  0  0  0  0  0  0  0  0  0  0
   -0.6258    1.4376    0.8934 C   0  0  0  0  0  0  0  0  0  0  0  0
   -1.6926    1.9873    0.6265 O   0  0  0  0  0  0  0  0  0  0  0  0
    0.1997    2.0064    1.8470 N   0  0  0  0  0  0  0  0  0  0  0  0
    1.0942    1.5551    2.0135 H   0  0  0  0  0  0  0  0  0  0  0  0
   -0.0237    3.3382    2.3954 C   0  0  0  0  0  0  0  0  0  0  0  0
   -0.9953    3.3886    2.8978 H   0  0  0  0  0  0  0  0  0  0  0  0
    0.7539    3.5817    3.1256 H   0  0  0  0  0  0  0  0  0  0  0  0
    0.0011    4.0892    1.5986 H   0  0  0  0  0  0  0  0  0  0  0  0
  1  2  1  0  0  0  0
  2  3  1  0  0  0  0
  2  4  1  0  0  0  0
  2  5  1  0  0  0  0
  5  6  2  0  0  0  0
  5  7  1  0  0  0  0
  7  8  1  0  0  0  0
  7  9  1  0  0  0  0
  9 10  1  0  0  0  0
  9 11  1  0  0  0  0
  9 22  1  0  0  0  0
 11 12  1  0  0  0  0
 11 13  1  0  0  0  0
 11 14  1  0  0  0  0
 14 15  1  0  0  0  0
 14 16  1  0  0  0  0
 14 17  1  0  0  0  0
 17 18  1  0  0  0  0
 18 19  1  0  0  0  0
 18 20  1  0  0  0  0
 18 21  1  0  0  0  0
 22 23  2  0  0  0  0
 22 24  1  0  0  0  0
 24 25  1  0  0  0  0
 24 26  1  0  0  0  0
 26 27  1  0  0  0  0
 26 28  1  0  0  0  0
 26 29  1  0  0  0  0
M  END
$$$$

  -OEChem-02102214153D

 29 28  0     1  0  0  0  0  0999 V2000
   -3.1401   -3.5233    1.7596 H   0  0  0  0  0  0  0  0  0  0  0  0
   -3.1962   -2.5339    1.2972 C   0  0  0  0  0  0  0  0  0  0  0  0
   -3.7551   -1.8675    1.9586 H   0  0  0  0  0  0  0  0  0  0  0  0
   -3.7248   -2.6190    0.3449 H   0  0  0  0  0  0  0  0  0  0  0  0
   -1.8013   -1.9846    1.0663 C   0  0  0  0  0  0  0  0  0  0  0  0
   -0.8227   -2.6584    1.3466 O   0  0  0  0  0  0  0  0  0  0  0  0
   -1.6413   -0.7209    0.5403 N   0  0  0  0  0  0  0  0  0  0  0  0
   -2.4773   -0.1432    0.4503 H   0  0  0  0  0  0  0  0  0  0  0  0
   -0.3515   -0.0163    0.4548 C   0  0  1  0  0  0  0  0  0  0  0  0
    0.3776   -0.4428    1.1519 H   0  0  0  0  0  0  0  0  0  0  0  0
    0.1765   -0.2399   -0.9948 C   0  0  0  0  0  0  0  0  0  0  0  0
    0.6661   -1.2193   -1.0158 H   0  0  0  0  0  0  0  0  0  0  0  0
   -0.7134   -0.3280   -1.6276 H   0  0  0  0  0  0  0  0  0  0  0  0
    1.0808    0.7618   -1.7629 C   0  0  0  0  0  0  0  0  0  0  0  0
    2.0887    0.3343   -1.7558 H   0  0  0  0  0  0  0  0  0  0  0  0
    0.7613    0.7872   -2.8100 H   0  0  0  0  0  0  0  0  0  0  0  0
    1.2726    2.4920   -1.1740 S   0  0  0  0  0  0  0  0  0  0  0  0
   -0.1517    3.3227   -1.9843 C   0  0  0  0  0  0  0  0  0  0  0  0
   -0.0178    3.3313   -3.0698 H   0  0  0  0  0  0  0  0  0  0  0  0
   -1.0845    2.8014   -1.7515 H   0  0  0  0  0  0  0  0  0  0  0  0
   -0.2327    4.3553   -1.6327 H   0  0  0  0  0  0  0  0  0  0  0  0
   -0.6315    1.4258    0.9386 C   0  0  0  0  0  0  0  0  0  0  0  0
   -1.7068    1.9614    0.6770 O   0  0  0  0  0  0  0  0  0  0  0  0
    0.2296    2.0493    1.8240 N   0  0  0  0  0  0  0  0  0  0  0  0
    1.1432    1.6241    1.9523 H   0  0  0  0  0  0  0  0  0  0  0  0
    0.0167    3.4050    2.3151 C   0  0  0  0  0  0  0  0  0  0  0  0
   -0.9428    3.4775    2.8379 H   0  0  0  0  0  0  0  0  0  0  0  0
    0.8111    3.6822    3.0147 H   0  0  0  0  0  0  0  0  0  0  0  0
    0.0209    4.1182    1.4842 H   0  0  0  0  0  0  0  0  0  0  0  0
  1  2  1  0  0  0  0
  2  3  1  0  0  0  0
  2  4  1  0  0  0  0
  2  5  1  0  0  0  0
  5  6  2  0  0  0  0
  5  7  1  0  0  0  0
  7  8  1  0  0  0  0
  7  9  1  0  0  0  0
  9 10  1  0  0  0  0
  9 11  1  0  0  0  0
  9 22  1  0  0  0  0
 11 12  1  0  0  0  0
 11 13  1  0  0  0  0
 11 14  1  0  0  0  0
 14 15  1  0  0  0  0
 14 16  1  0  0  0  0
 14 17  1  0  0  0  0
 17 18  1  0  0  0  0
 18 19  1  0  0  0  0
 18 20  1  0  0  0  0
 18 21  1  0  0  0  0
 22 23  2  0  0  0  0
 22 24  1  0  0  0  0
 24 25  1  0  0  0  0
 24 26  1  0  0  0  0
 26 27  1  0  0  0  0
 26 28  1  0  0  0  0
 26 29  1  0  0  0  0
M  END
$$$$

  -OEChem-02102214153D

 29 28  0     1  0  0  0  0  0999 V2000
   -3.5506   -3.4748    1.2971 H   0  0  0  0  0  0  0  0  0  0  0  0
   -3.4967   -2.4541    0.9082 C   0  0  0  0  0  0  0  0  0  0  0  0
   -4.1132   -1.8046    1.5344 H   0  0  0  0  0  0  0  0  0  0  0  0
   -3.8885   -2.4446   -0.1117 H   0  0  0  0  0  0  0  0  0  0  0  0
   -2.0600   -1.9675    0.9150 C   0  0  0  0  0  0  0  0  0  0  0  0
   -1.1744   -2.6771    1.3643 O   0  0  0  0  0  0  0  0  0  0  0  0
   -1.7575   -0.7189    0.4166 N   0  0  0  0  0  0  0  0  0  0  0  0
   -2.5392   -0.1099    0.1738 H   0  0  0  0  0  0  0  0  0  0  0  0
   -0.4423   -0.0703    0.5471 C   0  0  1  0  0  0  0  0  0  0  0  0
    0.1552   -0.5192    1.3477 H   0  0  0  0  0  0  0  0  0  0  0  0
    0.2759   -0.3103   -0.8150 C   0  0  0  0  0  0  0  0  0  0  0  0
    0.7372   -1.3017   -0.7531 H   0  0  0  0  0  0  0  0  0  0  0  0
   -0.5058   -0.3847   -1.5790 H   0  0  0  0  0  0  0  0  0  0  0  0
    1.3262    0.6540   -1.4274 C   0  0  0  0  0  0  0  0  0  0  0  0
    2.2478    0.0788   -1.5624 H   0  0  0  0  0  0  0  0  0  0  0  0
    0.9878    0.9372   -2.4295 H   0  0  0  0  0  0  0  0  0  0  0  0
    1.7953    2.1903   -0.5347 S   0  0  0  0  0  0  0  0  0  0  0  0
    0.7960    3.4588   -1.4112 C   0  0  0  0  0  0  0  0  0  0  0  0
    1.1064    3.5294   -2.4577 H   0  0  0  0  0  0  0  0  0  0  0  0
    0.9324    4.4359   -0.9389 H   0  0  0  0  0  0  0  0  0  0  0  0
   -0.2665    3.2012   -1.3776 H   0  0  0  0  0  0  0  0  0  0  0  0
   -0.7576    1.3858    0.9678 C   0  0  0  0  0  0  0  0  0  0  0  0
   -1.7321    1.9642    0.4906 O   0  0  0  0  0  0  0  0  0  0  0  0
   -0.0488    1.9984    1.9860 N   0  0  0  0  0  0  0  0  0  0  0  0
    0.8152    1.5491    2.2763 H   0  0  0  0  0  0  0  0  0  0  0  0
   -0.2996    3.3678    2.4171 C   0  0  0  0  0  0  0  0  0  0  0  0
   -1.3382    3.4835    2.7448 H   0  0  0  0  0  0  0  0  0  0  0  0
    0.3554    3.6254    3.2548 H   0  0  0  0  0  0  0  0  0  0  0  0
   -0.1079    4.0680    1.5976 H   0  0  0  0  0  0  0  0  0  0  0  0
  1  2  1  0  0  0  0
  2  3  1  0  0  0  0
  2  4  1  0  0  0  0
  2  5  1  0  0  0  0
  5  6  2  0  0  0  0
  5  7  1  0  0  0  0
  7  8  1  0  0  0  0
  7  9  1  0  0  0  0
  9 10  1  0  0  0  0
  9 11  1  0  0  0  0
  9 22  1  0  0  0  0
 11 12  1  0  0  0  0
 11 13  1  0  0  0  0
 11 14  1  0  0  0  0
 14 15  1  0  0  0  0
 14 16  1  0  0  0  0
 14 17  1  0  0  0  0
 17 18  1  0  0  0  0
 18 19  1  0  0  0  0
 18 20  1  0  0  0  0
 18 21  1  0  0  0  0
 22 23  2  0  0  0  0
 22 24  1  0  0  0  0
 24 25  1  0  0  0  0
 24 26  1  0  0  0  0
 26 27  1  0  0  0  0
 26 28  1  0  0  0  0
 26 29  1  0  0  0  0
M  END
$$$$

  -OEChem-02102214153D

 29 28  0     1  0  0  0  0  0999 V2000
   -2.7197   -4.0417    1.1604 H   0  0  0  0  0  0  0  0  0  0  0  0
   -2.8941   -2.9765    0.9853 C   0  0  0  0  0  0  0  0  0  0  0  0
   -3.3337   -2.5396    1.8852 H   0  0  0  0  0  0  0  0  0  0  0  0
   -3.5955   -2.8657    0.1548 H   0  0  0  0  0  0  0  0  0  0  0  0
   -1.5869   -2.2806    0.6558 C   0  0  0  0  0  0  0  0  0  0  0  0
   -0.5531   -2.9246    0.5753 O   0  0  0  0  0  0  0  0  0  0  0  0
   -1.5689   -0.9175    0.4539 N   0  0  0  0  0  0  0  0  0  0  0  0
   -2.4263   -0.4023    0.6534 H   0  0  0  0  0  0  0  0  0  0  0  0
   -0.3427   -0.1166    0.3028 C   0  0  1  0  0  0  0  0  0  0  0  0
    0.5461   -0.6399    0.6705 H   0  0  0  0  0  0  0  0  0  0  0  0
   -0.2116    0.1271   -1.2289 C   0  0  0  0  0  0  0  0  0  0  0  0
    0.3204   -0.7432   -1.6274 H   0  0  0  0  0  0  0  0  0  0  0  0
   -1.2154    0.1022   -1.6672 H   0  0  0  0  0  0  0  0  0  0  0  0
    0.4640    1.3868   -1.8224 C   0  0  0  0  0  0  0  0  0  0  0  0
    1.0777    1.0766   -2.6743 H   0  0  0  0  0  0  0  0  0  0  0  0
   -0.3280    2.0283   -2.2219 H   0  0  0  0  0  0  0  0  0  0  0  0
    1.5059    2.4234   -0.7175 S   0  0  0  0  0  0  0  0  0  0  0  0
    0.5623    3.9997   -0.6812 C   0  0  0  0  0  0  0  0  0  0  0  0
    1.0604    4.7209   -0.0267 H   0  0  0  0  0  0  0  0  0  0  0  0
   -0.4508    3.8278   -0.3043 H   0  0  0  0  0  0  0  0  0  0  0  0
    0.4960    4.4266   -1.6862 H   0  0  0  0  0  0  0  0  0  0  0  0
   -0.5743    1.1272    1.1972 C   0  0  0  0  0  0  0  0  0  0  0  0
   -1.6787    1.6662    1.2235 O   0  0  0  0  0  0  0  0  0  0  0  0
    0.4154    1.5912    2.0451 N   0  0  0  0  0  0  0  0  0  0  0  0
    1.3487    1.2119    1.9092 H   0  0  0  0  0  0  0  0  0  0  0  0
    0.2526    2.7564    2.9053 C   0  0  0  0  0  0  0  0  0  0  0  0
   -0.5608    2.5935    3.6201 H   0  0  0  0  0  0  0  0  0  0  0  0
    1.1731    2.9419    3.4668 H   0  0  0  0  0  0  0  0  0  0  0  0
    0.0255    3.6464    2.3098 H   0  0  0  0  0  0  0  0  0  0  0  0
  1  2  1  0  0  0  0
  2  3  1  0  0  0  0
  2  4  1  0  0  0  0
  2  5  1  0  0  0  0
  5  6  2  0  0  0  0
  5  7  1  0  0  0  0
  7  8  1  0  0  0  0
  7  9  1  0  0  0  0
  9 10  1  0  0  0  0
  9 11  1  0  0  0  0
  9 22  1  0  0  0  0
 11 12  1  0  0  0  0
 11 13  1  0  0  0  0
 11 14  1  0  0  0  0
 14 15  1  0  0  0  0
 14 16  1  0  0  0  0
 14 17  1  0  0  0  0
 17 18  1  0  0  0  0
 18 19  1  0  0  0  0
 18 20  1  0  0  0  0
 18 21  1  0  0  0  0
 22 23  2  0  0  0  0
 22 24  1  0  0  0  0
 24 25  1  0  0  0  0
 24 26  1  0  0  0  0
 26 27  1  0  0  0  0
 26 28  1  0  0  0  0
 26 29  1  0  0  0  0
M  END
$$$$

  -OEChem-02102214153D

 29 28  0     1  0  0  0  0  0999 V2000
   -3.1806   -3.9743    0.8620 H   0  0  0  0  0  0  0  0  0  0  0  0
   -3.2302   -2.9458    0.4934 C   0  0  0  0  0  0  0  0  0  0  0  0
   -4.0038   -2.4096    1.0483 H   0  0  0  0  0  0  0  0  0  0  0  0
   -3.4969   -2.9635   -0.5660 H   0  0  0  0  0  0  0  0  0  0  0  0
   -1.8904   -2.2589    0.6790 C   0  0  0  0  0  0  0  0  0  0  0  0
   -0.9543   -2.8662    1.1737 O   0  0  0  0  0  0  0  0  0  0  0  0
   -1.7351   -0.9453    0.2926 N   0  0  0  0  0  0  0  0  0  0  0  0
   -2.5724   -0.4395    0.0036 H   0  0  0  0  0  0  0  0  0  0  0  0
   -0.5464   -0.1284    0.5866 C   0  0  1  0  0  0  0  0  0  0  0  0
    0.0722   -0.5533    1.3844 H   0  0  0  0  0  0  0  0  0  0  0  0
    0.2550   -0.0742   -0.7423 C   0  0  0  0  0  0  0  0  0  0  0  0
    0.9011   -0.9581   -0.7484 H   0  0  0  0  0  0  0  0  0  0  0  0
   -0.4398   -0.1855   -1.5819 H   0  0  0  0  0  0  0  0  0  0  0  0
    1.1353    1.1489   -1.0725 C   0  0  0  0  0  0  0  0  0  0  0  0
    1.9337    0.8411   -1.7553 H   0  0  0  0  0  0  0  0  0  0  0  0
    0.5103    1.8732   -1.6056 H   0  0  0  0  0  0  0  0  0  0  0  0
    1.8711    2.0222    0.3700 S   0  0  0  0  0  0  0  0  0  0  0  0
    2.6065    3.4967   -0.4389 C   0  0  0  0  0  0  0  0  0  0  0  0
    3.0918    4.1322    0.3079 H   0  0  0  0  0  0  0  0  0  0  0  0
    3.3530    3.1920   -1.1784 H   0  0  0  0  0  0  0  0  0  0  0  0
    1.8291    4.0797   -0.9416 H   0  0  0  0  0  0  0  0  0  0  0  0
   -1.1145    1.2317    1.0688 C   0  0  0  0  0  0  0  0  0  0  0  0
   -2.0854    1.7215    0.4961 O   0  0  0  0  0  0  0  0  0  0  0  0
   -0.6060    1.8714    2.1844 N   0  0  0  0  0  0  0  0  0  0  0  0
    0.2871    1.5296    2.5300 H   0  0  0  0  0  0  0  0  0  0  0  0
   -1.0592    3.1863    2.6198 C   0  0  0  0  0  0  0  0  0  0  0  0
   -2.1363    3.1760    2.8175 H   0  0  0  0  0  0  0  0  0  0  0  0
   -0.5442    3.4767    3.5405 H   0  0  0  0  0  0  0  0  0  0  0  0
   -0.8483    3.9371    1.8510 H   0  0  0  0  0  0  0  0  0  0  0  0
  1  2  1  0  0  0  0
  2  3  1  0  0  0  0
  2  4  1  0  0  0  0
  2  5  1  0  0  0  0
  5  6  2  0  0  0  0
  5  7  1  0  0  0  0
  7  8  1  0  0  0  0
  7  9  1  0  0  0  0
  9 10  1  0  0  0  0
  9 11  1  0  0  0  0
  9 22  1  0  0  0  0
 11 12  1  0  0  0  0
 11 13  1  0  0  0  0
 11 14  1  0  0  0  0
 14 15  1  0  0  0  0
 14 16  1  0  0  0  0
 14 17  1  0  0  0  0
 17 18  1  0  0  0  0
 18 19  1  0  0  0  0
 18 20  1  0  0  0  0
 18 21  1  0  0  0  0
 22 23  2  0  0  0  0
 22 24  1  0  0  0  0
 24 25  1  0  0  0  0
 24 26  1  0  0  0  0
 26 27  1  0  0  0  0
 26 28  1  0  0  0  0
 26 29  1  0  0  0  0
M  END
$$$$

  -OEChem-02102214153D

 29 28  0     1  0  0  0  0  0999 V2000
   -3.6913   -3.0284    1.4531 H   0  0  0  0  0  0  0  0  0  0  0  0
   -3.6392   -2.0601    0.9476 C   0  0  0  0  0  0  0  0  0  0  0  0
   -4.2931   -1.3554    1.4673 H   0  0  0  0  0  0  0  0  0  0  0  0
   -3.9882   -2.1802   -0.0809 H   0  0  0  0  0  0  0  0  0  0  0  0
   -2.2131   -1.5438    0.9530 C   0  0  0  0  0  0  0  0  0  0  0  0
   -1.3234   -2.2049    1.4651 O   0  0  0  0  0  0  0  0  0  0  0  0
   -1.9228   -0.3268    0.3755 N   0  0  0  0  0  0  0  0  0  0  0  0
   -2.7085    0.2482    0.0717 H   0  0  0  0  0  0  0  0  0  0  0  0
   -0.6198    0.3467    0.4808 C   0  0  1  0  0  0  0  0  0  0  0  0
   -0.0113   -0.0571    1.2967 H   0  0  0  0  0  0  0  0  0  0  0  0
    0.0997    0.1281   -0.8734 C   0  0  0  0  0  0  0  0  0  0  0  0
    0.6253   -0.8305   -0.8191 H   0  0  0  0  0  0  0  0  0  0  0  0
   -0.6513    0.0340   -1.6652 H   0  0  0  0  0  0  0  0  0  0  0  0
    1.0890    1.2124   -1.3342 C   0  0  0  0  0  0  0  0  0  0  0  0
    1.6738    0.8328   -2.1780 H   0  0  0  0  0  0  0  0  0  0  0  0
    0.5222    2.0786   -1.6924 H   0  0  0  0  0  0  0  0  0  0  0  0
    2.2304    1.7816   -0.0036 S   0  0  0  0  0  0  0  0  0  0  0  0
    3.1466    0.2458    0.4183 C   0  0  0  0  0  0  0  0  0  0  0  0
    3.6368   -0.1593   -0.4719 H   0  0  0  0  0  0  0  0  0  0  0  0
    3.9113    0.4606    1.1709 H   0  0  0  0  0  0  0  0  0  0  0  0
    2.4660   -0.5106    0.8201 H   0  0  0  0  0  0  0  0  0  0  0  0
   -0.9330    1.8308    0.7996 C   0  0  0  0  0  0  0  0  0  0  0  0
   -1.8754    2.3827    0.2374 O   0  0  0  0  0  0  0  0  0  0  0  0
   -0.2399    2.5203    1.7772 N   0  0  0  0  0  0  0  0  0  0  0  0
    0.6282    2.0977    2.0963 H   0  0  0  0  0  0  0  0  0  0  0  0
   -0.4653    3.9323    2.0598 C   0  0  0  0  0  0  0  0  0  0  0  0
   -1.5076    4.1047    2.3482 H   0  0  0  0  0  0  0  0  0  0  0  0
    0.1771    4.2599    2.8827 H   0  0  0  0  0  0  0  0  0  0  0  0
   -0.2377    4.5401    1.1779 H   0  0  0  0  0  0  0  0  0  0  0  0
  1  2  1  0  0  0  0
  2  3  1  0  0  0  0
  2  4  1  0  0  0  0
  2  5  1  0  0  0  0
  5  6  2  0  0  0  0
  5  7  1  0  0  0  0
  7  8  1  0  0  0  0
  7  9  1  0  0  0  0
  9 10  1  0  0  0  0
  9 11  1  0  0  0  0
  9 22  1  0  0  0  0
 11 12  1  0  0  0  0
 11 13  1  0  0  0  0
 11 14  1  0  0  0  0
 14 15  1  0  0  0  0
 14 16  1  0  0  0  0
 14 17  1  0  0  0  0
 17 18  1  0  0  0  0
 18 19  1  0  0  0  0
 18 20  1  0  0  0  0
 18 21  1  0  0  0  0
 22 23  2  0  0  0  0
 22 24  1  0  0  0  0
 24 25  1  0  0  0  0
 24 26  1  0  0  0  0
 26 27  1  0  0  0  0
 26 28  1  0  0  0  0
 26 29  1  0  0  0  0
M  END
$$$$

  -OEChem-02102214153D

 29 28  0     1  0  0  0  0  0999 V2000
   -3.3498   -3.2707    1.5753 H   0  0  0  0  0  0  0  0  0  0  0  0
   -3.4041   -2.2659    1.1473 C   0  0  0  0  0  0  0  0  0  0  0  0
   -4.0227   -1.6402    1.7952 H   0  0  0  0  0  0  0  0  0  0  0  0
   -3.8684   -2.3279    0.1602 H   0  0  0  0  0  0  0  0  0  0  0  0
   -2.0130   -1.6728    1.0291 C   0  0  0  0  0  0  0  0  0  0  0  0
   -1.0384   -2.3272    1.3649 O   0  0  0  0  0  0  0  0  0  0  0  0
   -1.8517   -0.3936    0.5412 N   0  0  0  0  0  0  0  0  0  0  0  0
   -2.6944    0.1579    0.3831 H   0  0  0  0  0  0  0  0  0  0  0  0
   -0.5772    0.3392    0.5486 C   0  0  1  0  0  0  0  0  0  0  0  0
    0.1312   -0.1088    1.2534 H   0  0  0  0  0  0  0  0  0  0  0  0
    0.0229    0.2672   -0.8747 C   0  0  0  0  0  0  0  0  0  0  0  0
    0.5907   -0.6625   -0.9729 H   0  0  0  0  0  0  0  0  0  0  0  0
   -0.7981    0.2151   -1.5975 H   0  0  0  0  0  0  0  0  0  0  0  0
    0.8941    1.4647   -1.2838 C   0  0  0  0  0  0  0  0  0  0  0  0
    1.2556    1.3092   -2.3051 H   0  0  0  0  0  0  0  0  0  0  0  0
    0.2992    2.3842   -1.2891 H   0  0  0  0  0  0  0  0  0  0  0  0
    2.3429    1.6710   -0.1622 S   0  0  0  0  0  0  0  0  0  0  0  0
    3.2412    0.0737   -0.3009 C   0  0  0  0  0  0  0  0  0  0  0  0
    3.4479   -0.1558   -1.3505 H   0  0  0  0  0  0  0  0  0  0  0  0
    2.6495   -0.7394    0.1296 H   0  0  0  0  0  0  0  0  0  0  0  0
    4.1916    0.1317    0.2378 H   0  0  0  0  0  0  0  0  0  0  0  0
   -0.8593    1.7781    1.0406 C   0  0  0  0  0  0  0  0  0  0  0  0
   -1.8715    2.3602    0.6623 O   0  0  0  0  0  0  0  0  0  0  0  0
   -0.0390    2.3827    1.9742 N   0  0  0  0  0  0  0  0  0  0  0  0
    0.8564    1.9332    2.1500 H   0  0  0  0  0  0  0  0  0  0  0  0
   -0.2267    3.7558    2.4254 C   0  0  0  0  0  0  0  0  0  0  0  0
   -1.2172    3.8803    2.8753 H   0  0  0  0  0  0  0  0  0  0  0  0
    0.5263    4.0120    3.1768 H   0  0  0  0  0  0  0  0  0  0  0  0
   -0.1303    4.4520    1.5857 H   0  0  0  0  0  0  0  0  0  0  0  0
  1  2  1  0  0  0  0
  2  3  1  0  0  0  0
  2  4  1  0  0  0  0
  2  5  1  0  0  0  0
  5  6  2  0  0  0  0
  5  7  1  0  0  0  0
  7  8  1  0  0  0  0
  7  9  1  0  0  0  0
  9 10  1  0  0  0  0
  9 11  1  0  0  0  0
  9 22  1  0  0  0  0
 11 12  1  0  0  0  0
 11 13  1  0  0  0  0
 11 14  1  0  0  0  0
 14 15  1  0  0  0  0
 14 16  1  0  0  0  0
 14 17  1  0  0  0  0
 17 18  1  0  0  0  0
 18 19  1  0  0  0  0
 18 20  1  0  0  0  0
 18 21  1  0  0  0  0
 22 23  2  0  0  0  0
 22 24  1  0  0  0  0
 24 25  1  0  0  0  0
 24 26  1  0  0  0  0
 26 27  1  0  0  0  0
 26 28  1  0  0  0  0
 26 29  1  0  0  0  0
M  END
$$$$

  -OEChem-02102214153D

 29 28  0     1  0  0  0  0  0999 V2000
   -3.8094   -3.5234    0.6898 H   0  0  0  0  0  0  0  0  0  0  0  0
   -3.6814   -2.4995    0.3274 C   0  0  0  0  0  0  0  0  0  0  0  0
   -4.3931   -1.8513    0.8444 H   0  0  0  0  0  0  0  0  0  0  0  0
   -3.8899   -2.4766   -0.7448 H   0  0  0  0  0  0  0  0  0  0  0  0
   -2.2644   -2.0253    0.5895 C   0  0  0  0  0  0  0  0  0  0  0  0
   -1.4641   -2.7652    1.1386 O   0  0  0  0  0  0  0  0  0  0  0  0
   -1.8894   -0.7529    0.2140 N   0  0  0  0  0  0  0  0  0  0  0  0
   -2.6177   -0.1368   -0.1440 H   0  0  0  0  0  0  0  0  0  0  0  0
   -0.5987   -0.1306    0.5436 C   0  0  1  0  0  0  0  0  0  0  0  0
   -0.1225   -0.6587    1.3766 H   0  0  0  0  0  0  0  0  0  0  0  0
    0.3328   -0.2434   -0.6861 C   0  0  0  0  0  0  0  0  0  0  0  0
    0.8411   -1.2131   -0.6659 H   0  0  0  0  0  0  0  0  0  0  0  0
   -0.2874   -0.2225   -1.5883 H   0  0  0  0  0  0  0  0  0  0  0  0
    1.3658    0.8841   -0.8324 C   0  0  0  0  0  0  0  0  0  0  0  0
    1.8010    0.8316   -1.8356 H   0  0  0  0  0  0  0  0  0  0  0  0
    0.9126    1.8753   -0.7350 H   0  0  0  0  0  0  0  0  0  0  0  0
    2.7106    0.6457    0.3958 S   0  0  0  0  0  0  0  0  0  0  0  0
    3.7890    2.0808    0.0143 C   0  0  0  0  0  0  0  0  0  0  0  0
    3.2378    3.0158    0.1523 H   0  0  0  0  0  0  0  0  0  0  0  0
    4.6587    2.0846    0.6781 H   0  0  0  0  0  0  0  0  0  0  0  0
    4.1390    2.0273   -1.0209 H   0  0  0  0  0  0  0  0  0  0  0  0
   -0.8441    1.3145    1.0270 C   0  0  0  0  0  0  0  0  0  0  0  0
   -1.6620    2.0218    0.4476 O   0  0  0  0  0  0  0  0  0  0  0  0
   -0.1949    1.8003    2.1462 N   0  0  0  0  0  0  0  0  0  0  0  0
    0.5289    1.2128    2.5532 H   0  0  0  0  0  0  0  0  0  0  0  0
   -0.3601    3.1608    2.6411 C   0  0  0  0  0  0  0  0  0  0  0  0
   -1.4135    3.3646    2.8604 H   0  0  0  0  0  0  0  0  0  0  0  0
    0.2155    3.3006    3.5611 H   0  0  0  0  0  0  0  0  0  0  0  0
   -0.0081    3.8833    1.8975 H   0  0  0  0  0  0  0  0  0  0  0  0
  1  2  1  0  0  0  0
  2  3  1  0  0  0  0
  2  4  1  0  0  0  0
  2  5  1  0  0  0  0
  5  6  2  0  0  0  0
  5  7  1  0  0  0  0
  7  8  1  0  0  0  0
  7  9  1  0  0  0  0
  9 10  1  0  0  0  0
  9 11  1  0  0  0  0
  9 22  1  0  0  0  0
 11 12  1  0  0  0  0
 11 13  1  0  0  0  0
 11 14  1  0  0  0  0
 14 15  1  0  0  0  0
 14 16  1  0  0  0  0
 14 17  1  0  0  0  0
 17 18  1  0  0  0  0
 18 19  1  0  0  0  0
 18 20  1  0  0  0  0
 18 21  1  0  0  0  0
 22 23  2  0  0  0  0
 22 24  1  0  0  0  0
 24 25  1  0  0  0  0
 24 26  1  0  0  0  0
 26 27  1  0  0  0  0
 26 28  1  0  0  0  0
 26 29  1  0  0  0  0
M  END
$$$$

  -OEChem-02102214153D

 29 28  0     1  0  0  0  0  0999 V2000
   -3.4332   -3.4141    1.2100 H   0  0  0  0  0  0  0  0  0  0  0  0
   -3.3706   -2.4351    0.7268 C   0  0  0  0  0  0  0  0  0  0  0  0
   -4.0478   -1.7465    1.2378 H   0  0  0  0  0  0  0  0  0  0  0  0
   -3.6824   -2.5363   -0.3154 H   0  0  0  0  0  0  0  0  0  0  0  0
   -1.9490   -1.9096    0.7930 C   0  0  0  0  0  0  0  0  0  0  0  0
   -1.0760   -2.5716    1.3308 O   0  0  0  0  0  0  0  0  0  0  0  0
   -1.6489   -0.6734    0.2611 N   0  0  0  0  0  0  0  0  0  0  0  0
   -2.4227   -0.1083   -0.0863 H   0  0  0  0  0  0  0  0  0  0  0  0
   -0.3332   -0.0222    0.3526 C   0  0  1  0  0  0  0  0  0  0  0  0
    0.2852   -0.4789    1.1315 H   0  0  0  0  0  0  0  0  0  0  0  0
    0.3594   -0.2064   -1.0219 C   0  0  0  0  0  0  0  0  0  0  0  0
    0.8508   -1.1846   -1.0454 H   0  0  0  0  0  0  0  0  0  0  0  0
   -0.4252   -0.2284   -1.7859 H   0  0  0  0  0  0  0  0  0  0  0  0
    1.3534    0.8819   -1.4724 C   0  0  0  0  0  0  0  0  0  0  0  0
    1.3662    0.8932   -2.5671 H   0  0  0  0  0  0  0  0  0  0  0  0
    1.0563    1.8849   -1.1546 H   0  0  0  0  0  0  0  0  0  0  0  0
    3.0649    0.5004   -0.9096 S   0  0  0  0  0  0  0  0  0  0  0  0
    3.1399    0.9967    0.8540 C   0  0  0  0  0  0  0  0  0  0  0  0
    2.4734    0.3728    1.4543 H   0  0  0  0  0  0  0  0  0  0  0  0
    4.1596    0.8730    1.2309 H   0  0  0  0  0  0  0  0  0  0  0  0
    2.8534    2.0466    0.9647 H   0  0  0  0  0  0  0  0  0  0  0  0
   -0.5757    1.4530    0.7424 C   0  0  0  0  0  0  0  0  0  0  0  0
   -1.4562    2.0947    0.1794 O   0  0  0  0  0  0  0  0  0  0  0  0
    0.1827    2.0674    1.7212 N   0  0  0  0  0  0  0  0  0  0  0  0
    0.8466    1.4907    2.2294 H   0  0  0  0  0  0  0  0  0  0  0  0
   -0.0186    3.4487    2.1419 C   0  0  0  0  0  0  0  0  0  0  0  0
   -1.0272    3.5834    2.5462 H   0  0  0  0  0  0  0  0  0  0  0  0
    0.7044    3.7168    2.9181 H   0  0  0  0  0  0  0  0  0  0  0  0
    0.1160    4.1305    1.2956 H   0  0  0  0  0  0  0  0  0  0  0  0
  1  2  1  0  0  0  0
  2  3  1  0  0  0  0
  2  4  1  0  0  0  0
  2  5  1  0  0  0  0
  5  6  2  0  0  0  0
  5  7  1  0  0  0  0
  7  8  1  0  0  0  0
  7  9  1  0  0  0  0
  9 10  1  0  0  0  0
  9 11  1  0  0  0  0
  9 22  1  0  0  0  0
 11 12  1  0  0  0  0
 11 13  1  0  0  0  0
 11 14  1  0  0  0  0
 14 15  1  0  0  0  0
 14 16  1  0  0  0  0
 14 17  1  0  0  0  0
 17 18  1  0  0  0  0
 18 19  1  0  0  0  0
 18 20  1  0  0  0  0
 18 21  1  0  0  0  0
 22 23  2  0  0  0  0
 22 24  1  0  0  0  0
 24 25  1  0  0  0  0
 24 26  1  0  0  0  0
 26 27  1  0  0  0  0
 26 28  1  0  0  0  0
 26 29  1  0  0  0  0
M  END
$$$$

  -OEChem-02102214153D

 29 28  0     1  0  0  0  0  0999 V2000
   -3.2607   -3.4453    1.2414 H   0  0  0  0  0  0  0  0  0  0  0  0
   -3.2485   -2.4546    0.7783 C   0  0  0  0  0  0  0  0  0  0  0  0
   -3.9362   -1.8028    1.3225 H   0  0  0  0  0  0  0  0  0  0  0  0
   -3.5855   -2.5459   -0.2571 H   0  0  0  0  0  0  0  0  0  0  0  0
   -1.8463   -1.8775    0.8176 C   0  0  0  0  0  0  0  0  0  0  0  0
   -0.9402   -2.5058    1.3415 O   0  0  0  0  0  0  0  0  0  0  0  0
   -1.5986   -0.6354    0.2727 N   0  0  0  0  0  0  0  0  0  0  0  0
   -2.3972   -0.0989   -0.0638 H   0  0  0  0  0  0  0  0  0  0  0  0
   -0.3036    0.0581    0.3342 C   0  0  1  0  0  0  0  0  0  0  0  0
    0.3284   -0.3713    1.1177 H   0  0  0  0  0  0  0  0  0  0  0  0
    0.3999   -0.1376   -1.0333 C   0  0  0  0  0  0  0  0  0  0  0  0
    0.9193   -1.1015   -1.0338 H   0  0  0  0  0  0  0  0  0  0  0  0
   -0.3818   -0.2047   -1.7975 H   0  0  0  0  0  0  0  0  0  0  0  0
    1.3563    0.9796   -1.5036 C   0  0  0  0  0  0  0  0  0  0  0  0
    1.1773    1.1609   -2.5685 H   0  0  0  0  0  0  0  0  0  0  0  0
    1.1937    1.9321   -0.9949 H   0  0  0  0  0  0  0  0  0  0  0  0
    3.1112    0.4632   -1.3123 S   0  0  0  0  0  0  0  0  0  0  0  0
    3.3069    0.2503    0.5009 C   0  0  0  0  0  0  0  0  0  0  0  0
    2.6808   -0.5714    0.8598 H   0  0  0  0  0  0  0  0  0  0  0  0
    4.3496    0.0186    0.7379 H   0  0  0  0  0  0  0  0  0  0  0  0
    3.0260    1.1694    1.0228 H   0  0  0  0  0  0  0  0  0  0  0  0
   -0.5616    1.5301    0.7195 C   0  0  0  0  0  0  0  0  0  0  0  0
   -1.4758    2.1502    0.1877 O   0  0  0  0  0  0  0  0  0  0  0  0
    0.2171    2.1542    1.6768 N   0  0  0  0  0  0  0  0  0  0  0  0
    0.9183    1.5929    2.1514 H   0  0  0  0  0  0  0  0  0  0  0  0
   -0.0032    3.5265    2.1165 C   0  0  0  0  0  0  0  0  0  0  0  0
   -0.9869    3.6243    2.5875 H   0  0  0  0  0  0  0  0  0  0  0  0
    0.7601    3.8179    2.8445 H   0  0  0  0  0  0  0  0  0  0  0  0
    0.0511    4.2154    1.2668 H   0  0  0  0  0  0  0  0  0  0  0  0
  1  2  1  0  0  0  0
  2  3  1  0  0  0  0
  2  4  1  0  0  0  0
  2  5  1  0  0  0  0
  5  6  2  0  0  0  0
  5  7  1  0  0  0  0
  7  8  1  0  0  0  0
  7  9  1  0  0  0  0
  9 10  1  0  0  0  0
  9 11  1  0  0  0  0
  9 22  1  0  0  0  0
 11 12  1  0  0  0  0
 11 13  1  0  0  0  0
 11 14  1  0  0  0  0
 14 15  1  0  0  0  0
 14 16  1  0  0  0  0
 14 17  1  0  0  0  0
 17 18  1  0  0  0  0
 18 19  1  0  0  0  0
 18 20  1  0  0  0  0
 18 21  1  0  0  0  0
 22 23  2  0  0  0  0
 22 24  1  0  0  0  0
 24 25  1  0  0  0  0
 24 26  1  0  0  0  0
 26 27  1  0  0  0  0
 26 28  1  0  0  0  0
 26 29  1  0  0  0  0
M  END
$$$$

  -OEChem-02102214153D

 29 28  0     1  0  0  0  0  0999 V2000
   -3.2670   -3.4341    1.2603 H   0  0  0  0  0  0  0  0  0  0  0  0
   -3.2468   -2.4523    0.7792 C   0  0  0  0  0  0  0  0  0  0  0  0
   -3.9316   -1.7863    1.3094 H   0  0  0  0  0  0  0  0  0  0  0  0
   -3.5815   -2.5603   -0.2552 H   0  0  0  0  0  0  0  0  0  0  0  0
   -1.8407   -1.8839    0.8113 C   0  0  0  0  0  0  0  0  0  0  0  0
   -0.9347   -2.5189    1.3272 O   0  0  0  0  0  0  0  0  0  0  0  0
   -1.5890   -0.6408    0.2703 N   0  0  0  0  0  0  0  0  0  0  0  0
   -2.3865   -0.0985   -0.0595 H   0  0  0  0  0  0  0  0  0  0  0  0
   -0.2908    0.0472    0.3326 C   0  0  1  0  0  0  0  0  0  0  0  0
    0.3477   -0.3864    1.1092 H   0  0  0  0  0  0  0  0  0  0  0  0
    0.4039   -0.1383   -1.0400 C   0  0  0  0  0  0  0  0  0  0  0  0
    0.9241   -1.1015   -1.0377 H   0  0  0  0  0  0  0  0  0  0  0  0
   -0.3725   -0.2096   -1.8093 H   0  0  0  0  0  0  0  0  0  0  0  0
    1.3614    0.9850   -1.4956 C   0  0  0  0  0  0  0  0  0  0  0  0
    1.0005    1.3995   -2.4427 H   0  0  0  0  0  0  0  0  0  0  0  0
    1.4170    1.8117   -0.7851 H   0  0  0  0  0  0  0  0  0  0  0  0
    3.0592    0.3243   -1.7426 S   0  0  0  0  0  0  0  0  0  0  0  0
    3.5636   -0.1272   -0.0345 C   0  0  0  0  0  0  0  0  0  0  0  0
    2.9127   -0.9112    0.3634 H   0  0  0  0  0  0  0  0  0  0  0  0
    4.5930   -0.4978   -0.0348 H   0  0  0  0  0  0  0  0  0  0  0  0
    3.5069    0.7468    0.6207 H   0  0  0  0  0  0  0  0  0  0  0  0
   -0.5497    1.5184    0.7238 C   0  0  0  0  0  0  0  0  0  0  0  0
   -1.4610    2.1426    0.1919 O   0  0  0  0  0  0  0  0  0  0  0  0
    0.2293    2.1382    1.6840 N   0  0  0  0  0  0  0  0  0  0  0  0
    0.9326    1.5758    2.1547 H   0  0  0  0  0  0  0  0  0  0  0  0
    0.0099    3.5094    2.1280 C   0  0  0  0  0  0  0  0  0  0  0  0
   -0.9901    3.6165    2.5613 H   0  0  0  0  0  0  0  0  0  0  0  0
    0.7475    3.7835    2.8883 H   0  0  0  0  0  0  0  0  0  0  0  0
    0.1065    4.2046    1.2874 H   0  0  0  0  0  0  0  0  0  0  0  0
  1  2  1  0  0  0  0
  2  3  1  0  0  0  0
  2  4  1  0  0  0  0
  2  5  1  0  0  0  0
  5  6  2  0  0  0  0
  5  7  1  0  0  0  0
  7  8  1  0  0  0  0
  7  9  1  0  0  0  0
  9 10  1  0  0  0  0
  9 11  1  0  0  0  0
  9 22  1  0  0  0  0
 11 12  1  0  0  0  0
 11 13  1  0  0  0  0
 11 14  1  0  0  0  0
 14 15  1  0  0  0  0
 14 16  1  0  0  0  0
 14 17  1  0  0  0  0
 17 18  1  0  0  0  0
 18 19  1  0  0  0  0
 18 20  1  0  0  0  0
 18 21  1  0  0  0  0
 22 23  2  0  0  0  0
 22 24  1  0  0  0  0
 24 25  1  0  0  0  0
 24 26  1  0  0  0  0
 26 27  1  0  0  0  0
 26 28  1  0  0  0  0
 26 29  1  0  0  0  0
M  END
$$$$

  -OEChem-02102214153D

 29 28  0     1  0  0  0  0  0999 V2000
   -3.3071   -3.4263    1.2519 H   0  0  0  0  0  0  0  0  0  0  0  0
   -3.2749   -2.4452    0.7699 C   0  0  0  0  0  0  0  0  0  0  0  0
   -3.9568   -1.7720    1.2950 H   0  0  0  0  0  0  0  0  0  0  0  0
   -3.6042   -2.5513   -0.2666 H   0  0  0  0  0  0  0  0  0  0  0  0
   -1.8640   -1.8897    0.8105 C   0  0  0  0  0  0  0  0  0  0  0  0
   -0.9670   -2.5328    1.3321 O   0  0  0  0  0  0  0  0  0  0  0  0
   -1.5979   -0.6500    0.2690 N   0  0  0  0  0  0  0  0  0  0  0  0
   -2.3881   -0.1016   -0.0680 H   0  0  0  0  0  0  0  0  0  0  0  0
   -0.2934    0.0246    0.3340 C   0  0  1  0  0  0  0  0  0  0  0  0
    0.3446   -0.4173    1.1064 H   0  0  0  0  0  0  0  0  0  0  0  0
    0.3907   -0.1525   -1.0429 C   0  0  0  0  0  0  0  0  0  0  0  0
    0.9178   -1.1113   -1.0313 H   0  0  0  0  0  0  0  0  0  0  0  0
   -0.3765   -0.2281   -1.8209 H   0  0  0  0  0  0  0  0  0  0  0  0
    1.3510    0.9765   -1.4696 C   0  0  0  0  0  0  0  0  0  0  0  0
    0.8614    1.6111   -2.2160 H   0  0  0  0  0  0  0  0  0  0  0  0
    1.6295    1.6134   -0.6266 H   0  0  0  0  0  0  0  0  0  0  0  0
    2.9057    0.2775   -2.1586 S   0  0  0  0  0  0  0  0  0  0  0  0
    3.7447   -0.3960   -0.6687 C   0  0  0  0  0  0  0  0  0  0  0  0
    3.1396   -1.1817   -0.2074 H   0  0  0  0  0  0  0  0  0  0  0  0
    4.7131   -0.8223   -0.9473 H   0  0  0  0  0  0  0  0  0  0  0  0
    3.9109    0.3985    0.0645 H   0  0  0  0  0  0  0  0  0  0  0  0
   -0.5387    1.4993    0.7231 C   0  0  0  0  0  0  0  0  0  0  0  0
   -1.4413    2.1320    0.1867 O   0  0  0  0  0  0  0  0  0  0  0  0
    0.2431    2.1134    1.6845 N   0  0  0  0  0  0  0  0  0  0  0  0
    0.9349    1.5434    2.1631 H   0  0  0  0  0  0  0  0  0  0  0  0
    0.0353    3.4876    2.1249 C   0  0  0  0  0  0  0  0  0  0  0  0
   -0.9640    3.6048    2.5571 H   0  0  0  0  0  0  0  0  0  0  0  0
    0.7749    3.7570    2.8850 H   0  0  0  0  0  0  0  0  0  0  0  0
    0.1386    4.1802    1.2828 H   0  0  0  0  0  0  0  0  0  0  0  0
  1  2  1  0  0  0  0
  2  3  1  0  0  0  0
  2  4  1  0  0  0  0
  2  5  1  0  0  0  0
  5  6  2  0  0  0  0
  5  7  1  0  0  0  0
  7  8  1  0  0  0  0
  7  9  1  0  0  0  0
  9 10  1  0  0  0  0
  9 11  1  0  0  0  0
  9 22  1  0  0  0  0
 11 12  1  0  0  0  0
 11 13  1  0  0  0  0
 11 14  1  0  0  0  0
 14 15  1  0  0  0  0
 14 16  1  0  0  0  0
 14 17  1  0  0  0  0
 17 18  1  0  0  0  0
 18 19  1  0  0  0  0
 18 20  1  0  0  0  0
 18 21  1  0  0  0  0
 22 23  2  0  0  0  0
 22 24  1  0  0  0  0
 24 25  1  0  0  0  0
 24 26  1  0  0  0  0
 26 27  1  0  0  0  0
 26 28  1  0  0  0  0
 26 29  1  0  0  0  0
M  END
$$$$

  -OEChem-02102214153D

 29 28  0     1  0  0  0  0  0999 V2000
   -3.3425   -3.4204    1.2590 H   0  0  0  0  0  0  0  0  0  0  0  0
   -3.3013   -2.4449    0.7663 C   0  0  0  0  0  0  0  0  0  0  0  0
   -3.9841   -1.7627    1.2784 H   0  0  0  0  0  0  0  0  0  0  0  0
   -3.6222   -2.5608   -0.2718 H   0  0  0  0  0  0  0  0  0  0  0  0
   -1.8878   -1.8961    0.8116 C   0  0  0  0  0  0  0  0  0  0  0  0
   -0.9943   -2.5459    1.3311 O   0  0  0  0  0  0  0  0  0  0  0  0
   -1.6147   -0.6580    0.2704 N   0  0  0  0  0  0  0  0  0  0  0  0
   -2.4013   -0.1074   -0.0713 H   0  0  0  0  0  0  0  0  0  0  0  0
   -0.3060    0.0080    0.3305 C   0  0  1  0  0  0  0  0  0  0  0  0
    0.3306   -0.4417    1.0996 H   0  0  0  0  0  0  0  0  0  0  0  0
    0.3723   -0.1707   -1.0470 C   0  0  0  0  0  0  0  0  0  0  0  0
    0.9066   -1.1250   -1.0308 H   0  0  0  0  0  0  0  0  0  0  0  0
   -0.3902   -0.2464   -1.8295 H   0  0  0  0  0  0  0  0  0  0  0  0
    1.3298    0.9635   -1.4509 C   0  0  0  0  0  0  0  0  0  0  0  0
    0.7718    1.7510   -1.9694 H   0  0  0  0  0  0  0  0  0  0  0  0
    1.8014    1.4092   -0.5703 H   0  0  0  0  0  0  0  0  0  0  0  0
    2.6694    0.3184   -2.5317 S   0  0  0  0  0  0  0  0  0  0  0  0
    3.7627   -0.5612   -1.3448 C   0  0  0  0  0  0  0  0  0  0  0  0
    3.2249   -1.3803   -0.8589 H   0  0  0  0  0  0  0  0  0  0  0  0
    4.6266   -0.9773   -1.8716 H   0  0  0  0  0  0  0  0  0  0  0  0
    4.1221    0.1295   -0.5765 H   0  0  0  0  0  0  0  0  0  0  0  0
   -0.5253    1.4863    0.7209 C   0  0  0  0  0  0  0  0  0  0  0  0
   -1.4242    2.1315    0.1934 O   0  0  0  0  0  0  0  0  0  0  0  0
    0.2720    2.0886    1.6770 N   0  0  0  0  0  0  0  0  0  0  0  0
    0.9594    1.5090    2.1506 H   0  0  0  0  0  0  0  0  0  0  0  0
    0.0903    3.4675    2.1150 C   0  0  0  0  0  0  0  0  0  0  0  0
   -0.9130    3.6098    2.5306 H   0  0  0  0  0  0  0  0  0  0  0  0
    0.8232    3.7187    2.8880 H   0  0  0  0  0  0  0  0  0  0  0  0
    0.2245    4.1567    1.2745 H   0  0  0  0  0  0  0  0  0  0  0  0
  1  2  1  0  0  0  0
  2  3  1  0  0  0  0
  2  4  1  0  0  0  0
  2  5  1  0  0  0  0
  5  6  2  0  0  0  0
  5  7  1  0  0  0  0
  7  8  1  0  0  0  0
  7  9  1  0  0  0  0
  9 10  1  0  0  0  0
  9 11  1  0  0  0  0
  9 22  1  0  0  0  0
 11 12  1  0  0  0  0
 11 13  1  0  0  0  0
 11 14  1  0  0  0  0
 14 15  1  0  0  0  0
 14 16  1  0  0  0  0
 14 17  1  0  0  0  0
 17 18  1  0  0  0  0
 18 19  1  0  0  0  0
 18 20  1  0  0  0  0
 18 21  1  0  0  0  0
 22 23  2  0  0  0  0
 22 24  1  0  0  0  0
 24 25  1  0  0  0  0
 24 26  1  0  0  0  0
 26 27  1  0  0  0  0
 26 28  1  0  0  0  0
 26 29  1  0  0  0  0
M  END
$$$$

  -OEChem-02102214153D

 29 28  0     1  0  0  0  0  0999 V2000
   -3.3508   -3.4180    1.2670 H   0  0  0  0  0  0  0  0  0  0  0  0
   -3.3082   -2.4435    0.7726 C   0  0  0  0  0  0  0  0  0  0  0  0
   -3.9866   -1.7576    1.2857 H   0  0  0  0  0  0  0  0  0  0  0  0
   -3.6335   -2.5595   -0.2639 H   0  0  0  0  0  0  0  0  0  0  0  0
   -1.8933   -1.8987    0.8114 C   0  0  0  0  0  0  0  0  0  0  0  0
   -0.9988   -2.5504    1.3266 O   0  0  0  0  0  0  0  0  0  0  0  0
   -1.6209   -0.6600    0.2712 N   0  0  0  0  0  0  0  0  0  0  0  0
   -2.4079   -0.1085   -0.0680 H   0  0  0  0  0  0  0  0  0  0  0  0
   -0.3118    0.0050    0.3272 C   0  0  1  0  0  0  0  0  0  0  0  0
    0.3227   -0.4468    1.0970 H   0  0  0  0  0  0  0  0  0  0  0  0
    0.3705   -0.1759   -1.0476 C   0  0  0  0  0  0  0  0  0  0  0  0
    0.9088   -1.1278   -1.0330 H   0  0  0  0  0  0  0  0  0  0  0  0
   -0.3915   -0.2473   -1.8312 H   0  0  0  0  0  0  0  0  0  0  0  0
    1.3238    0.9629   -1.4395 C   0  0  0  0  0  0  0  0  0  0  0  0
    0.7460    1.8475   -1.7292 H   0  0  0  0  0  0  0  0  0  0  0  0
    1.9625    1.2364   -0.5939 H   0  0  0  0  0  0  0  0  0  0  0  0
    2.3938    0.4465   -2.8419 S   0  0  0  0  0  0  0  0  0  0  0  0
    3.6182   -0.6688   -2.0463 C   0  0  0  0  0  0  0  0  0  0  0  0
    3.1225   -1.5452   -1.6198 H   0  0  0  0  0  0  0  0  0  0  0  0
    4.3477   -1.0097   -2.7870 H   0  0  0  0  0  0  0  0  0  0  0  0
    4.1497   -0.1410   -1.2492 H   0  0  0  0  0  0  0  0  0  0  0  0
   -0.5191    1.4841    0.7199 C   0  0  0  0  0  0  0  0  0  0  0  0
   -1.4212    2.1334    0.2031 O   0  0  0  0  0  0  0  0  0  0  0  0
    0.2876    2.0801    1.6718 N   0  0  0  0  0  0  0  0  0  0  0  0
    0.9788    1.4977    2.1361 H   0  0  0  0  0  0  0  0  0  0  0  0
    0.1155    3.4590    2.1127 C   0  0  0  0  0  0  0  0  0  0  0  0
   -0.8841    3.6046    2.5359 H   0  0  0  0  0  0  0  0  0  0  0  0
    0.8550    3.7062    2.8802 H   0  0  0  0  0  0  0  0  0  0  0  0
    0.2463    4.1487    1.2722 H   0  0  0  0  0  0  0  0  0  0  0  0
  1  2  1  0  0  0  0
  2  3  1  0  0  0  0
  2  4  1  0  0  0  0
  2  5  1  0  0  0  0
  5  6  2  0  0  0  0
  5  7  1  0  0  0  0
  7  8  1  0  0  0  0
  7  9  1  0  0  0  0
  9 10  1  0  0  0  0
  9 11  1  0  0  0  0
  9 22  1  0  0  0  0
 11 12  1  0  0  0  0
 11 13  1  0  0  0  0
 11 14  1  0  0  0  0
 14 15  1  0  0  0  0
 14 16  1  0  0  0  0
 14 17  1  0  0  0  0
 17 18  1  0  0  0  0
 18 19  1  0  0  0  0
 18 20  1  0  0  0  0
 18 21  1  0  0  0  0
 22 23  2  0  0  0  0
 22 24  1  0  0  0  0
 24 25  1  0  0  0  0
 24 26  1  0  0  0  0
 26 27  1  0  0  0  0
 26 28  1  0  0  0  0
 26 29  1  0  0  0  0
M  END
$$$$

  -OEChem-02102214153D

 29 28  0     1  0  0  0  0  0999 V2000
   -3.3321   -3.4167    1.2602 H   0  0  0  0  0  0  0  0  0  0  0  0
   -3.2909   -2.4404    0.7691 C   0  0  0  0  0  0  0  0  0  0  0  0
   -3.9644   -1.7555    1.2901 H   0  0  0  0  0  0  0  0  0  0  0  0
   -3.6244   -2.5518   -0.2655 H   0  0  0  0  0  0  0  0  0  0  0  0
   -1.8742   -1.8991    0.8009 C   0  0  0  0  0  0  0  0  0  0  0  0
   -0.9793   -2.5539    1.3117 O   0  0  0  0  0  0  0  0  0  0  0  0
   -1.6001   -0.6615    0.2590 N   0  0  0  0  0  0  0  0  0  0  0  0
   -2.3877   -0.1091   -0.0774 H   0  0  0  0  0  0  0  0  0  0  0  0
   -0.2952    0.0104    0.3275 C   0  0  1  0  0  0  0  0  0  0  0  0
    0.3324   -0.4411    1.1031 H   0  0  0  0  0  0  0  0  0  0  0  0
    0.3966   -0.1730   -1.0377 C   0  0  0  0  0  0  0  0  0  0  0  0
    0.7158   -1.2153   -1.1265 H   0  0  0  0  0  0  0  0  0  0  0  0
   -0.3295    0.0200   -1.8349 H   0  0  0  0  0  0  0  0  0  0  0  0
    1.5957    0.7602   -1.2577 C   0  0  0  0  0  0  0  0  0  0  0  0
    1.2733    1.8059   -1.2184 H   0  0  0  0  0  0  0  0  0  0  0  0
    2.3466    0.6050   -0.4768 H   0  0  0  0  0  0  0  0  0  0  0  0
    2.3442    0.4581   -2.9087 S   0  0  0  0  0  0  0  0  0  0  0  0
    3.1761   -1.1674   -2.7024 C   0  0  0  0  0  0  0  0  0  0  0  0
    2.4429   -1.9540   -2.5042 H   0  0  0  0  0  0  0  0  0  0  0  0
    3.7220   -1.4253   -3.6146 H   0  0  0  0  0  0  0  0  0  0  0  0
    3.8849   -1.1279   -1.8702 H   0  0  0  0  0  0  0  0  0  0  0  0
   -0.5023    1.4910    0.7105 C   0  0  0  0  0  0  0  0  0  0  0  0
   -1.4068    2.1356    0.1927 O   0  0  0  0  0  0  0  0  0  0  0  0
    0.2971    2.0890    1.6674 N   0  0  0  0  0  0  0  0  0  0  0  0
    0.9890    1.5089    2.1333 H   0  0  0  0  0  0  0  0  0  0  0  0
    0.1156    3.4653    2.1132 C   0  0  0  0  0  0  0  0  0  0  0  0
   -0.8829    3.6010    2.5420 H   0  0  0  0  0  0  0  0  0  0  0  0
    0.8574    3.7162    2.8777 H   0  0  0  0  0  0  0  0  0  0  0  0
    0.2361    4.1593    1.2747 H   0  0  0  0  0  0  0  0  0  0  0  0
  1  2  1  0  0  0  0
  2  3  1  0  0  0  0
  2  4  1  0  0  0  0
  2  5  1  0  0  0  0
  5  6  2  0  0  0  0
  5  7  1  0  0  0  0
  7  8  1  0  0  0  0
  7  9  1  0  0  0  0
  9 10  1  0  0  0  0
  9 11  1  0  0  0  0
  9 22  1  0  0  0  0
 11 12  1  0  0  0  0
 11 13  1  0  0  0  0
 11 14  1  0  0  0  0
 14 15  1  0  0  0  0
 14 16  1  0  0  0  0
 14 17  1  0  0  0  0
 17 18  1  0  0  0  0
 18 19  1  0  0  0  0
 18 20  1  0  0  0  0
 18 21  1  0  0  0  0
 22 23  2  0  0  0  0
 22 24  1  0  0  0  0
 24 25  1  0  0  0  0
 24 26  1  0  0  0  0
 26 27  1  0  0  0  0
 26 28  1  0  0  0  0
 26 29  1  0  0  0  0
M  END
$$$$

  -OEChem-02102214153D

 29 28  0     1  0  0  0  0  0999 V2000
   -3.2772   -3.4311    1.1852 H   0  0  0  0  0  0  0  0  0  0  0  0
   -3.2424   -2.4374    0.7299 C   0  0  0  0  0  0  0  0  0  0  0  0
   -3.9154   -1.7745    1.2791 H   0  0  0  0  0  0  0  0  0  0  0  0
   -3.5812   -2.5124   -0.3061 H   0  0  0  0  0  0  0  0  0  0  0  0
   -1.8277   -1.8918    0.7735 C   0  0  0  0  0  0  0  0  0  0  0  0
   -0.9343   -2.5452    1.2886 O   0  0  0  0  0  0  0  0  0  0  0  0
   -1.5530   -0.6514    0.2384 N   0  0  0  0  0  0  0  0  0  0  0  0
   -2.3403   -0.0972   -0.0966 H   0  0  0  0  0  0  0  0  0  0  0  0
   -0.2534    0.0280    0.3320 C   0  0  1  0  0  0  0  0  0  0  0  0
    0.3608   -0.4175    1.1212 H   0  0  0  0  0  0  0  0  0  0  0  0
    0.4683   -0.1589   -1.0191 C   0  0  0  0  0  0  0  0  0  0  0  0
    0.7859   -1.2021   -1.1107 H   0  0  0  0  0  0  0  0  0  0  0  0
   -0.2521    0.0387   -1.8205 H   0  0  0  0  0  0  0  0  0  0  0  0
    1.6726    0.7709   -1.2392 C   0  0  0  0  0  0  0  0  0  0  0  0
    1.4237    1.8020   -0.9730 H   0  0  0  0  0  0  0  0  0  0  0  0
    2.5115    0.4532   -0.6122 H   0  0  0  0  0  0  0  0  0  0  0  0
    2.1665    0.7744   -3.0100 S   0  0  0  0  0  0  0  0  0  0  0  0
    2.7037   -0.9590   -3.2982 C   0  0  0  0  0  0  0  0  0  0  0  0
    1.8540   -1.6425   -3.2127 H   0  0  0  0  0  0  0  0  0  0  0  0
    3.1274   -1.0567   -4.3022 H   0  0  0  0  0  0  0  0  0  0  0  0
    3.4651   -1.2479   -2.5677 H   0  0  0  0  0  0  0  0  0  0  0  0
   -0.4886    1.5050    0.7143 C   0  0  0  0  0  0  0  0  0  0  0  0
   -1.4018    2.1333    0.1916 O   0  0  0  0  0  0  0  0  0  0  0  0
    0.2828    2.1121    1.6886 N   0  0  0  0  0  0  0  0  0  0  0  0
    0.9740    1.5409    2.1665 H   0  0  0  0  0  0  0  0  0  0  0  0
    0.0548    3.4762    2.1507 C   0  0  0  0  0  0  0  0  0  0  0  0
   -0.9342    3.5637    2.6129 H   0  0  0  0  0  0  0  0  0  0  0  0
    0.8096    3.7561    2.8920 H   0  0  0  0  0  0  0  0  0  0  0  0
    0.1163    4.1806    1.3143 H   0  0  0  0  0  0  0  0  0  0  0  0
  1  2  1  0  0  0  0
  2  3  1  0  0  0  0
  2  4  1  0  0  0  0
  2  5  1  0  0  0  0
  5  6  2  0  0  0  0
  5  7  1  0  0  0  0
  7  8  1  0  0  0  0
  7  9  1  0  0  0  0
  9 10  1  0  0  0  0
  9 11  1  0  0  0  0
  9 22  1  0  0  0  0
 11 12  1  0  0  0  0
 11 13  1  0  0  0  0
 11 14  1  0  0  0  0
 14 15  1  0  0  0  0
 14 16  1  0  0  0  0
 14 17  1  0  0  0  0
 17 18  1  0  0  0  0
 18 19  1  0  0  0  0
 18 20  1  0  0  0  0
 18 21  1  0  0  0  0
 22 23  2  0  0  0  0
 22 24  1  0  0  0  0
 24 25  1  0  0  0  0
 24 26  1  0  0  0  0
 26 27  1  0  0  0  0
 26 28  1  0  0  0  0
 26 29  1  0  0  0  0
M  END
$$$$

  -OEChem-02102214153D

 29 28  0     1  0  0  0  0  0999 V2000
   -3.2836   -3.4201    1.1534 H   0  0  0  0  0  0  0  0  0  0  0  0
   -3.2383   -2.4264    0.6989 C   0  0  0  0  0  0  0  0  0  0  0  0
   -3.9121   -1.7595    1.2423 H   0  0  0  0  0  0  0  0  0  0  0  0
   -3.5676   -2.4990   -0.3404 H   0  0  0  0  0  0  0  0  0  0  0  0
   -1.8207   -1.8893    0.7559 C   0  0  0  0  0  0  0  0  0  0  0  0
   -0.9350   -2.5498    1.2753 O   0  0  0  0  0  0  0  0  0  0  0  0
   -1.5354   -0.6486    0.2273 N   0  0  0  0  0  0  0  0  0  0  0  0
   -2.3177   -0.0880   -0.1091 H   0  0  0  0  0  0  0  0  0  0  0  0
   -0.2343    0.0259    0.3362 C   0  0  1  0  0  0  0  0  0  0  0  0
    0.3720   -0.4218    1.1305 H   0  0  0  0  0  0  0  0  0  0  0  0
    0.4963   -0.1602   -1.0112 C   0  0  0  0  0  0  0  0  0  0  0  0
    0.8026   -1.2058   -1.1166 H   0  0  0  0  0  0  0  0  0  0  0  0
   -0.2281    0.0507   -1.8056 H   0  0  0  0  0  0  0  0  0  0  0  0
    1.7121    0.7569   -1.2396 C   0  0  0  0  0  0  0  0  0  0  0  0
    1.5865    1.7213   -0.7417 H   0  0  0  0  0  0  0  0  0  0  0  0
    2.6122    0.2877   -0.8299 H   0  0  0  0  0  0  0  0  0  0  0  0
    1.9337    1.1054   -3.0312 S   0  0  0  0  0  0  0  0  0  0  0  0
    2.2368   -0.5648   -3.7342 C   0  0  0  0  0  0  0  0  0  0  0  0
    1.3536   -1.1981   -3.6111 H   0  0  0  0  0  0  0  0  0  0  0  0
    2.4617   -0.4857   -4.8018 H   0  0  0  0  0  0  0  0  0  0  0  0
    3.0848   -1.0396   -3.2321 H   0  0  0  0  0  0  0  0  0  0  0  0
   -0.4799    1.5014    0.7202 C   0  0  0  0  0  0  0  0  0  0  0  0
   -1.3937    2.1267    0.1946 O   0  0  0  0  0  0  0  0  0  0  0  0
    0.2780    2.1071    1.7059 N   0  0  0  0  0  0  0  0  0  0  0  0
    0.9720    1.5392    2.1835 H   0  0  0  0  0  0  0  0  0  0  0  0
    0.0455    3.4709    2.1657 C   0  0  0  0  0  0  0  0  0  0  0  0
   -0.9512    3.5604    2.6103 H   0  0  0  0  0  0  0  0  0  0  0  0
    0.7878    3.7479    2.9205 H   0  0  0  0  0  0  0  0  0  0  0  0
    0.1239    4.1754    1.3308 H   0  0  0  0  0  0  0  0  0  0  0  0
  1  2  1  0  0  0  0
  2  3  1  0  0  0  0
  2  4  1  0  0  0  0
  2  5  1  0  0  0  0
  5  6  2  0  0  0  0
  5  7  1  0  0  0  0
  7  8  1  0  0  0  0
  7  9  1  0  0  0  0
  9 10  1  0  0  0  0
  9 11  1  0  0  0  0
  9 22  1  0  0  0  0
 11 12  1  0  0  0  0
 11 13  1  0  0  0  0
 11 14  1  0  0  0  0
 14 15  1  0  0  0  0
 14 16  1  0  0  0  0
 14 17  1  0  0  0  0
 17 18  1  0  0  0  0
 18 19  1  0  0  0  0
 18 20  1  0  0  0  0
 18 21  1  0  0  0  0
 22 23  2  0  0  0  0
 22 24  1  0  0  0  0
 24 25  1  0  0  0  0
 24 26  1  0  0  0  0
 26 27  1  0  0  0  0
 26 28  1  0  0  0  0
 26 29  1  0  0  0  0
M  END
$$$$

  -OEChem-02102214153D

 29 28  0     1  0  0  0  0  0999 V2000
   -3.3242   -3.3921    1.2023 H   0  0  0  0  0  0  0  0  0  0  0  0
   -3.2692   -2.4101    0.7239 C   0  0  0  0  0  0  0  0  0  0  0  0
   -3.9309   -1.7219    1.2554 H   0  0  0  0  0  0  0  0  0  0  0  0
   -3.6068   -2.5026   -0.3112 H   0  0  0  0  0  0  0  0  0  0  0  0
   -1.8445   -1.8904    0.7592 C   0  0  0  0  0  0  0  0  0  0  0  0
   -0.9592   -2.5637    1.2626 O   0  0  0  0  0  0  0  0  0  0  0  0
   -1.5521   -0.6518    0.2299 N   0  0  0  0  0  0  0  0  0  0  0  0
   -2.3329   -0.0786   -0.0886 H   0  0  0  0  0  0  0  0  0  0  0  0
   -0.2442    0.0102    0.3320 C   0  0  1  0  0  0  0  0  0  0  0  0
    0.3649   -0.4433    1.1207 H   0  0  0  0  0  0  0  0  0  0  0  0
    0.4716   -0.1753   -1.0234 C   0  0  0  0  0  0  0  0  0  0  0  0
    0.7684   -1.2231   -1.1358 H   0  0  0  0  0  0  0  0  0  0  0  0
   -0.2613    0.0390   -1.8086 H   0  0  0  0  0  0  0  0  0  0  0  0
    1.6963    0.7307   -1.2617 C   0  0  0  0  0  0  0  0  0  0  0  0
    1.7331    1.5578   -0.5497 H   0  0  0  0  0  0  0  0  0  0  0  0
    2.6130    0.1481   -1.1253 H   0  0  0  0  0  0  0  0  0  0  0  0
    1.6642    1.4534   -2.9518 S   0  0  0  0  0  0  0  0  0  0  0  0
    1.8359   -0.0324   -4.0187 C   0  0  0  0  0  0  0  0  0  0  0  0
    0.9864   -0.7067   -3.8771 H   0  0  0  0  0  0  0  0  0  0  0  0
    1.8722    0.2656   -5.0708 H   0  0  0  0  0  0  0  0  0  0  0  0
    2.7572   -0.5696   -3.7749 H   0  0  0  0  0  0  0  0  0  0  0  0
   -0.4807    1.4871    0.7196 C   0  0  0  0  0  0  0  0  0  0  0  0
   -1.4052    2.1129    0.2132 O   0  0  0  0  0  0  0  0  0  0  0  0
    0.2848    2.0878    1.7028 N   0  0  0  0  0  0  0  0  0  0  0  0
    0.9916    1.5217    2.1635 H   0  0  0  0  0  0  0  0  0  0  0  0
    0.0683    3.4554    2.1591 C   0  0  0  0  0  0  0  0  0  0  0  0
   -0.9383    3.5661    2.5762 H   0  0  0  0  0  0  0  0  0  0  0  0
    0.7943    3.7152    2.9356 H   0  0  0  0  0  0  0  0  0  0  0  0
    0.1851    4.1588    1.3278 H   0  0  0  0  0  0  0  0  0  0  0  0
  1  2  1  0  0  0  0
  2  3  1  0  0  0  0
  2  4  1  0  0  0  0
  2  5  1  0  0  0  0
  5  6  2  0  0  0  0
  5  7  1  0  0  0  0
  7  8  1  0  0  0  0
  7  9  1  0  0  0  0
  9 10  1  0  0  0  0
  9 11  1  0  0  0  0
  9 22  1  0  0  0  0
 11 12  1  0  0  0  0
 11 13  1  0  0  0  0
 11 14  1  0  0  0  0
 14 15  1  0  0  0  0
 14 16  1  0  0  0  0
 14 17  1  0  0  0  0
 17 18  1  0  0  0  0
 18 19  1  0  0  0  0
 18 20  1  0  0  0  0
 18 21  1  0  0  0  0
 22 23  2  0  0  0  0
 22 24  1  0  0  0  0
 24 25  1  0  0  0  0
 24 26  1  0  0  0  0
 26 27  1  0  0  0  0
 26 28  1  0  0  0  0
 26 29  1  0  0  0  0
M  END
$$$$

  -OEChem-02102214153D

 29 28  0     1  0  0  0  0  0999 V2000
   -3.3620   -3.3801    1.2709 H   0  0  0  0  0  0  0  0  0  0  0  0
   -3.3018   -2.4075    0.7747 C   0  0  0  0  0  0  0  0  0  0  0  0
   -3.9500   -1.7028    1.3011 H   0  0  0  0  0  0  0  0  0  0  0  0
   -3.6513   -2.5148   -0.2549 H   0  0  0  0  0  0  0  0  0  0  0  0
   -1.8714   -1.9026    0.7860 C   0  0  0  0  0  0  0  0  0  0  0  0
   -0.9857   -2.5819    1.2806 O   0  0  0  0  0  0  0  0  0  0  0  0
   -1.5740   -0.6704    0.2444 N   0  0  0  0  0  0  0  0  0  0  0  0
   -2.3547   -0.0888   -0.0589 H   0  0  0  0  0  0  0  0  0  0  0  0
   -0.2598   -0.0178    0.3292 C   0  0  1  0  0  0  0  0  0  0  0  0
    0.3567   -0.4725    1.1115 H   0  0  0  0  0  0  0  0  0  0  0  0
    0.4379   -0.2009   -1.0346 C   0  0  0  0  0  0  0  0  0  0  0  0
    0.7420   -1.2480   -1.1343 H   0  0  0  0  0  0  0  0  0  0  0  0
   -0.2977   -0.0023   -1.8209 H   0  0  0  0  0  0  0  0  0  0  0  0
    1.6635    0.7052   -1.2692 C   0  0  0  0  0  0  0  0  0  0  0  0
    1.8783    1.3276   -0.3973 H   0  0  0  0  0  0  0  0  0  0  0  0
    2.5455    0.0776   -1.4332 H   0  0  0  0  0  0  0  0  0  0  0  0
    1.4292    1.7913   -2.7342 S   0  0  0  0  0  0  0  0  0  0  0  0
    1.4376    0.5963   -4.1300 C   0  0  0  0  0  0  0  0  0  0  0  0
    0.6081   -0.1102   -4.0361 H   0  0  0  0  0  0  0  0  0  0  0  0
    1.3334    1.1301   -5.0791 H   0  0  0  0  0  0  0  0  0  0  0  0
    2.3775    0.0369   -4.1448 H   0  0  0  0  0  0  0  0  0  0  0  0
   -0.4828    1.4643    0.7075 C   0  0  0  0  0  0  0  0  0  0  0  0
   -1.4180    2.0867    0.2159 O   0  0  0  0  0  0  0  0  0  0  0  0
    0.2949    2.0688    1.6787 N   0  0  0  0  0  0  0  0  0  0  0  0
    1.0129    1.5075    2.1273 H   0  0  0  0  0  0  0  0  0  0  0  0
    0.0960    3.4444    2.1182 C   0  0  0  0  0  0  0  0  0  0  0  0
   -0.9097    3.5741    2.5317 H   0  0  0  0  0  0  0  0  0  0  0  0
    0.8238    3.7034    2.8931 H   0  0  0  0  0  0  0  0  0  0  0  0
    0.2240    4.1359    1.2787 H   0  0  0  0  0  0  0  0  0  0  0  0
  1  2  1  0  0  0  0
  2  3  1  0  0  0  0
  2  4  1  0  0  0  0
  2  5  1  0  0  0  0
  5  6  2  0  0  0  0
  5  7  1  0  0  0  0
  7  8  1  0  0  0  0
  7  9  1  0  0  0  0
  9 10  1  0  0  0  0
  9 11  1  0  0  0  0
  9 22  1  0  0  0  0
 11 12  1  0  0  0  0
 11 13  1  0  0  0  0
 11 14  1  0  0  0  0
 14 15  1  0  0  0  0
 14 16  1  0  0  0  0
 14 17  1  0  0  0  0
 17 18  1  0  0  0  0
 18 19  1  0  0  0  0
 18 20  1  0  0  0  0
 18 21  1  0  0  0  0
 22 23  2  0  0  0  0
 22 24  1  0  0  0  0
 24 25  1  0  0  0  0
 24 26  1  0  0  0  0
 26 27  1  0  0  0  0
 26 28  1  0  0  0  0
 26 29  1  0  0  0  0
M  END
$$$$

  -OEChem-02102214153D

 29 28  0     1  0  0  0  0  0999 V2000
   -3.3723   -3.3896    1.3364 H   0  0  0  0  0  0  0  0  0  0  0  0
   -3.3180   -2.4238    0.8262 C   0  0  0  0  0  0  0  0  0  0  0  0
   -3.9593   -1.7120    1.3515 H   0  0  0  0  0  0  0  0  0  0  0  0
   -3.6810   -2.5447   -0.1974 H   0  0  0  0  0  0  0  0  0  0  0  0
   -1.8869   -1.9202    0.8117 C   0  0  0  0  0  0  0  0  0  0  0  0
   -0.9936   -2.5993    1.2929 O   0  0  0  0  0  0  0  0  0  0  0  0
   -1.5961   -0.6921    0.2579 N   0  0  0  0  0  0  0  0  0  0  0  0
   -2.3808   -0.1069   -0.0282 H   0  0  0  0  0  0  0  0  0  0  0  0
   -0.2803   -0.0409    0.3218 C   0  0  1  0  0  0  0  0  0  0  0  0
    0.3442   -0.4919    1.1002 H   0  0  0  0  0  0  0  0  0  0  0  0
    0.4044   -0.2241   -1.0471 C   0  0  0  0  0  0  0  0  0  0  0  0
    0.7242   -1.2680   -1.1297 H   0  0  0  0  0  0  0  0  0  0  0  0
   -0.3293   -0.0467   -1.8393 H   0  0  0  0  0  0  0  0  0  0  0  0
    1.6226    0.6906   -1.2722 C   0  0  0  0  0  0  0  0  0  0  0  0
    2.0001    1.0835   -0.3239 H   0  0  0  0  0  0  0  0  0  0  0  0
    2.4312    0.0994   -1.7136 H   0  0  0  0  0  0  0  0  0  0  0  0
    1.2394    2.0782   -2.4168 S   0  0  0  0  0  0  0  0  0  0  0  0
    1.0534    1.2448   -4.0439 C   0  0  0  0  0  0  0  0  0  0  0  0
    0.2143    0.5439   -4.0247 H   0  0  0  0  0  0  0  0  0  0  0  0
    0.8657    1.9888   -4.8237 H   0  0  0  0  0  0  0  0  0  0  0  0
    1.9656    0.6964   -4.2959 H   0  0  0  0  0  0  0  0  0  0  0  0
   -0.4937    1.4446    0.6931 C   0  0  0  0  0  0  0  0  0  0  0  0
   -1.4498    2.0580    0.2300 O   0  0  0  0  0  0  0  0  0  0  0  0
    0.2990    2.0529    1.6497 N   0  0  0  0  0  0  0  0  0  0  0  0
    1.0458    1.5043    2.0654 H   0  0  0  0  0  0  0  0  0  0  0  0
    0.1208    3.4372    2.0698 C   0  0  0  0  0  0  0  0  0  0  0  0
   -0.8803    3.5853    2.4885 H   0  0  0  0  0  0  0  0  0  0  0  0
    0.8578    3.6985    2.8353 H   0  0  0  0  0  0  0  0  0  0  0  0
    0.2508    4.1141    1.2187 H   0  0  0  0  0  0  0  0  0  0  0  0
  1  2  1  0  0  0  0
  2  3  1  0  0  0  0
  2  4  1  0  0  0  0
  2  5  1  0  0  0  0
  5  6  2  0  0  0  0
  5  7  1  0  0  0  0
  7  8  1  0  0  0  0
  7  9  1  0  0  0  0
  9 10  1  0  0  0  0
  9 11  1  0  0  0  0
  9 22  1  0  0  0  0
 11 12  1  0  0  0  0
 11 13  1  0  0  0  0
 11 14  1  0  0  0  0
 14 15  1  0  0  0  0
 14 16  1  0  0  0  0
 14 17  1  0  0  0  0
 17 18  1  0  0  0  0
 18 19  1  0  0  0  0
 18 20  1  0  0  0  0
 18 21  1  0  0  0  0
 22 23  2  0  0  0  0
 22 24  1  0  0  0  0
 24 25  1  0  0  0  0
 24 26  1  0  0  0  0
 26 27  1  0  0  0  0
 26 28  1  0  0  0  0
 26 29  1  0  0  0  0
M  END
$$$$

  -OEChem-02102214153D

 29 28  0     1  0  0  0  0  0999 V2000
   -3.3598   -3.4000    1.3552 H   0  0  0  0  0  0  0  0  0  0  0  0
   -3.3131   -2.4354    0.8421 C   0  0  0  0  0  0  0  0  0  0  0  0
   -3.9459   -1.7221    1.3756 H   0  0  0  0  0  0  0  0  0  0  0  0
   -3.6922   -2.5584   -0.1752 H   0  0  0  0  0  0  0  0  0  0  0  0
   -1.8823   -1.9325    0.8035 C   0  0  0  0  0  0  0  0  0  0  0  0
   -0.9804   -2.6154    1.2629 O   0  0  0  0  0  0  0  0  0  0  0  0
   -1.6020   -0.7010    0.2517 N   0  0  0  0  0  0  0  0  0  0  0  0
   -2.3933   -0.1105   -0.0042 H   0  0  0  0  0  0  0  0  0  0  0  0
   -0.2886   -0.0444    0.3105 C   0  0  1  0  0  0  0  0  0  0  0  0
    0.3353   -0.4921    1.0912 H   0  0  0  0  0  0  0  0  0  0  0  0
    0.4044   -0.2340   -1.0541 C   0  0  0  0  0  0  0  0  0  0  0  0
    0.7339   -1.2760   -1.1194 H   0  0  0  0  0  0  0  0  0  0  0  0
   -0.3216   -0.0737   -1.8561 H   0  0  0  0  0  0  0  0  0  0  0  0
    1.6183    0.6836   -1.2812 C   0  0  0  0  0  0  0  0  0  0  0  0
    2.1382    0.8622   -0.3350 H   0  0  0  0  0  0  0  0  0  0  0  0
    2.3236    0.1725   -1.9444 H   0  0  0  0  0  0  0  0  0  0  0  0
    1.1748    2.2895   -2.0628 S   0  0  0  0  0  0  0  0  0  0  0  0
    0.6672    1.8251   -3.7664 C   0  0  0  0  0  0  0  0  0  0  0  0
   -0.2464    1.2248   -3.7467 H   0  0  0  0  0  0  0  0  0  0  0  0
    0.4747    2.7266   -4.3557 H   0  0  0  0  0  0  0  0  0  0  0  0
    1.4589    1.2500   -4.2552 H   0  0  0  0  0  0  0  0  0  0  0  0
   -0.5068    1.4387    0.6881 C   0  0  0  0  0  0  0  0  0  0  0  0
   -1.4879    2.0375    0.2576 O   0  0  0  0  0  0  0  0  0  0  0  0
    0.2887    2.0475    1.6418 N   0  0  0  0  0  0  0  0  0  0  0  0
    1.0757    1.5204    2.0073 H   0  0  0  0  0  0  0  0  0  0  0  0
    0.1148    3.4344    2.0551 C   0  0  0  0  0  0  0  0  0  0  0  0
   -0.8861    3.5884    2.4720 H   0  0  0  0  0  0  0  0  0  0  0  0
    0.8514    3.6965    2.8207 H   0  0  0  0  0  0  0  0  0  0  0  0
    0.2484    4.1068    1.2009 H   0  0  0  0  0  0  0  0  0  0  0  0
  1  2  1  0  0  0  0
  2  3  1  0  0  0  0
  2  4  1  0  0  0  0
  2  5  1  0  0  0  0
  5  6  2  0  0  0  0
  5  7  1  0  0  0  0
  7  8  1  0  0  0  0
  7  9  1  0  0  0  0
  9 10  1  0  0  0  0
  9 11  1  0  0  0  0
  9 22  1  0  0  0  0
 11 12  1  0  0  0  0
 11 13  1  0  0  0  0
 11 14  1  0  0  0  0
 14 15  1  0  0  0  0
 14 16  1  0  0  0  0
 14 17  1  0  0  0  0
 17 18  1  0  0  0  0
 18 19  1  0  0  0  0
 18 20  1  0  0  0  0
 18 21  1  0  0  0  0
 22 23  2  0  0  0  0
 22 24  1  0  0  0  0
 24 25  1  0  0  0  0
 24 26  1  0  0  0  0
 26 27  1  0  0  0  0
 26 28  1  0  0  0  0
 26 29  1  0  0  0  0
M  END
$$$$

  -OEChem-02102214153D

 29 28  0     1  0  0  0  0  0999 V2000
   -3.3609   -3.3845    1.1670 H   0  0  0  0  0  0  0  0  0  0  0  0
   -3.3013   -2.3839    0.7302 C   0  0  0  0  0  0  0  0  0  0  0  0
   -3.9244   -1.7049    1.3173 H   0  0  0  0  0  0  0  0  0  0  0  0
   -3.6817   -2.4231   -0.2933 H   0  0  0  0  0  0  0  0  0  0  0  0
   -1.8642   -1.8984    0.7299 C   0  0  0  0  0  0  0  0  0  0  0  0
   -0.9849   -2.5849    1.2260 O   0  0  0  0  0  0  0  0  0  0  0  0
   -1.5537   -0.6774    0.1711 N   0  0  0  0  0  0  0  0  0  0  0  0
   -2.3314   -0.0824   -0.1140 H   0  0  0  0  0  0  0  0  0  0  0  0
   -0.2398   -0.0273    0.2764 C   0  0  1  0  0  0  0  0  0  0  0  0
    0.3426   -0.4588    1.0971 H   0  0  0  0  0  0  0  0  0  0  0  0
    0.5155   -0.2740   -1.0475 C   0  0  0  0  0  0  0  0  0  0  0  0
    0.8316   -1.3224   -1.0546 H   0  0  0  0  0  0  0  0  0  0  0  0
   -0.1742   -0.1466   -1.8860 H   0  0  0  0  0  0  0  0  0  0  0  0
    1.7571    0.6061   -1.2885 C   0  0  0  0  0  0  0  0  0  0  0  0
    2.3891    0.5939   -0.3951 H   0  0  0  0  0  0  0  0  0  0  0  0
    2.3356    0.1519   -2.0993 H   0  0  0  0  0  0  0  0  0  0  0  0
    1.4255    2.3563   -1.7646 S   0  0  0  0  0  0  0  0  0  0  0  0
    0.1418    2.2733   -3.0762 C   0  0  0  0  0  0  0  0  0  0  0  0
   -0.8134    1.9443   -2.6562 H   0  0  0  0  0  0  0  0  0  0  0  0
   -0.0013    3.2627   -3.5203 H   0  0  0  0  0  0  0  0  0  0  0  0
    0.4450    1.5762   -3.8626 H   0  0  0  0  0  0  0  0  0  0  0  0
   -0.4750    1.4603    0.6206 C   0  0  0  0  0  0  0  0  0  0  0  0
   -1.4446    2.0465    0.1462 O   0  0  0  0  0  0  0  0  0  0  0  0
    0.2774    2.0832    1.5995 N   0  0  0  0  0  0  0  0  0  0  0  0
    1.0682    1.5738    1.9817 H   0  0  0  0  0  0  0  0  0  0  0  0
    0.0735    3.4703    1.9969 C   0  0  0  0  0  0  0  0  0  0  0  0
   -0.9303    3.6057    2.4132 H   0  0  0  0  0  0  0  0  0  0  0  0
    0.8048    3.7568    2.7587 H   0  0  0  0  0  0  0  0  0  0  0  0
    0.1916    4.1368    1.1357 H   0  0  0  0  0  0  0  0  0  0  0  0
  1  2  1  0  0  0  0
  2  3  1  0  0  0  0
  2  4  1  0  0  0  0
  2  5  1  0  0  0  0
  5  6  2  0  0  0  0
  5  7  1  0  0  0  0
  7  8  1  0  0  0  0
  7  9  1  0  0  0  0
  9 10  1  0  0  0  0
  9 11  1  0  0  0  0
  9 22  1  0  0  0  0
 11 12  1  0  0  0  0
 11 13  1  0  0  0  0
 11 14  1  0  0  0  0
 14 15  1  0  0  0  0
 14 16  1  0  0  0  0
 14 17  1  0  0  0  0
 17 18  1  0  0  0  0
 18 19  1  0  0  0  0
 18 20  1  0  0  0  0
 18 21  1  0  0  0  0
 22 23  2  0  0  0  0
 22 24  1  0  0  0  0
 24 25  1  0  0  0  0
 24 26  1  0  0  0  0
 26 27  1  0  0  0  0
 26 28  1  0  0  0  0
 26 29  1  0  0  0  0
M  END
$$$$

  -OEChem-02102214153D

 29 28  0     1  0  0  0  0  0999 V2000
   -3.3284   -3.3938    1.2752 H   0  0  0  0  0  0  0  0  0  0  0  0
   -3.2871   -2.4217    0.7759 C   0  0  0  0  0  0  0  0  0  0  0  0
   -3.9234   -1.7194    1.3199 H   0  0  0  0  0  0  0  0  0  0  0  0
   -3.6655   -2.5320   -0.2431 H   0  0  0  0  0  0  0  0  0  0  0  0
   -1.8589   -1.9112    0.7444 C   0  0  0  0  0  0  0  0  0  0  0  0
   -0.9516   -2.6039    1.1775 O   0  0  0  0  0  0  0  0  0  0  0  0
   -1.5863   -0.6648    0.2226 N   0  0  0  0  0  0  0  0  0  0  0  0
   -2.3825   -0.0697   -0.0060 H   0  0  0  0  0  0  0  0  0  0  0  0
   -0.2773    0.0006    0.3054 C   0  0  1  0  0  0  0  0  0  0  0  0
    0.3350   -0.4466    1.0956 H   0  0  0  0  0  0  0  0  0  0  0  0
    0.4378   -0.2269   -1.0491 C   0  0  0  0  0  0  0  0  0  0  0  0
    0.7346   -1.2800   -1.0958 H   0  0  0  0  0  0  0  0  0  0  0  0
   -0.2919   -0.0667   -1.8488 H   0  0  0  0  0  0  0  0  0  0  0  0
    1.6731    0.6359   -1.3832 C   0  0  0  0  0  0  0  0  0  0  0  0
    2.4485    0.4286   -0.6390 H   0  0  0  0  0  0  0  0  0  0  0  0
    2.0616    0.3095   -2.3533 H   0  0  0  0  0  0  0  0  0  0  0  0
    1.4319    2.4600   -1.4582 S   0  0  0  0  0  0  0  0  0  0  0  0
    0.0914    2.6671   -2.6975 C   0  0  0  0  0  0  0  0  0  0  0  0
   -0.8387    2.2191   -2.3363 H   0  0  0  0  0  0  0  0  0  0  0  0
   -0.0868    3.7309   -2.8794 H   0  0  0  0  0  0  0  0  0  0  0  0
    0.3695    2.1910   -3.6421 H   0  0  0  0  0  0  0  0  0  0  0  0
   -0.5304    1.4684    0.7162 C   0  0  0  0  0  0  0  0  0  0  0  0
   -1.5279    2.0524    0.2995 O   0  0  0  0  0  0  0  0  0  0  0  0
    0.2437    2.0685    1.6929 N   0  0  0  0  0  0  0  0  0  0  0  0
    1.0833    1.5787    1.9867 H   0  0  0  0  0  0  0  0  0  0  0  0
    0.0586    3.4524    2.1107 C   0  0  0  0  0  0  0  0  0  0  0  0
   -0.9529    3.6040    2.5017 H   0  0  0  0  0  0  0  0  0  0  0  0
    0.7736    3.7084    2.8985 H   0  0  0  0  0  0  0  0  0  0  0  0
    0.2158    4.1305    1.2653 H   0  0  0  0  0  0  0  0  0  0  0  0
  1  2  1  0  0  0  0
  2  3  1  0  0  0  0
  2  4  1  0  0  0  0
  2  5  1  0  0  0  0
  5  6  2  0  0  0  0
  5  7  1  0  0  0  0
  7  8  1  0  0  0  0
  7  9  1  0  0  0  0
  9 10  1  0  0  0  0
  9 11  1  0  0  0  0
  9 22  1  0  0  0  0
 11 12  1  0  0  0  0
 11 13  1  0  0  0  0
 11 14  1  0  0  0  0
 14 15  1  0  0  0  0
 14 16  1  0  0  0  0
 14 17  1  0  0  0  0
 17 18  1  0  0  0  0
 18 19  1  0  0  0  0
 18 20  1  0  0  0  0
 18 21  1  0  0  0  0
 22 23  2  0  0  0  0
 22 24  1  0  0  0  0
 24 25  1  0  0  0  0
 24 26  1  0  0  0  0
 26 27  1  0  0  0  0
 26 28  1  0  0  0  0
 26 29  1  0  0  0  0
M  END
$$$$

  -OEChem-02102214153D

 29 28  0     1  0  0  0  0  0999 V2000
   -3.2769   -3.4522    1.3297 H   0  0  0  0  0  0  0  0  0  0  0  0
   -3.2630   -2.4739    0.8411 C   0  0  0  0  0  0  0  0  0  0  0  0
   -3.8949   -1.7879    1.4103 H   0  0  0  0  0  0  0  0  0  0  0  0
   -3.6665   -2.5780   -0.1689 H   0  0  0  0  0  0  0  0  0  0  0  0
   -1.8443   -1.9411    0.7787 C   0  0  0  0  0  0  0  0  0  0  0  0
   -0.9142   -2.6322    1.1628 O   0  0  0  0  0  0  0  0  0  0  0  0
   -1.6068   -0.6755    0.2869 N   0  0  0  0  0  0  0  0  0  0  0  0
   -2.4185   -0.0863    0.1016 H   0  0  0  0  0  0  0  0  0  0  0  0
   -0.3052    0.0072    0.3497 C   0  0  1  0  0  0  0  0  0  0  0  0
    0.3407   -0.4497    1.1066 H   0  0  0  0  0  0  0  0  0  0  0  0
    0.3567   -0.1909   -1.0400 C   0  0  0  0  0  0  0  0  0  0  0  0
    0.6331   -1.2465   -1.1330 H   0  0  0  0  0  0  0  0  0  0  0  0
   -0.4182    0.0028   -1.7891 H   0  0  0  0  0  0  0  0  0  0  0  0
    1.5748    0.6607   -1.4661 C   0  0  0  0  0  0  0  0  0  0  0  0
    2.4479    0.2694   -0.9342 H   0  0  0  0  0  0  0  0  0  0  0  0
    1.7517    0.4981   -2.5341 H   0  0  0  0  0  0  0  0  0  0  0  0
    1.5310    2.4728   -1.1579 S   0  0  0  0  0  0  0  0  0  0  0  0
    0.2025    3.0285   -2.2992 C   0  0  0  0  0  0  0  0  0  0  0  0
   -0.7418    2.5296   -2.0635 H   0  0  0  0  0  0  0  0  0  0  0  0
    0.0566    4.1086   -2.2054 H   0  0  0  0  0  0  0  0  0  0  0  0
    0.4717    2.7999   -3.3343 H   0  0  0  0  0  0  0  0  0  0  0  0
   -0.5849    1.4548    0.8141 C   0  0  0  0  0  0  0  0  0  0  0  0
   -1.6019    2.0305    0.4336 O   0  0  0  0  0  0  0  0  0  0  0  0
    0.1993    2.0456    1.7888 N   0  0  0  0  0  0  0  0  0  0  0  0
    1.0711    1.5803    2.0236 H   0  0  0  0  0  0  0  0  0  0  0  0
   -0.0052    3.4141    2.2468 C   0  0  0  0  0  0  0  0  0  0  0  0
   -1.0137    3.5356    2.6558 H   0  0  0  0  0  0  0  0  0  0  0  0
    0.7160    3.6618    3.0316 H   0  0  0  0  0  0  0  0  0  0  0  0
    0.1276    4.1181    1.4184 H   0  0  0  0  0  0  0  0  0  0  0  0
  1  2  1  0  0  0  0
  2  3  1  0  0  0  0
  2  4  1  0  0  0  0
  2  5  1  0  0  0  0
  5  6  2  0  0  0  0
  5  7  1  0  0  0  0
  7  8  1  0  0  0  0
  7  9  1  0  0  0  0
  9 10  1  0  0  0  0
  9 11  1  0  0  0  0
  9 22  1  0  0  0  0
 11 12  1  0  0  0  0
 11 13  1  0  0  0  0
 11 14  1  0  0  0  0
 14 15  1  0  0  0  0
 14 16  1  0  0  0  0
 14 17  1  0  0  0  0
 17 18  1  0  0  0  0
 18 19  1  0  0  0  0
 18 20  1  0  0  0  0
 18 21  1  0  0  0  0
 22 23  2  0  0  0  0
 22 24  1  0  0  0  0
 24 25  1  0  0  0  0
 24 26  1  0  0  0  0
 26 27  1  0  0  0  0
 26 28  1  0  0  0  0
 26 29  1  0  0  0  0
M  END
$$$$

  -OEChem-02102214153D

 29 28  0     1  0  0  0  0  0999 V2000
   -3.2344   -3.5260    1.3686 H   0  0  0  0  0  0  0  0  0  0  0  0
   -3.2406   -2.5443    0.8867 C   0  0  0  0  0  0  0  0  0  0  0  0
   -3.8793   -1.8727    1.4655 H   0  0  0  0  0  0  0  0  0  0  0  0
   -3.6506   -2.6479   -0.1207 H   0  0  0  0  0  0  0  0  0  0  0  0
   -1.8309   -1.9890    0.8156 C   0  0  0  0  0  0  0  0  0  0  0  0
   -0.8846   -2.6741    1.1695 O   0  0  0  0  0  0  0  0  0  0  0  0
   -1.6201   -0.7101    0.3466 N   0  0  0  0  0  0  0  0  0  0  0  0
   -2.4430   -0.1291    0.1856 H   0  0  0  0  0  0  0  0  0  0  0  0
   -0.3266   -0.0102    0.3982 C   0  0  1  0  0  0  0  0  0  0  0  0
    0.3501   -0.4714    1.1252 H   0  0  0  0  0  0  0  0  0  0  0  0
    0.2829   -0.1680   -1.0222 C   0  0  0  0  0  0  0  0  0  0  0  0
    0.5455   -1.2223   -1.1599 H   0  0  0  0  0  0  0  0  0  0  0  0
   -0.5280    0.0511   -1.7251 H   0  0  0  0  0  0  0  0  0  0  0  0
    1.4773    0.6875   -1.5106 C   0  0  0  0  0  0  0  0  0  0  0  0
    2.3860    0.1407   -1.2393 H   0  0  0  0  0  0  0  0  0  0  0  0
    1.4506    0.7331   -2.6042 H   0  0  0  0  0  0  0  0  0  0  0  0
    1.6960    2.3906   -0.8581 S   0  0  0  0  0  0  0  0  0  0  0  0
    0.4487    3.3241   -1.8323 C   0  0  0  0  0  0  0  0  0  0  0  0
   -0.5437    2.8800   -1.7143 H   0  0  0  0  0  0  0  0  0  0  0  0
    0.4077    4.3625   -1.4912 H   0  0  0  0  0  0  0  0  0  0  0  0
    0.7120    3.3137   -2.8940 H   0  0  0  0  0  0  0  0  0  0  0  0
   -0.6379    1.4195    0.9007 C   0  0  0  0  0  0  0  0  0  0  0  0
   -1.6649    1.9852    0.5317 O   0  0  0  0  0  0  0  0  0  0  0  0
    0.1424    2.0126    1.8771 N   0  0  0  0  0  0  0  0  0  0  0  0
    1.0352    1.5720    2.0790 H   0  0  0  0  0  0  0  0  0  0  0  0
   -0.0880    3.3681    2.3604 C   0  0  0  0  0  0  0  0  0  0  0  0
   -1.0988    3.4638    2.7706 H   0  0  0  0  0  0  0  0  0  0  0  0
    0.6278    3.6135    3.1507 H   0  0  0  0  0  0  0  0  0  0  0  0
    0.0321    4.0896    1.5456 H   0  0  0  0  0  0  0  0  0  0  0  0
  1  2  1  0  0  0  0
  2  3  1  0  0  0  0
  2  4  1  0  0  0  0
  2  5  1  0  0  0  0
  5  6  2  0  0  0  0
  5  7  1  0  0  0  0
  7  8  1  0  0  0  0
  7  9  1  0  0  0  0
  9 10  1  0  0  0  0
  9 11  1  0  0  0  0
  9 22  1  0  0  0  0
 11 12  1  0  0  0  0
 11 13  1  0  0  0  0
 11 14  1  0  0  0  0
 14 15  1  0  0  0  0
 14 16  1  0  0  0  0
 14 17  1  0  0  0  0
 17 18  1  0  0  0  0
 18 19  1  0  0  0  0
 18 20  1  0  0  0  0
 18 21  1  0  0  0  0
 22 23  2  0  0  0  0
 22 24  1  0  0  0  0
 24 25  1  0  0  0  0
 24 26  1  0  0  0  0
 26 27  1  0  0  0  0
 26 28  1  0  0  0  0
 26 29  1  0  0  0  0
M  END
$$$$

  -OEChem-02102214153D

 29 28  0     1  0  0  0  0  0999 V2000
   -3.3310   -3.5417    1.3319 H   0  0  0  0  0  0  0  0  0  0  0  0
   -3.3249   -2.5280    0.9217 C   0  0  0  0  0  0  0  0  0  0  0  0
   -3.9353   -1.8856    1.5611 H   0  0  0  0  0  0  0  0  0  0  0  0
   -3.7586   -2.5505   -0.0809 H   0  0  0  0  0  0  0  0  0  0  0  0
   -1.9051   -1.9981    0.8592 C   0  0  0  0  0  0  0  0  0  0  0  0
   -0.9741   -2.6932    1.2336 O   0  0  0  0  0  0  0  0  0  0  0  0
   -1.6698   -0.7260    0.3844 N   0  0  0  0  0  0  0  0  0  0  0  0
   -2.4819   -0.1362    0.2026 H   0  0  0  0  0  0  0  0  0  0  0  0
   -0.3679   -0.0431    0.4517 C   0  0  1  0  0  0  0  0  0  0  0  0
    0.3032   -0.5074    1.1818 H   0  0  0  0  0  0  0  0  0  0  0  0
    0.2333   -0.1986   -0.9725 C   0  0  0  0  0  0  0  0  0  0  0  0
    0.4803   -1.2563   -1.1133 H   0  0  0  0  0  0  0  0  0  0  0  0
   -0.5780    0.0302   -1.6726 H   0  0  0  0  0  0  0  0  0  0  0  0
    1.4399    0.6371   -1.4689 C   0  0  0  0  0  0  0  0  0  0  0  0
    2.3075   -0.0307   -1.4616 H   0  0  0  0  0  0  0  0  0  0  0  0
    1.2685    0.9155   -2.5136 H   0  0  0  0  0  0  0  0  0  0  0  0
    1.9479    2.1359   -0.5371 S   0  0  0  0  0  0  0  0  0  0  0  0
    0.9390    3.4385   -1.3508 C   0  0  0  0  0  0  0  0  0  0  0  0
    1.2402    3.5535   -2.3961 H   0  0  0  0  0  0  0  0  0  0  0  0
    1.0786    4.3951   -0.8391 H   0  0  0  0  0  0  0  0  0  0  0  0
   -0.1229    3.1781   -1.3196 H   0  0  0  0  0  0  0  0  0  0  0  0
   -0.6896    1.3905    0.9402 C   0  0  0  0  0  0  0  0  0  0  0  0
   -1.6950    1.9646    0.5270 O   0  0  0  0  0  0  0  0  0  0  0  0
    0.0655    1.9945    1.9292 N   0  0  0  0  0  0  0  0  0  0  0  0
    0.9549    1.5577    2.1555 H   0  0  0  0  0  0  0  0  0  0  0  0
   -0.1912    3.3450    2.4136 C   0  0  0  0  0  0  0  0  0  0  0  0
   -1.2018    3.4175    2.8295 H   0  0  0  0  0  0  0  0  0  0  0  0
    0.5235    3.6069    3.1997 H   0  0  0  0  0  0  0  0  0  0  0  0
   -0.0921    4.0695    1.5987 H   0  0  0  0  0  0  0  0  0  0  0  0
  1  2  1  0  0  0  0
  2  3  1  0  0  0  0
  2  4  1  0  0  0  0
  2  5  1  0  0  0  0
  5  6  2  0  0  0  0
  5  7  1  0  0  0  0
  7  8  1  0  0  0  0
  7  9  1  0  0  0  0
  9 10  1  0  0  0  0
  9 11  1  0  0  0  0
  9 22  1  0  0  0  0
 11 12  1  0  0  0  0
 11 13  1  0  0  0  0
 11 14  1  0  0  0  0
 14 15  1  0  0  0  0
 14 16  1  0  0  0  0
 14 17  1  0  0  0  0
 17 18  1  0  0  0  0
 18 19  1  0  0  0  0
 18 20  1  0  0  0  0
 18 21  1  0  0  0  0
 22 23  2  0  0  0  0
 22 24  1  0  0  0  0
 24 25  1  0  0  0  0
 24 26  1  0  0  0  0
 26 27  1  0  0  0  0
 26 28  1  0  0  0  0
 26 29  1  0  0  0  0
M  END
$$$$

  -OEChem-02102214153D

 29 28  0     1  0  0  0  0  0999 V2000
   -3.1696   -3.6579    1.6075 H   0  0  0  0  0  0  0  0  0  0  0  0
   -3.2162   -2.6513    1.1825 C   0  0  0  0  0  0  0  0  0  0  0  0
   -3.8488   -2.0284    1.8194 H   0  0  0  0  0  0  0  0  0  0  0  0
   -3.6592   -2.7100    0.1854 H   0  0  0  0  0  0  0  0  0  0  0  0
   -1.8236   -2.0563    1.0949 C   0  0  0  0  0  0  0  0  0  0  0  0
   -0.8627   -2.6835    1.5107 O   0  0  0  0  0  0  0  0  0  0  0  0
   -1.6464   -0.8066    0.5412 N   0  0  0  0  0  0  0  0  0  0  0  0
   -2.4838   -0.2683    0.3195 H   0  0  0  0  0  0  0  0  0  0  0  0
   -0.3727   -0.0688    0.5440 C   0  0  1  0  0  0  0  0  0  0  0  0
    0.3393   -0.4646    1.2759 H   0  0  0  0  0  0  0  0  0  0  0  0
    0.1837   -0.2593   -0.8923 C   0  0  0  0  0  0  0  0  0  0  0  0
    0.4879   -1.3079   -0.9799 H   0  0  0  0  0  0  0  0  0  0  0  0
   -0.6540   -0.1171   -1.5841 H   0  0  0  0  0  0  0  0  0  0  0  0
    1.3378    0.6077   -1.4513 C   0  0  0  0  0  0  0  0  0  0  0  0
    2.1500   -0.0699   -1.7335 H   0  0  0  0  0  0  0  0  0  0  0  0
    0.9950    1.0859   -2.3745 H   0  0  0  0  0  0  0  0  0  0  0  0
    2.0695    1.9001   -0.3698 S   0  0  0  0  0  0  0  0  0  0  0  0
    1.3210    3.4270   -1.0663 C   0  0  0  0  0  0  0  0  0  0  0  0
    1.6391    4.2988   -0.4873 H   0  0  0  0  0  0  0  0  0  0  0  0
    0.2288    3.3656   -1.0348 H   0  0  0  0  0  0  0  0  0  0  0  0
    1.6349    3.5639   -2.1052 H   0  0  0  0  0  0  0  0  0  0  0  0
   -0.7479    1.3783    0.9518 C   0  0  0  0  0  0  0  0  0  0  0  0
   -1.7646    1.8959    0.4953 O   0  0  0  0  0  0  0  0  0  0  0  0
   -0.0093    2.0776    1.8892 N   0  0  0  0  0  0  0  0  0  0  0  0
    0.8947    1.6862    2.1414 H   0  0  0  0  0  0  0  0  0  0  0  0
   -0.3192    3.4414    2.2993 C   0  0  0  0  0  0  0  0  0  0  0  0
   -1.3066    3.4845    2.7706 H   0  0  0  0  0  0  0  0  0  0  0  0
   -0.3114    4.1145    1.4360 H   0  0  0  0  0  0  0  0  0  0  0  0
    0.4232    3.7960    3.0207 H   0  0  0  0  0  0  0  0  0  0  0  0
  1  2  1  0  0  0  0
  2  3  1  0  0  0  0
  2  4  1  0  0  0  0
  2  5  1  0  0  0  0
  5  6  2  0  0  0  0
  5  7  1  0  0  0  0
  7  8  1  0  0  0  0
  7  9  1  0  0  0  0
  9 10  1  0  0  0  0
  9 11  1  0  0  0  0
  9 22  1  0  0  0  0
 11 12  1  0  0  0  0
 11 13  1  0  0  0  0
 11 14  1  0  0  0  0
 14 15  1  0  0  0  0
 14 16  1  0  0  0  0
 14 17  1  0  0  0  0
 17 18  1  0  0  0  0
 18 19  1  0  0  0  0
 18 20  1  0  0  0  0
 18 21  1  0  0  0  0
 22 23  2  0  0  0  0
 22 24  1  0  0  0  0
 24 25  1  0  0  0  0
 24 26  1  0  0  0  0
 26 27  1  0  0  0  0
 26 28  1  0  0  0  0
 26 29  1  0  0  0  0
M  END
$$$$

  -OEChem-02102214153D

 29 28  0     1  0  0  0  0  0999 V2000
   -3.7443   -2.6431    1.1966 H   0  0  0  0  0  0  0  0  0  0  0  0
   -3.0086   -3.0768    0.5152 C   0  0  0  0  0  0  0  0  0  0  0  0
   -2.8372   -4.1189    0.7981 H   0  0  0  0  0  0  0  0  0  0  0  0
   -3.4034   -3.0481   -0.5030 H   0  0  0  0  0  0  0  0  0  0  0  0
   -1.7108   -2.2951    0.5886 C   0  0  0  0  0  0  0  0  0  0  0  0
   -0.6762   -2.8544    0.9149 O   0  0  0  0  0  0  0  0  0  0  0  0
   -1.7053   -0.9504    0.2879 N   0  0  0  0  0  0  0  0  0  0  0  0
   -2.6087   -0.4987    0.1455 H   0  0  0  0  0  0  0  0  0  0  0  0
   -0.5537   -0.0579    0.4947 C   0  0  1  0  0  0  0  0  0  0  0  0
    0.1991   -0.4864    1.1648 H   0  0  0  0  0  0  0  0  0  0  0  0
    0.0412    0.1640   -0.9174 C   0  0  0  0  0  0  0  0  0  0  0  0
    0.5285   -0.7749   -1.2008 H   0  0  0  0  0  0  0  0  0  0  0  0
   -0.7847    0.3176   -1.6207 H   0  0  0  0  0  0  0  0  0  0  0  0
    1.0548    1.3029   -1.1652 C   0  0  0  0  0  0  0  0  0  0  0  0
    1.8451    0.9315   -1.8255 H   0  0  0  0  0  0  0  0  0  0  0  0
    0.5337    2.1026   -1.7018 H   0  0  0  0  0  0  0  0  0  0  0  0
    1.8283    2.0606    0.3214 S   0  0  0  0  0  0  0  0  0  0  0  0
    2.8664    3.3692   -0.4405 C   0  0  0  0  0  0  0  0  0  0  0  0
    3.6050    2.9240   -1.1137 H   0  0  0  0  0  0  0  0  0  0  0  0
    3.3944    3.9297    0.3367 H   0  0  0  0  0  0  0  0  0  0  0  0
    2.2433    4.0645   -1.0109 H   0  0  0  0  0  0  0  0  0  0  0  0
   -1.1490    1.2177    1.1464 C   0  0  0  0  0  0  0  0  0  0  0  0
   -2.2247    1.6555    0.7444 O   0  0  0  0  0  0  0  0  0  0  0  0
   -0.5510    1.8256    2.2348 N   0  0  0  0  0  0  0  0  0  0  0  0
    0.4056    1.5445    2.4361 H   0  0  0  0  0  0  0  0  0  0  0  0
   -1.0526    3.0567    2.8326 C   0  0  0  0  0  0  0  0  0  0  0  0
   -2.0824    2.9233    3.1803 H   0  0  0  0  0  0  0  0  0  0  0  0
   -0.4345    3.3388    3.6903 H   0  0  0  0  0  0  0  0  0  0  0  0
   -1.0293    3.8733    2.1035 H   0  0  0  0  0  0  0  0  0  0  0  0
  1  2  1  0  0  0  0
  2  3  1  0  0  0  0
  2  4  1  0  0  0  0
  2  5  1  0  0  0  0
  5  6  2  0  0  0  0
  5  7  1  0  0  0  0
  7  8  1  0  0  0  0
  7  9  1  0  0  0  0
  9 10  1  0  0  0  0
  9 11  1  0  0  0  0
  9 22  1  0  0  0  0
 11 12  1  0  0  0  0
 11 13  1  0  0  0  0
 11 14  1  0  0  0  0
 14 15  1  0  0  0  0
 14 16  1  0  0  0  0
 14 17  1  0  0  0  0
 17 18  1  0  0  0  0
 18 19  1  0  0  0  0
 18 20  1  0  0  0  0
 18 21  1  0  0  0  0
 22 23  2  0  0  0  0
 22 24  1  0  0  0  0
 24 25  1  0  0  0  0
 24 26  1  0  0  0  0
 26 27  1  0  0  0  0
 26 28  1  0  0  0  0
 26 29  1  0  0  0  0
M  END
$$$$

  -OEChem-02102214153D

 29 28  0     1  0  0  0  0  0999 V2000
   -3.0310   -3.8447    1.9457 H   0  0  0  0  0  0  0  0  0  0  0  0
   -3.1731   -2.8640    1.4833 C   0  0  0  0  0  0  0  0  0  0  0  0
   -3.8271   -2.2649    2.1215 H   0  0  0  0  0  0  0  0  0  0  0  0
   -3.6498   -2.9996    0.5096 H   0  0  0  0  0  0  0  0  0  0  0  0
   -1.8361   -2.1678    1.3128 C   0  0  0  0  0  0  0  0  0  0  0  0
   -0.8104   -2.7160    1.6828 O   0  0  0  0  0  0  0  0  0  0  0  0
   -1.7849   -0.9153    0.7395 N   0  0  0  0  0  0  0  0  0  0  0  0
   -2.6719   -0.4475    0.5552 H   0  0  0  0  0  0  0  0  0  0  0  0
   -0.5753   -0.0814    0.6683 C   0  0  1  0  0  0  0  0  0  0  0  0
    0.2055   -0.4261    1.3549 H   0  0  0  0  0  0  0  0  0  0  0  0
   -0.0807   -0.1645   -0.7934 C   0  0  0  0  0  0  0  0  0  0  0  0
    0.3501   -1.1622   -0.9278 H   0  0  0  0  0  0  0  0  0  0  0  0
   -0.9407   -0.0908   -1.4676 H   0  0  0  0  0  0  0  0  0  0  0  0
    0.9631    0.8679   -1.2611 C   0  0  0  0  0  0  0  0  0  0  0  0
    1.5468    0.4433   -2.0842 H   0  0  0  0  0  0  0  0  0  0  0  0
    0.4279    1.7393   -1.6532 H   0  0  0  0  0  0  0  0  0  0  0  0
    2.1008    1.4593    0.0608 S   0  0  0  0  0  0  0  0  0  0  0  0
    3.0720    2.7272   -0.8434 C   0  0  0  0  0  0  0  0  0  0  0  0
    3.5937    2.2727   -1.6910 H   0  0  0  0  0  0  0  0  0  0  0  0
    2.4112    3.5150   -1.2171 H   0  0  0  0  0  0  0  0  0  0  0  0
    3.8134    3.1786   -0.1773 H   0  0  0  0  0  0  0  0  0  0  0  0
   -1.0079    1.3489    1.0778 C   0  0  0  0  0  0  0  0  0  0  0  0
   -2.0726    1.7999    0.6632 O   0  0  0  0  0  0  0  0  0  0  0  0
   -0.2603    2.1073    1.9586 N   0  0  0  0  0  0  0  0  0  0  0  0
    0.6795    1.7704    2.1558 H   0  0  0  0  0  0  0  0  0  0  0  0
   -0.5955    3.4811    2.3103 C   0  0  0  0  0  0  0  0  0  0  0  0
   -1.5934    3.5300    2.7589 H   0  0  0  0  0  0  0  0  0  0  0  0
    0.1263    3.8719    3.0341 H   0  0  0  0  0  0  0  0  0  0  0  0
   -0.5765    4.1194    1.4208 H   0  0  0  0  0  0  0  0  0  0  0  0
  1  2  1  0  0  0  0
  2  3  1  0  0  0  0
  2  4  1  0  0  0  0
  2  5  1  0  0  0  0
  5  6  2  0  0  0  0
  5  7  1  0  0  0  0
  7  8  1  0  0  0  0
  7  9  1  0  0  0  0
  9 10  1  0  0  0  0
  9 11  1  0  0  0  0
  9 22  1  0  0  0  0
 11 12  1  0  0  0  0
 11 13  1  0  0  0  0
 11 14  1  0  0  0  0
 14 15  1  0  0  0  0
 14 16  1  0  0  0  0
 14 17  1  0  0  0  0
 17 18  1  0  0  0  0
 18 19  1  0  0  0  0
 18 20  1  0  0  0  0
 18 21  1  0  0  0  0
 22 23  2  0  0  0  0
 22 24  1  0  0  0  0
 24 25  1  0  0  0  0
 24 26  1  0  0  0  0
 26 27  1  0  0  0  0
 26 28  1  0  0  0  0
 26 29  1  0  0  0  0
M  END
$$$$

  -OEChem-02102214153D

 29 28  0     1  0  0  0  0  0999 V2000
   -3.4267   -2.8744    1.7654 H   0  0  0  0  0  0  0  0  0  0  0  0
   -3.3813   -2.0766    1.0188 C   0  0  0  0  0  0  0  0  0  0  0  0
   -4.2100   -1.3856    1.1909 H   0  0  0  0  0  0  0  0  0  0  0  0
   -3.4843   -2.5186    0.0248 H   0  0  0  0  0  0  0  0  0  0  0  0
   -2.0603   -1.3382    1.1231 C   0  0  0  0  0  0  0  0  0  0  0  0
   -1.2425   -1.6647    1.9686 O   0  0  0  0  0  0  0  0  0  0  0  0
   -1.7872   -0.2962    0.2628 N   0  0  0  0  0  0  0  0  0  0  0  0
   -2.5290    0.0024   -0.3686 H   0  0  0  0  0  0  0  0  0  0  0  0
   -0.5951    0.5607    0.3472 C   0  0  1  0  0  0  0  0  0  0  0  0
   -0.0805    0.4543    1.3061 H   0  0  0  0  0  0  0  0  0  0  0  0
    0.3189    0.0913   -0.8088 C   0  0  0  0  0  0  0  0  0  0  0  0
    0.7316   -0.8843   -0.5338 H   0  0  0  0  0  0  0  0  0  0  0  0
   -0.2887   -0.0566   -1.7081 H   0  0  0  0  0  0  0  0  0  0  0  0
    1.4795    1.0227   -1.1940 C   0  0  0  0  0  0  0  0  0  0  0  0
    2.1664    0.4871   -1.8569 H   0  0  0  0  0  0  0  0  0  0  0  0
    1.0798    1.8735   -1.7562 H   0  0  0  0  0  0  0  0  0  0  0  0
    2.4124    1.6769    0.2496 S   0  0  0  0  0  0  0  0  0  0  0  0
    3.0437    0.1463    1.0467 C   0  0  0  0  0  0  0  0  0  0  0  0
    3.6334   -0.4372    0.3335 H   0  0  0  0  0  0  0  0  0  0  0  0
    3.6798    0.4034    1.8987 H   0  0  0  0  0  0  0  0  0  0  0  0
    2.2150   -0.4708    1.4061 H   0  0  0  0  0  0  0  0  0  0  0  0
   -1.0576    2.0285    0.1730 C   0  0  0  0  0  0  0  0  0  0  0  0
   -1.7998    2.3290   -0.7529 O   0  0  0  0  0  0  0  0  0  0  0  0
   -0.6529    3.0972    0.9411 N   0  0  0  0  0  0  0  0  0  0  0  0
   -1.0835    3.9764    0.6669 H   0  0  0  0  0  0  0  0  0  0  0  0
   -0.1596    2.9721    2.3069 C   0  0  0  0  0  0  0  0  0  0  0  0
   -0.9237    2.5209    2.9484 H   0  0  0  0  0  0  0  0  0  0  0  0
    0.0858    3.9615    2.7050 H   0  0  0  0  0  0  0  0  0  0  0  0
    0.7431    2.3579    2.3540 H   0  0  0  0  0  0  0  0  0  0  0  0
  1  2  1  0  0  0  0
  2  3  1  0  0  0  0
  2  4  1  0  0  0  0
  2  5  1  0  0  0  0
  5  6  2  0  0  0  0
  5  7  1  0  0  0  0
  7  8  1  0  0  0  0
  7  9  1  0  0  0  0
  9 10  1  0  0  0  0
  9 11  1  0  0  0  0
  9 22  1  0  0  0  0
 11 12  1  0  0  0  0
 11 13  1  0  0  0  0
 11 14  1  0  0  0  0
 14 15  1  0  0  0  0
 14 16  1  0  0  0  0
 14 17  1  0  0  0  0
 17 18  1  0  0  0  0
 18 19  1  0  0  0  0
 18 20  1  0  0  0  0
 18 21  1  0  0  0  0
 22 23  2  0  0  0  0
 22 24  1  0  0  0  0
 24 25  1  0  0  0  0
 24 26  1  0  0  0  0
 26 27  1  0  0  0  0
 26 28  1  0  0  0  0
 26 29  1  0  0  0  0
M  END
$$$$

  -OEChem-02102214153D

 29 28  0     1  0  0  0  0  0999 V2000
   -3.8131   -3.5121    0.7396 H   0  0  0  0  0  0  0  0  0  0  0  0
   -3.6758   -2.5154    0.3110 C   0  0  0  0  0  0  0  0  0  0  0  0
   -4.4310   -1.8449    0.7283 H   0  0  0  0  0  0  0  0  0  0  0  0
   -3.8100   -2.5760   -0.7717 H   0  0  0  0  0  0  0  0  0  0  0  0
   -2.2874   -1.9957    0.6325 C   0  0  0  0  0  0  0  0  0  0  0  0
   -1.5261   -2.6672    1.3095 O   0  0  0  0  0  0  0  0  0  0  0  0
   -1.8962   -0.7604    0.1622 N   0  0  0  0  0  0  0  0  0  0  0  0
   -2.6021   -0.1934   -0.3050 H   0  0  0  0  0  0  0  0  0  0  0  0
   -0.6370   -0.0893    0.5151 C   0  0  1  0  0  0  0  0  0  0  0  0
   -0.2034   -0.5413    1.4138 H   0  0  0  0  0  0  0  0  0  0  0  0
    0.3487   -0.2717   -0.6563 C   0  0  0  0  0  0  0  0  0  0  0  0
    0.6898   -1.3121   -0.6702 H   0  0  0  0  0  0  0  0  0  0  0  0
   -0.1792   -0.0845   -1.5972 H   0  0  0  0  0  0  0  0  0  0  0  0
    1.5672    0.6606   -0.6064 C   0  0  0  0  0  0  0  0  0  0  0  0
    2.2057    0.4585   -1.4724 H   0  0  0  0  0  0  0  0  0  0  0  0
    1.2537    1.7077   -0.6702 H   0  0  0  0  0  0  0  0  0  0  0  0
    2.5368    0.3861    0.9312 S   0  0  0  0  0  0  0  0  0  0  0  0
    3.8845    1.6131    0.7139 C   0  0  0  0  0  0  0  0  0  0  0  0
    4.5675    1.5768    1.5679 H   0  0  0  0  0  0  0  0  0  0  0  0
    4.4512    1.3966   -0.1968 H   0  0  0  0  0  0  0  0  0  0  0  0
    3.4694    2.6226    0.6394 H   0  0  0  0  0  0  0  0  0  0  0  0
   -0.9160    1.3930    0.8394 C   0  0  0  0  0  0  0  0  0  0  0  0
   -1.6910    2.0356    0.1388 O   0  0  0  0  0  0  0  0  0  0  0  0
   -0.3431    1.9898    1.9464 N   0  0  0  0  0  0  0  0  0  0  0  0
    0.3493    1.4470    2.4581 H   0  0  0  0  0  0  0  0  0  0  0  0
   -0.5564    3.3852    2.3075 C   0  0  0  0  0  0  0  0  0  0  0  0
   -1.6233    3.5850    2.4530 H   0  0  0  0  0  0  0  0  0  0  0  0
   -0.0327    3.6179    3.2396 H   0  0  0  0  0  0  0  0  0  0  0  0
   -0.1774    4.0463    1.5213 H   0  0  0  0  0  0  0  0  0  0  0  0
  1  2  1  0  0  0  0
  2  3  1  0  0  0  0
  2  4  1  0  0  0  0
  2  5  1  0  0  0  0
  5  6  2  0  0  0  0
  5  7  1  0  0  0  0
  7  8  1  0  0  0  0
  7  9  1  0  0  0  0
  9 10  1  0  0  0  0
  9 11  1  0  0  0  0
  9 22  1  0  0  0  0
 11 12  1  0  0  0  0
 11 13  1  0  0  0  0
 11 14  1  0  0  0  0
 14 15  1  0  0  0  0
 14 16  1  0  0  0  0
 14 17  1  0  0  0  0
 17 18  1  0  0  0  0
 18 19  1  0  0  0  0
 18 20  1  0  0  0  0
 18 21  1  0  0  0  0
 22 23  2  0  0  0  0
 22 24  1  0  0  0  0
 24 25  1  0  0  0  0
 24 26  1  0  0  0  0
 26 27  1  0  0  0  0
 26 28  1  0  0  0  0
 26 29  1  0  0  0  0
M  END
$$$$

  -OEChem-02102214153D

 29 28  0     1  0  0  0  0  0999 V2000
   -3.8393   -3.4881    0.7320 H   0  0  0  0  0  0  0  0  0  0  0  0
   -3.6924   -2.4856    0.3200 C   0  0  0  0  0  0  0  0  0  0  0  0
   -4.4285   -1.8111    0.7639 H   0  0  0  0  0  0  0  0  0  0  0  0
   -3.8474   -2.5229   -0.7610 H   0  0  0  0  0  0  0  0  0  0  0  0
   -2.2898   -1.9950    0.6256 C   0  0  0  0  0  0  0  0  0  0  0  0
   -1.5237   -2.6972    1.2650 O   0  0  0  0  0  0  0  0  0  0  0  0
   -1.8918   -0.7492    0.1890 N   0  0  0  0  0  0  0  0  0  0  0  0
   -2.5970   -0.1600   -0.2507 H   0  0  0  0  0  0  0  0  0  0  0  0
   -0.6098   -0.1129    0.5248 C   0  0  1  0  0  0  0  0  0  0  0  0
   -0.1578   -0.6033    1.3937 H   0  0  0  0  0  0  0  0  0  0  0  0
    0.3427   -0.2835   -0.6764 C   0  0  0  0  0  0  0  0  0  0  0  0
    0.6545   -1.3309   -0.7476 H   0  0  0  0  0  0  0  0  0  0  0  0
   -0.2110   -0.0435   -1.5902 H   0  0  0  0  0  0  0  0  0  0  0  0
    1.5816    0.6234   -0.6346 C   0  0  0  0  0  0  0  0  0  0  0  0
    2.0607    0.6053   -1.6188 H   0  0  0  0  0  0  0  0  0  0  0  0
    1.3211    1.6650   -0.4255 H   0  0  0  0  0  0  0  0  0  0  0  0
    2.7777   -0.0121    0.6050 S   0  0  0  0  0  0  0  0  0  0  0  0
    4.1315    1.2188    0.4562 C   0  0  0  0  0  0  0  0  0  0  0  0
    3.7616    2.2207    0.6937 H   0  0  0  0  0  0  0  0  0  0  0  0
    4.9418    0.9714    1.1485 H   0  0  0  0  0  0  0  0  0  0  0  0
    4.5306    1.2226   -0.5624 H   0  0  0  0  0  0  0  0  0  0  0  0
   -0.8487    1.3601    0.9137 C   0  0  0  0  0  0  0  0  0  0  0  0
   -1.6211    2.0493    0.2563 O   0  0  0  0  0  0  0  0  0  0  0  0
   -0.2265    1.9009    2.0233 N   0  0  0  0  0  0  0  0  0  0  0  0
    0.4255    1.3063    2.5295 H   0  0  0  0  0  0  0  0  0  0  0  0
   -0.4135    3.2794    2.4577 C   0  0  0  0  0  0  0  0  0  0  0  0
   -1.4693    3.4725    2.6751 H   0  0  0  0  0  0  0  0  0  0  0  0
    0.1661    3.4721    3.3656 H   0  0  0  0  0  0  0  0  0  0  0  0
   -0.0807    3.9747    1.6800 H   0  0  0  0  0  0  0  0  0  0  0  0
  1  2  1  0  0  0  0
  2  3  1  0  0  0  0
  2  4  1  0  0  0  0
  2  5  1  0  0  0  0
  5  6  2  0  0  0  0
  5  7  1  0  0  0  0
  7  8  1  0  0  0  0
  7  9  1  0  0  0  0
  9 10  1  0  0  0  0
  9 11  1  0  0  0  0
  9 22  1  0  0  0  0
 11 12  1  0  0  0  0
 11 13  1  0  0  0  0
 11 14  1  0  0  0  0
 14 15  1  0  0  0  0
 14 16  1  0  0  0  0
 14 17  1  0  0  0  0
 17 18  1  0  0  0  0
 18 19  1  0  0  0  0
 18 20  1  0  0  0  0
 18 21  1  0  0  0  0
 22 23  2  0  0  0  0
 22 24  1  0  0  0  0
 24 25  1  0  0  0  0
 24 26  1  0  0  0  0
 26 27  1  0  0  0  0
 26 28  1  0  0  0  0
 26 29  1  0  0  0  0
M  END
$$$$

  -OEChem-02102214153D

 29 28  0     1  0  0  0  0  0999 V2000
   -3.5009   -3.3952    1.1821 H   0  0  0  0  0  0  0  0  0  0  0  0
   -3.4255   -2.4133    0.7065 C   0  0  0  0  0  0  0  0  0  0  0  0
   -4.0925   -1.7194    1.2238 H   0  0  0  0  0  0  0  0  0  0  0  0
   -3.7398   -2.5020   -0.3361 H   0  0  0  0  0  0  0  0  0  0  0  0
   -1.9968   -1.9081    0.7759 C   0  0  0  0  0  0  0  0  0  0  0  0
   -1.1384   -2.5761    1.3295 O   0  0  0  0  0  0  0  0  0  0  0  0
   -1.6765   -0.6801    0.2367 N   0  0  0  0  0  0  0  0  0  0  0  0
   -2.4391   -0.1121   -0.1296 H   0  0  0  0  0  0  0  0  0  0  0  0
   -0.3542   -0.0450    0.3311 C   0  0  1  0  0  0  0  0  0  0  0  0
    0.2470   -0.5151    1.1148 H   0  0  0  0  0  0  0  0  0  0  0  0
    0.3485   -0.2399   -1.0292 C   0  0  0  0  0  0  0  0  0  0  0  0
    0.6161   -1.2946   -1.1522 H   0  0  0  0  0  0  0  0  0  0  0  0
   -0.3762    0.0026   -1.8138 H   0  0  0  0  0  0  0  0  0  0  0  0
    1.5871    0.6403   -1.2766 C   0  0  0  0  0  0  0  0  0  0  0  0
    1.6871    0.7829   -2.3574 H   0  0  0  0  0  0  0  0  0  0  0  0
    1.4954    1.6365   -0.8360 H   0  0  0  0  0  0  0  0  0  0  0  0
    3.1171   -0.1946   -0.6894 S   0  0  0  0  0  0  0  0  0  0  0  0
    3.2455    0.2883    1.0770 C   0  0  0  0  0  0  0  0  0  0  0  0
    2.4395   -0.1657    1.6585 H   0  0  0  0  0  0  0  0  0  0  0  0
    4.2003   -0.0546    1.4867 H   0  0  0  0  0  0  0  0  0  0  0  0
    3.1931    1.3762    1.1784 H   0  0  0  0  0  0  0  0  0  0  0  0
   -0.5429    1.4395    0.7069 C   0  0  0  0  0  0  0  0  0  0  0  0
   -1.4056    2.1064    0.1468 O   0  0  0  0  0  0  0  0  0  0  0  0
    0.2435    2.0256    1.6816 N   0  0  0  0  0  0  0  0  0  0  0  0
    0.8844    1.4230    2.1894 H   0  0  0  0  0  0  0  0  0  0  0  0
    0.0693    3.4029    2.1265 C   0  0  0  0  0  0  0  0  0  0  0  0
   -0.9181    3.5360    2.5810 H   0  0  0  0  0  0  0  0  0  0  0  0
    0.8307    3.6597    2.8692 H   0  0  0  0  0  0  0  0  0  0  0  0
    0.1649    4.0942    1.2824 H   0  0  0  0  0  0  0  0  0  0  0  0
  1  2  1  0  0  0  0
  2  3  1  0  0  0  0
  2  4  1  0  0  0  0
  2  5  1  0  0  0  0
  5  6  2  0  0  0  0
  5  7  1  0  0  0  0
  7  8  1  0  0  0  0
  7  9  1  0  0  0  0
  9 10  1  0  0  0  0
  9 11  1  0  0  0  0
  9 22  1  0  0  0  0
 11 12  1  0  0  0  0
 11 13  1  0  0  0  0
 11 14  1  0  0  0  0
 14 15  1  0  0  0  0
 14 16  1  0  0  0  0
 14 17  1  0  0  0  0
 17 18  1  0  0  0  0
 18 19  1  0  0  0  0
 18 20  1  0  0  0  0
 18 21  1  0  0  0  0
 22 23  2  0  0  0  0
 22 24  1  0  0  0  0
 24 25  1  0  0  0  0
 24 26  1  0  0  0  0
 26 27  1  0  0  0  0
 26 28  1  0  0  0  0
 26 29  1  0  0  0  0
M  END
$$$$

  -OEChem-02102214153D

 29 28  0     1  0  0  0  0  0999 V2000
   -3.2137   -3.4227    1.3033 H   0  0  0  0  0  0  0  0  0  0  0  0
   -3.1980   -2.4464    0.8110 C   0  0  0  0  0  0  0  0  0  0  0  0
   -3.8873   -1.7778    1.3324 H   0  0  0  0  0  0  0  0  0  0  0  0
   -3.5305   -2.5677   -0.2227 H   0  0  0  0  0  0  0  0  0  0  0  0
   -1.7958   -1.8686    0.8392 C   0  0  0  0  0  0  0  0  0  0  0  0
   -0.8890   -2.4842    1.3772 O   0  0  0  0  0  0  0  0  0  0  0  0
   -1.5508   -0.6356    0.2728 N   0  0  0  0  0  0  0  0  0  0  0  0
   -2.3509   -0.1080   -0.0740 H   0  0  0  0  0  0  0  0  0  0  0  0
   -0.2640    0.0705    0.3444 C   0  0  1  0  0  0  0  0  0  0  0  0
    0.3666   -0.3445    1.1362 H   0  0  0  0  0  0  0  0  0  0  0  0
    0.4395   -0.1165   -1.0182 C   0  0  0  0  0  0  0  0  0  0  0  0
    0.7521   -1.1602   -1.1275 H   0  0  0  0  0  0  0  0  0  0  0  0
   -0.3017    0.0753   -1.8017 H   0  0  0  0  0  0  0  0  0  0  0  0
    1.6299    0.8246   -1.2895 C   0  0  0  0  0  0  0  0  0  0  0  0
    1.5572    1.1944   -2.3175 H   0  0  0  0  0  0  0  0  0  0  0  0
    1.6289    1.7007   -0.6375 H   0  0  0  0  0  0  0  0  0  0  0  0
    3.2325   -0.0638   -1.1182 S   0  0  0  0  0  0  0  0  0  0  0  0
    3.1951   -0.7479    0.5869 C   0  0  0  0  0  0  0  0  0  0  0  0
    2.4214   -1.5167    0.6756 H   0  0  0  0  0  0  0  0  0  0  0  0
    4.1608   -1.2024    0.8275 H   0  0  0  0  0  0  0  0  0  0  0  0
    2.9928    0.0464    1.3107 H   0  0  0  0  0  0  0  0  0  0  0  0
   -0.5374    1.5489    0.6941 C   0  0  0  0  0  0  0  0  0  0  0  0
   -1.4498    2.1493    0.1377 O   0  0  0  0  0  0  0  0  0  0  0  0
    0.2191    2.1985    1.6522 N   0  0  0  0  0  0  0  0  0  0  0  0
    0.9231    1.6559    2.1445 H   0  0  0  0  0  0  0  0  0  0  0  0
   -0.0287    3.5741    2.0666 C   0  0  0  0  0  0  0  0  0  0  0  0
   -1.0305    3.6693    2.4987 H   0  0  0  0  0  0  0  0  0  0  0  0
    0.7035    3.8806    2.8198 H   0  0  0  0  0  0  0  0  0  0  0  0
    0.0519    4.2527    1.2109 H   0  0  0  0  0  0  0  0  0  0  0  0
  1  2  1  0  0  0  0
  2  3  1  0  0  0  0
  2  4  1  0  0  0  0
  2  5  1  0  0  0  0
  5  6  2  0  0  0  0
  5  7  1  0  0  0  0
  7  8  1  0  0  0  0
  7  9  1  0  0  0  0
  9 10  1  0  0  0  0
  9 11  1  0  0  0  0
  9 22  1  0  0  0  0
 11 12  1  0  0  0  0
 11 13  1  0  0  0  0
 11 14  1  0  0  0  0
 14 15  1  0  0  0  0
 14 16  1  0  0  0  0
 14 17  1  0  0  0  0
 17 18  1  0  0  0  0
 18 19  1  0  0  0  0
 18 20  1  0  0  0  0
 18 21  1  0  0  0  0
 22 23  2  0  0  0  0
 22 24  1  0  0  0  0
 24 25  1  0  0  0  0
 24 26  1  0  0  0  0
 26 27  1  0  0  0  0
 26 28  1  0  0  0  0
 26 29  1  0  0  0  0
M  END
$$$$

  -OEChem-02102214153D

 29 28  0     1  0  0  0  0  0999 V2000
   -3.2523   -3.4304    1.2739 H   0  0  0  0  0  0  0  0  0  0  0  0
   -3.2270   -2.4538    0.7823 C   0  0  0  0  0  0  0  0  0  0  0  0
   -3.9193   -1.7827    1.2965 H   0  0  0  0  0  0  0  0  0  0  0  0
   -3.5487   -2.5734   -0.2550 H   0  0  0  0  0  0  0  0  0  0  0  0
   -1.8223   -1.8829    0.8258 C   0  0  0  0  0  0  0  0  0  0  0  0
   -0.9227   -2.5091    1.3638 O   0  0  0  0  0  0  0  0  0  0  0  0
   -1.5642   -0.6485    0.2682 N   0  0  0  0  0  0  0  0  0  0  0  0
   -2.3568   -0.1132   -0.0842 H   0  0  0  0  0  0  0  0  0  0  0  0
   -0.2684    0.0408    0.3407 C   0  0  1  0  0  0  0  0  0  0  0  0
    0.3676   -0.3907    1.1205 H   0  0  0  0  0  0  0  0  0  0  0  0
    0.4196   -0.1384   -1.0289 C   0  0  0  0  0  0  0  0  0  0  0  0
    0.7238   -1.1842   -1.1368 H   0  0  0  0  0  0  0  0  0  0  0  0
   -0.3182    0.0567   -1.8147 H   0  0  0  0  0  0  0  0  0  0  0  0
    1.6180    0.7966   -1.2849 C   0  0  0  0  0  0  0  0  0  0  0  0
    1.4130    1.4126   -2.1668 H   0  0  0  0  0  0  0  0  0  0  0  0
    1.7966    1.4758   -0.4482 H   0  0  0  0  0  0  0  0  0  0  0  0
    3.1504   -0.1779   -1.5755 S   0  0  0  0  0  0  0  0  0  0  0  0
    3.4170   -1.0138    0.0401 C   0  0  0  0  0  0  0  0  0  0  0  0
    2.5879   -1.6909    0.2665 H   0  0  0  0  0  0  0  0  0  0  0  0
    4.3418   -1.5976    0.0098 H   0  0  0  0  0  0  0  0  0  0  0  0
    3.4971   -0.2737    0.8413 H   0  0  0  0  0  0  0  0  0  0  0  0
   -0.5213    1.5206    0.7035 C   0  0  0  0  0  0  0  0  0  0  0  0
   -1.4233    2.1395    0.1504 O   0  0  0  0  0  0  0  0  0  0  0  0
    0.2466    2.1536    1.6641 N   0  0  0  0  0  0  0  0  0  0  0  0
    0.9357    1.5945    2.1591 H   0  0  0  0  0  0  0  0  0  0  0  0
    0.0235    3.5315    2.0853 C   0  0  0  0  0  0  0  0  0  0  0  0
   -0.9806    3.6460    2.5072 H   0  0  0  0  0  0  0  0  0  0  0  0
    0.7539    3.8167    2.8486 H   0  0  0  0  0  0  0  0  0  0  0  0
    0.1285    4.2142    1.2354 H   0  0  0  0  0  0  0  0  0  0  0  0
  1  2  1  0  0  0  0
  2  3  1  0  0  0  0
  2  4  1  0  0  0  0
  2  5  1  0  0  0  0
  5  6  2  0  0  0  0
  5  7  1  0  0  0  0
  7  8  1  0  0  0  0
  7  9  1  0  0  0  0
  9 10  1  0  0  0  0
  9 11  1  0  0  0  0
  9 22  1  0  0  0  0
 11 12  1  0  0  0  0
 11 13  1  0  0  0  0
 11 14  1  0  0  0  0
 14 15  1  0  0  0  0
 14 16  1  0  0  0  0
 14 17  1  0  0  0  0
 17 18  1  0  0  0  0
 18 19  1  0  0  0  0
 18 20  1  0  0  0  0
 18 21  1  0  0  0  0
 22 23  2  0  0  0  0
 22 24  1  0  0  0  0
 24 25  1  0  0  0  0
 24 26  1  0  0  0  0
 26 27  1  0  0  0  0
 26 28  1  0  0  0  0
 26 29  1  0  0  0  0
M  END
$$$$

  -OEChem-02102214153D

 29 28  0     1  0  0  0  0  0999 V2000
   -3.3121   -3.4265    1.2589 H   0  0  0  0  0  0  0  0  0  0  0  0
   -3.2725   -2.4519    0.7641 C   0  0  0  0  0  0  0  0  0  0  0  0
   -3.9621   -1.7718    1.2700 H   0  0  0  0  0  0  0  0  0  0  0  0
   -3.5863   -2.5718   -0.2757 H   0  0  0  0  0  0  0  0  0  0  0  0
   -1.8625   -1.8951    0.8172 C   0  0  0  0  0  0  0  0  0  0  0  0
   -0.9706   -2.5339    1.3529 O   0  0  0  0  0  0  0  0  0  0  0  0
   -1.5911   -0.6613    0.2652 N   0  0  0  0  0  0  0  0  0  0  0  0
   -2.3771   -0.1194   -0.0912 H   0  0  0  0  0  0  0  0  0  0  0  0
   -0.2883    0.0142    0.3355 C   0  0  1  0  0  0  0  0  0  0  0  0
    0.3470   -0.4312    1.1080 H   0  0  0  0  0  0  0  0  0  0  0  0
    0.3902   -0.1590   -1.0374 C   0  0  0  0  0  0  0  0  0  0  0  0
    0.6991   -1.2044   -1.1331 H   0  0  0  0  0  0  0  0  0  0  0  0
   -0.3403    0.0307   -1.8312 H   0  0  0  0  0  0  0  0  0  0  0  0
    1.5914    0.7751   -1.2707 C   0  0  0  0  0  0  0  0  0  0  0  0
    1.2955    1.5935   -1.9357 H   0  0  0  0  0  0  0  0  0  0  0  0
    1.9372    1.2182   -0.3330 H   0  0  0  0  0  0  0  0  0  0  0  0
    2.9999   -0.1507   -2.0038 S   0  0  0  0  0  0  0  0  0  0  0  0
    3.5729   -1.1882   -0.5984 C   0  0  0  0  0  0  0  0  0  0  0  0
    2.7775   -1.8613   -0.2653 H   0  0  0  0  0  0  0  0  0  0  0  0
    4.4319   -1.7919   -0.9063 H   0  0  0  0  0  0  0  0  0  0  0  0
    3.8738   -0.5560    0.2420 H   0  0  0  0  0  0  0  0  0  0  0  0
   -0.5120    1.4968    0.7052 C   0  0  0  0  0  0  0  0  0  0  0  0
   -1.4044    2.1339    0.1577 O   0  0  0  0  0  0  0  0  0  0  0  0
    0.2727    2.1123    1.6636 N   0  0  0  0  0  0  0  0  0  0  0  0
    0.9532    1.5392    2.1546 H   0  0  0  0  0  0  0  0  0  0  0  0
    0.0805    3.4946    2.0854 C   0  0  0  0  0  0  0  0  0  0  0  0
   -0.9247    3.6337    2.4970 H   0  0  0  0  0  0  0  0  0  0  0  0
    0.8098    3.7600    2.8568 H   0  0  0  0  0  0  0  0  0  0  0  0
    0.2117    4.1756    1.2379 H   0  0  0  0  0  0  0  0  0  0  0  0
  1  2  1  0  0  0  0
  2  3  1  0  0  0  0
  2  4  1  0  0  0  0
  2  5  1  0  0  0  0
  5  6  2  0  0  0  0
  5  7  1  0  0  0  0
  7  8  1  0  0  0  0
  7  9  1  0  0  0  0
  9 10  1  0  0  0  0
  9 11  1  0  0  0  0
  9 22  1  0  0  0  0
 11 12  1  0  0  0  0
 11 13  1  0  0  0  0
 11 14  1  0  0  0  0
 14 15  1  0  0  0  0
 14 16  1  0  0  0  0
 14 17  1  0  0  0  0
 17 18  1  0  0  0  0
 18 19  1  0  0  0  0
 18 20  1  0  0  0  0
 18 21  1  0  0  0  0
 22 23  2  0  0  0  0
 22 24  1  0  0  0  0
 24 25  1  0  0  0  0
 24 26  1  0  0  0  0
 26 27  1  0  0  0  0
 26 28  1  0  0  0  0
 26 29  1  0  0  0  0
M  END
$$$$

  -OEChem-02102214153D

 29 28  0     1  0  0  0  0  0999 V2000
   -3.3531   -3.4189    1.2651 H   0  0  0  0  0  0  0  0  0  0  0  0
   -3.3076   -2.4463    0.7673 C   0  0  0  0  0  0  0  0  0  0  0  0
   -3.9911   -1.7601    1.2729 H   0  0  0  0  0  0  0  0  0  0  0  0
   -3.6248   -2.5671   -0.2712 H   0  0  0  0  0  0  0  0  0  0  0  0
   -1.8932   -1.9002    0.8155 C   0  0  0  0  0  0  0  0  0  0  0  0
   -1.0044   -2.5468    1.3469 O   0  0  0  0  0  0  0  0  0  0  0  0
   -1.6138   -0.6677    0.2644 N   0  0  0  0  0  0  0  0  0  0  0  0
   -2.3968   -0.1195   -0.0888 H   0  0  0  0  0  0  0  0  0  0  0  0
   -0.3056   -0.0021    0.3287 C   0  0  1  0  0  0  0  0  0  0  0  0
    0.3276   -0.4552    1.0986 H   0  0  0  0  0  0  0  0  0  0  0  0
    0.3710   -0.1726   -1.0445 C   0  0  0  0  0  0  0  0  0  0  0  0
    0.6867   -1.2160   -1.1361 H   0  0  0  0  0  0  0  0  0  0  0  0
   -0.3530    0.0181   -1.8437 H   0  0  0  0  0  0  0  0  0  0  0  0
    1.5716    0.7626   -1.2552 C   0  0  0  0  0  0  0  0  0  0  0  0
    1.2284    1.7136   -1.6767 H   0  0  0  0  0  0  0  0  0  0  0  0
    2.0654    0.9761   -0.3025 H   0  0  0  0  0  0  0  0  0  0  0  0
    2.8065   -0.0118   -2.3745 S   0  0  0  0  0  0  0  0  0  0  0  0
    3.5975   -1.2752   -1.2987 C   0  0  0  0  0  0  0  0  0  0  0  0
    2.8621   -2.0109   -0.9607 H   0  0  0  0  0  0  0  0  0  0  0  0
    4.3821   -1.7988   -1.8532 H   0  0  0  0  0  0  0  0  0  0  0  0
    4.0473   -0.7988   -0.4228 H   0  0  0  0  0  0  0  0  0  0  0  0
   -0.5065    1.4822    0.7013 C   0  0  0  0  0  0  0  0  0  0  0  0
   -1.3960    2.1315    0.1636 O   0  0  0  0  0  0  0  0  0  0  0  0
    0.2940    2.0845    1.6545 N   0  0  0  0  0  0  0  0  0  0  0  0
    0.9698    1.5009    2.1394 H   0  0  0  0  0  0  0  0  0  0  0  0
    0.1259    3.4691    2.0782 C   0  0  0  0  0  0  0  0  0  0  0  0
   -0.8736    3.6230    2.4983 H   0  0  0  0  0  0  0  0  0  0  0  0
    0.8658    3.7230    2.8434 H   0  0  0  0  0  0  0  0  0  0  0  0
    0.2600    4.1479    1.2293 H   0  0  0  0  0  0  0  0  0  0  0  0
  1  2  1  0  0  0  0
  2  3  1  0  0  0  0
  2  4  1  0  0  0  0
  2  5  1  0  0  0  0
  5  6  2  0  0  0  0
  5  7  1  0  0  0  0
  7  8  1  0  0  0  0
  7  9  1  0  0  0  0
  9 10  1  0  0  0  0
  9 11  1  0  0  0  0
  9 22  1  0  0  0  0
 11 12  1  0  0  0  0
 11 13  1  0  0  0  0
 11 14  1  0  0  0  0
 14 15  1  0  0  0  0
 14 16  1  0  0  0  0
 14 17  1  0  0  0  0
 17 18  1  0  0  0  0
 18 19  1  0  0  0  0
 18 20  1  0  0  0  0
 18 21  1  0  0  0  0
 22 23  2  0  0  0  0
 22 24  1  0  0  0  0
 24 25  1  0  0  0  0
 24 26  1  0  0  0  0
 26 27  1  0  0  0  0
 26 28  1  0  0  0  0
 26 29  1  0  0  0  0
M  END
$$$$

  -OEChem-02102214153D

 29 28  0     1  0  0  0  0  0999 V2000
   -3.3574   -3.4139    1.2735 H   0  0  0  0  0  0  0  0  0  0  0  0
   -3.3130   -2.4412    0.7756 C   0  0  0  0  0  0  0  0  0  0  0  0
   -3.9890   -1.7523    1.2880 H   0  0  0  0  0  0  0  0  0  0  0  0
   -3.6406   -2.5606   -0.2600 H   0  0  0  0  0  0  0  0  0  0  0  0
   -1.8964   -1.9002    0.8112 C   0  0  0  0  0  0  0  0  0  0  0  0
   -1.0042   -2.5534    1.3287 O   0  0  0  0  0  0  0  0  0  0  0  0
   -1.6186   -0.6659    0.2633 N   0  0  0  0  0  0  0  0  0  0  0  0
   -2.4039   -0.1132   -0.0783 H   0  0  0  0  0  0  0  0  0  0  0  0
   -0.3098   -0.0012    0.3251 C   0  0  1  0  0  0  0  0  0  0  0  0
    0.3210   -0.4559    1.0960 H   0  0  0  0  0  0  0  0  0  0  0  0
    0.3709   -0.1787   -1.0452 C   0  0  0  0  0  0  0  0  0  0  0  0
    0.6890   -1.2214   -1.1332 H   0  0  0  0  0  0  0  0  0  0  0  0
   -0.3522    0.0127   -1.8451 H   0  0  0  0  0  0  0  0  0  0  0  0
    1.5707    0.7552   -1.2546 C   0  0  0  0  0  0  0  0  0  0  0  0
    1.2193    1.7758   -1.4415 H   0  0  0  0  0  0  0  0  0  0  0  0
    2.2012    0.7716   -0.3600 H   0  0  0  0  0  0  0  0  0  0  0  0
    2.5801    0.1918   -2.6835 S   0  0  0  0  0  0  0  0  0  0  0  0
    3.4686   -1.2732   -2.0183 C   0  0  0  0  0  0  0  0  0  0  0  0
    2.7620   -2.0596   -1.7384 H   0  0  0  0  0  0  0  0  0  0  0  0
    4.1485   -1.6724   -2.7768 H   0  0  0  0  0  0  0  0  0  0  0  0
    4.0537   -0.9944   -1.1370 H   0  0  0  0  0  0  0  0  0  0  0  0
   -0.5044    1.4825    0.7032 C   0  0  0  0  0  0  0  0  0  0  0  0
   -1.3989    2.1341    0.1768 O   0  0  0  0  0  0  0  0  0  0  0  0
    0.3020    2.0795    1.6549 N   0  0  0  0  0  0  0  0  0  0  0  0
    0.9834    1.4943    2.1302 H   0  0  0  0  0  0  0  0  0  0  0  0
    0.1360    3.4619    2.0876 C   0  0  0  0  0  0  0  0  0  0  0  0
   -0.8607    3.6128    2.5157 H   0  0  0  0  0  0  0  0  0  0  0  0
    0.8808    3.7122    2.8492 H   0  0  0  0  0  0  0  0  0  0  0  0
    0.2638    4.1461    1.2420 H   0  0  0  0  0  0  0  0  0  0  0  0
  1  2  1  0  0  0  0
  2  3  1  0  0  0  0
  2  4  1  0  0  0  0
  2  5  1  0  0  0  0
  5  6  2  0  0  0  0
  5  7  1  0  0  0  0
  7  8  1  0  0  0  0
  7  9  1  0  0  0  0
  9 10  1  0  0  0  0
  9 11  1  0  0  0  0
  9 22  1  0  0  0  0
 11 12  1  0  0  0  0
 11 13  1  0  0  0  0
 11 14  1  0  0  0  0
 14 15  1  0  0  0  0
 14 16  1  0  0  0  0
 14 17  1  0  0  0  0
 17 18  1  0  0  0  0
 18 19  1  0  0  0  0
 18 20  1  0  0  0  0
 18 21  1  0  0  0  0
 22 23  2  0  0  0  0
 22 24  1  0  0  0  0
 24 25  1  0  0  0  0
 24 26  1  0  0  0  0
 26 27  1  0  0  0  0
 26 28  1  0  0  0  0
 26 29  1  0  0  0  0
M  END
$$$$
